2


 38 41  0  0  0  0  0  0  0  0999 V2000
   49.4293   84.6236   28.3601 C   0  0  0  0  0  0  0  0  0  0  0  0
   48.1342   85.0947   28.3187 N   0  0  0  0  0  0  0  0  0  0  0  0
   47.4596   84.4771   29.2344 N   0  0  0  0  0  0  0  0  0  0  0  0
   48.2763   83.6036   29.8854 N   0  0  0  0  0  0  0  0  0  0  0  0
   49.5015   83.6711   29.3681 C   0  0  0  0  0  0  0  0  0  0  0  0
   47.7463   82.7967   30.9399 C   0  0  0  0  0  0  0  0  0  0  0  0
   48.1225   82.6271   32.2011 N   0  0  0  0  0  0  0  0  0  0  0  0
   47.2854   81.8112   32.7523 O   0  0  0  0  0  0  0  0  0  0  0  0
   46.3686   81.4273   31.9204 N   0  0  0  0  0  0  0  0  0  0  0  0
   46.5969   82.0124   30.7525 C   0  0  0  0  0  0  0  0  0  0  0  0
   45.8748   81.9101   29.5359 N   0  0  0  0  0  0  0  0  0  0  0  0
   44.8609   82.1461   29.5210 H   0  0  0  0  0  0  0  0  0  0  0  0
   46.3270   81.5988   28.6285 H   0  0  0  0  0  0  0  0  0  0  0  0
   51.6542   84.5058   27.0587 N   0  0  0  0  0  0  0  0  0  0  0  0
   50.4603   85.1068   27.4734 C   0  0  0  0  0  0  0  0  0  0  0  0
   50.2300   86.2949   26.9836 O   0  0  0  0  0  0  0  0  0  0  0  0
   51.9774   83.5929   27.3330 H   0  0  0  0  0  0  0  0  0  0  0  0
   53.5851   84.7944   25.7328 C   0  0  0  0  0  0  0  0  0  0  0  0
   52.4742   85.2682   26.1566 N   0  0  0  0  0  0  0  0  0  0  0  0
   54.3992   86.5574   20.7661 Br  0  0  0  0  0  0  0  0  0  0  0  0
   54.9186   86.3736   22.6056 C   0  0  0  0  0  0  0  0  0  0  0  0
   56.1080   86.9462   23.0138 C   0  0  0  0  0  0  0  0  0  0  0  0
   56.4616   86.8031   24.3378 C   0  0  0  0  0  0  0  0  0  0  0  0
   55.6452   86.1076   25.2140 C   0  0  0  0  0  0  0  0  0  0  0  0
   54.4569   85.5340   24.8106 C   0  0  0  0  0  0  0  0  0  0  0  0
   54.1098   85.6814   23.4838 C   0  0  0  0  0  0  0  0  0  0  0  0
   52.8976   85.0954   23.0758 O   0  0  0  0  0  0  0  0  0  0  0  0
   58.1082   87.5972   24.8989 Br  0  0  0  0  0  0  0  0  0  0  0  0
   56.9063   87.6406   22.1029 O   0  0  0  0  0  0  0  0  0  0  0  0
   52.6063   85.1809   22.1144 H   0  0  0  0  0  0  0  0  0  0  0  0
   50.7037   82.9287   29.7456 C   0  0  0  0  0  0  0  0  0  0  0  0
   51.2019   83.0229   31.0659 N   0  0  0  0  0  0  0  0  0  0  0  0
   51.3871   84.3942   31.5174 C   0  0  0  0  0  0  0  0  0  0  0  0
   52.1847   85.1743   30.5509 C   0  0  0  0  0  0  0  0  0  0  0  0
   53.1452   84.5901   29.8320 O   0  0  0  0  0  0  0  0  0  0  0  0
   53.3539   83.2541   29.9479 C   0  0  0  0  0  0  0  0  0  0  0  0
   52.6223   82.5459   31.0145 C   0  0  0  0  0  0  0  0  0  0  0  0
   50.6987   82.4498   31.7272 H   0  0  0  0  0  0  0  0  0  0  0  0
 20 21  1  0  0  0
 21 22  2  0  0  0
 21 26  1  0  0  0
 22 23  1  0  0  0
 22 29  1  0  0  0
 23 24  2  0  0  0
 23 28  1  0  0  0
 24 25  1  0  0  0
 25 26  2  0  0  0
 25 18  1  0  0  0
 26 27  1  0  0  0
 18 19  2  0  0  0
 19 14  1  0  0  0
 14 15  1  0  0  0
 15 16  2  0  0  0
 15  1  1  0  0  0
  1  2  1  0  0  0
  1  5  2  0  0  0
  2  3  2  0  0  0
  3  4  1  0  0  0
  4  5  1  0  0  0
  4  6  1  0  0  0
  5 31  1  0  0  0
 31 32  1  0  0  0
 32 33  1  0  0  0
 32 37  1  0  0  0
 33 34  1  0  0  0
 34 35  1  0  0  0
 35 36  1  0  0  0
 36 37  1  0  0  0
  6  7  2  0  0  0
  6 10  1  0  0  0
  7  8  1  0  0  0
  8  9  1  0  0  0
  9 10  2  0  0  0
 10 11  1  0  0  0
 27 30  1  0  0  0
 14 17  1  0  0  0
 32 38  1  0  0  0
 11 12  1  0  0  0
 11 13  1  0  0  0
M  CHG 1  29  -1
M  CHG 1  32   1
M  END
> <minimizedAffinity>
-7.86453

$$$$
3


 38 41  0  0  0  0  0  0  0  0999 V2000
   54.5995   90.0094   21.1147 C   0  0  0  0  0  0  0  0  0  0  0  0
   53.8857   89.8928   19.9483 N   0  0  0  0  0  0  0  0  0  0  0  0
   53.7351   88.6305   19.6571 N   0  0  0  0  0  0  0  0  0  0  0  0
   54.3067   87.8546   20.5618 N   0  0  0  0  0  0  0  0  0  0  0  0
   54.8497   88.6802   21.4724 C   0  0  0  0  0  0  0  0  0  0  0  0
   54.2773   86.4388   20.5245 C   0  0  0  0  0  0  0  0  0  0  0  0
   55.2645   85.5537   20.7793 N   0  0  0  0  0  0  0  0  0  0  0  0
   54.8130   84.3353   20.6412 O   0  0  0  0  0  0  0  0  0  0  0  0
   53.5497   84.3529   20.3001 N   0  0  0  0  0  0  0  0  0  0  0  0
   53.1838   85.6430   20.2188 C   0  0  0  0  0  0  0  0  0  0  0  0
   51.8863   86.0803   19.8751 N   0  0  0  0  0  0  0  0  0  0  0  0
   51.1147   85.9381   20.5518 H   0  0  0  0  0  0  0  0  0  0  0  0
   51.6728   86.5391   18.9712 H   0  0  0  0  0  0  0  0  0  0  0  0
   54.1787   92.1276   22.4945 N   0  0  0  0  0  0  0  0  0  0  0  0
   54.9668   91.2611   21.7493 C   0  0  0  0  0  0  0  0  0  0  0  0
   56.1993   91.5995   21.5867 O   0  0  0  0  0  0  0  0  0  0  0  0
   53.1625   92.0220   22.7262 H   0  0  0  0  0  0  0  0  0  0  0  0
   54.4913   93.7310   24.1820 C   0  0  0  0  0  0  0  0  0  0  0  0
   54.8118   93.3091   23.0108 N   0  0  0  0  0  0  0  0  0  0  0  0
   58.7050   96.9138   24.6899 Br  0  0  0  0  0  0  0  0  0  0  0  0
   56.9213   96.4348   25.1115 C   0  0  0  0  0  0  0  0  0  0  0  0
   56.1987   97.1943   25.9846 C   0  0  0  0  0  0  0  0  0  0  0  0
   54.8905   96.8160   26.2756 C   0  0  0  0  0  0  0  0  0  0  0  0
   54.3532   95.6816   25.6756 C   0  0  0  0  0  0  0  0  0  0  0  0
   55.0717   94.9139   24.7986 C   0  0  0  0  0  0  0  0  0  0  0  0
   56.3640   95.2999   24.5204 C   0  0  0  0  0  0  0  0  0  0  0  0
   57.0819   94.5155   23.6308 O   0  0  0  0  0  0  0  0  0  0  0  0
   53.8592   97.8501   27.4840 Br  0  0  0  0  0  0  0  0  0  0  0  0
   56.7154   98.3288   26.5932 O   0  0  0  0  0  0  0  0  0  0  0  0
   58.0360   94.7572   23.3938 H   0  0  0  0  0  0  0  0  0  0  0  0
   56.1615   98.8721   27.2349 H   0  0  0  0  0  0  0  0  0  0  0  0
   55.5670   88.2966   22.6919 C   0  0  0  0  0  0  0  0  0  0  0  0
   54.7000   88.0171   23.8396 N   0  0  0  0  0  0  0  0  0  0  0  0
   55.2681   88.6832   25.0281 C   0  0  0  0  0  0  0  0  0  0  0  0
   56.7289   88.4078   25.1108 C   0  0  0  0  0  0  0  0  0  0  0  0
   56.9463   87.0524   25.0725 O   0  0  0  0  0  0  0  0  0  0  0  0
   55.8102   86.2935   25.1757 C   0  0  0  0  0  0  0  0  0  0  0  0
   54.7681   86.5636   24.1218 C   0  0  0  0  0  0  0  0  0  0  0  0
 20 21  1  0  0  0
 21 22  2  0  0  0
 21 26  1  0  0  0
 22 23  1  0  0  0
 22 29  1  0  0  0
 23 24  2  0  0  0
 23 28  1  0  0  0
 24 25  1  0  0  0
 25 26  2  0  0  0
 25 18  1  0  0  0
 26 27  1  0  0  0
 18 19  2  0  0  0
 19 14  1  0  0  0
 14 15  1  0  0  0
 15 16  2  0  0  0
 15  1  1  0  0  0
  1  2  1  0  0  0
  1  5  2  0  0  0
  2  3  2  0  0  0
  3  4  1  0  0  0
  4  5  1  0  0  0
  4  6  1  0  0  0
  5 32  1  0  0  0
 32 33  1  0  0  0
 33 34  1  0  0  0
 33 38  1  0  0  0
 34 35  1  0  0  0
 35 36  1  0  0  0
 36 37  1  0  0  0
 37 38  1  0  0  0
  6  7  2  0  0  0
  6 10  1  0  0  0
  7  8  1  0  0  0
  8  9  1  0  0  0
  9 10  2  0  0  0
 10 11  1  0  0  0
 27 30  1  0  0  0
 14 17  1  0  0  0
 11 12  1  0  0  0
 11 13  1  0  0  0
 29 31  1  0  0  0
M  END
> <minimizedAffinity>
-8.78459

$$$$
4


 34 37  0  0  0  0  0  0  0  0999 V2000
   53.1110   86.8700   19.6363 C   0  0  0  0  0  0  0  0  0  0  0  0
   53.8108   86.5661   20.7271 N   0  0  0  0  0  0  0  0  0  0  0  0
   54.5929   87.4756   21.3766 C   0  0  0  0  0  0  0  0  0  0  0  0
   54.6216   88.7008   20.8574 N   0  0  0  0  0  0  0  0  0  0  0  0
   53.9427   89.0939   19.7560 C   0  0  0  0  0  0  0  0  0  0  0  0
   53.1849   88.1211   19.1670 N   0  0  0  0  0  0  0  0  0  0  0  0
   54.0036   90.4023   19.2427 N   0  0  0  0  0  0  0  0  0  0  0  0
   53.1893   91.4422   19.7897 C   0  0  0  0  0  0  0  0  0  0  0  0
   52.4647   92.1114   18.6184 C   0  0  0  0  0  0  0  0  0  0  0  0
   52.7340   91.4870   17.4197 O   0  0  0  0  0  0  0  0  0  0  0  0
   54.0666   91.4288   17.0955 C   0  0  0  0  0  0  0  0  0  0  0  0
   54.8868   90.7098   18.1600 C   0  0  0  0  0  0  0  0  0  0  0  0
   55.3269   87.1328   22.5320 N   0  0  0  0  0  0  0  0  0  0  0  0
   54.7542   86.2675   23.5251 C   0  0  0  0  0  0  0  0  0  0  0  0
   55.0038   86.9091   24.8809 C   0  0  0  0  0  0  0  0  0  0  0  0
   56.3177   87.3387   25.0193 O   0  0  0  0  0  0  0  0  0  0  0  0
   56.6797   88.3016   24.1048 C   0  0  0  0  0  0  0  0  0  0  0  0
   56.6529   87.6505   22.7163 C   0  0  0  0  0  0  0  0  0  0  0  0
   52.3069   85.8929   18.9880 N   0  0  0  0  0  0  0  0  0  0  0  0
   51.3184   86.0236   18.7495 H   0  0  0  0  0  0  0  0  0  0  0  0
   53.5934   84.4876   17.5946 C   0  0  0  0  0  0  0  0  0  0  0  0
   52.8814   84.6553   18.6377 N   0  0  0  0  0  0  0  0  0  0  0  0
   56.2333   80.0173   18.9929 Br  0  0  0  0  0  0  0  0  0  0  0  0
   55.3816   81.1803   17.7386 C   0  0  0  0  0  0  0  0  0  0  0  0
   55.3472   80.7825   16.4164 C   0  0  0  0  0  0  0  0  0  0  0  0
   54.7344   81.6175   15.5078 C   0  0  0  0  0  0  0  0  0  0  0  0
   54.1674   82.8174   15.8983 C   0  0  0  0  0  0  0  0  0  0  0  0
   54.1966   83.2217   17.2119 C   0  0  0  0  0  0  0  0  0  0  0  0
   54.8106   82.3846   18.1204 C   0  0  0  0  0  0  0  0  0  0  0  0
   54.8509   82.7679   19.4400 O   0  0  0  0  0  0  0  0  0  0  0  0
   54.6808   81.0782   13.6710 Br  0  0  0  0  0  0  0  0  0  0  0  0
   55.9237   79.5711   16.0413 O   0  0  0  0  0  0  0  0  0  0  0  0
   55.2983   82.1738   20.1443 H   0  0  0  0  0  0  0  0  0  0  0  0
   55.8956   79.2864   15.0764 H   0  0  0  0  0  0  0  0  0  0  0  0
 23 24  1  0  0  0
 24 25  2  0  0  0
 24 29  1  0  0  0
 25 26  1  0  0  0
 25 32  1  0  0  0
 26 27  2  0  0  0
 26 31  1  0  0  0
 27 28  1  0  0  0
 28 29  2  0  0  0
 28 21  1  0  0  0
 29 30  1  0  0  0
 21 22  2  0  0  0
 22 19  1  0  0  0
 19  1  1  0  0  0
  1  2  2  0  0  0
  1  6  1  0  0  0
  2  3  1  0  0  0
  3  4  2  0  0  0
  3 13  1  0  0  0
  4  5  1  0  0  0
  5  6  2  0  0  0
  5  7  1  0  0  0
  7  8  1  0  0  0
  7 12  1  0  0  0
  8  9  1  0  0  0
  9 10  1  0  0  0
 10 11  1  0  0  0
 11 12  1  0  0  0
 13 14  1  0  0  0
 13 18  1  0  0  0
 14 15  1  0  0  0
 15 16  1  0  0  0
 16 17  1  0  0  0
 17 18  1  0  0  0
 30 33  1  0  0  0
 19 20  1  0  0  0
 32 34  1  0  0  0
M  END
> <minimizedAffinity>
-9.15399

$$$$
5


 38 41  0  0  0  0  0  0  0  0999 V2000
   52.5284   83.6353   23.5371 N   0  0  0  0  0  0  0  0  0  0  0  0
   51.3984   82.9485   23.8527 C   0  0  0  0  0  0  0  0  0  0  0  0
   51.1899   83.0083   25.2048 C   0  0  0  0  0  0  0  0  0  0  0  0
   52.1867   83.7267   25.6792 N   0  0  0  0  0  0  0  0  0  0  0  0
   53.0249   84.1312   24.6861 C   0  0  0  0  0  0  0  0  0  0  0  0
   50.1288   82.4313   25.8488 N   0  0  0  0  0  0  0  0  0  0  0  0
   49.2496   81.7743   25.0824 C   0  0  0  0  0  0  0  0  0  0  0  0
   48.2717   81.2422   25.6799 O   0  0  0  0  0  0  0  0  0  0  0  0
   49.4072   81.6898   23.7474 N   0  0  0  0  0  0  0  0  0  0  0  0
   50.4432   82.2501   23.1028 C   0  0  0  0  0  0  0  0  0  0  0  0
   50.5774   82.1539   21.7368 O   0  0  0  0  0  0  0  0  0  0  0  0
   50.0140   82.5517   27.2956 C   0  0  0  0  0  0  0  0  0  0  0  0
   54.1249   85.0266   24.9306 N   0  0  0  0  0  0  0  0  0  0  0  0
   54.2769   86.3522   24.4681 C   0  0  0  0  0  0  0  0  0  0  0  0
   55.5871   86.9179   25.0819 C   0  0  0  0  0  0  0  0  0  0  0  0
   56.6372   86.0743   24.5445 N   0  0  0  0  0  0  0  0  0  0  0  0
   56.5720   84.8741   25.3998 C   0  0  0  0  0  0  0  0  0  0  0  0
   55.1958   84.5181   25.7980 C   0  0  0  0  0  0  0  0  0  0  0  0
   56.4510   85.7369   23.5763 H   0  0  0  0  0  0  0  0  0  0  0  0
   57.9407   86.6943   24.6743 C   0  0  0  0  0  0  0  0  0  0  0  0
   57.7536   88.1466   25.0547 C   0  0  0  0  0  0  0  0  0  0  0  0
   58.6217   88.4588   26.1082 O   0  0  0  0  0  0  0  0  0  0  0  0
   58.1108   88.7570   26.9103 H   0  0  0  0  0  0  0  0  0  0  0  0
   53.0650   83.7951   22.2328 C   0  0  0  0  0  0  0  0  0  0  0  0
   52.7593   84.9429   21.3952 C   0  0  0  0  0  0  0  0  0  0  0  0
   51.5581   84.9438   20.6641 O   0  0  0  0  0  0  0  0  0  0  0  0
   50.7762   84.9649   21.2444 H   0  0  0  0  0  0  0  0  0  0  0  0
   53.7295   85.6985   20.5908 C   0  0  0  0  0  0  0  0  0  0  0  0
   53.5627   87.1001   20.7930 O   0  0  0  0  0  0  0  0  0  0  0  0
   55.9440   88.6867   21.6698 Br  0  0  0  0  0  0  0  0  0  0  0  0
   54.8811   88.9504   20.1001 C   0  0  0  0  0  0  0  0  0  0  0  0
   53.8034   88.0762   19.8904 C   0  0  0  0  0  0  0  0  0  0  0  0
   53.0589   88.2762   18.7731 C   0  0  0  0  0  0  0  0  0  0  0  0
   53.3403   89.3009   17.8609 C   0  0  0  0  0  0  0  0  0  0  0  0
   54.4028   90.1447   18.0886 C   0  0  0  0  0  0  0  0  0  0  0  0
   55.1711   89.9594   19.2179 C   0  0  0  0  0  0  0  0  0  0  0  0
   54.8800   91.5721   16.9207 Br  0  0  0  0  0  0  0  0  0  0  0  0
   51.5740   87.1842   18.3885 Br  0  0  0  0  0  0  0  0  0  0  0  0
 30 31  1  0  0  0
 31 32  2  0  0  0
 31 36  1  0  0  0
 32 33  1  0  0  0
 32 29  1  0  0  0
 33 34  2  0  0  0
 33 38  1  0  0  0
 34 35  1  0  0  0
 35 36  2  0  0  0
 35 37  1  0  0  0
 29 28  1  0  0  0
 28 25  1  0  0  0
 25 26  1  0  0  0
 25 24  1  0  0  0
 24  1  1  0  0  0
  1  2  1  0  0  0
  1  5  1  0  0  0
  2  3  2  0  0  0
  2 10  1  0  0  0
  3  4  1  0  0  0
  3  6  1  0  0  0
  4  5  2  0  0  0
  5 13  1  0  0  0
 13 14  1  0  0  0
 13 18  1  0  0  0
 14 15  1  0  0  0
 15 16  1  0  0  0
 16 17  1  0  0  0
 16 20  1  0  0  0
 17 18  1  0  0  0
 20 21  1  0  0  0
 21 22  1  0  0  0
  6  7  1  0  0  0
  6 12  1  0  0  0
  7  8  2  0  0  0
  7  9  1  0  0  0
  9 10  2  0  0  0
 10 11  1  0  0  0
 26 27  1  0  0  0
 16 19  1  0  0  0
 22 23  1  0  0  0
M  CHG 1  11  -1
M  CHG 1  16   1
M  END
> <minimizedAffinity>
-8.43401

$$$$
6


 34 37  0  0  0  0  0  0  0  0999 V2000
   55.0085   88.1539   21.5662 N   0  0  0  0  0  0  0  0  0  0  0  0
   54.8801   89.4726   21.2617 C   0  0  0  0  0  0  0  0  0  0  0  0
   54.0035   89.6312   20.2245 C   0  0  0  0  0  0  0  0  0  0  0  0
   53.6031   88.3903   19.9059 N   0  0  0  0  0  0  0  0  0  0  0  0
   54.2178   87.4816   20.7271 C   0  0  0  0  0  0  0  0  0  0  0  0
   53.7398   90.9057   19.7679 C   0  0  0  0  0  0  0  0  0  0  0  0
   54.3355   92.0238   20.3282 C   0  0  0  0  0  0  0  0  0  0  0  0
   55.2186   91.8319   21.3763 C   0  0  0  0  0  0  0  0  0  0  0  0
   55.4840   90.5574   21.8353 C   0  0  0  0  0  0  0  0  0  0  0  0
   54.0018   86.0421   20.6492 C   0  0  0  0  0  0  0  0  0  0  0  0
   54.9195   85.1017   20.9076 N   0  0  0  0  0  0  0  0  0  0  0  0
   54.3711   83.9122   20.7357 O   0  0  0  0  0  0  0  0  0  0  0  0
   53.1328   84.0379   20.3754 N   0  0  0  0  0  0  0  0  0  0  0  0
   52.8567   85.3589   20.3078 C   0  0  0  0  0  0  0  0  0  0  0  0
   51.6164   85.9415   19.9520 N   0  0  0  0  0  0  0  0  0  0  0  0
   50.9626   86.0039   20.7440 H   0  0  0  0  0  0  0  0  0  0  0  0
   51.1755   85.2840   19.2519 H   0  0  0  0  0  0  0  0  0  0  0  0
   51.7271   86.8704   19.4678 H   0  0  0  0  0  0  0  0  0  0  0  0
   55.8237   87.5701   22.5852 C   0  0  0  0  0  0  0  0  0  0  0  0
   54.8966   85.9139   24.2380 N   0  0  0  0  0  0  0  0  0  0  0  0
   55.1621   87.2423   23.8241 C   0  0  0  0  0  0  0  0  0  0  0  0
   54.7913   88.1578   24.5960 O   0  0  0  0  0  0  0  0  0  0  0  0
   55.2000   85.1447   23.6032 H   0  0  0  0  0  0  0  0  0  0  0  0
   53.1067   85.0302   25.4796 C   0  0  0  0  0  0  0  0  0  0  0  0
   54.2638   85.5697   25.4208 N   0  0  0  0  0  0  0  0  0  0  0  0
   49.1628   85.7196   28.8905 Br  0  0  0  0  0  0  0  0  0  0  0  0
   50.8213   84.9482   28.3864 C   0  0  0  0  0  0  0  0  0  0  0  0
   51.3513   85.2574   27.1515 C   0  0  0  0  0  0  0  0  0  0  0  0
   52.5401   84.7119   26.7754 C   0  0  0  0  0  0  0  0  0  0  0  0
   53.2417   83.8401   27.6156 C   0  0  0  0  0  0  0  0  0  0  0  0
   52.6913   83.5497   28.8402 C   0  0  0  0  0  0  0  0  0  0  0  0
   51.4934   84.0892   29.2386 C   0  0  0  0  0  0  0  0  0  0  0  0
   53.6083   82.3634   30.0284 Br  0  0  0  0  0  0  0  0  0  0  0  0
   50.6705   86.1176   26.3083 O   0  0  0  0  0  0  0  0  0  0  0  0
 26 27  1  0  0  0
 27 28  2  0  0  0
 27 32  1  0  0  0
 28 29  1  0  0  0
 28 34  1  0  0  0
 29 30  2  0  0  0
 29 24  1  0  0  0
 30 31  1  0  0  0
 31 32  2  0  0  0
 31 33  1  0  0  0
 24 25  2  0  0  0
 25 20  1  0  0  0
 20 21  1  0  0  0
 21 22  2  0  0  0
 21 19  1  0  0  0
 19  1  1  0  0  0
  1  2  1  0  0  0
  1  5  1  0  0  0
  2  3  2  0  0  0
  2  9  1  0  0  0
  3  4  1  0  0  0
  3  6  1  0  0  0
  4  5  2  0  0  0
  5 10  1  0  0  0
 10 11  2  0  0  0
 10 14  1  0  0  0
 11 12  1  0  0  0
 12 13  1  0  0  0
 13 14  2  0  0  0
 14 15  1  0  0  0
  6  7  2  0  0  0
  7  8  1  0  0  0
  8  9  2  0  0  0
 20 23  1  0  0  0
 15 16  1  0  0  0
 15 17  1  0  0  0
 15 18  1  0  0  0
M  CHG 1  15   1
M  CHG 1  34  -1
M  END
> <minimizedAffinity>
-9.09754

$$$$
11


 36 39  0  0  0  0  0  0  0  0999 V2000
   53.4235   84.1819   21.9197 C   0  0  0  0  0  0  0  0  0  0  0  0
   53.7637   85.0859   22.9393 N   0  0  0  0  0  0  0  0  0  0  0  0
   54.7858   86.0005   22.7359 C   0  0  0  0  0  0  0  0  0  0  0  0
   54.9115   86.7117   23.8702 C   0  0  0  0  0  0  0  0  0  0  0  0
   54.0100   86.2469   24.7209 N   0  0  0  0  0  0  0  0  0  0  0  0
   53.2769   85.2199   24.1439 C   0  0  0  0  0  0  0  0  0  0  0  0
   55.8497   87.7208   24.0220 C   0  0  0  0  0  0  0  0  0  0  0  0
   56.6615   87.9689   22.9414 C   0  0  0  0  0  0  0  0  0  0  0  0
   56.5731   87.2714   21.7519 C   0  0  0  0  0  0  0  0  0  0  0  0
   55.6123   86.2665   21.6553 C   0  0  0  0  0  0  0  0  0  0  0  0
   52.2611   84.6079   24.9814 C   0  0  0  0  0  0  0  0  0  0  0  0
   51.5022   85.3438   25.8893 N   0  0  0  0  0  0  0  0  0  0  0  0
   50.6669   84.5928   26.4844 O   0  0  0  0  0  0  0  0  0  0  0  0
   50.7748   83.3933   26.0738 N   0  0  0  0  0  0  0  0  0  0  0  0
   51.7700   83.3612   25.1228 C   0  0  0  0  0  0  0  0  0  0  0  0
   52.1210   82.1712   24.4512 N   0  0  0  0  0  0  0  0  0  0  0  0
   51.3664   81.4199   24.6782 H   0  0  0  0  0  0  0  0  0  0  0  0
   52.9772   81.7755   24.8579 H   0  0  0  0  0  0  0  0  0  0  0  0
   52.0371   82.2670   23.4424 H   0  0  0  0  0  0  0  0  0  0  0  0
   52.1667   85.3737   20.2684 N   0  0  0  0  0  0  0  0  0  0  0  0
   52.0458   84.4983   21.2973 C   0  0  0  0  0  0  0  0  0  0  0  0
   51.1254   83.9022   21.8529 O   0  0  0  0  0  0  0  0  0  0  0  0
   50.7756   85.2826   20.0871 H   0  0  0  0  0  0  0  0  0  0  0  0
   52.3949   86.9935   18.4950 C   0  0  0  0  0  0  0  0  0  0  0  0
   52.2734   86.1689   19.3320 N   0  0  0  0  0  0  0  0  0  0  0  0
   50.8575   92.0574   17.9613 Br  0  0  0  0  0  0  0  0  0  0  0  0
   52.1793   90.7340   18.2844 C   0  0  0  0  0  0  0  0  0  0  0  0
   53.4921   91.0986   18.4867 C   0  0  0  0  0  0  0  0  0  0  0  0
   54.4640   90.0923   18.7045 C   0  0  0  0  0  0  0  0  0  0  0  0
   54.0397   88.7952   18.6997 C   0  0  0  0  0  0  0  0  0  0  0  0
   52.7161   88.3789   18.4962 C   0  0  0  0  0  0  0  0  0  0  0  0
   51.8161   89.4014   18.2918 C   0  0  0  0  0  0  0  0  0  0  0  0
   53.9225   92.3936   18.4877 O   0  0  0  0  0  0  0  0  0  0  0  0
   55.7737   90.4872   18.9021 O   0  0  0  0  0  0  0  0  0  0  0  0
   56.4042   90.4246   20.1354 C   0  0  0  0  0  0  0  0  0  0  0  0
   55.6891   91.0848   21.2801 C   0  0  0  0  0  0  0  0  0  0  0  0
 26 27  1  0  0  0
 27 28  2  0  0  0
 27 32  1  0  0  0
 28 29  1  0  0  0
 28 33  1  0  0  0
 29 30  2  0  0  0
 29 34  1  0  0  0
 30 31  1  0  0  0
 31 32  2  0  0  0
 31 24  1  0  0  0
 24 25  2  0  0  0
 25 20  1  0  0  0
 20 21  1  0  0  0
 21 22  2  0  0  0
 21  1  1  0  0  0
  1  2  1  0  0  0
  2  3  1  0  0  0
  2  6  1  0  0  0
  3  4  2  0  0  0
  3 10  1  0  0  0
  4  5  1  0  0  0
  4  7  1  0  0  0
  5  6  2  0  0  0
  6 11  1  0  0  0
 11 12  2  0  0  0
 11 15  1  0  0  0
 12 13  1  0  0  0
 13 14  1  0  0  0
 14 15  2  0  0  0
 15 16  1  0  0  0
  7  8  2  0  0  0
  8  9  1  0  0  0
  9 10  2  0  0  0
 34 35  1  0  0  0
 35 36  1  0  0  0
 20 23  1  0  0  0
 16 17  1  0  0  0
 16 18  1  0  0  0
 16 19  1  0  0  0
M  CHG 1  16   1
M  CHG 1  33  -1
M  END
> <minimizedAffinity>
-8.92831

$$$$
17


 38 41  0  0  0  0  0  0  0  0999 V2000
   55.2982   89.7860   21.6581 C   0  0  0  0  0  0  0  0  0  0  0  0
   56.0192   88.6962   21.9514 N   0  0  0  0  0  0  0  0  0  0  0  0
   55.5078   87.6542   21.3433 N   0  0  0  0  0  0  0  0  0  0  0  0
   54.4288   88.0081   20.6218 N   0  0  0  0  0  0  0  0  0  0  0  0
   54.2805   89.3237   20.8022 C   0  0  0  0  0  0  0  0  0  0  0  0
   53.6510   87.0727   19.8670 C   0  0  0  0  0  0  0  0  0  0  0  0
   53.2347   87.1543   18.5934 N   0  0  0  0  0  0  0  0  0  0  0  0
   52.5521   86.0749   18.2942 O   0  0  0  0  0  0  0  0  0  0  0  0
   52.4950   85.2685   19.3269 N   0  0  0  0  0  0  0  0  0  0  0  0
   53.1734   85.8676   20.3221 C   0  0  0  0  0  0  0  0  0  0  0  0
   53.3383   85.2955   21.6101 N   0  0  0  0  0  0  0  0  0  0  0  0
   52.6530   85.4019   22.3860 H   0  0  0  0  0  0  0  0  0  0  0  0
   54.1895   84.7203   21.8385 H   0  0  0  0  0  0  0  0  0  0  0  0
   55.2019   91.5583   23.4302 N   0  0  0  0  0  0  0  0  0  0  0  0
   55.4923   91.1587   22.1064 C   0  0  0  0  0  0  0  0  0  0  0  0
   55.9264   92.0037   21.2992 O   0  0  0  0  0  0  0  0  0  0  0  0
   54.8331   90.8270   24.1042 H   0  0  0  0  0  0  0  0  0  0  0  0
   55.3084   93.1740   25.1510 C   0  0  0  0  0  0  0  0  0  0  0  0
   55.3618   92.8322   23.9167 N   0  0  0  0  0  0  0  0  0  0  0  0
   58.0310   97.6031   24.3871 Br  0  0  0  0  0  0  0  0  0  0  0  0
   56.6812   96.6056   25.2894 C   0  0  0  0  0  0  0  0  0  0  0  0
   55.9113   97.1692   26.3005 C   0  0  0  0  0  0  0  0  0  0  0  0
   54.9352   96.4545   26.9564 C   0  0  0  0  0  0  0  0  0  0  0  0
   54.7418   95.1476   26.5771 C   0  0  0  0  0  0  0  0  0  0  0  0
   55.4906   94.5532   25.5736 C   0  0  0  0  0  0  0  0  0  0  0  0
   56.4570   95.3056   24.9435 C   0  0  0  0  0  0  0  0  0  0  0  0
   56.1528   98.4966   26.6424 O   0  0  0  0  0  0  0  0  0  0  0  0
   55.6074   98.9346   27.3752 H   0  0  0  0  0  0  0  0  0  0  0  0
   54.2127   97.0766   27.9463 O   0  0  0  0  0  0  0  0  0  0  0  0
   52.8405   97.2971   27.9680 C   0  0  0  0  0  0  0  0  0  0  0  0
   52.3720   98.2703   29.0011 C   0  0  0  0  0  0  0  0  0  0  0  0
   53.2488   90.2172   20.2726 C   0  0  0  0  0  0  0  0  0  0  0  0
   53.6353   91.0988   19.2003 N   0  0  0  0  0  0  0  0  0  0  0  0
   53.1643   90.4268   17.9826 C   0  0  0  0  0  0  0  0  0  0  0  0
   51.7042   90.2157   17.9112 C   0  0  0  0  0  0  0  0  0  0  0  0
   51.0121   91.2337   18.5486 O   0  0  0  0  0  0  0  0  0  0  0  0
   51.7247   92.4035   18.3968 C   0  0  0  0  0  0  0  0  0  0  0  0
   52.9180   92.3690   19.3313 C   0  0  0  0  0  0  0  0  0  0  0  0
 20 21  1  0  0  0
 21 22  2  0  0  0
 21 26  1  0  0  0
 22 23  1  0  0  0
 22 27  1  0  0  0
 23 24  2  0  0  0
 23 29  1  0  0  0
 24 25  1  0  0  0
 25 26  2  0  0  0
 25 18  1  0  0  0
 18 19  2  0  0  0
 19 14  1  0  0  0
 14 15  1  0  0  0
 15 16  2  0  0  0
 15  1  1  0  0  0
  1  2  1  0  0  0
  1  5  2  0  0  0
  2  3  2  0  0  0
  3  4  1  0  0  0
  4  5  1  0  0  0
  4  6  1  0  0  0
  5 32  1  0  0  0
 32 33  1  0  0  0
 33 34  1  0  0  0
 33 38  1  0  0  0
 34 35  1  0  0  0
 35 36  1  0  0  0
 36 37  1  0  0  0
 37 38  1  0  0  0
  6  7  2  0  0  0
  6 10  1  0  0  0
  7  8  1  0  0  0
  8  9  1  0  0  0
  9 10  2  0  0  0
 10 11  1  0  0  0
 29 30  1  0  0  0
 30 31  1  0  0  0
 14 17  1  0  0  0
 11 12  1  0  0  0
 11 13  1  0  0  0
 27 28  1  0  0  0
M  END
> <minimizedAffinity>
-8.37900

$$$$
18


 37 40  0  0  0  0  0  0  0  0999 V2000
   52.9656   83.4359   21.4180 C   0  0  0  0  0  0  0  0  0  0  0  0
   52.2023   82.4880   21.8348 N   0  0  0  0  0  0  0  0  0  0  0  0
   51.9278   82.6593   23.1167 N   0  0  0  0  0  0  0  0  0  0  0  0
   52.5436   83.7533   23.5412 N   0  0  0  0  0  0  0  0  0  0  0  0
   53.2458   84.3303   22.5765 C   0  0  0  0  0  0  0  0  0  0  0  0
   52.0997   84.4142   24.7515 C   0  0  0  0  0  0  0  0  0  0  0  0
   51.1130   85.1538   25.0438 N   0  0  0  0  0  0  0  0  0  0  0  0
   51.1517   85.5800   26.3068 O   0  0  0  0  0  0  0  0  0  0  0  0
   52.2140   85.0778   26.8241 N   0  0  0  0  0  0  0  0  0  0  0  0
   52.8834   84.3333   25.9434 C   0  0  0  0  0  0  0  0  0  0  0  0
   54.0921   83.6416   26.1278 N   0  0  0  0  0  0  0  0  0  0  0  0
   54.9790   83.9267   25.6751 H   0  0  0  0  0  0  0  0  0  0  0  0
   54.1648   82.7792   26.7661 H   0  0  0  0  0  0  0  0  0  0  0  0
   52.2077   84.6743   19.3727 N   0  0  0  0  0  0  0  0  0  0  0  0
   53.2587   84.0424   20.1387 C   0  0  0  0  0  0  0  0  0  0  0  0
   54.4233   84.0857   19.7444 O   0  0  0  0  0  0  0  0  0  0  0  0
   51.2904   84.7251   19.2197 H   0  0  0  0  0  0  0  0  0  0  0  0
   52.7269   86.7854   19.2043 C   0  0  0  0  0  0  0  0  0  0  0  0
   53.0251   85.7008   18.4643 N   0  0  0  0  0  0  0  0  0  0  0  0
   56.2875   90.4042   20.2927 Br  0  0  0  0  0  0  0  0  0  0  0  0
   54.4871   89.8649   19.8521 C   0  0  0  0  0  0  0  0  0  0  0  0
   53.5224   90.8379   19.6985 C   0  0  0  0  0  0  0  0  0  0  0  0
   52.2436   90.4859   19.3662 C   0  0  0  0  0  0  0  0  0  0  0  0
   51.9660   89.1487   19.2000 C   0  0  0  0  0  0  0  0  0  0  0  0
   52.8950   88.1341   19.3441 C   0  0  0  0  0  0  0  0  0  0  0  0
   54.2259   88.5725   19.6919 C   0  0  0  0  0  0  0  0  0  0  0  0
   53.8614   92.1810   19.8854 O   0  0  0  0  0  0  0  0  0  0  0  0
   54.8359   92.4021   20.1812 H   0  0  0  0  0  0  0  0  0  0  0  0
   51.2404   91.4454   19.1848 O   0  0  0  0  0  0  0  0  0  0  0  0
   50.9798   91.9313   17.8524 C   0  0  0  0  0  0  0  0  0  0  0  0
   53.9611   85.5660   22.4377 C   0  0  0  0  0  0  0  0  0  0  0  0
   55.2677   85.6813   23.0887 N   0  0  0  0  0  0  0  0  0  0  0  0
   55.2541   86.6034   24.1773 C   0  0  0  0  0  0  0  0  0  0  0  0
   55.0686   88.0411   23.7846 C   0  0  0  0  0  0  0  0  0  0  0  0
   56.2358   88.5199   23.2138 O   0  0  0  0  0  0  0  0  0  0  0  0
   56.9901   87.4699   22.6778 C   0  0  0  0  0  0  0  0  0  0  0  0
   56.0792   86.4637   22.0585 C   0  0  0  0  0  0  0  0  0  0  0  0
 20 21  1  0  0  0
 21 22  2  0  0  0
 21 26  1  0  0  0
 22 23  1  0  0  0
 22 27  1  0  0  0
 23 24  2  0  0  0
 23 29  1  0  0  0
 24 25  1  0  0  0
 25 26  2  0  0  0
 25 18  1  0  0  0
 18 19  2  0  0  0
 19 14  1  0  0  0
 14 15  1  0  0  0
 15 16  2  0  0  0
 15  1  1  0  0  0
  1  2  1  0  0  0
  1  5  2  0  0  0
  2  3  2  0  0  0
  3  4  1  0  0  0
  4  5  1  0  0  0
  4  6  1  0  0  0
  5 31  1  0  0  0
 31 32  1  0  0  0
 32 33  1  0  0  0
 32 37  1  0  0  0
 33 34  1  0  0  0
 34 35  1  0  0  0
 35 36  1  0  0  0
 36 37  1  0  0  0
  6  7  2  0  0  0
  6 10  1  0  0  0
  7  8  1  0  0  0
  8  9  1  0  0  0
  9 10  2  0  0  0
 10 11  1  0  0  0
 29 30  1  0  0  0
 14 17  1  0  0  0
 11 12  1  0  0  0
 11 13  1  0  0  0
 27 28  1  0  0  0
M  END
> <minimizedAffinity>
-9.13793

$$$$
20


 34 37  0  0  0  0  0  0  0  0999 V2000
   55.4052   91.4086   21.5563 C   0  0  0  0  0  0  0  0  0  0  0  0
   54.7026   90.9520   20.5371 N   0  0  0  0  0  0  0  0  0  0  0  0
   54.3608   89.6343   20.4543 C   0  0  0  0  0  0  0  0  0  0  0  0
   54.7849   88.8501   21.4735 N   0  0  0  0  0  0  0  0  0  0  0  0
   55.5041   89.2585   22.5359 C   0  0  0  0  0  0  0  0  0  0  0  0
   55.8118   90.5751   22.5524 N   0  0  0  0  0  0  0  0  0  0  0  0
   55.7731   88.4307   23.6117 N   0  0  0  0  0  0  0  0  0  0  0  0
   56.4004   88.7179   24.8434 C   0  0  0  0  0  0  0  0  0  0  0  0
   57.6625   87.8524   24.9034 C   0  0  0  0  0  0  0  0  0  0  0  0
   57.2791   86.5422   24.7207 O   0  0  0  0  0  0  0  0  0  0  0  0
   56.6790   86.2593   23.5152 C   0  0  0  0  0  0  0  0  0  0  0  0
   55.3220   87.0169   23.4440 C   0  0  0  0  0  0  0  0  0  0  0  0
   53.5364   89.1221   19.4249 N   0  0  0  0  0  0  0  0  0  0  0  0
   53.3516   89.8996   18.1890 C   0  0  0  0  0  0  0  0  0  0  0  0
   51.8240   89.8691   17.9258 C   0  0  0  0  0  0  0  0  0  0  0  0
   51.5579   88.5660   17.6157 O   0  0  0  0  0  0  0  0  0  0  0  0
   51.6721   87.7083   18.6736 C   0  0  0  0  0  0  0  0  0  0  0  0
   52.8541   87.8937   19.5673 C   0  0  0  0  0  0  0  0  0  0  0  0
   55.6373   92.8451   21.8343 N   0  0  0  0  0  0  0  0  0  0  0  0
   56.0830   93.3580   21.0991 H   0  0  0  0  0  0  0  0  0  0  0  0
   54.7624   93.4038   24.0753 C   0  0  0  0  0  0  0  0  0  0  0  0
   55.1775   93.1511   23.0210 N   0  0  0  0  0  0  0  0  0  0  0  0
   57.7764   97.6192   25.1755 Br  0  0  0  0  0  0  0  0  0  0  0  0
   56.2003   96.5589   25.4457 C   0  0  0  0  0  0  0  0  0  0  0  0
   55.3372   96.8818   26.4560 C   0  0  0  0  0  0  0  0  0  0  0  0
   54.2019   96.1003   26.6606 C   0  0  0  0  0  0  0  0  0  0  0  0
   53.9550   95.0033   25.8472 C   0  0  0  0  0  0  0  0  0  0  0  0
   54.8140   94.6656   24.8421 C   0  0  0  0  0  0  0  0  0  0  0  0
   55.9242   95.4599   24.6621 C   0  0  0  0  0  0  0  0  0  0  0  0
   55.6274   97.9776   27.2407 O   0  0  0  0  0  0  0  0  0  0  0  0
   56.4353   98.5421   27.1328 H   0  0  0  0  0  0  0  0  0  0  0  0
   53.3952   96.4972   27.6809 O   0  0  0  0  0  0  0  0  0  0  0  0
   52.3511   97.4047   27.6808 C   0  0  0  0  0  0  0  0  0  0  0  0
   52.2824   98.2269   28.9593 C   0  0  0  0  0  0  0  0  0  0  0  0
 23 24  1  0  0  0
 24 25  2  0  0  0
 24 29  1  0  0  0
 25 26  1  0  0  0
 25 30  1  0  0  0
 26 27  2  0  0  0
 26 32  1  0  0  0
 27 28  1  0  0  0
 28 29  2  0  0  0
 28 21  1  0  0  0
 21 22  2  0  0  0
 22 19  1  0  0  0
 19  1  1  0  0  0
  1  2  2  0  0  0
  1  6  1  0  0  0
  2  3  1  0  0  0
  3  4  2  0  0  0
  3 13  1  0  0  0
  4  5  1  0  0  0
  5  6  2  0  0  0
  5  7  1  0  0  0
  7  8  1  0  0  0
  7 12  1  0  0  0
  8  9  1  0  0  0
  9 10  1  0  0  0
 10 11  1  0  0  0
 11 12  1  0  0  0
 13 14  1  0  0  0
 13 18  1  0  0  0
 14 15  1  0  0  0
 15 16  1  0  0  0
 16 17  1  0  0  0
 17 18  1  0  0  0
 32 33  1  0  0  0
 33 34  1  0  0  0
 19 20  1  0  0  0
 30 31  1  0  0  0
M  END
> <minimizedAffinity>
-9.26143

$$$$
23


 37 40  0  0  0  0  0  0  0  0999 V2000
   53.9072   84.3689   20.7732 C   0  0  0  0  0  0  0  0  0  0  0  0
   53.6691   83.2750   19.8552 N   0  0  0  0  0  0  0  0  0  0  0  0
   52.9226   83.6867   18.7462 C   0  0  0  0  0  0  0  0  0  0  0  0
   52.4592   82.9526   17.8606 O   0  0  0  0  0  0  0  0  0  0  0  0
   52.7848   85.1416   18.8205 C   0  0  0  0  0  0  0  0  0  0  0  0
   52.1560   85.8084   17.9592 O   0  0  0  0  0  0  0  0  0  0  0  0
   53.4756   85.5958   20.0083 C   0  0  0  0  0  0  0  0  0  0  0  0
   53.6381   86.8439   20.3555 C   0  0  0  0  0  0  0  0  0  0  0  0
   54.2635   87.1459   21.5546 O   0  0  0  0  0  0  0  0  0  0  0  0
   53.1923   87.9349   19.5240 C   0  0  0  0  0  0  0  0  0  0  0  0
   54.1836   88.4906   18.7049 C   0  0  0  0  0  0  0  0  0  0  0  0
   53.8943   89.5125   17.8350 C   0  0  0  0  0  0  0  0  0  0  0  0
   52.6147   90.0107   17.7563 C   0  0  0  0  0  0  0  0  0  0  0  0
   51.6540   89.4468   18.5749 C   0  0  0  0  0  0  0  0  0  0  0  0
   51.9251   88.4197   19.4528 C   0  0  0  0  0  0  0  0  0  0  0  0
   52.6047   91.0420   16.7940 O   0  0  0  0  0  0  0  0  0  0  0  0
   53.9487   91.4480   16.5562 C   0  0  0  0  0  0  0  0  0  0  0  0
   54.7983   90.2434   16.8894 C   0  0  0  0  0  0  0  0  0  0  0  0
   54.3731   92.5774   17.4759 C   0  0  0  0  0  0  0  0  0  0  0  0
   49.5006   82.3481   23.0478 Br  0  0  0  0  0  0  0  0  0  0  0  0
   51.1324   83.3134   23.0730 C   0  0  0  0  0  0  0  0  0  0  0  0
   51.5667   83.8776   24.2810 C   0  0  0  0  0  0  0  0  0  0  0  0
   52.7616   84.5854   24.2999 C   0  0  0  0  0  0  0  0  0  0  0  0
   53.4651   84.7051   23.1484 C   0  0  0  0  0  0  0  0  0  0  0  0
   53.0344   84.1469   21.9555 C   0  0  0  0  0  0  0  0  0  0  0  0
   51.8575   83.4418   21.9053 C   0  0  0  0  0  0  0  0  0  0  0  0
   50.8441   83.7481   25.4401 O   0  0  0  0  0  0  0  0  0  0  0  0
   51.1673   84.1557   26.2825 H   0  0  0  0  0  0  0  0  0  0  0  0
   53.1988   85.1493   25.5013 O   0  0  0  0  0  0  0  0  0  0  0  0
   54.3426   85.9532   25.6016 C   0  0  0  0  0  0  0  0  0  0  0  0
   54.1700   81.9431   20.1254 C   0  0  0  0  0  0  0  0  0  0  0  0
   55.2182   81.4380   19.2270 C   0  0  0  0  0  0  0  0  0  0  0  0
   54.8124   80.5529   18.1075 C   0  0  0  0  0  0  0  0  0  0  0  0
   54.9017   81.1653   16.8047 N   0  0  0  0  0  0  0  0  0  0  0  0
   55.5079   80.2079   15.8680 C   0  0  0  0  0  0  0  0  0  0  0  0
   55.8179   82.2857   16.9185 C   0  0  0  0  0  0  0  0  0  0  0  0
   54.0197   81.5250   16.4300 H   0  0  0  0  0  0  0  0  0  0  0  0
 20 21  1  0  0  0
 21 22  2  0  0  0
 21 26  1  0  0  0
 22 23  1  0  0  0
 22 27  1  0  0  0
 23 24  2  0  0  0
 23 29  1  0  0  0
 24 25  1  0  0  0
 25 26  2  0  0  0
 25  1  1  0  0  0
  1  2  1  0  0  0
  1  7  1  0  0  0
  2  3  1  0  0  0
  2 31  1  0  0  0
  3  4  2  0  0  0
  3  5  1  0  0  0
  5  6  2  0  0  0
  5  7  1  0  0  0
  7  8  2  0  0  0
  8  9  1  0  0  0
  8 10  1  0  0  0
 10 11  2  0  0  0
 10 15  1  0  0  0
 11 12  1  0  0  0
 12 13  2  0  0  0
 12 18  1  0  0  0
 13 14  1  0  0  0
 13 16  1  0  0  0
 14 15  2  0  0  0
 16 17  1  0  0  0
 17 18  1  0  0  0
 17 19  1  0  0  0
 31 32  1  0  0  0
 32 33  1  0  0  0
 33 34  1  0  0  0
 34 35  1  0  0  0
 34 36  1  0  0  0
 29 30  1  0  0  0
 34 37  1  0  0  0
 27 28  1  0  0  0
M  CHG 1   9  -1
M  CHG 1  34   1
M  END
> <minimizedAffinity>
-7.84994

$$$$
26


 29 32  0  0  0  0  0  0  0  0999 V2000
   51.8672   85.7617   19.6236 C   0  0  0  0  0  0  0  0  0  0  0  0
   51.7395   85.2650   20.9303 N   0  0  0  0  0  0  0  0  0  0  0  0
   51.9850   83.8965   21.1844 C   0  0  0  0  0  0  0  0  0  0  0  0
   51.9005   82.9903   19.9860 C   0  0  0  0  0  0  0  0  0  0  0  0
   52.5994   83.5589   18.8091 C   0  0  0  0  0  0  0  0  0  0  0  0
   53.3074   82.9842   17.7885 C   0  0  0  0  0  0  0  0  0  0  0  0
   53.7151   84.0426   16.9954 C   0  0  0  0  0  0  0  0  0  0  0  0
   53.2587   85.2037   17.5360 N   0  0  0  0  0  0  0  0  0  0  0  0
   52.5733   84.9108   18.6490 C   0  0  0  0  0  0  0  0  0  0  0  0
   54.4600   83.7310   15.8781 C   0  0  0  0  0  0  0  0  0  0  0  0
   54.7849   82.4286   15.5635 C   0  0  0  0  0  0  0  0  0  0  0  0
   54.3777   81.3747   16.3554 C   0  0  0  0  0  0  0  0  0  0  0  0
   53.6277   81.6699   17.4818 C   0  0  0  0  0  0  0  0  0  0  0  0
   52.3046   85.8330   21.6249 H   0  0  0  0  0  0  0  0  0  0  0  0
   50.7419   85.4730   21.2580 H   0  0  0  0  0  0  0  0  0  0  0  0
   53.4596   86.1228   17.0852 H   0  0  0  0  0  0  0  0  0  0  0  0
   51.8362   90.8619   18.0825 Br  0  0  0  0  0  0  0  0  0  0  0  0
   52.6295   89.3889   18.9850 C   0  0  0  0  0  0  0  0  0  0  0  0
   53.8275   89.5483   19.6389 C   0  0  0  0  0  0  0  0  0  0  0  0
   54.3791   88.4624   20.2852 C   0  0  0  0  0  0  0  0  0  0  0  0
   53.7987   87.2129   20.3163 C   0  0  0  0  0  0  0  0  0  0  0  0
   52.5966   87.0606   19.6586 C   0  0  0  0  0  0  0  0  0  0  0  0
   52.0234   88.1290   19.0048 C   0  0  0  0  0  0  0  0  0  0  0  0
   56.0417   88.7071   21.1846 Br  0  0  0  0  0  0  0  0  0  0  0  0
   54.4856   90.7947   19.6536 O   0  0  0  0  0  0  0  0  0  0  0  0
   54.0463   91.5635   19.1669 H   0  0  0  0  0  0  0  0  0  0  0  0
   53.3076   83.6566   21.8246 C   0  0  0  0  0  0  0  0  0  0  0  0
   53.8941   84.6186   22.4282 O   0  0  0  0  0  0  0  0  0  0  0  0
   53.8861   82.3996   21.7561 O   0  0  0  0  0  0  0  0  0  0  0  0
 17 18  1  0  0  0
 18 19  2  0  0  0
 18 23  1  0  0  0
 19 20  1  0  0  0
 19 25  1  0  0  0
 20 21  2  0  0  0
 20 24  1  0  0  0
 21 22  1  0  0  0
 22 23  2  0  0  0
 22  1  1  0  0  0
  1  2  1  0  0  0
  1  9  1  0  0  0
  2  3  1  0  0  0
  3  4  1  0  0  0
  3 27  1  0  0  0
  4  5  1  0  0  0
  5  6  1  0  0  0
  5  9  2  0  0  0
  6  7  2  0  0  0
  6 13  1  0  0  0
  7  8  1  0  0  0
  7 10  1  0  0  0
  8  9  1  0  0  0
 10 11  2  0  0  0
 11 12  1  0  0  0
 12 13  2  0  0  0
 27 28  2  0  0  0
 27 29  1  0  0  0
  2 14  1  0  0  0
  2 15  1  0  0  0
  8 16  1  0  0  0
 25 26  1  0  0  0
M  CHG 1   2   1
M  END
> <minimizedAffinity>
-8.85930

$$$$
31


 24 27  0  0  0  0  0  0  0  0999 V2000
   52.6569   90.1603   17.4634 Br  0  0  0  0  0  0  0  0  0  0  0  0
   52.9689   88.7108   18.6844 C   0  0  0  0  0  0  0  0  0  0  0  0
   53.8840   88.8098   19.6712 C   0  0  0  0  0  0  0  0  0  0  0  0
   54.1511   87.7045   20.5309 C   0  0  0  0  0  0  0  0  0  0  0  0
   53.4641   86.5605   20.3150 C   0  0  0  0  0  0  0  0  0  0  0  0
   52.5401   86.4758   19.2919 C   0  0  0  0  0  0  0  0  0  0  0  0
   52.2815   87.5344   18.4761 C   0  0  0  0  0  0  0  0  0  0  0  0
   55.4254   87.8363   21.2639 C   0  0  0  0  0  0  0  0  0  0  0  0
   55.5259   87.5182   22.6290 N   0  0  0  0  0  0  0  0  0  0  0  0
   54.8668   86.4458   23.1837 C   0  0  0  0  0  0  0  0  0  0  0  0
   55.2319   86.2371   24.5830 N   0  0  0  0  0  0  0  0  0  0  0  0
   54.9091   87.4565   25.3053 C   0  0  0  0  0  0  0  0  0  0  0  0
   55.5550   88.6187   24.7313 N   0  0  0  0  0  0  0  0  0  0  0  0
   55.2744   88.8057   23.3631 C   0  0  0  0  0  0  0  0  0  0  0  0
   56.9827   88.4824   24.9328 C   0  0  0  0  0  0  0  0  0  0  0  0
   57.3882   87.2076   24.2365 C   0  0  0  0  0  0  0  0  0  0  0  0
   57.0087   87.3336   22.8076 C   0  0  0  0  0  0  0  0  0  0  0  0
   56.6399   85.9923   24.7777 C   0  0  0  0  0  0  0  0  0  0  0  0
   54.5728   89.9517   19.8763 O   0  0  0  0  0  0  0  0  0  0  0  0
   53.9892   91.1544   20.4168 C   0  0  0  0  0  0  0  0  0  0  0  0
   54.8011   91.9327   21.3482 C   0  0  0  0  0  0  0  0  0  0  0  0
   56.0055   91.8019   21.5146 O   0  0  0  0  0  0  0  0  0  0  0  0
   54.1526   92.9307   22.0842 O   0  0  0  0  0  0  0  0  0  0  0  0
   54.6989   93.5076   23.2402 C   0  0  0  0  0  0  0  0  0  0  0  0
  1  2  1  0  0  0
  2  3  2  0  0  0
  2  7  1  0  0  0
  3  4  1  0  0  0
  3 19  1  0  0  0
  4  5  2  0  0  0
  4  8  1  0  0  0
  5  6  1  0  0  0
  6  7  2  0  0  0
  8  9  1  0  0  0
  9 10  1  0  0  0
  9 14  1  0  0  0
  9 17  1  0  0  0
 10 11  1  0  0  0
 11 12  1  0  0  0
 11 18  1  0  0  0
 12 13  1  0  0  0
 13 14  1  0  0  0
 13 15  1  0  0  0
 15 16  1  0  0  0
 16 17  1  0  0  0
 16 18  1  0  0  0
 19 20  1  0  0  0
 20 21  1  0  0  0
 21 22  2  0  0  0
 21 23  1  0  0  0
 23 24  1  0  0  0
M  CHG 1   9   1
M  END
> <minimizedAffinity>
-7.33236

$$$$
33


 33 36  0  0  0  0  0  0  0  0999 V2000
   52.6532   86.4606   19.1891 C   0  0  0  0  0  0  0  0  0  0  0  0
   53.4021   86.5240   20.2785 N   0  0  0  0  0  0  0  0  0  0  0  0
   54.1026   87.6081   20.6546 C   0  0  0  0  0  0  0  0  0  0  0  0
   54.0197   88.6911   19.8514 N   0  0  0  0  0  0  0  0  0  0  0  0
   53.2664   88.6879   18.7192 C   0  0  0  0  0  0  0  0  0  0  0  0
   52.5868   87.5572   18.4046 N   0  0  0  0  0  0  0  0  0  0  0  0
   53.2016   89.8197   17.8820 N   0  0  0  0  0  0  0  0  0  0  0  0
   52.3693   90.9486   18.2102 C   0  0  0  0  0  0  0  0  0  0  0  0
   53.3001   92.1687   18.1508 C   0  0  0  0  0  0  0  0  0  0  0  0
   53.9428   92.1833   16.9297 O   0  0  0  0  0  0  0  0  0  0  0  0
   54.8650   91.1406   16.8505 C   0  0  0  0  0  0  0  0  0  0  0  0
   53.9954   89.8762   16.6808 C   0  0  0  0  0  0  0  0  0  0  0  0
   54.9065   87.6278   21.8458 N   0  0  0  0  0  0  0  0  0  0  0  0
   55.7471   88.7474   22.1615 C   0  0  0  0  0  0  0  0  0  0  0  0
   56.3305   88.7784   23.5202 C   0  0  0  0  0  0  0  0  0  0  0  0
   56.2967   87.5638   24.1911 O   0  0  0  0  0  0  0  0  0  0  0  0
   55.0422   86.9719   24.1380 C   0  0  0  0  0  0  0  0  0  0  0  0
   54.8477   86.4933   22.7200 C   0  0  0  0  0  0  0  0  0  0  0  0
   51.9725   85.2576   18.8545 N   0  0  0  0  0  0  0  0  0  0  0  0
   50.9551   85.2021   18.9817 H   0  0  0  0  0  0  0  0  0  0  0  0
   53.4918   84.2210   17.3714 C   0  0  0  0  0  0  0  0  0  0  0  0
   52.6711   84.1673   18.3636 N   0  0  0  0  0  0  0  0  0  0  0  0
   54.7572   80.8705   13.3762 Br  0  0  0  0  0  0  0  0  0  0  0  0
   54.8606   81.4721   15.1768 C   0  0  0  0  0  0  0  0  0  0  0  0
   55.6598   80.7623   16.0590 C   0  0  0  0  0  0  0  0  0  0  0  0
   55.7143   81.2156   17.3632 C   0  0  0  0  0  0  0  0  0  0  0  0
   55.0056   82.3194   17.7614 C   0  0  0  0  0  0  0  0  0  0  0  0
   54.1971   83.0504   16.8915 C   0  0  0  0  0  0  0  0  0  0  0  0
   54.1545   82.5837   15.5959 C   0  0  0  0  0  0  0  0  0  0  0  0
   55.0643   82.7718   19.0838 O   0  0  0  0  0  0  0  0  0  0  0  0
   56.3836   79.6388   15.6655 O   0  0  0  0  0  0  0  0  0  0  0  0
   55.6439   82.2594   19.7416 H   0  0  0  0  0  0  0  0  0  0  0  0
   56.3819   79.2719   14.7257 H   0  0  0  0  0  0  0  0  0  0  0  0
 23 24  1  0  0  0
 24 25  2  0  0  0
 24 29  1  0  0  0
 25 26  1  0  0  0
 25 31  1  0  0  0
 26 27  2  0  0  0
 27 28  1  0  0  0
 27 30  1  0  0  0
 28 29  2  0  0  0
 28 21  1  0  0  0
 21 22  2  0  0  0
 22 19  1  0  0  0
 19  1  1  0  0  0
  1  2  2  0  0  0
  1  6  1  0  0  0
  2  3  1  0  0  0
  3  4  2  0  0  0
  3 13  1  0  0  0
  4  5  1  0  0  0
  5  6  2  0  0  0
  5  7  1  0  0  0
  7  8  1  0  0  0
  7 12  1  0  0  0
  8  9  1  0  0  0
  9 10  1  0  0  0
 10 11  1  0  0  0
 11 12  1  0  0  0
 13 14  1  0  0  0
 13 18  1  0  0  0
 14 15  1  0  0  0
 15 16  1  0  0  0
 16 17  1  0  0  0
 17 18  1  0  0  0
 19 20  1  0  0  0
 30 32  1  0  0  0
 31 33  1  0  0  0
M  END
> <minimizedAffinity>
-9.36387

$$$$
35


 33 36  0  0  0  0  0  0  0  0999 V2000
   54.2193   85.4613   20.6782 C   0  0  0  0  0  0  0  0  0  0  0  0
   53.5852   86.4699   20.0732 N   0  0  0  0  0  0  0  0  0  0  0  0
   53.8642   87.7717   20.3500 C   0  0  0  0  0  0  0  0  0  0  0  0
   54.8082   88.0503   21.2628 N   0  0  0  0  0  0  0  0  0  0  0  0
   55.4631   87.0603   21.8877 C   0  0  0  0  0  0  0  0  0  0  0  0
   55.1550   85.7646   21.5829 N   0  0  0  0  0  0  0  0  0  0  0  0
   56.4668   87.3479   22.8609 N   0  0  0  0  0  0  0  0  0  0  0  0
   57.5141   86.4234   23.2232 C   0  0  0  0  0  0  0  0  0  0  0  0
   57.6732   86.3535   24.7270 C   0  0  0  0  0  0  0  0  0  0  0  0
   56.7712   87.1676   25.3954 O   0  0  0  0  0  0  0  0  0  0  0  0
   56.9398   88.4942   24.9536 C   0  0  0  0  0  0  0  0  0  0  0  0
   56.4378   88.6329   23.5299 C   0  0  0  0  0  0  0  0  0  0  0  0
   53.1335   88.7583   19.6573 N   0  0  0  0  0  0  0  0  0  0  0  0
   53.6927   90.0747   19.5076 C   0  0  0  0  0  0  0  0  0  0  0  0
   53.7120   90.3344   17.9931 C   0  0  0  0  0  0  0  0  0  0  0  0
   52.3749   90.3083   17.5955 O   0  0  0  0  0  0  0  0  0  0  0  0
   51.8302   89.0311   17.6751 C   0  0  0  0  0  0  0  0  0  0  0  0
   51.8326   88.4941   19.0923 C   0  0  0  0  0  0  0  0  0  0  0  0
   53.8882   84.1332   20.3393 N   0  0  0  0  0  0  0  0  0  0  0  0
   54.3109   83.7282   19.4782 H   0  0  0  0  0  0  0  0  0  0  0  0
   52.0443   83.9113   21.7926 C   0  0  0  0  0  0  0  0  0  0  0  0
   53.0073   83.3517   21.1371 N   0  0  0  0  0  0  0  0  0  0  0  0
   52.3222   84.5670   24.7685 Br  0  0  0  0  0  0  0  0  0  0  0  0
   51.0675   83.3605   23.9911 C   0  0  0  0  0  0  0  0  0  0  0  0
   50.1670   82.6756   24.7867 C   0  0  0  0  0  0  0  0  0  0  0  0
   49.2648   81.8038   24.1963 C   0  0  0  0  0  0  0  0  0  0  0  0
   49.2794   81.6306   22.8305 C   0  0  0  0  0  0  0  0  0  0  0  0
   50.1977   82.3351   22.0670 C   0  0  0  0  0  0  0  0  0  0  0  0
   51.1021   83.2054   22.6254 C   0  0  0  0  0  0  0  0  0  0  0  0
   48.3614   80.7488   22.2820 O   0  0  0  0  0  0  0  0  0  0  0  0
   50.1566   82.8526   26.1580 O   0  0  0  0  0  0  0  0  0  0  0  0
   47.4361   81.0114   21.9708 H   0  0  0  0  0  0  0  0  0  0  0  0
   50.8248   83.4953   26.5628 H   0  0  0  0  0  0  0  0  0  0  0  0
 23 24  1  0  0  0
 24 25  2  0  0  0
 24 29  1  0  0  0
 25 26  1  0  0  0
 25 31  1  0  0  0
 26 27  2  0  0  0
 27 28  1  0  0  0
 27 30  1  0  0  0
 28 29  2  0  0  0
 29 21  1  0  0  0
 21 22  2  0  0  0
 22 19  1  0  0  0
 19  1  1  0  0  0
  1  2  2  0  0  0
  1  6  1  0  0  0
  2  3  1  0  0  0
  3  4  2  0  0  0
  3 13  1  0  0  0
  4  5  1  0  0  0
  5  6  2  0  0  0
  5  7  1  0  0  0
  7  8  1  0  0  0
  7 12  1  0  0  0
  8  9  1  0  0  0
  9 10  1  0  0  0
 10 11  1  0  0  0
 11 12  1  0  0  0
 13 14  1  0  0  0
 13 18  1  0  0  0
 14 15  1  0  0  0
 15 16  1  0  0  0
 16 17  1  0  0  0
 17 18  1  0  0  0
 19 20  1  0  0  0
 30 32  1  0  0  0
 31 33  1  0  0  0
M  END
> <minimizedAffinity>
-9.30370

$$$$
37


 27 30  0  0  0  0  0  0  0  0999 V2000
   54.3921   97.1444   26.9325 N   0  0  0  0  0  0  0  0  0  0  0  0
   54.1621   95.7636   26.5786 C   0  0  0  0  0  0  0  0  0  0  0  0
   55.0806   95.5910   25.3887 C   0  0  0  0  0  0  0  0  0  0  0  0
   56.3456   96.2615   25.8949 C   0  0  0  0  0  0  0  0  0  0  0  0
   55.7402   97.4225   26.6000 C   0  0  0  0  0  0  0  0  0  0  0  0
   56.3457   98.4849   26.8559 O   0  0  0  0  0  0  0  0  0  0  0  0
   50.1406  100.7548   29.4661 Br  0  0  0  0  0  0  0  0  0  0  0  0
   51.4629   99.6237   28.6883 C   0  0  0  0  0  0  0  0  0  0  0  0
   51.9082   99.9095   27.4031 C   0  0  0  0  0  0  0  0  0  0  0  0
   52.8589   99.0843   26.8675 C   0  0  0  0  0  0  0  0  0  0  0  0
   53.4060   97.9924   27.5057 C   0  0  0  0  0  0  0  0  0  0  0  0
   52.9313   97.7398   28.7953 C   0  0  0  0  0  0  0  0  0  0  0  0
   51.9724   98.5437   29.3798 C   0  0  0  0  0  0  0  0  0  0  0  0
   51.3378  101.0806   26.6835 C   0  0  0  0  0  0  0  0  0  0  0  0
   55.3047   94.1680   25.0591 C   0  0  0  0  0  0  0  0  0  0  0  0
   55.4737   93.3102   25.9586 O   0  0  0  0  0  0  0  0  0  0  0  0
   55.3265   93.7752   23.7046 N   0  0  0  0  0  0  0  0  0  0  0  0
   55.1894   94.4767   22.9555 H   0  0  0  0  0  0  0  0  0  0  0  0
   55.5389   92.3965   23.3374 C   0  0  0  0  0  0  0  0  0  0  0  0
   54.9270   92.0911   22.0138 C   0  0  0  0  0  0  0  0  0  0  0  0
   55.3783   91.2289   21.0685 N   0  0  0  0  0  0  0  0  0  0  0  0
   54.5399   91.2387   20.0186 C   0  0  0  0  0  0  0  0  0  0  0  0
   53.5667   92.1264   20.3465 N   0  0  0  0  0  0  0  0  0  0  0  0
   53.7964   92.6378   21.5387 N   0  0  0  0  0  0  0  0  0  0  0  0
   55.0095   90.2949   18.9519 C   0  0  0  0  0  0  0  0  0  0  0  0
   56.4365   90.0230   19.3729 C   0  0  0  0  0  0  0  0  0  0  0  0
   56.4855   90.3138   20.8581 C   0  0  0  0  0  0  0  0  0  0  0  0
  7  8  1  0  0  0
  8  9  2  0  0  0
  8 13  1  0  0  0
  9 10  1  0  0  0
  9 14  1  0  0  0
 10 11  2  0  0  0
 11 12  1  0  0  0
 11  1  1  0  0  0
 12 13  2  0  0  0
  1  2  1  0  0  0
  1  5  1  0  0  0
  2  3  1  0  0  0
  3  4  1  0  0  0
  3 15  1  0  0  0
  4  5  1  0  0  0
  5  6  2  0  0  0
 15 16  2  0  0  0
 15 17  1  0  0  0
 17 19  1  0  0  0
 19 20  1  0  0  0
 20 21  1  0  0  0
 20 24  2  0  0  0
 21 22  1  0  0  0
 21 27  1  0  0  0
 22 23  2  0  0  0
 22 25  1  0  0  0
 23 24  1  0  0  0
 25 26  1  0  0  0
 26 27  1  0  0  0
 17 18  1  0  0  0
M  END
> <minimizedAffinity>
-9.71852

$$$$
39


 21 23  0  0  0  0  0  0  0  0999 V2000
   54.9904   89.1719   20.2753 N   0  0  0  0  0  0  0  0  0  0  0  0
   54.9340   87.9129   20.8752 C   0  0  0  0  0  0  0  0  0  0  0  0
   53.8855   87.2527   20.8968 O   0  0  0  0  0  0  0  0  0  0  0  0
   55.9350   89.6596   20.3078 H   0  0  0  0  0  0  0  0  0  0  0  0
   54.7469   91.9466   21.4060 Br  0  0  0  0  0  0  0  0  0  0  0  0
   53.6664   91.2082   19.9981 C   0  0  0  0  0  0  0  0  0  0  0  0
   53.9563   89.8868   19.6282 C   0  0  0  0  0  0  0  0  0  0  0  0
   53.1661   89.3825   18.6173 C   0  0  0  0  0  0  0  0  0  0  0  0
   52.1601   90.1453   18.0196 C   0  0  0  0  0  0  0  0  0  0  0  0
   51.8945   91.4383   18.3992 C   0  0  0  0  0  0  0  0  0  0  0  0
   52.6749   91.9523   19.4067 C   0  0  0  0  0  0  0  0  0  0  0  0
   50.8130   92.2386   17.7484 C   0  0  0  0  0  0  0  0  0  0  0  0
   56.1546   87.3619   21.4956 C   0  0  0  0  0  0  0  0  0  0  0  0
   56.2285   87.4537   22.9175 N   0  0  0  0  0  0  0  0  0  0  0  0
   57.5093   86.8613   23.3335 C   0  0  0  0  0  0  0  0  0  0  0  0
   57.8623   87.4605   24.6721 C   0  0  0  0  0  0  0  0  0  0  0  0
   56.6050   87.5591   25.4126 N   0  0  0  0  0  0  0  0  0  0  0  0
   55.9565   88.7708   24.9202 C   0  0  0  0  0  0  0  0  0  0  0  0
   56.1522   88.8259   23.4117 C   0  0  0  0  0  0  0  0  0  0  0  0
   55.7462   86.4450   25.0433 C   0  0  0  0  0  0  0  0  0  0  0  0
   55.2151   86.6955   23.6222 C   0  0  0  0  0  0  0  0  0  0  0  0
  5  6  1  0  0  0
  6  7  2  0  0  0
  6 11  1  0  0  0
  7  8  1  0  0  0
  7  1  1  0  0  0
  8  9  2  0  0  0
  9 10  1  0  0  0
 10 11  2  0  0  0
 10 12  1  0  0  0
  1  2  1  0  0  0
  2  3  2  0  0  0
  2 13  1  0  0  0
 13 14  1  0  0  0
 14 15  1  0  0  0
 14 19  1  0  0  0
 14 21  1  0  0  0
 15 16  1  0  0  0
 16 17  1  0  0  0
 17 18  1  0  0  0
 17 20  1  0  0  0
 18 19  1  0  0  0
 20 21  1  0  0  0
  1  4  1  0  0  0
M  CHG 1  14   1
M  END
> <minimizedAffinity>
-7.95759

$$$$
56


 24 27  0  0  0  0  0  0  0  0999 V2000
   51.1481   83.6545   28.4726 C   0  0  0  0  0  0  0  0  0  0  0  0
   49.9142   83.5632   29.1190 C   0  0  0  0  0  0  0  0  0  0  0  0
   49.2760   84.1085   30.3480 C   0  0  0  0  0  0  0  0  0  0  0  0
   48.6213   85.2392   29.6430 N   0  0  0  0  0  0  0  0  0  0  0  0
   49.4583   85.6966   28.7653 C   0  0  0  0  0  0  0  0  0  0  0  0
   50.6506   84.9151   28.8688 C   0  0  0  0  0  0  0  0  0  0  0  0
   49.2128   86.7946   27.8584 N   0  0  0  0  0  0  0  0  0  0  0  0
   48.2948   83.2030   30.7666 O   0  0  0  0  0  0  0  0  0  0  0  0
   48.5097   82.9665   32.1105 C   0  0  0  0  0  0  0  0  0  0  0  0
   49.2336   84.2280   32.5496 C   0  0  0  0  0  0  0  0  0  0  0  0
   50.0321   84.4419   31.3986 O   0  0  0  0  0  0  0  0  0  0  0  0
   48.6504   87.6163   28.1507 H   0  0  0  0  0  0  0  0  0  0  0  0
   49.5958   86.7813   26.8949 H   0  0  0  0  0  0  0  0  0  0  0  0
   54.0143   84.4954   27.3561 Br  0  0  0  0  0  0  0  0  0  0  0  0
   53.6034   83.2683   28.7594 C   0  0  0  0  0  0  0  0  0  0  0  0
   52.3101   83.0095   29.1371 C   0  0  0  0  0  0  0  0  0  0  0  0
   52.0525   82.1245   30.1570 C   0  0  0  0  0  0  0  0  0  0  0  0
   53.0780   81.4719   30.8276 C   0  0  0  0  0  0  0  0  0  0  0  0
   54.3808   81.7166   30.4658 C   0  0  0  0  0  0  0  0  0  0  0  0
   54.6333   82.6190   29.4265 C   0  0  0  0  0  0  0  0  0  0  0  0
   51.4557   85.4746   29.9960 C   0  0  0  0  0  0  0  0  0  0  0  0
   52.1057   85.9343   30.8716 N   0  0  0  0  0  0  0  0  0  0  0  0
   48.7878   83.2716   28.1618 C   0  0  0  0  0  0  0  0  0  0  0  0
   47.9154   83.0251   27.4044 N   0  0  0  0  0  0  0  0  0  0  0  0
 14 15  1  0  0  0
 15 16  2  0  0  0
 15 20  1  0  0  0
 16 17  1  0  0  0
 16  1  1  0  0  0
 17 18  2  0  0  0
 18 19  1  0  0  0
 19 20  2  0  0  0
  1  2  1  0  0  0
  1  6  1  0  0  0
  2  3  1  0  0  0
  2  6  1  0  0  0
  2 23  1  0  0  0
  3  4  1  0  0  0
  3  8  1  0  0  0
  3 11  1  0  0  0
  4  5  2  0  0  0
  5  6  1  0  0  0
  5  7  1  0  0  0
  6 21  1  0  0  0
 21 22  3  0  0  0
  8  9  1  0  0  0
  9 10  1  0  0  0
 10 11  1  0  0  0
 23 24  3  0  0  0
  7 12  1  0  0  0
  7 13  1  0  0  0
M  END
> <minimizedAffinity>
-5.97848

$$$$
64


 22 25  0  0  0  0  0  0  0  0999 V2000
   55.2627   88.9259   20.7751 N   0  0  0  0  0  0  0  0  0  0  0  0
   55.7649   89.7321   19.7215 C   0  0  0  0  0  0  0  0  0  0  0  0
   56.8055   90.4097   19.7922 O   0  0  0  0  0  0  0  0  0  0  0  0
   54.8886   89.6590   18.5299 C   0  0  0  0  0  0  0  0  0  0  0  0
   54.2380   90.9564   18.1971 C   0  0  0  0  0  0  0  0  0  0  0  0
   52.8510   90.6668   18.1013 O   0  0  0  0  0  0  0  0  0  0  0  0
   52.7389   90.0264   19.3627 C   0  0  0  0  0  0  0  0  0  0  0  0
   53.6861   88.8588   19.0615 C   0  0  0  0  0  0  0  0  0  0  0  0
   54.1336   88.1910   20.2930 C   0  0  0  0  0  0  0  0  0  0  0  0
   53.6508   87.1773   20.8429 O   0  0  0  0  0  0  0  0  0  0  0  0
   53.3710   91.0370   20.2369 C   0  0  0  0  0  0  0  0  0  0  0  0
   54.1852   91.7528   19.4617 C   0  0  0  0  0  0  0  0  0  0  0  0
   57.2094   86.5706   21.2147 Br  0  0  0  0  0  0  0  0  0  0  0  0
   56.5980   87.8316   22.5373 C   0  0  0  0  0  0  0  0  0  0  0  0
   55.7249   88.8073   22.1129 C   0  0  0  0  0  0  0  0  0  0  0  0
   55.2980   89.7019   23.0883 C   0  0  0  0  0  0  0  0  0  0  0  0
   55.7206   89.6217   24.4011 C   0  0  0  0  0  0  0  0  0  0  0  0
   56.6037   88.6227   24.7946 C   0  0  0  0  0  0  0  0  0  0  0  0
   57.0301   87.7368   23.8414 C   0  0  0  0  0  0  0  0  0  0  0  0
   54.7510   91.6989   17.0362 C   0  0  0  0  0  0  0  0  0  0  0  0
   54.9318   90.7870   15.9794 O   0  0  0  0  0  0  0  0  0  0  0  0
   55.7517   90.2384   16.1530 H   0  0  0  0  0  0  0  0  0  0  0  0
 13 14  1  0  0  0
 14 15  2  0  0  0
 14 19  1  0  0  0
 15 16  1  0  0  0
 15  1  1  0  0  0
 16 17  2  0  0  0
 17 18  1  0  0  0
 18 19  2  0  0  0
  1  2  1  0  0  0
  1  9  1  0  0  0
  2  3  2  0  0  0
  2  4  1  0  0  0
  4  5  1  0  0  0
  4  8  1  0  0  0
  5  6  1  0  0  0
  5 12  1  0  0  0
  5 20  1  0  0  0
  6  7  1  0  0  0
  7  8  1  0  0  0
  7 11  1  0  0  0
  8  9  1  0  0  0
  9 10  2  0  0  0
 11 12  2  0  0  0
 20 21  1  0  0  0
 21 22  1  0  0  0
M  END
> <minimizedAffinity>
-7.01794

$$$$
67


 22 25  0  0  0  0  0  0  0  0999 V2000
   55.4352   89.4402   20.0303 N   0  0  0  0  0  0  0  0  0  0  0  0
   55.9715   90.5475   19.2159 C   0  0  0  0  0  0  0  0  0  0  0  0
   54.8816   90.7745   18.2756 C   0  0  0  0  0  0  0  0  0  0  0  0
   53.8510   91.6209   18.7182 O   0  0  0  0  0  0  0  0  0  0  0  0
   52.9843   91.3799   17.6191 C   0  0  0  0  0  0  0  0  0  0  0  0
   52.7621   89.8816   17.8673 C   0  0  0  0  0  0  0  0  0  0  0  0
   54.1802   89.4286   18.0238 C   0  0  0  0  0  0  0  0  0  0  0  0
   54.5073   88.7050   19.2414 C   0  0  0  0  0  0  0  0  0  0  0  0
   54.0506   87.5909   19.5710 O   0  0  0  0  0  0  0  0  0  0  0  0
   53.9165   91.6225   16.4790 C   0  0  0  0  0  0  0  0  0  0  0  0
   55.1495   91.3484   16.9606 C   0  0  0  0  0  0  0  0  0  0  0  0
   54.8695   91.7513   22.1176 Br  0  0  0  0  0  0  0  0  0  0  0  0
   55.5744   90.0282   22.4128 C   0  0  0  0  0  0  0  0  0  0  0  0
   55.7597   89.1296   21.3764 C   0  0  0  0  0  0  0  0  0  0  0  0
   56.2860   87.8967   21.7413 C   0  0  0  0  0  0  0  0  0  0  0  0
   56.6114   87.5630   23.0320 C   0  0  0  0  0  0  0  0  0  0  0  0
   56.4210   88.4592   24.0354 C   0  0  0  0  0  0  0  0  0  0  0  0
   55.9047   89.6893   23.7269 C   0  0  0  0  0  0  0  0  0  0  0  0
   52.0473   89.8137   19.1814 C   0  0  0  0  0  0  0  0  0  0  0  0
   51.9853   90.7723   19.9646 O   0  0  0  0  0  0  0  0  0  0  0  0
   51.4283   88.6217   19.5360 O   0  0  0  0  0  0  0  0  0  0  0  0
   51.2649   87.6110   18.5338 C   0  0  0  0  0  0  0  0  0  0  0  0
 12 13  1  0  0  0
 13 14  2  0  0  0
 13 18  1  0  0  0
 14 15  1  0  0  0
 14  1  1  0  0  0
 15 16  2  0  0  0
 16 17  1  0  0  0
 17 18  2  0  0  0
  1  2  1  0  0  0
  1  8  1  0  0  0
  2  3  1  0  0  0
  3  4  1  0  0  0
  3  7  1  0  0  0
  3 11  1  0  0  0
  4  5  1  0  0  0
  5  6  1  0  0  0
  5 10  1  0  0  0
  6  7  1  0  0  0
  6 19  1  0  0  0
  7  8  1  0  0  0
  8  9  2  0  0  0
 19 20  2  0  0  0
 19 21  1  0  0  0
 21 22  1  0  0  0
 10 11  2  0  0  0
M  END
> <minimizedAffinity>
-7.63566

$$$$
81


 22 25  0  0  0  0  0  0  0  0999 V2000
   53.2524   97.2147   27.5987 C   0  0  0  0  0  0  0  0  0  0  0  0
   53.4133   98.4445   27.0773 N   0  0  0  0  0  0  0  0  0  0  0  0
   52.3038   99.1589   27.2756 N   0  0  0  0  0  0  0  0  0  0  0  0
   51.4056   98.3966   27.9319 C   0  0  0  0  0  0  0  0  0  0  0  0
   52.0119   97.2095   28.1175 N   0  0  0  0  0  0  0  0  0  0  0  0
   50.1715   98.9309   28.2482 C   0  0  0  0  0  0  0  0  0  0  0  0
   49.8201  100.2239   27.9168 C   0  0  0  0  0  0  0  0  0  0  0  0
   48.5681  100.4872   28.3416 N   0  0  0  0  0  0  0  0  0  0  0  0
   48.1193   99.3965   28.9320 N   0  0  0  0  0  0  0  0  0  0  0  0
   49.0689   98.4155   28.8984 C   0  0  0  0  0  0  0  0  0  0  0  0
   47.8136  101.7219   28.2000 C   0  0  0  0  0  0  0  0  0  0  0  0
   50.7443  100.9502   27.2625 N   0  0  0  0  0  0  0  0  0  0  0  0
   51.9570  100.4180   26.9544 C   0  0  0  0  0  0  0  0  0  0  0  0
   54.2490   96.0882   27.5998 C   0  0  0  0  0  0  0  0  0  0  0  0
   57.9141   95.3471   23.7571 Br  0  0  0  0  0  0  0  0  0  0  0  0
   56.8355   96.0857   25.1345 C   0  0  0  0  0  0  0  0  0  0  0  0
   55.8187   95.4571   25.8053 C   0  0  0  0  0  0  0  0  0  0  0  0
   55.3371   96.3460   26.6853 N   0  0  0  0  0  0  0  0  0  0  0  0
   56.0100   97.4751   26.5803 N   0  0  0  0  0  0  0  0  0  0  0  0
   56.9580   97.3602   25.6224 C   0  0  0  0  0  0  0  0  0  0  0  0
   57.9346   98.4269   25.1970 C   0  0  0  0  0  0  0  0  0  0  0  0
   55.3680   94.0485   25.5664 C   0  0  0  0  0  0  0  0  0  0  0  0
 15 16  1  0  0  0
 16 17  2  0  0  0
 16 20  1  0  0  0
 17 18  1  0  0  0
 17 22  1  0  0  0
 18 19  1  0  0  0
 18 14  1  0  0  0
 19 20  2  0  0  0
 20 21  1  0  0  0
 14  1  1  0  0  0
  1  2  2  0  0  0
  1  5  1  0  0  0
  2  3  1  0  0  0
  3  4  1  0  0  0
  3 13  1  0  0  0
  4  5  2  0  0  0
  4  6  1  0  0  0
  6  7  2  0  0  0
  6 10  1  0  0  0
  7  8  1  0  0  0
  7 12  1  0  0  0
  8  9  1  0  0  0
  8 11  1  0  0  0
  9 10  2  0  0  0
 12 13  2  0  0  0
M  END
> <minimizedAffinity>
-8.75512

$$$$
85


 26 29  0  0  0  0  0  0  0  0999 V2000
   52.0784   98.7336   27.6203 C   0  0  0  0  0  0  0  0  0  0  0  0
   51.6056   99.9743   27.1466 C   0  0  0  0  0  0  0  0  0  0  0  0
   51.8629  100.6368   25.9865 N   0  0  0  0  0  0  0  0  0  0  0  0
   51.1842  101.7431   26.0204 O   0  0  0  0  0  0  0  0  0  0  0  0
   50.5105  101.8320   27.1247 N   0  0  0  0  0  0  0  0  0  0  0  0
   50.7374  100.7452   27.8737 C   0  0  0  0  0  0  0  0  0  0  0  0
   50.2688  100.3612   29.1138 C   0  0  0  0  0  0  0  0  0  0  0  0
   50.7348   99.1445   29.5749 C   0  0  0  0  0  0  0  0  0  0  0  0
   51.6178   98.3523   28.8438 C   0  0  0  0  0  0  0  0  0  0  0  0
   49.3781  101.1419   29.8725 N   0  0  0  0  0  0  0  0  0  0  0  0
   47.9686  101.1563   29.4904 C   0  0  0  0  0  0  0  0  0  0  0  0
   47.1880  102.1663   30.2854 C   0  0  0  0  0  0  0  0  0  0  0  0
   47.8139  103.3433   30.5321 O   0  0  0  0  0  0  0  0  0  0  0  0
   49.1727  103.3472   30.6538 C   0  0  0  0  0  0  0  0  0  0  0  0
   49.6601  101.9592   31.0137 C   0  0  0  0  0  0  0  0  0  0  0  0
   53.9496   97.1301   27.2143 C   0  0  0  0  0  0  0  0  0  0  0  0
   54.0871   96.8909   28.4717 O   0  0  0  0  0  0  0  0  0  0  0  0
   52.9736   98.0233   26.7812 N   0  0  0  0  0  0  0  0  0  0  0  0
   52.9121   98.1526   25.7266 H   0  0  0  0  0  0  0  0  0  0  0  0
   57.1579   98.2870   26.3815 Br  0  0  0  0  0  0  0  0  0  0  0  0
   56.1142   96.7628   25.8978 C   0  0  0  0  0  0  0  0  0  0  0  0
   54.8693   96.4121   26.3072 C   0  0  0  0  0  0  0  0  0  0  0  0
   54.5360   95.2193   25.7049 N   0  0  0  0  0  0  0  0  0  0  0  0
   55.5546   94.8774   24.9609 N   0  0  0  0  0  0  0  0  0  0  0  0
   56.5520   95.7526   25.0181 C   0  0  0  0  0  0  0  0  0  0  0  0
   53.3026   94.4946   25.8652 C   0  0  0  0  0  0  0  0  0  0  0  0
 20 21  1  0  0  0
 21 22  2  0  0  0
 21 25  1  0  0  0
 22 23  1  0  0  0
 22 16  1  0  0  0
 23 24  1  0  0  0
 23 26  1  0  0  0
 24 25  2  0  0  0
 16 17  2  0  0  0
 16 18  1  0  0  0
 18  1  1  0  0  0
  1  2  1  0  0  0
  1  9  2  0  0  0
  2  3  2  0  0  0
  2  6  1  0  0  0
  3  4  1  0  0  0
  4  5  1  0  0  0
  5  6  2  0  0  0
  6  7  1  0  0  0
  7  8  2  0  0  0
  7 10  1  0  0  0
  8  9  1  0  0  0
 10 11  1  0  0  0
 10 15  1  0  0  0
 11 12  1  0  0  0
 12 13  1  0  0  0
 13 14  1  0  0  0
 14 15  1  0  0  0
 18 19  1  0  0  0
M  END
> <minimizedAffinity>
-9.14640

$$$$
95


 26 29  0  0  0  0  0  0  0  0999 V2000
   56.5133   87.1806   21.6419 C   0  0  0  0  0  0  0  0  0  0  0  0
   57.5960   86.5566   21.3965 O   0  0  0  0  0  0  0  0  0  0  0  0
   56.2518   88.4971   21.3467 N   0  0  0  0  0  0  0  0  0  0  0  0
   57.4976   88.6391   20.8159 H   0  0  0  0  0  0  0  0  0  0  0  0
   52.2635   83.9227   21.3066 Br  0  0  0  0  0  0  0  0  0  0  0  0
   53.5411   84.9209   22.2838 C   0  0  0  0  0  0  0  0  0  0  0  0
   54.5212   85.6478   21.5975 C   0  0  0  0  0  0  0  0  0  0  0  0
   55.4377   86.3659   22.3223 C   0  0  0  0  0  0  0  0  0  0  0  0
   55.4044   86.3776   23.6916 C   0  0  0  0  0  0  0  0  0  0  0  0
   54.4217   85.6506   24.3851 C   0  0  0  0  0  0  0  0  0  0  0  0
   53.4989   84.9276   23.6566 C   0  0  0  0  0  0  0  0  0  0  0  0
   56.3869   87.1352   24.3743 N   0  0  0  0  0  0  0  0  0  0  0  0
   56.1834   88.3552   24.8329 N   0  0  0  0  0  0  0  0  0  0  0  0
   57.2638   88.8195   25.4234 N   0  0  0  0  0  0  0  0  0  0  0  0
   58.2020   87.8890   25.3549 N   0  0  0  0  0  0  0  0  0  0  0  0
   57.6555   86.8550   24.7073 C   0  0  0  0  0  0  0  0  0  0  0  0
   55.9926   89.8060   21.0530 C   0  0  0  0  0  0  0  0  0  0  0  0
   55.3484   90.0184   19.6929 C   0  0  0  0  0  0  0  0  0  0  0  0
   54.1766   89.4751   19.2972 N   0  0  0  0  0  0  0  0  0  0  0  0
   53.8880   89.8581   18.0468 C   0  0  0  0  0  0  0  0  0  0  0  0
   54.9005   90.6530   17.6664 N   0  0  0  0  0  0  0  0  0  0  0  0
   55.7898   90.7518   18.6654 N   0  0  0  0  0  0  0  0  0  0  0  0
   52.7147   89.4198   17.4187 C   0  0  0  0  0  0  0  0  0  0  0  0
   51.8483   88.5930   18.0782 C   0  0  0  0  0  0  0  0  0  0  0  0
   52.1461   88.1985   19.3675 C   0  0  0  0  0  0  0  0  0  0  0  0
   53.3167   88.6503   19.9594 C   0  0  0  0  0  0  0  0  0  0  0  0
  5  6  1  0  0  0
  6  7  2  0  0  0
  6 11  1  0  0  0
  7  8  1  0  0  0
  8  9  2  0  0  0
  8  1  1  0  0  0
  9 10  1  0  0  0
  9 12  1  0  0  0
 10 11  2  0  0  0
 12 13  1  0  0  0
 12 16  1  0  0  0
 13 14  2  0  0  0
 14 15  1  0  0  0
 15 16  2  0  0  0
  1  2  2  0  0  0
  1  3  1  0  0  0
  3 17  1  0  0  0
 17 18  1  0  0  0
 18 19  1  0  0  0
 18 22  2  0  0  0
 19 20  1  0  0  0
 19 26  1  0  0  0
 20 21  2  0  0  0
 20 23  1  0  0  0
 21 22  1  0  0  0
 23 24  2  0  0  0
 24 25  1  0  0  0
 25 26  2  0  0  0
  3  4  1  0  0  0
M  END
> <minimizedAffinity>
-9.08850

$$$$
106


 29 32  0  0  0  0  0  0  0  0999 V2000
   52.3555   86.1979   18.6226 C   0  0  0  0  0  0  0  0  0  0  0  0
   52.7647   87.3989   18.9249 C   0  0  0  0  0  0  0  0  0  0  0  0
   53.7680   87.6796   19.8392 O   0  0  0  0  0  0  0  0  0  0  0  0
   53.9896   89.0388   19.9594 C   0  0  0  0  0  0  0  0  0  0  0  0
   53.1440   89.7416   19.1316 C   0  0  0  0  0  0  0  0  0  0  0  0
   53.1969   91.1191   19.0955 C   0  0  0  0  0  0  0  0  0  0  0  0
   54.1017   91.7835   19.8959 C   0  0  0  0  0  0  0  0  0  0  0  0
   54.9557   91.0407   20.7349 C   0  0  0  0  0  0  0  0  0  0  0  0
   54.9225   89.6810   20.7860 C   0  0  0  0  0  0  0  0  0  0  0  0
   55.8198   91.8490   21.4905 O   0  0  0  0  0  0  0  0  0  0  0  0
   52.3420   88.7200   18.4501 C   0  0  0  0  0  0  0  0  0  0  0  0
   51.4442   88.9252   17.6037 O   0  0  0  0  0  0  0  0  0  0  0  0
   52.8115   82.8382   22.8140 Br  0  0  0  0  0  0  0  0  0  0  0  0
   53.1059   83.4043   21.0191 C   0  0  0  0  0  0  0  0  0  0  0  0
   52.6310   84.5635   20.4766 C   0  0  0  0  0  0  0  0  0  0  0  0
   52.8583   84.9513   19.1744 C   0  0  0  0  0  0  0  0  0  0  0  0
   53.6241   84.0900   18.3826 C   0  0  0  0  0  0  0  0  0  0  0  0
   54.1250   82.9152   18.8723 C   0  0  0  0  0  0  0  0  0  0  0  0
   53.8625   82.5767   20.1945 C   0  0  0  0  0  0  0  0  0  0  0  0
   53.8709   84.4578   17.0743 O   0  0  0  0  0  0  0  0  0  0  0  0
   54.1033   83.4806   16.0942 C   0  0  0  0  0  0  0  0  0  0  0  0
   55.7812   88.8717   21.6065 C   0  0  0  0  0  0  0  0  0  0  0  0
   55.2914   87.9231   22.5205 N   0  0  0  0  0  0  0  0  0  0  0  0
   55.9606   86.6507   22.5223 C   0  0  0  0  0  0  0  0  0  0  0  0
   57.2342   86.6252   23.3307 C   0  0  0  0  0  0  0  0  0  0  0  0
   57.6000   87.8678   23.8296 O   0  0  0  0  0  0  0  0  0  0  0  0
   56.5435   88.2962   24.6259 C   0  0  0  0  0  0  0  0  0  0  0  0
   55.2468   88.4424   23.8996 C   0  0  0  0  0  0  0  0  0  0  0  0
   54.2858   87.7442   22.3204 H   0  0  0  0  0  0  0  0  0  0  0  0
 13 14  1  0  0  0
 14 15  2  0  0  0
 14 19  1  0  0  0
 15 16  1  0  0  0
 16 17  2  0  0  0
 16  1  1  0  0  0
 17 18  1  0  0  0
 17 20  1  0  0  0
 18 19  2  0  0  0
 20 21  1  0  0  0
  1  2  2  0  0  0
  2  3  1  0  0  0
  2 11  1  0  0  0
  3  4  1  0  0  0
  4  5  2  0  0  0
  4  9  1  0  0  0
  5  6  1  0  0  0
  5 11  1  0  0  0
  6  7  2  0  0  0
  7  8  1  0  0  0
  8  9  2  0  0  0
  8 10  1  0  0  0
  9 22  1  0  0  0
 22 23  1  0  0  0
 23 24  1  0  0  0
 23 28  1  0  0  0
 24 25  1  0  0  0
 25 26  1  0  0  0
 26 27  1  0  0  0
 27 28  1  0  0  0
 11 12  2  0  0  0
 23 29  1  0  0  0
M  CHG 1  10  -1
M  CHG 1  23   1
M  END
> <minimizedAffinity>
-8.54865

$$$$
107


 31 34  0  0  0  0  0  0  0  0999 V2000
   52.7359   86.4181   19.1916 C   0  0  0  0  0  0  0  0  0  0  0  0
   53.4994   86.4723   20.3043 N   0  0  0  0  0  0  0  0  0  0  0  0
   54.1883   87.5721   20.6301 C   0  0  0  0  0  0  0  0  0  0  0  0
   54.1085   88.6396   19.8206 N   0  0  0  0  0  0  0  0  0  0  0  0
   53.3595   88.6554   18.6857 C   0  0  0  0  0  0  0  0  0  0  0  0
   52.6867   87.5025   18.4175 N   0  0  0  0  0  0  0  0  0  0  0  0
   54.9924   87.6288   21.8001 N   0  0  0  0  0  0  0  0  0  0  0  0
   54.9119   86.6321   22.8449 C   0  0  0  0  0  0  0  0  0  0  0  0
   54.9536   87.2741   24.2233 C   0  0  0  0  0  0  0  0  0  0  0  0
   55.9579   88.2470   24.2809 O   0  0  0  0  0  0  0  0  0  0  0  0
   55.7367   89.2608   23.3798 C   0  0  0  0  0  0  0  0  0  0  0  0
   55.9360   88.7087   21.9849 C   0  0  0  0  0  0  0  0  0  0  0  0
   53.2802   89.7776   17.8414 N   0  0  0  0  0  0  0  0  0  0  0  0
   54.0739   89.8743   16.6528 C   0  0  0  0  0  0  0  0  0  0  0  0
   54.8160   91.2075   16.7193 C   0  0  0  0  0  0  0  0  0  0  0  0
   53.8593   92.1964   16.8691 O   0  0  0  0  0  0  0  0  0  0  0  0
   53.2152   92.1426   18.0827 C   0  0  0  0  0  0  0  0  0  0  0  0
   52.3930   90.8562   18.1646 C   0  0  0  0  0  0  0  0  0  0  0  0
   51.9908   85.2661   18.8158 N   0  0  0  0  0  0  0  0  0  0  0  0
   50.9395   85.2436   18.9128 H   0  0  0  0  0  0  0  0  0  0  0  0
   53.6501   84.1164   17.5888 C   0  0  0  0  0  0  0  0  0  0  0  0
   52.5897   84.1136   18.3048 N   0  0  0  0  0  0  0  0  0  0  0  0
   54.7114   81.0043   13.3869 Br  0  0  0  0  0  0  0  0  0  0  0  0
   54.7890   81.4383   15.2412 C   0  0  0  0  0  0  0  0  0  0  0  0
   54.2075   82.5886   15.7263 C   0  0  0  0  0  0  0  0  0  0  0  0
   54.2623   82.9015   17.0629 C   0  0  0  0  0  0  0  0  0  0  0  0
   54.9165   82.0304   17.9067 C   0  0  0  0  0  0  0  0  0  0  0  0
   55.5113   80.8605   17.4277 C   0  0  0  0  0  0  0  0  0  0  0  0
   55.4521   80.5502   16.0787 C   0  0  0  0  0  0  0  0  0  0  0  0
   54.9578   82.3714   19.2536 O   0  0  0  0  0  0  0  0  0  0  0  0
   54.3452   81.6162   20.2726 C   0  0  0  0  0  0  0  0  0  0  0  0
 23 24  1  0  0  0
 24 25  2  0  0  0
 24 29  1  0  0  0
 25 26  1  0  0  0
 26 27  2  0  0  0
 26 21  1  0  0  0
 27 28  1  0  0  0
 27 30  1  0  0  0
 28 29  2  0  0  0
 30 31  1  0  0  0
 21 22  2  0  0  0
 22 19  1  0  0  0
 19  1  1  0  0  0
  1  2  2  0  0  0
  1  6  1  0  0  0
  2  3  1  0  0  0
  3  4  2  0  0  0
  3  7  1  0  0  0
  4  5  1  0  0  0
  5  6  2  0  0  0
  5 13  1  0  0  0
 13 14  1  0  0  0
 13 18  1  0  0  0
 14 15  1  0  0  0
 15 16  1  0  0  0
 16 17  1  0  0  0
 17 18  1  0  0  0
  7  8  1  0  0  0
  7 12  1  0  0  0
  8  9  1  0  0  0
  9 10  1  0  0  0
 10 11  1  0  0  0
 11 12  1  0  0  0
 19 20  1  0  0  0
M  END
> <minimizedAffinity>
-8.68459

$$$$
111


 29 32  0  0  0  0  0  0  0  0999 V2000
   54.2297   84.8918   21.1492 C   0  0  0  0  0  0  0  0  0  0  0  0
   53.6593   84.8519   22.3338 N   0  0  0  0  0  0  0  0  0  0  0  0
   54.4031   85.5510   23.2486 C   0  0  0  0  0  0  0  0  0  0  0  0
   55.4777   86.0285   22.5804 N   0  0  0  0  0  0  0  0  0  0  0  0
   55.3911   85.6502   21.3507 N   0  0  0  0  0  0  0  0  0  0  0  0
   53.8111   85.4997   24.4439 N   0  0  0  0  0  0  0  0  0  0  0  0
   52.6951   84.7671   24.2983 C   0  0  0  0  0  0  0  0  0  0  0  0
   52.5786   84.3436   22.9792 C   0  0  0  0  0  0  0  0  0  0  0  0
   51.5843   83.5854   22.5585 N   0  0  0  0  0  0  0  0  0  0  0  0
   50.6444   83.2287   23.4892 C   0  0  0  0  0  0  0  0  0  0  0  0
   49.6545   82.5111   23.1971 O   0  0  0  0  0  0  0  0  0  0  0  0
   50.7226   83.6245   24.7772 N   0  0  0  0  0  0  0  0  0  0  0  0
   51.7246   84.3837   25.2042 C   0  0  0  0  0  0  0  0  0  0  0  0
   51.8536   84.7840   26.3890 O   0  0  0  0  0  0  0  0  0  0  0  0
   51.3737   83.0114   21.2640 C   0  0  0  0  0  0  0  0  0  0  0  0
   49.9988   83.3458   25.4725 H   0  0  0  0  0  0  0  0  0  0  0  0
   54.7090   81.0890   17.4115 Br  0  0  0  0  0  0  0  0  0  0  0  0
   54.1278   82.8135   17.9826 C   0  0  0  0  0  0  0  0  0  0  0  0
   54.3572   83.2134   19.2669 C   0  0  0  0  0  0  0  0  0  0  0  0
   54.0040   84.4081   19.8170 C   0  0  0  0  0  0  0  0  0  0  0  0
   53.3400   85.2592   18.9037 C   0  0  0  0  0  0  0  0  0  0  0  0
   53.0882   84.8989   17.6015 C   0  0  0  0  0  0  0  0  0  0  0  0
   53.4856   83.6587   17.1267 C   0  0  0  0  0  0  0  0  0  0  0  0
   52.9272   86.5071   19.3374 O   0  0  0  0  0  0  0  0  0  0  0  0
   51.6913   87.0771   19.0377 C   0  0  0  0  0  0  0  0  0  0  0  0
   54.2573   86.1020   25.6658 C   0  0  0  0  0  0  0  0  0  0  0  0
   54.7640   87.5008   25.3826 C   0  0  0  0  0  0  0  0  0  0  0  0
   56.1352   87.5058   25.5461 O   0  0  0  0  0  0  0  0  0  0  0  0
   56.7323   88.5906   24.8810 C   0  0  0  0  0  0  0  0  0  0  0  0
 17 18  1  0  0  0
 18 19  2  0  0  0
 18 23  1  0  0  0
 19 20  1  0  0  0
 20 21  2  0  0  0
 20  1  1  0  0  0
 21 22  1  0  0  0
 21 24  1  0  0  0
 22 23  2  0  0  0
 24 25  1  0  0  0
  1  2  1  0  0  0
  1  5  2  0  0  0
  2  3  1  0  0  0
  2  8  1  0  0  0
  3  4  2  0  0  0
  3  6  1  0  0  0
  4  5  1  0  0  0
  6  7  1  0  0  0
  6 26  1  0  0  0
  7  8  2  0  0  0
  7 13  1  0  0  0
  8  9  1  0  0  0
  9 10  1  0  0  0
  9 15  1  0  0  0
 10 11  2  0  0  0
 10 12  1  0  0  0
 12 13  1  0  0  0
 13 14  2  0  0  0
 26 27  1  0  0  0
 27 28  1  0  0  0
 28 29  1  0  0  0
 12 16  1  0  0  0
M  END
> <minimizedAffinity>
-7.74025

$$$$
127


 29 32  0  0  0  0  0  0  0  0999 V2000
   50.4725   98.8021   28.1325 N   0  0  0  0  0  0  0  0  0  0  0  0
   51.0211  100.0869   27.9039 C   0  0  0  0  0  0  0  0  0  0  0  0
   50.3014  101.2223   28.5242 C   0  0  0  0  0  0  0  0  0  0  0  0
   50.0894  101.0002   29.9186 N   0  0  0  0  0  0  0  0  0  0  0  0
   50.1259   99.6529   30.4105 C   0  0  0  0  0  0  0  0  0  0  0  0
   49.7962   98.6101   29.3677 C   0  0  0  0  0  0  0  0  0  0  0  0
   49.8183  102.0600   30.8239 C   0  0  0  0  0  0  0  0  0  0  0  0
   48.5507  102.4336   30.9869 C   0  0  0  0  0  0  0  0  0  0  0  0
   47.3053  102.0208   30.4529 N   0  0  0  0  0  0  0  0  0  0  0  0
   46.3442  102.8552   31.0679 N   0  0  0  0  0  0  0  0  0  0  0  0
   47.0038  103.7453   31.9475 C   0  0  0  0  0  0  0  0  0  0  0  0
   48.3120  103.5399   31.9398 C   0  0  0  0  0  0  0  0  0  0  0  0
   49.4083  104.1405   32.6207 N   0  0  0  0  0  0  0  0  0  0  0  0
   50.6164  103.7409   32.4274 C   0  0  0  0  0  0  0  0  0  0  0  0
   50.9041  102.6924   31.5328 N   0  0  0  0  0  0  0  0  0  0  0  0
   46.3706  104.7911   32.7944 C   0  0  0  0  0  0  0  0  0  0  0  0
   47.0737  100.9731   29.4884 C   0  0  0  0  0  0  0  0  0  0  0  0
   45.3281  102.7700   30.8564 H   0  0  0  0  0  0  0  0  0  0  0  0
   51.8572  102.3371   31.3442 H   0  0  0  0  0  0  0  0  0  0  0  0
   51.2046   97.7024   27.6386 C   0  0  0  0  0  0  0  0  0  0  0  0
   52.5829   97.6308   28.1269 C   0  0  0  0  0  0  0  0  0  0  0  0
   52.8462   98.0601   29.2796 O   0  0  0  0  0  0  0  0  0  0  0  0
   57.3905   98.1865   25.8692 Br  0  0  0  0  0  0  0  0  0  0  0  0
   55.7758   97.2368   26.2021 C   0  0  0  0  0  0  0  0  0  0  0  0
   54.7757   97.7465   27.0203 C   0  0  0  0  0  0  0  0  0  0  0  0
   53.6125   97.0638   27.2622 C   0  0  0  0  0  0  0  0  0  0  0  0
   53.4274   95.8331   26.6761 C   0  0  0  0  0  0  0  0  0  0  0  0
   54.4116   95.3241   25.8670 C   0  0  0  0  0  0  0  0  0  0  0  0
   55.5952   96.0048   25.6126 C   0  0  0  0  0  0  0  0  0  0  0  0
 23 24  1  0  0  0
 24 25  2  0  0  0
 24 29  1  0  0  0
 25 26  1  0  0  0
 26 27  2  0  0  0
 26 21  1  0  0  0
 27 28  1  0  0  0
 28 29  2  0  0  0
 21 22  2  0  0  0
 21 20  1  0  0  0
 20  1  1  0  0  0
  1  2  1  0  0  0
  1  6  1  0  0  0
  2  3  1  0  0  0
  3  4  1  0  0  0
  4  5  1  0  0  0
  4  7  1  0  0  0
  5  6  1  0  0  0
  7  8  2  0  0  0
  7 15  1  0  0  0
  8  9  1  0  0  0
  8 12  1  0  0  0
  9 10  1  0  0  0
  9 17  1  0  0  0
 10 11  1  0  0  0
 11 12  2  0  0  0
 11 16  1  0  0  0
 12 13  1  0  0  0
 13 14  2  0  0  0
 14 15  1  0  0  0
 10 18  1  0  0  0
 15 19  1  0  0  0
M  END
> <minimizedAffinity>
-8.64763

$$$$
129


 31 34  0  0  0  0  0  0  0  0999 V2000
   54.7414   85.8891   25.2017 C   0  0  0  0  0  0  0  0  0  0  0  0
   54.9266   86.4965   26.3024 O   0  0  0  0  0  0  0  0  0  0  0  0
   53.5528   85.1348   24.9831 N   0  0  0  0  0  0  0  0  0  0  0  0
   53.3672   84.2965   23.8261 C   0  0  0  0  0  0  0  0  0  0  0  0
   53.3129   82.8753   24.4361 C   0  0  0  0  0  0  0  0  0  0  0  0
   51.9637   82.7972   25.0986 C   0  0  0  0  0  0  0  0  0  0  0  0
   52.0081   81.6401   25.9910 N   0  0  0  0  0  0  0  0  0  0  0  0
   52.3361   80.4334   25.3287 C   0  0  0  0  0  0  0  0  0  0  0  0
   51.3004   80.0164   24.3004 C   0  0  0  0  0  0  0  0  0  0  0  0
   50.6775   81.1819   23.6456 C   0  0  0  0  0  0  0  0  0  0  0  0
   49.7768   81.2164   22.6494 N   0  0  0  0  0  0  0  0  0  0  0  0
   49.5040   82.5159   22.3987 C   0  0  0  0  0  0  0  0  0  0  0  0
   50.2449   83.2732   23.2471 N   0  0  0  0  0  0  0  0  0  0  0  0
   50.9880   82.4709   24.0339 C   0  0  0  0  0  0  0  0  0  0  0  0
   51.5774   83.9877   25.9033 C   0  0  0  0  0  0  0  0  0  0  0  0
   52.4897   85.1666   25.9225 C   0  0  0  0  0  0  0  0  0  0  0  0
   51.1394   81.5612   26.5791 H   0  0  0  0  0  0  0  0  0  0  0  0
   50.1619   84.3085   23.2005 H   0  0  0  0  0  0  0  0  0  0  0  0
   55.8013   85.9963   24.2097 C   0  0  0  0  0  0  0  0  0  0  0  0
   57.1520   86.0519   24.9054 C   0  0  0  0  0  0  0  0  0  0  0  0
   55.5573   86.7933   21.8598 C   0  0  0  0  0  0  0  0  0  0  0  0
   55.6517   85.7651   21.2124 O   0  0  0  0  0  0  0  0  0  0  0  0
   55.5900   87.0033   23.2351 N   0  0  0  0  0  0  0  0  0  0  0  0
   55.3945   87.9772   23.6173 H   0  0  0  0  0  0  0  0  0  0  0  0
   52.3193   89.6390   18.7437 Br  0  0  0  0  0  0  0  0  0  0  0  0
   54.0018   89.3709   19.6431 C   0  0  0  0  0  0  0  0  0  0  0  0
   54.1879   88.2474   20.4132 C   0  0  0  0  0  0  0  0  0  0  0  0
   55.3898   88.0657   21.0627 C   0  0  0  0  0  0  0  0  0  0  0  0
   56.3865   88.9808   20.9450 C   0  0  0  0  0  0  0  0  0  0  0  0
   56.1827   90.0905   20.1717 C   0  0  0  0  0  0  0  0  0  0  0  0
   54.9847   90.3275   19.4944 C   0  0  0  0  0  0  0  0  0  0  0  0
 25 26  1  0  0  0
 26 27  2  0  0  0
 26 31  1  0  0  0
 27 28  1  0  0  0
 28 29  2  0  0  0
 28 21  1  0  0  0
 29 30  1  0  0  0
 30 31  2  0  0  0
 21 22  2  0  0  0
 21 23  1  0  0  0
 23 19  1  0  0  0
 19 20  1  0  0  0
 19  1  1  0  0  0
  1  2  2  0  0  0
  1  3  1  0  0  0
  3  4  1  0  0  0
  3 16  1  0  0  0
  4  5  1  0  0  0
  5  6  1  0  0  0
  6  7  1  0  0  0
  6 14  1  0  0  0
  6 15  1  0  0  0
  7  8  1  0  0  0
  8  9  1  0  0  0
  9 10  1  0  0  0
 10 11  1  0  0  0
 10 14  2  0  0  0
 11 12  2  0  0  0
 12 13  1  0  0  0
 13 14  1  0  0  0
 15 16  1  0  0  0
 23 24  1  0  0  0
  7 17  1  0  0  0
 13 18  1  0  0  0
M  END
> <minimizedAffinity>
-8.72169

$$$$
130


 30 33  0  0  0  0  0  0  0  0999 V2000
   56.0282   89.2827   22.4299 C   0  0  0  0  0  0  0  0  0  0  0  0
   55.5610   89.6069   23.5782 O   0  0  0  0  0  0  0  0  0  0  0  0
   56.0426   90.1922   21.3639 N   0  0  0  0  0  0  0  0  0  0  0  0
   56.5510   89.8650   20.0702 C   0  0  0  0  0  0  0  0  0  0  0  0
   55.7762   90.5165   18.9600 C   0  0  0  0  0  0  0  0  0  0  0  0
   54.3706   90.9379   19.3283 C   0  0  0  0  0  0  0  0  0  0  0  0
   53.9599   91.7831   18.2153 N   0  0  0  0  0  0  0  0  0  0  0  0
   52.5977   92.1567   18.1866 C   0  0  0  0  0  0  0  0  0  0  0  0
   51.6425   91.3687   19.0056 C   0  0  0  0  0  0  0  0  0  0  0  0
   52.1144   89.9635   19.2080 C   0  0  0  0  0  0  0  0  0  0  0  0
   51.4582   88.8057   19.2713 N   0  0  0  0  0  0  0  0  0  0  0  0
   52.4001   87.8596   19.4689 C   0  0  0  0  0  0  0  0  0  0  0  0
   53.6260   88.4243   19.5285 N   0  0  0  0  0  0  0  0  0  0  0  0
   53.4633   89.7691   19.3645 C   0  0  0  0  0  0  0  0  0  0  0  0
   54.2813   91.6984   20.6264 C   0  0  0  0  0  0  0  0  0  0  0  0
   55.5104   91.5430   21.5032 C   0  0  0  0  0  0  0  0  0  0  0  0
   54.5969   92.6276   18.2908 H   0  0  0  0  0  0  0  0  0  0  0  0
   54.5165   87.9197   19.6733 H   0  0  0  0  0  0  0  0  0  0  0  0
   56.5445   87.8693   22.3415 C   0  0  0  0  0  0  0  0  0  0  0  0
   54.6697   86.0751   23.1184 C   0  0  0  0  0  0  0  0  0  0  0  0
   54.2513   85.8181   24.3020 O   0  0  0  0  0  0  0  0  0  0  0  0
   55.5853   86.9512   22.7389 N   0  0  0  0  0  0  0  0  0  0  0  0
   55.7905   87.3270   24.0545 H   0  0  0  0  0  0  0  0  0  0  0  0
   50.8063   82.6359   21.7973 Br  0  0  0  0  0  0  0  0  0  0  0  0
   52.3168   83.6807   21.3643 C   0  0  0  0  0  0  0  0  0  0  0  0
   52.9052   84.4690   22.3414 C   0  0  0  0  0  0  0  0  0  0  0  0
   53.9995   85.2423   22.0580 C   0  0  0  0  0  0  0  0  0  0  0  0
   54.5632   85.2797   20.8180 C   0  0  0  0  0  0  0  0  0  0  0  0
   53.9763   84.4868   19.8269 C   0  0  0  0  0  0  0  0  0  0  0  0
   52.8723   83.7044   20.1090 C   0  0  0  0  0  0  0  0  0  0  0  0
 24 25  1  0  0  0
 25 26  2  0  0  0
 25 30  1  0  0  0
 26 27  1  0  0  0
 27 28  2  0  0  0
 27 20  1  0  0  0
 28 29  1  0  0  0
 29 30  2  0  0  0
 20 21  2  0  0  0
 20 22  1  0  0  0
 22 19  1  0  0  0
 19  1  1  0  0  0
  1  2  2  0  0  0
  1  3  1  0  0  0
  3  4  1  0  0  0
  3 16  1  0  0  0
  4  5  1  0  0  0
  5  6  1  0  0  0
  6  7  1  0  0  0
  6 14  1  0  0  0
  6 15  1  0  0  0
  7  8  1  0  0  0
  8  9  1  0  0  0
  9 10  1  0  0  0
 10 11  1  0  0  0
 10 14  2  0  0  0
 11 12  2  0  0  0
 12 13  1  0  0  0
 13 14  1  0  0  0
 15 16  1  0  0  0
 22 23  1  0  0  0
  7 17  1  0  0  0
 13 18  1  0  0  0
M  END
> <minimizedAffinity>
-9.32726

$$$$
131


 30 33  0  0  0  0  0  0  0  0999 V2000
   53.2131   84.3105   20.3718 C   0  0  0  0  0  0  0  0  0  0  0  0
   54.3662   84.7765   20.5444 O   0  0  0  0  0  0  0  0  0  0  0  0
   52.6437   83.4995   21.3658 N   0  0  0  0  0  0  0  0  0  0  0  0
   51.3258   82.9286   21.2389 C   0  0  0  0  0  0  0  0  0  0  0  0
   50.4757   83.5406   22.3310 C   0  0  0  0  0  0  0  0  0  0  0  0
   51.1831   83.4120   23.6590 C   0  0  0  0  0  0  0  0  0  0  0  0
   51.4547   84.7456   24.1520 N   0  0  0  0  0  0  0  0  0  0  0  0
   52.0091   84.7995   25.4595 C   0  0  0  0  0  0  0  0  0  0  0  0
   51.4762   83.8418   26.4611 C   0  0  0  0  0  0  0  0  0  0  0  0
   50.3507   83.0115   25.9835 C   0  0  0  0  0  0  0  0  0  0  0  0
   49.3447   82.3545   26.6383 N   0  0  0  0  0  0  0  0  0  0  0  0
   48.6044   81.7539   25.6987 C   0  0  0  0  0  0  0  0  0  0  0  0
   49.1231   82.0219   24.4892 N   0  0  0  0  0  0  0  0  0  0  0  0
   50.2201   82.8080   24.6282 C   0  0  0  0  0  0  0  0  0  0  0  0
   52.4368   82.5994   23.6151 C   0  0  0  0  0  0  0  0  0  0  0  0
   53.3777   83.2068   22.5699 C   0  0  0  0  0  0  0  0  0  0  0  0
   52.1319   85.2092   23.4908 H   0  0  0  0  0  0  0  0  0  0  0  0
   49.2196   82.3518   27.6926 H   0  0  0  0  0  0  0  0  0  0  0  0
   52.5270   84.6627   19.1005 C   0  0  0  0  0  0  0  0  0  0  0  0
   52.2099   87.1297   18.8333 C   0  0  0  0  0  0  0  0  0  0  0  0
   51.1465   87.0218   19.4962 O   0  0  0  0  0  0  0  0  0  0  0  0
   52.9559   85.9518   18.6019 N   0  0  0  0  0  0  0  0  0  0  0  0
   53.8379   86.0158   18.0566 H   0  0  0  0  0  0  0  0  0  0  0  0
   51.0907   92.2917   18.1422 Br  0  0  0  0  0  0  0  0  0  0  0  0
   52.2410   90.7976   17.9653 C   0  0  0  0  0  0  0  0  0  0  0  0
   51.8263   89.5665   18.4404 C   0  0  0  0  0  0  0  0  0  0  0  0
   52.6186   88.4380   18.3426 C   0  0  0  0  0  0  0  0  0  0  0  0
   53.8633   88.5702   17.7438 C   0  0  0  0  0  0  0  0  0  0  0  0
   54.2692   89.7968   17.2739 C   0  0  0  0  0  0  0  0  0  0  0  0
   53.4932   90.9310   17.3634 C   0  0  0  0  0  0  0  0  0  0  0  0
 24 25  1  0  0  0
 25 26  2  0  0  0
 25 30  1  0  0  0
 26 27  1  0  0  0
 27 28  2  0  0  0
 27 20  1  0  0  0
 28 29  1  0  0  0
 29 30  2  0  0  0
 20 21  2  0  0  0
 20 22  1  0  0  0
 22 19  1  0  0  0
 19  1  1  0  0  0
  1  2  2  0  0  0
  1  3  1  0  0  0
  3  4  1  0  0  0
  3 16  1  0  0  0
  4  5  1  0  0  0
  5  6  1  0  0  0
  6  7  1  0  0  0
  6 14  1  0  0  0
  6 15  1  0  0  0
  7  8  1  0  0  0
  8  9  1  0  0  0
  9 10  1  0  0  0
 10 11  1  0  0  0
 10 14  2  0  0  0
 11 12  1  0  0  0
 12 13  2  0  0  0
 13 14  1  0  0  0
 15 16  1  0  0  0
 22 23  1  0  0  0
  7 17  1  0  0  0
 11 18  1  0  0  0
M  END
> <minimizedAffinity>
-8.48709

$$$$
136


 30 33  0  0  0  0  0  0  0  0999 V2000
   51.1272   98.1835   28.4091 C   0  0  0  0  0  0  0  0  0  0  0  0
   49.6180   98.0375   28.3784 C   0  0  0  0  0  0  0  0  0  0  0  0
   49.1571   99.3793   28.6775 N   0  0  0  0  0  0  0  0  0  0  0  0
   50.2591  100.3197   28.6741 C   0  0  0  0  0  0  0  0  0  0  0  0
   51.3105   99.5655   27.8490 C   0  0  0  0  0  0  0  0  0  0  0  0
   49.8238  101.5456   28.0071 C   0  0  0  0  0  0  0  0  0  0  0  0
   50.4659  102.0355   27.0666 O   0  0  0  0  0  0  0  0  0  0  0  0
   48.6353  102.1662   28.4706 N   0  0  0  0  0  0  0  0  0  0  0  0
   47.6159  101.3641   29.1084 C   0  0  0  0  0  0  0  0  0  0  0  0
   47.8553   99.9105   28.9644 C   0  0  0  0  0  0  0  0  0  0  0  0
   46.8966   99.1046   29.0944 O   0  0  0  0  0  0  0  0  0  0  0  0
   48.4599  103.1913   28.3690 H   0  0  0  0  0  0  0  0  0  0  0  0
   53.1681   97.2744   27.4138 C   0  0  0  0  0  0  0  0  0  0  0  0
   53.8022   98.2611   27.9409 O   0  0  0  0  0  0  0  0  0  0  0  0
   51.7767   97.1611   27.6086 N   0  0  0  0  0  0  0  0  0  0  0  0
   51.2626   96.3767   27.1850 H   0  0  0  0  0  0  0  0  0  0  0  0
   57.6518   96.1612   24.7843 Br  0  0  0  0  0  0  0  0  0  0  0  0
   55.9056   95.7165   25.4281 C   0  0  0  0  0  0  0  0  0  0  0  0
   55.1907   96.6233   26.1603 C   0  0  0  0  0  0  0  0  0  0  0  0
   53.9218   96.3092   26.6316 C   0  0  0  0  0  0  0  0  0  0  0  0
   53.4188   95.0788   26.3447 C   0  0  0  0  0  0  0  0  0  0  0  0
   54.1517   94.1665   25.6020 C   0  0  0  0  0  0  0  0  0  0  0  0
   55.4049   94.4799   25.1364 C   0  0  0  0  0  0  0  0  0  0  0  0
   47.3818  101.7618   30.5502 C   0  0  0  0  0  0  0  0  0  0  0  0
   48.3841  102.7113   31.0612 C   0  0  0  0  0  0  0  0  0  0  0  0
   49.5384  102.2378   31.6583 C   0  0  0  0  0  0  0  0  0  0  0  0
   50.4799  103.1187   32.1384 C   0  0  0  0  0  0  0  0  0  0  0  0
   50.3297  104.4900   32.0541 C   0  0  0  0  0  0  0  0  0  0  0  0
   49.1803  104.9651   31.4596 C   0  0  0  0  0  0  0  0  0  0  0  0
   48.2241  104.0955   30.9718 C   0  0  0  0  0  0  0  0  0  0  0  0
 17 18  1  0  0  0
 18 19  2  0  0  0
 18 23  1  0  0  0
 19 20  1  0  0  0
 20 21  2  0  0  0
 20 13  1  0  0  0
 21 22  1  0  0  0
 22 23  2  0  0  0
 13 14  2  0  0  0
 13 15  1  0  0  0
 15  1  1  0  0  0
  1  2  1  0  0  0
  1  5  1  0  0  0
  2  3  1  0  0  0
  3  4  1  0  0  0
  3 10  1  0  0  0
  4  5  1  0  0  0
  4  6  1  0  0  0
  6  7  2  0  0  0
  6  8  1  0  0  0
  8  9  1  0  0  0
  9 10  1  0  0  0
  9 24  1  0  0  0
 10 11  2  0  0  0
 24 25  1  0  0  0
 25 26  2  0  0  0
 25 30  1  0  0  0
 26 27  1  0  0  0
 27 28  2  0  0  0
 28 29  1  0  0  0
 29 30  2  0  0  0
 15 16  1  0  0  0
  8 12  1  0  0  0
M  END
> <minimizedAffinity>
-11.07012

$$$$
137


 25 28  0  0  0  0  0  0  0  0999 V2000
   51.7143   97.5702   28.1305 C   0  0  0  0  0  0  0  0  0  0  0  0
   50.1988   97.2709   27.8326 C   0  0  0  0  0  0  0  0  0  0  0  0
   49.5191   98.3751   28.4195 N   0  0  0  0  0  0  0  0  0  0  0  0
   50.4518   99.4818   28.5753 C   0  0  0  0  0  0  0  0  0  0  0  0
   51.6342   99.0897   27.7882 C   0  0  0  0  0  0  0  0  0  0  0  0
   49.7965  100.7526   28.2271 C   0  0  0  0  0  0  0  0  0  0  0  0
   50.4298  101.6123   27.5896 O   0  0  0  0  0  0  0  0  0  0  0  0
   48.4594  100.9958   28.6138 N   0  0  0  0  0  0  0  0  0  0  0  0
   47.5282   99.8928   28.7008 C   0  0  0  0  0  0  0  0  0  0  0  0
   46.5751  100.2523   29.8226 C   0  0  0  0  0  0  0  0  0  0  0  0
   46.9690  101.6269   30.2362 C   0  0  0  0  0  0  0  0  0  0  0  0
   47.6867  102.1742   28.9932 C   0  0  0  0  0  0  0  0  0  0  0  0
   48.1833   98.5984   28.8563 C   0  0  0  0  0  0  0  0  0  0  0  0
   47.5531   97.6249   29.3996 O   0  0  0  0  0  0  0  0  0  0  0  0
   53.4028   96.0439   26.6764 C   0  0  0  0  0  0  0  0  0  0  0  0
   53.2325   94.8861   26.1839 O   0  0  0  0  0  0  0  0  0  0  0  0
   52.5465   96.8223   27.4151 N   0  0  0  0  0  0  0  0  0  0  0  0
   51.5996   95.8256   27.3298 H   0  0  0  0  0  0  0  0  0  0  0  0
   58.0027   95.4540   23.9395 Br  0  0  0  0  0  0  0  0  0  0  0  0
   56.8682   96.3590   25.1665 C   0  0  0  0  0  0  0  0  0  0  0  0
   55.6113   95.9048   25.4823 C   0  0  0  0  0  0  0  0  0  0  0  0
   54.7838   96.5709   26.3532 C   0  0  0  0  0  0  0  0  0  0  0  0
   55.2229   97.7333   26.9330 C   0  0  0  0  0  0  0  0  0  0  0  0
   56.4877   98.2288   26.6412 C   0  0  0  0  0  0  0  0  0  0  0  0
   57.2863   97.5412   25.7710 C   0  0  0  0  0  0  0  0  0  0  0  0
 19 20  1  0  0  0
 20 21  2  0  0  0
 20 25  1  0  0  0
 21 22  1  0  0  0
 22 23  2  0  0  0
 22 15  1  0  0  0
 23 24  1  0  0  0
 24 25  2  0  0  0
 15 16  2  0  0  0
 15 17  1  0  0  0
 17  1  1  0  0  0
  1  2  1  0  0  0
  1  5  1  0  0  0
  2  3  1  0  0  0
  3  4  1  0  0  0
  3 13  1  0  0  0
  4  5  1  0  0  0
  4  6  1  0  0  0
  6  7  2  0  0  0
  6  8  1  0  0  0
  8  9  1  0  0  0
  8 12  1  0  0  0
  9 10  1  0  0  0
  9 13  1  0  0  0
 10 11  1  0  0  0
 11 12  1  0  0  0
 13 14  2  0  0  0
 17 18  1  0  0  0
M  END
> <minimizedAffinity>
-10.16978

$$$$
138


 25 28  0  0  0  0  0  0  0  0999 V2000
   50.2043  100.0942   28.5150 C   0  0  0  0  0  0  0  0  0  0  0  0
   50.5491  100.8190   29.7732 C   0  0  0  0  0  0  0  0  0  0  0  0
   49.3383  101.6168   30.0339 N   0  0  0  0  0  0  0  0  0  0  0  0
   48.2573  101.1363   29.1857 C   0  0  0  0  0  0  0  0  0  0  0  0
   48.7225   99.7759   28.7652 C   0  0  0  0  0  0  0  0  0  0  0  0
   47.0302  101.1365   29.9772 C   0  0  0  0  0  0  0  0  0  0  0  0
   46.1724  100.2584   29.8269 O   0  0  0  0  0  0  0  0  0  0  0  0
   46.8129  102.1712   30.9467 N   0  0  0  0  0  0  0  0  0  0  0  0
   47.7163  103.2946   30.8897 C   0  0  0  0  0  0  0  0  0  0  0  0
   47.4461  104.2289   31.9962 C   0  0  0  0  0  0  0  0  0  0  0  0
   46.0595  103.8102   32.4435 C   0  0  0  0  0  0  0  0  0  0  0  0
   45.8851  102.3935   32.0126 C   0  0  0  0  0  0  0  0  0  0  0  0
   49.0975  102.7006   30.9266 C   0  0  0  0  0  0  0  0  0  0  0  0
   49.9819  103.1355   31.6979 O   0  0  0  0  0  0  0  0  0  0  0  0
   52.1226   99.0170   27.4306 C   0  0  0  0  0  0  0  0  0  0  0  0
   52.4571  100.1468   26.9286 O   0  0  0  0  0  0  0  0  0  0  0  0
   50.9758   98.9369   28.2504 N   0  0  0  0  0  0  0  0  0  0  0  0
   50.7086   98.0215   28.6553 H   0  0  0  0  0  0  0  0  0  0  0  0
   56.9353   97.2818   25.8577 Br  0  0  0  0  0  0  0  0  0  0  0  0
   55.1274   97.0202   26.3837 C   0  0  0  0  0  0  0  0  0  0  0  0
   54.2979   98.0628   26.7081 C   0  0  0  0  0  0  0  0  0  0  0  0
   52.9898   97.9024   27.0905 C   0  0  0  0  0  0  0  0  0  0  0  0
   52.5113   96.6152   27.1429 C   0  0  0  0  0  0  0  0  0  0  0  0
   53.3263   95.5200   26.8195 C   0  0  0  0  0  0  0  0  0  0  0  0
   54.6415   95.7320   26.4378 C   0  0  0  0  0  0  0  0  0  0  0  0
 19 20  1  0  0  0
 20 21  2  0  0  0
 20 25  1  0  0  0
 21 22  1  0  0  0
 22 23  2  0  0  0
 22 15  1  0  0  0
 23 24  1  0  0  0
 24 25  2  0  0  0
 15 16  2  0  0  0
 15 17  1  0  0  0
 17  1  1  0  0  0
  1  2  1  0  0  0
  1  5  1  0  0  0
  2  3  1  0  0  0
  3  4  1  0  0  0
  3 13  1  0  0  0
  4  5  1  0  0  0
  4  6  1  0  0  0
  6  7  2  0  0  0
  6  8  1  0  0  0
  8  9  1  0  0  0
  8 12  1  0  0  0
  9 10  1  0  0  0
  9 13  1  0  0  0
 10 11  1  0  0  0
 11 12  1  0  0  0
 13 14  2  0  0  0
 17 18  1  0  0  0
M  END
> <minimizedAffinity>
-8.82537

$$$$
141


 23 26  0  0  0  0  0  0  0  0999 V2000
   50.9629   98.5989   28.0147 N   0  0  0  0  0  0  0  0  0  0  0  0
   49.6417   98.1855   28.4133 C   0  0  0  0  0  0  0  0  0  0  0  0
   49.0471   97.0958   28.1379 O   0  0  0  0  0  0  0  0  0  0  0  0
   49.0550   99.2424   29.2147 C   0  0  0  0  0  0  0  0  0  0  0  0
   50.2272  100.1200   29.6962 C   0  0  0  0  0  0  0  0  0  0  0  0
   49.7414  101.5303   29.6131 C   0  0  0  0  0  0  0  0  0  0  0  0
   48.2126  101.3378   29.5588 C   0  0  0  0  0  0  0  0  0  0  0  0
   48.3006  100.2988   28.4202 C   0  0  0  0  0  0  0  0  0  0  0  0
   49.2255  101.0309   27.5082 C   0  0  0  0  0  0  0  0  0  0  0  0
   49.9150  101.9634   28.1788 C   0  0  0  0  0  0  0  0  0  0  0  0
   51.1863   99.8746   28.5484 C   0  0  0  0  0  0  0  0  0  0  0  0
   52.0366  100.7063   28.1590 O   0  0  0  0  0  0  0  0  0  0  0  0
   52.9864   97.1775   27.6270 C   0  0  0  0  0  0  0  0  0  0  0  0
   53.4409   97.3634   28.7693 O   0  0  0  0  0  0  0  0  0  0  0  0
   51.7757   97.7653   27.2215 N   0  0  0  0  0  0  0  0  0  0  0  0
   51.4758   97.5422   26.2197 H   0  0  0  0  0  0  0  0  0  0  0  0
   57.4952   96.6309   24.9623 Br  0  0  0  0  0  0  0  0  0  0  0  0
   55.7797   95.9893   25.4815 C   0  0  0  0  0  0  0  0  0  0  0  0
   55.0166   96.7578   26.3252 C   0  0  0  0  0  0  0  0  0  0  0  0
   53.7534   96.3347   26.7312 C   0  0  0  0  0  0  0  0  0  0  0  0
   53.2971   95.1393   26.2695 C   0  0  0  0  0  0  0  0  0  0  0  0
   54.0673   94.3725   25.4233 C   0  0  0  0  0  0  0  0  0  0  0  0
   55.3157   94.7676   25.0089 C   0  0  0  0  0  0  0  0  0  0  0  0
 17 18  1  0  0  0
 18 19  2  0  0  0
 18 23  1  0  0  0
 19 20  1  0  0  0
 20 21  2  0  0  0
 20 13  1  0  0  0
 21 22  1  0  0  0
 22 23  2  0  0  0
 13 14  2  0  0  0
 13 15  1  0  0  0
 15  1  1  0  0  0
  1  2  1  0  0  0
  1 11  1  0  0  0
  2  3  2  0  0  0
  2  4  1  0  0  0
  4  5  1  0  0  0
  4  8  1  0  0  0
  5  6  1  0  0  0
  5 11  1  0  0  0
  6  7  1  0  0  0
  6 10  1  0  0  0
  7  8  1  0  0  0
  8  9  1  0  0  0
  9 10  2  0  0  0
 11 12  2  0  0  0
 15 16  1  0  0  0
M  END
> <minimizedAffinity>
-9.61515

$$$$
152


 27 30  0  0  0  0  0  0  0  0999 V2000
   52.3099   86.1588   18.4021 C   0  0  0  0  0  0  0  0  0  0  0  0
   52.7508   87.3502   18.8215 C   0  0  0  0  0  0  0  0  0  0  0  0
   53.7577   87.5662   19.6672 O   0  0  0  0  0  0  0  0  0  0  0  0
   53.9481   88.9600   19.8450 C   0  0  0  0  0  0  0  0  0  0  0  0
   53.0604   89.6677   19.1073 C   0  0  0  0  0  0  0  0  0  0  0  0
   53.1641   91.0566   19.1128 C   0  0  0  0  0  0  0  0  0  0  0  0
   54.1173   91.6754   19.8594 C   0  0  0  0  0  0  0  0  0  0  0  0
   54.9878   90.9265   20.6258 C   0  0  0  0  0  0  0  0  0  0  0  0
   54.9484   89.5533   20.6636 C   0  0  0  0  0  0  0  0  0  0  0  0
   55.9426   91.6078   21.3845 O   0  0  0  0  0  0  0  0  0  0  0  0
   52.2268   88.6596   18.4106 C   0  0  0  0  0  0  0  0  0  0  0  0
   51.2749   88.8822   17.6401 O   0  0  0  0  0  0  0  0  0  0  0  0
   55.6800   82.2751   17.0969 Br  0  0  0  0  0  0  0  0  0  0  0  0
   54.3498   82.9842   18.2673 C   0  0  0  0  0  0  0  0  0  0  0  0
   53.9538   84.3147   18.0758 C   0  0  0  0  0  0  0  0  0  0  0  0
   52.9694   84.9125   18.8772 C   0  0  0  0  0  0  0  0  0  0  0  0
   52.4195   84.1424   19.8616 C   0  0  0  0  0  0  0  0  0  0  0  0
   52.7999   82.7998   20.0754 C   0  0  0  0  0  0  0  0  0  0  0  0
   53.7967   82.2328   19.2386 C   0  0  0  0  0  0  0  0  0  0  0  0
   55.4328   88.6729   21.7074 C   0  0  0  0  0  0  0  0  0  0  0  0
   56.2057   88.6618   22.8113 N   0  0  0  0  0  0  0  0  0  0  0  0
   55.8416   89.0420   24.1053 C   0  0  0  0  0  0  0  0  0  0  0  0
   55.4012   87.8652   25.0035 C   0  0  0  0  0  0  0  0  0  0  0  0
   56.4147   86.9780   25.2769 O   0  0  0  0  0  0  0  0  0  0  0  0
   57.2034   86.8016   24.1344 C   0  0  0  0  0  0  0  0  0  0  0  0
   56.5239   87.1428   22.9147 C   0  0  0  0  0  0  0  0  0  0  0  0
   57.1789   89.0900   22.5764 H   0  0  0  0  0  0  0  0  0  0  0  0
 13 14  1  0  0  0
 14 15  2  0  0  0
 14 19  1  0  0  0
 15 16  1  0  0  0
 16 17  2  0  0  0
 16  1  1  0  0  0
 17 18  1  0  0  0
 18 19  2  0  0  0
  1  2  2  0  0  0
  2  3  1  0  0  0
  2 11  1  0  0  0
  3  4  1  0  0  0
  4  5  2  0  0  0
  4  9  1  0  0  0
  5  6  1  0  0  0
  5 11  1  0  0  0
  6  7  2  0  0  0
  7  8  1  0  0  0
  8  9  2  0  0  0
  8 10  1  0  0  0
  9 20  1  0  0  0
 20 21  1  0  0  0
 21 22  1  0  0  0
 21 26  1  0  0  0
 22 23  1  0  0  0
 23 24  1  0  0  0
 24 25  1  0  0  0
 25 26  1  0  0  0
 11 12  2  0  0  0
 21 27  1  0  0  0
M  CHG 1  10  -1
M  CHG 1  21   1
M  END
> <minimizedAffinity>
-8.81930

$$$$
153


 34 37  0  0  0  0  0  0  0  0999 V2000
   53.6387   84.9239   26.8404 C   0  0  0  0  0  0  0  0  0  0  0  0
   53.7494   84.9554   28.1243 N   0  0  0  0  0  0  0  0  0  0  0  0
   52.5686   84.7199   28.6878 N   0  0  0  0  0  0  0  0  0  0  0  0
   51.6475   84.5366   27.7056 N   0  0  0  0  0  0  0  0  0  0  0  0
   52.2477   84.6215   26.5647 C   0  0  0  0  0  0  0  0  0  0  0  0
   50.2534   84.7396   28.0708 C   0  0  0  0  0  0  0  0  0  0  0  0
   49.3689   83.7260   27.5478 N   0  0  0  0  0  0  0  0  0  0  0  0
   48.1873   83.9465   27.8819 O   0  0  0  0  0  0  0  0  0  0  0  0
   48.1412   85.0312   28.5930 N   0  0  0  0  0  0  0  0  0  0  0  0
   49.4442   85.5151   28.7046 C   0  0  0  0  0  0  0  0  0  0  0  0
   49.6816   86.6938   29.4403 N   0  0  0  0  0  0  0  0  0  0  0  0
   49.3107   86.6332   30.4528 H   0  0  0  0  0  0  0  0  0  0  0  0
   50.1219   87.5610   29.2013 H   0  0  0  0  0  0  0  0  0  0  0  0
   54.3521   86.4994   25.1247 N   0  0  0  0  0  0  0  0  0  0  0  0
   54.6118   85.3061   25.7343 C   0  0  0  0  0  0  0  0  0  0  0  0
   55.5479   84.5084   25.5082 O   0  0  0  0  0  0  0  0  0  0  0  0
   53.4360   86.9555   25.7952 H   0  0  0  0  0  0  0  0  0  0  0  0
   55.4153   87.4805   23.2679 C   0  0  0  0  0  0  0  0  0  0  0  0
   54.5647   87.4626   24.2555 N   0  0  0  0  0  0  0  0  0  0  0  0
   55.0666   92.7910   22.1675 Br  0  0  0  0  0  0  0  0  0  0  0  0
   55.5195   90.9659   21.7919 C   0  0  0  0  0  0  0  0  0  0  0  0
   55.1918   89.9356   22.6722 C   0  0  0  0  0  0  0  0  0  0  0  0
   55.5708   88.6418   22.3708 C   0  0  0  0  0  0  0  0  0  0  0  0
   56.2593   88.4244   21.1908 C   0  0  0  0  0  0  0  0  0  0  0  0
   56.5561   89.4626   20.3569 C   0  0  0  0  0  0  0  0  0  0  0  0
   56.2187   90.7669   20.6067 C   0  0  0  0  0  0  0  0  0  0  0  0
   51.8639   84.4641   25.1656 C   0  0  0  0  0  0  0  0  0  0  0  0
   52.2932   83.4094   24.3663 N   0  0  0  0  0  0  0  0  0  0  0  0
   52.3112   82.0702   24.4585 C   0  0  0  0  0  0  0  0  0  0  0  0
   51.2634   81.4961   23.4662 C   0  0  0  0  0  0  0  0  0  0  0  0
   50.2866   82.5038   23.2550 N   0  0  0  0  0  0  0  0  0  0  0  0
   50.8206   83.5840   22.4815 C   0  0  0  0  0  0  0  0  0  0  0  0
   52.2734   83.7987   22.9246 C   0  0  0  0  0  0  0  0  0  0  0  0
   48.9575   82.1410   22.9973 C   0  0  0  0  0  0  0  0  0  0  0  0
 20 21  1  0  0  0
 21 22  2  0  0  0
 21 26  1  0  0  0
 22 23  1  0  0  0
 23 24  2  0  0  0
 23 18  1  0  0  0
 24 25  1  0  0  0
 25 26  2  0  0  0
 18 19  2  0  0  0
 19 14  1  0  0  0
 14 15  1  0  0  0
 15 16  2  0  0  0
 15  1  1  0  0  0
  1  2  1  0  0  0
  1  5  2  0  0  0
  2  3  2  0  0  0
  3  4  1  0  0  0
  4  5  1  0  0  0
  4  6  1  0  0  0
  5 27  1  0  0  0
 27 28  1  0  0  0
 28 29  1  0  0  0
 28 33  1  0  0  0
 29 30  1  0  0  0
 30 31  1  0  0  0
 31 32  1  0  0  0
 31 34  1  0  0  0
 32 33  1  0  0  0
  6  7  2  0  0  0
  6 10  1  0  0  0
  7  8  1  0  0  0
  8  9  1  0  0  0
  9 10  2  0  0  0
 10 11  1  0  0  0
 14 17  1  0  0  0
 11 12  1  0  0  0
 11 13  1  0  0  0
M  END
> <minimizedAffinity>
-9.32892

$$$$
156


 29 32  0  0  0  0  0  0  0  0999 V2000
   55.2220   90.8446   21.7873 C   0  0  0  0  0  0  0  0  0  0  0  0
   55.6480   90.1074   22.8180 N   0  0  0  0  0  0  0  0  0  0  0  0
   55.4953   88.7550   22.8775 C   0  0  0  0  0  0  0  0  0  0  0  0
   54.8779   88.1911   21.8170 N   0  0  0  0  0  0  0  0  0  0  0  0
   54.4280   88.8776   20.7528 C   0  0  0  0  0  0  0  0  0  0  0  0
   54.6222   90.2193   20.7763 N   0  0  0  0  0  0  0  0  0  0  0  0
   53.7884   88.2661   19.6617 N   0  0  0  0  0  0  0  0  0  0  0  0
   53.2959   86.9162   19.7229 C   0  0  0  0  0  0  0  0  0  0  0  0
   51.9800   86.9144   18.9332 C   0  0  0  0  0  0  0  0  0  0  0  0
   51.4035   88.1821   18.9521 O   0  0  0  0  0  0  0  0  0  0  0  0
   52.0935   89.1239   18.2318 C   0  0  0  0  0  0  0  0  0  0  0  0
   53.6091   88.9902   18.4356 C   0  0  0  0  0  0  0  0  0  0  0  0
   55.9534   87.9976   23.9774 N   0  0  0  0  0  0  0  0  0  0  0  0
   55.0345   87.5151   24.9706 C   0  0  0  0  0  0  0  0  0  0  0  0
   55.2536   86.0104   25.0824 C   0  0  0  0  0  0  0  0  0  0  0  0
   56.5807   85.8374   25.4671 O   0  0  0  0  0  0  0  0  0  0  0  0
   57.4687   86.2057   24.4727 C   0  0  0  0  0  0  0  0  0  0  0  0
   57.3480   87.6884   24.1356 C   0  0  0  0  0  0  0  0  0  0  0  0
   55.4148   92.2542   21.7895 N   0  0  0  0  0  0  0  0  0  0  0  0
   55.9490   92.7145   21.0237 H   0  0  0  0  0  0  0  0  0  0  0  0
   55.6055   93.7201   23.6411 C   0  0  0  0  0  0  0  0  0  0  0  0
   54.9008   93.0590   22.8099 N   0  0  0  0  0  0  0  0  0  0  0  0
   56.2529   97.8630   26.9684 Br  0  0  0  0  0  0  0  0  0  0  0  0
   55.2346   96.4102   26.2469 C   0  0  0  0  0  0  0  0  0  0  0  0
   55.7389   95.6103   25.2503 C   0  0  0  0  0  0  0  0  0  0  0  0
   55.0413   94.5505   24.6973 C   0  0  0  0  0  0  0  0  0  0  0  0
   53.7796   94.3170   25.2001 C   0  0  0  0  0  0  0  0  0  0  0  0
   53.2331   95.1051   26.2101 C   0  0  0  0  0  0  0  0  0  0  0  0
   53.9679   96.1508   26.7280 C   0  0  0  0  0  0  0  0  0  0  0  0
 23 24  1  0  0  0
 24 25  2  0  0  0
 24 29  1  0  0  0
 25 26  1  0  0  0
 26 27  2  0  0  0
 26 21  1  0  0  0
 27 28  1  0  0  0
 28 29  2  0  0  0
 21 22  2  0  0  0
 22 19  1  0  0  0
 19  1  1  0  0  0
  1  2  2  0  0  0
  1  6  1  0  0  0
  2  3  1  0  0  0
  3  4  2  0  0  0
  3 13  1  0  0  0
  4  5  1  0  0  0
  5  6  2  0  0  0
  5  7  1  0  0  0
  7  8  1  0  0  0
  7 12  1  0  0  0
  8  9  1  0  0  0
  9 10  1  0  0  0
 10 11  1  0  0  0
 11 12  1  0  0  0
 13 14  1  0  0  0
 13 18  1  0  0  0
 14 15  1  0  0  0
 15 16  1  0  0  0
 16 17  1  0  0  0
 17 18  1  0  0  0
 19 20  1  0  0  0
M  END
> <minimizedAffinity>
-9.36443

$$$$
167


 35 38  0  0  0  0  0  0  0  0999 V2000
   52.1714   83.3104   27.4631 C   0  0  0  0  0  0  0  0  0  0  0  0
   53.0181   82.3392   28.0481 N   0  0  0  0  0  0  0  0  0  0  0  0
   54.0269   81.9654   27.1242 C   0  0  0  0  0  0  0  0  0  0  0  0
   54.8843   81.0474   27.3139 O   0  0  0  0  0  0  0  0  0  0  0  0
   53.9115   82.8056   25.9520 C   0  0  0  0  0  0  0  0  0  0  0  0
   54.6899   82.6807   24.9681 O   0  0  0  0  0  0  0  0  0  0  0  0
   52.7996   83.7093   26.1765 C   0  0  0  0  0  0  0  0  0  0  0  0
   52.4240   84.6516   25.3417 C   0  0  0  0  0  0  0  0  0  0  0  0
   51.3095   85.4026   25.6366 O   0  0  0  0  0  0  0  0  0  0  0  0
   47.3638   82.8250   29.6969 Br  0  0  0  0  0  0  0  0  0  0  0  0
   48.5960   82.5497   28.2650 C   0  0  0  0  0  0  0  0  0  0  0  0
   49.8935   82.9611   28.2907 C   0  0  0  0  0  0  0  0  0  0  0  0
   50.8166   82.7817   27.2747 C   0  0  0  0  0  0  0  0  0  0  0  0
   50.3808   82.1233   26.1279 C   0  0  0  0  0  0  0  0  0  0  0  0
   49.0699   81.6910   26.0684 C   0  0  0  0  0  0  0  0  0  0  0  0
   48.1708   81.8868   27.1022 C   0  0  0  0  0  0  0  0  0  0  0  0
   53.1610   84.9159   24.1312 C   0  0  0  0  0  0  0  0  0  0  0  0
   52.7738   84.4563   22.8600 C   0  0  0  0  0  0  0  0  0  0  0  0
   53.6465   84.9027   21.9483 N   0  0  0  0  0  0  0  0  0  0  0  0
   54.5516   85.6139   22.5948 N   0  0  0  0  0  0  0  0  0  0  0  0
   54.2944   85.6481   23.9108 C   0  0  0  0  0  0  0  0  0  0  0  0
   51.5705   83.6094   22.6143 C   0  0  0  0  0  0  0  0  0  0  0  0
   53.6155   84.6789   20.5458 C   0  0  0  0  0  0  0  0  0  0  0  0
   52.9961   85.6187   19.7328 C   0  0  0  0  0  0  0  0  0  0  0  0
   52.9380   85.4712   18.3613 C   0  0  0  0  0  0  0  0  0  0  0  0
   53.5057   84.3615   17.7337 C   0  0  0  0  0  0  0  0  0  0  0  0
   54.1228   83.4251   18.5438 C   0  0  0  0  0  0  0  0  0  0  0  0
   54.1669   83.5946   19.9036 C   0  0  0  0  0  0  0  0  0  0  0  0
   52.9217   81.7832   29.4271 C   0  0  0  0  0  0  0  0  0  0  0  0
   53.2025   82.8709   30.4316 C   0  0  0  0  0  0  0  0  0  0  0  0
   52.1445   83.0017   31.4810 C   0  0  0  0  0  0  0  0  0  0  0  0
   51.6041   84.3067   31.6730 N   0  0  0  0  0  0  0  0  0  0  0  0
   51.8054   85.2396   30.6136 C   0  0  0  0  0  0  0  0  0  0  0  0
   50.1560   84.2235   31.9229 C   0  0  0  0  0  0  0  0  0  0  0  0
   51.9980   84.7264   32.5690 H   0  0  0  0  0  0  0  0  0  0  0  0
 10 11  1  0  0  0
 11 12  2  0  0  0
 11 16  1  0  0  0
 12 13  1  0  0  0
 13 14  2  0  0  0
 13  1  1  0  0  0
 14 15  1  0  0  0
 15 16  2  0  0  0
  1  2  1  0  0  0
  1  7  1  0  0  0
  2  3  1  0  0  0
  2 29  1  0  0  0
  3  4  2  0  0  0
  3  5  1  0  0  0
  5  6  2  0  0  0
  5  7  1  0  0  0
  7  8  2  0  0  0
  8  9  1  0  0  0
  8 17  1  0  0  0
 17 18  2  0  0  0
 17 21  1  0  0  0
 18 19  1  0  0  0
 18 22  1  0  0  0
 19 20  1  0  0  0
 19 23  1  0  0  0
 20 21  2  0  0  0
 23 24  2  0  0  0
 23 28  1  0  0  0
 24 25  1  0  0  0
 25 26  2  0  0  0
 26 27  1  0  0  0
 27 28  2  0  0  0
 29 30  1  0  0  0
 30 31  1  0  0  0
 31 32  1  0  0  0
 32 33  1  0  0  0
 32 34  1  0  0  0
 32 35  1  0  0  0
M  CHG 1   9  -1
M  CHG 1  32   1
M  END
> <minimizedAffinity>
-7.08273

$$$$
169


 37 40  0  0  0  0  0  0  0  0999 V2000
   52.2415   84.5742   19.5775 C   0  0  0  0  0  0  0  0  0  0  0  0
   52.4764   85.9988   19.7125 N   0  0  0  0  0  0  0  0  0  0  0  0
   53.6418   86.1350   20.5127 C   0  0  0  0  0  0  0  0  0  0  0  0
   54.4438   87.0949   20.5316 O   0  0  0  0  0  0  0  0  0  0  0  0
   53.7407   84.9095   21.3362 C   0  0  0  0  0  0  0  0  0  0  0  0
   54.6199   84.6316   22.1808 O   0  0  0  0  0  0  0  0  0  0  0  0
   52.5934   84.0945   20.9601 C   0  0  0  0  0  0  0  0  0  0  0  0
   52.0155   83.2039   21.7065 C   0  0  0  0  0  0  0  0  0  0  0  0
   50.8718   82.5534   21.1979 O   0  0  0  0  0  0  0  0  0  0  0  0
   52.4449   82.8031   23.0385 C   0  0  0  0  0  0  0  0  0  0  0  0
   52.2428   83.3117   24.2772 C   0  0  0  0  0  0  0  0  0  0  0  0
   52.8379   82.4946   25.1708 N   0  0  0  0  0  0  0  0  0  0  0  0
   53.4311   81.4599   24.5627 C   0  0  0  0  0  0  0  0  0  0  0  0
   53.2005   81.6277   23.2233 C   0  0  0  0  0  0  0  0  0  0  0  0
   53.6760   80.7110   22.1435 C   0  0  0  0  0  0  0  0  0  0  0  0
   51.5357   84.5835   24.6475 C   0  0  0  0  0  0  0  0  0  0  0  0
   52.8328   82.6603   26.2190 H   0  0  0  0  0  0  0  0  0  0  0  0
   54.1812   80.3612   25.2039 C   0  0  0  0  0  0  0  0  0  0  0  0
   53.5574   79.4646   25.7908 O   0  0  0  0  0  0  0  0  0  0  0  0
   55.5617   80.3265   25.1542 O   0  0  0  0  0  0  0  0  0  0  0  0
   56.2929   79.6146   24.1824 C   0  0  0  0  0  0  0  0  0  0  0  0
   55.7847   80.7703   18.3096 Br  0  0  0  0  0  0  0  0  0  0  0  0
   54.8255   82.3704   17.9130 C   0  0  0  0  0  0  0  0  0  0  0  0
   53.9245   82.8732   18.8274 C   0  0  0  0  0  0  0  0  0  0  0  0
   53.2020   84.0342   18.5856 C   0  0  0  0  0  0  0  0  0  0  0  0
   53.4474   84.6509   17.3679 C   0  0  0  0  0  0  0  0  0  0  0  0
   54.3466   84.1564   16.4473 C   0  0  0  0  0  0  0  0  0  0  0  0
   55.0512   83.0021   16.7098 C   0  0  0  0  0  0  0  0  0  0  0  0
   51.6786   87.0893   19.1460 C   0  0  0  0  0  0  0  0  0  0  0  0
   52.5357   88.0157   18.3118 C   0  0  0  0  0  0  0  0  0  0  0  0
   52.6361   89.3393   18.8338 N   0  0  0  0  0  0  0  0  0  0  0  0
   51.8473   90.3234   18.1020 C   0  0  0  0  0  0  0  0  0  0  0  0
   51.6778   91.5226   18.9951 C   0  0  0  0  0  0  0  0  0  0  0  0
   52.6907   91.5478   19.9209 O   0  0  0  0  0  0  0  0  0  0  0  0
   53.9414   91.2507   19.4083 C   0  0  0  0  0  0  0  0  0  0  0  0
   54.0023   89.8468   18.8085 C   0  0  0  0  0  0  0  0  0  0  0  0
   52.3603   89.3365   19.8323 H   0  0  0  0  0  0  0  0  0  0  0  0
 22 23  1  0  0  0
 23 24  2  0  0  0
 23 28  1  0  0  0
 24 25  1  0  0  0
 25 26  2  0  0  0
 25  1  1  0  0  0
 26 27  1  0  0  0
 27 28  2  0  0  0
  1  2  1  0  0  0
  1  7  1  0  0  0
  2  3  1  0  0  0
  2 29  1  0  0  0
  3  4  2  0  0  0
  3  5  1  0  0  0
  5  6  2  0  0  0
  5  7  1  0  0  0
  7  8  2  0  0  0
  8  9  1  0  0  0
  8 10  1  0  0  0
 10 11  2  0  0  0
 10 14  1  0  0  0
 11 12  1  0  0  0
 11 16  1  0  0  0
 12 13  1  0  0  0
 13 14  2  0  0  0
 13 18  1  0  0  0
 14 15  1  0  0  0
 18 19  2  0  0  0
 18 20  1  0  0  0
 20 21  1  0  0  0
 29 30  1  0  0  0
 30 31  1  0  0  0
 31 32  1  0  0  0
 31 36  1  0  0  0
 32 33  1  0  0  0
 33 34  1  0  0  0
 34 35  1  0  0  0
 35 36  1  0  0  0
 12 17  1  0  0  0
 31 37  1  0  0  0
M  CHG 1   9  -1
M  CHG 1  31   1
M  END
> <minimizedAffinity>
-7.79396

$$$$
170


 35 38  0  0  0  0  0  0  0  0999 V2000
   54.1530   85.0119   20.9532 C   0  0  0  0  0  0  0  0  0  0  0  0
   53.7098   83.9587   20.0611 N   0  0  0  0  0  0  0  0  0  0  0  0
   52.5332   84.3401   19.3821 C   0  0  0  0  0  0  0  0  0  0  0  0
   51.6691   83.6556   18.7764 O   0  0  0  0  0  0  0  0  0  0  0  0
   52.4618   85.8180   19.5032 C   0  0  0  0  0  0  0  0  0  0  0  0
   51.5450   86.5068   19.0125 O   0  0  0  0  0  0  0  0  0  0  0  0
   53.6221   86.2403   20.2664 C   0  0  0  0  0  0  0  0  0  0  0  0
   54.1239   87.4481   20.2940 C   0  0  0  0  0  0  0  0  0  0  0  0
   55.2988   87.6859   21.0284 O   0  0  0  0  0  0  0  0  0  0  0  0
   50.6159   82.7699   24.2954 Br  0  0  0  0  0  0  0  0  0  0  0  0
   52.0779   83.9295   23.9115 C   0  0  0  0  0  0  0  0  0  0  0  0
   52.5656   84.0425   22.6145 C   0  0  0  0  0  0  0  0  0  0  0  0
   53.6200   84.8770   22.3204 C   0  0  0  0  0  0  0  0  0  0  0  0
   54.1932   85.6056   23.3386 C   0  0  0  0  0  0  0  0  0  0  0  0
   53.7127   85.4978   24.6284 C   0  0  0  0  0  0  0  0  0  0  0  0
   52.6570   84.6654   24.9329 C   0  0  0  0  0  0  0  0  0  0  0  0
   53.5134   88.5521   19.6034 C   0  0  0  0  0  0  0  0  0  0  0  0
   54.1124   88.9527   18.3998 C   0  0  0  0  0  0  0  0  0  0  0  0
   53.6236   90.0188   17.6972 C   0  0  0  0  0  0  0  0  0  0  0  0
   52.5249   90.7469   18.1364 C   0  0  0  0  0  0  0  0  0  0  0  0
   51.9608   90.3415   19.3058 C   0  0  0  0  0  0  0  0  0  0  0  0
   52.4415   89.2684   20.0282 C   0  0  0  0  0  0  0  0  0  0  0  0
   54.2758   90.4333   16.4139 C   0  0  0  0  0  0  0  0  0  0  0  0
   52.0928   91.8092   17.3691 O   0  0  0  0  0  0  0  0  0  0  0  0
   50.8585   92.4536   17.6464 C   0  0  0  0  0  0  0  0  0  0  0  0
   54.3758   82.6618   19.8601 C   0  0  0  0  0  0  0  0  0  0  0  0
   54.8227   82.5337   18.4302 C   0  0  0  0  0  0  0  0  0  0  0  0
   54.1852   81.4239   17.6658 C   0  0  0  0  0  0  0  0  0  0  0  0
   53.1333   81.8612   16.7740 N   0  0  0  0  0  0  0  0  0  0  0  0
   53.5657   82.9545   15.9263 C   0  0  0  0  0  0  0  0  0  0  0  0
   53.5743   82.5393   14.4799 C   0  0  0  0  0  0  0  0  0  0  0  0
   52.2541   82.1935   14.1261 O   0  0  0  0  0  0  0  0  0  0  0  0
   51.8317   81.0785   14.8464 C   0  0  0  0  0  0  0  0  0  0  0  0
   52.7453   80.6999   15.9677 C   0  0  0  0  0  0  0  0  0  0  0  0
   52.2632   82.1483   17.2694 H   0  0  0  0  0  0  0  0  0  0  0  0
 10 11  1  0  0  0
 11 12  2  0  0  0
 11 16  1  0  0  0
 12 13  1  0  0  0
 13 14  2  0  0  0
 13  1  1  0  0  0
 14 15  1  0  0  0
 15 16  2  0  0  0
  1  2  1  0  0  0
  1  7  1  0  0  0
  2  3  1  0  0  0
  2 26  1  0  0  0
  3  4  2  0  0  0
  3  5  1  0  0  0
  5  6  2  0  0  0
  5  7  1  0  0  0
  7  8  2  0  0  0
  8  9  1  0  0  0
  8 17  1  0  0  0
 17 18  2  0  0  0
 17 22  1  0  0  0
 18 19  1  0  0  0
 19 20  2  0  0  0
 19 23  1  0  0  0
 20 21  1  0  0  0
 20 24  1  0  0  0
 21 22  2  0  0  0
 24 25  1  0  0  0
 26 27  1  0  0  0
 27 28  1  0  0  0
 28 29  1  0  0  0
 29 30  1  0  0  0
 29 34  1  0  0  0
 30 31  1  0  0  0
 31 32  1  0  0  0
 32 33  1  0  0  0
 33 34  1  0  0  0
 29 35  1  0  0  0
M  CHG 1   9  -1
M  CHG 1  29   1
M  END
> <minimizedAffinity>
-8.15062

$$$$
175


 32 35  0  0  0  0  0  0  0  0999 V2000
   54.0236   85.0330   21.0924 C   0  0  0  0  0  0  0  0  0  0  0  0
   54.1034   86.4622   21.0399 N   0  0  0  0  0  0  0  0  0  0  0  0
   53.2873   86.8674   19.9515 C   0  0  0  0  0  0  0  0  0  0  0  0
   52.8227   88.0204   19.7705 O   0  0  0  0  0  0  0  0  0  0  0  0
   53.0666   85.7114   19.0508 C   0  0  0  0  0  0  0  0  0  0  0  0
   52.4084   85.6815   17.9973 O   0  0  0  0  0  0  0  0  0  0  0  0
   53.7879   84.6128   19.6649 C   0  0  0  0  0  0  0  0  0  0  0  0
   54.2040   83.5010   19.0994 C   0  0  0  0  0  0  0  0  0  0  0  0
   54.9398   82.5929   19.8305 O   0  0  0  0  0  0  0  0  0  0  0  0
   52.0366   84.3041   26.0507 Br  0  0  0  0  0  0  0  0  0  0  0  0
   51.9282   84.1736   24.1483 C   0  0  0  0  0  0  0  0  0  0  0  0
   52.9622   84.6272   23.3359 C   0  0  0  0  0  0  0  0  0  0  0  0
   52.9142   84.5468   21.9598 C   0  0  0  0  0  0  0  0  0  0  0  0
   51.7682   83.9851   21.4144 C   0  0  0  0  0  0  0  0  0  0  0  0
   50.7317   83.5302   22.2012 C   0  0  0  0  0  0  0  0  0  0  0  0
   50.8259   83.6312   23.5658 C   0  0  0  0  0  0  0  0  0  0  0  0
   53.9063   83.1936   17.7238 C   0  0  0  0  0  0  0  0  0  0  0  0
   54.5404   83.6923   16.6230 C   0  0  0  0  0  0  0  0  0  0  0  0
   54.1750   83.2762   15.3562 C   0  0  0  0  0  0  0  0  0  0  0  0
   53.1772   82.3594   15.1157 C   0  0  0  0  0  0  0  0  0  0  0  0
   52.5367   81.8569   16.2288 C   0  0  0  0  0  0  0  0  0  0  0  0
   52.8841   82.2573   17.4955 C   0  0  0  0  0  0  0  0  0  0  0  0
   52.8025   81.9281   13.7399 C   0  0  0  0  0  0  0  0  0  0  0  0
   54.8647   87.3684   21.9225 C   0  0  0  0  0  0  0  0  0  0  0  0
   55.9895   86.5695   22.5190 C   0  0  0  0  0  0  0  0  0  0  0  0
   56.0018   86.5049   23.9355 N   0  0  0  0  0  0  0  0  0  0  0  0
   57.2819   86.2950   24.5462 C   0  0  0  0  0  0  0  0  0  0  0  0
   58.0149   87.5603   24.8989 C   0  0  0  0  0  0  0  0  0  0  0  0
   57.2090   88.5368   25.4405 O   0  0  0  0  0  0  0  0  0  0  0  0
   56.1547   88.8597   24.6186 C   0  0  0  0  0  0  0  0  0  0  0  0
   55.2902   87.6356   24.4758 C   0  0  0  0  0  0  0  0  0  0  0  0
   55.4037   85.6664   24.2034 H   0  0  0  0  0  0  0  0  0  0  0  0
 10 11  1  0  0  0
 11 12  2  0  0  0
 11 16  1  0  0  0
 12 13  1  0  0  0
 13 14  2  0  0  0
 13  1  1  0  0  0
 14 15  1  0  0  0
 15 16  2  0  0  0
  1  2  1  0  0  0
  1  7  1  0  0  0
  2  3  1  0  0  0
  2 24  1  0  0  0
  3  4  2  0  0  0
  3  5  1  0  0  0
  5  6  2  0  0  0
  5  7  1  0  0  0
  7  8  2  0  0  0
  8  9  1  0  0  0
  8 17  1  0  0  0
 17 18  2  0  0  0
 17 22  1  0  0  0
 18 19  1  0  0  0
 19 20  2  0  0  0
 20 21  1  0  0  0
 20 23  1  0  0  0
 21 22  2  0  0  0
 24 25  1  0  0  0
 25 26  1  0  0  0
 26 27  1  0  0  0
 26 31  1  0  0  0
 27 28  1  0  0  0
 28 29  1  0  0  0
 29 30  1  0  0  0
 30 31  1  0  0  0
 26 32  1  0  0  0
M  CHG 1   9  -1
M  CHG 1  26   1
M  END
> <minimizedAffinity>
-9.08656

$$$$
176


 33 36  0  0  0  0  0  0  0  0999 V2000
   53.2287   85.2855   21.1187 C   0  0  0  0  0  0  0  0  0  0  0  0
   53.9532   85.3971   22.3742 N   0  0  0  0  0  0  0  0  0  0  0  0
   55.0661   86.2844   22.1384 C   0  0  0  0  0  0  0  0  0  0  0  0
   56.0837   86.3656   22.8696 O   0  0  0  0  0  0  0  0  0  0  0  0
   54.7679   87.0265   20.9318 C   0  0  0  0  0  0  0  0  0  0  0  0
   55.4764   87.9127   20.3592 O   0  0  0  0  0  0  0  0  0  0  0  0
   53.4683   86.5782   20.4504 C   0  0  0  0  0  0  0  0  0  0  0  0
   52.7162   87.2161   19.5654 C   0  0  0  0  0  0  0  0  0  0  0  0
   51.5257   86.5388   19.2272 O   0  0  0  0  0  0  0  0  0  0  0  0
   55.1268   83.4547   16.4451 Br  0  0  0  0  0  0  0  0  0  0  0  0
   54.5728   83.2358   18.2494 C   0  0  0  0  0  0  0  0  0  0  0  0
   54.1123   84.2908   19.0252 C   0  0  0  0  0  0  0  0  0  0  0  0
   53.7165   84.1242   20.3328 C   0  0  0  0  0  0  0  0  0  0  0  0
   53.7874   82.8729   20.8680 C   0  0  0  0  0  0  0  0  0  0  0  0
   54.2496   81.7993   20.0943 C   0  0  0  0  0  0  0  0  0  0  0  0
   54.6452   81.9681   18.7869 C   0  0  0  0  0  0  0  0  0  0  0  0
   53.0424   88.5017   18.9707 C   0  0  0  0  0  0  0  0  0  0  0  0
   52.8203   89.7272   19.5525 C   0  0  0  0  0  0  0  0  0  0  0  0
   53.1832   90.9165   18.9531 C   0  0  0  0  0  0  0  0  0  0  0  0
   53.7941   90.9208   17.7196 C   0  0  0  0  0  0  0  0  0  0  0  0
   54.0246   89.6989   17.1196 C   0  0  0  0  0  0  0  0  0  0  0  0
   53.6583   88.5142   17.7277 C   0  0  0  0  0  0  0  0  0  0  0  0
   54.2684   92.4294   16.9320 Cl  0  0  0  0  0  0  0  0  0  0  0  0
   53.6650   84.6727   23.5697 C   0  0  0  0  0  0  0  0  0  0  0  0
   52.2868   84.2172   23.8235 C   0  0  0  0  0  0  0  0  0  0  0  0
   52.0398   82.8749   24.4039 C   0  0  0  0  0  0  0  0  0  0  0  0
   51.1388   82.0025   23.7297 N   0  0  0  0  0  0  0  0  0  0  0  0
   50.3397   81.2607   24.6718 C   0  0  0  0  0  0  0  0  0  0  0  0
   49.0167   81.9255   24.9897 C   0  0  0  0  0  0  0  0  0  0  0  0
   48.2080   81.9516   23.8512 O   0  0  0  0  0  0  0  0  0  0  0  0
   48.9822   81.9137   22.6902 C   0  0  0  0  0  0  0  0  0  0  0  0
   50.1700   82.8059   22.9214 C   0  0  0  0  0  0  0  0  0  0  0  0
   51.5944   81.4194   23.0322 H   0  0  0  0  0  0  0  0  0  0  0  0
 10 11  1  0  0  0
 11 12  2  0  0  0
 11 16  1  0  0  0
 12 13  1  0  0  0
 13 14  2  0  0  0
 13  1  1  0  0  0
 14 15  1  0  0  0
 15 16  2  0  0  0
  1  2  1  0  0  0
  1  7  1  0  0  0
  2  3  1  0  0  0
  2 24  1  0  0  0
  3  4  2  0  0  0
  3  5  1  0  0  0
  5  6  2  0  0  0
  5  7  1  0  0  0
  7  8  2  0  0  0
  8  9  1  0  0  0
  8 17  1  0  0  0
 17 18  2  0  0  0
 17 22  1  0  0  0
 18 19  1  0  0  0
 19 20  2  0  0  0
 20 21  1  0  0  0
 20 23  1  0  0  0
 21 22  2  0  0  0
 24 25  1  0  0  0
 25 26  1  0  0  0
 26 27  1  0  0  0
 27 28  1  0  0  0
 27 32  1  0  0  0
 28 29  1  0  0  0
 29 30  1  0  0  0
 30 31  1  0  0  0
 31 32  1  0  0  0
 27 33  1  0  0  0
M  CHG 1   9  -1
M  CHG 1  27   1
M  END
> <minimizedAffinity>
-8.01305

$$$$
182


 36 40  0  0  0  0  0  0  0  0999 V2000
   51.2887   84.3955   28.9293 C   0  0  0  0  0  0  0  0  0  0  0  0
   50.9314   85.2568   30.0019 N   0  0  0  0  0  0  0  0  0  0  0  0
   49.6086   85.7528   29.6103 C   0  0  0  0  0  0  0  0  0  0  0  0
   49.1047   86.8380   29.9412 O   0  0  0  0  0  0  0  0  0  0  0  0
   49.0149   84.7096   28.7578 C   0  0  0  0  0  0  0  0  0  0  0  0
   47.8908   84.7089   28.2062 O   0  0  0  0  0  0  0  0  0  0  0  0
   50.0186   83.6506   28.6848 C   0  0  0  0  0  0  0  0  0  0  0  0
   49.8024   82.3743   28.4971 C   0  0  0  0  0  0  0  0  0  0  0  0
   50.9271   81.5214   28.5278 O   0  0  0  0  0  0  0  0  0  0  0  0
   48.4784   81.8205   28.2556 C   0  0  0  0  0  0  0  0  0  0  0  0
   47.5062   81.4297   29.0921 N   0  0  0  0  0  0  0  0  0  0  0  0
   46.4787   80.9429   28.3910 C   0  0  0  0  0  0  0  0  0  0  0  0
   46.8105   81.0293   27.0760 N   0  0  0  0  0  0  0  0  0  0  0  0
   48.0318   81.5647   26.9495 C   0  0  0  0  0  0  0  0  0  0  0  0
   48.7680   81.8326   25.6818 C   0  0  0  0  0  0  0  0  0  0  0  0
   45.3227   80.4770   29.0135 C   0  0  0  0  0  0  0  0  0  0  0  0
   45.2798   80.5420   30.3926 C   0  0  0  0  0  0  0  0  0  0  0  0
   46.3599   81.0531   31.0880 C   0  0  0  0  0  0  0  0  0  0  0  0
   47.4903   81.5053   30.4520 C   0  0  0  0  0  0  0  0  0  0  0  0
   44.2135   79.9451   28.1843 C   0  0  0  0  0  0  0  0  0  0  0  0
   55.4198   82.6051   26.1189 Br  0  0  0  0  0  0  0  0  0  0  0  0
   54.4240   82.7532   27.7489 C   0  0  0  0  0  0  0  0  0  0  0  0
   53.2647   83.4820   27.8009 C   0  0  0  0  0  0  0  0  0  0  0  0
   52.4945   83.6244   28.9726 C   0  0  0  0  0  0  0  0  0  0  0  0
   53.0231   82.9573   30.0557 C   0  0  0  0  0  0  0  0  0  0  0  0
   54.1870   82.2196   30.0265 C   0  0  0  0  0  0  0  0  0  0  0  0
   54.9050   82.1102   28.8574 C   0  0  0  0  0  0  0  0  0  0  0  0
   51.5914   85.7003   31.2173 C   0  0  0  0  0  0  0  0  0  0  0  0
   51.1408   85.0264   32.4671 C   0  0  0  0  0  0  0  0  0  0  0  0
   49.6999   85.0359   32.6262 N   0  0  0  0  0  0  0  0  0  0  0  0
   49.1571   83.6957   32.6153 C   0  0  0  0  0  0  0  0  0  0  0  0
   49.5076   82.9882   33.9282 C   0  0  0  0  0  0  0  0  0  0  0  0
   48.8208   83.6841   34.9291 O   0  0  0  0  0  0  0  0  0  0  0  0
   49.4817   84.9239   35.0505 C   0  0  0  0  0  0  0  0  0  0  0  0
   49.3000   85.7684   33.8114 C   0  0  0  0  0  0  0  0  0  0  0  0
   49.2715   85.5360   31.8090 H   0  0  0  0  0  0  0  0  0  0  0  0
 21 22  1  0  0  0
 22 23  2  0  0  0
 22 27  1  0  0  0
 23 24  1  0  0  0
 24 25  2  0  0  0
 24  1  1  0  0  0
 25 26  1  0  0  0
 26 27  2  0  0  0
  1  2  1  0  0  0
  1  7  1  0  0  0
  2  3  1  0  0  0
  2 28  1  0  0  0
  3  4  2  0  0  0
  3  5  1  0  0  0
  5  6  2  0  0  0
  5  7  1  0  0  0
  7  8  2  0  0  0
  8  9  1  0  0  0
  8 10  1  0  0  0
 10 11  1  0  0  0
 10 14  2  0  0  0
 11 12  1  0  0  0
 11 19  1  0  0  0
 12 13  2  0  0  0
 12 16  1  0  0  0
 13 14  1  0  0  0
 14 15  1  0  0  0
 16 17  2  0  0  0
 16 20  1  0  0  0
 17 18  1  0  0  0
 18 19  2  0  0  0
 28 29  1  0  0  0
 29 30  1  0  0  0
 30 31  1  0  0  0
 30 35  1  0  0  0
 31 32  1  0  0  0
 32 33  1  0  0  0
 33 34  1  0  0  0
 34 35  1  0  0  0
 30 36  1  0  0  0
M  CHG 1   9  -1
M  CHG 1  30   1
M  END
> <minimizedAffinity>
-7.28646

$$$$
184


 33 36  0  0  0  0  0  0  0  0999 V2000
   53.7935   87.5688   20.5748 C   0  0  0  0  0  0  0  0  0  0  0  0
   55.2083   87.6573   20.8798 N   0  0  0  0  0  0  0  0  0  0  0  0
   55.5427   86.3943   21.4707 C   0  0  0  0  0  0  0  0  0  0  0  0
   56.4744   86.1467   22.2565 O   0  0  0  0  0  0  0  0  0  0  0  0
   54.5738   85.4244   20.9746 C   0  0  0  0  0  0  0  0  0  0  0  0
   54.4545   84.1852   21.2112 O   0  0  0  0  0  0  0  0  0  0  0  0
   53.6822   86.1580   20.0890 C   0  0  0  0  0  0  0  0  0  0  0  0
   52.9403   85.6368   19.1320 C   0  0  0  0  0  0  0  0  0  0  0  0
   52.1056   86.5301   18.4456 O   0  0  0  0  0  0  0  0  0  0  0  0
   52.9339   84.2341   18.7446 C   0  0  0  0  0  0  0  0  0  0  0  0
   53.5824   83.6658   17.7174 N   0  0  0  0  0  0  0  0  0  0  0  0
   53.3720   82.3245   17.6953 C   0  0  0  0  0  0  0  0  0  0  0  0
   52.5577   82.0789   18.7591 N   0  0  0  0  0  0  0  0  0  0  0  0
   52.2720   83.1922   19.4121 C   0  0  0  0  0  0  0  0  0  0  0  0
   51.4411   83.4360   20.6120 C   0  0  0  0  0  0  0  0  0  0  0  0
   53.9158   81.4928   16.7291 C   0  0  0  0  0  0  0  0  0  0  0  0
   54.7086   82.0257   15.7339 C   0  0  0  0  0  0  0  0  0  0  0  0
   54.9173   83.3997   15.7628 C   0  0  0  0  0  0  0  0  0  0  0  0
   54.3672   84.1858   16.7274 C   0  0  0  0  0  0  0  0  0  0  0  0
   54.5961   90.4267   16.1287 Br  0  0  0  0  0  0  0  0  0  0  0  0
   53.5321   89.8618   17.5976 C   0  0  0  0  0  0  0  0  0  0  0  0
   54.0560   88.9442   18.5088 C   0  0  0  0  0  0  0  0  0  0  0  0
   53.3204   88.5238   19.5654 C   0  0  0  0  0  0  0  0  0  0  0  0
   52.0264   89.0352   19.7120 C   0  0  0  0  0  0  0  0  0  0  0  0
   51.5184   89.9316   18.8197 C   0  0  0  0  0  0  0  0  0  0  0  0
   52.2498   90.3728   17.7385 C   0  0  0  0  0  0  0  0  0  0  0  0
   56.1191   88.7833   20.6599 C   0  0  0  0  0  0  0  0  0  0  0  0
   56.0579   89.8146   21.7261 C   0  0  0  0  0  0  0  0  0  0  0  0
   55.8617   91.2211   21.3352 C   0  0  0  0  0  0  0  0  0  0  0  0
   54.6129   91.8095   21.6726 N   0  0  0  0  0  0  0  0  0  0  0  0
   53.9130   92.2089   20.4754 C   0  0  0  0  0  0  0  0  0  0  0  0
   54.8507   93.0525   22.4304 C   0  0  0  0  0  0  0  0  0  0  0  0
   54.0235   91.2357   22.3144 H   0  0  0  0  0  0  0  0  0  0  0  0
 20 21  1  0  0  0
 21 22  2  0  0  0
 21 26  1  0  0  0
 22 23  1  0  0  0
 23 24  2  0  0  0
 23  1  1  0  0  0
 24 25  1  0  0  0
 25 26  2  0  0  0
  1  2  1  0  0  0
  1  7  1  0  0  0
  2  3  1  0  0  0
  2 27  1  0  0  0
  3  4  2  0  0  0
  3  5  1  0  0  0
  5  6  2  0  0  0
  5  7  1  0  0  0
  7  8  2  0  0  0
  8  9  1  0  0  0
  8 10  1  0  0  0
 10 11  1  0  0  0
 10 14  2  0  0  0
 11 12  1  0  0  0
 11 19  1  0  0  0
 12 13  2  0  0  0
 12 16  1  0  0  0
 13 14  1  0  0  0
 14 15  1  0  0  0
 16 17  2  0  0  0
 17 18  1  0  0  0
 18 19  2  0  0  0
 27 28  1  0  0  0
 28 29  1  0  0  0
 29 30  1  0  0  0
 30 31  1  0  0  0
 30 32  1  0  0  0
 30 33  1  0  0  0
M  CHG 1   9  -1
M  CHG 1  30   1
M  END
> <minimizedAffinity>
-9.13126

$$$$
188


 31 34  0  0  0  0  0  0  0  0999 V2000
   54.6720   85.5621   20.5419 C   0  0  0  0  0  0  0  0  0  0  0  0
   53.9500   84.3851   21.0016 N   0  0  0  0  0  0  0  0  0  0  0  0
   53.4367   84.7982   22.2903 C   0  0  0  0  0  0  0  0  0  0  0  0
   52.4358   84.3334   22.8767 O   0  0  0  0  0  0  0  0  0  0  0  0
   54.2825   85.8639   22.8110 C   0  0  0  0  0  0  0  0  0  0  0  0
   54.2198   86.5221   23.8810 O   0  0  0  0  0  0  0  0  0  0  0  0
   55.3190   86.0796   21.8022 C   0  0  0  0  0  0  0  0  0  0  0  0
   56.5021   86.6080   21.9293 C   0  0  0  0  0  0  0  0  0  0  0  0
   57.3007   86.7319   20.7723 O   0  0  0  0  0  0  0  0  0  0  0  0
   53.8444   90.8223   19.8270 Br  0  0  0  0  0  0  0  0  0  0  0  0
   53.2769   88.9921   19.7447 C   0  0  0  0  0  0  0  0  0  0  0  0
   54.1091   87.9579   20.1449 C   0  0  0  0  0  0  0  0  0  0  0  0
   53.7328   86.6338   20.0967 C   0  0  0  0  0  0  0  0  0  0  0  0
   52.4658   86.3491   19.6248 C   0  0  0  0  0  0  0  0  0  0  0  0
   51.6146   87.3789   19.2169 C   0  0  0  0  0  0  0  0  0  0  0  0
   52.0129   88.7014   19.2738 C   0  0  0  0  0  0  0  0  0  0  0  0
   56.9809   87.0517   23.2256 C   0  0  0  0  0  0  0  0  0  0  0  0
   56.7538   88.2450   23.7063 O   0  0  0  0  0  0  0  0  0  0  0  0
   57.2945   88.3912   24.8847 C   0  0  0  0  0  0  0  0  0  0  0  0
   57.9200   87.2265   25.2115 C   0  0  0  0  0  0  0  0  0  0  0  0
   57.7219   86.3515   24.1371 C   0  0  0  0  0  0  0  0  0  0  0  0
   53.7303   83.1014   20.3901 C   0  0  0  0  0  0  0  0  0  0  0  0
   54.2073   83.0156   18.9586 C   0  0  0  0  0  0  0  0  0  0  0  0
   53.3366   82.0947   18.1997 C   0  0  0  0  0  0  0  0  0  0  0  0
   53.8688   81.6518   16.9309 N   0  0  0  0  0  0  0  0  0  0  0  0
   52.9123   80.8869   16.1658 C   0  0  0  0  0  0  0  0  0  0  0  0
   52.1524   81.6672   15.1533 C   0  0  0  0  0  0  0  0  0  0  0  0
   52.8876   82.5885   14.4377 O   0  0  0  0  0  0  0  0  0  0  0  0
   53.6645   83.4209   15.2323 C   0  0  0  0  0  0  0  0  0  0  0  0
   54.5510   82.6432   16.1705 C   0  0  0  0  0  0  0  0  0  0  0  0
   54.6151   80.9364   17.2043 H   0  0  0  0  0  0  0  0  0  0  0  0
 10 11  1  0  0  0
 11 12  2  0  0  0
 11 16  1  0  0  0
 12 13  1  0  0  0
 13 14  2  0  0  0
 13  1  1  0  0  0
 14 15  1  0  0  0
 15 16  2  0  0  0
  1  2  1  0  0  0
  1  7  1  0  0  0
  2  3  1  0  0  0
  2 22  1  0  0  0
  3  4  2  0  0  0
  3  5  1  0  0  0
  5  6  2  0  0  0
  5  7  1  0  0  0
  7  8  2  0  0  0
  8  9  1  0  0  0
  8 17  1  0  0  0
 17 18  1  0  0  0
 17 21  2  0  0  0
 18 19  1  0  0  0
 19 20  2  0  0  0
 20 21  1  0  0  0
 22 23  1  0  0  0
 23 24  1  0  0  0
 24 25  1  0  0  0
 25 26  1  0  0  0
 25 30  1  0  0  0
 26 27  1  0  0  0
 27 28  1  0  0  0
 28 29  1  0  0  0
 29 30  1  0  0  0
 25 31  1  0  0  0
M  CHG 1   9  -1
M  CHG 1  25   1
M  END
> <minimizedAffinity>
-8.14360

$$$$
191


 34 37  0  0  0  0  0  0  0  0999 V2000
   53.9923   84.9502   20.8377 C   0  0  0  0  0  0  0  0  0  0  0  0
   53.6303   83.7214   20.1609 N   0  0  0  0  0  0  0  0  0  0  0  0
   52.3519   83.3349   20.7105 C   0  0  0  0  0  0  0  0  0  0  0  0
   51.5147   82.5866   20.1505 O   0  0  0  0  0  0  0  0  0  0  0  0
   52.2456   83.9826   22.0214 C   0  0  0  0  0  0  0  0  0  0  0  0
   51.3002   83.9227   22.8490 O   0  0  0  0  0  0  0  0  0  0  0  0
   53.4654   84.7514   22.2393 C   0  0  0  0  0  0  0  0  0  0  0  0
   53.9617   85.1734   23.3898 C   0  0  0  0  0  0  0  0  0  0  0  0
   55.1212   85.9070   23.3926 O   0  0  0  0  0  0  0  0  0  0  0  0
   53.2966   84.8698   24.6707 C   0  0  0  0  0  0  0  0  0  0  0  0
   52.3305   85.5649   25.2070 O   0  0  0  0  0  0  0  0  0  0  0  0
   51.9166   85.0925   26.3350 C   0  0  0  0  0  0  0  0  0  0  0  0
   52.6680   83.9718   26.5946 C   0  0  0  0  0  0  0  0  0  0  0  0
   53.5431   83.8324   25.5380 C   0  0  0  0  0  0  0  0  0  0  0  0
   52.4191   83.2755   27.7571 C   0  0  0  0  0  0  0  0  0  0  0  0
   51.4460   83.6765   28.6500 C   0  0  0  0  0  0  0  0  0  0  0  0
   50.7047   84.8224   28.3447 C   0  0  0  0  0  0  0  0  0  0  0  0
   50.9244   85.5411   27.1969 C   0  0  0  0  0  0  0  0  0  0  0  0
   50.1738   86.6585   26.9342 O   0  0  0  0  0  0  0  0  0  0  0  0
   49.3258   87.3214   27.8164 C   0  0  0  0  0  0  0  0  0  0  0  0
   54.4040   90.2334   20.0005 Br  0  0  0  0  0  0  0  0  0  0  0  0
   53.4903   88.5521   19.7891 C   0  0  0  0  0  0  0  0  0  0  0  0
   54.0055   87.4129   20.3363 C   0  0  0  0  0  0  0  0  0  0  0  0
   53.3957   86.1619   20.2204 C   0  0  0  0  0  0  0  0  0  0  0  0
   52.2192   86.1481   19.5043 C   0  0  0  0  0  0  0  0  0  0  0  0
   51.6840   87.3037   18.9411 C   0  0  0  0  0  0  0  0  0  0  0  0
   52.3234   88.5018   19.0859 C   0  0  0  0  0  0  0  0  0  0  0  0
   54.3534   83.0138   19.1326 C   0  0  0  0  0  0  0  0  0  0  0  0
   53.9351   83.4609   17.7528 C   0  0  0  0  0  0  0  0  0  0  0  0
   53.1160   82.4819   16.9923 C   0  0  0  0  0  0  0  0  0  0  0  0
   52.8732   82.8272   15.6264 N   0  0  0  0  0  0  0  0  0  0  0  0
   52.3451   81.6769   14.8876 C   0  0  0  0  0  0  0  0  0  0  0  0
   54.0380   83.3263   14.9629 C   0  0  0  0  0  0  0  0  0  0  0  0
   52.1175   83.5640   15.5246 H   0  0  0  0  0  0  0  0  0  0  0  0
 21 22  1  0  0  0
 22 23  2  0  0  0
 22 27  1  0  0  0
 23 24  1  0  0  0
 24 25  2  0  0  0
 24  1  1  0  0  0
 25 26  1  0  0  0
 26 27  2  0  0  0
  1  2  1  0  0  0
  1  7  1  0  0  0
  2  3  1  0  0  0
  2 28  1  0  0  0
  3  4  2  0  0  0
  3  5  1  0  0  0
  5  6  2  0  0  0
  5  7  1  0  0  0
  7  8  2  0  0  0
  8  9  1  0  0  0
  8 10  1  0  0  0
 10 11  1  0  0  0
 10 14  2  0  0  0
 11 12  1  0  0  0
 12 13  2  0  0  0
 12 18  1  0  0  0
 13 14  1  0  0  0
 13 15  1  0  0  0
 15 16  2  0  0  0
 16 17  1  0  0  0
 17 18  2  0  0  0
 18 19  1  0  0  0
 19 20  1  0  0  0
 28 29  1  0  0  0
 29 30  1  0  0  0
 30 31  1  0  0  0
 31 32  1  0  0  0
 31 33  1  0  0  0
 31 34  1  0  0  0
M  CHG 1   9  -1
M  CHG 1  31   1
M  END
> <minimizedAffinity>
-8.55185

$$$$
199


 25 28  0  0  0  0  0  0  0  0999 V2000
   56.5350   88.5659   23.4354 C   0  0  0  0  0  0  0  0  0  0  0  0
   56.9009   87.2679   24.1070 C   0  0  0  0  0  0  0  0  0  0  0  0
   55.5530   87.1524   24.6831 N   0  0  0  0  0  0  0  0  0  0  0  0
   55.4041   88.5722   24.4219 C   0  0  0  0  0  0  0  0  0  0  0  0
   54.8077   86.0734   25.2328 C   0  0  0  0  0  0  0  0  0  0  0  0
   54.6665   85.9018   26.5729 N   0  0  0  0  0  0  0  0  0  0  0  0
   53.9449   84.8573   27.0754 C   0  0  0  0  0  0  0  0  0  0  0  0
   53.3548   83.9710   26.2675 N   0  0  0  0  0  0  0  0  0  0  0  0
   53.4525   84.0789   24.9413 C   0  0  0  0  0  0  0  0  0  0  0  0
   52.9617   83.3312   23.9328 N   0  0  0  0  0  0  0  0  0  0  0  0
   53.3692   83.8983   22.8182 N   0  0  0  0  0  0  0  0  0  0  0  0
   54.1043   84.9835   23.0861 N   0  0  0  0  0  0  0  0  0  0  0  0
   54.1825   85.1352   24.4355 C   0  0  0  0  0  0  0  0  0  0  0  0
   52.1387   82.1277   24.0213 C   0  0  0  0  0  0  0  0  0  0  0  0
   54.9276   89.0288   21.5673 N   0  0  0  0  0  0  0  0  0  0  0  0
   56.1111   88.4111   22.0002 C   0  0  0  0  0  0  0  0  0  0  0  0
   56.8695   87.7258   21.2989 O   0  0  0  0  0  0  0  0  0  0  0  0
   54.3501   89.6039   22.2842 H   0  0  0  0  0  0  0  0  0  0  0  0
   54.8214   91.3536   16.8215 Br  0  0  0  0  0  0  0  0  0  0  0  0
   54.3081   89.9824   18.0409 C   0  0  0  0  0  0  0  0  0  0  0  0
   54.7681   89.9641   19.3369 C   0  0  0  0  0  0  0  0  0  0  0  0
   54.4092   88.9696   20.2591 C   0  0  0  0  0  0  0  0  0  0  0  0
   53.5639   87.9989   19.8000 C   0  0  0  0  0  0  0  0  0  0  0  0
   53.1015   88.0264   18.4821 C   0  0  0  0  0  0  0  0  0  0  0  0
   53.4651   89.0018   17.6096 C   0  0  0  0  0  0  0  0  0  0  0  0
 19 20  1  0  0  0
 20 21  2  0  0  0
 20 25  1  0  0  0
 21 22  1  0  0  0
 22 23  2  0  0  0
 22 15  1  0  0  0
 23 24  1  0  0  0
 24 25  2  0  0  0
 15 16  1  0  0  0
 16 17  2  0  0  0
 16  1  1  0  0  0
  1  2  1  0  0  0
  1  4  1  0  0  0
  2  3  1  0  0  0
  3  4  1  0  0  0
  3  5  1  0  0  0
  5  6  2  0  0  0
  5 13  1  0  0  0
  6  7  1  0  0  0
  7  8  2  0  0  0
  8  9  1  0  0  0
  9 10  1  0  0  0
  9 13  2  0  0  0
 10 11  1  0  0  0
 10 14  1  0  0  0
 11 12  2  0  0  0
 12 13  1  0  0  0
 15 18  1  0  0  0
M  END
> <minimizedAffinity>
-8.29823

$$$$
200


 21 24  0  0  0  0  0  0  0  0999 V2000
   51.6681   98.6913   28.4574 C   0  0  0  0  0  0  0  0  0  0  0  0
   50.7216   97.9169   28.9767 N   0  0  0  0  0  0  0  0  0  0  0  0
   49.4081   98.1994   28.9867 C   0  0  0  0  0  0  0  0  0  0  0  0
   48.2880   97.6039   29.4318 N   0  0  0  0  0  0  0  0  0  0  0  0
   47.2403   98.3242   29.1816 O   0  0  0  0  0  0  0  0  0  0  0  0
   47.6372   99.3879   28.5782 N   0  0  0  0  0  0  0  0  0  0  0  0
   48.9707   99.3874   28.4181 C   0  0  0  0  0  0  0  0  0  0  0  0
   49.8901  100.2033   27.8814 N   0  0  0  0  0  0  0  0  0  0  0  0
   49.7209  101.3815   27.2865 N   0  0  0  0  0  0  0  0  0  0  0  0
   50.9352  101.8148   26.9151 N   0  0  0  0  0  0  0  0  0  0  0  0
   51.8309  100.8977   27.2860 N   0  0  0  0  0  0  0  0  0  0  0  0
   51.1950   99.8898   27.8884 C   0  0  0  0  0  0  0  0  0  0  0  0
   53.0593   98.4362   28.4242 N   0  0  0  0  0  0  0  0  0  0  0  0
   53.6956   98.9122   29.1256 H   0  0  0  0  0  0  0  0  0  0  0  0
   57.1892   97.2704   25.2066 Br  0  0  0  0  0  0  0  0  0  0  0  0
   55.4961   96.8985   26.0008 C   0  0  0  0  0  0  0  0  0  0  0  0
   54.9055   97.7727   26.8985 C   0  0  0  0  0  0  0  0  0  0  0  0
   53.6956   97.5739   27.5068 C   0  0  0  0  0  0  0  0  0  0  0  0
   53.0587   96.3675   27.1458 C   0  0  0  0  0  0  0  0  0  0  0  0
   53.6149   95.4783   26.2598 C   0  0  0  0  0  0  0  0  0  0  0  0
   54.8370   95.7396   25.6819 C   0  0  0  0  0  0  0  0  0  0  0  0
 15 16  1  0  0  0
 16 17  2  0  0  0
 16 21  1  0  0  0
 17 18  1  0  0  0
 18 19  2  0  0  0
 18 13  1  0  0  0
 19 20  1  0  0  0
 20 21  2  0  0  0
 13  1  1  0  0  0
  1  2  2  0  0  0
  1 12  1  0  0  0
  2  3  1  0  0  0
  3  4  2  0  0  0
  3  7  1  0  0  0
  4  5  1  0  0  0
  5  6  1  0  0  0
  6  7  2  0  0  0
  7  8  1  0  0  0
  8  9  1  0  0  0
  8 12  1  0  0  0
  9 10  2  0  0  0
 10 11  1  0  0  0
 11 12  2  0  0  0
 13 14  1  0  0  0
M  END
> <minimizedAffinity>
-8.99439

$$$$
201


 25 28  0  0  0  0  0  0  0  0999 V2000
   55.2410   86.8226   22.6031 C   0  0  0  0  0  0  0  0  0  0  0  0
   55.8932   85.8183   22.2239 O   0  0  0  0  0  0  0  0  0  0  0  0
   54.3951   86.7018   23.7244 N   0  0  0  0  0  0  0  0  0  0  0  0
   53.8607   87.5476   24.0248 H   0  0  0  0  0  0  0  0  0  0  0  0
   55.1159   89.6720   20.3672 N   0  0  0  0  0  0  0  0  0  0  0  0
   56.0791   90.0119   21.1823 N   0  0  0  0  0  0  0  0  0  0  0  0
   56.2758   89.0710   22.0914 N   0  0  0  0  0  0  0  0  0  0  0  0
   55.3964   88.0663   21.8590 C   0  0  0  0  0  0  0  0  0  0  0  0
   54.6699   88.4678   20.7611 C   0  0  0  0  0  0  0  0  0  0  0  0
   51.0019   92.1532   18.0171 Br  0  0  0  0  0  0  0  0  0  0  0  0
   52.8018   91.5290   18.0840 C   0  0  0  0  0  0  0  0  0  0  0  0
   53.2801   90.8356   19.2007 C   0  0  0  0  0  0  0  0  0  0  0  0
   54.5774   90.3865   19.2464 C   0  0  0  0  0  0  0  0  0  0  0  0
   55.3881   90.6403   18.1615 C   0  0  0  0  0  0  0  0  0  0  0  0
   54.9217   91.3325   17.0385 C   0  0  0  0  0  0  0  0  0  0  0  0
   53.6198   91.7774   17.0035 C   0  0  0  0  0  0  0  0  0  0  0  0
   54.2151   85.4870   24.4865 C   0  0  0  0  0  0  0  0  0  0  0  0
   52.8748   84.8645   24.2052 C   0  0  0  0  0  0  0  0  0  0  0  0
   52.4905   84.1588   23.1146 N   0  0  0  0  0  0  0  0  0  0  0  0
   51.2169   83.7772   23.2559 C   0  0  0  0  0  0  0  0  0  0  0  0
   50.8149   84.2604   24.4559 N   0  0  0  0  0  0  0  0  0  0  0  0
   51.8094   84.9119   25.0251 N   0  0  0  0  0  0  0  0  0  0  0  0
   50.7513   82.9877   22.0582 C   0  0  0  0  0  0  0  0  0  0  0  0
   51.8034   83.3693   21.0384 C   0  0  0  0  0  0  0  0  0  0  0  0
   53.0410   83.7015   21.8502 C   0  0  0  0  0  0  0  0  0  0  0  0
 10 11  1  0  0  0
 11 12  2  0  0  0
 11 16  1  0  0  0
 12 13  1  0  0  0
 13 14  2  0  0  0
 13  5  1  0  0  0
 14 15  1  0  0  0
 15 16  2  0  0  0
  5  6  1  0  0  0
  5  9  1  0  0  0
  6  7  2  0  0  0
  7  8  1  0  0  0
  8  9  2  0  0  0
  8  1  1  0  0  0
  1  2  2  0  0  0
  1  3  1  0  0  0
  3 17  1  0  0  0
 17 18  1  0  0  0
 18 19  1  0  0  0
 18 22  2  0  0  0
 19 20  1  0  0  0
 19 25  1  0  0  0
 20 21  2  0  0  0
 20 23  1  0  0  0
 21 22  1  0  0  0
 23 24  1  0  0  0
 24 25  1  0  0  0
  3  4  1  0  0  0
M  END
> <minimizedAffinity>
-8.77074

$$$$
205


 25 28  0  0  0  0  0  0  0  0999 V2000
   53.6781   88.3348   19.5340 N   0  0  0  0  0  0  0  0  0  0  0  0
   52.8771   87.1365   19.5702 C   0  0  0  0  0  0  0  0  0  0  0  0
   51.7036   87.0645   19.1077 O   0  0  0  0  0  0  0  0  0  0  0  0
   53.6408   86.0676   20.2110 C   0  0  0  0  0  0  0  0  0  0  0  0
   52.9657   85.1781   20.9995 O   0  0  0  0  0  0  0  0  0  0  0  0
   53.9027   84.8948   21.9906 N   0  0  0  0  0  0  0  0  0  0  0  0
   54.5724   86.0899   22.3140 C   0  0  0  0  0  0  0  0  0  0  0  0
   54.4283   86.8611   21.2271 C   0  0  0  0  0  0  0  0  0  0  0  0
   54.6488   88.1486   20.5789 C   0  0  0  0  0  0  0  0  0  0  0  0
   55.5427   88.9653   20.8854 O   0  0  0  0  0  0  0  0  0  0  0  0
   54.0739   83.9735   22.4127 H   0  0  0  0  0  0  0  0  0  0  0  0
   50.6785   92.4112   17.8514 Br  0  0  0  0  0  0  0  0  0  0  0  0
   52.2667   91.3557   17.8626 C   0  0  0  0  0  0  0  0  0  0  0  0
   52.4177   90.2526   18.6644 C   0  0  0  0  0  0  0  0  0  0  0  0
   53.5652   89.4629   18.6906 C   0  0  0  0  0  0  0  0  0  0  0  0
   54.5809   89.8624   17.8360 C   0  0  0  0  0  0  0  0  0  0  0  0
   54.4407   90.9659   17.0293 C   0  0  0  0  0  0  0  0  0  0  0  0
   53.2857   91.7424   17.0165 C   0  0  0  0  0  0  0  0  0  0  0  0
   55.3144   86.4339   23.5170 C   0  0  0  0  0  0  0  0  0  0  0  0
   56.6950   86.6489   23.5641 C   0  0  0  0  0  0  0  0  0  0  0  0
   57.0246   86.9661   24.8005 N   0  0  0  0  0  0  0  0  0  0  0  0
   55.9208   86.9627   25.5440 N   0  0  0  0  0  0  0  0  0  0  0  0
   54.8787   86.6440   24.7953 C   0  0  0  0  0  0  0  0  0  0  0  0
   58.3649   87.2676   25.3002 C   0  0  0  0  0  0  0  0  0  0  0  0
   57.6391   86.5165   22.4297 C   0  0  0  0  0  0  0  0  0  0  0  0
 12 13  1  0  0  0
 13 14  2  0  0  0
 13 18  1  0  0  0
 14 15  1  0  0  0
 15 16  2  0  0  0
 15  1  1  0  0  0
 16 17  1  0  0  0
 17 18  2  0  0  0
  1  2  1  0  0  0
  1  9  1  0  0  0
  2  3  2  0  0  0
  2  4  1  0  0  0
  4  5  1  0  0  0
  4  8  1  0  0  0
  5  6  1  0  0  0
  6  7  1  0  0  0
  7  8  2  0  0  0
  7 19  1  0  0  0
  8  9  1  0  0  0
  9 10  2  0  0  0
 19 20  2  0  0  0
 19 23  1  0  0  0
 20 21  1  0  0  0
 20 25  1  0  0  0
 21 22  1  0  0  0
 21 24  1  0  0  0
 22 23  2  0  0  0
  6 11  1  0  0  0
M  END
> <minimizedAffinity>
-9.03632

$$$$
211


 22 25  0  0  0  0  0  0  0  0999 V2000
   49.1381  100.1228   28.6708 N   0  0  0  0  0  0  0  0  0  0  0  0
   49.6276  100.4240   27.3718 C   0  0  0  0  0  0  0  0  0  0  0  0
   49.2824  101.4518   26.6797 O   0  0  0  0  0  0  0  0  0  0  0  0
   50.5783   99.3793   26.9650 C   0  0  0  0  0  0  0  0  0  0  0  0
   51.9577   99.8256   27.3400 C   0  0  0  0  0  0  0  0  0  0  0  0
   51.8686   99.7138   28.7513 O   0  0  0  0  0  0  0  0  0  0  0  0
   51.6063   98.3183   28.7798 C   0  0  0  0  0  0  0  0  0  0  0  0
   50.3387   98.2668   27.9470 C   0  0  0  0  0  0  0  0  0  0  0  0
   49.2407   98.7175   28.8256 C   0  0  0  0  0  0  0  0  0  0  0  0
   48.5396   97.9792   29.5660 O   0  0  0  0  0  0  0  0  0  0  0  0
   52.7659   97.8265   28.0015 C   0  0  0  0  0  0  0  0  0  0  0  0
   53.0040   98.7954   27.0974 C   0  0  0  0  0  0  0  0  0  0  0  0
   50.3364  103.5609   32.5219 Br  0  0  0  0  0  0  0  0  0  0  0  0
   49.0568  102.6681   31.4210 C   0  0  0  0  0  0  0  0  0  0  0  0
   49.4731  101.7699   30.4912 C   0  0  0  0  0  0  0  0  0  0  0  0
   48.6317  101.0667   29.6427 C   0  0  0  0  0  0  0  0  0  0  0  0
   47.2855  101.3195   29.7760 C   0  0  0  0  0  0  0  0  0  0  0  0
   46.8241  102.2381   30.7221 C   0  0  0  0  0  0  0  0  0  0  0  0
   47.7028  102.9122   31.5442 C   0  0  0  0  0  0  0  0  0  0  0  0
   52.3341  101.1833   26.8825 C   0  0  0  0  0  0  0  0  0  0  0  0
   51.7997  101.3910   25.6097 O   0  0  0  0  0  0  0  0  0  0  0  0
   52.4891  101.7628   25.0046 H   0  0  0  0  0  0  0  0  0  0  0  0
 13 14  1  0  0  0
 14 15  2  0  0  0
 14 19  1  0  0  0
 15 16  1  0  0  0
 16 17  2  0  0  0
 16  1  1  0  0  0
 17 18  1  0  0  0
 18 19  2  0  0  0
  1  2  1  0  0  0
  1  9  1  0  0  0
  2  3  2  0  0  0
  2  4  1  0  0  0
  4  5  1  0  0  0
  4  8  1  0  0  0
  5  6  1  0  0  0
  5 12  1  0  0  0
  5 20  1  0  0  0
  6  7  1  0  0  0
  7  8  1  0  0  0
  7 11  1  0  0  0
  8  9  1  0  0  0
  9 10  2  0  0  0
 11 12  2  0  0  0
 20 21  1  0  0  0
 21 22  1  0  0  0
M  END
> <minimizedAffinity>
-8.31560

$$$$
213


 25 28  0  0  0  0  0  0  0  0999 V2000
   54.8779   89.3947   20.2290 N   0  0  0  0  0  0  0  0  0  0  0  0
   55.8437   89.7662   21.2368 C   0  0  0  0  0  0  0  0  0  0  0  0
   56.1591   90.9017   21.6092 O   0  0  0  0  0  0  0  0  0  0  0  0
   56.4270   88.5072   21.7843 C   0  0  0  0  0  0  0  0  0  0  0  0
   56.7145   88.5536   23.1361 O   0  0  0  0  0  0  0  0  0  0  0  0
   56.5256   87.2423   23.5038 N   0  0  0  0  0  0  0  0  0  0  0  0
   55.2998   86.8626   22.8529 C   0  0  0  0  0  0  0  0  0  0  0  0
   55.1988   87.6192   21.7868 C   0  0  0  0  0  0  0  0  0  0  0  0
   54.4812   88.0506   20.5812 C   0  0  0  0  0  0  0  0  0  0  0  0
   53.6677   87.3279   19.9958 O   0  0  0  0  0  0  0  0  0  0  0  0
   57.1062   86.6458   24.1030 H   0  0  0  0  0  0  0  0  0  0  0  0
   50.9256   92.1523   18.0556 Br  0  0  0  0  0  0  0  0  0  0  0  0
   52.7094   91.4899   18.0680 C   0  0  0  0  0  0  0  0  0  0  0  0
   53.1619   90.6930   19.1245 C   0  0  0  0  0  0  0  0  0  0  0  0
   54.4478   90.2031   19.1520 C   0  0  0  0  0  0  0  0  0  0  0  0
   55.2728   90.5259   18.1033 C   0  0  0  0  0  0  0  0  0  0  0  0
   54.8231   91.3246   17.0421 C   0  0  0  0  0  0  0  0  0  0  0  0
   53.5348   91.8142   17.0167 C   0  0  0  0  0  0  0  0  0  0  0  0
   54.3405   85.8698   23.2552 C   0  0  0  0  0  0  0  0  0  0  0  0
   53.7356   85.0026   22.3479 C   0  0  0  0  0  0  0  0  0  0  0  0
   52.8994   84.1779   23.0039 N   0  0  0  0  0  0  0  0  0  0  0  0
   52.9820   84.5214   24.2778 N   0  0  0  0  0  0  0  0  0  0  0  0
   53.8292   85.5272   24.4857 C   0  0  0  0  0  0  0  0  0  0  0  0
   54.1913   86.1816   25.7882 C   0  0  0  0  0  0  0  0  0  0  0  0
   52.0682   83.1174   22.4111 C   0  0  0  0  0  0  0  0  0  0  0  0
 12 13  1  0  0  0
 13 14  2  0  0  0
 13 18  1  0  0  0
 14 15  1  0  0  0
 15 16  2  0  0  0
 15  1  1  0  0  0
 16 17  1  0  0  0
 17 18  2  0  0  0
  1  2  1  0  0  0
  1  9  1  0  0  0
  2  3  2  0  0  0
  2  4  1  0  0  0
  4  5  1  0  0  0
  4  8  1  0  0  0
  5  6  1  0  0  0
  6  7  1  0  0  0
  7  8  2  0  0  0
  7 19  1  0  0  0
  8  9  1  0  0  0
  9 10  2  0  0  0
 19 20  2  0  0  0
 19 23  1  0  0  0
 20 21  1  0  0  0
 21 22  1  0  0  0
 21 25  1  0  0  0
 22 23  2  0  0  0
 23 24  1  0  0  0
  6 11  1  0  0  0
M  END
> <minimizedAffinity>
-9.03980

$$$$
216


 28 31  0  0  0  0  0  0  0  0999 V2000
   54.5766   86.6812   25.0429 C   0  0  0  0  0  0  0  0  0  0  0  0
   54.3572   87.7278   25.7025 O   0  0  0  0  0  0  0  0  0  0  0  0
   54.3839   85.3983   25.5976 N   0  0  0  0  0  0  0  0  0  0  0  0
   54.6259   84.1645   24.8627 C   0  0  0  0  0  0  0  0  0  0  0  0
   53.7209   83.0743   25.4223 C   0  0  0  0  0  0  0  0  0  0  0  0
   52.5037   83.6007   26.0080 N   0  0  0  0  0  0  0  0  0  0  0  0
   52.8266   84.3230   27.1879 C   0  0  0  0  0  0  0  0  0  0  0  0
   53.9130   85.3239   26.9864 C   0  0  0  0  0  0  0  0  0  0  0  0
   55.7873   88.0243   21.9401 N   0  0  0  0  0  0  0  0  0  0  0  0
   55.3004   88.2859   23.2864 C   0  0  0  0  0  0  0  0  0  0  0  0
   55.0382   86.8160   23.6756 C   0  0  0  0  0  0  0  0  0  0  0  0
   56.4641   86.3032   23.4442 C   0  0  0  0  0  0  0  0  0  0  0  0
   56.7148   86.9621   22.1323 C   0  0  0  0  0  0  0  0  0  0  0  0
   57.6082   86.6320   21.3190 O   0  0  0  0  0  0  0  0  0  0  0  0
   52.0323   88.5078   18.3092 Br  0  0  0  0  0  0  0  0  0  0  0  0
   53.6925   89.0286   19.0439 C   0  0  0  0  0  0  0  0  0  0  0  0
   54.1599   88.3903   20.1873 C   0  0  0  0  0  0  0  0  0  0  0  0
   55.3644   88.7161   20.7824 C   0  0  0  0  0  0  0  0  0  0  0  0
   56.0834   89.7194   20.1708 C   0  0  0  0  0  0  0  0  0  0  0  0
   55.6808   90.3935   19.0364 C   0  0  0  0  0  0  0  0  0  0  0  0
   54.4731   90.0355   18.4778 C   0  0  0  0  0  0  0  0  0  0  0  0
   51.6771   84.2490   25.0531 C   0  0  0  0  0  0  0  0  0  0  0  0
   50.8150   83.3109   24.2474 C   0  0  0  0  0  0  0  0  0  0  0  0
   51.2335   83.1570   22.8837 N   0  0  0  0  0  0  0  0  0  0  0  0
   51.0098   82.1346   22.0562 C   0  0  0  0  0  0  0  0  0  0  0  0
   51.5852   82.3874   20.8610 N   0  0  0  0  0  0  0  0  0  0  0  0
   52.1809   83.5837   20.9294 C   0  0  0  0  0  0  0  0  0  0  0  0
   51.9548   84.0567   22.2010 C   0  0  0  0  0  0  0  0  0  0  0  0
 15 16  1  0  0  0
 16 17  2  0  0  0
 16 21  1  0  0  0
 17 18  1  0  0  0
 18 19  2  0  0  0
 18  9  1  0  0  0
 19 20  1  0  0  0
 20 21  2  0  0  0
  9 10  1  0  0  0
  9 13  1  0  0  0
 10 11  1  0  0  0
 11 12  1  0  0  0
 11  1  1  0  0  0
 12 13  1  0  0  0
 13 14  2  0  0  0
  1  2  2  0  0  0
  1  3  1  0  0  0
  3  4  1  0  0  0
  3  8  1  0  0  0
  4  5  1  0  0  0
  5  6  1  0  0  0
  6  7  1  0  0  0
  6 22  1  0  0  0
  7  8  1  0  0  0
 22 23  1  0  0  0
 23 24  1  0  0  0
 24 25  1  0  0  0
 24 28  1  0  0  0
 25 26  2  0  0  0
 26 27  1  0  0  0
 27 28  2  0  0  0
M  END
> <minimizedAffinity>
-7.90676

$$$$
219


 27 30  0  0  0  0  0  0  0  0999 V2000
   53.6136   85.5640   20.9255 N   0  0  0  0  0  0  0  0  0  0  0  0
   54.7330   86.3831   21.2388 C   0  0  0  0  0  0  0  0  0  0  0  0
   55.8623   85.7798   21.2352 O   0  0  0  0  0  0  0  0  0  0  0  0
   52.6695   86.0039   20.9090 H   0  0  0  0  0  0  0  0  0  0  0  0
   54.6674   87.8248   21.5546 C   0  0  0  0  0  0  0  0  0  0  0  0
   54.3853   88.6741   20.4296 N   0  0  0  0  0  0  0  0  0  0  0  0
   55.2076   89.8076   20.1050 C   0  0  0  0  0  0  0  0  0  0  0  0
   56.0407   90.3909   20.8428 O   0  0  0  0  0  0  0  0  0  0  0  0
   54.9085   90.1910   18.7254 C   0  0  0  0  0  0  0  0  0  0  0  0
   53.8406   89.2066   18.2080 C   0  0  0  0  0  0  0  0  0  0  0  0
   52.7616   90.0405   17.6127 C   0  0  0  0  0  0  0  0  0  0  0  0
   53.5660   91.2815   17.1714 C   0  0  0  0  0  0  0  0  0  0  0  0
   54.1698   91.4924   18.5743 C   0  0  0  0  0  0  0  0  0  0  0  0
   52.9030   91.4083   19.3772 C   0  0  0  0  0  0  0  0  0  0  0  0
   52.0116   90.6634   18.7318 C   0  0  0  0  0  0  0  0  0  0  0  0
   53.3342   88.5834   19.4585 C   0  0  0  0  0  0  0  0  0  0  0  0
   52.2183   88.0736   19.6593 O   0  0  0  0  0  0  0  0  0  0  0  0
   53.7330   84.1677   20.6339 C   0  0  0  0  0  0  0  0  0  0  0  0
   52.5616   83.7005   19.7556 C   0  0  0  0  0  0  0  0  0  0  0  0
   52.9397   83.4344   18.5478 O   0  0  0  0  0  0  0  0  0  0  0  0
   52.0922   80.6757   14.2186 Br  0  0  0  0  0  0  0  0  0  0  0  0
   52.9715   82.0274   15.2413 C   0  0  0  0  0  0  0  0  0  0  0  0
   52.6530   82.2691   16.5496 C   0  0  0  0  0  0  0  0  0  0  0  0
   53.2842   83.2579   17.3260 C   0  0  0  0  0  0  0  0  0  0  0  0
   54.2814   83.9898   16.6501 C   0  0  0  0  0  0  0  0  0  0  0  0
   54.6035   83.7492   15.3371 C   0  0  0  0  0  0  0  0  0  0  0  0
   53.9472   82.7641   14.6264 C   0  0  0  0  0  0  0  0  0  0  0  0
 21 22  1  0  0  0
 22 23  2  0  0  0
 22 27  1  0  0  0
 23 24  1  0  0  0
 24 25  2  0  0  0
 24 20  1  0  0  0
 25 26  1  0  0  0
 26 27  2  0  0  0
 20 19  1  0  0  0
 19 18  1  0  0  0
 18  1  1  0  0  0
  1  2  1  0  0  0
  2  3  2  0  0  0
  2  5  1  0  0  0
  5  6  1  0  0  0
  6  7  1  0  0  0
  6 16  1  0  0  0
  7  8  2  0  0  0
  7  9  1  0  0  0
  9 10  1  0  0  0
  9 13  1  0  0  0
 10 11  1  0  0  0
 10 16  1  0  0  0
 11 12  1  0  0  0
 11 15  1  0  0  0
 12 13  1  0  0  0
 13 14  1  0  0  0
 14 15  2  0  0  0
 16 17  2  0  0  0
  1  4  1  0  0  0
M  END
> <minimizedAffinity>
-8.77786

$$$$
226


 30 33  0  0  0  0  0  0  0  0999 V2000
   53.2595   83.4106   19.6588 N   0  0  0  0  0  0  0  0  0  0  0  0
   54.1196   82.8542   18.7896 C   0  0  0  0  0  0  0  0  0  0  0  0
   54.5960   81.6630   19.3029 C   0  0  0  0  0  0  0  0  0  0  0  0
   53.9948   81.5330   20.4918 N   0  0  0  0  0  0  0  0  0  0  0  0
   53.1803   82.5757   20.7335 C   0  0  0  0  0  0  0  0  0  0  0  0
   55.4747   80.9269   18.5985 N   0  0  0  0  0  0  0  0  0  0  0  0
   55.9014   81.3376   17.3914 C   0  0  0  0  0  0  0  0  0  0  0  0
   56.7204   80.6817   16.7009 O   0  0  0  0  0  0  0  0  0  0  0  0
   55.4396   82.5090   16.8734 N   0  0  0  0  0  0  0  0  0  0  0  0
   54.5609   83.2797   17.5390 C   0  0  0  0  0  0  0  0  0  0  0  0
   54.1541   84.3704   17.0215 O   0  0  0  0  0  0  0  0  0  0  0  0
   55.9935   79.6747   19.1093 C   0  0  0  0  0  0  0  0  0  0  0  0
   55.7958   82.7916   15.9308 H   0  0  0  0  0  0  0  0  0  0  0  0
   52.3623   82.8214   21.8624 N   0  0  0  0  0  0  0  0  0  0  0  0
   52.8962   83.5671   22.9560 C   0  0  0  0  0  0  0  0  0  0  0  0
   51.9306   84.1045   23.9454 C   0  0  0  0  0  0  0  0  0  0  0  0
   50.6841   83.4043   24.0451 N   0  0  0  0  0  0  0  0  0  0  0  0
   50.1347   83.2754   22.7094 C   0  0  0  0  0  0  0  0  0  0  0  0
   51.0192   82.3297   21.8950 C   0  0  0  0  0  0  0  0  0  0  0  0
   50.7816   82.1483   24.7323 C   0  0  0  0  0  0  0  0  0  0  0  0
   52.5404   84.6434   19.5033 C   0  0  0  0  0  0  0  0  0  0  0  0
   53.3308   85.8419   19.9245 C   0  0  0  0  0  0  0  0  0  0  0  0
   54.3049   85.7242   20.6856 O   0  0  0  0  0  0  0  0  0  0  0  0
   51.8292   91.5077   17.9290 Br  0  0  0  0  0  0  0  0  0  0  0  0
   52.2662   89.7550   18.5235 C   0  0  0  0  0  0  0  0  0  0  0  0
   53.3154   89.5591   19.4098 C   0  0  0  0  0  0  0  0  0  0  0  0
   53.6575   88.2950   19.8605 C   0  0  0  0  0  0  0  0  0  0  0  0
   52.9743   87.1770   19.4490 C   0  0  0  0  0  0  0  0  0  0  0  0
   51.9303   87.3853   18.5653 C   0  0  0  0  0  0  0  0  0  0  0  0
   51.5788   88.6355   18.1098 C   0  0  0  0  0  0  0  0  0  0  0  0
 24 25  1  0  0  0
 25 26  2  0  0  0
 25 30  1  0  0  0
 26 27  1  0  0  0
 27 28  2  0  0  0
 28 29  1  0  0  0
 28 22  1  0  0  0
 29 30  2  0  0  0
 22 23  2  0  0  0
 22 21  1  0  0  0
 21  1  1  0  0  0
  1  2  1  0  0  0
  1  5  1  0  0  0
  2  3  2  0  0  0
  2 10  1  0  0  0
  3  4  1  0  0  0
  3  6  1  0  0  0
  4  5  2  0  0  0
  5 14  1  0  0  0
 14 15  1  0  0  0
 14 19  1  0  0  0
 15 16  1  0  0  0
 16 17  1  0  0  0
 17 18  1  0  0  0
 17 20  1  0  0  0
 18 19  1  0  0  0
  6  7  1  0  0  0
  6 12  1  0  0  0
  7  8  2  0  0  0
  7  9  1  0  0  0
  9 10  1  0  0  0
 10 11  2  0  0  0
  9 13  1  0  0  0
M  END
> <minimizedAffinity>
-8.31067

$$$$
231


 34 37  0  0  0  0  0  0  0  0999 V2000
   52.7625   84.3719   22.2978 C   0  0  0  0  0  0  0  0  0  0  0  0
   52.8212   85.1373   23.5971 C   0  0  0  0  0  0  0  0  0  0  0  0
   52.1329   84.2487   24.5051 N   0  0  0  0  0  0  0  0  0  0  0  0
   52.4460   82.9251   24.0836 C   0  0  0  0  0  0  0  0  0  0  0  0
   52.1514   81.8583   24.7060 O   0  0  0  0  0  0  0  0  0  0  0  0
   53.1723   83.0097   22.8019 C   0  0  0  0  0  0  0  0  0  0  0  0
   53.9200   82.1554   22.3000 O   0  0  0  0  0  0  0  0  0  0  0  0
   54.1635   85.5060   24.0196 C   0  0  0  0  0  0  0  0  0  0  0  0
   54.7828   86.6861   23.5834 C   0  0  0  0  0  0  0  0  0  0  0  0
   56.0545   87.0312   23.9916 C   0  0  0  0  0  0  0  0  0  0  0  0
   56.7709   86.2219   24.8540 C   0  0  0  0  0  0  0  0  0  0  0  0
   56.1805   85.0573   25.2961 C   0  0  0  0  0  0  0  0  0  0  0  0
   54.9024   84.7239   24.8762 C   0  0  0  0  0  0  0  0  0  0  0  0
   58.0529   86.5457   25.2802 O   0  0  0  0  0  0  0  0  0  0  0  0
   56.6716   88.1939   23.5645 O   0  0  0  0  0  0  0  0  0  0  0  0
   56.0197   89.1944   22.8247 C   0  0  0  0  0  0  0  0  0  0  0  0
   53.6440   84.8592   21.2531 C   0  0  0  0  0  0  0  0  0  0  0  0
   54.7531   84.3267   21.0414 O   0  0  0  0  0  0  0  0  0  0  0  0
   52.0098   89.6777   17.8274 Br  0  0  0  0  0  0  0  0  0  0  0  0
   52.4983   88.1733   18.8759 C   0  0  0  0  0  0  0  0  0  0  0  0
   53.5792   88.2746   19.7185 C   0  0  0  0  0  0  0  0  0  0  0  0
   53.9432   87.1956   20.4813 C   0  0  0  0  0  0  0  0  0  0  0  0
   53.2423   85.9851   20.4298 C   0  0  0  0  0  0  0  0  0  0  0  0
   52.1678   85.9494   19.5645 C   0  0  0  0  0  0  0  0  0  0  0  0
   51.7716   87.0166   18.7797 C   0  0  0  0  0  0  0  0  0  0  0  0
   51.2839   84.5508   25.6303 C   0  0  0  0  0  0  0  0  0  0  0  0
   52.0217   84.6358   26.9319 C   0  0  0  0  0  0  0  0  0  0  0  0
   52.1081   83.4316   27.6638 N   0  0  0  0  0  0  0  0  0  0  0  0
   51.5030   83.6556   28.9809 C   0  0  0  0  0  0  0  0  0  0  0  0
   52.3320   84.5435   29.8487 C   0  0  0  0  0  0  0  0  0  0  0  0
   53.6194   84.7381   29.4116 O   0  0  0  0  0  0  0  0  0  0  0  0
   54.1833   83.5625   28.9810 C   0  0  0  0  0  0  0  0  0  0  0  0
   53.4085   82.9017   27.8731 C   0  0  0  0  0  0  0  0  0  0  0  0
   51.5136   82.6750   27.2242 H   0  0  0  0  0  0  0  0  0  0  0  0
 19 20  1  0  0  0
 20 21  2  0  0  0
 20 25  1  0  0  0
 21 22  1  0  0  0
 22 23  2  0  0  0
 23 24  1  0  0  0
 23 17  1  0  0  0
 24 25  2  0  0  0
 17 18  2  0  0  0
 17  1  1  0  0  0
  1  2  1  0  0  0
  1  6  1  0  0  0
  2  3  1  0  0  0
  2  8  1  0  0  0
  3  4  1  0  0  0
  3 26  1  0  0  0
  4  5  2  0  0  0
  4  6  1  0  0  0
  6  7  2  0  0  0
 26 27  1  0  0  0
 27 28  1  0  0  0
 28 29  1  0  0  0
 28 33  1  0  0  0
 29 30  1  0  0  0
 30 31  1  0  0  0
 31 32  1  0  0  0
 32 33  1  0  0  0
  8  9  2  0  0  0
  8 13  1  0  0  0
  9 10  1  0  0  0
 10 11  2  0  0  0
 10 15  1  0  0  0
 11 12  1  0  0  0
 11 14  1  0  0  0
 12 13  2  0  0  0
 15 16  1  0  0  0
 28 34  1  0  0  0
M  CHG 1  14  -1
M  CHG 1  28   1
M  END
> <minimizedAffinity>
-7.40187

$$$$
235


 25 28  0  0  0  0  0  0  0  0999 V2000
   53.4145   88.3971   18.2789 C   0  0  0  0  0  0  0  0  0  0  0  0
   52.7989   89.6927   18.5199 N   0  0  0  0  0  0  0  0  0  0  0  0
   51.5830   90.1665   18.9680 N   0  0  0  0  0  0  0  0  0  0  0  0
   51.3435   91.4096   19.1969 C   0  0  0  0  0  0  0  0  0  0  0  0
   52.3801   92.3904   18.9716 C   0  0  0  0  0  0  0  0  0  0  0  0
   53.5556   92.0206   18.5191 C   0  0  0  0  0  0  0  0  0  0  0  0
   53.8702   90.6374   18.2143 C   0  0  0  0  0  0  0  0  0  0  0  0
   55.0067   90.0378   18.9642 C   0  0  0  0  0  0  0  0  0  0  0  0
   54.6867   88.5434   19.0844 C   0  0  0  0  0  0  0  0  0  0  0  0
   54.4837   88.3401   20.5172 C   0  0  0  0  0  0  0  0  0  0  0  0
   53.9466   87.3274   21.0453 O   0  0  0  0  0  0  0  0  0  0  0  0
   54.9854   89.4632   21.2151 N   0  0  0  0  0  0  0  0  0  0  0  0
   55.1613   90.5599   20.3275 C   0  0  0  0  0  0  0  0  0  0  0  0
   55.4029   91.7509   20.6403 O   0  0  0  0  0  0  0  0  0  0  0  0
   52.5596   87.3003   18.7536 C   0  0  0  0  0  0  0  0  0  0  0  0
   51.5461   87.6323   19.4504 O   0  0  0  0  0  0  0  0  0  0  0  0
   53.5264   81.3220   17.5527 Br  0  0  0  0  0  0  0  0  0  0  0  0
   53.2383   83.1751   17.9101 C   0  0  0  0  0  0  0  0  0  0  0  0
   52.5098   83.5861   19.0049 C   0  0  0  0  0  0  0  0  0  0  0  0
   52.2754   84.9091   19.3037 C   0  0  0  0  0  0  0  0  0  0  0  0
   52.7767   85.8950   18.4937 C   0  0  0  0  0  0  0  0  0  0  0  0
   53.5114   85.4939   17.3893 C   0  0  0  0  0  0  0  0  0  0  0  0
   53.7405   84.1687   17.0986 C   0  0  0  0  0  0  0  0  0  0  0  0
   55.2858   89.5146   22.6267 C   0  0  0  0  0  0  0  0  0  0  0  0
   56.4046   88.6051   23.0347 C   0  0  0  0  0  0  0  0  0  0  0  0
 17 18  1  0  0  0
 18 19  2  0  0  0
 18 23  1  0  0  0
 19 20  1  0  0  0
 20 21  2  0  0  0
 21 22  1  0  0  0
 21 15  1  0  0  0
 22 23  2  0  0  0
 15 16  2  0  0  0
 15  1  1  0  0  0
  1  2  1  0  0  0
  1  9  1  0  0  0
  2  3  1  0  0  0
  2  7  1  0  0  0
  3  4  2  0  0  0
  4  5  1  0  0  0
  5  6  2  0  0  0
  6  7  1  0  0  0
  7  8  1  0  0  0
  8  9  1  0  0  0
  8 13  1  0  0  0
  9 10  1  0  0  0
 10 11  2  0  0  0
 10 12  1  0  0  0
 12 13  1  0  0  0
 12 24  1  0  0  0
 13 14  2  0  0  0
 24 25  1  0  0  0
M  END
> <minimizedAffinity>
-7.04263

$$$$
243


 30 33  0  0  0  0  0  0  0  0999 V2000
   47.9695  101.7405   28.8295 C   0  0  0  0  0  0  0  0  0  0  0  0
   47.9511  100.3527   29.4220 C   0  0  0  0  0  0  0  0  0  0  0  0
   48.9769   99.6392   28.6918 N   0  0  0  0  0  0  0  0  0  0  0  0
   49.2835  100.3384   27.4551 C   0  0  0  0  0  0  0  0  0  0  0  0
   48.5146  101.6129   27.4340 C   0  0  0  0  0  0  0  0  0  0  0  0
   50.7512  100.5329   27.4485 C   0  0  0  0  0  0  0  0  0  0  0  0
   51.2198  101.6638   27.1906 O   0  0  0  0  0  0  0  0  0  0  0  0
   51.5736   99.4172   27.7383 N   0  0  0  0  0  0  0  0  0  0  0  0
   51.1022   98.2241   28.4028 C   0  0  0  0  0  0  0  0  0  0  0  0
   49.7199   98.4479   28.9148 C   0  0  0  0  0  0  0  0  0  0  0  0
   49.1420   97.5307   29.6017 O   0  0  0  0  0  0  0  0  0  0  0  0
   52.5814   99.4943   27.4396 H   0  0  0  0  0  0  0  0  0  0  0  0
   48.3701  103.2839   30.7145 C   0  0  0  0  0  0  0  0  0  0  0  0
   47.1839  103.0902   31.1473 O   0  0  0  0  0  0  0  0  0  0  0  0
   48.8246  102.6394   29.5611 N   0  0  0  0  0  0  0  0  0  0  0  0
   49.7850  102.7982   29.2136 H   0  0  0  0  0  0  0  0  0  0  0  0
   51.8730  107.1637   34.0558 Br  0  0  0  0  0  0  0  0  0  0  0  0
   50.7810  106.0008   33.0234 C   0  0  0  0  0  0  0  0  0  0  0  0
   49.6711  106.4277   32.3232 C   0  0  0  0  0  0  0  0  0  0  0  0
   48.8986  105.5566   31.5823 C   0  0  0  0  0  0  0  0  0  0  0  0
   49.1937  104.2114   31.5032 C   0  0  0  0  0  0  0  0  0  0  0  0
   50.3000  103.7859   32.2016 C   0  0  0  0  0  0  0  0  0  0  0  0
   51.0765  104.6447   32.9421 C   0  0  0  0  0  0  0  0  0  0  0  0
   51.1929   97.0200   27.4968 C   0  0  0  0  0  0  0  0  0  0  0  0
   52.6073   96.5977   27.2922 C   0  0  0  0  0  0  0  0  0  0  0  0
   53.6513   97.3052   27.8893 C   0  0  0  0  0  0  0  0  0  0  0  0
   54.9387   96.8695   27.6660 C   0  0  0  0  0  0  0  0  0  0  0  0
   55.2375   95.7687   26.8822 C   0  0  0  0  0  0  0  0  0  0  0  0
   54.1754   95.1039   26.3152 C   0  0  0  0  0  0  0  0  0  0  0  0
   52.8674   95.4929   26.5018 C   0  0  0  0  0  0  0  0  0  0  0  0
 17 18  1  0  0  0
 18 19  2  0  0  0
 18 23  1  0  0  0
 19 20  1  0  0  0
 20 21  2  0  0  0
 21 22  1  0  0  0
 21 13  1  0  0  0
 22 23  2  0  0  0
 13 14  2  0  0  0
 13 15  1  0  0  0
 15  1  1  0  0  0
  1  2  1  0  0  0
  1  5  1  0  0  0
  2  3  1  0  0  0
  3  4  1  0  0  0
  3 10  1  0  0  0
  4  5  1  0  0  0
  4  6  1  0  0  0
  6  7  2  0  0  0
  6  8  1  0  0  0
  8  9  1  0  0  0
  9 10  1  0  0  0
  9 24  1  0  0  0
 10 11  2  0  0  0
 24 25  1  0  0  0
 25 26  2  0  0  0
 25 30  1  0  0  0
 26 27  1  0  0  0
 27 28  2  0  0  0
 28 29  1  0  0  0
 29 30  2  0  0  0
 15 16  1  0  0  0
  8 12  1  0  0  0
M  END
> <minimizedAffinity>
-10.10369

$$$$
244


 25 28  0  0  0  0  0  0  0  0999 V2000
   47.6725  101.7333   28.8092 C   0  0  0  0  0  0  0  0  0  0  0  0
   47.5387  100.3161   29.3157 C   0  0  0  0  0  0  0  0  0  0  0  0
   48.6458   99.6334   28.6699 N   0  0  0  0  0  0  0  0  0  0  0  0
   48.9798  100.3292   27.4427 C   0  0  0  0  0  0  0  0  0  0  0  0
   48.1999  101.6001   27.4015 C   0  0  0  0  0  0  0  0  0  0  0  0
   50.4485  100.5472   27.4659 C   0  0  0  0  0  0  0  0  0  0  0  0
   50.9927  101.6377   27.1745 O   0  0  0  0  0  0  0  0  0  0  0  0
   51.3073   99.4835   27.8334 N   0  0  0  0  0  0  0  0  0  0  0  0
   50.8810   98.4053   28.7012 C   0  0  0  0  0  0  0  0  0  0  0  0
   51.2992   97.2146   27.8983 C   0  0  0  0  0  0  0  0  0  0  0  0
   52.6657   97.6676   27.3704 C   0  0  0  0  0  0  0  0  0  0  0  0
   52.6727   99.1944   27.4948 C   0  0  0  0  0  0  0  0  0  0  0  0
   49.4245   98.4840   28.9777 C   0  0  0  0  0  0  0  0  0  0  0  0
   48.8257   97.4899   29.5144 O   0  0  0  0  0  0  0  0  0  0  0  0
   48.1677  103.1781   30.7367 C   0  0  0  0  0  0  0  0  0  0  0  0
   46.9805  103.0689   31.1080 O   0  0  0  0  0  0  0  0  0  0  0  0
   48.5990  102.5165   29.5588 N   0  0  0  0  0  0  0  0  0  0  0  0
   49.5883  102.5818   29.2100 H   0  0  0  0  0  0  0  0  0  0  0  0
   51.9319  106.7770   34.0740 Br  0  0  0  0  0  0  0  0  0  0  0  0
   50.8150  105.6258   33.0591 C   0  0  0  0  0  0  0  0  0  0  0  0
   49.6459  106.1172   32.5041 C   0  0  0  0  0  0  0  0  0  0  0  0
   48.7999  105.3249   31.7598 C   0  0  0  0  0  0  0  0  0  0  0  0
   49.0963  103.9982   31.5391 C   0  0  0  0  0  0  0  0  0  0  0  0
   50.2454  103.5082   32.0824 C   0  0  0  0  0  0  0  0  0  0  0  0
   51.1124  104.2941   32.8383 C   0  0  0  0  0  0  0  0  0  0  0  0
 19 20  1  0  0  0
 20 21  2  0  0  0
 20 25  1  0  0  0
 21 22  1  0  0  0
 22 23  2  0  0  0
 23 24  1  0  0  0
 23 15  1  0  0  0
 24 25  2  0  0  0
 15 16  2  0  0  0
 15 17  1  0  0  0
 17  1  1  0  0  0
  1  2  1  0  0  0
  1  5  1  0  0  0
  2  3  1  0  0  0
  3  4  1  0  0  0
  3 13  1  0  0  0
  4  5  1  0  0  0
  4  6  1  0  0  0
  6  7  2  0  0  0
  6  8  1  0  0  0
  8  9  1  0  0  0
  8 12  1  0  0  0
  9 10  1  0  0  0
  9 13  1  0  0  0
 10 11  1  0  0  0
 11 12  1  0  0  0
 13 14  2  0  0  0
 17 18  1  0  0  0
M  END
> <minimizedAffinity>
-8.83005

$$$$
247


 23 26  0  0  0  0  0  0  0  0999 V2000
   51.0288   98.8770   28.2138 N   0  0  0  0  0  0  0  0  0  0  0  0
   51.1030  100.0354   29.0369 C   0  0  0  0  0  0  0  0  0  0  0  0
   52.2117  100.6359   29.2461 O   0  0  0  0  0  0  0  0  0  0  0  0
   49.7596  100.3883   29.5653 C   0  0  0  0  0  0  0  0  0  0  0  0
   48.8658   99.4087   28.8292 C   0  0  0  0  0  0  0  0  0  0  0  0
   48.3441  100.2880   27.7131 C   0  0  0  0  0  0  0  0  0  0  0  0
   47.8920  101.4722   28.5931 C   0  0  0  0  0  0  0  0  0  0  0  0
   49.3245  101.7454   29.0889 C   0  0  0  0  0  0  0  0  0  0  0  0
   49.9697  101.9361   27.7415 C   0  0  0  0  0  0  0  0  0  0  0  0
   49.4597  100.9642   26.9947 C   0  0  0  0  0  0  0  0  0  0  0  0
   49.7327   98.3257   28.3322 C   0  0  0  0  0  0  0  0  0  0  0  0
   49.3671   97.1585   28.0746 O   0  0  0  0  0  0  0  0  0  0  0  0
   53.1394   97.6278   27.9346 C   0  0  0  0  0  0  0  0  0  0  0  0
   53.2917   97.5014   29.1929 O   0  0  0  0  0  0  0  0  0  0  0  0
   52.0284   98.3030   27.3860 N   0  0  0  0  0  0  0  0  0  0  0  0
   51.9257   98.3828   26.3583 H   0  0  0  0  0  0  0  0  0  0  0  0
   57.5369   95.3628   24.2906 Br  0  0  0  0  0  0  0  0  0  0  0  0
   56.1540   96.0418   25.4235 C   0  0  0  0  0  0  0  0  0  0  0  0
   56.3437   97.2150   26.0939 C   0  0  0  0  0  0  0  0  0  0  0  0
   55.3558   97.7213   26.9132 C   0  0  0  0  0  0  0  0  0  0  0  0
   54.1469   97.0521   27.0766 C   0  0  0  0  0  0  0  0  0  0  0  0
   53.9734   95.8708   26.3927 C   0  0  0  0  0  0  0  0  0  0  0  0
   54.9481   95.3585   25.5764 C   0  0  0  0  0  0  0  0  0  0  0  0
 17 18  1  0  0  0
 18 19  2  0  0  0
 18 23  1  0  0  0
 19 20  1  0  0  0
 20 21  2  0  0  0
 21 22  1  0  0  0
 21 13  1  0  0  0
 22 23  2  0  0  0
 13 14  2  0  0  0
 13 15  1  0  0  0
 15  1  1  0  0  0
  1  2  1  0  0  0
  1 11  1  0  0  0
  2  3  2  0  0  0
  2  4  1  0  0  0
  4  5  1  0  0  0
  4  8  1  0  0  0
  5  6  1  0  0  0
  5 11  1  0  0  0
  6  7  1  0  0  0
  6 10  1  0  0  0
  7  8  1  0  0  0
  8  9  1  0  0  0
  9 10  2  0  0  0
 11 12  2  0  0  0
 15 16  1  0  0  0
M  END
> <minimizedAffinity>
-8.73551

$$$$
257


 31 34  0  0  0  0  0  0  0  0999 V2000
   53.8435   84.9517   23.6310 C   0  0  0  0  0  0  0  0  0  0  0  0
   54.5833   85.9756   23.2913 C   0  0  0  0  0  0  0  0  0  0  0  0
   55.1191   86.3317   21.9385 C   0  0  0  0  0  0  0  0  0  0  0  0
   54.9692   87.7820   21.9584 N   0  0  0  0  0  0  0  0  0  0  0  0
   55.3430   88.1605   23.2982 C   0  0  0  0  0  0  0  0  0  0  0  0
   55.7864   89.2764   23.6149 O   0  0  0  0  0  0  0  0  0  0  0  0
   55.1031   87.0058   24.1776 C   0  0  0  0  0  0  0  0  0  0  0  0
   55.3036   86.9215   25.4177 O   0  0  0  0  0  0  0  0  0  0  0  0
   53.4743   84.0261   22.6352 O   0  0  0  0  0  0  0  0  0  0  0  0
   52.0807   84.0950   29.5037 Br  0  0  0  0  0  0  0  0  0  0  0  0
   52.6443   84.3561   27.7024 C   0  0  0  0  0  0  0  0  0  0  0  0
   53.8244   83.8504   27.2007 C   0  0  0  0  0  0  0  0  0  0  0  0
   54.2163   84.0494   25.8948 C   0  0  0  0  0  0  0  0  0  0  0  0
   53.4181   84.7858   25.0100 C   0  0  0  0  0  0  0  0  0  0  0  0
   52.2416   85.2843   25.5275 C   0  0  0  0  0  0  0  0  0  0  0  0
   51.8442   85.0844   26.8479 C   0  0  0  0  0  0  0  0  0  0  0  0
   54.3228   85.6813   20.8689 C   0  0  0  0  0  0  0  0  0  0  0  0
   54.8461   84.6037   20.2627 N   0  0  0  0  0  0  0  0  0  0  0  0
   54.2181   83.9301   19.2960 C   0  0  0  0  0  0  0  0  0  0  0  0
   52.9740   84.3678   18.9056 C   0  0  0  0  0  0  0  0  0  0  0  0
   52.3995   85.4671   19.4991 C   0  0  0  0  0  0  0  0  0  0  0  0
   53.0863   86.1233   20.4878 C   0  0  0  0  0  0  0  0  0  0  0  0
   54.5550   88.6264   20.8759 C   0  0  0  0  0  0  0  0  0  0  0  0
   55.7100   89.4378   20.3097 C   0  0  0  0  0  0  0  0  0  0  0  0
   55.3235   90.9142   20.3951 C   0  0  0  0  0  0  0  0  0  0  0  0
   54.2904   91.2526   19.4355 N   0  0  0  0  0  0  0  0  0  0  0  0
   54.3099   91.0448   18.0981 C   0  0  0  0  0  0  0  0  0  0  0  0
   53.1611   91.5001   17.5701 N   0  0  0  0  0  0  0  0  0  0  0  0
   52.3877   92.0041   18.5432 C   0  0  0  0  0  0  0  0  0  0  0  0
   53.1144   91.8391   19.7050 C   0  0  0  0  0  0  0  0  0  0  0  0
   52.8870   91.4749   16.5478 H   0  0  0  0  0  0  0  0  0  0  0  0
 10 11  1  0  0  0
 11 12  2  0  0  0
 11 16  1  0  0  0
 12 13  1  0  0  0
 13 14  2  0  0  0
 14 15  1  0  0  0
 14  1  1  0  0  0
 15 16  2  0  0  0
  1  2  2  0  0  0
  1  9  1  0  0  0
  2  3  1  0  0  0
  2  7  1  0  0  0
  3  4  1  0  0  0
  3 17  1  0  0  0
  4  5  1  0  0  0
  4 23  1  0  0  0
  5  6  2  0  0  0
  5  7  1  0  0  0
  7  8  2  0  0  0
 23 24  1  0  0  0
 24 25  1  0  0  0
 25 26  1  0  0  0
 26 27  1  0  0  0
 26 30  1  0  0  0
 27 28  2  0  0  0
 28 29  1  0  0  0
 29 30  2  0  0  0
 17 18  2  0  0  0
 17 22  1  0  0  0
 18 19  1  0  0  0
 19 20  2  0  0  0
 20 21  1  0  0  0
 21 22  2  0  0  0
 28 31  1  0  0  0
M  CHG 1   9  -1
M  END
> <minimizedAffinity>
-7.98382

$$$$
263


 34 37  0  0  0  0  0  0  0  0999 V2000
   54.7809   88.1368   21.2112 C   0  0  0  0  0  0  0  0  0  0  0  0
   54.0098   87.1445   20.8527 C   0  0  0  0  0  0  0  0  0  0  0  0
   52.8838   87.1819   19.8523 C   0  0  0  0  0  0  0  0  0  0  0  0
   52.9059   85.8779   19.2846 N   0  0  0  0  0  0  0  0  0  0  0  0
   53.4060   84.9790   20.3039 C   0  0  0  0  0  0  0  0  0  0  0  0
   53.2748   83.7323   20.3521 O   0  0  0  0  0  0  0  0  0  0  0  0
   54.1099   85.7750   21.3034 C   0  0  0  0  0  0  0  0  0  0  0  0
   54.6842   85.3110   22.3455 O   0  0  0  0  0  0  0  0  0  0  0  0
   54.5677   89.3968   20.6089 O   0  0  0  0  0  0  0  0  0  0  0  0
   58.8823   87.5093   25.7023 Br  0  0  0  0  0  0  0  0  0  0  0  0
   57.6386   87.6774   24.2450 C   0  0  0  0  0  0  0  0  0  0  0  0
   56.5310   88.4717   24.4373 C   0  0  0  0  0  0  0  0  0  0  0  0
   55.6328   88.6073   23.4169 C   0  0  0  0  0  0  0  0  0  0  0  0
   55.8301   87.9553   22.2006 C   0  0  0  0  0  0  0  0  0  0  0  0
   56.9247   87.1748   22.0230 C   0  0  0  0  0  0  0  0  0  0  0  0
   57.8394   87.0292   23.0447 C   0  0  0  0  0  0  0  0  0  0  0  0
   53.0066   88.3225   18.9536 C   0  0  0  0  0  0  0  0  0  0  0  0
   52.2821   89.4820   19.0230 C   0  0  0  0  0  0  0  0  0  0  0  0
   52.4649   90.5158   18.1419 C   0  0  0  0  0  0  0  0  0  0  0  0
   53.4010   90.3984   17.1506 C   0  0  0  0  0  0  0  0  0  0  0  0
   54.1682   89.2440   17.0286 C   0  0  0  0  0  0  0  0  0  0  0  0
   53.9599   88.2293   17.9267 C   0  0  0  0  0  0  0  0  0  0  0  0
   51.6840   91.6812   18.2728 N   0  0  0  0  0  0  0  0  0  0  0  0
   50.6288   91.8607   17.6123 O   0  0  0  0  0  0  0  0  0  0  0  0
   52.0973   92.6519   19.1563 O   0  0  0  0  0  0  0  0  0  0  0  0
   52.5029   85.3397   17.9986 C   0  0  0  0  0  0  0  0  0  0  0  0
   53.5911   84.6999   17.1986 C   0  0  0  0  0  0  0  0  0  0  0  0
   53.1212   83.5798   16.3995 N   0  0  0  0  0  0  0  0  0  0  0  0
   53.2173   82.3266   17.1550 C   0  0  0  0  0  0  0  0  0  0  0  0
   52.5473   81.2748   16.2603 C   0  0  0  0  0  0  0  0  0  0  0  0
   53.1745   81.1471   15.0452 O   0  0  0  0  0  0  0  0  0  0  0  0
   53.3421   82.3423   14.3635 C   0  0  0  0  0  0  0  0  0  0  0  0
   53.9530   83.4123   15.2344 C   0  0  0  0  0  0  0  0  0  0  0  0
   52.1440   83.6516   16.1050 H   0  0  0  0  0  0  0  0  0  0  0  0
 10 11  1  0  0  0
 11 12  2  0  0  0
 11 16  1  0  0  0
 12 13  1  0  0  0
 13 14  2  0  0  0
 14 15  1  0  0  0
 14  1  1  0  0  0
 15 16  2  0  0  0
  1  2  2  0  0  0
  1  9  1  0  0  0
  2  3  1  0  0  0
  2  7  1  0  0  0
  3  4  1  0  0  0
  3 17  1  0  0  0
  4  5  1  0  0  0
  4 26  1  0  0  0
  5  6  2  0  0  0
  5  7  1  0  0  0
  7  8  2  0  0  0
 26 27  1  0  0  0
 27 28  1  0  0  0
 28 29  1  0  0  0
 28 33  1  0  0  0
 29 30  1  0  0  0
 30 31  1  0  0  0
 31 32  1  0  0  0
 32 33  1  0  0  0
 17 18  2  0  0  0
 17 22  1  0  0  0
 18 19  1  0  0  0
 19 20  2  0  0  0
 19 23  1  0  0  0
 20 21  1  0  0  0
 21 22  2  0  0  0
 23 24  2  0  0  0
 23 25  1  0  0  0
 28 34  1  0  0  0
M  CHG 1   9  -1
M  CHG 1  25  -1
M  CHG 1  28   1
M  END
> <minimizedAffinity>
-9.05838

$$$$
265


 35 38  0  0  0  0  0  0  0  0999 V2000
   52.5110   86.6989   18.9243 C   0  0  0  0  0  0  0  0  0  0  0  0
   52.9610   86.0664   19.9854 C   0  0  0  0  0  0  0  0  0  0  0  0
   52.6528   84.6392   20.3603 C   0  0  0  0  0  0  0  0  0  0  0  0
   53.2823   84.4166   21.6154 N   0  0  0  0  0  0  0  0  0  0  0  0
   54.0843   85.5513   22.0041 C   0  0  0  0  0  0  0  0  0  0  0  0
   54.8163   85.6794   22.9953 O   0  0  0  0  0  0  0  0  0  0  0  0
   53.8793   86.5907   20.9696 C   0  0  0  0  0  0  0  0  0  0  0  0
   54.4317   87.7379   20.9716 O   0  0  0  0  0  0  0  0  0  0  0  0
   51.6694   85.9449   18.0737 O   0  0  0  0  0  0  0  0  0  0  0  0
   53.9795   92.5178   17.3451 Br  0  0  0  0  0  0  0  0  0  0  0  0
   53.5021   90.7396   17.8643 C   0  0  0  0  0  0  0  0  0  0  0  0
   54.1875   89.6664   17.3367 C   0  0  0  0  0  0  0  0  0  0  0  0
   53.8594   88.3782   17.7010 C   0  0  0  0  0  0  0  0  0  0  0  0
   52.8338   88.0824   18.6085 C   0  0  0  0  0  0  0  0  0  0  0  0
   52.1611   89.1652   19.1235 C   0  0  0  0  0  0  0  0  0  0  0  0
   52.4908   90.4764   18.7569 C   0  0  0  0  0  0  0  0  0  0  0  0
   53.2832   83.8244   19.2764 C   0  0  0  0  0  0  0  0  0  0  0  0
   52.5462   82.8363   18.7038 C   0  0  0  0  0  0  0  0  0  0  0  0
   53.0795   82.0504   17.7030 C   0  0  0  0  0  0  0  0  0  0  0  0
   54.3629   82.2639   17.2783 C   0  0  0  0  0  0  0  0  0  0  0  0
   55.1039   83.2617   17.8565 C   0  0  0  0  0  0  0  0  0  0  0  0
   54.5739   84.0541   18.8617 C   0  0  0  0  0  0  0  0  0  0  0  0
   54.9418   81.4341   16.2190 C   0  0  0  0  0  0  0  0  0  0  0  0
   55.7953   80.5596   16.5153 O   0  0  0  0  0  0  0  0  0  0  0  0
   54.6008   81.5603   14.9002 O   0  0  0  0  0  0  0  0  0  0  0  0
   54.0926   82.7544   14.3486 C   0  0  0  0  0  0  0  0  0  0  0  0
   53.2005   83.2501   22.4527 C   0  0  0  0  0  0  0  0  0  0  0  0
   52.3413   83.3924   23.6617 C   0  0  0  0  0  0  0  0  0  0  0  0
   51.1879   82.5438   23.6995 N   0  0  0  0  0  0  0  0  0  0  0  0
   51.4828   81.1390   23.5060 C   0  0  0  0  0  0  0  0  0  0  0  0
   50.2018   80.3742   23.7684 C   0  0  0  0  0  0  0  0  0  0  0  0
   49.3238   80.7245   22.7149 O   0  0  0  0  0  0  0  0  0  0  0  0
   48.9904   82.0645   22.9309 C   0  0  0  0  0  0  0  0  0  0  0  0
   50.2268   82.8986   22.6366 C   0  0  0  0  0  0  0  0  0  0  0  0
   50.6236   82.6839   24.5795 H   0  0  0  0  0  0  0  0  0  0  0  0
 10 11  1  0  0  0
 11 12  2  0  0  0
 11 16  1  0  0  0
 12 13  1  0  0  0
 13 14  2  0  0  0
 14 15  1  0  0  0
 14  1  1  0  0  0
 15 16  2  0  0  0
  1  2  2  0  0  0
  1  9  1  0  0  0
  2  3  1  0  0  0
  2  7  1  0  0  0
  3  4  1  0  0  0
  3 17  1  0  0  0
  4  5  1  0  0  0
  4 27  1  0  0  0
  5  6  2  0  0  0
  5  7  1  0  0  0
  7  8  2  0  0  0
 27 28  1  0  0  0
 28 29  1  0  0  0
 29 30  1  0  0  0
 29 34  1  0  0  0
 30 31  1  0  0  0
 31 32  1  0  0  0
 32 33  1  0  0  0
 33 34  1  0  0  0
 17 18  2  0  0  0
 17 22  1  0  0  0
 18 19  1  0  0  0
 19 20  2  0  0  0
 20 21  1  0  0  0
 20 23  1  0  0  0
 21 22  2  0  0  0
 23 24  2  0  0  0
 23 25  1  0  0  0
 25 26  1  0  0  0
 29 35  1  0  0  0
M  CHG 1   9  -1
M  CHG 1  29   1
M  END
> <minimizedAffinity>
-7.93669

$$$$
274


 31 34  0  0  0  0  0  0  0  0999 V2000
   53.3189   97.9378   28.2888 C   0  0  0  0  0  0  0  0  0  0  0  0
   52.3315   98.8000   28.1426 C   0  0  0  0  0  0  0  0  0  0  0  0
   51.1790   99.0977   29.0404 C   0  0  0  0  0  0  0  0  0  0  0  0
   50.9649  100.5394   28.8319 N   0  0  0  0  0  0  0  0  0  0  0  0
   51.2598  100.7553   27.4656 C   0  0  0  0  0  0  0  0  0  0  0  0
   50.8463  101.7103   26.7954 O   0  0  0  0  0  0  0  0  0  0  0  0
   52.1196   99.6761   26.9930 C   0  0  0  0  0  0  0  0  0  0  0  0
   52.6158   99.4644   25.8582 O   0  0  0  0  0  0  0  0  0  0  0  0
   53.3239   97.1512   29.4576 O   0  0  0  0  0  0  0  0  0  0  0  0
   57.9594   97.0381   24.2962 Br  0  0  0  0  0  0  0  0  0  0  0  0
   56.5160   97.3203   25.5268 C   0  0  0  0  0  0  0  0  0  0  0  0
   55.3861   96.5357   25.4929 C   0  0  0  0  0  0  0  0  0  0  0  0
   54.3460   96.7464   26.3854 C   0  0  0  0  0  0  0  0  0  0  0  0
   54.3982   97.7408   27.3366 C   0  0  0  0  0  0  0  0  0  0  0  0
   55.5296   98.5230   27.3693 C   0  0  0  0  0  0  0  0  0  0  0  0
   56.5817   98.3162   26.4721 C   0  0  0  0  0  0  0  0  0  0  0  0
   49.9832   98.2970   28.7689 C   0  0  0  0  0  0  0  0  0  0  0  0
   50.0246   97.2274   27.8663 C   0  0  0  0  0  0  0  0  0  0  0  0
   48.9506   96.4453   27.5715 C   0  0  0  0  0  0  0  0  0  0  0  0
   47.7329   96.6920   28.1780 C   0  0  0  0  0  0  0  0  0  0  0  0
   47.6611   97.7292   29.0633 C   0  0  0  0  0  0  0  0  0  0  0  0
   48.7652   98.5317   29.3653 C   0  0  0  0  0  0  0  0  0  0  0  0
   50.5451  101.4084   29.8699 C   0  0  0  0  0  0  0  0  0  0  0  0
   49.2539  102.1048   29.7344 C   0  0  0  0  0  0  0  0  0  0  0  0
   49.1460  103.3777   30.3783 N   0  0  0  0  0  0  0  0  0  0  0  0
   50.0053  103.5879   31.4901 C   0  0  0  0  0  0  0  0  0  0  0  0
   49.1867  103.5221   32.7610 C   0  0  0  0  0  0  0  0  0  0  0  0
   48.2248  102.5166   32.7188 O   0  0  0  0  0  0  0  0  0  0  0  0
   47.2315  102.7726   31.7921 C   0  0  0  0  0  0  0  0  0  0  0  0
   47.7887  103.7145   30.7482 C   0  0  0  0  0  0  0  0  0  0  0  0
   49.4204  104.0867   29.6304 H   0  0  0  0  0  0  0  0  0  0  0  0
 10 11  1  0  0  0
 11 12  2  0  0  0
 11 16  1  0  0  0
 12 13  1  0  0  0
 13 14  2  0  0  0
 14 15  1  0  0  0
 14  1  1  0  0  0
 15 16  2  0  0  0
  1  2  2  0  0  0
  1  9  1  0  0  0
  2  3  1  0  0  0
  2  7  1  0  0  0
  3  4  1  0  0  0
  3 17  1  0  0  0
  4  5  1  0  0  0
  4 23  1  0  0  0
  5  6  2  0  0  0
  5  7  1  0  0  0
  7  8  2  0  0  0
 23 24  1  0  0  0
 24 25  1  0  0  0
 25 26  1  0  0  0
 25 30  1  0  0  0
 26 27  1  0  0  0
 27 28  1  0  0  0
 28 29  1  0  0  0
 29 30  1  0  0  0
 17 18  2  0  0  0
 17 22  1  0  0  0
 18 19  1  0  0  0
 19 20  2  0  0  0
 20 21  1  0  0  0
 21 22  2  0  0  0
 25 31  1  0  0  0
M  CHG 1   9  -1
M  CHG 1  25   1
M  END
> <minimizedAffinity>
-8.29822

$$$$
278


 30 33  0  0  0  0  0  0  0  0999 V2000
   50.9635   99.3404   27.3092 N   0  0  0  0  0  0  0  0  0  0  0  0
   49.9344   98.6296   27.8286 C   0  0  0  0  0  0  0  0  0  0  0  0
   49.0570   99.5571   28.3672 C   0  0  0  0  0  0  0  0  0  0  0  0
   47.9040   99.1025   28.9794 C   0  0  0  0  0  0  0  0  0  0  0  0
   47.6020   97.7380   29.0674 C   0  0  0  0  0  0  0  0  0  0  0  0
   48.5119   96.8477   28.5135 C   0  0  0  0  0  0  0  0  0  0  0  0
   49.6647   97.2717   27.9000 C   0  0  0  0  0  0  0  0  0  0  0  0
   49.5410  100.8211   28.1775 N   0  0  0  0  0  0  0  0  0  0  0  0
   50.7201  100.6473   27.5227 C   0  0  0  0  0  0  0  0  0  0  0  0
   51.4819  101.6271   27.1675 N   0  0  0  0  0  0  0  0  0  0  0  0
   52.3903  101.4116   26.6567 H   0  0  0  0  0  0  0  0  0  0  0  0
   51.3120  102.6222   27.3293 H   0  0  0  0  0  0  0  0  0  0  0  0
   52.0733   98.7072   26.6584 C   0  0  0  0  0  0  0  0  0  0  0  0
   52.9213   97.8902   27.5855 C   0  0  0  0  0  0  0  0  0  0  0  0
   53.4089   98.5890   28.6726 O   0  0  0  0  0  0  0  0  0  0  0  0
   53.9563   99.3609   28.4300 H   0  0  0  0  0  0  0  0  0  0  0  0
   57.7897   95.5930   24.6038 Br  0  0  0  0  0  0  0  0  0  0  0  0
   56.2753   96.3066   25.5328 C   0  0  0  0  0  0  0  0  0  0  0  0
   55.0754   95.6342   25.4804 C   0  0  0  0  0  0  0  0  0  0  0  0
   53.9961   96.1503   26.1470 C   0  0  0  0  0  0  0  0  0  0  0  0
   54.1146   97.3206   26.8544 C   0  0  0  0  0  0  0  0  0  0  0  0
   55.3283   97.9644   26.8835 C   0  0  0  0  0  0  0  0  0  0  0  0
   56.4487   97.4820   26.2252 C   0  0  0  0  0  0  0  0  0  0  0  0
   48.8667  102.0108   28.6028 C   0  0  0  0  0  0  0  0  0  0  0  0
   48.8917  102.2174   30.0918 C   0  0  0  0  0  0  0  0  0  0  0  0
   47.7228  102.5819   30.7378 C   0  0  0  0  0  0  0  0  0  0  0  0
   47.6646  102.7883   32.1024 C   0  0  0  0  0  0  0  0  0  0  0  0
   48.8235  102.6179   32.8182 C   0  0  0  0  0  0  0  0  0  0  0  0
   49.9940  102.2583   32.2040 C   0  0  0  0  0  0  0  0  0  0  0  0
   50.0183  102.0610   30.8494 C   0  0  0  0  0  0  0  0  0  0  0  0
 17 18  1  0  0  0
 18 19  2  0  0  0
 18 23  1  0  0  0
 19 20  1  0  0  0
 20 21  2  0  0  0
 21 22  1  0  0  0
 21 14  1  0  0  0
 22 23  2  0  0  0
 14 15  1  0  0  0
 14 13  1  0  0  0
 13  1  1  0  0  0
  1  2  1  0  0  0
  1  9  1  0  0  0
  2  3  1  0  0  0
  2  7  2  0  0  0
  3  4  2  0  0  0
  3  8  1  0  0  0
  4  5  1  0  0  0
  5  6  2  0  0  0
  6  7  1  0  0  0
  8  9  1  0  0  0
  8 24  1  0  0  0
  9 10  2  0  0  0
 24 25  1  0  0  0
 25 26  2  0  0  0
 25 30  1  0  0  0
 26 27  1  0  0  0
 27 28  2  0  0  0
 28 29  1  0  0  0
 29 30  2  0  0  0
 15 16  1  0  0  0
 10 11  1  0  0  0
 10 12  1  0  0  0
M  END
> <minimizedAffinity>
-9.42394

$$$$
289


 31 34  0  0  0  0  0  0  0  0999 V2000
   54.2667   85.7001   24.1622 C   0  0  0  0  0  0  0  0  0  0  0  0
   53.2883   85.1627   24.9094 N   0  0  0  0  0  0  0  0  0  0  0  0
   52.5359   84.3442   24.1368 C   0  0  0  0  0  0  0  0  0  0  0  0
   53.0451   84.3577   22.8567 C   0  0  0  0  0  0  0  0  0  0  0  0
   54.0892   85.1855   22.8989 N   0  0  0  0  0  0  0  0  0  0  0  0
   52.4588   83.6119   21.9019 N   0  0  0  0  0  0  0  0  0  0  0  0
   51.3869   82.8500   22.1581 C   0  0  0  0  0  0  0  0  0  0  0  0
   50.8613   82.1567   21.2292 O   0  0  0  0  0  0  0  0  0  0  0  0
   50.8752   82.8223   23.4005 N   0  0  0  0  0  0  0  0  0  0  0  0
   51.4341   83.5534   24.3746 C   0  0  0  0  0  0  0  0  0  0  0  0
   50.9544   83.5250   25.5345 O   0  0  0  0  0  0  0  0  0  0  0  0
   53.0319   83.6475   20.5520 C   0  0  0  0  0  0  0  0  0  0  0  0
   50.0259   82.2215   23.6103 H   0  0  0  0  0  0  0  0  0  0  0  0
   56.9823   87.6265   23.0816 N   0  0  0  0  0  0  0  0  0  0  0  0
   56.1486   88.5886   23.6680 C   0  0  0  0  0  0  0  0  0  0  0  0
   55.1500   87.9797   24.6470 C   0  0  0  0  0  0  0  0  0  0  0  0
   55.2950   86.5679   24.5696 N   0  0  0  0  0  0  0  0  0  0  0  0
   56.5902   86.0353   24.9177 C   0  0  0  0  0  0  0  0  0  0  0  0
   57.5345   86.5805   23.8397 C   0  0  0  0  0  0  0  0  0  0  0  0
   56.8200   87.4222   21.6804 C   0  0  0  0  0  0  0  0  0  0  0  0
   53.2587   91.6232   18.8803 Br  0  0  0  0  0  0  0  0  0  0  0  0
   54.3830   90.3260   19.7442 C   0  0  0  0  0  0  0  0  0  0  0  0
   53.8820   89.0937   20.1109 C   0  0  0  0  0  0  0  0  0  0  0  0
   54.6896   88.1569   20.7361 C   0  0  0  0  0  0  0  0  0  0  0  0
   56.0046   88.4464   21.0006 C   0  0  0  0  0  0  0  0  0  0  0  0
   56.5218   89.6727   20.6394 C   0  0  0  0  0  0  0  0  0  0  0  0
   55.7050   90.5951   20.0173 C   0  0  0  0  0  0  0  0  0  0  0  0
   52.9866   85.4014   26.2953 C   0  0  0  0  0  0  0  0  0  0  0  0
   53.8548   84.5763   27.2181 C   0  0  0  0  0  0  0  0  0  0  0  0
   53.8369   84.9990   28.5319 O   0  0  0  0  0  0  0  0  0  0  0  0
   52.6013   84.5584   29.0605 C   0  0  0  0  0  0  0  0  0  0  0  0
 21 22  1  0  0  0
 22 23  2  0  0  0
 22 27  1  0  0  0
 23 24  1  0  0  0
 24 25  2  0  0  0
 25 26  1  0  0  0
 25 20  1  0  0  0
 26 27  2  0  0  0
 20 14  1  0  0  0
 14 15  1  0  0  0
 14 19  1  0  0  0
 15 16  1  0  0  0
 16 17  1  0  0  0
 17 18  1  0  0  0
 17  1  1  0  0  0
 18 19  1  0  0  0
  1  2  1  0  0  0
  1  5  2  0  0  0
  2  3  1  0  0  0
  2 28  1  0  0  0
  3  4  2  0  0  0
  3 10  1  0  0  0
  4  5  1  0  0  0
  4  6  1  0  0  0
  6  7  1  0  0  0
  6 12  1  0  0  0
  7  8  2  0  0  0
  7  9  1  0  0  0
  9 10  1  0  0  0
 10 11  2  0  0  0
 28 29  1  0  0  0
 29 30  1  0  0  0
 30 31  1  0  0  0
  9 13  1  0  0  0
M  END
> <minimizedAffinity>
-8.41849

$$$$
293


 27 30  0  0  0  0  0  0  0  0999 V2000
   55.7353   90.4579   22.4911 C   0  0  0  0  0  0  0  0  0  0  0  0
   55.4956   89.2937   23.1059 C   0  0  0  0  0  0  0  0  0  0  0  0
   55.0199   88.1684   22.4528 O   0  0  0  0  0  0  0  0  0  0  0  0
   54.8602   87.0974   23.3261 C   0  0  0  0  0  0  0  0  0  0  0  0
   55.2303   87.5096   24.5704 C   0  0  0  0  0  0  0  0  0  0  0  0
   55.1682   86.6342   25.6347 C   0  0  0  0  0  0  0  0  0  0  0  0
   54.7260   85.3616   25.3833 C   0  0  0  0  0  0  0  0  0  0  0  0
   54.3450   84.9351   24.1043 C   0  0  0  0  0  0  0  0  0  0  0  0
   54.3986   85.7914   23.0332 C   0  0  0  0  0  0  0  0  0  0  0  0
   53.9059   83.6214   23.9334 O   0  0  0  0  0  0  0  0  0  0  0  0
   55.6470   88.9162   24.4852 C   0  0  0  0  0  0  0  0  0  0  0  0
   56.0595   89.6691   25.4040 O   0  0  0  0  0  0  0  0  0  0  0  0
   54.5883   91.0100   16.4178 Br  0  0  0  0  0  0  0  0  0  0  0  0
   54.9551   90.8328   18.2965 C   0  0  0  0  0  0  0  0  0  0  0  0
   54.0355   91.2305   19.2399 C   0  0  0  0  0  0  0  0  0  0  0  0
   54.2995   91.1060   20.5907 C   0  0  0  0  0  0  0  0  0  0  0  0
   55.4919   90.5784   21.0572 C   0  0  0  0  0  0  0  0  0  0  0  0
   56.4086   90.1810   20.1099 C   0  0  0  0  0  0  0  0  0  0  0  0
   56.1482   90.3046   18.7425 C   0  0  0  0  0  0  0  0  0  0  0  0
   54.0329   85.4919   21.6434 C   0  0  0  0  0  0  0  0  0  0  0  0
   53.1760   84.3984   21.3941 N   0  0  0  0  0  0  0  0  0  0  0  0
   52.0115   84.7732   20.6192 C   0  0  0  0  0  0  0  0  0  0  0  0
   52.3445   84.7059   19.1401 C   0  0  0  0  0  0  0  0  0  0  0  0
   52.3109   83.3747   18.7546 O   0  0  0  0  0  0  0  0  0  0  0  0
   52.7843   82.6065   19.8238 C   0  0  0  0  0  0  0  0  0  0  0  0
   53.8556   83.3742   20.5816 C   0  0  0  0  0  0  0  0  0  0  0  0
   52.9112   83.8986   22.2672 H   0  0  0  0  0  0  0  0  0  0  0  0
 13 14  1  0  0  0
 14 15  2  0  0  0
 14 19  1  0  0  0
 15 16  1  0  0  0
 16 17  2  0  0  0
 17 18  1  0  0  0
 17  1  1  0  0  0
 18 19  2  0  0  0
  1  2  2  0  0  0
  2  3  1  0  0  0
  2 11  1  0  0  0
  3  4  1  0  0  0
  4  5  2  0  0  0
  4  9  1  0  0  0
  5  6  1  0  0  0
  5 11  1  0  0  0
  6  7  2  0  0  0
  7  8  1  0  0  0
  8  9  2  0  0  0
  8 10  1  0  0  0
  9 20  1  0  0  0
 20 21  1  0  0  0
 21 22  1  0  0  0
 21 26  1  0  0  0
 22 23  1  0  0  0
 23 24  1  0  0  0
 24 25  1  0  0  0
 25 26  1  0  0  0
 11 12  2  0  0  0
 21 27  1  0  0  0
M  CHG 1  10  -1
M  CHG 1  21   1
M  END
> <minimizedAffinity>
-8.59043

$$$$
294


 35 38  0  0  0  0  0  0  0  0999 V2000
   55.2083   90.0096   21.1446 N   0  0  0  0  0  0  0  0  0  0  0  0
   55.7427   89.4767   22.2854 N   0  0  0  0  0  0  0  0  0  0  0  0
   55.3518   88.1991   22.3891 C   0  0  0  0  0  0  0  0  0  0  0  0
   54.5904   87.9686   21.3209 N   0  0  0  0  0  0  0  0  0  0  0  0
   54.4940   89.1036   20.5313 C   0  0  0  0  0  0  0  0  0  0  0  0
   55.6849   87.2517   23.4461 C   0  0  0  0  0  0  0  0  0  0  0  0
   56.3222   86.0845   23.3134 N   0  0  0  0  0  0  0  0  0  0  0  0
   56.4355   85.5146   24.5004 O   0  0  0  0  0  0  0  0  0  0  0  0
   55.8945   86.2654   25.4174 N   0  0  0  0  0  0  0  0  0  0  0  0
   55.4081   87.3763   24.7841 C   0  0  0  0  0  0  0  0  0  0  0  0
   54.7429   88.4361   25.4524 N   0  0  0  0  0  0  0  0  0  0  0  0
   54.9192   88.5991   26.4831 H   0  0  0  0  0  0  0  0  0  0  0  0
   54.0756   89.0830   24.9903 H   0  0  0  0  0  0  0  0  0  0  0  0
   53.7227   89.1308   19.3056 C   0  0  0  0  0  0  0  0  0  0  0  0
   54.2025   89.7384   18.1486 N   0  0  0  0  0  0  0  0  0  0  0  0
   53.3476   89.6120   17.2110 O   0  0  0  0  0  0  0  0  0  0  0  0
   52.3291   88.9708   17.6307 N   0  0  0  0  0  0  0  0  0  0  0  0
   52.5296   88.6517   18.9454 C   0  0  0  0  0  0  0  0  0  0  0  0
   51.5642   87.9292   19.6568 N   0  0  0  0  0  0  0  0  0  0  0  0
   50.7962   88.4455   20.1451 H   0  0  0  0  0  0  0  0  0  0  0  0
   51.5439   86.8909   19.7328 H   0  0  0  0  0  0  0  0  0  0  0  0
   55.5000   91.3850   20.7911 C   0  0  0  0  0  0  0  0  0  0  0  0
   55.5823   92.7353   22.9240 N   0  0  0  0  0  0  0  0  0  0  0  0
   54.8873   92.3334   21.7577 C   0  0  0  0  0  0  0  0  0  0  0  0
   53.7409   92.7872   21.5429 O   0  0  0  0  0  0  0  0  0  0  0  0
   56.5596   92.3670   23.1338 H   0  0  0  0  0  0  0  0  0  0  0  0
   55.5197   94.0930   24.8546 C   0  0  0  0  0  0  0  0  0  0  0  0
   54.9861   93.6167   23.7990 N   0  0  0  0  0  0  0  0  0  0  0  0
   52.6713   98.0642   28.6472 Br  0  0  0  0  0  0  0  0  0  0  0  0
   53.5602   96.8439   27.4791 C   0  0  0  0  0  0  0  0  0  0  0  0
   52.8506   95.8756   26.7845 C   0  0  0  0  0  0  0  0  0  0  0  0
   53.4743   94.9807   25.9334 C   0  0  0  0  0  0  0  0  0  0  0  0
   54.8399   95.0258   25.7467 C   0  0  0  0  0  0  0  0  0  0  0  0
   55.5362   95.9918   26.4411 C   0  0  0  0  0  0  0  0  0  0  0  0
   54.9258   96.8900   27.2924 C   0  0  0  0  0  0  0  0  0  0  0  0
 29 30  1  0  0  0
 30 31  2  0  0  0
 30 35  1  0  0  0
 31 32  1  0  0  0
 32 33  2  0  0  0
 33 34  1  0  0  0
 33 27  1  0  0  0
 34 35  2  0  0  0
 27 28  2  0  0  0
 28 23  1  0  0  0
 23 24  1  0  0  0
 24 25  2  0  0  0
 24 22  1  0  0  0
 22  1  1  0  0  0
  1  2  1  0  0  0
  1  5  1  0  0  0
  2  3  2  0  0  0
  3  4  1  0  0  0
  3  6  1  0  0  0
  4  5  2  0  0  0
  5 14  1  0  0  0
 14 15  2  0  0  0
 14 18  1  0  0  0
 15 16  1  0  0  0
 16 17  1  0  0  0
 17 18  2  0  0  0
 18 19  1  0  0  0
  6  7  2  0  0  0
  6 10  1  0  0  0
  7  8  1  0  0  0
  8  9  1  0  0  0
  9 10  2  0  0  0
 10 11  1  0  0  0
 23 26  1  0  0  0
 19 20  1  0  0  0
 19 21  1  0  0  0
 11 12  1  0  0  0
 11 13  1  0  0  0
M  END
> <minimizedAffinity>
-11.24232

$$$$
302


 29 33  0  0  0  0  0  0  0  0999 V2000
   54.8265   92.9965   22.7349 C   0  0  0  0  0  0  0  0  0  0  0  0
   55.3412   91.7504   22.6910 N   0  0  0  0  0  0  0  0  0  0  0  0
   55.0314   91.1602   21.5099 C   0  0  0  0  0  0  0  0  0  0  0  0
   54.3113   92.0300   20.7808 N   0  0  0  0  0  0  0  0  0  0  0  0
   54.1828   93.1528   21.5247 C   0  0  0  0  0  0  0  0  0  0  0  0
   54.0303   91.4011   19.6234 C   0  0  0  0  0  0  0  0  0  0  0  0
   54.5754   90.1351   19.6261 C   0  0  0  0  0  0  0  0  0  0  0  0
   54.4351   89.2666   18.5498 C   0  0  0  0  0  0  0  0  0  0  0  0
   53.7325   89.6706   17.4379 C   0  0  0  0  0  0  0  0  0  0  0  0
   53.1913   90.9379   17.4439 C   0  0  0  0  0  0  0  0  0  0  0  0
   53.3146   91.8190   18.4969 C   0  0  0  0  0  0  0  0  0  0  0  0
   55.1984   90.0154   20.8285 N   0  0  0  0  0  0  0  0  0  0  0  0
   55.8954   91.2873   23.4395 H   0  0  0  0  0  0  0  0  0  0  0  0
   55.3379   97.0247   27.3811 Br  0  0  0  0  0  0  0  0  0  0  0  0
   55.1847   95.7857   25.9517 C   0  0  0  0  0  0  0  0  0  0  0  0
   53.9469   95.2975   25.5807 C   0  0  0  0  0  0  0  0  0  0  0  0
   53.8375   94.3888   24.5309 C   0  0  0  0  0  0  0  0  0  0  0  0
   54.9404   93.9495   23.8344 C   0  0  0  0  0  0  0  0  0  0  0  0
   56.1700   94.4415   24.2103 C   0  0  0  0  0  0  0  0  0  0  0  0
   56.2986   95.3532   25.2614 C   0  0  0  0  0  0  0  0  0  0  0  0
   55.9026   88.8127   21.2225 C   0  0  0  0  0  0  0  0  0  0  0  0
   54.9879   87.8342   21.9264 C   0  0  0  0  0  0  0  0  0  0  0  0
   55.6132   87.3348   23.1176 N   0  0  0  0  0  0  0  0  0  0  0  0
   55.5070   88.3043   24.1876 C   0  0  0  0  0  0  0  0  0  0  0  0
   56.8025   88.4854   24.9407 C   0  0  0  0  0  0  0  0  0  0  0  0
   57.2777   87.2306   25.3279 O   0  0  0  0  0  0  0  0  0  0  0  0
   57.4896   86.3969   24.2506 C   0  0  0  0  0  0  0  0  0  0  0  0
   56.9968   86.9992   22.9610 C   0  0  0  0  0  0  0  0  0  0  0  0
   55.1209   86.4695   23.4551 H   0  0  0  0  0  0  0  0  0  0  0  0
 14 15  1  0  0  0
 15 16  2  0  0  0
 15 20  1  0  0  0
 16 17  1  0  0  0
 17 18  2  0  0  0
 18 19  1  0  0  0
 18  1  1  0  0  0
 19 20  2  0  0  0
  1  2  1  0  0  0
  1  5  2  0  0  0
  2  3  2  0  0  0
  3  4  1  0  0  0
  3 12  1  0  0  0
  4  5  1  0  0  0
  4  6  1  0  0  0
  6  7  2  0  0  0
  6 11  1  0  0  0
  7  8  1  0  0  0
  7 12  1  0  0  0
  8  9  2  0  0  0
  9 10  1  0  0  0
 10 11  2  0  0  0
 12 21  1  0  0  0
 21 22  1  0  0  0
 22 23  1  0  0  0
 23 24  1  0  0  0
 23 28  1  0  0  0
 24 25  1  0  0  0
 25 26  1  0  0  0
 26 27  1  0  0  0
 27 28  1  0  0  0
  2 13  1  0  0  0
 23 29  1  0  0  0
M  CHG 1  23   1
M  END
> <minimizedAffinity>
-9.85592

$$$$
305


 27 30  0  0  0  0  0  0  0  0999 V2000
   52.7627   86.6951   19.3278 C   0  0  0  0  0  0  0  0  0  0  0  0
   53.2765   87.8629   19.6917 N   0  0  0  0  0  0  0  0  0  0  0  0
   52.5998   88.8854   19.1127 C   0  0  0  0  0  0  0  0  0  0  0  0
   51.6281   88.3208   18.3718 N   0  0  0  0  0  0  0  0  0  0  0  0
   51.7016   87.0349   18.4844 N   0  0  0  0  0  0  0  0  0  0  0  0
   53.0945   90.0776   19.4666 N   0  0  0  0  0  0  0  0  0  0  0  0
   54.1062   89.8060   20.2978 C   0  0  0  0  0  0  0  0  0  0  0  0
   54.2466   88.4218   20.4673 C   0  0  0  0  0  0  0  0  0  0  0  0
   55.1631   87.9215   21.2801 N   0  0  0  0  0  0  0  0  0  0  0  0
   55.9748   88.8061   21.9372 C   0  0  0  0  0  0  0  0  0  0  0  0
   56.8591   88.3733   22.7133 O   0  0  0  0  0  0  0  0  0  0  0  0
   55.8717   90.1326   21.7900 N   0  0  0  0  0  0  0  0  0  0  0  0
   54.9426   90.6609   20.9761 C   0  0  0  0  0  0  0  0  0  0  0  0
   54.8144   91.9024   20.8134 O   0  0  0  0  0  0  0  0  0  0  0  0
   55.3375   86.5392   21.6442 C   0  0  0  0  0  0  0  0  0  0  0  0
   56.4900   90.8050   22.2880 H   0  0  0  0  0  0  0  0  0  0  0  0
   54.5279   80.9269   20.4043 Br  0  0  0  0  0  0  0  0  0  0  0  0
   53.9191   82.6912   20.0829 C   0  0  0  0  0  0  0  0  0  0  0  0
   54.3303   83.3604   18.9492 C   0  0  0  0  0  0  0  0  0  0  0  0
   53.8943   84.6274   18.7165 C   0  0  0  0  0  0  0  0  0  0  0  0
   53.0322   85.2943   19.5894 C   0  0  0  0  0  0  0  0  0  0  0  0
   52.6639   84.5743   20.6968 C   0  0  0  0  0  0  0  0  0  0  0  0
   53.0708   83.2957   20.9838 C   0  0  0  0  0  0  0  0  0  0  0  0
   52.6387   91.3812   19.0397 C   0  0  0  0  0  0  0  0  0  0  0  0
   52.9655   91.6673   17.5899 C   0  0  0  0  0  0  0  0  0  0  0  0
   54.3358   91.6805   17.3597 O   0  0  0  0  0  0  0  0  0  0  0  0
   54.5915   90.7878   16.3191 C   0  0  0  0  0  0  0  0  0  0  0  0
 17 18  1  0  0  0
 18 19  2  0  0  0
 18 23  1  0  0  0
 19 20  1  0  0  0
 20 21  2  0  0  0
 21 22  1  0  0  0
 21  1  1  0  0  0
 22 23  2  0  0  0
  1  2  1  0  0  0
  1  5  2  0  0  0
  2  3  1  0  0  0
  2  8  1  0  0  0
  3  4  2  0  0  0
  3  6  1  0  0  0
  4  5  1  0  0  0
  6  7  1  0  0  0
  6 24  1  0  0  0
  7  8  2  0  0  0
  7 13  1  0  0  0
  8  9  1  0  0  0
  9 10  1  0  0  0
  9 15  1  0  0  0
 10 11  2  0  0  0
 10 12  1  0  0  0
 12 13  1  0  0  0
 13 14  2  0  0  0
 24 25  1  0  0  0
 25 26  1  0  0  0
 26 27  1  0  0  0
 12 16  1  0  0  0
M  END
> <minimizedAffinity>
-7.60084

$$$$
309


 33 36  0  0  0  0  0  0  0  0999 V2000
   52.7977   84.1768   25.0781 C   0  0  0  0  0  0  0  0  0  0  0  0
   53.6185   85.1098   24.4915 C   0  0  0  0  0  0  0  0  0  0  0  0
   53.7512   85.2258   23.1841 O   0  0  0  0  0  0  0  0  0  0  0  0
   53.0983   84.4501   22.3569 C   0  0  0  0  0  0  0  0  0  0  0  0
   52.2760   83.5124   22.8721 C   0  0  0  0  0  0  0  0  0  0  0  0
   51.5729   82.6828   22.0266 C   0  0  0  0  0  0  0  0  0  0  0  0
   51.7335   82.8396   20.6738 C   0  0  0  0  0  0  0  0  0  0  0  0
   52.5942   83.8216   20.1470 C   0  0  0  0  0  0  0  0  0  0  0  0
   53.3007   84.6530   20.9637 C   0  0  0  0  0  0  0  0  0  0  0  0
   52.6276   83.8327   18.7627 O   0  0  0  0  0  0  0  0  0  0  0  0
   52.0855   83.3290   24.2279 C   0  0  0  0  0  0  0  0  0  0  0  0
   51.3321   82.4698   24.6970 O   0  0  0  0  0  0  0  0  0  0  0  0
   52.2005   83.8502   31.1989 Br  0  0  0  0  0  0  0  0  0  0  0  0
   52.4083   83.9437   29.3000 C   0  0  0  0  0  0  0  0  0  0  0  0
   51.5383   84.7134   28.5851 C   0  0  0  0  0  0  0  0  0  0  0  0
   51.6752   84.7870   27.2160 C   0  0  0  0  0  0  0  0  0  0  0  0
   52.6655   84.1100   26.5089 C   0  0  0  0  0  0  0  0  0  0  0  0
   53.5267   83.3447   27.2507 C   0  0  0  0  0  0  0  0  0  0  0  0
   53.4078   83.2537   28.6471 C   0  0  0  0  0  0  0  0  0  0  0  0
   54.3802   86.0122   25.3692 C   0  0  0  0  0  0  0  0  0  0  0  0
   53.8446   87.0988   25.7028 O   0  0  0  0  0  0  0  0  0  0  0  0
   55.6272   85.7355   25.8376 O   0  0  0  0  0  0  0  0  0  0  0  0
   56.7179   85.6327   24.9546 C   0  0  0  0  0  0  0  0  0  0  0  0
   57.1750   87.0143   24.5754 C   0  0  0  0  0  0  0  0  0  0  0  0
   54.2310   85.6856   20.5768 C   0  0  0  0  0  0  0  0  0  0  0  0
   53.9625   87.0592   20.7073 N   0  0  0  0  0  0  0  0  0  0  0  0
   53.0787   87.5386   19.7050 C   0  0  0  0  0  0  0  0  0  0  0  0
   53.1550   88.9562   19.2949 C   0  0  0  0  0  0  0  0  0  0  0  0
   54.3613   89.5783   19.6334 N   0  0  0  0  0  0  0  0  0  0  0  0
   54.8928   89.3627   20.9076 C   0  0  0  0  0  0  0  0  0  0  0  0
   54.9852   87.9012   21.2141 C   0  0  0  0  0  0  0  0  0  0  0  0
   55.0267   90.3944   18.7075 C   0  0  0  0  0  0  0  0  0  0  0  0
   53.2600   87.0442   21.6022 H   0  0  0  0  0  0  0  0  0  0  0  0
 13 14  1  0  0  0
 14 15  2  0  0  0
 14 19  1  0  0  0
 15 16  1  0  0  0
 16 17  2  0  0  0
 17 18  1  0  0  0
 17  1  1  0  0  0
 18 19  2  0  0  0
  1  2  2  0  0  0
  1 11  1  0  0  0
  2  3  1  0  0  0
  2 20  1  0  0  0
  3  4  1  0  0  0
  4  5  2  0  0  0
  4  9  1  0  0  0
  5  6  1  0  0  0
  5 11  1  0  0  0
  6  7  2  0  0  0
  7  8  1  0  0  0
  8  9  2  0  0  0
  8 10  1  0  0  0
  9 25  1  0  0  0
 25 26  1  0  0  0
 26 27  1  0  0  0
 26 31  1  0  0  0
 27 28  1  0  0  0
 28 29  1  0  0  0
 29 30  1  0  0  0
 29 32  1  0  0  0
 30 31  1  0  0  0
 11 12  2  0  0  0
 20 21  2  0  0  0
 20 22  1  0  0  0
 22 23  1  0  0  0
 23 24  1  0  0  0
 26 33  1  0  0  0
M  CHG 1  10  -1
M  CHG 1  26   1
M  END
> <minimizedAffinity>
-7.66615

$$$$
320


 32 36  0  0  0  0  0  0  0  0999 V2000
   53.8207   84.4981   19.7279 C   0  0  0  0  0  0  0  0  0  0  0  0
   54.4658   83.3674   19.2003 C   0  0  0  0  0  0  0  0  0  0  0  0
   54.1195   83.2929   17.9215 N   0  0  0  0  0  0  0  0  0  0  0  0
   54.3418   82.4942   16.8331 C   0  0  0  0  0  0  0  0  0  0  0  0
   53.6131   83.0577   15.8162 C   0  0  0  0  0  0  0  0  0  0  0  0
   53.0065   84.1264   16.3097 N   0  0  0  0  0  0  0  0  0  0  0  0
   53.3151   84.2870   17.6285 C   0  0  0  0  0  0  0  0  0  0  0  0
   53.1128   85.0557   18.7394 N   0  0  0  0  0  0  0  0  0  0  0  0
   53.5998   82.5004   14.5343 C   0  0  0  0  0  0  0  0  0  0  0  0
   54.3330   81.3619   14.2782 C   0  0  0  0  0  0  0  0  0  0  0  0
   55.0558   80.8166   15.3149 C   0  0  0  0  0  0  0  0  0  0  0  0
   55.0734   81.3640   16.5925 C   0  0  0  0  0  0  0  0  0  0  0  0
   52.3795   84.7295   15.7442 H   0  0  0  0  0  0  0  0  0  0  0  0
   54.5176   86.4296   25.5547 Br  0  0  0  0  0  0  0  0  0  0  0  0
   54.2906   85.8116   23.7447 C   0  0  0  0  0  0  0  0  0  0  0  0
   54.9486   86.3925   22.7044 C   0  0  0  0  0  0  0  0  0  0  0  0
   54.7844   85.9504   21.4232 C   0  0  0  0  0  0  0  0  0  0  0  0
   53.9473   84.8978   21.1125 C   0  0  0  0  0  0  0  0  0  0  0  0
   53.2921   84.3191   22.1458 C   0  0  0  0  0  0  0  0  0  0  0  0
   53.4516   84.7658   23.4801 C   0  0  0  0  0  0  0  0  0  0  0  0
   52.2592   86.2036   18.7043 C   0  0  0  0  0  0  0  0  0  0  0  0
   52.9047   87.5299   18.6787 C   0  0  0  0  0  0  0  0  0  0  0  0
   52.1103   88.7220   19.0740 C   0  0  0  0  0  0  0  0  0  0  0  0
   52.8001   89.9571   18.7732 N   0  0  0  0  0  0  0  0  0  0  0  0
   53.1142   90.0796   17.8138 H   0  0  0  0  0  0  0  0  0  0  0  0
   52.0516   90.7329   18.8949 H   0  0  0  0  0  0  0  0  0  0  0  0
   53.8193   90.2832   19.7262 C   0  0  0  0  0  0  0  0  0  0  0  0
   55.2253   90.0067   19.2738 C   0  0  0  0  0  0  0  0  0  0  0  0
   56.0793   89.9475   20.5491 C   0  0  0  0  0  0  0  0  0  0  0  0
   56.0238   91.2769   21.2183 C   0  0  0  0  0  0  0  0  0  0  0  0
   54.6196   91.7780   21.4640 C   0  0  0  0  0  0  0  0  0  0  0  0
   53.8007   91.7407   20.1686 C   0  0  0  0  0  0  0  0  0  0  0  0
 14 15  1  0  0  0
 15 16  2  0  0  0
 15 20  1  0  0  0
 16 17  1  0  0  0
 17 18  2  0  0  0
 18 19  1  0  0  0
 18  1  1  0  0  0
 19 20  2  0  0  0
  1  2  2  0  0  0
  1  8  1  0  0  0
  2  3  1  0  0  0
  3  4  1  0  0  0
  3  7  1  0  0  0
  4  5  2  0  0  0
  4 12  1  0  0  0
  5  6  1  0  0  0
  5  9  1  0  0  0
  6  7  2  0  0  0
  7  8  1  0  0  0
  8 21  1  0  0  0
 21 22  1  0  0  0
 22 23  1  0  0  0
 23 24  1  0  0  0
 24 27  1  0  0  0
 27 28  1  0  0  0
 27 32  1  0  0  0
 28 29  1  0  0  0
 29 30  1  0  0  0
 30 31  1  0  0  0
 31 32  1  0  0  0
  9 10  2  0  0  0
 10 11  1  0  0  0
 11 12  2  0  0  0
  6 13  1  0  0  0
 24 25  1  0  0  0
 24 26  1  0  0  0
M  CHG 1  24   1
M  END
> <minimizedAffinity>
-8.83089

$$$$
324


 34 38  0  0  0  0  0  0  0  0999 V2000
   53.8168   84.5022   19.6892 C   0  0  0  0  0  0  0  0  0  0  0  0
   54.5049   83.3969   19.1539 C   0  0  0  0  0  0  0  0  0  0  0  0
   54.2133   83.2369   17.8585 N   0  0  0  0  0  0  0  0  0  0  0  0
   54.4545   82.4721   16.7655 C   0  0  0  0  0  0  0  0  0  0  0  0
   53.7067   83.0123   15.7479 C   0  0  0  0  0  0  0  0  0  0  0  0
   53.0335   84.0865   16.2460 N   0  0  0  0  0  0  0  0  0  0  0  0
   53.3595   84.2077   17.5464 C   0  0  0  0  0  0  0  0  0  0  0  0
   53.1136   84.9835   18.6621 N   0  0  0  0  0  0  0  0  0  0  0  0
   53.7711   82.4134   14.5073 C   0  0  0  0  0  0  0  0  0  0  0  0
   54.5626   81.2957   14.2749 C   0  0  0  0  0  0  0  0  0  0  0  0
   55.3084   80.7569   15.2927 C   0  0  0  0  0  0  0  0  0  0  0  0
   55.2423   81.3661   16.5513 C   0  0  0  0  0  0  0  0  0  0  0  0
   52.3870   84.6883   15.6903 H   0  0  0  0  0  0  0  0  0  0  0  0
   54.5130   86.3471   25.5918 Br  0  0  0  0  0  0  0  0  0  0  0  0
   54.2770   85.7771   23.7758 C   0  0  0  0  0  0  0  0  0  0  0  0
   53.4224   84.7508   23.4648 C   0  0  0  0  0  0  0  0  0  0  0  0
   53.2510   84.3344   22.1342 C   0  0  0  0  0  0  0  0  0  0  0  0
   53.9061   84.9070   21.0915 C   0  0  0  0  0  0  0  0  0  0  0  0
   54.7693   85.9499   21.4305 C   0  0  0  0  0  0  0  0  0  0  0  0
   54.9448   86.3679   22.7402 C   0  0  0  0  0  0  0  0  0  0  0  0
   52.2043   86.1100   18.6451 C   0  0  0  0  0  0  0  0  0  0  0  0
   52.8907   87.4522   18.5532 C   0  0  0  0  0  0  0  0  0  0  0  0
   51.9041   88.5506   18.2456 C   0  0  0  0  0  0  0  0  0  0  0  0
   52.4767   89.7320   17.6615 N   0  0  0  0  0  0  0  0  0  0  0  0
   53.9167   89.5303   17.6872 C   0  0  0  0  0  0  0  0  0  0  0  0
   54.6990   90.6966   18.1623 C   0  0  0  0  0  0  0  0  0  0  0  0
   54.1984   91.3569   19.3368 N   0  0  0  0  0  0  0  0  0  0  0  0
   52.7923   91.1146   19.5820 C   0  0  0  0  0  0  0  0  0  0  0  0
   52.0930   90.9741   18.2455 C   0  0  0  0  0  0  0  0  0  0  0  0
   54.2519   92.4023   19.1230 H   0  0  0  0  0  0  0  0  0  0  0  0
   55.0475   91.1596   20.4682 C   0  0  0  0  0  0  0  0  0  0  0  0
   54.8140   92.0657   21.6286 C   0  0  0  0  0  0  0  0  0  0  0  0
   55.1448   91.4995   22.8585 O   0  0  0  0  0  0  0  0  0  0  0  0
   56.0119   91.0629   22.7984 H   0  0  0  0  0  0  0  0  0  0  0  0
 14 15  1  0  0  0
 15 16  2  0  0  0
 15 20  1  0  0  0
 16 17  1  0  0  0
 17 18  2  0  0  0
 18 19  1  0  0  0
 18  1  1  0  0  0
 19 20  2  0  0  0
  1  2  2  0  0  0
  1  8  1  0  0  0
  2  3  1  0  0  0
  3  4  1  0  0  0
  3  7  1  0  0  0
  4  5  2  0  0  0
  4 12  1  0  0  0
  5  6  1  0  0  0
  5  9  1  0  0  0
  6  7  2  0  0  0
  7  8  1  0  0  0
  8 21  1  0  0  0
 21 22  1  0  0  0
 22 23  1  0  0  0
 23 24  1  0  0  0
 24 25  1  0  0  0
 24 29  1  0  0  0
 25 26  1  0  0  0
 26 27  1  0  0  0
 27 28  1  0  0  0
 27 31  1  0  0  0
 28 29  1  0  0  0
 31 32  1  0  0  0
 32 33  1  0  0  0
  9 10  2  0  0  0
 10 11  1  0  0  0
 11 12  2  0  0  0
  6 13  1  0  0  0
 27 30  1  0  0  0
 33 34  1  0  0  0
M  CHG 1  27   1
M  END
> <minimizedAffinity>
-8.75328

$$$$
346


 35 38  0  0  0  0  0  0  0  0999 V2000
   52.9866   85.0218   20.9441 C   0  0  0  0  0  0  0  0  0  0  0  0
   53.1374   84.3005   22.1784 N   0  0  0  0  0  0  0  0  0  0  0  0
   53.4950   82.9526   21.9413 C   0  0  0  0  0  0  0  0  0  0  0  0
   53.6868   82.0289   22.7913 O   0  0  0  0  0  0  0  0  0  0  0  0
   53.6278   82.7401   20.4826 C   0  0  0  0  0  0  0  0  0  0  0  0
   53.9319   81.6559   19.9364 O   0  0  0  0  0  0  0  0  0  0  0  0
   53.3334   84.0230   19.8797 C   0  0  0  0  0  0  0  0  0  0  0  0
   53.3343   84.2175   18.5796 C   0  0  0  0  0  0  0  0  0  0  0  0
   52.9663   85.4954   18.1087 O   0  0  0  0  0  0  0  0  0  0  0  0
   56.4871   90.1248   20.5954 Br  0  0  0  0  0  0  0  0  0  0  0  0
   55.4228   88.5300   20.7175 C   0  0  0  0  0  0  0  0  0  0  0  0
   54.1295   88.5382   20.2447 C   0  0  0  0  0  0  0  0  0  0  0  0
   53.3344   87.3902   20.3199 C   0  0  0  0  0  0  0  0  0  0  0  0
   53.8216   86.2234   20.8684 C   0  0  0  0  0  0  0  0  0  0  0  0
   55.1182   86.2566   21.3290 C   0  0  0  0  0  0  0  0  0  0  0  0
   55.9134   87.3762   21.2630 C   0  0  0  0  0  0  0  0  0  0  0  0
   53.6858   83.2470   17.5742 C   0  0  0  0  0  0  0  0  0  0  0  0
   52.8519   82.3808   16.9585 C   0  0  0  0  0  0  0  0  0  0  0  0
   53.3157   81.5234   15.9831 C   0  0  0  0  0  0  0  0  0  0  0  0
   54.6313   81.4879   15.5730 C   0  0  0  0  0  0  0  0  0  0  0  0
   55.4630   82.3820   16.2179 C   0  0  0  0  0  0  0  0  0  0  0  0
   55.0355   83.2444   17.1893 C   0  0  0  0  0  0  0  0  0  0  0  0
   52.3499   80.5809   15.3280 C   0  0  0  0  0  0  0  0  0  0  0  0
   55.0920   80.6212   14.5895 O   0  0  0  0  0  0  0  0  0  0  0  0
   55.8569   79.4798   14.9492 C   0  0  0  0  0  0  0  0  0  0  0  0
   52.9348   84.8988   23.4856 C   0  0  0  0  0  0  0  0  0  0  0  0
   54.1596   84.8569   24.3575 C   0  0  0  0  0  0  0  0  0  0  0  0
   54.1351   85.9307   25.4018 C   0  0  0  0  0  0  0  0  0  0  0  0
   55.2807   86.7920   25.3565 N   0  0  0  0  0  0  0  0  0  0  0  0
   55.0358   88.0374   24.6586 C   0  0  0  0  0  0  0  0  0  0  0  0
   56.2543   88.9315   24.9116 C   0  0  0  0  0  0  0  0  0  0  0  0
   57.2840   88.2052   25.4910 O   0  0  0  0  0  0  0  0  0  0  0  0
   57.5668   87.0570   24.7186 C   0  0  0  0  0  0  0  0  0  0  0  0
   56.4020   86.0782   24.8149 C   0  0  0  0  0  0  0  0  0  0  0  0
   55.5365   87.0620   26.3530 H   0  0  0  0  0  0  0  0  0  0  0  0
 10 11  1  0  0  0
 11 12  2  0  0  0
 11 16  1  0  0  0
 12 13  1  0  0  0
 13 14  2  0  0  0
 14 15  1  0  0  0
 14  1  1  0  0  0
 15 16  2  0  0  0
  1  2  1  0  0  0
  1  7  1  0  0  0
  2  3  1  0  0  0
  2 26  1  0  0  0
  3  4  2  0  0  0
  3  5  1  0  0  0
  5  6  2  0  0  0
  5  7  1  0  0  0
  7  8  2  0  0  0
  8  9  1  0  0  0
  8 17  1  0  0  0
 17 18  2  0  0  0
 17 22  1  0  0  0
 18 19  1  0  0  0
 19 20  2  0  0  0
 19 23  1  0  0  0
 20 21  1  0  0  0
 20 24  1  0  0  0
 21 22  2  0  0  0
 24 25  1  0  0  0
 26 27  1  0  0  0
 27 28  1  0  0  0
 28 29  1  0  0  0
 29 30  1  0  0  0
 29 34  1  0  0  0
 30 31  1  0  0  0
 31 32  1  0  0  0
 32 33  1  0  0  0
 33 34  1  0  0  0
 29 35  1  0  0  0
M  CHG 1   9  -1
M  CHG 1  29   1
M  END
> <minimizedAffinity>
-8.32981

$$$$
347


 34 37  0  0  0  0  0  0  0  0999 V2000
   53.9659   84.2287   20.9558 C   0  0  0  0  0  0  0  0  0  0  0  0
   54.0510   85.6735   21.0192 N   0  0  0  0  0  0  0  0  0  0  0  0
   53.1015   86.1737   20.0755 C   0  0  0  0  0  0  0  0  0  0  0  0
   52.5297   87.2916   20.1023 O   0  0  0  0  0  0  0  0  0  0  0  0
   52.9375   85.1200   19.0798 C   0  0  0  0  0  0  0  0  0  0  0  0
   52.2076   85.0954   18.0574 O   0  0  0  0  0  0  0  0  0  0  0  0
   53.8058   84.0139   19.4703 C   0  0  0  0  0  0  0  0  0  0  0  0
   54.2755   83.0657   18.6974 C   0  0  0  0  0  0  0  0  0  0  0  0
   55.0510   82.0789   19.3317 O   0  0  0  0  0  0  0  0  0  0  0  0
   49.1315   82.1114   24.1436 Br  0  0  0  0  0  0  0  0  0  0  0  0
   50.6204   82.7641   23.1454 C   0  0  0  0  0  0  0  0  0  0  0  0
   51.5279   83.6111   23.7368 C   0  0  0  0  0  0  0  0  0  0  0  0
   52.6204   84.0900   23.0088 C   0  0  0  0  0  0  0  0  0  0  0  0
   52.8153   83.7321   21.6975 C   0  0  0  0  0  0  0  0  0  0  0  0
   51.8903   82.8832   21.1323 C   0  0  0  0  0  0  0  0  0  0  0  0
   50.8034   82.3992   21.8379 C   0  0  0  0  0  0  0  0  0  0  0  0
   54.0356   83.0074   17.2592 C   0  0  0  0  0  0  0  0  0  0  0  0
   53.0489   82.2496   16.6706 C   0  0  0  0  0  0  0  0  0  0  0  0
   52.8288   82.1728   15.3069 C   0  0  0  0  0  0  0  0  0  0  0  0
   53.6384   82.8938   14.4769 C   0  0  0  0  0  0  0  0  0  0  0  0
   54.6494   83.6757   15.0283 C   0  0  0  0  0  0  0  0  0  0  0  0
   54.8393   83.7272   16.3929 C   0  0  0  0  0  0  0  0  0  0  0  0
   51.7950   81.3639   14.8926 O   0  0  0  0  0  0  0  0  0  0  0  0
   51.8764   80.1740   14.1864 C   0  0  0  0  0  0  0  0  0  0  0  0
   54.9310   86.4865   21.8760 C   0  0  0  0  0  0  0  0  0  0  0  0
   55.6693   87.5384   21.0346 C   0  0  0  0  0  0  0  0  0  0  0  0
   55.3351   88.9078   21.5533 C   0  0  0  0  0  0  0  0  0  0  0  0
   55.8912   89.8974   20.6623 N   0  0  0  0  0  0  0  0  0  0  0  0
   55.9475   91.2147   21.2137 C   0  0  0  0  0  0  0  0  0  0  0  0
   54.6104   91.8647   21.3213 C   0  0  0  0  0  0  0  0  0  0  0  0
   53.9733   91.8922   20.0929 O   0  0  0  0  0  0  0  0  0  0  0  0
   53.7897   90.5716   19.6816 C   0  0  0  0  0  0  0  0  0  0  0  0
   55.1589   89.9785   19.4111 C   0  0  0  0  0  0  0  0  0  0  0  0
   56.8625   89.5999   20.4111 H   0  0  0  0  0  0  0  0  0  0  0  0
 10 11  1  0  0  0
 11 12  2  0  0  0
 11 16  1  0  0  0
 12 13  1  0  0  0
 13 14  2  0  0  0
 14 15  1  0  0  0
 14  1  1  0  0  0
 15 16  2  0  0  0
  1  2  1  0  0  0
  1  7  1  0  0  0
  2  3  1  0  0  0
  2 25  1  0  0  0
  3  4  2  0  0  0
  3  5  1  0  0  0
  5  6  2  0  0  0
  5  7  1  0  0  0
  7  8  2  0  0  0
  8  9  1  0  0  0
  8 17  1  0  0  0
 17 18  2  0  0  0
 17 22  1  0  0  0
 18 19  1  0  0  0
 19 20  2  0  0  0
 19 23  1  0  0  0
 20 21  1  0  0  0
 21 22  2  0  0  0
 23 24  1  0  0  0
 25 26  1  0  0  0
 26 27  1  0  0  0
 27 28  1  0  0  0
 28 29  1  0  0  0
 28 33  1  0  0  0
 29 30  1  0  0  0
 30 31  1  0  0  0
 31 32  1  0  0  0
 32 33  1  0  0  0
 28 34  1  0  0  0
M  CHG 1   9  -1
M  CHG 1  28   1
M  END
> <minimizedAffinity>
-8.09041

$$$$
349


 32 35  0  0  0  0  0  0  0  0999 V2000
   53.1569   86.8728   19.8325 C   0  0  0  0  0  0  0  0  0  0  0  0
   53.2607   85.5889   19.2864 N   0  0  0  0  0  0  0  0  0  0  0  0
   53.3051   84.7119   20.4748 C   0  0  0  0  0  0  0  0  0  0  0  0
   52.8828   83.5260   20.5623 O   0  0  0  0  0  0  0  0  0  0  0  0
   53.9460   85.5319   21.5079 C   0  0  0  0  0  0  0  0  0  0  0  0
   54.2194   85.2144   22.7056 O   0  0  0  0  0  0  0  0  0  0  0  0
   54.2268   86.8317   20.8682 C   0  0  0  0  0  0  0  0  0  0  0  0
   55.2039   87.6668   21.1398 C   0  0  0  0  0  0  0  0  0  0  0  0
   55.3692   88.8249   20.3894 O   0  0  0  0  0  0  0  0  0  0  0  0
   51.7352   92.2466   17.2152 Br  0  0  0  0  0  0  0  0  0  0  0  0
   52.1890   90.5692   18.0205 C   0  0  0  0  0  0  0  0  0  0  0  0
   51.7048   90.2049   19.2581 C   0  0  0  0  0  0  0  0  0  0  0  0
   52.0423   89.0040   19.8135 C   0  0  0  0  0  0  0  0  0  0  0  0
   52.8867   88.0887   19.1670 C   0  0  0  0  0  0  0  0  0  0  0  0
   53.3574   88.4503   17.9545 C   0  0  0  0  0  0  0  0  0  0  0  0
   53.0160   89.6766   17.3824 C   0  0  0  0  0  0  0  0  0  0  0  0
   56.1526   87.4536   22.2215 C   0  0  0  0  0  0  0  0  0  0  0  0
   57.2037   86.5913   22.2078 C   0  0  0  0  0  0  0  0  0  0  0  0
   58.0645   86.5159   23.2939 C   0  0  0  0  0  0  0  0  0  0  0  0
   57.8655   87.3120   24.3987 C   0  0  0  0  0  0  0  0  0  0  0  0
   56.8142   88.1967   24.4520 C   0  0  0  0  0  0  0  0  0  0  0  0
   55.9670   88.2546   23.3542 C   0  0  0  0  0  0  0  0  0  0  0  0
   58.7704   87.2588   25.5857 C   0  0  0  0  0  0  0  0  0  0  0  0
   53.2932   84.9625   17.9733 C   0  0  0  0  0  0  0  0  0  0  0  0
   54.3759   83.9275   17.8136 C   0  0  0  0  0  0  0  0  0  0  0  0
   54.0789   82.9254   16.8434 N   0  0  0  0  0  0  0  0  0  0  0  0
   55.2813   82.1918   16.4954 C   0  0  0  0  0  0  0  0  0  0  0  0
   54.9201   81.1177   15.5037 C   0  0  0  0  0  0  0  0  0  0  0  0
   54.5875   81.7788   14.3102 O   0  0  0  0  0  0  0  0  0  0  0  0
   53.4581   82.5276   14.5465 C   0  0  0  0  0  0  0  0  0  0  0  0
   53.6674   83.5925   15.5918 C   0  0  0  0  0  0  0  0  0  0  0  0
   53.3245   82.2866   17.1335 H   0  0  0  0  0  0  0  0  0  0  0  0
 10 11  1  0  0  0
 11 12  2  0  0  0
 11 16  1  0  0  0
 12 13  1  0  0  0
 13 14  2  0  0  0
 14 15  1  0  0  0
 14  1  1  0  0  0
 15 16  2  0  0  0
  1  2  1  0  0  0
  1  7  1  0  0  0
  2  3  1  0  0  0
  2 24  1  0  0  0
  3  4  2  0  0  0
  3  5  1  0  0  0
  5  6  2  0  0  0
  5  7  1  0  0  0
  7  8  2  0  0  0
  8  9  1  0  0  0
  8 17  1  0  0  0
 17 18  2  0  0  0
 17 22  1  0  0  0
 18 19  1  0  0  0
 19 20  2  0  0  0
 20 21  1  0  0  0
 20 23  1  0  0  0
 21 22  2  0  0  0
 24 25  1  0  0  0
 25 26  1  0  0  0
 26 27  1  0  0  0
 26 31  1  0  0  0
 27 28  1  0  0  0
 28 29  1  0  0  0
 29 30  1  0  0  0
 30 31  1  0  0  0
 26 32  1  0  0  0
M  CHG 1   9  -1
M  CHG 1  26   1
M  END
> <minimizedAffinity>
-8.42218

$$$$
351


 32 35  0  0  0  0  0  0  0  0999 V2000
   53.0906   87.1249   19.8695 C   0  0  0  0  0  0  0  0  0  0  0  0
   53.1088   85.8420   19.2676 N   0  0  0  0  0  0  0  0  0  0  0  0
   53.2113   84.9368   20.4079 C   0  0  0  0  0  0  0  0  0  0  0  0
   52.7758   83.7542   20.4593 O   0  0  0  0  0  0  0  0  0  0  0  0
   53.9141   85.6856   21.4484 C   0  0  0  0  0  0  0  0  0  0  0  0
   54.2332   85.3040   22.6042 O   0  0  0  0  0  0  0  0  0  0  0  0
   54.1890   87.0044   20.8738 C   0  0  0  0  0  0  0  0  0  0  0  0
   55.1873   87.8195   21.1633 C   0  0  0  0  0  0  0  0  0  0  0  0
   55.3386   89.0129   20.4747 O   0  0  0  0  0  0  0  0  0  0  0  0
   53.0796   92.2631   16.5143 Br  0  0  0  0  0  0  0  0  0  0  0  0
   53.0411   90.6911   17.5839 C   0  0  0  0  0  0  0  0  0  0  0  0
   52.2172   90.5436   18.6763 C   0  0  0  0  0  0  0  0  0  0  0  0
   52.2165   89.3679   19.4413 C   0  0  0  0  0  0  0  0  0  0  0  0
   53.0395   88.3246   19.1248 C   0  0  0  0  0  0  0  0  0  0  0  0
   53.8536   88.5008   18.0250 C   0  0  0  0  0  0  0  0  0  0  0  0
   53.8666   89.6466   17.2632 C   0  0  0  0  0  0  0  0  0  0  0  0
   56.1747   87.5490   22.1989 C   0  0  0  0  0  0  0  0  0  0  0  0
   56.0056   88.2931   23.3744 C   0  0  0  0  0  0  0  0  0  0  0  0
   56.8280   88.1299   24.4649 C   0  0  0  0  0  0  0  0  0  0  0  0
   57.8526   87.1936   24.3814 C   0  0  0  0  0  0  0  0  0  0  0  0
   58.0123   86.4655   23.2229 C   0  0  0  0  0  0  0  0  0  0  0  0
   57.1817   86.6365   22.1353 C   0  0  0  0  0  0  0  0  0  0  0  0
   58.8926   86.9952   25.7736 Cl  0  0  0  0  0  0  0  0  0  0  0  0
   52.9992   85.3662   17.8857 C   0  0  0  0  0  0  0  0  0  0  0  0
   53.8973   84.2143   17.5550 C   0  0  0  0  0  0  0  0  0  0  0  0
   53.1668   83.0139   17.2151 N   0  0  0  0  0  0  0  0  0  0  0  0
   53.8070   81.8172   17.6845 C   0  0  0  0  0  0  0  0  0  0  0  0
   55.0760   81.4801   16.9580 C   0  0  0  0  0  0  0  0  0  0  0  0
   54.9000   81.4594   15.5734 O   0  0  0  0  0  0  0  0  0  0  0  0
   54.4856   82.7505   15.2129 C   0  0  0  0  0  0  0  0  0  0  0  0
   53.0893   82.9339   15.7677 C   0  0  0  0  0  0  0  0  0  0  0  0
   52.1920   83.0244   17.5725 H   0  0  0  0  0  0  0  0  0  0  0  0
 10 11  1  0  0  0
 11 12  2  0  0  0
 11 16  1  0  0  0
 12 13  1  0  0  0
 13 14  2  0  0  0
 14 15  1  0  0  0
 14  1  1  0  0  0
 15 16  2  0  0  0
  1  2  1  0  0  0
  1  7  1  0  0  0
  2  3  1  0  0  0
  2 24  1  0  0  0
  3  4  2  0  0  0
  3  5  1  0  0  0
  5  6  2  0  0  0
  5  7  1  0  0  0
  7  8  2  0  0  0
  8  9  1  0  0  0
  8 17  1  0  0  0
 17 18  2  0  0  0
 17 22  1  0  0  0
 18 19  1  0  0  0
 19 20  2  0  0  0
 20 21  1  0  0  0
 20 23  1  0  0  0
 21 22  2  0  0  0
 24 25  1  0  0  0
 25 26  1  0  0  0
 26 27  1  0  0  0
 26 31  1  0  0  0
 27 28  1  0  0  0
 28 29  1  0  0  0
 29 30  1  0  0  0
 30 31  1  0  0  0
 26 32  1  0  0  0
M  CHG 1   9  -1
M  CHG 1  26   1
M  END
> <minimizedAffinity>
-8.59164

$$$$
354


 32 35  0  0  0  0  0  0  0  0999 V2000
   52.9342   86.6732   19.8806 C   0  0  0  0  0  0  0  0  0  0  0  0
   52.9697   85.4158   19.2051 N   0  0  0  0  0  0  0  0  0  0  0  0
   53.2562   84.4307   20.2313 C   0  0  0  0  0  0  0  0  0  0  0  0
   53.0164   83.1998   20.1258 O   0  0  0  0  0  0  0  0  0  0  0  0
   53.8519   85.1222   21.3585 C   0  0  0  0  0  0  0  0  0  0  0  0
   54.2496   84.6218   22.4542 O   0  0  0  0  0  0  0  0  0  0  0  0
   53.9109   86.5225   20.9918 C   0  0  0  0  0  0  0  0  0  0  0  0
   54.7018   87.4328   21.5315 C   0  0  0  0  0  0  0  0  0  0  0  0
   54.6214   88.7341   20.9787 O   0  0  0  0  0  0  0  0  0  0  0  0
   53.3286   91.9780   16.7329 Br  0  0  0  0  0  0  0  0  0  0  0  0
   53.2469   90.3268   17.6877 C   0  0  0  0  0  0  0  0  0  0  0  0
   54.1359   89.2996   17.4569 C   0  0  0  0  0  0  0  0  0  0  0  0
   54.0632   88.1103   18.1566 C   0  0  0  0  0  0  0  0  0  0  0  0
   53.1226   87.8818   19.1027 C   0  0  0  0  0  0  0  0  0  0  0  0
   52.2222   88.9362   19.3294 C   0  0  0  0  0  0  0  0  0  0  0  0
   52.2761   90.1287   18.6454 C   0  0  0  0  0  0  0  0  0  0  0  0
   55.6135   87.1815   22.6295 C   0  0  0  0  0  0  0  0  0  0  0  0
   55.0971   87.3793   23.9162 C   0  0  0  0  0  0  0  0  0  0  0  0
   55.8399   87.1368   25.0526 C   0  0  0  0  0  0  0  0  0  0  0  0
   57.1054   86.6954   24.9361 N   0  0  0  0  0  0  0  0  0  0  0  0
   57.6287   86.4956   23.7089 C   0  0  0  0  0  0  0  0  0  0  0  0
   56.8882   86.7366   22.5533 C   0  0  0  0  0  0  0  0  0  0  0  0
   52.7090   85.0418   17.8137 C   0  0  0  0  0  0  0  0  0  0  0  0
   53.8321   84.3455   17.1235 C   0  0  0  0  0  0  0  0  0  0  0  0
   53.4140   82.9857   16.5858 C   0  0  0  0  0  0  0  0  0  0  0  0
   53.9620   81.9146   17.3851 N   0  0  0  0  0  0  0  0  0  0  0  0
   53.8695   80.6296   16.7299 C   0  0  0  0  0  0  0  0  0  0  0  0
   54.8394   79.6957   17.4578 C   0  0  0  0  0  0  0  0  0  0  0  0
   56.1380   80.0154   17.0628 O   0  0  0  0  0  0  0  0  0  0  0  0
   56.3175   81.3940   16.9566 C   0  0  0  0  0  0  0  0  0  0  0  0
   55.3111   82.1516   17.7979 C   0  0  0  0  0  0  0  0  0  0  0  0
   53.3710   81.8572   18.2488 H   0  0  0  0  0  0  0  0  0  0  0  0
 10 11  1  0  0  0
 11 12  2  0  0  0
 11 16  1  0  0  0
 12 13  1  0  0  0
 13 14  2  0  0  0
 14 15  1  0  0  0
 14  1  1  0  0  0
 15 16  2  0  0  0
  1  2  1  0  0  0
  1  7  1  0  0  0
  2  3  1  0  0  0
  2 23  1  0  0  0
  3  4  2  0  0  0
  3  5  1  0  0  0
  5  6  2  0  0  0
  5  7  1  0  0  0
  7  8  2  0  0  0
  8  9  1  0  0  0
  8 17  1  0  0  0
 17 18  2  0  0  0
 17 22  1  0  0  0
 18 19  1  0  0  0
 19 20  2  0  0  0
 20 21  1  0  0  0
 21 22  2  0  0  0
 23 24  1  0  0  0
 24 25  1  0  0  0
 25 26  1  0  0  0
 26 27  1  0  0  0
 26 31  1  0  0  0
 27 28  1  0  0  0
 28 29  1  0  0  0
 29 30  1  0  0  0
 30 31  1  0  0  0
 26 32  1  0  0  0
M  CHG 1   9  -1
M  CHG 1  26   1
M  END
> <minimizedAffinity>
-7.92556

$$$$
361


 33 36  0  0  0  0  0  0  0  0999 V2000
   54.8331   85.7251   20.8862 C   0  0  0  0  0  0  0  0  0  0  0  0
   54.0725   84.9982   19.8529 N   0  0  0  0  0  0  0  0  0  0  0  0
   52.8786   85.7560   19.6916 C   0  0  0  0  0  0  0  0  0  0  0  0
   51.7869   85.2812   19.2645 O   0  0  0  0  0  0  0  0  0  0  0  0
   53.1380   87.1344   20.0942 C   0  0  0  0  0  0  0  0  0  0  0  0
   52.3293   88.0850   20.0823 O   0  0  0  0  0  0  0  0  0  0  0  0
   54.5306   87.1529   20.5019 C   0  0  0  0  0  0  0  0  0  0  0  0
   55.3611   88.1641   20.5027 C   0  0  0  0  0  0  0  0  0  0  0  0
   56.6868   88.0005   20.8788 O   0  0  0  0  0  0  0  0  0  0  0  0
   54.9409   89.4981   20.1181 C   0  0  0  0  0  0  0  0  0  0  0  0
   54.5735   90.0123   18.9266 N   0  0  0  0  0  0  0  0  0  0  0  0
   54.2970   91.3199   19.0360 C   0  0  0  0  0  0  0  0  0  0  0  0
   54.4968   91.6363   20.3337 N   0  0  0  0  0  0  0  0  0  0  0  0
   54.8823   90.5802   21.0230 C   0  0  0  0  0  0  0  0  0  0  0  0
   55.2122   90.4589   22.4794 C   0  0  0  0  0  0  0  0  0  0  0  0
   53.8739   92.1011   17.9602 C   0  0  0  0  0  0  0  0  0  0  0  0
   53.7216   91.5334   16.7162 C   0  0  0  0  0  0  0  0  0  0  0  0
   54.0072   90.1907   16.6231 C   0  0  0  0  0  0  0  0  0  0  0  0
   54.4233   89.4465   17.7012 C   0  0  0  0  0  0  0  0  0  0  0  0
   52.3651   84.7683   26.5161 Br  0  0  0  0  0  0  0  0  0  0  0  0
   53.1255   85.0681   24.7771 C   0  0  0  0  0  0  0  0  0  0  0  0
   52.7226   84.3137   23.6902 C   0  0  0  0  0  0  0  0  0  0  0  0
   53.2833   84.5429   22.4349 C   0  0  0  0  0  0  0  0  0  0  0  0
   54.2402   85.5071   22.2245 C   0  0  0  0  0  0  0  0  0  0  0  0
   54.6271   86.2474   23.3204 C   0  0  0  0  0  0  0  0  0  0  0  0
   54.0810   86.0297   24.5635 C   0  0  0  0  0  0  0  0  0  0  0  0
   54.4751   83.7849   19.1916 C   0  0  0  0  0  0  0  0  0  0  0  0
   54.4049   83.7036   17.7175 C   0  0  0  0  0  0  0  0  0  0  0  0
   53.4937   82.7463   17.0576 C   0  0  0  0  0  0  0  0  0  0  0  0
   52.9985   83.0759   15.7554 N   0  0  0  0  0  0  0  0  0  0  0  0
   54.1832   83.4541   14.9333 C   0  0  0  0  0  0  0  0  0  0  0  0
   52.4847   81.8867   15.1073 C   0  0  0  0  0  0  0  0  0  0  0  0
   52.3144   83.8300   15.6979 H   0  0  0  0  0  0  0  0  0  0  0  0
 20 21  1  0  0  0
 21 22  2  0  0  0
 21 26  1  0  0  0
 22 23  1  0  0  0
 23 24  2  0  0  0
 24 25  1  0  0  0
 24  1  1  0  0  0
 25 26  2  0  0  0
  1  2  1  0  0  0
  1  7  1  0  0  0
  2  3  1  0  0  0
  2 27  1  0  0  0
  3  4  2  0  0  0
  3  5  1  0  0  0
  5  6  2  0  0  0
  5  7  1  0  0  0
  7  8  2  0  0  0
  8  9  1  0  0  0
  8 10  1  0  0  0
 10 11  1  0  0  0
 10 14  2  0  0  0
 11 12  1  0  0  0
 11 19  1  0  0  0
 12 13  2  0  0  0
 12 16  1  0  0  0
 13 14  1  0  0  0
 14 15  1  0  0  0
 16 17  2  0  0  0
 17 18  1  0  0  0
 18 19  2  0  0  0
 27 28  1  0  0  0
 28 29  1  0  0  0
 29 30  1  0  0  0
 30 31  1  0  0  0
 30 32  1  0  0  0
 30 33  1  0  0  0
M  CHG 1   9  -1
M  CHG 1  30   1
M  END
> <minimizedAffinity>
-7.90185

$$$$
362


 36 40  0  0  0  0  0  0  0  0999 V2000
   52.0635   83.2592   25.9825 C   0  0  0  0  0  0  0  0  0  0  0  0
   51.0012   83.0729   25.0859 N   0  0  0  0  0  0  0  0  0  0  0  0
   49.9931   82.4315   25.9128 C   0  0  0  0  0  0  0  0  0  0  0  0
   49.0503   81.6522   25.5421 O   0  0  0  0  0  0  0  0  0  0  0  0
   50.2348   82.8346   27.2937 C   0  0  0  0  0  0  0  0  0  0  0  0
   49.6233   82.5321   28.3682 O   0  0  0  0  0  0  0  0  0  0  0  0
   51.3981   83.7169   27.2294 C   0  0  0  0  0  0  0  0  0  0  0  0
   51.7722   84.6459   28.0889 C   0  0  0  0  0  0  0  0  0  0  0  0
   52.9497   85.3507   27.8802 O   0  0  0  0  0  0  0  0  0  0  0  0
   50.9947   84.9815   29.2719 C   0  0  0  0  0  0  0  0  0  0  0  0
   51.1464   84.5102   30.5211 N   0  0  0  0  0  0  0  0  0  0  0  0
   50.2508   85.0954   31.3500 C   0  0  0  0  0  0  0  0  0  0  0  0
   49.5346   85.9431   30.5941 N   0  0  0  0  0  0  0  0  0  0  0  0
   49.9503   85.9058   29.3302 C   0  0  0  0  0  0  0  0  0  0  0  0
   49.4633   86.6611   28.1452 C   0  0  0  0  0  0  0  0  0  0  0  0
   50.1753   84.7900   32.6922 C   0  0  0  0  0  0  0  0  0  0  0  0
   51.0191   83.8614   33.2541 C   0  0  0  0  0  0  0  0  0  0  0  0
   51.9354   83.2546   32.4243 C   0  0  0  0  0  0  0  0  0  0  0  0
   51.9697   83.5923   31.1070 C   0  0  0  0  0  0  0  0  0  0  0  0
   57.1359   86.3612   24.4570 Br  0  0  0  0  0  0  0  0  0  0  0  0
   55.5719   85.3798   24.9371 C   0  0  0  0  0  0  0  0  0  0  0  0
   55.6312   84.2344   25.7091 C   0  0  0  0  0  0  0  0  0  0  0  0
   54.5013   83.5246   26.0566 C   0  0  0  0  0  0  0  0  0  0  0  0
   53.2707   83.9443   25.6391 C   0  0  0  0  0  0  0  0  0  0  0  0
   53.2070   85.0756   24.8762 C   0  0  0  0  0  0  0  0  0  0  0  0
   54.3229   85.7971   24.5191 C   0  0  0  0  0  0  0  0  0  0  0  0
   50.6855   83.2908   23.7114 C   0  0  0  0  0  0  0  0  0  0  0  0
   51.0234   82.3578   22.6588 C   0  0  0  0  0  0  0  0  0  0  0  0
   52.2967   82.5987   21.8824 C   0  0  0  0  0  0  0  0  0  0  0  0
   52.0369   83.3392   20.6516 N   0  0  0  0  0  0  0  0  0  0  0  0
   52.7207   82.8211   19.5037 C   0  0  0  0  0  0  0  0  0  0  0  0
   54.1027   83.3671   19.2963 C   0  0  0  0  0  0  0  0  0  0  0  0
   54.6041   84.0280   20.3859 O   0  0  0  0  0  0  0  0  0  0  0  0
   53.7994   85.0108   20.9005 C   0  0  0  0  0  0  0  0  0  0  0  0
   52.3371   84.7326   20.7841 C   0  0  0  0  0  0  0  0  0  0  0  0
   51.0083   83.2383   20.4637 H   0  0  0  0  0  0  0  0  0  0  0  0
 20 21  1  0  0  0
 21 22  2  0  0  0
 21 26  1  0  0  0
 22 23  1  0  0  0
 23 24  2  0  0  0
 24 25  1  0  0  0
 24  1  1  0  0  0
 25 26  2  0  0  0
  1  2  1  0  0  0
  1  7  1  0  0  0
  2  3  1  0  0  0
  2 27  1  0  0  0
  3  4  2  0  0  0
  3  5  1  0  0  0
  5  6  2  0  0  0
  5  7  1  0  0  0
  7  8  2  0  0  0
  8  9  1  0  0  0
  8 10  1  0  0  0
 10 11  1  0  0  0
 10 14  2  0  0  0
 11 12  1  0  0  0
 11 19  1  0  0  0
 12 13  2  0  0  0
 12 16  1  0  0  0
 13 14  1  0  0  0
 14 15  1  0  0  0
 16 17  2  0  0  0
 17 18  1  0  0  0
 18 19  2  0  0  0
 27 28  1  0  0  0
 28 29  1  0  0  0
 29 30  1  0  0  0
 30 31  1  0  0  0
 30 35  1  0  0  0
 31 32  1  0  0  0
 32 33  1  0  0  0
 33 34  1  0  0  0
 34 35  1  0  0  0
 30 36  1  0  0  0
M  CHG 1   9  -1
M  CHG 1  30   1
M  END
> <minimizedAffinity>
-7.34386

$$$$
364


 32 35  0  0  0  0  0  0  0  0999 V2000
   52.5535   84.2998   20.0839 C   0  0  0  0  0  0  0  0  0  0  0  0
   53.4161   83.3766   19.3996 N   0  0  0  0  0  0  0  0  0  0  0  0
   53.9711   82.5108   20.3743 C   0  0  0  0  0  0  0  0  0  0  0  0
   54.9231   81.7012   20.1833 O   0  0  0  0  0  0  0  0  0  0  0  0
   53.2662   82.7024   21.6443 C   0  0  0  0  0  0  0  0  0  0  0  0
   53.4731   82.1108   22.7326 O   0  0  0  0  0  0  0  0  0  0  0  0
   52.2582   83.7212   21.4122 C   0  0  0  0  0  0  0  0  0  0  0  0
   51.2526   84.0111   22.2220 C   0  0  0  0  0  0  0  0  0  0  0  0
   50.3327   84.9829   21.7817 O   0  0  0  0  0  0  0  0  0  0  0  0
   51.0077   83.4351   23.5208 C   0  0  0  0  0  0  0  0  0  0  0  0
   51.4774   83.7049   24.7450 N   0  0  0  0  0  0  0  0  0  0  0  0
   50.9739   82.8496   25.6517 C   0  0  0  0  0  0  0  0  0  0  0  0
   50.1593   82.0111   24.9892 N   0  0  0  0  0  0  0  0  0  0  0  0
   50.1554   82.3365   23.6955 C   0  0  0  0  0  0  0  0  0  0  0  0
   49.3716   81.6396   22.6373 C   0  0  0  0  0  0  0  0  0  0  0  0
   51.2741   82.9029   27.0085 C   0  0  0  0  0  0  0  0  0  0  0  0
   52.1270   83.8790   27.4446 C   0  0  0  0  0  0  0  0  0  0  0  0
   52.6455   84.7615   26.5148 C   0  0  0  0  0  0  0  0  0  0  0  0
   52.3185   84.6666   25.1820 C   0  0  0  0  0  0  0  0  0  0  0  0
   55.1285   89.9367   20.6001 Br  0  0  0  0  0  0  0  0  0  0  0  0
   54.3123   88.2192   20.4114 C   0  0  0  0  0  0  0  0  0  0  0  0
   54.7400   87.1958   21.2081 C   0  0  0  0  0  0  0  0  0  0  0  0
   54.1618   85.9543   21.0822 C   0  0  0  0  0  0  0  0  0  0  0  0
   53.1556   85.6562   20.1913 C   0  0  0  0  0  0  0  0  0  0  0  0
   52.7416   86.7238   19.3932 C   0  0  0  0  0  0  0  0  0  0  0  0
   53.3090   87.9711   19.5052 C   0  0  0  0  0  0  0  0  0  0  0  0
   53.6819   83.3277   17.9450 C   0  0  0  0  0  0  0  0  0  0  0  0
   52.9053   82.1904   17.3166 C   0  0  0  0  0  0  0  0  0  0  0  0
   52.4162   82.4898   16.0166 N   0  0  0  0  0  0  0  0  0  0  0  0
   53.4786   83.1875   15.2919 C   0  0  0  0  0  0  0  0  0  0  0  0
   52.0016   81.3594   15.2447 C   0  0  0  0  0  0  0  0  0  0  0  0
   51.5995   83.1632   16.0457 H   0  0  0  0  0  0  0  0  0  0  0  0
 20 21  1  0  0  0
 21 22  2  0  0  0
 21 26  1  0  0  0
 22 23  1  0  0  0
 23 24  2  0  0  0
 24 25  1  0  0  0
 24  1  1  0  0  0
 25 26  2  0  0  0
  1  2  1  0  0  0
  1  7  1  0  0  0
  2  3  1  0  0  0
  2 27  1  0  0  0
  3  4  2  0  0  0
  3  5  1  0  0  0
  5  6  2  0  0  0
  5  7  1  0  0  0
  7  8  2  0  0  0
  8  9  1  0  0  0
  8 10  1  0  0  0
 10 11  1  0  0  0
 10 14  2  0  0  0
 11 12  1  0  0  0
 11 19  1  0  0  0
 12 13  2  0  0  0
 12 16  1  0  0  0
 13 14  1  0  0  0
 14 15  1  0  0  0
 16 17  2  0  0  0
 17 18  1  0  0  0
 18 19  2  0  0  0
 27 28  1  0  0  0
 28 29  1  0  0  0
 29 30  1  0  0  0
 29 31  1  0  0  0
 29 32  1  0  0  0
M  CHG 1   9  -1
M  CHG 1  29   1
M  END
> <minimizedAffinity>
-7.42619

$$$$
381


 29 32  0  0  0  0  0  0  0  0999 V2000
   53.3244   86.2406   20.4725 N   0  0  0  0  0  0  0  0  0  0  0  0
   53.5553   87.4668   20.0129 N   0  0  0  0  0  0  0  0  0  0  0  0
   54.6116   88.2099   20.4511 C   0  0  0  0  0  0  0  0  0  0  0  0
   55.4403   87.6933   21.3715 N   0  0  0  0  0  0  0  0  0  0  0  0
   56.4727   88.6463   21.7150 C   0  0  0  0  0  0  0  0  0  0  0  0
   56.2273   89.8727   20.8873 C   0  0  0  0  0  0  0  0  0  0  0  0
   55.0760   89.5038   20.0851 N   0  0  0  0  0  0  0  0  0  0  0  0
   55.2593   86.4637   21.8719 C   0  0  0  0  0  0  0  0  0  0  0  0
   56.0352   85.9831   22.7319 O   0  0  0  0  0  0  0  0  0  0  0  0
   54.1762   85.7547   21.3926 C   0  0  0  0  0  0  0  0  0  0  0  0
   53.9642   84.5967   21.8334 O   0  0  0  0  0  0  0  0  0  0  0  0
   54.5333   90.3511   19.0906 C   0  0  0  0  0  0  0  0  0  0  0  0
   53.3422   91.0136   19.2208 C   0  0  0  0  0  0  0  0  0  0  0  0
   52.8303   91.8233   18.2224 C   0  0  0  0  0  0  0  0  0  0  0  0
   53.5343   91.9811   17.0439 C   0  0  0  0  0  0  0  0  0  0  0  0
   54.7196   91.3327   16.8947 C   0  0  0  0  0  0  0  0  0  0  0  0
   55.2219   90.5269   17.8941 C   0  0  0  0  0  0  0  0  0  0  0  0
   52.2081   85.4137   19.9849 C   0  0  0  0  0  0  0  0  0  0  0  0
   53.5902   84.6749   17.9455 N   0  0  0  0  0  0  0  0  0  0  0  0
   52.6717   84.4585   18.9797 C   0  0  0  0  0  0  0  0  0  0  0  0
   52.1370   83.2860   19.1072 O   0  0  0  0  0  0  0  0  0  0  0  0
   53.9951   85.6511   17.8727 H   0  0  0  0  0  0  0  0  0  0  0  0
   55.0883   80.5570   13.6088 Br  0  0  0  0  0  0  0  0  0  0  0  0
   54.6594   81.8248   14.9724 C   0  0  0  0  0  0  0  0  0  0  0  0
   55.3173   81.8462   16.1738 C   0  0  0  0  0  0  0  0  0  0  0  0
   54.9909   82.7795   17.1675 C   0  0  0  0  0  0  0  0  0  0  0  0
   54.0070   83.7233   17.0107 C   0  0  0  0  0  0  0  0  0  0  0  0
   53.3525   83.6737   15.7643 C   0  0  0  0  0  0  0  0  0  0  0  0
   53.6647   82.7655   14.7910 C   0  0  0  0  0  0  0  0  0  0  0  0
 23 24  1  0  0  0
 24 25  2  0  0  0
 24 29  1  0  0  0
 25 26  1  0  0  0
 26 27  2  0  0  0
 27 28  1  0  0  0
 27 19  1  0  0  0
 28 29  2  0  0  0
 19 20  1  0  0  0
 20 21  2  0  0  0
 20 18  1  0  0  0
 18  1  1  0  0  0
  1  2  1  0  0  0
  1 10  1  0  0  0
  2  3  2  0  0  0
  3  4  1  0  0  0
  3  7  1  0  0  0
  4  5  1  0  0  0
  4  8  1  0  0  0
  5  6  1  0  0  0
  6  7  1  0  0  0
  7 12  1  0  0  0
 12 13  2  0  0  0
 12 17  1  0  0  0
 13 14  1  0  0  0
 14 15  2  0  0  0
 15 16  1  0  0  0
 16 17  2  0  0  0
  8  9  2  0  0  0
  8 10  1  0  0  0
 10 11  2  0  0  0
 19 22  1  0  0  0
M  END
> <minimizedAffinity>
-9.57016

$$$$
382


 31 34  0  0  0  0  0  0  0  0999 V2000
   55.8299   94.3799   24.9230 N   0  0  0  0  0  0  0  0  0  0  0  0
   57.0676   94.7661   24.6122 N   0  0  0  0  0  0  0  0  0  0  0  0
   57.2685   95.9861   25.0542 N   0  0  0  0  0  0  0  0  0  0  0  0
   56.1391   96.4101   25.6701 C   0  0  0  0  0  0  0  0  0  0  0  0
   55.2599   95.4049   25.5800 C   0  0  0  0  0  0  0  0  0  0  0  0
   54.1291   95.8742   26.2149 C   0  0  0  0  0  0  0  0  0  0  0  0
   53.0734   95.1825   26.3268 O   0  0  0  0  0  0  0  0  0  0  0  0
   54.2947   97.1208   26.6833 N   0  0  0  0  0  0  0  0  0  0  0  0
   55.5681   97.4666   26.3399 C   0  0  0  0  0  0  0  0  0  0  0  0
   56.0716   98.5876   26.6234 O   0  0  0  0  0  0  0  0  0  0  0  0
   57.7393   94.1598   24.0972 H   0  0  0  0  0  0  0  0  0  0  0  0
   58.1327   96.5777   24.9739 H   0  0  0  0  0  0  0  0  0  0  0  0
   53.3626   97.9468   27.3963 C   0  0  0  0  0  0  0  0  0  0  0  0
   52.7254   98.9978   26.7724 C   0  0  0  0  0  0  0  0  0  0  0  0
   51.8193   99.7903   27.4484 C   0  0  0  0  0  0  0  0  0  0  0  0
   51.5059   99.5751   28.7782 C   0  0  0  0  0  0  0  0  0  0  0  0
   52.1419   98.5242   29.4048 C   0  0  0  0  0  0  0  0  0  0  0  0
   53.0497   97.7317   28.7216 C   0  0  0  0  0  0  0  0  0  0  0  0
   50.5209  100.4454   29.4756 C   0  0  0  0  0  0  0  0  0  0  0  0
   55.2652   93.0879   24.5873 C   0  0  0  0  0  0  0  0  0  0  0  0
   54.9022   91.7142   22.4947 N   0  0  0  0  0  0  0  0  0  0  0  0
   55.2833   92.9308   23.0759 C   0  0  0  0  0  0  0  0  0  0  0  0
   55.6439   93.8968   22.3715 O   0  0  0  0  0  0  0  0  0  0  0  0
   54.6074   90.9135   23.1388 H   0  0  0  0  0  0  0  0  0  0  0  0
   54.4409   90.5588   16.4736 Br  0  0  0  0  0  0  0  0  0  0  0  0
   54.6386   90.8917   18.3343 C   0  0  0  0  0  0  0  0  0  0  0  0
   55.6884   90.3986   19.0666 C   0  0  0  0  0  0  0  0  0  0  0  0
   55.7861   90.6697   20.4246 C   0  0  0  0  0  0  0  0  0  0  0  0
   54.8636   91.4298   21.1106 C   0  0  0  0  0  0  0  0  0  0  0  0
   53.8012   91.9192   20.3269 C   0  0  0  0  0  0  0  0  0  0  0  0
   53.7035   91.6546   18.9983 C   0  0  0  0  0  0  0  0  0  0  0  0
 25 26  1  0  0  0
 26 27  2  0  0  0
 26 31  1  0  0  0
 27 28  1  0  0  0
 28 29  2  0  0  0
 29 30  1  0  0  0
 29 21  1  0  0  0
 30 31  2  0  0  0
 21 22  1  0  0  0
 22 23  2  0  0  0
 22 20  1  0  0  0
 20  1  1  0  0  0
  1  2  1  0  0  0
  1  5  1  0  0  0
  2  3  1  0  0  0
  3  4  1  0  0  0
  4  5  2  0  0  0
  4  9  1  0  0  0
  5  6  1  0  0  0
  6  7  2  0  0  0
  6  8  1  0  0  0
  8  9  1  0  0  0
  8 13  1  0  0  0
  9 10  2  0  0  0
 13 14  2  0  0  0
 13 18  1  0  0  0
 14 15  1  0  0  0
 15 16  2  0  0  0
 16 17  1  0  0  0
 16 19  1  0  0  0
 17 18  2  0  0  0
 21 24  1  0  0  0
  2 11  1  0  0  0
  3 12  1  0  0  0
M  END
> <minimizedAffinity>
-10.45124

$$$$
385


 32 35  0  0  0  0  0  0  0  0999 V2000
   47.4178  101.1778   28.8409 C   0  0  0  0  0  0  0  0  0  0  0  0
   48.2067  101.4813   27.6020 C   0  0  0  0  0  0  0  0  0  0  0  0
   49.5733  101.9580   27.8496 C   0  0  0  0  0  0  0  0  0  0  0  0
   50.4577  101.6864   26.9927 O   0  0  0  0  0  0  0  0  0  0  0  0
   49.8700  102.6963   29.0216 N   0  0  0  0  0  0  0  0  0  0  0  0
   48.9629  102.6990   30.1033 C   0  0  0  0  0  0  0  0  0  0  0  0
   49.2642  103.4307   31.2209 N   0  0  0  0  0  0  0  0  0  0  0  0
   48.4466  103.4891   32.2740 C   0  0  0  0  0  0  0  0  0  0  0  0
   47.3006  102.7993   32.2103 N   0  0  0  0  0  0  0  0  0  0  0  0
   46.9529  102.0530   31.1215 C   0  0  0  0  0  0  0  0  0  0  0  0
   47.7806  101.9766   30.0189 C   0  0  0  0  0  0  0  0  0  0  0  0
   45.7282  101.3269   31.1072 N   0  0  0  0  0  0  0  0  0  0  0  0
   50.7658  103.2569   29.1156 H   0  0  0  0  0  0  0  0  0  0  0  0
   45.3091  100.9485   30.2525 H   0  0  0  0  0  0  0  0  0  0  0  0
   45.2250  101.1767   32.0186 H   0  0  0  0  0  0  0  0  0  0  0  0
   48.7880  104.2668   33.4445 N   0  0  0  0  0  0  0  0  0  0  0  0
   47.8330  104.3070   34.4962 C   0  0  0  0  0  0  0  0  0  0  0  0
   48.3931  104.7281   35.8242 C   0  0  0  0  0  0  0  0  0  0  0  0
   49.7710  104.9117   35.7864 O   0  0  0  0  0  0  0  0  0  0  0  0
   50.1542  105.7404   34.7405 C   0  0  0  0  0  0  0  0  0  0  0  0
   50.0698  104.9406   33.4662 C   0  0  0  0  0  0  0  0  0  0  0  0
   48.8144   99.1278   28.9216 N   0  0  0  0  0  0  0  0  0  0  0  0
   47.6185   99.6669   29.0877 C   0  0  0  0  0  0  0  0  0  0  0  0
   46.4931   99.1343   29.4429 O   0  0  0  0  0  0  0  0  0  0  0  0
   48.2819   97.8853   29.0894 H   0  0  0  0  0  0  0  0  0  0  0  0
   54.1745   96.5195   27.6214 Br  0  0  0  0  0  0  0  0  0  0  0  0
   52.5001   97.3407   28.0759 C   0  0  0  0  0  0  0  0  0  0  0  0
   51.3367   96.9681   27.4501 C   0  0  0  0  0  0  0  0  0  0  0  0
   50.1558   97.5401   27.7572 C   0  0  0  0  0  0  0  0  0  0  0  0
   50.0548   98.5664   28.7495 C   0  0  0  0  0  0  0  0  0  0  0  0
   51.2448   98.9097   29.3526 C   0  0  0  0  0  0  0  0  0  0  0  0
   52.4464   98.3242   29.0393 C   0  0  0  0  0  0  0  0  0  0  0  0
 26 27  1  0  0  0
 27 28  2  0  0  0
 27 32  1  0  0  0
 28 29  1  0  0  0
 29 30  2  0  0  0
 30 31  1  0  0  0
 30 22  1  0  0  0
 31 32  2  0  0  0
 22 23  1  0  0  0
 23 24  2  0  0  0
 23  1  1  0  0  0
  1  2  1  0  0  0
  1 11  1  0  0  0
  2  3  1  0  0  0
  3  4  2  0  0  0
  3  5  1  0  0  0
  5  6  1  0  0  0
  6  7  2  0  0  0
  6 11  1  0  0  0
  7  8  1  0  0  0
  8  9  2  0  0  0
  8 16  1  0  0  0
  9 10  1  0  0  0
 10 11  2  0  0  0
 10 12  1  0  0  0
 16 17  1  0  0  0
 16 21  1  0  0  0
 17 18  1  0  0  0
 18 19  1  0  0  0
 19 20  1  0  0  0
 20 21  1  0  0  0
 22 25  1  0  0  0
  5 13  1  0  0  0
 12 14  1  0  0  0
 12 15  1  0  0  0
M  END
> <minimizedAffinity>
-9.67809

$$$$
386


 36 39  0  0  0  0  0  0  0  0999 V2000
   55.7020   95.2332   24.9653 C   0  0  0  0  0  0  0  0  0  0  0  0
   57.1497   95.6474   25.1512 C   0  0  0  0  0  0  0  0  0  0  0  0
   57.2295   97.1274   24.9608 C   0  0  0  0  0  0  0  0  0  0  0  0
   58.0690   97.6177   24.2272 O   0  0  0  0  0  0  0  0  0  0  0  0
   56.2971   97.8995   25.6684 N   0  0  0  0  0  0  0  0  0  0  0  0
   55.0901   97.3301   26.1348 C   0  0  0  0  0  0  0  0  0  0  0  0
   54.2312   98.0339   26.8997 N   0  0  0  0  0  0  0  0  0  0  0  0
   53.1199   97.5514   27.4565 C   0  0  0  0  0  0  0  0  0  0  0  0
   52.8746   96.2391   27.2056 N   0  0  0  0  0  0  0  0  0  0  0  0
   53.6930   95.4700   26.4427 C   0  0  0  0  0  0  0  0  0  0  0  0
   54.8250   95.9652   25.8711 C   0  0  0  0  0  0  0  0  0  0  0  0
   53.3685   94.1313   26.2388 O   0  0  0  0  0  0  0  0  0  0  0  0
   56.4481   98.9208   25.8881 H   0  0  0  0  0  0  0  0  0  0  0  0
   53.4961   93.4242   26.9597 H   0  0  0  0  0  0  0  0  0  0  0  0
   52.2087   98.3246   28.2133 N   0  0  0  0  0  0  0  0  0  0  0  0
   52.4701   99.5980   28.8322 C   0  0  0  0  0  0  0  0  0  0  0  0
   51.2254  100.4675   28.6819 C   0  0  0  0  0  0  0  0  0  0  0  0
   50.4427  100.1293   27.4473 C   0  0  0  0  0  0  0  0  0  0  0  0
   49.9875   98.7124   27.4585 C   0  0  0  0  0  0  0  0  0  0  0  0
   50.8403   97.8275   28.3966 C   0  0  0  0  0  0  0  0  0  0  0  0
   51.1729  100.4933   26.2100 C   0  0  0  0  0  0  0  0  0  0  0  0
   50.7866   99.9848   25.1378 O   0  0  0  0  0  0  0  0  0  0  0  0
   52.2773  101.3737   26.1783 N   0  0  0  0  0  0  0  0  0  0  0  0
   52.3500  102.2032   26.7954 H   0  0  0  0  0  0  0  0  0  0  0  0
   53.0503  101.1805   25.5077 H   0  0  0  0  0  0  0  0  0  0  0  0
   55.1954   93.2359   23.5764 N   0  0  0  0  0  0  0  0  0  0  0  0
   55.5083   93.7709   24.7725 C   0  0  0  0  0  0  0  0  0  0  0  0
   55.6947   93.1515   25.9068 O   0  0  0  0  0  0  0  0  0  0  0  0
   55.3261   91.9959   24.0867 H   0  0  0  0  0  0  0  0  0  0  0  0
   54.3148   90.6266   18.2013 Br  0  0  0  0  0  0  0  0  0  0  0  0
   54.5244   91.4776   19.8789 C   0  0  0  0  0  0  0  0  0  0  0  0
   55.4603   91.0008   20.7799 C   0  0  0  0  0  0  0  0  0  0  0  0
   55.6702   91.5536   21.9989 C   0  0  0  0  0  0  0  0  0  0  0  0
   54.8758   92.6896   22.3583 C   0  0  0  0  0  0  0  0  0  0  0  0
   53.9557   93.1382   21.4411 C   0  0  0  0  0  0  0  0  0  0  0  0
   53.7593   92.5601   20.2067 C   0  0  0  0  0  0  0  0  0  0  0  0
 30 31  1  0  0  0
 31 32  2  0  0  0
 31 36  1  0  0  0
 32 33  1  0  0  0
 33 34  2  0  0  0
 34 35  1  0  0  0
 34 26  1  0  0  0
 35 36  2  0  0  0
 26 27  1  0  0  0
 27 28  2  0  0  0
 27  1  1  0  0  0
  1  2  1  0  0  0
  1 11  1  0  0  0
  2  3  1  0  0  0
  3  4  2  0  0  0
  3  5  1  0  0  0
  5  6  1  0  0  0
  6  7  2  0  0  0
  6 11  1  0  0  0
  7  8  1  0  0  0
  8  9  2  0  0  0
  8 15  1  0  0  0
  9 10  1  0  0  0
 10 11  2  0  0  0
 10 12  1  0  0  0
 15 16  1  0  0  0
 15 20  1  0  0  0
 16 17  1  0  0  0
 17 18  1  0  0  0
 18 19  1  0  0  0
 18 21  1  0  0  0
 19 20  1  0  0  0
 21 22  2  0  0  0
 21 23  1  0  0  0
 26 29  1  0  0  0
  5 13  1  0  0  0
 12 14  1  0  0  0
 23 24  1  0  0  0
 23 25  1  0  0  0
M  END
> <minimizedAffinity>
-10.36913

$$$$
393


 27 30  0  0  0  0  0  0  0  0999 V2000
   53.9033   84.9458   21.7412 N   0  0  0  0  0  0  0  0  0  0  0  0
   54.7427   85.8126   22.2510 N   0  0  0  0  0  0  0  0  0  0  0  0
   54.5957   85.9500   23.5837 C   0  0  0  0  0  0  0  0  0  0  0  0
   53.5831   85.1011   23.9376 C   0  0  0  0  0  0  0  0  0  0  0  0
   53.1676   84.4870   22.7751 C   0  0  0  0  0  0  0  0  0  0  0  0
   53.0757   84.9150   25.2914 C   0  0  0  0  0  0  0  0  0  0  0  0
   52.0304   85.5418   25.5886 O   0  0  0  0  0  0  0  0  0  0  0  0
   53.6960   84.0832   26.2487 N   0  0  0  0  0  0  0  0  0  0  0  0
   53.1107   83.9689   27.5628 C   0  0  0  0  0  0  0  0  0  0  0  0
   52.6046   82.5664   27.7235 C   0  0  0  0  0  0  0  0  0  0  0  0
   53.2515   81.6380   26.8036 N   0  0  0  0  0  0  0  0  0  0  0  0
   54.5287   81.8934   26.2295 C   0  0  0  0  0  0  0  0  0  0  0  0
   55.2779   80.9344   25.9213 O   0  0  0  0  0  0  0  0  0  0  0  0
   54.8991   83.3137   26.0272 C   0  0  0  0  0  0  0  0  0  0  0  0
   52.7304   80.7414   26.5660 H   0  0  0  0  0  0  0  0  0  0  0  0
   53.5320   83.3680   15.7974 Br  0  0  0  0  0  0  0  0  0  0  0  0
   53.6459   83.8600   17.6419 C   0  0  0  0  0  0  0  0  0  0  0  0
   54.2143   83.0031   18.5608 C   0  0  0  0  0  0  0  0  0  0  0  0
   54.2885   83.3747   19.8880 C   0  0  0  0  0  0  0  0  0  0  0  0
   53.8144   84.5841   20.3606 C   0  0  0  0  0  0  0  0  0  0  0  0
   53.2484   85.4331   19.4271 C   0  0  0  0  0  0  0  0  0  0  0  0
   53.1677   85.0755   18.0963 C   0  0  0  0  0  0  0  0  0  0  0  0
   52.1130   83.5050   22.6601 N   0  0  0  0  0  0  0  0  0  0  0  0
   52.1770   82.2002   22.8789 C   0  0  0  0  0  0  0  0  0  0  0  0
   50.9523   81.6134   22.6592 C   0  0  0  0  0  0  0  0  0  0  0  0
   50.1184   82.6407   22.2871 C   0  0  0  0  0  0  0  0  0  0  0  0
   50.8558   83.8037   22.2944 C   0  0  0  0  0  0  0  0  0  0  0  0
 16 17  1  0  0  0
 17 18  2  0  0  0
 17 22  1  0  0  0
 18 19  1  0  0  0
 19 20  2  0  0  0
 20 21  1  0  0  0
 20  1  1  0  0  0
 21 22  2  0  0  0
  1  2  1  0  0  0
  1  5  1  0  0  0
  2  3  2  0  0  0
  3  4  1  0  0  0
  4  5  2  0  0  0
  4  6  1  0  0  0
  5 23  1  0  0  0
 23 24  1  0  0  0
 23 27  1  0  0  0
 24 25  2  0  0  0
 25 26  1  0  0  0
 26 27  2  0  0  0
  6  7  2  0  0  0
  6  8  1  0  0  0
  8  9  1  0  0  0
  8 14  1  0  0  0
  9 10  1  0  0  0
 10 11  1  0  0  0
 11 12  1  0  0  0
 12 13  2  0  0  0
 12 14  1  0  0  0
 11 15  1  0  0  0
M  END
> <minimizedAffinity>
-6.92137

$$$$
395


 28 31  0  0  0  0  0  0  0  0999 V2000
   49.7322  101.5183   28.7414 N   0  0  0  0  0  0  0  0  0  0  0  0
   49.9866  102.0904   27.5771 N   0  0  0  0  0  0  0  0  0  0  0  0
   50.9597  101.4669   26.9346 N   0  0  0  0  0  0  0  0  0  0  0  0
   51.3857  100.4247   27.6976 C   0  0  0  0  0  0  0  0  0  0  0  0
   50.5913  100.4874   28.8284 C   0  0  0  0  0  0  0  0  0  0  0  0
   50.8000   99.5595   29.7693 N   0  0  0  0  0  0  0  0  0  0  0  0
   51.7429   98.6148   29.6091 C   0  0  0  0  0  0  0  0  0  0  0  0
   52.5238   98.5469   28.5067 N   0  0  0  0  0  0  0  0  0  0  0  0
   52.3486   99.4565   27.5406 C   0  0  0  0  0  0  0  0  0  0  0  0
   53.0694   99.3968   26.5201 O   0  0  0  0  0  0  0  0  0  0  0  0
   45.5871  103.1839   32.9884 Br  0  0  0  0  0  0  0  0  0  0  0  0
   46.8640  102.6591   31.6609 C   0  0  0  0  0  0  0  0  0  0  0  0
   48.1930  103.0110   31.7691 C   0  0  0  0  0  0  0  0  0  0  0  0
   49.1319  102.6402   30.8179 C   0  0  0  0  0  0  0  0  0  0  0  0
   48.7591  101.8966   29.7180 C   0  0  0  0  0  0  0  0  0  0  0  0
   47.4271  101.5479   29.6167 C   0  0  0  0  0  0  0  0  0  0  0  0
   46.4913  101.9155   30.5611 C   0  0  0  0  0  0  0  0  0  0  0  0
   53.5158   97.4910   28.4257 C   0  0  0  0  0  0  0  0  0  0  0  0
   53.2158   96.5852   27.2587 C   0  0  0  0  0  0  0  0  0  0  0  0
   52.0701   96.0806   27.1163 O   0  0  0  0  0  0  0  0  0  0  0  0
   54.2121   96.2828   26.3007 N   0  0  0  0  0  0  0  0  0  0  0  0
   53.9369   95.4160   25.1797 C   0  0  0  0  0  0  0  0  0  0  0  0
   55.1109   94.4591   25.0635 C   0  0  0  0  0  0  0  0  0  0  0  0
   56.3242   95.0889   24.9597 O   0  0  0  0  0  0  0  0  0  0  0  0
   56.2934   96.4443   25.1772 C   0  0  0  0  0  0  0  0  0  0  0  0
   55.5383   96.8403   26.4296 C   0  0  0  0  0  0  0  0  0  0  0  0
   57.6522   97.0803   25.1851 C   0  0  0  0  0  0  0  0  0  0  0  0
   54.8963   93.6799   23.7617 C   0  0  0  0  0  0  0  0  0  0  0  0
 11 12  1  0  0  0
 12 13  2  0  0  0
 12 17  1  0  0  0
 13 14  1  0  0  0
 14 15  2  0  0  0
 15 16  1  0  0  0
 15  1  1  0  0  0
 16 17  2  0  0  0
  1  2  1  0  0  0
  1  5  1  0  0  0
  2  3  2  0  0  0
  3  4  1  0  0  0
  4  5  2  0  0  0
  4  9  1  0  0  0
  5  6  1  0  0  0
  6  7  2  0  0  0
  7  8  1  0  0  0
  8  9  1  0  0  0
  8 18  1  0  0  0
  9 10  2  0  0  0
 18 19  1  0  0  0
 19 20  2  0  0  0
 19 21  1  0  0  0
 21 22  1  0  0  0
 21 26  1  0  0  0
 22 23  1  0  0  0
 23 24  1  0  0  0
 23 28  1  0  0  0
 24 25  1  0  0  0
 25 26  1  0  0  0
 25 27  1  0  0  0
M  END
> <minimizedAffinity>
-9.71045

$$$$
399


 28 31  0  0  0  0  0  0  0  0999 V2000
   55.7288   87.3792   23.4750 N   0  0  0  0  0  0  0  0  0  0  0  0
   55.0878   87.1336   24.7219 C   0  0  0  0  0  0  0  0  0  0  0  0
   54.1504   87.8132   25.1917 O   0  0  0  0  0  0  0  0  0  0  0  0
   55.6712   85.9672   25.4012 C   0  0  0  0  0  0  0  0  0  0  0  0
   57.0624   85.9013   24.7815 C   0  0  0  0  0  0  0  0  0  0  0  0
   56.8303   86.4526   23.4090 C   0  0  0  0  0  0  0  0  0  0  0  0
   57.5345   86.0969   22.4458 O   0  0  0  0  0  0  0  0  0  0  0  0
   54.2590   91.4503   19.0814 Br  0  0  0  0  0  0  0  0  0  0  0  0
   54.7184   90.1915   20.4494 C   0  0  0  0  0  0  0  0  0  0  0  0
   55.3599   90.5771   21.5945 C   0  0  0  0  0  0  0  0  0  0  0  0
   55.6933   89.6523   22.5896 C   0  0  0  0  0  0  0  0  0  0  0  0
   55.3915   88.3275   22.4603 C   0  0  0  0  0  0  0  0  0  0  0  0
   54.7518   87.9377   21.3191 C   0  0  0  0  0  0  0  0  0  0  0  0
   54.4136   88.8567   20.3138 C   0  0  0  0  0  0  0  0  0  0  0  0
   54.9706   84.7199   25.1951 N   0  0  0  0  0  0  0  0  0  0  0  0
   55.1252   83.8111   26.3056 C   0  0  0  0  0  0  0  0  0  0  0  0
   53.9720   83.8196   27.2843 C   0  0  0  0  0  0  0  0  0  0  0  0
   52.7050   83.8963   26.6027 N   0  0  0  0  0  0  0  0  0  0  0  0
   52.7832   83.7048   25.1736 C   0  0  0  0  0  0  0  0  0  0  0  0
   53.6558   84.8773   24.6873 C   0  0  0  0  0  0  0  0  0  0  0  0
   55.5305   84.2474   24.4068 H   0  0  0  0  0  0  0  0  0  0  0  0
   51.4881   84.1531   27.2427 C   0  0  0  0  0  0  0  0  0  0  0  0
   51.0975   85.3714   27.7608 C   0  0  0  0  0  0  0  0  0  0  0  0
   49.8880   85.5654   28.4082 C   0  0  0  0  0  0  0  0  0  0  0  0
   49.0154   84.5214   28.5597 C   0  0  0  0  0  0  0  0  0  0  0  0
   49.3557   83.2801   28.0612 C   0  0  0  0  0  0  0  0  0  0  0  0
   50.5690   83.1115   27.4182 C   0  0  0  0  0  0  0  0  0  0  0  0
   47.7826   84.6489   29.2007 O   0  0  0  0  0  0  0  0  0  0  0  0
  8  9  1  0  0  0
  9 10  2  0  0  0
  9 14  1  0  0  0
 10 11  1  0  0  0
 11 12  2  0  0  0
 12 13  1  0  0  0
 12  1  1  0  0  0
 13 14  2  0  0  0
  1  2  1  0  0  0
  1  6  1  0  0  0
  2  3  2  0  0  0
  2  4  1  0  0  0
  4  5  1  0  0  0
  4 15  1  0  0  0
  5  6  1  0  0  0
  6  7  2  0  0  0
 15 16  1  0  0  0
 15 20  1  0  0  0
 16 17  1  0  0  0
 17 18  1  0  0  0
 18 19  1  0  0  0
 18 22  1  0  0  0
 19 20  1  0  0  0
 22 23  2  0  0  0
 22 27  1  0  0  0
 23 24  1  0  0  0
 24 25  2  0  0  0
 25 26  1  0  0  0
 25 28  1  0  0  0
 26 27  2  0  0  0
 15 21  1  0  0  0
M  CHG 1  15   1
M  CHG 1  28  -1
M  END
> <minimizedAffinity>
-8.42799

$$$$
400


 31 34  0  0  0  0  0  0  0  0999 V2000
   54.9580   86.6376   24.8381 N   0  0  0  0  0  0  0  0  0  0  0  0
   54.8805   86.1067   26.1389 C   0  0  0  0  0  0  0  0  0  0  0  0
   53.4394   85.6454   26.3942 C   0  0  0  0  0  0  0  0  0  0  0  0
   53.0816   84.4621   25.5227 C   0  0  0  0  0  0  0  0  0  0  0  0
   53.6302   84.6617   24.1677 C   0  0  0  0  0  0  0  0  0  0  0  0
   54.0274   86.0956   23.9220 C   0  0  0  0  0  0  0  0  0  0  0  0
   56.2782   87.9848   22.1737 N   0  0  0  0  0  0  0  0  0  0  0  0
   56.0666   88.2877   23.5568 C   0  0  0  0  0  0  0  0  0  0  0  0
   55.8062   89.4048   24.0659 O   0  0  0  0  0  0  0  0  0  0  0  0
   56.2087   87.0219   24.3220 C   0  0  0  0  0  0  0  0  0  0  0  0
   56.8276   86.0133   23.3803 C   0  0  0  0  0  0  0  0  0  0  0  0
   57.1069   86.8292   22.1686 C   0  0  0  0  0  0  0  0  0  0  0  0
   57.9566   86.5527   21.2500 O   0  0  0  0  0  0  0  0  0  0  0  0
   53.9921   91.0537   17.3367 Br  0  0  0  0  0  0  0  0  0  0  0  0
   54.6979   90.0996   18.8362 C   0  0  0  0  0  0  0  0  0  0  0  0
   54.0002   89.0875   19.4536 C   0  0  0  0  0  0  0  0  0  0  0  0
   54.5239   88.3938   20.5515 C   0  0  0  0  0  0  0  0  0  0  0  0
   55.7607   88.7037   21.0511 C   0  0  0  0  0  0  0  0  0  0  0  0
   56.4500   89.7189   20.4263 C   0  0  0  0  0  0  0  0  0  0  0  0
   55.9422   90.4119   19.3388 C   0  0  0  0  0  0  0  0  0  0  0  0
   53.4576   83.2868   26.1929 N   0  0  0  0  0  0  0  0  0  0  0  0
   54.2170   82.3290   25.5053 C   0  0  0  0  0  0  0  0  0  0  0  0
   53.4485   80.9995   25.6030 C   0  0  0  0  0  0  0  0  0  0  0  0
   53.4576   80.6277   27.0719 C   0  0  0  0  0  0  0  0  0  0  0  0
   53.8068   81.7661   27.9715 C   0  0  0  0  0  0  0  0  0  0  0  0
   53.1695   83.0923   27.5302 C   0  0  0  0  0  0  0  0  0  0  0  0
   51.5784   84.4755   25.4304 C   0  0  0  0  0  0  0  0  0  0  0  0
   50.9238   85.4353   25.9380 O   0  0  0  0  0  0  0  0  0  0  0  0
   50.8387   83.4515   24.7928 N   0  0  0  0  0  0  0  0  0  0  0  0
   50.1772   82.8864   25.3387 H   0  0  0  0  0  0  0  0  0  0  0  0
   50.9528   83.2629   23.7785 H   0  0  0  0  0  0  0  0  0  0  0  0
 14 15  1  0  0  0
 15 16  2  0  0  0
 15 20  1  0  0  0
 16 17  1  0  0  0
 17 18  2  0  0  0
 18 19  1  0  0  0
 18  7  1  0  0  0
 19 20  2  0  0  0
  7  8  1  0  0  0
  7 12  1  0  0  0
  8  9  2  0  0  0
  8 10  1  0  0  0
 10 11  1  0  0  0
 10  1  1  0  0  0
 11 12  1  0  0  0
 12 13  2  0  0  0
  1  2  1  0  0  0
  1  6  1  0  0  0
  2  3  1  0  0  0
  3  4  1  0  0  0
  4  5  1  0  0  0
  4 21  1  0  0  0
  4 27  1  0  0  0
  5  6  1  0  0  0
 21 22  1  0  0  0
 21 26  1  0  0  0
 22 23  1  0  0  0
 23 24  1  0  0  0
 24 25  1  0  0  0
 25 26  1  0  0  0
 27 28  2  0  0  0
 27 29  1  0  0  0
 29 30  1  0  0  0
 29 31  1  0  0  0
M  END
> <minimizedAffinity>
-7.93934

$$$$
408


 31 34  0  0  0  0  0  0  0  0999 V2000
   48.7487  101.6488   29.4440 N   0  0  0  0  0  0  0  0  0  0  0  0
   49.9019  100.9816   29.6195 C   0  0  0  0  0  0  0  0  0  0  0  0
   50.4619  100.8277   30.7482 O   0  0  0  0  0  0  0  0  0  0  0  0
   50.3862  100.4917   28.4064 C   0  0  0  0  0  0  0  0  0  0  0  0
   49.5010  100.8759   27.4914 C   0  0  0  0  0  0  0  0  0  0  0  0
   49.9867  100.3943   26.3331 N   0  0  0  0  0  0  0  0  0  0  0  0
   51.1197   99.7449   26.5442 N   0  0  0  0  0  0  0  0  0  0  0  0
   51.3761   99.7996   27.8285 N   0  0  0  0  0  0  0  0  0  0  0  0
   48.4954  101.5852   28.1171 C   0  0  0  0  0  0  0  0  0  0  0  0
   47.4912  102.1037   27.5817 O   0  0  0  0  0  0  0  0  0  0  0  0
   49.4829  100.5497   25.4231 H   0  0  0  0  0  0  0  0  0  0  0  0
   51.6678   99.2895   25.7785 H   0  0  0  0  0  0  0  0  0  0  0  0
   45.3900  104.4779   33.7700 Br  0  0  0  0  0  0  0  0  0  0  0  0
   46.4291  103.5897   32.4218 C   0  0  0  0  0  0  0  0  0  0  0  0
   47.6617  104.0741   32.0397 C   0  0  0  0  0  0  0  0  0  0  0  0
   48.4115  103.4367   31.0693 C   0  0  0  0  0  0  0  0  0  0  0  0
   47.9578  102.2890   30.4416 C   0  0  0  0  0  0  0  0  0  0  0  0
   46.7215  101.8211   30.8389 C   0  0  0  0  0  0  0  0  0  0  0  0
   45.9682  102.4488   31.8042 C   0  0  0  0  0  0  0  0  0  0  0  0
   52.5056   99.2305   28.5189 C   0  0  0  0  0  0  0  0  0  0  0  0
   53.0257   98.0052   27.8252 C   0  0  0  0  0  0  0  0  0  0  0  0
   52.3015   96.9896   27.9549 O   0  0  0  0  0  0  0  0  0  0  0  0
   54.2182   98.0018   27.0972 N   0  0  0  0  0  0  0  0  0  0  0  0
   54.7278   98.9483   27.0774 H   0  0  0  0  0  0  0  0  0  0  0  0
   54.7928   96.9226   26.4156 C   0  0  0  0  0  0  0  0  0  0  0  0
   56.1549   97.0221   26.0885 C   0  0  0  0  0  0  0  0  0  0  0  0
   56.7591   95.9874   25.4205 C   0  0  0  0  0  0  0  0  0  0  0  0
   56.0879   94.8409   25.0510 C   0  0  0  0  0  0  0  0  0  0  0  0
   54.7652   94.7373   25.3645 C   0  0  0  0  0  0  0  0  0  0  0  0
   54.1469   95.7717   26.0355 C   0  0  0  0  0  0  0  0  0  0  0  0
   56.9472   98.2143   26.4477 C   0  0  0  0  0  0  0  0  0  0  0  0
 13 14  1  0  0  0
 14 15  2  0  0  0
 14 19  1  0  0  0
 15 16  1  0  0  0
 16 17  2  0  0  0
 17 18  1  0  0  0
 17  1  1  0  0  0
 18 19  2  0  0  0
  1  2  1  0  0  0
  1  9  1  0  0  0
  2  3  2  0  0  0
  2  4  1  0  0  0
  4  5  2  0  0  0
  4  8  1  0  0  0
  5  6  1  0  0  0
  5  9  1  0  0  0
  6  7  1  0  0  0
  7  8  1  0  0  0
  8 20  1  0  0  0
 20 21  1  0  0  0
 21 22  2  0  0  0
 21 23  1  0  0  0
 23 25  1  0  0  0
 25 26  2  0  0  0
 25 30  1  0  0  0
 26 27  1  0  0  0
 26 31  1  0  0  0
 27 28  2  0  0  0
 28 29  1  0  0  0
 29 30  2  0  0  0
  9 10  2  0  0  0
  6 11  1  0  0  0
  7 12  1  0  0  0
 23 24  1  0  0  0
M  END
> <minimizedAffinity>
-9.41899

$$$$
411


 34 37  0  0  0  0  0  0  0  0999 V2000
   54.2985   97.1225   26.6934 N   0  0  0  0  0  0  0  0  0  0  0  0
   54.1571   95.8872   26.1860 C   0  0  0  0  0  0  0  0  0  0  0  0
   53.0877   95.2333   26.2887 O   0  0  0  0  0  0  0  0  0  0  0  0
   55.3192   95.4669   25.5608 C   0  0  0  0  0  0  0  0  0  0  0  0
   56.1820   96.4665   25.6912 C   0  0  0  0  0  0  0  0  0  0  0  0
   57.3079   96.0587   25.0856 N   0  0  0  0  0  0  0  0  0  0  0  0
   57.1369   94.8427   24.5986 N   0  0  0  0  0  0  0  0  0  0  0  0
   55.9197   94.4610   24.8799 N   0  0  0  0  0  0  0  0  0  0  0  0
   55.5637   97.4852   26.3855 C   0  0  0  0  0  0  0  0  0  0  0  0
   56.1000   98.6017   26.6910 O   0  0  0  0  0  0  0  0  0  0  0  0
   58.1972   96.5888   24.9940 H   0  0  0  0  0  0  0  0  0  0  0  0
   57.8466   94.2557   24.0671 H   0  0  0  0  0  0  0  0  0  0  0  0
   50.2565  100.6977   29.6658 Br  0  0  0  0  0  0  0  0  0  0  0  0
   51.5151   99.5780   28.7548 C   0  0  0  0  0  0  0  0  0  0  0  0
   52.1493   98.5365   29.4030 C   0  0  0  0  0  0  0  0  0  0  0  0
   53.0627   97.7255   28.7359 C   0  0  0  0  0  0  0  0  0  0  0  0
   53.3704   97.9311   27.4071 C   0  0  0  0  0  0  0  0  0  0  0  0
   52.7350   98.9717   26.7659 C   0  0  0  0  0  0  0  0  0  0  0  0
   51.8283   99.7763   27.4250 C   0  0  0  0  0  0  0  0  0  0  0  0
   55.2899   93.2056   24.5470 C   0  0  0  0  0  0  0  0  0  0  0  0
   55.2588   93.0507   23.0443 C   0  0  0  0  0  0  0  0  0  0  0  0
   55.6915   93.9793   22.3262 O   0  0  0  0  0  0  0  0  0  0  0  0
   54.7497   91.8777   22.4683 N   0  0  0  0  0  0  0  0  0  0  0  0
   54.3971   91.1248   23.1445 H   0  0  0  0  0  0  0  0  0  0  0  0
   54.6686   91.6030   21.0887 C   0  0  0  0  0  0  0  0  0  0  0  0
   53.7018   92.0633   20.2310 C   0  0  0  0  0  0  0  0  0  0  0  0
   53.6688   91.7427   18.8897 C   0  0  0  0  0  0  0  0  0  0  0  0
   54.6592   90.9203   18.3953 C   0  0  0  0  0  0  0  0  0  0  0  0
   55.6545   90.4347   19.2278 C   0  0  0  0  0  0  0  0  0  0  0  0
   55.6666   90.7647   20.5555 C   0  0  0  0  0  0  0  0  0  0  0  0
   54.6447   90.5848   17.0441 O   0  0  0  0  0  0  0  0  0  0  0  0
   54.0310   89.3770   16.6399 C   0  0  0  0  0  0  0  0  0  0  0  0
   52.6738   92.2257   18.0427 O   0  0  0  0  0  0  0  0  0  0  0  0
   51.3193   91.8587   18.3348 C   0  0  0  0  0  0  0  0  0  0  0  0
 13 14  1  0  0  0
 14 15  2  0  0  0
 14 19  1  0  0  0
 15 16  1  0  0  0
 16 17  2  0  0  0
 17 18  1  0  0  0
 17  1  1  0  0  0
 18 19  2  0  0  0
  1  2  1  0  0  0
  1  9  1  0  0  0
  2  3  2  0  0  0
  2  4  1  0  0  0
  4  5  2  0  0  0
  4  8  1  0  0  0
  5  6  1  0  0  0
  5  9  1  0  0  0
  6  7  1  0  0  0
  7  8  1  0  0  0
  8 20  1  0  0  0
 20 21  1  0  0  0
 21 22  2  0  0  0
 21 23  1  0  0  0
 23 25  1  0  0  0
 25 26  2  0  0  0
 25 30  1  0  0  0
 26 27  1  0  0  0
 27 28  2  0  0  0
 27 33  1  0  0  0
 28 29  1  0  0  0
 28 31  1  0  0  0
 29 30  2  0  0  0
 31 32  1  0  0  0
 33 34  1  0  0  0
  9 10  2  0  0  0
  6 11  1  0  0  0
  7 12  1  0  0  0
 23 24  1  0  0  0
M  END
> <minimizedAffinity>
-9.95788

$$$$
412


 34 37  0  0  0  0  0  0  0  0999 V2000
   54.7754   85.2245   25.8682 N   0  0  0  0  0  0  0  0  0  0  0  0
   54.8519   86.5114   25.5202 C   0  0  0  0  0  0  0  0  0  0  0  0
   53.9207   87.3617   25.7176 O   0  0  0  0  0  0  0  0  0  0  0  0
   56.0416   86.8459   24.9164 C   0  0  0  0  0  0  0  0  0  0  0  0
   56.7340   85.6907   24.8965 C   0  0  0  0  0  0  0  0  0  0  0  0
   57.9152   85.9931   24.3054 N   0  0  0  0  0  0  0  0  0  0  0  0
   57.9455   87.2733   23.9803 N   0  0  0  0  0  0  0  0  0  0  0  0
   56.7979   87.8015   24.3537 N   0  0  0  0  0  0  0  0  0  0  0  0
   55.9753   84.6980   25.4716 C   0  0  0  0  0  0  0  0  0  0  0  0
   56.2680   83.4895   25.6390 O   0  0  0  0  0  0  0  0  0  0  0  0
   58.6756   85.2931   24.1399 H   0  0  0  0  0  0  0  0  0  0  0  0
   58.7716   87.7267   23.5055 H   0  0  0  0  0  0  0  0  0  0  0  0
   50.2291   82.1317   28.6642 Br  0  0  0  0  0  0  0  0  0  0  0  0
   51.6461   83.0991   27.7843 C   0  0  0  0  0  0  0  0  0  0  0  0
   51.7787   83.0768   26.4167 C   0  0  0  0  0  0  0  0  0  0  0  0
   52.8129   83.7795   25.7786 C   0  0  0  0  0  0  0  0  0  0  0  0
   53.7178   84.5077   26.5114 C   0  0  0  0  0  0  0  0  0  0  0  0
   53.5630   84.5153   27.8812 C   0  0  0  0  0  0  0  0  0  0  0  0
   52.5543   83.8294   28.5157 C   0  0  0  0  0  0  0  0  0  0  0  0
   56.4378   89.1789   24.1796 C   0  0  0  0  0  0  0  0  0  0  0  0
   55.7266   89.4499   22.9326 C   0  0  0  0  0  0  0  0  0  0  0  0
   55.1575   90.5560   22.7002 O   0  0  0  0  0  0  0  0  0  0  0  0
   55.6741   88.4272   21.9592 N   0  0  0  0  0  0  0  0  0  0  0  0
   56.1414   87.4852   22.1365 H   0  0  0  0  0  0  0  0  0  0  0  0
   54.9880   88.6726   20.7427 C   0  0  0  0  0  0  0  0  0  0  0  0
   53.9514   87.8244   20.4412 C   0  0  0  0  0  0  0  0  0  0  0  0
   53.2427   87.9808   19.2439 C   0  0  0  0  0  0  0  0  0  0  0  0
   53.5874   88.9808   18.3735 C   0  0  0  0  0  0  0  0  0  0  0  0
   54.6375   89.8487   18.6651 C   0  0  0  0  0  0  0  0  0  0  0  0
   55.3177   89.6681   19.8595 C   0  0  0  0  0  0  0  0  0  0  0  0
   54.9304   90.8283   17.7399 O   0  0  0  0  0  0  0  0  0  0  0  0
   54.5973   90.8342   16.3867 C   0  0  0  0  0  0  0  0  0  0  0  0
   52.2241   87.0794   19.0473 O   0  0  0  0  0  0  0  0  0  0  0  0
   52.4049   85.7319   18.8079 C   0  0  0  0  0  0  0  0  0  0  0  0
 13 14  1  0  0  0
 14 15  2  0  0  0
 14 19  1  0  0  0
 15 16  1  0  0  0
 16 17  2  0  0  0
 17 18  1  0  0  0
 17  1  1  0  0  0
 18 19  2  0  0  0
  1  2  1  0  0  0
  1  9  1  0  0  0
  2  3  2  0  0  0
  2  4  1  0  0  0
  4  5  2  0  0  0
  4  8  1  0  0  0
  5  6  1  0  0  0
  5  9  1  0  0  0
  6  7  1  0  0  0
  7  8  1  0  0  0
  8 20  1  0  0  0
 20 21  1  0  0  0
 21 22  2  0  0  0
 21 23  1  0  0  0
 23 25  1  0  0  0
 25 26  2  0  0  0
 25 30  1  0  0  0
 26 27  1  0  0  0
 27 28  2  0  0  0
 27 33  1  0  0  0
 28 29  1  0  0  0
 29 30  2  0  0  0
 29 31  1  0  0  0
 31 32  1  0  0  0
 33 34  1  0  0  0
  9 10  2  0  0  0
  6 11  1  0  0  0
  7 12  1  0  0  0
 23 24  1  0  0  0
M  END
> <minimizedAffinity>
-8.22889

$$$$
414


 35 38  0  0  0  0  0  0  0  0999 V2000
   54.3823   97.2940   26.7722 N   0  0  0  0  0  0  0  0  0  0  0  0
   54.2033   96.0013   26.3993 C   0  0  0  0  0  0  0  0  0  0  0  0
   53.1649   95.2991   26.6054 O   0  0  0  0  0  0  0  0  0  0  0  0
   55.3367   95.5454   25.7485 C   0  0  0  0  0  0  0  0  0  0  0  0
   56.1817   96.5735   25.7396 C   0  0  0  0  0  0  0  0  0  0  0  0
   57.3029   96.1523   25.1065 N   0  0  0  0  0  0  0  0  0  0  0  0
   57.1066   94.8865   24.7496 N   0  0  0  0  0  0  0  0  0  0  0  0
   55.9102   94.4796   25.1281 N   0  0  0  0  0  0  0  0  0  0  0  0
   55.6079   97.6542   26.3661 C   0  0  0  0  0  0  0  0  0  0  0  0
   56.1157   98.7840   26.5394 O   0  0  0  0  0  0  0  0  0  0  0  0
   58.1536   96.7261   24.9368 H   0  0  0  0  0  0  0  0  0  0  0  0
   57.8009   94.3072   24.2463 H   0  0  0  0  0  0  0  0  0  0  0  0
   50.1443  100.6381   29.6749 Br  0  0  0  0  0  0  0  0  0  0  0  0
   51.4559   99.6139   28.7546 C   0  0  0  0  0  0  0  0  0  0  0  0
   51.8026   99.8395   27.4392 C   0  0  0  0  0  0  0  0  0  0  0  0
   52.7447   99.0888   26.8082 C   0  0  0  0  0  0  0  0  0  0  0  0
   53.4000   98.0593   27.4662 C   0  0  0  0  0  0  0  0  0  0  0  0
   53.0649   97.8242   28.7750 C   0  0  0  0  0  0  0  0  0  0  0  0
   52.1142   98.5882   29.3962 C   0  0  0  0  0  0  0  0  0  0  0  0
   55.2773   93.1784   24.9481 C   0  0  0  0  0  0  0  0  0  0  0  0
   54.8692   93.0249   23.5032 C   0  0  0  0  0  0  0  0  0  0  0  0
   54.1862   93.9946   23.0900 O   0  0  0  0  0  0  0  0  0  0  0  0
   55.2563   91.8934   22.7876 N   0  0  0  0  0  0  0  0  0  0  0  0
   55.8398   91.1813   23.3314 H   0  0  0  0  0  0  0  0  0  0  0  0
   54.9620   91.5918   21.4347 C   0  0  0  0  0  0  0  0  0  0  0  0
   53.9350   92.1423   20.7056 C   0  0  0  0  0  0  0  0  0  0  0  0
   53.7083   91.7905   19.3677 C   0  0  0  0  0  0  0  0  0  0  0  0
   54.5070   90.8762   18.7235 C   0  0  0  0  0  0  0  0  0  0  0  0
   55.5368   90.3203   19.4426 C   0  0  0  0  0  0  0  0  0  0  0  0
   55.7582   90.6682   20.7612 C   0  0  0  0  0  0  0  0  0  0  0  0
   54.2336   90.5408   17.3300 C   0  0  0  0  0  0  0  0  0  0  0  0
   54.8723   91.1526   16.4374 O   0  0  0  0  0  0  0  0  0  0  0  0
   53.3256   89.6028   16.9250 O   0  0  0  0  0  0  0  0  0  0  0  0
   52.0197   89.4534   17.4029 C   0  0  0  0  0  0  0  0  0  0  0  0
   52.0311   88.2270   18.3262 C   0  0  0  0  0  0  0  0  0  0  0  0
 13 14  1  0  0  0
 14 15  2  0  0  0
 14 19  1  0  0  0
 15 16  1  0  0  0
 16 17  2  0  0  0
 17 18  1  0  0  0
 17  1  1  0  0  0
 18 19  2  0  0  0
  1  2  1  0  0  0
  1  9  1  0  0  0
  2  3  2  0  0  0
  2  4  1  0  0  0
  4  5  2  0  0  0
  4  8  1  0  0  0
  5  6  1  0  0  0
  5  9  1  0  0  0
  6  7  1  0  0  0
  7  8  1  0  0  0
  8 20  1  0  0  0
 20 21  1  0  0  0
 21 22  2  0  0  0
 21 23  1  0  0  0
 23 25  1  0  0  0
 25 26  2  0  0  0
 25 30  1  0  0  0
 26 27  1  0  0  0
 27 28  2  0  0  0
 28 29  1  0  0  0
 28 31  1  0  0  0
 29 30  2  0  0  0
 31 32  2  0  0  0
 31 33  1  0  0  0
 33 34  1  0  0  0
 34 35  1  0  0  0
  9 10  2  0  0  0
  6 11  1  0  0  0
  7 12  1  0  0  0
 23 24  1  0  0  0
M  END
> <minimizedAffinity>
-10.34551

$$$$
416


 33 36  0  0  0  0  0  0  0  0999 V2000
   54.2458   97.2871   26.7660 N   0  0  0  0  0  0  0  0  0  0  0  0
   54.0893   96.0070   26.3265 C   0  0  0  0  0  0  0  0  0  0  0  0
   53.0262   95.3532   26.4506 O   0  0  0  0  0  0  0  0  0  0  0  0
   55.2461   95.5438   25.7378 C   0  0  0  0  0  0  0  0  0  0  0  0
   56.1158   96.5404   25.8155 C   0  0  0  0  0  0  0  0  0  0  0  0
   57.2593   96.1156   25.2478 N   0  0  0  0  0  0  0  0  0  0  0  0
   57.0734   94.8707   24.8332 N   0  0  0  0  0  0  0  0  0  0  0  0
   55.8436   94.4869   25.1193 N   0  0  0  0  0  0  0  0  0  0  0  0
   55.5072   97.6045   26.4416 C   0  0  0  0  0  0  0  0  0  0  0  0
   56.0282   98.7365   26.6936 O   0  0  0  0  0  0  0  0  0  0  0  0
   58.1444   96.6390   25.1337 H   0  0  0  0  0  0  0  0  0  0  0  0
   57.8091   94.2818   24.3446 H   0  0  0  0  0  0  0  0  0  0  0  0
   50.1312  100.7519   29.7851 Br  0  0  0  0  0  0  0  0  0  0  0  0
   51.3966   99.6929   28.8263 C   0  0  0  0  0  0  0  0  0  0  0  0
   51.7137   99.9421   27.5075 C   0  0  0  0  0  0  0  0  0  0  0  0
   52.6380   99.1645   26.8263 C   0  0  0  0  0  0  0  0  0  0  0  0
   53.2867   98.1063   27.4286 C   0  0  0  0  0  0  0  0  0  0  0  0
   52.9706   97.8529   28.7512 C   0  0  0  0  0  0  0  0  0  0  0  0
   52.0505   98.6257   29.4294 C   0  0  0  0  0  0  0  0  0  0  0  0
   55.2282   93.2180   24.8608 C   0  0  0  0  0  0  0  0  0  0  0  0
   54.8559   93.0160   23.4108 C   0  0  0  0  0  0  0  0  0  0  0  0
   54.1243   93.8987   22.9126 O   0  0  0  0  0  0  0  0  0  0  0  0
   55.3056   91.9175   22.6810 N   0  0  0  0  0  0  0  0  0  0  0  0
   55.9253   91.2243   23.2300 H   0  0  0  0  0  0  0  0  0  0  0  0
   55.0775   91.5666   21.3395 C   0  0  0  0  0  0  0  0  0  0  0  0
   55.9702   90.7249   20.6759 C   0  0  0  0  0  0  0  0  0  0  0  0
   55.7964   90.3719   19.3647 C   0  0  0  0  0  0  0  0  0  0  0  0
   54.7028   90.8547   18.6443 C   0  0  0  0  0  0  0  0  0  0  0  0
   53.8418   91.6799   19.3259 C   0  0  0  0  0  0  0  0  0  0  0  0
   54.0104   92.0364   20.6436 C   0  0  0  0  0  0  0  0  0  0  0  0
   54.5689   90.4781   17.3280 O   0  0  0  0  0  0  0  0  0  0  0  0
   53.8697   89.3787   16.8419 C   0  0  0  0  0  0  0  0  0  0  0  0
   52.4957   89.2264   17.3985 C   0  0  0  0  0  0  0  0  0  0  0  0
 13 14  1  0  0  0
 14 15  2  0  0  0
 14 19  1  0  0  0
 15 16  1  0  0  0
 16 17  2  0  0  0
 17 18  1  0  0  0
 17  1  1  0  0  0
 18 19  2  0  0  0
  1  2  1  0  0  0
  1  9  1  0  0  0
  2  3  2  0  0  0
  2  4  1  0  0  0
  4  5  2  0  0  0
  4  8  1  0  0  0
  5  6  1  0  0  0
  5  9  1  0  0  0
  6  7  1  0  0  0
  7  8  1  0  0  0
  8 20  1  0  0  0
 20 21  1  0  0  0
 21 22  2  0  0  0
 21 23  1  0  0  0
 23 25  1  0  0  0
 25 26  2  0  0  0
 25 30  1  0  0  0
 26 27  1  0  0  0
 27 28  2  0  0  0
 28 29  1  0  0  0
 28 31  1  0  0  0
 29 30  2  0  0  0
 31 32  1  0  0  0
 32 33  1  0  0  0
  9 10  2  0  0  0
  6 11  1  0  0  0
  7 12  1  0  0  0
 23 24  1  0  0  0
M  END
> <minimizedAffinity>
-9.99146

$$$$
421


 28 31  0  0  0  0  0  0  0  0999 V2000
   53.6953   82.9243   18.1838 N   0  0  0  0  0  0  0  0  0  0  0  0
   53.5008   84.2610   18.2205 C   0  0  0  0  0  0  0  0  0  0  0  0
   53.3796   85.0544   17.2329 O   0  0  0  0  0  0  0  0  0  0  0  0
   53.4433   84.7136   19.5259 C   0  0  0  0  0  0  0  0  0  0  0  0
   53.6063   83.6231   20.2783 C   0  0  0  0  0  0  0  0  0  0  0  0
   53.5497   84.0635   21.5584 N   0  0  0  0  0  0  0  0  0  0  0  0
   53.3590   85.3722   21.5451 N   0  0  0  0  0  0  0  0  0  0  0  0
   53.2889   85.8045   20.2971 N   0  0  0  0  0  0  0  0  0  0  0  0
   53.7619   82.5216   19.4642 C   0  0  0  0  0  0  0  0  0  0  0  0
   53.9378   81.3248   19.8029 O   0  0  0  0  0  0  0  0  0  0  0  0
   53.6453   83.4434   22.4046 H   0  0  0  0  0  0  0  0  0  0  0  0
   53.2711   86.0142   22.3753 H   0  0  0  0  0  0  0  0  0  0  0  0
   54.0322   79.4646   13.0936 Br  0  0  0  0  0  0  0  0  0  0  0  0
   53.9524   80.5400   14.6757 C   0  0  0  0  0  0  0  0  0  0  0  0
   55.0954   80.9725   15.3159 C   0  0  0  0  0  0  0  0  0  0  0  0
   55.0219   81.7535   16.4660 C   0  0  0  0  0  0  0  0  0  0  0  0
   53.8052   82.1206   17.0017 C   0  0  0  0  0  0  0  0  0  0  0  0
   52.6708   81.6809   16.3511 C   0  0  0  0  0  0  0  0  0  0  0  0
   52.7337   80.9046   15.2093 C   0  0  0  0  0  0  0  0  0  0  0  0
   53.0892   87.1565   19.8668 C   0  0  0  0  0  0  0  0  0  0  0  0
   54.0296   88.1324   20.1257 C   0  0  0  0  0  0  0  0  0  0  0  0
   53.8647   89.4509   19.7207 C   0  0  0  0  0  0  0  0  0  0  0  0
   52.7293   89.8247   19.0338 C   0  0  0  0  0  0  0  0  0  0  0  0
   51.7880   88.8519   18.7738 C   0  0  0  0  0  0  0  0  0  0  0  0
   51.9560   87.5369   19.1788 C   0  0  0  0  0  0  0  0  0  0  0  0
   52.5314   91.1694   18.6055 N   0  0  0  0  0  0  0  0  0  0  0  0
   53.4064   91.8043   17.9874 O   0  0  0  0  0  0  0  0  0  0  0  0
   51.3517   91.7862   18.8776 O   0  0  0  0  0  0  0  0  0  0  0  0
 13 14  1  0  0  0
 14 15  2  0  0  0
 14 19  1  0  0  0
 15 16  1  0  0  0
 16 17  2  0  0  0
 17 18  1  0  0  0
 17  1  1  0  0  0
 18 19  2  0  0  0
  1  2  1  0  0  0
  1  9  1  0  0  0
  2  3  2  0  0  0
  2  4  1  0  0  0
  4  5  2  0  0  0
  4  8  1  0  0  0
  5  6  1  0  0  0
  5  9  1  0  0  0
  6  7  1  0  0  0
  7  8  1  0  0  0
  8 20  1  0  0  0
 20 21  2  0  0  0
 20 25  1  0  0  0
 21 22  1  0  0  0
 22 23  2  0  0  0
 23 24  1  0  0  0
 23 26  1  0  0  0
 24 25  2  0  0  0
 26 27  2  0  0  0
 26 28  1  0  0  0
  9 10  2  0  0  0
  6 11  1  0  0  0
  7 12  1  0  0  0
M  CHG 1  28  -1
M  END
> <minimizedAffinity>
-7.86728

$$$$
425


 24 28  0  0  0  0  0  0  0  0999 V2000
   54.9525   88.3255   20.5408 N   0  0  0  0  0  0  0  0  0  0  0  0
   54.5463   87.0531   21.0199 C   0  0  0  0  0  0  0  0  0  0  0  0
   53.4836   86.4790   20.6809 O   0  0  0  0  0  0  0  0  0  0  0  0
   55.5736   86.5385   21.9647 C   0  0  0  0  0  0  0  0  0  0  0  0
   55.2432   86.8593   23.3898 C   0  0  0  0  0  0  0  0  0  0  0  0
   56.5420   86.9920   23.9292 O   0  0  0  0  0  0  0  0  0  0  0  0
   56.9675   88.0522   23.0898 C   0  0  0  0  0  0  0  0  0  0  0  0
   56.7886   87.4405   21.7431 C   0  0  0  0  0  0  0  0  0  0  0  0
   56.3552   88.4705   20.7610 C   0  0  0  0  0  0  0  0  0  0  0  0
   57.1017   89.3014   20.2370 O   0  0  0  0  0  0  0  0  0  0  0  0
   55.8542   89.0081   23.3248 C   0  0  0  0  0  0  0  0  0  0  0  0
   54.7683   88.2507   23.4478 C   0  0  0  0  0  0  0  0  0  0  0  0
   51.0580   92.2605   17.9972 Br  0  0  0  0  0  0  0  0  0  0  0  0
   52.2750   91.0432   18.7938 C   0  0  0  0  0  0  0  0  0  0  0  0
   53.1554   91.4929   19.7478 C   0  0  0  0  0  0  0  0  0  0  0  0
   54.0271   90.5867   20.3104 C   0  0  0  0  0  0  0  0  0  0  0  0
   54.0417   89.2586   19.9459 C   0  0  0  0  0  0  0  0  0  0  0  0
   53.1522   88.8026   18.9826 C   0  0  0  0  0  0  0  0  0  0  0  0
   52.2694   89.7240   18.4154 C   0  0  0  0  0  0  0  0  0  0  0  0
   54.4302   85.8600   24.0938 C   0  0  0  0  0  0  0  0  0  0  0  0
   53.7642   86.3505   25.1834 O   0  0  0  0  0  0  0  0  0  0  0  0
   54.3231   85.8192   26.3187 C   0  0  0  0  0  0  0  0  0  0  0  0
   55.4236   84.9172   25.8656 C   0  0  0  0  0  0  0  0  0  0  0  0
   55.1858   84.7760   24.5031 O   0  0  0  0  0  0  0  0  0  0  0  0
 13 14  1  0  0  0
 14 15  2  0  0  0
 14 19  1  0  0  0
 15 16  1  0  0  0
 16 17  2  0  0  0
 17 18  1  0  0  0
 17  1  1  0  0  0
 18 19  2  0  0  0
  1  2  1  0  0  0
  1  9  1  0  0  0
  2  3  2  0  0  0
  2  4  1  0  0  0
  4  5  1  0  0  0
  4  8  1  0  0  0
  5  6  1  0  0  0
  5 12  1  0  0  0
  5 20  1  0  0  0
  6  7  1  0  0  0
  7  8  1  0  0  0
  7 11  1  0  0  0
  8  9  1  0  0  0
  9 10  2  0  0  0
 11 12  2  0  0  0
 20 21  1  0  0  0
 20 24  1  0  0  0
 21 22  1  0  0  0
 22 23  1  0  0  0
 23 24  1  0  0  0
M  END
> <minimizedAffinity>
-8.17967

$$$$
426


 29 32  0  0  0  0  0  0  0  0999 V2000
   49.1644  104.5469   32.7310 N   0  0  0  0  0  0  0  0  0  0  0  0
   47.7343  104.7117   32.7891 C   0  0  0  0  0  0  0  0  0  0  0  0
   47.1163  105.7858   33.0371 O   0  0  0  0  0  0  0  0  0  0  0  0
   47.1379  103.3869   32.5030 C   0  0  0  0  0  0  0  0  0  0  0  0
   45.8832  103.4378   31.7787 N   0  0  0  0  0  0  0  0  0  0  0  0
   46.0565  102.2755   30.9651 N   0  0  0  0  0  0  0  0  0  0  0  0
   47.4091  102.2377   30.5096 C   0  0  0  0  0  0  0  0  0  0  0  0
   48.0907  102.9101   31.4304 C   0  0  0  0  0  0  0  0  0  0  0  0
   49.3822  103.4165   31.8783 C   0  0  0  0  0  0  0  0  0  0  0  0
   50.4647  102.8770   31.5171 O   0  0  0  0  0  0  0  0  0  0  0  0
   45.9872  104.2493   31.1066 H   0  0  0  0  0  0  0  0  0  0  0  0
   45.3285  101.5714   30.7360 H   0  0  0  0  0  0  0  0  0  0  0  0
   53.4906  108.0647   35.3005 Br  0  0  0  0  0  0  0  0  0  0  0  0
   52.1356  106.9443   34.5102 C   0  0  0  0  0  0  0  0  0  0  0  0
   51.5149  107.3452   33.3548 C   0  0  0  0  0  0  0  0  0  0  0  0
   50.5623  106.5436   32.8131 C   0  0  0  0  0  0  0  0  0  0  0  0
   50.1649  105.3185   33.3625 C   0  0  0  0  0  0  0  0  0  0  0  0
   50.7994  104.9406   34.5150 C   0  0  0  0  0  0  0  0  0  0  0  0
   51.7720  105.7412   35.0839 C   0  0  0  0  0  0  0  0  0  0  0  0
   47.9414  101.6023   29.3093 C   0  0  0  0  0  0  0  0  0  0  0  0
   47.5098  101.8838   28.1669 O   0  0  0  0  0  0  0  0  0  0  0  0
   48.9518  100.6535   29.3624 O   0  0  0  0  0  0  0  0  0  0  0  0
   48.7705   99.3401   28.8514 C   0  0  0  0  0  0  0  0  0  0  0  0
   50.1122   98.6961   28.6542 C   0  0  0  0  0  0  0  0  0  0  0  0
   50.2508   97.6059   27.7969 C   0  0  0  0  0  0  0  0  0  0  0  0
   51.4562   96.9930   27.5851 C   0  0  0  0  0  0  0  0  0  0  0  0
   52.5822   97.4727   28.2489 C   0  0  0  0  0  0  0  0  0  0  0  0
   52.4405   98.5499   29.0956 C   0  0  0  0  0  0  0  0  0  0  0  0
   51.2056   99.1687   29.3032 C   0  0  0  0  0  0  0  0  0  0  0  0
 13 14  1  0  0  0
 14 15  2  0  0  0
 14 19  1  0  0  0
 15 16  1  0  0  0
 16 17  2  0  0  0
 17 18  1  0  0  0
 17  1  1  0  0  0
 18 19  2  0  0  0
  1  2  1  0  0  0
  1  9  1  0  0  0
  2  3  2  0  0  0
  2  4  1  0  0  0
  4  5  1  0  0  0
  4  8  1  0  0  0
  5  6  1  0  0  0
  6  7  1  0  0  0
  7  8  2  0  0  0
  7 20  1  0  0  0
  8  9  1  0  0  0
  9 10  2  0  0  0
 20 21  2  0  0  0
 20 22  1  0  0  0
 22 23  1  0  0  0
 23 24  1  0  0  0
 24 25  2  0  0  0
 24 29  1  0  0  0
 25 26  1  0  0  0
 26 27  2  0  0  0
 27 28  1  0  0  0
 28 29  2  0  0  0
  5 11  1  0  0  0
  6 12  1  0  0  0
M  END
> <minimizedAffinity>
-8.86543

$$$$
428


 28 31  0  0  0  0  0  0  0  0999 V2000
   53.5793   83.8081   21.1651 N   0  0  0  0  0  0  0  0  0  0  0  0
   54.0882   82.8146   20.2558 C   0  0  0  0  0  0  0  0  0  0  0  0
   54.6614   83.1807   19.1928 O   0  0  0  0  0  0  0  0  0  0  0  0
   53.9122   81.4633   20.6161 N   0  0  0  0  0  0  0  0  0  0  0  0
   53.3407   81.0724   21.6785 C   0  0  0  0  0  0  0  0  0  0  0  0
   52.7578   81.9453   22.7275 C   0  0  0  0  0  0  0  0  0  0  0  0
   51.3360   81.5475   22.9265 C   0  0  0  0  0  0  0  0  0  0  0  0
   50.7764   81.7704   24.2100 N   0  0  0  0  0  0  0  0  0  0  0  0
   51.5408   82.5657   25.0873 C   0  0  0  0  0  0  0  0  0  0  0  0
   52.9400   82.5305   25.0398 C   0  0  0  0  0  0  0  0  0  0  0  0
   53.6641   83.3088   25.8983 C   0  0  0  0  0  0  0  0  0  0  0  0
   53.0974   84.1473   26.8310 C   0  0  0  0  0  0  0  0  0  0  0  0
   51.7193   84.1791   26.8737 C   0  0  0  0  0  0  0  0  0  0  0  0
   50.9558   83.3996   26.0148 C   0  0  0  0  0  0  0  0  0  0  0  0
   53.9164   84.9782   27.7445 C   0  0  0  0  0  0  0  0  0  0  0  0
   53.5106   81.6134   24.0192 C   0  0  0  0  0  0  0  0  0  0  0  0
   50.3774   80.5163   24.8708 C   0  0  0  0  0  0  0  0  0  0  0  0
   52.9377   83.3651   22.3564 C   0  0  0  0  0  0  0  0  0  0  0  0
   52.5087   84.2948   23.1167 O   0  0  0  0  0  0  0  0  0  0  0  0
   53.2337   79.6849   21.9141 O   0  0  0  0  0  0  0  0  0  0  0  0
   49.8563   82.2862   24.0710 H   0  0  0  0  0  0  0  0  0  0  0  0
   54.4153   89.7708   20.1084 Br  0  0  0  0  0  0  0  0  0  0  0  0
   54.1216   87.9103   20.4086 C   0  0  0  0  0  0  0  0  0  0  0  0
   54.9164   87.2461   21.3038 C   0  0  0  0  0  0  0  0  0  0  0  0
   54.7081   85.8905   21.5271 C   0  0  0  0  0  0  0  0  0  0  0  0
   53.7206   85.1901   20.8719 C   0  0  0  0  0  0  0  0  0  0  0  0
   52.9327   85.8777   19.9755 C   0  0  0  0  0  0  0  0  0  0  0  0
   53.1201   87.2289   19.7356 C   0  0  0  0  0  0  0  0  0  0  0  0
 22 23  1  0  0  0
 23 24  2  0  0  0
 23 28  1  0  0  0
 24 25  1  0  0  0
 25 26  2  0  0  0
 26 27  1  0  0  0
 26  1  1  0  0  0
 27 28  2  0  0  0
  1  2  1  0  0  0
  1 18  1  0  0  0
  2  3  2  0  0  0
  2  4  1  0  0  0
  4  5  2  0  0  0
  5  6  1  0  0  0
  5 20  1  0  0  0
  6  7  1  0  0  0
  6 16  1  0  0  0
  6 18  1  0  0  0
  7  8  1  0  0  0
  8  9  1  0  0  0
  8 17  1  0  0  0
  9 10  2  0  0  0
  9 14  1  0  0  0
 10 11  1  0  0  0
 10 16  1  0  0  0
 11 12  2  0  0  0
 12 13  1  0  0  0
 12 15  1  0  0  0
 13 14  2  0  0  0
 18 19  2  0  0  0
  8 21  1  0  0  0
M  CHG 1   8   1
M  CHG 1  20  -1
M  END
> <minimizedAffinity>
-7.29566

$$$$
429


 36 39  0  0  0  0  0  0  0  0999 V2000
   55.0406   88.8517   20.5635 N   0  0  0  0  0  0  0  0  0  0  0  0
   55.3643   90.1040   19.9566 C   0  0  0  0  0  0  0  0  0  0  0  0
   56.3632   90.7401   20.4219 O   0  0  0  0  0  0  0  0  0  0  0  0
   54.5799   90.5872   18.8809 N   0  0  0  0  0  0  0  0  0  0  0  0
   53.4580   89.8929   18.3444 C   0  0  0  0  0  0  0  0  0  0  0  0
   52.7776   90.3490   17.3835 O   0  0  0  0  0  0  0  0  0  0  0  0
   53.0959   88.5970   18.9461 C   0  0  0  0  0  0  0  0  0  0  0  0
   52.0625   87.9042   18.4928 C   0  0  0  0  0  0  0  0  0  0  0  0
   53.9231   88.1271   20.0514 C   0  0  0  0  0  0  0  0  0  0  0  0
   53.6525   87.0265   20.5970 O   0  0  0  0  0  0  0  0  0  0  0  0
   54.8511   91.5081   18.4644 H   0  0  0  0  0  0  0  0  0  0  0  0
   58.3697   86.8532   25.3022 Br  0  0  0  0  0  0  0  0  0  0  0  0
   57.3360   87.4688   23.8133 C   0  0  0  0  0  0  0  0  0  0  0  0
   56.3998   88.4772   23.9690 C   0  0  0  0  0  0  0  0  0  0  0  0
   55.6588   88.9158   22.8887 C   0  0  0  0  0  0  0  0  0  0  0  0
   55.8154   88.3764   21.6275 C   0  0  0  0  0  0  0  0  0  0  0  0
   56.7435   87.3712   21.4559 C   0  0  0  0  0  0  0  0  0  0  0  0
   57.4756   86.9460   22.5461 C   0  0  0  0  0  0  0  0  0  0  0  0
   51.7382   86.6586   19.0939 N   0  0  0  0  0  0  0  0  0  0  0  0
   51.4366   86.7092   20.1046 H   0  0  0  0  0  0  0  0  0  0  0  0
   51.7917   85.4267   18.4626 N   0  0  0  0  0  0  0  0  0  0  0  0
   51.2226   85.3586   17.5688 H   0  0  0  0  0  0  0  0  0  0  0  0
   52.5330   84.3082   18.9345 C   0  0  0  0  0  0  0  0  0  0  0  0
   53.4710   83.6570   18.2390 N   0  0  0  0  0  0  0  0  0  0  0  0
   53.9694   82.6572   18.9846 C   0  0  0  0  0  0  0  0  0  0  0  0
   53.3090   82.6863   20.2055 C   0  0  0  0  0  0  0  0  0  0  0  0
   52.4528   83.7030   20.1201 N   0  0  0  0  0  0  0  0  0  0  0  0
   53.5862   81.8007   21.1792 N   0  0  0  0  0  0  0  0  0  0  0  0
   54.5192   80.8738   20.9609 C   0  0  0  0  0  0  0  0  0  0  0  0
   54.8112   80.0201   21.8537 O   0  0  0  0  0  0  0  0  0  0  0  0
   55.2043   80.7887   19.7891 N   0  0  0  0  0  0  0  0  0  0  0  0
   54.9174   81.6841   18.8154 C   0  0  0  0  0  0  0  0  0  0  0  0
   55.5432   81.6087   17.7380 O   0  0  0  0  0  0  0  0  0  0  0  0
   56.2053   79.7695   19.6026 C   0  0  0  0  0  0  0  0  0  0  0  0
   52.8623   81.8927   22.4125 C   0  0  0  0  0  0  0  0  0  0  0  0
   53.9565   83.9091   16.8775 C   0  0  0  0  0  0  0  0  0  0  0  0
 12 13  1  0  0  0
 13 14  2  0  0  0
 13 18  1  0  0  0
 14 15  1  0  0  0
 15 16  2  0  0  0
 16 17  1  0  0  0
 16  1  1  0  0  0
 17 18  2  0  0  0
  1  2  1  0  0  0
  1  9  1  0  0  0
  2  3  2  0  0  0
  2  4  1  0  0  0
  4  5  1  0  0  0
  5  6  2  0  0  0
  5  7  1  0  0  0
  7  8  2  0  0  0
  7  9  1  0  0  0
  8 19  1  0  0  0
 19 21  1  0  0  0
 21 23  1  0  0  0
 23 24  1  0  0  0
 23 27  2  0  0  0
 24 25  1  0  0  0
 24 36  1  0  0  0
 25 26  2  0  0  0
 25 32  1  0  0  0
 26 27  1  0  0  0
 26 28  1  0  0  0
 28 29  1  0  0  0
 28 35  1  0  0  0
 29 30  2  0  0  0
 29 31  1  0  0  0
 31 32  1  0  0  0
 31 34  1  0  0  0
 32 33  2  0  0  0
  9 10  2  0  0  0
  4 11  1  0  0  0
 19 20  1  0  0  0
 21 22  1  0  0  0
M  END
> <minimizedAffinity>
-9.68543

$$$$
436


 29 32  0  0  0  0  0  0  0  0999 V2000
   55.9142   85.9648   24.6456 N   0  0  0  0  0  0  0  0  0  0  0  0
   57.1783   86.5894   24.9808 C   0  0  0  0  0  0  0  0  0  0  0  0
   57.6163   87.6180   23.9644 C   0  0  0  0  0  0  0  0  0  0  0  0
   56.3790   88.4646   23.6279 C   0  0  0  0  0  0  0  0  0  0  0  0
   55.5203   87.5854   22.8779 N   0  0  0  0  0  0  0  0  0  0  0  0
   55.3103   86.3455   23.4156 C   0  0  0  0  0  0  0  0  0  0  0  0
   54.4959   85.6600   22.5965 N   0  0  0  0  0  0  0  0  0  0  0  0
   54.2081   86.4849   21.5585 C   0  0  0  0  0  0  0  0  0  0  0  0
   54.8496   87.7021   21.7280 C   0  0  0  0  0  0  0  0  0  0  0  0
   54.7084   88.7094   20.7940 C   0  0  0  0  0  0  0  0  0  0  0  0
   55.3157   89.8156   20.9875 O   0  0  0  0  0  0  0  0  0  0  0  0
   53.9381   88.5014   19.7115 N   0  0  0  0  0  0  0  0  0  0  0  0
   53.3271   87.3120   19.5718 C   0  0  0  0  0  0  0  0  0  0  0  0
   52.6148   87.1594   18.5428 O   0  0  0  0  0  0  0  0  0  0  0  0
   53.4493   86.3256   20.4598 N   0  0  0  0  0  0  0  0  0  0  0  0
   52.7733   85.0498   20.2762 C   0  0  0  0  0  0  0  0  0  0  0  0
   53.2488   82.1676   28.5924 Br  0  0  0  0  0  0  0  0  0  0  0  0
   54.1133   83.2992   27.3562 C   0  0  0  0  0  0  0  0  0  0  0  0
   55.1997   82.8858   26.6140 C   0  0  0  0  0  0  0  0  0  0  0  0
   55.8227   83.7425   25.7049 C   0  0  0  0  0  0  0  0  0  0  0  0
   55.3516   85.0247   25.5381 C   0  0  0  0  0  0  0  0  0  0  0  0
   54.2663   85.4021   26.2951 C   0  0  0  0  0  0  0  0  0  0  0  0
   53.6359   84.5843   27.1935 C   0  0  0  0  0  0  0  0  0  0  0  0
   53.7822   89.5551   18.7238 C   0  0  0  0  0  0  0  0  0  0  0  0
   52.8188   90.5723   19.2596 C   0  0  0  0  0  0  0  0  0  0  0  0
   51.5935   90.3173   19.3242 O   0  0  0  0  0  0  0  0  0  0  0  0
   53.2589   91.8395   19.7050 N   0  0  0  0  0  0  0  0  0  0  0  0
   52.8328   92.3298   20.5239 H   0  0  0  0  0  0  0  0  0  0  0  0
   54.0433   92.3452   19.2238 H   0  0  0  0  0  0  0  0  0  0  0  0
 17 18  1  0  0  0
 18 19  2  0  0  0
 18 23  1  0  0  0
 19 20  1  0  0  0
 20 21  2  0  0  0
 21 22  1  0  0  0
 21  1  1  0  0  0
 22 23  2  0  0  0
  1  2  1  0  0  0
  1  6  1  0  0  0
  2  3  1  0  0  0
  3  4  1  0  0  0
  4  5  1  0  0  0
  5  6  1  0  0  0
  5  9  1  0  0  0
  6  7  2  0  0  0
  7  8  1  0  0  0
  8  9  2  0  0  0
  8 15  1  0  0  0
  9 10  1  0  0  0
 10 11  2  0  0  0
 10 12  1  0  0  0
 12 13  1  0  0  0
 12 24  1  0  0  0
 13 14  2  0  0  0
 13 15  1  0  0  0
 15 16  1  0  0  0
 24 25  1  0  0  0
 25 26  2  0  0  0
 25 27  1  0  0  0
 27 28  1  0  0  0
 27 29  1  0  0  0
M  END
> <minimizedAffinity>
-7.71518

$$$$
439


 28 32  0  0  0  0  0  0  0  0999 V2000
   50.2518   98.9839   28.6472 N   0  0  0  0  0  0  0  0  0  0  0  0
   49.0014   98.5352   28.6184 N   0  0  0  0  0  0  0  0  0  0  0  0
   48.1482   99.4931   29.0257 C   0  0  0  0  0  0  0  0  0  0  0  0
   46.8289   99.3832   29.1172 C   0  0  0  0  0  0  0  0  0  0  0  0
   48.8745  100.6246   29.3352 C   0  0  0  0  0  0  0  0  0  0  0  0
   48.4317  101.8049   29.7773 C   0  0  0  0  0  0  0  0  0  0  0  0
   50.1884  100.2594   29.0834 C   0  0  0  0  0  0  0  0  0  0  0  0
   51.1681  101.0225   29.2457 O   0  0  0  0  0  0  0  0  0  0  0  0
   48.7220   97.5786   28.3235 H   0  0  0  0  0  0  0  0  0  0  0  0
   55.3432   95.9104   27.0987 Br  0  0  0  0  0  0  0  0  0  0  0  0
   53.7354   96.8543   27.5708 C   0  0  0  0  0  0  0  0  0  0  0  0
   52.5035   96.4056   27.1991 C   0  0  0  0  0  0  0  0  0  0  0  0
   51.3623   97.1171   27.5606 C   0  0  0  0  0  0  0  0  0  0  0  0
   51.4386   98.2824   28.2950 C   0  0  0  0  0  0  0  0  0  0  0  0
   52.7004   98.7058   28.6526 C   0  0  0  0  0  0  0  0  0  0  0  0
   53.8437   98.0216   28.3087 C   0  0  0  0  0  0  0  0  0  0  0  0
   49.3916  102.8247   30.0272 N   0  0  0  0  0  0  0  0  0  0  0  0
   50.0895  103.0200   29.2946 H   0  0  0  0  0  0  0  0  0  0  0  0
   49.4108  103.5734   31.2507 C   0  0  0  0  0  0  0  0  0  0  0  0
   49.1439  105.0221   30.9925 C   0  0  0  0  0  0  0  0  0  0  0  0
   49.0749  105.7276   32.2644 N   0  0  0  0  0  0  0  0  0  0  0  0
   47.9879  105.1404   33.0383 C   0  0  0  0  0  0  0  0  0  0  0  0
   48.2485  103.7593   33.3631 N   0  0  0  0  0  0  0  0  0  0  0  0
   49.5413  103.6513   34.0324 C   0  0  0  0  0  0  0  0  0  0  0  0
   50.6096  104.1940   33.2241 N   0  0  0  0  0  0  0  0  0  0  0  0
   50.3330  105.5854   32.9519 C   0  0  0  0  0  0  0  0  0  0  0  0
   50.7255  103.4607   31.9864 C   0  0  0  0  0  0  0  0  0  0  0  0
   48.3183  102.9869   32.1503 C   0  0  0  0  0  0  0  0  0  0  0  0
 10 11  1  0  0  0
 11 12  2  0  0  0
 11 16  1  0  0  0
 12 13  1  0  0  0
 13 14  2  0  0  0
 14 15  1  0  0  0
 14  1  1  0  0  0
 15 16  2  0  0  0
  1  2  1  0  0  0
  1  7  1  0  0  0
  2  3  1  0  0  0
  3  4  2  0  0  0
  3  5  1  0  0  0
  5  6  2  0  0  0
  5  7  1  0  0  0
  6 17  1  0  0  0
 17 19  1  0  0  0
 19 20  1  0  0  0
 19 27  1  0  0  0
 19 28  1  0  0  0
 20 21  1  0  0  0
 21 22  1  0  0  0
 21 26  1  0  0  0
 22 23  1  0  0  0
 23 24  1  0  0  0
 23 28  1  0  0  0
 24 25  1  0  0  0
 25 26  1  0  0  0
 25 27  1  0  0  0
  7  8  2  0  0  0
  2  9  1  0  0  0
 17 18  1  0  0  0
M  END
> <minimizedAffinity>
-8.47717

$$$$
441


 36 39  0  0  0  0  0  0  0  0999 V2000
   53.5880   85.4386   24.8371 C   0  0  0  0  0  0  0  0  0  0  0  0
   52.7106   85.4630   25.8575 N   0  0  0  0  0  0  0  0  0  0  0  0
   52.3151   84.3266   26.4074 C   0  0  0  0  0  0  0  0  0  0  0  0
   51.4638   84.0960   27.4155 N   0  0  0  0  0  0  0  0  0  0  0  0
   51.4274   82.7519   27.5622 C   0  0  0  0  0  0  0  0  0  0  0  0
   52.2339   82.1693   26.6701 N   0  0  0  0  0  0  0  0  0  0  0  0
   52.8136   83.1110   25.9234 C   0  0  0  0  0  0  0  0  0  0  0  0
   53.7150   83.0783   24.8758 C   0  0  0  0  0  0  0  0  0  0  0  0
   54.0783   84.2562   24.3611 N   0  0  0  0  0  0  0  0  0  0  0  0
   54.1759   81.8459   24.4362 O   0  0  0  0  0  0  0  0  0  0  0  0
   54.4086   81.1706   25.1730 H   0  0  0  0  0  0  0  0  0  0  0  0
   50.7123   84.9793   28.2219 C   0  0  0  0  0  0  0  0  0  0  0  0
   51.4602   85.4651   29.3026 O   0  0  0  0  0  0  0  0  0  0  0  0
   51.0536   84.6419   30.3493 C   0  0  0  0  0  0  0  0  0  0  0  0
   49.5427   84.7671   30.2216 C   0  0  0  0  0  0  0  0  0  0  0  0
   49.4113   84.5123   28.7220 C   0  0  0  0  0  0  0  0  0  0  0  0
   48.3378   85.2678   28.1993 O   0  0  0  0  0  0  0  0  0  0  0  0
   48.8512   83.8723   30.9888 O   0  0  0  0  0  0  0  0  0  0  0  0
   47.5183   84.7893   28.4811 H   0  0  0  0  0  0  0  0  0  0  0  0
   49.3444   83.6021   31.8278 H   0  0  0  0  0  0  0  0  0  0  0  0
   51.5513   85.1184   31.6831 C   0  0  0  0  0  0  0  0  0  0  0  0
   52.2020   86.3212   31.6351 O   0  0  0  0  0  0  0  0  0  0  0  0
   51.5369   87.0449   31.7734 H   0  0  0  0  0  0  0  0  0  0  0  0
   55.1675   87.3532   24.6597 C   0  0  0  0  0  0  0  0  0  0  0  0
   55.8253   86.9425   25.6320 O   0  0  0  0  0  0  0  0  0  0  0  0
   54.0345   86.6419   24.2160 N   0  0  0  0  0  0  0  0  0  0  0  0
   53.4730   86.9918   23.3871 H   0  0  0  0  0  0  0  0  0  0  0  0
   55.5706   88.5908   23.9669 C   0  0  0  0  0  0  0  0  0  0  0  0
   56.2847   88.3552   22.7880 O   0  0  0  0  0  0  0  0  0  0  0  0
   54.1024   90.3932   17.4863 Br  0  0  0  0  0  0  0  0  0  0  0  0
   54.7852   89.7441   19.1593 C   0  0  0  0  0  0  0  0  0  0  0  0
   55.8895   90.3431   19.7240 C   0  0  0  0  0  0  0  0  0  0  0  0
   56.3859   89.8698   20.9417 C   0  0  0  0  0  0  0  0  0  0  0  0
   55.7881   88.8139   21.5877 C   0  0  0  0  0  0  0  0  0  0  0  0
   54.6880   88.2309   21.0089 C   0  0  0  0  0  0  0  0  0  0  0  0
   54.1879   88.6848   19.8108 C   0  0  0  0  0  0  0  0  0  0  0  0
 30 31  1  0  0  0
 31 32  2  0  0  0
 31 36  1  0  0  0
 32 33  1  0  0  0
 33 34  2  0  0  0
 34 35  1  0  0  0
 34 29  1  0  0  0
 35 36  2  0  0  0
 29 28  1  0  0  0
 28 24  1  0  0  0
 24 25  2  0  0  0
 24 26  1  0  0  0
 26  1  1  0  0  0
  1  2  2  0  0  0
  1  9  1  0  0  0
  2  3  1  0  0  0
  3  4  1  0  0  0
  3  7  2  0  0  0
  4  5  1  0  0  0
  4 12  1  0  0  0
  5  6  2  0  0  0
  6  7  1  0  0  0
  7  8  1  0  0  0
  8  9  2  0  0  0
  8 10  1  0  0  0
 12 13  1  0  0  0
 12 16  1  0  0  0
 13 14  1  0  0  0
 14 15  1  0  0  0
 14 21  1  0  0  0
 15 16  1  0  0  0
 15 18  1  0  0  0
 16 17  1  0  0  0
 21 22  1  0  0  0
 26 27  1  0  0  0
 10 11  1  0  0  0
 17 19  1  0  0  0
 18 20  1  0  0  0
 22 23  1  0  0  0
M  END
> <minimizedAffinity>
-9.52169

$$$$
444


 33 36  0  0  0  0  0  0  0  0999 V2000
   55.2849   89.6093   21.5470 N   0  0  0  0  0  0  0  0  0  0  0  0
   55.2379   88.5824   22.4266 C   0  0  0  0  0  0  0  0  0  0  0  0
   54.6963   87.4896   21.7889 C   0  0  0  0  0  0  0  0  0  0  0  0
   54.4367   87.8953   20.5633 N   0  0  0  0  0  0  0  0  0  0  0  0
   54.7835   89.2063   20.3689 C   0  0  0  0  0  0  0  0  0  0  0  0
   54.5020   86.2772   22.3853 N   0  0  0  0  0  0  0  0  0  0  0  0
   54.8628   86.1581   23.6640 C   0  0  0  0  0  0  0  0  0  0  0  0
   54.6917   85.0450   24.2307 O   0  0  0  0  0  0  0  0  0  0  0  0
   55.3913   87.2052   24.3113 N   0  0  0  0  0  0  0  0  0  0  0  0
   55.5961   88.4183   23.7471 C   0  0  0  0  0  0  0  0  0  0  0  0
   56.0865   89.3701   24.3716 O   0  0  0  0  0  0  0  0  0  0  0  0
   53.9264   85.1710   21.6194 C   0  0  0  0  0  0  0  0  0  0  0  0
   55.6604   87.0736   25.3083 H   0  0  0  0  0  0  0  0  0  0  0  0
   54.5427   89.9219   19.1421 N   0  0  0  0  0  0  0  0  0  0  0  0
   53.1219   89.9197   18.7288 C   0  0  0  0  0  0  0  0  0  0  0  0
   52.7901   90.8813   17.6608 C   0  0  0  0  0  0  0  0  0  0  0  0
   53.8490   91.0610   16.6994 N   0  0  0  0  0  0  0  0  0  0  0  0
   54.9472   91.6228   17.4200 C   0  0  0  0  0  0  0  0  0  0  0  0
   55.5392   90.6215   18.4115 C   0  0  0  0  0  0  0  0  0  0  0  0
   54.1381   89.8713   15.9687 C   0  0  0  0  0  0  0  0  0  0  0  0
   55.8394   90.9213   21.8009 C   0  0  0  0  0  0  0  0  0  0  0  0
   54.8579   91.9607   22.2582 C   0  0  0  0  0  0  0  0  0  0  0  0
   53.8440   92.1816   21.3154 O   0  0  0  0  0  0  0  0  0  0  0  0
   53.0355   92.5588   21.7913 H   0  0  0  0  0  0  0  0  0  0  0  0
   55.4158   93.2955   22.6383 C   0  0  0  0  0  0  0  0  0  0  0  0
   55.1778   93.6811   23.8742 O   0  0  0  0  0  0  0  0  0  0  0  0
   53.4831   97.4656   28.1995 Br  0  0  0  0  0  0  0  0  0  0  0  0
   54.0159   96.2630   26.8287 C   0  0  0  0  0  0  0  0  0  0  0  0
   53.1075   95.3559   26.3536 C   0  0  0  0  0  0  0  0  0  0  0  0
   53.4896   94.4817   25.3595 C   0  0  0  0  0  0  0  0  0  0  0  0
   54.7606   94.4861   24.8209 C   0  0  0  0  0  0  0  0  0  0  0  0
   55.6752   95.4337   25.3336 C   0  0  0  0  0  0  0  0  0  0  0  0
   55.2949   96.2913   26.3111 C   0  0  0  0  0  0  0  0  0  0  0  0
 27 28  1  0  0  0
 28 29  2  0  0  0
 28 33  1  0  0  0
 29 30  1  0  0  0
 30 31  2  0  0  0
 31 32  1  0  0  0
 31 26  1  0  0  0
 32 33  2  0  0  0
 26 25  1  0  0  0
 25 22  1  0  0  0
 22 23  1  0  0  0
 22 21  1  0  0  0
 21  1  1  0  0  0
  1  2  1  0  0  0
  1  5  1  0  0  0
  2  3  2  0  0  0
  2 10  1  0  0  0
  3  4  1  0  0  0
  3  6  1  0  0  0
  4  5  2  0  0  0
  5 14  1  0  0  0
 14 15  1  0  0  0
 14 19  1  0  0  0
 15 16  1  0  0  0
 16 17  1  0  0  0
 17 18  1  0  0  0
 17 20  1  0  0  0
 18 19  1  0  0  0
  6  7  1  0  0  0
  6 12  1  0  0  0
  7  8  2  0  0  0
  7  9  1  0  0  0
  9 10  1  0  0  0
 10 11  2  0  0  0
 23 24  1  0  0  0
  9 13  1  0  0  0
M  END
> <minimizedAffinity>
-9.38310

$$$$
454


 21 25  0  0  0  0  0  0  0  0999 V2000
   55.5773   90.3514   19.7308 C   0  0  0  0  0  0  0  0  0  0  0  0
   55.0237   91.9920   22.3609 Br  0  0  0  0  0  0  0  0  0  0  0  0
   55.6056   90.1787   22.1775 C   0  0  0  0  0  0  0  0  0  0  0  0
   55.9175   89.4294   23.2967 C   0  0  0  0  0  0  0  0  0  0  0  0
   56.3442   88.1220   23.1803 C   0  0  0  0  0  0  0  0  0  0  0  0
   56.5022   87.4670   21.9820 C   0  0  0  0  0  0  0  0  0  0  0  0
   56.1934   88.2144   20.8785 C   0  0  0  0  0  0  0  0  0  0  0  0
   55.7552   89.5394   20.9350 C   0  0  0  0  0  0  0  0  0  0  0  0
   56.9524   86.2006   22.3186 O   0  0  0  0  0  0  0  0  0  0  0  0
   57.6628   86.3069   23.5835 C   0  0  0  0  0  0  0  0  0  0  0  0
   56.7084   87.2105   24.2182 O   0  0  0  0  0  0  0  0  0  0  0  0
   54.3060   90.4989   19.1559 N   0  0  0  0  0  0  0  0  0  0  0  0
   54.5259   89.8433   17.8166 C   0  0  0  0  0  0  0  0  0  0  0  0
   53.5187   90.0858   16.8729 N   0  0  0  0  0  0  0  0  0  0  0  0
   53.4000   91.5261   16.7267 C   0  0  0  0  0  0  0  0  0  0  0  0
   52.9425   92.0472   17.9911 N   0  0  0  0  0  0  0  0  0  0  0  0
   53.9389   91.9056   19.0031 C   0  0  0  0  0  0  0  0  0  0  0  0
   51.7048   91.4224   18.4720 C   0  0  0  0  0  0  0  0  0  0  0  0
   52.0011   90.0179   18.7030 N   0  0  0  0  0  0  0  0  0  0  0  0
   53.1287   89.8517   19.6447 C   0  0  0  0  0  0  0  0  0  0  0  0
   52.3024   89.4613   17.4059 C   0  0  0  0  0  0  0  0  0  0  0  0
  2  3  1  0  0  0
  3  4  2  0  0  0
  3  8  1  0  0  0
  4  5  1  0  0  0
  5  6  2  0  0  0
  5 11  1  0  0  0
  6  7  1  0  0  0
  6  9  1  0  0  0
  7  8  2  0  0  0
  8  1  1  0  0  0
  1 12  1  0  0  0
 12 13  1  0  0  0
 12 17  1  0  0  0
 12 20  1  0  0  0
 13 14  1  0  0  0
 14 15  1  0  0  0
 14 21  1  0  0  0
 15 16  1  0  0  0
 16 17  1  0  0  0
 16 18  1  0  0  0
 18 19  1  0  0  0
 19 20  1  0  0  0
 19 21  1  0  0  0
  9 10  1  0  0  0
 10 11  1  0  0  0
M  CHG 1  12   1
M  END
> <minimizedAffinity>
-7.58646

$$$$
455


 26 29  0  0  0  0  0  0  0  0999 V2000
   55.4761   88.4650   22.6661 N   0  0  0  0  0  0  0  0  0  0  0  0
   56.8261   87.8842   22.4448 C   0  0  0  0  0  0  0  0  0  0  0  0
   56.5354   86.4019   22.2341 C   0  0  0  0  0  0  0  0  0  0  0  0
   55.2114   86.0226   22.5667 N   0  0  0  0  0  0  0  0  0  0  0  0
   54.7913   86.5108   23.8542 C   0  0  0  0  0  0  0  0  0  0  0  0
   55.1387   87.9634   23.9996 C   0  0  0  0  0  0  0  0  0  0  0  0
   55.5717   89.9117   22.6742 C   0  0  0  0  0  0  0  0  0  0  0  0
   54.8535   92.8841   22.8563 Br  0  0  0  0  0  0  0  0  0  0  0  0
   54.7158   91.8121   21.2814 C   0  0  0  0  0  0  0  0  0  0  0  0
   54.2758   92.3628   20.0996 C   0  0  0  0  0  0  0  0  0  0  0  0
   54.1721   91.6057   18.9593 C   0  0  0  0  0  0  0  0  0  0  0  0
   54.5198   90.2867   19.0327 C   0  0  0  0  0  0  0  0  0  0  0  0
   54.9649   89.7322   20.2316 C   0  0  0  0  0  0  0  0  0  0  0  0
   55.0782   90.4711   21.3909 C   0  0  0  0  0  0  0  0  0  0  0  0
   54.4224   89.5051   17.8924 O   0  0  0  0  0  0  0  0  0  0  0  0
   53.7443   89.9068   16.7303 C   0  0  0  0  0  0  0  0  0  0  0  0
   53.7970   91.3903   16.5516 C   0  0  0  0  0  0  0  0  0  0  0  0
   53.7337   92.1241   17.7479 O   0  0  0  0  0  0  0  0  0  0  0  0
   54.2342   86.0502   21.5455 C   0  0  0  0  0  0  0  0  0  0  0  0
   54.1209   84.8574   20.7270 C   0  0  0  0  0  0  0  0  0  0  0  0
   54.2492   83.7189   21.2244 O   0  0  0  0  0  0  0  0  0  0  0  0
   53.8596   84.9487   19.3403 N   0  0  0  0  0  0  0  0  0  0  0  0
   53.7356   85.8781   18.8444 H   0  0  0  0  0  0  0  0  0  0  0  0
   53.7398   83.7728   18.4869 C   0  0  0  0  0  0  0  0  0  0  0  0
   54.9149   83.2370   17.7815 C   0  0  0  0  0  0  0  0  0  0  0  0
   53.9261   84.0447   16.9966 C   0  0  0  0  0  0  0  0  0  0  0  0
  8  9  1  0  0  0
  9 10  2  0  0  0
  9 14  1  0  0  0
 10 11  1  0  0  0
 11 12  2  0  0  0
 11 18  1  0  0  0
 12 13  1  0  0  0
 12 15  1  0  0  0
 13 14  2  0  0  0
 14  7  1  0  0  0
  7  1  1  0  0  0
  1  2  1  0  0  0
  1  6  1  0  0  0
  2  3  1  0  0  0
  3  4  1  0  0  0
  4  5  1  0  0  0
  4 19  1  0  0  0
  5  6  1  0  0  0
 19 20  1  0  0  0
 20 21  2  0  0  0
 20 22  1  0  0  0
 22 24  1  0  0  0
 24 25  1  0  0  0
 24 26  1  0  0  0
 25 26  1  0  0  0
 15 16  1  0  0  0
 16 17  1  0  0  0
 17 18  1  0  0  0
 22 23  1  0  0  0
M  END
> <minimizedAffinity>
-7.63015

$$$$
459


 29 32  0  0  0  0  0  0  0  0999 V2000
   51.9215   97.6150   27.8446 C   0  0  0  0  0  0  0  0  0  0  0  0
   52.3598   98.8658   28.3003 C   0  0  0  0  0  0  0  0  0  0  0  0
   51.4962   99.8633   28.6916 C   0  0  0  0  0  0  0  0  0  0  0  0
   50.1335   99.6653   28.6478 C   0  0  0  0  0  0  0  0  0  0  0  0
   49.6841   98.4411   28.2007 C   0  0  0  0  0  0  0  0  0  0  0  0
   50.5580   97.4277   27.8038 C   0  0  0  0  0  0  0  0  0  0  0  0
   49.2018  100.7177   29.0609 C   0  0  0  0  0  0  0  0  0  0  0  0
   49.2952  101.5638   30.1000 N   0  0  0  0  0  0  0  0  0  0  0  0
   48.2211  102.3600   30.1018 N   0  0  0  0  0  0  0  0  0  0  0  0
   47.4508  102.0250   29.0770 N   0  0  0  0  0  0  0  0  0  0  0  0
   48.0485  101.0277   28.4474 N   0  0  0  0  0  0  0  0  0  0  0  0
   47.8940  103.4208   31.0315 C   0  0  0  0  0  0  0  0  0  0  0  0
   46.8256  102.9799   31.9549 C   0  0  0  0  0  0  0  0  0  0  0  0
   47.0511  102.9275   33.1745 O   0  0  0  0  0  0  0  0  0  0  0  0
   45.5639  102.6243   31.4314 N   0  0  0  0  0  0  0  0  0  0  0  0
   45.4421  102.2111   30.4653 H   0  0  0  0  0  0  0  0  0  0  0  0
   44.7044  102.7659   32.0035 H   0  0  0  0  0  0  0  0  0  0  0  0
   52.8339   96.6485   27.4594 O   0  0  0  0  0  0  0  0  0  0  0  0
   54.1172   96.5289   27.9962 C   0  0  0  0  0  0  0  0  0  0  0  0
   54.5765   93.7434   26.8422 Br  0  0  0  0  0  0  0  0  0  0  0  0
   55.5317   95.3235   26.3329 C   0  0  0  0  0  0  0  0  0  0  0  0
   56.5061   95.2955   25.3665 C   0  0  0  0  0  0  0  0  0  0  0  0
   57.1841   96.4442   25.0124 C   0  0  0  0  0  0  0  0  0  0  0  0
   56.8707   97.6295   25.6433 C   0  0  0  0  0  0  0  0  0  0  0  0
   55.8795   97.6489   26.6231 C   0  0  0  0  0  0  0  0  0  0  0  0
   55.1933   96.5139   26.9903 C   0  0  0  0  0  0  0  0  0  0  0  0
   57.6896   98.6013   25.1033 O   0  0  0  0  0  0  0  0  0  0  0  0
   58.3138   98.1230   23.9247 C   0  0  0  0  0  0  0  0  0  0  0  0
   58.1966   96.7268   24.0930 O   0  0  0  0  0  0  0  0  0  0  0  0
 20 21  1  0  0  0
 21 22  2  0  0  0
 21 26  1  0  0  0
 22 23  1  0  0  0
 23 24  2  0  0  0
 23 29  1  0  0  0
 24 25  1  0  0  0
 24 27  1  0  0  0
 25 26  2  0  0  0
 26 19  1  0  0  0
 19 18  1  0  0  0
 18  1  1  0  0  0
  1  2  2  0  0  0
  1  6  1  0  0  0
  2  3  1  0  0  0
  3  4  2  0  0  0
  4  5  1  0  0  0
  4  7  1  0  0  0
  5  6  2  0  0  0
  7  8  2  0  0  0
  7 11  1  0  0  0
  8  9  1  0  0  0
  9 10  1  0  0  0
  9 12  1  0  0  0
 10 11  2  0  0  0
 12 13  1  0  0  0
 13 14  2  0  0  0
 13 15  1  0  0  0
 27 28  1  0  0  0
 28 29  1  0  0  0
 15 16  1  0  0  0
 15 17  1  0  0  0
M  END
> <minimizedAffinity>
-9.23201

$$$$
467


 28 31  0  0  0  0  0  0  0  0999 V2000
   54.3721   85.8047   21.2866 N   0  0  0  0  0  0  0  0  0  0  0  0
   55.0995   85.7678   22.0329 H   0  0  0  0  0  0  0  0  0  0  0  0
   53.8835   84.5907   20.7566 C   0  0  0  0  0  0  0  0  0  0  0  0
   54.5687   84.0695   19.7254 N   0  0  0  0  0  0  0  0  0  0  0  0
   54.2291   82.8906   19.1377 C   0  0  0  0  0  0  0  0  0  0  0  0
   53.1646   82.2726   19.6471 N   0  0  0  0  0  0  0  0  0  0  0  0
   52.4440   82.7347   20.6660 C   0  0  0  0  0  0  0  0  0  0  0  0
   52.8274   83.9237   21.2198 N   0  0  0  0  0  0  0  0  0  0  0  0
   54.9895   82.4247   18.0630 N   0  0  0  0  0  0  0  0  0  0  0  0
   55.4925   81.0721   18.0287 C   0  0  0  0  0  0  0  0  0  0  0  0
   55.9209   80.6845   16.6290 C   0  0  0  0  0  0  0  0  0  0  0  0
   55.1953   81.2247   15.6186 O   0  0  0  0  0  0  0  0  0  0  0  0
   54.7547   82.5069   15.7270 C   0  0  0  0  0  0  0  0  0  0  0  0
   55.2880   83.2704   16.9355 C   0  0  0  0  0  0  0  0  0  0  0  0
   51.3418   82.0678   21.1728 O   0  0  0  0  0  0  0  0  0  0  0  0
   50.3905   82.7443   21.9503 C   0  0  0  0  0  0  0  0  0  0  0  0
   54.6082   88.0221   20.4489 C   0  0  0  0  0  0  0  0  0  0  0  0
   53.9259   87.0393   20.8585 N   0  0  0  0  0  0  0  0  0  0  0  0
   55.8091   90.5491   21.7829 Br  0  0  0  0  0  0  0  0  0  0  0  0
   54.3924   90.4828   20.5265 C   0  0  0  0  0  0  0  0  0  0  0  0
   53.7756   91.6488   20.1132 C   0  0  0  0  0  0  0  0  0  0  0  0
   52.7274   91.6490   19.1911 C   0  0  0  0  0  0  0  0  0  0  0  0
   52.3097   90.4201   18.6859 C   0  0  0  0  0  0  0  0  0  0  0  0
   52.9404   89.2699   19.1131 C   0  0  0  0  0  0  0  0  0  0  0  0
   53.9867   89.2627   20.0331 C   0  0  0  0  0  0  0  0  0  0  0  0
   51.2805   90.6870   17.8117 O   0  0  0  0  0  0  0  0  0  0  0  0
   50.8994   92.0471   17.8754 C   0  0  0  0  0  0  0  0  0  0  0  0
   51.9417   92.6320   18.6113 O   0  0  0  0  0  0  0  0  0  0  0  0
 19 20  1  0  0  0
 20 21  2  0  0  0
 20 25  1  0  0  0
 21 22  1  0  0  0
 22 23  2  0  0  0
 22 28  1  0  0  0
 23 24  1  0  0  0
 23 26  1  0  0  0
 24 25  2  0  0  0
 25 17  1  0  0  0
 17 18  2  0  0  0
 18  1  1  0  0  0
  1  3  1  0  0  0
  3  4  2  0  0  0
  3  8  1  0  0  0
  4  5  1  0  0  0
  5  6  2  0  0  0
  5  9  1  0  0  0
  6  7  1  0  0  0
  7  8  2  0  0  0
  7 15  1  0  0  0
 15 16  1  0  0  0
  9 10  1  0  0  0
  9 14  1  0  0  0
 10 11  1  0  0  0
 11 12  1  0  0  0
 12 13  1  0  0  0
 13 14  1  0  0  0
 26 27  1  0  0  0
 27 28  1  0  0  0
  1  2  1  0  0  0
M  END
> <minimizedAffinity>
-8.06738

$$$$
469


 32 36  0  0  0  0  0  0  0  0999 V2000
   55.2135   85.9816   24.0782 C   0  0  0  0  0  0  0  0  0  0  0  0
   54.1189   85.8128   25.0056 N   0  0  0  0  0  0  0  0  0  0  0  0
   54.4522   85.8166   26.3500 C   0  0  0  0  0  0  0  0  0  0  0  0
   53.6548   85.0434   27.3282 C   0  0  0  0  0  0  0  0  0  0  0  0
   52.3762   84.7411   26.7516 N   0  0  0  0  0  0  0  0  0  0  0  0
   52.4492   84.0651   25.4808 C   0  0  0  0  0  0  0  0  0  0  0  0
   53.0440   85.0475   24.5056 C   0  0  0  0  0  0  0  0  0  0  0  0
   51.1185   85.0399   27.3008 C   0  0  0  0  0  0  0  0  0  0  0  0
   50.5190   86.2533   27.2008 N   0  0  0  0  0  0  0  0  0  0  0  0
   49.3120   86.5089   27.7366 C   0  0  0  0  0  0  0  0  0  0  0  0
   48.6339   85.5593   28.4049 N   0  0  0  0  0  0  0  0  0  0  0  0
   49.1523   84.3235   28.5537 C   0  0  0  0  0  0  0  0  0  0  0  0
   48.7052   83.1959   29.1637 N   0  0  0  0  0  0  0  0  0  0  0  0
   49.6443   82.2841   28.9867 N   0  0  0  0  0  0  0  0  0  0  0  0
   50.6786   82.7646   28.2930 C   0  0  0  0  0  0  0  0  0  0  0  0
   50.3843   84.0780   28.0020 C   0  0  0  0  0  0  0  0  0  0  0  0
   47.4305   83.0523   29.8691 C   0  0  0  0  0  0  0  0  0  0  0  0
   54.5017   86.5324   21.7475 N   0  0  0  0  0  0  0  0  0  0  0  0
   54.8885   87.0088   23.0172 C   0  0  0  0  0  0  0  0  0  0  0  0
   54.9878   88.2028   23.3452 O   0  0  0  0  0  0  0  0  0  0  0  0
   54.4607   85.4734   21.6142 H   0  0  0  0  0  0  0  0  0  0  0  0
   52.4499   85.1414   20.0552 Br  0  0  0  0  0  0  0  0  0  0  0  0
   53.2129   86.8487   19.7307 C   0  0  0  0  0  0  0  0  0  0  0  0
   52.8584   87.6036   18.6378 C   0  0  0  0  0  0  0  0  0  0  0  0
   53.3980   88.8278   18.3958 C   0  0  0  0  0  0  0  0  0  0  0  0
   54.3339   89.3394   19.2681 C   0  0  0  0  0  0  0  0  0  0  0  0
   54.7105   88.5887   20.3872 C   0  0  0  0  0  0  0  0  0  0  0  0
   54.1631   87.3421   20.6365 C   0  0  0  0  0  0  0  0  0  0  0  0
   54.8642   90.5764   19.0039 O   0  0  0  0  0  0  0  0  0  0  0  0
   54.9210   91.1560   17.7233 C   0  0  0  0  0  0  0  0  0  0  0  0
   54.0909   90.4345   16.7104 C   0  0  0  0  0  0  0  0  0  0  0  0
   53.0701   89.6229   17.3060 O   0  0  0  0  0  0  0  0  0  0  0  0
 22 23  1  0  0  0
 23 24  2  0  0  0
 23 28  1  0  0  0
 24 25  1  0  0  0
 25 26  2  0  0  0
 25 32  1  0  0  0
 26 27  1  0  0  0
 26 29  1  0  0  0
 27 28  2  0  0  0
 28 18  1  0  0  0
 18 19  1  0  0  0
 19 20  2  0  0  0
 19  1  1  0  0  0
  1  2  1  0  0  0
  2  3  1  0  0  0
  2  7  1  0  0  0
  3  4  1  0  0  0
  4  5  1  0  0  0
  5  6  1  0  0  0
  5  8  1  0  0  0
  6  7  1  0  0  0
  8  9  2  0  0  0
  8 16  1  0  0  0
  9 10  1  0  0  0
 10 11  2  0  0  0
 11 12  1  0  0  0
 12 13  1  0  0  0
 12 16  2  0  0  0
 13 14  1  0  0  0
 13 17  1  0  0  0
 14 15  2  0  0  0
 15 16  1  0  0  0
 29 30  1  0  0  0
 30 31  1  0  0  0
 31 32  1  0  0  0
 18 21  1  0  0  0
M  END
> <minimizedAffinity>
-8.53992

$$$$
471


 27 30  0  0  0  0  0  0  0  0999 V2000
   55.1340   84.9695   24.9617 C   0  0  0  0  0  0  0  0  0  0  0  0
   56.1967   84.4069   25.3547 O   0  0  0  0  0  0  0  0  0  0  0  0
   53.9022   84.3020   25.1132 N   0  0  0  0  0  0  0  0  0  0  0  0
   53.8888   82.9925   25.7138 C   0  0  0  0  0  0  0  0  0  0  0  0
   52.9530   82.8994   26.9004 C   0  0  0  0  0  0  0  0  0  0  0  0
   51.8762   83.7944   26.6942 N   0  0  0  0  0  0  0  0  0  0  0  0
   51.5355   83.9421   25.3340 C   0  0  0  0  0  0  0  0  0  0  0  0
   52.6236   84.8336   24.7076 C   0  0  0  0  0  0  0  0  0  0  0  0
   54.4068   89.4669   18.8088 Br  0  0  0  0  0  0  0  0  0  0  0  0
   54.8459   89.2122   20.6473 C   0  0  0  0  0  0  0  0  0  0  0  0
   54.7440   87.9576   21.2240 C   0  0  0  0  0  0  0  0  0  0  0  0
   55.0564   87.7418   22.5584 C   0  0  0  0  0  0  0  0  0  0  0  0
   55.4738   88.8485   23.2722 C   0  0  0  0  0  0  0  0  0  0  0  0
   55.5833   90.1039   22.7263 C   0  0  0  0  0  0  0  0  0  0  0  0
   55.2681   90.2900   21.4023 C   0  0  0  0  0  0  0  0  0  0  0  0
   55.7861   88.6392   24.6032 C   0  0  0  0  0  0  0  0  0  0  0  0
   56.1774   89.6191   25.3195 O   0  0  0  0  0  0  0  0  0  0  0  0
   55.6661   87.3684   25.1246 C   0  0  0  0  0  0  0  0  0  0  0  0
   55.2459   86.3045   24.3609 C   0  0  0  0  0  0  0  0  0  0  0  0
   54.9616   86.5555   23.1074 O   0  0  0  0  0  0  0  0  0  0  0  0
   51.8232   84.9383   27.5128 C   0  0  0  0  0  0  0  0  0  0  0  0
   50.4958   85.5125   27.7144 C   0  0  0  0  0  0  0  0  0  0  0  0
   50.0100   86.5931   27.0820 N   0  0  0  0  0  0  0  0  0  0  0  0
   48.8185   86.7894   27.5223 O   0  0  0  0  0  0  0  0  0  0  0  0
   48.4860   85.8923   28.4167 N   0  0  0  0  0  0  0  0  0  0  0  0
   49.5336   85.0531   28.5708 C   0  0  0  0  0  0  0  0  0  0  0  0
   49.6134   83.8758   29.4866 C   0  0  0  0  0  0  0  0  0  0  0  0
  9 10  1  0  0  0
 10 11  2  0  0  0
 10 15  1  0  0  0
 11 12  1  0  0  0
 12 13  2  0  0  0
 12 20  1  0  0  0
 13 14  1  0  0  0
 13 16  1  0  0  0
 14 15  2  0  0  0
 16 17  2  0  0  0
 16 18  1  0  0  0
 18 19  2  0  0  0
 19 20  1  0  0  0
 19  1  1  0  0  0
  1  2  2  0  0  0
  1  3  1  0  0  0
  3  4  1  0  0  0
  3  8  1  0  0  0
  4  5  1  0  0  0
  5  6  1  0  0  0
  6  7  1  0  0  0
  6 21  1  0  0  0
  7  8  1  0  0  0
 21 22  1  0  0  0
 22 23  2  0  0  0
 22 26  1  0  0  0
 23 24  1  0  0  0
 24 25  1  0  0  0
 25 26  2  0  0  0
 26 27  1  0  0  0
M  END
> <minimizedAffinity>
-8.90805

$$$$
473


 29 32  0  0  0  0  0  0  0  0999 V2000
   53.3735   84.1279   25.6558 C   0  0  0  0  0  0  0  0  0  0  0  0
   52.1336   84.2441   24.8544 C   0  0  0  0  0  0  0  0  0  0  0  0
   51.3075   85.1850   24.9814 O   0  0  0  0  0  0  0  0  0  0  0  0
   51.8100   83.2514   23.8610 N   0  0  0  0  0  0  0  0  0  0  0  0
   50.6036   83.3567   23.0728 C   0  0  0  0  0  0  0  0  0  0  0  0
   50.8112   83.0669   21.6238 C   0  0  0  0  0  0  0  0  0  0  0  0
   52.1693   82.7245   21.2740 N   0  0  0  0  0  0  0  0  0  0  0  0
   53.1059   82.0875   22.1605 C   0  0  0  0  0  0  0  0  0  0  0  0
   52.6674   82.1096   23.6045 C   0  0  0  0  0  0  0  0  0  0  0  0
   52.6149   83.0406   19.9513 C   0  0  0  0  0  0  0  0  0  0  0  0
   53.0076   82.0714   19.0808 N   0  0  0  0  0  0  0  0  0  0  0  0
   53.4285   82.3234   17.8422 C   0  0  0  0  0  0  0  0  0  0  0  0
   53.4739   83.6390   17.4059 C   0  0  0  0  0  0  0  0  0  0  0  0
   53.0896   84.6288   18.2476 N   0  0  0  0  0  0  0  0  0  0  0  0
   52.6710   84.3356   19.4893 C   0  0  0  0  0  0  0  0  0  0  0  0
   53.9981   85.4437   26.0250 C   0  0  0  0  0  0  0  0  0  0  0  0
   55.2887   85.6061   25.3115 C   0  0  0  0  0  0  0  0  0  0  0  0
   54.5546   89.8495   18.7165 Br  0  0  0  0  0  0  0  0  0  0  0  0
   54.9288   89.3575   20.5214 C   0  0  0  0  0  0  0  0  0  0  0  0
   54.7018   88.0558   20.9203 C   0  0  0  0  0  0  0  0  0  0  0  0
   54.9576   87.6475   22.2164 C   0  0  0  0  0  0  0  0  0  0  0  0
   55.4473   88.5890   23.1005 C   0  0  0  0  0  0  0  0  0  0  0  0
   55.6703   89.8876   22.6906 C   0  0  0  0  0  0  0  0  0  0  0  0
   55.4185   90.3025   21.3985 C   0  0  0  0  0  0  0  0  0  0  0  0
   55.6298   87.9216   24.3775 C   0  0  0  0  0  0  0  0  0  0  0  0
   56.0705   88.5008   25.4220 O   0  0  0  0  0  0  0  0  0  0  0  0
   55.2373   86.5652   24.2301 N   0  0  0  0  0  0  0  0  0  0  0  0
   54.8136   86.3563   22.9061 C   0  0  0  0  0  0  0  0  0  0  0  0
   54.3916   85.2887   22.3829 O   0  0  0  0  0  0  0  0  0  0  0  0
 18 19  1  0  0  0
 19 20  2  0  0  0
 19 24  1  0  0  0
 20 21  1  0  0  0
 21 22  2  0  0  0
 21 28  1  0  0  0
 22 23  1  0  0  0
 22 25  1  0  0  0
 23 24  2  0  0  0
 25 26  2  0  0  0
 25 27  1  0  0  0
 27 28  1  0  0  0
 27 17  1  0  0  0
 28 29  2  0  0  0
 17 16  1  0  0  0
 16  1  1  0  0  0
  1  2  1  0  0  0
  2  3  2  0  0  0
  2  4  1  0  0  0
  4  5  1  0  0  0
  4  9  1  0  0  0
  5  6  1  0  0  0
  6  7  1  0  0  0
  7  8  1  0  0  0
  7 10  1  0  0  0
  8  9  1  0  0  0
 10 11  2  0  0  0
 10 15  1  0  0  0
 11 12  1  0  0  0
 12 13  2  0  0  0
 13 14  1  0  0  0
 14 15  2  0  0  0
M  END
> <minimizedAffinity>
-8.40217

$$$$
483


 31 34  0  0  0  0  0  0  0  0999 V2000
   56.2600   87.9950   23.1958 N   0  0  0  0  0  0  0  0  0  0  0  0
   56.8215   87.8098   24.4832 C   0  0  0  0  0  0  0  0  0  0  0  0
   57.2214   88.8090   25.1232 O   0  0  0  0  0  0  0  0  0  0  0  0
   55.9359   87.1654   22.6591 H   0  0  0  0  0  0  0  0  0  0  0  0
   53.2519   84.5414   20.4073 Br  0  0  0  0  0  0  0  0  0  0  0  0
   53.5403   86.4039   20.1610 C   0  0  0  0  0  0  0  0  0  0  0  0
   54.3754   87.1387   21.0109 C   0  0  0  0  0  0  0  0  0  0  0  0
   54.5881   88.4897   20.8368 C   0  0  0  0  0  0  0  0  0  0  0  0
   53.9502   89.1491   19.7792 C   0  0  0  0  0  0  0  0  0  0  0  0
   53.1255   88.4105   18.9436 C   0  0  0  0  0  0  0  0  0  0  0  0
   52.9256   87.0638   19.1336 C   0  0  0  0  0  0  0  0  0  0  0  0
   54.2975   90.5293   19.7717 N   0  0  0  0  0  0  0  0  0  0  0  0
   55.1817   90.7379   20.8621 C   0  0  0  0  0  0  0  0  0  0  0  0
   55.7494   91.7951   21.2516 O   0  0  0  0  0  0  0  0  0  0  0  0
   55.3935   89.4563   21.5688 C   0  0  0  0  0  0  0  0  0  0  0  0
   56.1322   89.2547   22.6055 N   0  0  0  0  0  0  0  0  0  0  0  0
   53.8792   91.5831   18.8691 C   0  0  0  0  0  0  0  0  0  0  0  0
   54.3442   91.3100   17.5184 C   0  0  0  0  0  0  0  0  0  0  0  0
   54.7340   91.0685   16.4058 C   0  0  0  0  0  0  0  0  0  0  0  0
   56.9312   86.4738   25.0514 C   0  0  0  0  0  0  0  0  0  0  0  0
   55.6502   85.8082   25.1908 N   0  0  0  0  0  0  0  0  0  0  0  0
   54.8517   85.8240   26.2443 N   0  0  0  0  0  0  0  0  0  0  0  0
   53.7667   85.1041   26.0105 N   0  0  0  0  0  0  0  0  0  0  0  0
   53.8614   84.6033   24.7670 C   0  0  0  0  0  0  0  0  0  0  0  0
   55.0294   85.0562   24.2929 N   0  0  0  0  0  0  0  0  0  0  0  0
   52.8698   83.7509   24.1190 C   0  0  0  0  0  0  0  0  0  0  0  0
   51.5931   84.2210   23.8978 C   0  0  0  0  0  0  0  0  0  0  0  0
   50.6415   83.4081   23.2776 C   0  0  0  0  0  0  0  0  0  0  0  0
   50.9407   82.1275   22.8714 C   0  0  0  0  0  0  0  0  0  0  0  0
   52.2220   81.6534   23.0918 C   0  0  0  0  0  0  0  0  0  0  0  0
   53.1615   82.4680   23.7090 C   0  0  0  0  0  0  0  0  0  0  0  0
  5  6  1  0  0  0
  6  7  2  0  0  0
  6 11  1  0  0  0
  7  8  1  0  0  0
  8  9  2  0  0  0
  8 15  1  0  0  0
  9 10  1  0  0  0
  9 12  1  0  0  0
 10 11  2  0  0  0
 12 13  1  0  0  0
 12 17  1  0  0  0
 13 14  2  0  0  0
 13 15  1  0  0  0
 15 16  2  0  0  0
 16  1  1  0  0  0
  1  2  1  0  0  0
  2  3  2  0  0  0
  2 20  1  0  0  0
 20 21  1  0  0  0
 21 22  1  0  0  0
 21 25  1  0  0  0
 22 23  2  0  0  0
 23 24  1  0  0  0
 24 25  2  0  0  0
 24 26  1  0  0  0
 26 27  2  0  0  0
 26 31  1  0  0  0
 27 28  1  0  0  0
 28 29  2  0  0  0
 29 30  1  0  0  0
 30 31  2  0  0  0
 17 18  1  0  0  0
 18 19  3  0  0  0
  1  4  1  0  0  0
M  END
> <minimizedAffinity>
-8.85597

$$$$
484


 35 38  0  0  0  0  0  0  0  0999 V2000
   56.2334   88.9021   23.6258 Br  0  0  0  0  0  0  0  0  0  0  0  0
   55.2364   87.8626   22.3721 C   0  0  0  0  0  0  0  0  0  0  0  0
   54.5725   88.4569   21.2887 C   0  0  0  0  0  0  0  0  0  0  0  0
   53.8984   87.6150   20.4518 C   0  0  0  0  0  0  0  0  0  0  0  0
   53.8355   86.2468   20.6147 C   0  0  0  0  0  0  0  0  0  0  0  0
   54.4832   85.6672   21.6818 C   0  0  0  0  0  0  0  0  0  0  0  0
   55.1924   86.4986   22.5613 C   0  0  0  0  0  0  0  0  0  0  0  0
   53.0650   85.6250   19.5943 N   0  0  0  0  0  0  0  0  0  0  0  0
   52.6036   86.6969   18.7311 C   0  0  0  0  0  0  0  0  0  0  0  0
   51.9056   86.5449   17.7072 O   0  0  0  0  0  0  0  0  0  0  0  0
   53.1224   87.9247   19.2918 C   0  0  0  0  0  0  0  0  0  0  0  0
   52.8458   89.1275   18.9635 N   0  0  0  0  0  0  0  0  0  0  0  0
   52.9488   90.2623   19.2132 N   0  0  0  0  0  0  0  0  0  0  0  0
   53.0559   91.6410   19.5053 C   0  0  0  0  0  0  0  0  0  0  0  0
   52.3391   92.5871   19.2677 O   0  0  0  0  0  0  0  0  0  0  0  0
   51.8194   90.5962   18.4774 H   0  0  0  0  0  0  0  0  0  0  0  0
   54.3796   91.8983   20.2610 C   0  0  0  0  0  0  0  0  0  0  0  0
   54.0160   91.7662   21.6521 O   0  0  0  0  0  0  0  0  0  0  0  0
   54.2322   92.9392   22.4304 N   0  0  0  0  0  0  0  0  0  0  0  0
   55.1238   92.9785   23.3417 C   0  0  0  0  0  0  0  0  0  0  0  0
   55.3129   94.1754   24.1286 C   0  0  0  0  0  0  0  0  0  0  0  0
   56.5081   94.7298   24.4432 C   0  0  0  0  0  0  0  0  0  0  0  0
   56.4746   95.8657   25.2923 C   0  0  0  0  0  0  0  0  0  0  0  0
   55.3941   96.4528   25.8028 C   0  0  0  0  0  0  0  0  0  0  0  0
   54.2252   95.8650   25.4561 C   0  0  0  0  0  0  0  0  0  0  0  0
   54.0537   94.7840   24.6780 C   0  0  0  0  0  0  0  0  0  0  0  0
   55.5084   97.5791   26.6254 O   0  0  0  0  0  0  0  0  0  0  0  0
   56.7463   98.2712   26.7403 C   0  0  0  0  0  0  0  0  0  0  0  0
   52.7670   84.2310   19.3092 C   0  0  0  0  0  0  0  0  0  0  0  0
   53.8067   83.6011   18.6575 N   0  0  0  0  0  0  0  0  0  0  0  0
   54.3211   82.5113   19.3826 C   0  0  0  0  0  0  0  0  0  0  0  0
   54.5321   81.3223   18.4423 C   0  0  0  0  0  0  0  0  0  0  0  0
   53.2725   81.1949   17.7952 O   0  0  0  0  0  0  0  0  0  0  0  0
   53.1531   82.2002   16.8263 C   0  0  0  0  0  0  0  0  0  0  0  0
   53.7284   83.5142   17.2548 C   0  0  0  0  0  0  0  0  0  0  0  0
  1  2  1  0  0  0
  2  3  2  0  0  0
  2  7  1  0  0  0
  3  4  1  0  0  0
  4  5  2  0  0  0
  4 11  1  0  0  0
  5  6  1  0  0  0
  5  8  1  0  0  0
  6  7  2  0  0  0
  8  9  1  0  0  0
  8 29  1  0  0  0
  9 10  2  0  0  0
  9 11  1  0  0  0
 11 12  2  0  0  0
 12 13  1  0  0  0
 13 14  1  0  0  0
 14 15  2  0  0  0
 14 17  1  0  0  0
 17 18  1  0  0  0
 18 19  1  0  0  0
 19 20  2  0  0  0
 20 21  1  0  0  0
 21 22  2  0  0  0
 21 26  1  0  0  0
 22 23  1  0  0  0
 23 24  2  0  0  0
 24 25  1  0  0  0
 24 27  1  0  0  0
 25 26  2  0  0  0
 27 28  1  0  0  0
 29 30  1  0  0  0
 30 31  1  0  0  0
 30 35  1  0  0  0
 31 32  1  0  0  0
 32 33  1  0  0  0
 33 34  1  0  0  0
 34 35  1  0  0  0
 13 16  1  0  0  0
M  END
> <minimizedAffinity>
-8.99673

$$$$
485


 34 37  0  0  0  0  0  0  0  0999 V2000
   50.7587   92.2095   17.4501 Br  0  0  0  0  0  0  0  0  0  0  0  0
   52.0215   91.1889   18.4790 C   0  0  0  0  0  0  0  0  0  0  0  0
   52.7097   91.7477   19.5311 C   0  0  0  0  0  0  0  0  0  0  0  0
   53.6328   91.0506   20.3033 C   0  0  0  0  0  0  0  0  0  0  0  0
   53.8728   89.7090   19.9922 C   0  0  0  0  0  0  0  0  0  0  0  0
   53.1824   89.1481   18.9373 C   0  0  0  0  0  0  0  0  0  0  0  0
   52.2625   89.8653   18.1775 C   0  0  0  0  0  0  0  0  0  0  0  0
   54.8461   89.1637   20.8940 N   0  0  0  0  0  0  0  0  0  0  0  0
   55.2102   90.2115   21.7826 C   0  0  0  0  0  0  0  0  0  0  0  0
   56.0401   90.1151   22.7139 O   0  0  0  0  0  0  0  0  0  0  0  0
   54.4652   91.4068   21.4372 C   0  0  0  0  0  0  0  0  0  0  0  0
   54.5234   92.5548   22.0121 N   0  0  0  0  0  0  0  0  0  0  0  0
   55.3492   92.8214   23.0977 N   0  0  0  0  0  0  0  0  0  0  0  0
   54.8690   93.6033   24.1687 C   0  0  0  0  0  0  0  0  0  0  0  0
   53.6812   94.0794   24.1705 O   0  0  0  0  0  0  0  0  0  0  0  0
   56.3076   92.4455   23.1118 H   0  0  0  0  0  0  0  0  0  0  0  0
   55.6814   93.9354   25.3659 C   0  0  0  0  0  0  0  0  0  0  0  0
   55.2736   95.1934   25.9022 O   0  0  0  0  0  0  0  0  0  0  0  0
   56.1290   96.2804   25.8384 C   0  0  0  0  0  0  0  0  0  0  0  0
   55.9141   97.3789   26.6434 C   0  0  0  0  0  0  0  0  0  0  0  0
   56.7778   98.4676   26.5738 C   0  0  0  0  0  0  0  0  0  0  0  0
   57.8501   98.4575   25.7025 C   0  0  0  0  0  0  0  0  0  0  0  0
   58.0494   97.3642   24.9127 C   0  0  0  0  0  0  0  0  0  0  0  0
   57.1889   96.2810   24.9827 C   0  0  0  0  0  0  0  0  0  0  0  0
   54.8587   97.4206   27.5188 O   0  0  0  0  0  0  0  0  0  0  0  0
   53.7276   98.2059   27.2383 C   0  0  0  0  0  0  0  0  0  0  0  0
   55.3313   87.7942   20.8637 C   0  0  0  0  0  0  0  0  0  0  0  0
   55.2015   87.0865   22.0863 N   0  0  0  0  0  0  0  0  0  0  0  0
   54.2168   86.0597   22.1099 C   0  0  0  0  0  0  0  0  0  0  0  0
   54.0988   85.4099   23.4916 C   0  0  0  0  0  0  0  0  0  0  0  0
   54.8053   86.2562   24.4098 N   0  0  0  0  0  0  0  0  0  0  0  0
   56.2149   86.2894   24.1712 C   0  0  0  0  0  0  0  0  0  0  0  0
   56.4328   86.7519   22.7418 C   0  0  0  0  0  0  0  0  0  0  0  0
   54.4376   86.0604   25.7826 C   0  0  0  0  0  0  0  0  0  0  0  0
  1  2  1  0  0  0
  2  3  2  0  0  0
  2  7  1  0  0  0
  3  4  1  0  0  0
  4  5  2  0  0  0
  4 11  1  0  0  0
  5  6  1  0  0  0
  5  8  1  0  0  0
  6  7  2  0  0  0
  8  9  1  0  0  0
  8 27  1  0  0  0
  9 10  2  0  0  0
  9 11  1  0  0  0
 11 12  2  0  0  0
 12 13  1  0  0  0
 13 14  1  0  0  0
 14 15  2  0  0  0
 14 17  1  0  0  0
 17 18  1  0  0  0
 18 19  1  0  0  0
 19 20  2  0  0  0
 19 24  1  0  0  0
 20 21  1  0  0  0
 20 25  1  0  0  0
 21 22  2  0  0  0
 22 23  1  0  0  0
 23 24  2  0  0  0
 25 26  1  0  0  0
 27 28  1  0  0  0
 28 29  1  0  0  0
 28 33  1  0  0  0
 29 30  1  0  0  0
 30 31  1  0  0  0
 31 32  1  0  0  0
 31 34  1  0  0  0
 32 33  1  0  0  0
 13 16  1  0  0  0
M  END
> <minimizedAffinity>
-9.69050

$$$$
500


 32 35  0  0  0  0  0  0  0  0999 V2000
   53.4243   79.9152   31.3534 Br  0  0  0  0  0  0  0  0  0  0  0  0
   53.2835   81.3158   30.0398 C   0  0  0  0  0  0  0  0  0  0  0  0
   52.0977   81.7351   29.5105 C   0  0  0  0  0  0  0  0  0  0  0  0
   52.0431   82.7156   28.5536 C   0  0  0  0  0  0  0  0  0  0  0  0
   53.2278   83.2619   28.1484 C   0  0  0  0  0  0  0  0  0  0  0  0
   54.4584   82.8520   28.6775 C   0  0  0  0  0  0  0  0  0  0  0  0
   54.5010   81.8633   29.6390 C   0  0  0  0  0  0  0  0  0  0  0  0
   53.0285   84.2267   27.1337 N   0  0  0  0  0  0  0  0  0  0  0  0
   51.6594   84.2920   26.8849 C   0  0  0  0  0  0  0  0  0  0  0  0
   51.1418   85.0435   26.0175 O   0  0  0  0  0  0  0  0  0  0  0  0
   50.9370   83.3385   27.8052 C   0  0  0  0  0  0  0  0  0  0  0  0
   50.0205   84.1755   28.5637 C   0  0  0  0  0  0  0  0  0  0  0  0
   48.6755   84.0382   28.4034 C   0  0  0  0  0  0  0  0  0  0  0  0
   48.0907   84.9520   29.2276 N   0  0  0  0  0  0  0  0  0  0  0  0
   49.0190   85.6195   29.8627 N   0  0  0  0  0  0  0  0  0  0  0  0
   50.2518   85.1938   29.5024 C   0  0  0  0  0  0  0  0  0  0  0  0
   48.1028   83.0999   27.5216 O   0  0  0  0  0  0  0  0  0  0  0  0
   48.9780   82.3071   26.8048 C   0  0  0  0  0  0  0  0  0  0  0  0
   50.2734   82.3965   26.9155 C   0  0  0  0  0  0  0  0  0  0  0  0
   48.3922   81.3430   25.8974 N   0  0  0  0  0  0  0  0  0  0  0  0
   54.0790   85.0209   26.4647 C   0  0  0  0  0  0  0  0  0  0  0  0
   48.8765   86.3958   30.5720 H   0  0  0  0  0  0  0  0  0  0  0  0
   47.4126   81.0168   25.9641 H   0  0  0  0  0  0  0  0  0  0  0  0
   48.9922   80.9672   25.1458 H   0  0  0  0  0  0  0  0  0  0  0  0
   51.1182   81.5137   26.1053 C   0  0  0  0  0  0  0  0  0  0  0  0
   51.7731   80.8343   25.4556 N   0  0  0  0  0  0  0  0  0  0  0  0
   51.5289   85.7217   30.0462 C   0  0  0  0  0  0  0  0  0  0  0  0
   51.4987   85.7975   31.5232 C   0  0  0  0  0  0  0  0  0  0  0  0
   52.2639   86.4994   32.2324 O   0  0  0  0  0  0  0  0  0  0  0  0
   50.5540   85.0364   32.1750 O   0  0  0  0  0  0  0  0  0  0  0  0
   50.7895   84.1481   33.2349 C   0  0  0  0  0  0  0  0  0  0  0  0
   51.8963   83.1906   32.8605 C   0  0  0  0  0  0  0  0  0  0  0  0
  1  2  1  0  0  0
  2  3  2  0  0  0
  2  7  1  0  0  0
  3  4  1  0  0  0
  4  5  2  0  0  0
  4 11  1  0  0  0
  5  6  1  0  0  0
  5  8  1  0  0  0
  6  7  2  0  0  0
  8  9  1  0  0  0
  8 21  1  0  0  0
  9 10  2  0  0  0
  9 11  1  0  0  0
 11 12  1  0  0  0
 11 19  1  0  0  0
 12 13  1  0  0  0
 12 16  2  0  0  0
 13 14  2  0  0  0
 13 17  1  0  0  0
 14 15  1  0  0  0
 15 16  1  0  0  0
 16 27  1  0  0  0
 27 28  1  0  0  0
 28 29  2  0  0  0
 28 30  1  0  0  0
 30 31  1  0  0  0
 31 32  1  0  0  0
 17 18  1  0  0  0
 18 19  2  0  0  0
 18 20  1  0  0  0
 19 25  1  0  0  0
 25 26  3  0  0  0
 15 22  1  0  0  0
 20 23  1  0  0  0
 20 24  1  0  0  0
M  END
> <minimizedAffinity>
-6.71169

$$$$
502


 27 30  0  0  0  0  0  0  0  0999 V2000
   47.9575   79.9283   29.0520 Br  0  0  0  0  0  0  0  0  0  0  0  0
   48.7543   81.4653   29.8989 C   0  0  0  0  0  0  0  0  0  0  0  0
   49.8218   82.1102   29.3321 C   0  0  0  0  0  0  0  0  0  0  0  0
   50.3749   83.2086   29.9563 C   0  0  0  0  0  0  0  0  0  0  0  0
   49.8199   83.6134   31.1400 C   0  0  0  0  0  0  0  0  0  0  0  0
   48.7213   82.9488   31.7217 C   0  0  0  0  0  0  0  0  0  0  0  0
   48.1845   81.8601   31.0879 C   0  0  0  0  0  0  0  0  0  0  0  0
   50.4966   84.7539   31.6599 N   0  0  0  0  0  0  0  0  0  0  0  0
   51.5248   85.0875   30.7694 C   0  0  0  0  0  0  0  0  0  0  0  0
   52.3333   86.0545   30.9162 O   0  0  0  0  0  0  0  0  0  0  0  0
   51.5039   84.1116   29.6234 C   0  0  0  0  0  0  0  0  0  0  0  0
   51.2659   84.9081   28.4251 C   0  0  0  0  0  0  0  0  0  0  0  0
   52.1935   84.9854   27.4333 C   0  0  0  0  0  0  0  0  0  0  0  0
   51.6674   85.7982   26.4701 N   0  0  0  0  0  0  0  0  0  0  0  0
   50.4718   86.2154   26.8300 N   0  0  0  0  0  0  0  0  0  0  0  0
   50.1840   85.6957   28.0212 C   0  0  0  0  0  0  0  0  0  0  0  0
   48.9530   85.8649   28.8551 C   0  0  0  0  0  0  0  0  0  0  0  0
   53.4211   84.3166   27.4900 O   0  0  0  0  0  0  0  0  0  0  0  0
   53.6446   83.5584   28.6347 C   0  0  0  0  0  0  0  0  0  0  0  0
   52.7930   83.4458   29.6204 C   0  0  0  0  0  0  0  0  0  0  0  0
   54.9049   82.8395   28.7506 N   0  0  0  0  0  0  0  0  0  0  0  0
   50.1828   85.4645   32.9089 C   0  0  0  0  0  0  0  0  0  0  0  0
   49.8144   86.8497   26.3070 H   0  0  0  0  0  0  0  0  0  0  0  0
   55.6757   83.3828   29.1880 H   0  0  0  0  0  0  0  0  0  0  0  0
   55.0365   81.8815   28.4325 H   0  0  0  0  0  0  0  0  0  0  0  0
   53.1978   82.5982   30.7555 C   0  0  0  0  0  0  0  0  0  0  0  0
   53.5260   81.9100   31.6402 N   0  0  0  0  0  0  0  0  0  0  0  0
  1  2  1  0  0  0
  2  3  2  0  0  0
  2  7  1  0  0  0
  3  4  1  0  0  0
  4  5  2  0  0  0
  4 11  1  0  0  0
  5  6  1  0  0  0
  5  8  1  0  0  0
  6  7  2  0  0  0
  8  9  1  0  0  0
  8 22  1  0  0  0
  9 10  2  0  0  0
  9 11  1  0  0  0
 11 12  1  0  0  0
 11 20  1  0  0  0
 12 13  1  0  0  0
 12 16  2  0  0  0
 13 14  2  0  0  0
 13 18  1  0  0  0
 14 15  1  0  0  0
 15 16  1  0  0  0
 16 17  1  0  0  0
 18 19  1  0  0  0
 19 20  2  0  0  0
 19 21  1  0  0  0
 20 26  1  0  0  0
 26 27  3  0  0  0
 15 23  1  0  0  0
 21 24  1  0  0  0
 21 25  1  0  0  0
M  END
> <minimizedAffinity>
-6.54950

$$$$
504


 29 32  0  0  0  0  0  0  0  0999 V2000
   53.3943   80.2588   29.3291 Br  0  0  0  0  0  0  0  0  0  0  0  0
   52.4729   81.8682   28.9162 C   0  0  0  0  0  0  0  0  0  0  0  0
   51.4198   82.3413   29.6617 C   0  0  0  0  0  0  0  0  0  0  0  0
   50.7954   83.5320   29.2924 C   0  0  0  0  0  0  0  0  0  0  0  0
   51.1740   84.2665   28.2193 C   0  0  0  0  0  0  0  0  0  0  0  0
   52.2455   83.7853   27.4617 C   0  0  0  0  0  0  0  0  0  0  0  0
   52.8739   82.6112   27.8114 C   0  0  0  0  0  0  0  0  0  0  0  0
   50.3833   85.4288   28.0609 N   0  0  0  0  0  0  0  0  0  0  0  0
   49.4340   85.4402   29.1011 C   0  0  0  0  0  0  0  0  0  0  0  0
   48.5519   86.3221   29.2935 O   0  0  0  0  0  0  0  0  0  0  0  0
   49.6430   84.2317   29.9468 C   0  0  0  0  0  0  0  0  0  0  0  0
   48.4425   83.3590   29.9083 C   0  0  0  0  0  0  0  0  0  0  0  0
   47.8521   82.9473   30.9714 C   0  0  0  0  0  0  0  0  0  0  0  0
   48.3049   83.2978   32.3086 N   0  0  0  0  0  0  0  0  0  0  0  0
   49.4468   84.1274   32.3591 C   0  0  0  0  0  0  0  0  0  0  0  0
   50.0618   84.5576   31.2920 C   0  0  0  0  0  0  0  0  0  0  0  0
   49.9451   84.5106   33.6705 N   0  0  0  0  0  0  0  0  0  0  0  0
   46.6880   82.0959   30.5751 C   0  0  0  0  0  0  0  0  0  0  0  0
   46.6977   82.0812   29.1957 O   0  0  0  0  0  0  0  0  0  0  0  0
   47.7294   82.8216   28.7041 C   0  0  0  0  0  0  0  0  0  0  0  0
   48.0711   83.0516   27.5050 O   0  0  0  0  0  0  0  0  0  0  0  0
   45.4095   82.6591   31.1653 C   0  0  0  0  0  0  0  0  0  0  0  0
   46.8758   80.6709   31.0625 C   0  0  0  0  0  0  0  0  0  0  0  0
   50.4968   86.4587   27.0168 C   0  0  0  0  0  0  0  0  0  0  0  0
   47.7916   82.9380   33.1313 H   0  0  0  0  0  0  0  0  0  0  0  0
   49.8322   85.5083   33.9428 H   0  0  0  0  0  0  0  0  0  0  0  0
   50.3905   83.8273   34.2985 H   0  0  0  0  0  0  0  0  0  0  0  0
   51.2276   85.4079   31.5006 C   0  0  0  0  0  0  0  0  0  0  0  0
   52.1408   86.0993   31.6730 N   0  0  0  0  0  0  0  0  0  0  0  0
  1  2  1  0  0  0
  2  3  2  0  0  0
  2  7  1  0  0  0
  3  4  1  0  0  0
  4  5  2  0  0  0
  4 11  1  0  0  0
  5  6  1  0  0  0
  5  8  1  0  0  0
  6  7  2  0  0  0
  8  9  1  0  0  0
  8 24  1  0  0  0
  9 10  2  0  0  0
  9 11  1  0  0  0
 11 12  1  0  0  0
 11 16  1  0  0  0
 12 13  2  0  0  0
 12 20  1  0  0  0
 13 14  1  0  0  0
 13 18  1  0  0  0
 14 15  1  0  0  0
 15 16  2  0  0  0
 15 17  1  0  0  0
 16 28  1  0  0  0
 28 29  3  0  0  0
 18 19  1  0  0  0
 18 22  1  0  0  0
 18 23  1  0  0  0
 19 20  1  0  0  0
 20 21  2  0  0  0
 14 25  1  0  0  0
 17 26  1  0  0  0
 17 27  1  0  0  0
M  END
> <minimizedAffinity>
-7.01440

$$$$
505


 30 33  0  0  0  0  0  0  0  0999 V2000
   49.5488   82.0158   23.0155 Br  0  0  0  0  0  0  0  0  0  0  0  0
   50.9078   82.9826   23.9324 C   0  0  0  0  0  0  0  0  0  0  0  0
   50.9488   82.9679   25.3095 C   0  0  0  0  0  0  0  0  0  0  0  0
   51.9372   83.6698   26.0068 C   0  0  0  0  0  0  0  0  0  0  0  0
   52.8504   84.3626   25.2792 C   0  0  0  0  0  0  0  0  0  0  0  0
   52.8068   84.3773   23.8695 C   0  0  0  0  0  0  0  0  0  0  0  0
   51.8316   83.6836   23.1912 C   0  0  0  0  0  0  0  0  0  0  0  0
   53.7590   85.0005   26.1676 N   0  0  0  0  0  0  0  0  0  0  0  0
   53.4111   84.7026   27.4974 C   0  0  0  0  0  0  0  0  0  0  0  0
   53.9852   85.0895   28.5460 O   0  0  0  0  0  0  0  0  0  0  0  0
   52.2068   83.8206   27.4676 C   0  0  0  0  0  0  0  0  0  0  0  0
   51.0749   84.4546   28.1527 C   0  0  0  0  0  0  0  0  0  0  0  0
   50.4170   83.8353   29.1650 C   0  0  0  0  0  0  0  0  0  0  0  0
   50.8108   82.5609   29.5848 O   0  0  0  0  0  0  0  0  0  0  0  0
   51.8705   81.9210   28.9733 C   0  0  0  0  0  0  0  0  0  0  0  0
   52.5170   82.4918   28.0022 C   0  0  0  0  0  0  0  0  0  0  0  0
   52.2173   80.6133   29.4581 N   0  0  0  0  0  0  0  0  0  0  0  0
   49.3435   84.4776   29.7880 C   0  0  0  0  0  0  0  0  0  0  0  0
   48.7472   83.8970   30.7187 O   0  0  0  0  0  0  0  0  0  0  0  0
   48.9685   85.7310   29.3645 C   0  0  0  0  0  0  0  0  0  0  0  0
   49.6730   86.3114   28.3310 C   0  0  0  0  0  0  0  0  0  0  0  0
   50.6554   85.6706   27.7938 O   0  0  0  0  0  0  0  0  0  0  0  0
   54.8820   85.8390   25.7050 C   0  0  0  0  0  0  0  0  0  0  0  0
   52.3336   79.8579   28.7852 H   0  0  0  0  0  0  0  0  0  0  0  0
   52.3351   80.4846   30.4621 H   0  0  0  0  0  0  0  0  0  0  0  0
   49.2791   87.6910   27.8471 C   0  0  0  0  0  0  0  0  0  0  0  0
   49.3435   87.7203   26.4540 O   0  0  0  0  0  0  0  0  0  0  0  0
   50.0233   87.0497   26.1439 H   0  0  0  0  0  0  0  0  0  0  0  0
   53.6314   81.7377   27.4103 C   0  0  0  0  0  0  0  0  0  0  0  0
   54.4972   81.1504   26.9599 N   0  0  0  0  0  0  0  0  0  0  0  0
  1  2  1  0  0  0
  2  3  2  0  0  0
  2  7  1  0  0  0
  3  4  1  0  0  0
  4  5  2  0  0  0
  4 11  1  0  0  0
  5  6  1  0  0  0
  5  8  1  0  0  0
  6  7  2  0  0  0
  8  9  1  0  0  0
  8 23  1  0  0  0
  9 10  2  0  0  0
  9 11  1  0  0  0
 11 12  1  0  0  0
 11 16  1  0  0  0
 12 13  2  0  0  0
 12 22  1  0  0  0
 13 14  1  0  0  0
 13 18  1  0  0  0
 14 15  1  0  0  0
 15 16  2  0  0  0
 15 17  1  0  0  0
 16 29  1  0  0  0
 29 30  3  0  0  0
 18 19  2  0  0  0
 18 20  1  0  0  0
 20 21  2  0  0  0
 21 22  1  0  0  0
 21 26  1  0  0  0
 26 27  1  0  0  0
 17 24  1  0  0  0
 17 25  1  0  0  0
 27 28  1  0  0  0
M  END
> <minimizedAffinity>
-7.39689

$$$$
513


 33 36  0  0  0  0  0  0  0  0999 V2000
   51.9218   86.2511   20.0959 N   0  0  0  0  0  0  0  0  0  0  0  0
   52.4240   84.9293   20.2349 C   0  0  0  0  0  0  0  0  0  0  0  0
   53.1051   84.4808   19.2991 O   0  0  0  0  0  0  0  0  0  0  0  0
   51.3384   86.6208   20.8775 H   0  0  0  0  0  0  0  0  0  0  0  0
   52.1612   87.0513   18.9940 N   0  0  0  0  0  0  0  0  0  0  0  0
   52.6536   86.6467   18.1514 H   0  0  0  0  0  0  0  0  0  0  0  0
   57.0217   87.1606   21.4849 Br  0  0  0  0  0  0  0  0  0  0  0  0
   55.8822   88.6259   21.0166 C   0  0  0  0  0  0  0  0  0  0  0  0
   54.6635   88.3995   20.3774 C   0  0  0  0  0  0  0  0  0  0  0  0
   53.8040   89.4129   20.0130 C   0  0  0  0  0  0  0  0  0  0  0  0
   54.1964   90.6968   20.3092 C   0  0  0  0  0  0  0  0  0  0  0  0
   55.4147   90.9618   20.9515 C   0  0  0  0  0  0  0  0  0  0  0  0
   56.2374   89.9205   21.2953 C   0  0  0  0  0  0  0  0  0  0  0  0
   53.1767   91.5726   19.8486 N   0  0  0  0  0  0  0  0  0  0  0  0
   52.1245   90.8357   19.2534 C   0  0  0  0  0  0  0  0  0  0  0  0
   51.0617   91.2614   18.7398 O   0  0  0  0  0  0  0  0  0  0  0  0
   52.5000   89.4153   19.3413 C   0  0  0  0  0  0  0  0  0  0  0  0
   51.7899   88.3992   18.9013 C   0  0  0  0  0  0  0  0  0  0  0  0
   53.1868   92.6161   19.9319 H   0  0  0  0  0  0  0  0  0  0  0  0
   52.1754   84.0882   21.4268 C   0  0  0  0  0  0  0  0  0  0  0  0
   52.8785   84.5247   22.5409 N   0  0  0  0  0  0  0  0  0  0  0  0
   52.6116   84.4676   23.8447 C   0  0  0  0  0  0  0  0  0  0  0  0
   53.6264   85.1122   24.5395 C   0  0  0  0  0  0  0  0  0  0  0  0
   54.5045   85.5534   23.6191 N   0  0  0  0  0  0  0  0  0  0  0  0
   54.0633   85.2051   22.4320 C   0  0  0  0  0  0  0  0  0  0  0  0
   53.5844   85.1806   25.9178 C   0  0  0  0  0  0  0  0  0  0  0  0
   54.5169   85.7736   26.5191 O   0  0  0  0  0  0  0  0  0  0  0  0
   52.5536   84.6145   26.5271 N   0  0  0  0  0  0  0  0  0  0  0  0
   51.5775   83.9905   25.8441 C   0  0  0  0  0  0  0  0  0  0  0  0
   50.6197   83.4665   26.4606 O   0  0  0  0  0  0  0  0  0  0  0  0
   51.5715   83.8950   24.4846 N   0  0  0  0  0  0  0  0  0  0  0  0
   50.5336   83.1908   23.7873 C   0  0  0  0  0  0  0  0  0  0  0  0
   52.4585   84.6611   27.9957 C   0  0  0  0  0  0  0  0  0  0  0  0
  7  8  1  0  0  0
  8  9  2  0  0  0
  8 13  1  0  0  0
  9 10  1  0  0  0
 10 11  2  0  0  0
 10 17  1  0  0  0
 11 12  1  0  0  0
 11 14  1  0  0  0
 12 13  2  0  0  0
 14 15  1  0  0  0
 15 16  2  0  0  0
 15 17  1  0  0  0
 17 18  2  0  0  0
 18  5  1  0  0  0
  5  1  1  0  0  0
  1  2  1  0  0  0
  2  3  2  0  0  0
  2 20  1  0  0  0
 20 21  1  0  0  0
 21 22  1  0  0  0
 21 25  1  0  0  0
 22 23  2  0  0  0
 22 31  1  0  0  0
 23 24  1  0  0  0
 23 26  1  0  0  0
 24 25  2  0  0  0
 26 27  2  0  0  0
 26 28  1  0  0  0
 28 29  1  0  0  0
 28 33  1  0  0  0
 29 30  2  0  0  0
 29 31  1  0  0  0
 31 32  1  0  0  0
 14 19  1  0  0  0
  5  6  1  0  0  0
  1  4  1  0  0  0
M  END
> <minimizedAffinity>
-9.23438

$$$$
526


 31 34  0  0  0  0  0  0  0  0999 V2000
   54.4363   93.7312   24.7594 N   0  0  0  0  0  0  0  0  0  0  0  0
   54.2612   93.7584   23.3634 C   0  0  0  0  0  0  0  0  0  0  0  0
   53.5391   94.6923   22.8630 O   0  0  0  0  0  0  0  0  0  0  0  0
   55.0181   92.9609   25.1881 H   0  0  0  0  0  0  0  0  0  0  0  0
   49.4532   97.4859   28.3096 Br  0  0  0  0  0  0  0  0  0  0  0  0
   51.3258   97.4727   28.0012 C   0  0  0  0  0  0  0  0  0  0  0  0
   51.9232   96.5308   27.2130 C   0  0  0  0  0  0  0  0  0  0  0  0
   53.2845   96.5297   26.9999 C   0  0  0  0  0  0  0  0  0  0  0  0
   54.1082   97.4573   27.5544 C   0  0  0  0  0  0  0  0  0  0  0  0
   53.5047   98.4261   28.3628 C   0  0  0  0  0  0  0  0  0  0  0  0
   52.1496   98.4317   28.5783 C   0  0  0  0  0  0  0  0  0  0  0  0
   55.4557   97.2474   27.1913 N   0  0  0  0  0  0  0  0  0  0  0  0
   55.5365   96.1007   26.3408 C   0  0  0  0  0  0  0  0  0  0  0  0
   56.5047   95.5631   25.7995 O   0  0  0  0  0  0  0  0  0  0  0  0
   54.1275   95.6236   26.2096 C   0  0  0  0  0  0  0  0  0  0  0  0
   53.8672   94.6746   25.5385 N   0  0  0  0  0  0  0  0  0  0  0  0
   56.2910   97.8110   27.4796 H   0  0  0  0  0  0  0  0  0  0  0  0
   54.8237   92.8327   22.3757 C   0  0  0  0  0  0  0  0  0  0  0  0
   55.4023   91.6251   22.8930 N   0  0  0  0  0  0  0  0  0  0  0  0
   55.5249   90.4535   22.0942 C   0  0  0  0  0  0  0  0  0  0  0  0
   55.0792   90.5519   20.8852 O   0  0  0  0  0  0  0  0  0  0  0  0
   55.7358   91.5490   23.8660 H   0  0  0  0  0  0  0  0  0  0  0  0
   56.0833   89.2010   22.5021 C   0  0  0  0  0  0  0  0  0  0  0  0
   56.3255   88.8171   23.8127 C   0  0  0  0  0  0  0  0  0  0  0  0
   56.8498   87.6111   24.1317 C   0  0  0  0  0  0  0  0  0  0  0  0
   57.1728   86.6926   23.1530 C   0  0  0  0  0  0  0  0  0  0  0  0
   56.9565   87.0276   21.8536 C   0  0  0  0  0  0  0  0  0  0  0  0
   56.4108   88.2718   21.5037 C   0  0  0  0  0  0  0  0  0  0  0  0
   57.6836   85.5412   23.7743 O   0  0  0  0  0  0  0  0  0  0  0  0
   56.9646   85.5327   25.0312 C   0  0  0  0  0  0  0  0  0  0  0  0
   57.1943   86.9475   25.3675 O   0  0  0  0  0  0  0  0  0  0  0  0
  5  6  1  0  0  0
  6  7  2  0  0  0
  6 11  1  0  0  0
  7  8  1  0  0  0
  8  9  2  0  0  0
  8 15  1  0  0  0
  9 10  1  0  0  0
  9 12  1  0  0  0
 10 11  2  0  0  0
 12 13  1  0  0  0
 13 14  2  0  0  0
 13 15  1  0  0  0
 15 16  2  0  0  0
 16  1  1  0  0  0
  1  2  1  0  0  0
  2  3  2  0  0  0
  2 18  1  0  0  0
 18 19  1  0  0  0
 19 20  1  0  0  0
 20 21  2  0  0  0
 20 23  1  0  0  0
 23 24  2  0  0  0
 23 28  1  0  0  0
 24 25  1  0  0  0
 25 26  2  0  0  0
 25 31  1  0  0  0
 26 27  1  0  0  0
 26 29  1  0  0  0
 27 28  2  0  0  0
 29 30  1  0  0  0
 30 31  1  0  0  0
 12 17  1  0  0  0
  1  4  1  0  0  0
 19 22  1  0  0  0
M  END
> <minimizedAffinity>
-10.10480

$$$$
550


 30 35  0  0  0  0  0  0  0  0999 V2000
   48.5387   83.5349   29.3594 Br  0  0  0  0  0  0  0  0  0  0  0  0
   50.1605   83.0622   28.4737 C   0  0  0  0  0  0  0  0  0  0  0  0
   50.3298   83.2282   27.1042 C   0  0  0  0  0  0  0  0  0  0  0  0
   51.4965   82.8867   26.4748 C   0  0  0  0  0  0  0  0  0  0  0  0
   52.5128   82.3647   27.2609 C   0  0  0  0  0  0  0  0  0  0  0  0
   52.3516   82.1969   28.6202 C   0  0  0  0  0  0  0  0  0  0  0  0
   51.1744   82.5431   29.2413 C   0  0  0  0  0  0  0  0  0  0  0  0
   53.6553   82.0671   26.4543 N   0  0  0  0  0  0  0  0  0  0  0  0
   53.3642   82.4071   25.1156 C   0  0  0  0  0  0  0  0  0  0  0  0
   54.1565   82.2721   24.1722 O   0  0  0  0  0  0  0  0  0  0  0  0
   51.9816   82.9304   25.0976 C   0  0  0  0  0  0  0  0  0  0  0  0
   51.2467   82.1523   24.1461 N   0  0  0  0  0  0  0  0  0  0  0  0
   51.6992   82.6559   22.8508 C   0  0  0  0  0  0  0  0  0  0  0  0
   51.9981   84.1061   23.0442 C   0  0  0  0  0  0  0  0  0  0  0  0
   51.8974   84.3191   24.5148 C   0  0  0  0  0  0  0  0  0  0  0  0
   53.0379   85.1644   24.8528 C   0  0  0  0  0  0  0  0  0  0  0  0
   53.2581   85.7043   25.9601 O   0  0  0  0  0  0  0  0  0  0  0  0
   53.8757   85.2882   23.7308 N   0  0  0  0  0  0  0  0  0  0  0  0
   53.4033   84.4555   22.6605 C   0  0  0  0  0  0  0  0  0  0  0  0
   54.0064   84.0822   21.6234 O   0  0  0  0  0  0  0  0  0  0  0  0
   50.4964   82.5378   21.9265 C   0  0  0  0  0  0  0  0  0  0  0  0
   49.3925   81.9153   22.7558 C   0  0  0  0  0  0  0  0  0  0  0  0
   49.8154   82.3717   24.1588 C   0  0  0  0  0  0  0  0  0  0  0  0
   54.5629   81.6568   26.8238 H   0  0  0  0  0  0  0  0  0  0  0  0
   55.0378   86.1144   23.6348 C   0  0  0  0  0  0  0  0  0  0  0  0
   54.8691   87.3575   22.8400 C   0  0  0  0  0  0  0  0  0  0  0  0
   55.3990   87.2808   21.5570 O   0  0  0  0  0  0  0  0  0  0  0  0
   55.3475   88.5915   21.1022 C   0  0  0  0  0  0  0  0  0  0  0  0
   55.6460   89.4981   22.2549 C   0  0  0  0  0  0  0  0  0  0  0  0
   55.4011   88.6004   23.4673 C   0  0  0  0  0  0  0  0  0  0  0  0
  1  2  1  0  0  0
  2  3  2  0  0  0
  2  7  1  0  0  0
  3  4  1  0  0  0
  4  5  2  0  0  0
  4 11  1  0  0  0
  5  6  1  0  0  0
  5  8  1  0  0  0
  6  7  2  0  0  0
  8  9  1  0  0  0
  9 10  2  0  0  0
  9 11  1  0  0  0
 11 12  1  0  0  0
 11 15  1  0  0  0
 12 13  1  0  0  0
 12 23  1  0  0  0
 13 14  1  0  0  0
 13 21  1  0  0  0
 14 15  1  0  0  0
 14 19  1  0  0  0
 15 16  1  0  0  0
 16 17  2  0  0  0
 16 18  1  0  0  0
 18 19  1  0  0  0
 18 25  1  0  0  0
 19 20  2  0  0  0
 25 26  1  0  0  0
 26 27  1  0  0  0
 26 30  1  0  0  0
 27 28  1  0  0  0
 28 29  1  0  0  0
 29 30  1  0  0  0
 21 22  1  0  0  0
 22 23  1  0  0  0
  8 24  1  0  0  0
M  END
> <minimizedAffinity>
-7.54721

$$$$
556


 30 33  0  0  0  0  0  0  0  0999 V2000
   52.8911   80.9779   27.1179 Br  0  0  0  0  0  0  0  0  0  0  0  0
   52.5163   82.4665   28.2496 C   0  0  0  0  0  0  0  0  0  0  0  0
   51.4126   82.3744   29.0617 C   0  0  0  0  0  0  0  0  0  0  0  0
   51.0965   83.4408   29.9104 C   0  0  0  0  0  0  0  0  0  0  0  0
   51.8871   84.5436   29.9118 C   0  0  0  0  0  0  0  0  0  0  0  0
   53.0229   84.6583   29.0876 C   0  0  0  0  0  0  0  0  0  0  0  0
   53.3088   83.5950   28.2642 C   0  0  0  0  0  0  0  0  0  0  0  0
   51.4009   85.5075   30.8276 N   0  0  0  0  0  0  0  0  0  0  0  0
   50.2533   84.9813   31.4234 C   0  0  0  0  0  0  0  0  0  0  0  0
   49.5050   85.5492   32.3099 O   0  0  0  0  0  0  0  0  0  0  0  0
   50.0136   83.6172   30.8646 C   0  0  0  0  0  0  0  0  0  0  0  0
   49.9842   82.7241   31.9933 C   0  0  0  0  0  0  0  0  0  0  0  0
   48.8532   82.0979   32.3622 C   0  0  0  0  0  0  0  0  0  0  0  0
   49.1618   81.3298   33.4590 N   0  0  0  0  0  0  0  0  0  0  0  0
   50.4374   81.4926   33.7368 N   0  0  0  0  0  0  0  0  0  0  0  0
   51.0109   82.3366   32.8784 C   0  0  0  0  0  0  0  0  0  0  0  0
   52.4291   82.7963   32.8320 C   0  0  0  0  0  0  0  0  0  0  0  0
   47.6264   82.2573   31.6920 O   0  0  0  0  0  0  0  0  0  0  0  0
   47.6337   83.1152   30.5994 C   0  0  0  0  0  0  0  0  0  0  0  0
   48.6950   83.7470   30.1983 C   0  0  0  0  0  0  0  0  0  0  0  0
   46.4114   83.3312   29.8591 N   0  0  0  0  0  0  0  0  0  0  0  0
   51.8050   86.4623   31.0473 H   0  0  0  0  0  0  0  0  0  0  0  0
   48.4924   80.7213   33.9827 H   0  0  0  0  0  0  0  0  0  0  0  0
   45.8725   84.1776   30.0561 H   0  0  0  0  0  0  0  0  0  0  0  0
   46.1198   82.6423   29.1649 H   0  0  0  0  0  0  0  0  0  0  0  0
   48.5947   84.6457   29.0120 C   0  0  0  0  0  0  0  0  0  0  0  0
   48.4820   84.1181   27.8910 O   0  0  0  0  0  0  0  0  0  0  0  0
   48.6183   86.0107   29.1014 O   0  0  0  0  0  0  0  0  0  0  0  0
   49.3832   86.8569   28.2769 C   0  0  0  0  0  0  0  0  0  0  0  0
   49.0180   88.2990   28.6441 C   0  0  0  0  0  0  0  0  0  0  0  0
  1  2  1  0  0  0
  2  3  2  0  0  0
  2  7  1  0  0  0
  3  4  1  0  0  0
  4  5  2  0  0  0
  4 11  1  0  0  0
  5  6  1  0  0  0
  5  8  1  0  0  0
  6  7  2  0  0  0
  8  9  1  0  0  0
  9 10  2  0  0  0
  9 11  1  0  0  0
 11 12  1  0  0  0
 11 20  1  0  0  0
 12 13  2  0  0  0
 12 16  1  0  0  0
 13 14  1  0  0  0
 13 18  1  0  0  0
 14 15  1  0  0  0
 15 16  2  0  0  0
 16 17  1  0  0  0
 18 19  1  0  0  0
 19 20  2  0  0  0
 19 21  1  0  0  0
 20 26  1  0  0  0
 26 27  2  0  0  0
 26 28  1  0  0  0
 28 29  1  0  0  0
 29 30  1  0  0  0
  8 22  1  0  0  0
 14 23  1  0  0  0
 21 24  1  0  0  0
 21 25  1  0  0  0
M  END
> <minimizedAffinity>
-6.52940

$$$$
558


 29 32  0  0  0  0  0  0  0  0999 V2000
   53.6884   80.6742   28.5105 Br  0  0  0  0  0  0  0  0  0  0  0  0
   52.6537   82.2451   28.2487 C   0  0  0  0  0  0  0  0  0  0  0  0
   51.6158   82.6040   29.1145 C   0  0  0  0  0  0  0  0  0  0  0  0
   50.8748   83.7391   28.9188 C   0  0  0  0  0  0  0  0  0  0  0  0
   51.1518   84.5422   27.8515 C   0  0  0  0  0  0  0  0  0  0  0  0
   52.1817   84.2252   26.9549 C   0  0  0  0  0  0  0  0  0  0  0  0
   52.9089   83.0806   27.1776 C   0  0  0  0  0  0  0  0  0  0  0  0
   50.2807   85.6600   27.8211 N   0  0  0  0  0  0  0  0  0  0  0  0
   49.4159   85.5494   28.9240 C   0  0  0  0  0  0  0  0  0  0  0  0
   48.4912   86.3332   29.2648 O   0  0  0  0  0  0  0  0  0  0  0  0
   49.7521   84.3208   29.6763 C   0  0  0  0  0  0  0  0  0  0  0  0
   48.5726   83.3958   29.6743 C   0  0  0  0  0  0  0  0  0  0  0  0
   47.9920   82.9054   30.7377 C   0  0  0  0  0  0  0  0  0  0  0  0
   48.5050   83.2656   32.0062 N   0  0  0  0  0  0  0  0  0  0  0  0
   49.6201   84.1371   32.1077 C   0  0  0  0  0  0  0  0  0  0  0  0
   50.2044   84.6303   31.0436 C   0  0  0  0  0  0  0  0  0  0  0  0
   50.1295   84.4931   33.4219 N   0  0  0  0  0  0  0  0  0  0  0  0
   46.8690   82.0389   30.3039 C   0  0  0  0  0  0  0  0  0  0  0  0
   46.8455   82.0662   28.9002 O   0  0  0  0  0  0  0  0  0  0  0  0
   47.8738   82.8874   28.4808 C   0  0  0  0  0  0  0  0  0  0  0  0
   48.1558   83.1484   27.2609 O   0  0  0  0  0  0  0  0  0  0  0  0
   45.5288   82.6147   30.7665 C   0  0  0  0  0  0  0  0  0  0  0  0
   47.0350   80.6212   30.8332 C   0  0  0  0  0  0  0  0  0  0  0  0
   50.2962   86.4340   27.0855 H   0  0  0  0  0  0  0  0  0  0  0  0
   48.0785   82.9013   32.8969 H   0  0  0  0  0  0  0  0  0  0  0  0
   51.1006   84.8023   33.5903 H   0  0  0  0  0  0  0  0  0  0  0  0
   49.4784   84.4312   34.2212 H   0  0  0  0  0  0  0  0  0  0  0  0
   51.3512   85.5235   31.2354 C   0  0  0  0  0  0  0  0  0  0  0  0
   52.2464   86.2361   31.4019 N   0  0  0  0  0  0  0  0  0  0  0  0
  1  2  1  0  0  0
  2  3  2  0  0  0
  2  7  1  0  0  0
  3  4  1  0  0  0
  4  5  2  0  0  0
  4 11  1  0  0  0
  5  6  1  0  0  0
  5  8  1  0  0  0
  6  7  2  0  0  0
  8  9  1  0  0  0
  9 10  2  0  0  0
  9 11  1  0  0  0
 11 12  1  0  0  0
 11 16  1  0  0  0
 12 13  2  0  0  0
 12 20  1  0  0  0
 13 14  1  0  0  0
 13 18  1  0  0  0
 14 15  1  0  0  0
 15 16  2  0  0  0
 15 17  1  0  0  0
 16 28  1  0  0  0
 28 29  3  0  0  0
 18 19  1  0  0  0
 18 22  1  0  0  0
 18 23  1  0  0  0
 19 20  1  0  0  0
 20 21  2  0  0  0
  8 24  1  0  0  0
 14 25  1  0  0  0
 17 26  1  0  0  0
 17 27  1  0  0  0
M  END
> <minimizedAffinity>
-7.62262

$$$$
559


 32 35  0  0  0  0  0  0  0  0999 V2000
   57.7515   87.2536   24.7153 Br  0  0  0  0  0  0  0  0  0  0  0  0
   56.4375   87.3606   23.3201 C   0  0  0  0  0  0  0  0  0  0  0  0
   55.7104   86.2550   22.9194 C   0  0  0  0  0  0  0  0  0  0  0  0
   54.7642   86.3219   21.9173 C   0  0  0  0  0  0  0  0  0  0  0  0
   54.5790   87.5566   21.3304 C   0  0  0  0  0  0  0  0  0  0  0  0
   55.3091   88.6714   21.7306 C   0  0  0  0  0  0  0  0  0  0  0  0
   56.2366   88.5782   22.7224 C   0  0  0  0  0  0  0  0  0  0  0  0
   53.5713   87.4379   20.3137 N   0  0  0  0  0  0  0  0  0  0  0  0
   53.1184   86.0962   20.2651 C   0  0  0  0  0  0  0  0  0  0  0  0
   52.2451   85.6771   19.4702 O   0  0  0  0  0  0  0  0  0  0  0  0
   53.8535   85.3333   21.2952 C   0  0  0  0  0  0  0  0  0  0  0  0
   54.5585   84.2233   20.7132 N   0  0  0  0  0  0  0  0  0  0  0  0
   53.5402   83.2048   20.5628 C   0  0  0  0  0  0  0  0  0  0  0  0
   52.7636   83.2873   21.8499 C   0  0  0  0  0  0  0  0  0  0  0  0
   52.8800   84.7387   22.2493 C   0  0  0  0  0  0  0  0  0  0  0  0
   53.2984   84.7222   23.6581 C   0  0  0  0  0  0  0  0  0  0  0  0
   53.3974   85.7126   24.4257 O   0  0  0  0  0  0  0  0  0  0  0  0
   53.5933   83.3659   24.0635 N   0  0  0  0  0  0  0  0  0  0  0  0
   53.3802   82.5139   22.9495 C   0  0  0  0  0  0  0  0  0  0  0  0
   53.6797   81.2963   22.9286 O   0  0  0  0  0  0  0  0  0  0  0  0
   53.2566   88.2418   19.7283 H   0  0  0  0  0  0  0  0  0  0  0  0
   55.2644   83.8837   21.3863 H   0  0  0  0  0  0  0  0  0  0  0  0
   54.0287   82.9310   25.3673 C   0  0  0  0  0  0  0  0  0  0  0  0
   55.0980   83.8325   25.9351 C   0  0  0  0  0  0  0  0  0  0  0  0
   52.8214   82.9089   26.3096 C   0  0  0  0  0  0  0  0  0  0  0  0
   54.6079   81.5349   25.3039 C   0  0  0  0  0  0  0  0  0  0  0  0
   54.1731   81.8608   20.3231 C   0  0  0  0  0  0  0  0  0  0  0  0
   54.4906   81.6724   18.8981 C   0  0  0  0  0  0  0  0  0  0  0  0
   54.2443   80.5558   18.3655 O   0  0  0  0  0  0  0  0  0  0  0  0
   55.0607   82.6646   18.0606 N   0  0  0  0  0  0  0  0  0  0  0  0
   55.8742   83.2502   18.2989 H   0  0  0  0  0  0  0  0  0  0  0  0
   54.6093   82.8087   17.1193 H   0  0  0  0  0  0  0  0  0  0  0  0
  1  2  1  0  0  0
  2  3  2  0  0  0
  2  7  1  0  0  0
  3  4  1  0  0  0
  4  5  2  0  0  0
  4 11  1  0  0  0
  5  6  1  0  0  0
  5  8  1  0  0  0
  6  7  2  0  0  0
  8  9  1  0  0  0
  9 10  2  0  0  0
  9 11  1  0  0  0
 11 12  1  0  0  0
 11 15  1  0  0  0
 12 13  1  0  0  0
 13 14  1  0  0  0
 13 27  1  0  0  0
 14 15  1  0  0  0
 14 19  1  0  0  0
 15 16  1  0  0  0
 16 17  2  0  0  0
 16 18  1  0  0  0
 18 19  1  0  0  0
 18 23  1  0  0  0
 19 20  2  0  0  0
 23 24  1  0  0  0
 23 25  1  0  0  0
 23 26  1  0  0  0
 27 28  1  0  0  0
 28 29  2  0  0  0
 28 30  1  0  0  0
  8 21  1  0  0  0
 12 22  1  0  0  0
 30 31  1  0  0  0
 30 32  1  0  0  0
M  END
> <minimizedAffinity>
-7.40419

$$$$
566


 30 33  0  0  0  0  0  0  0  0999 V2000
   51.6597   83.8900   25.9047 Br  0  0  0  0  0  0  0  0  0  0  0  0
   52.0540   83.6430   24.0542 C   0  0  0  0  0  0  0  0  0  0  0  0
   52.8375   84.5433   23.3776 C   0  0  0  0  0  0  0  0  0  0  0  0
   53.1342   84.3715   22.0133 C   0  0  0  0  0  0  0  0  0  0  0  0
   52.6520   83.3010   21.3137 C   0  0  0  0  0  0  0  0  0  0  0  0
   51.8515   82.3807   22.0057 C   0  0  0  0  0  0  0  0  0  0  0  0
   51.5733   82.5680   23.3395 C   0  0  0  0  0  0  0  0  0  0  0  0
   53.0834   83.3420   19.9609 N   0  0  0  0  0  0  0  0  0  0  0  0
   53.8781   84.5011   19.8073 C   0  0  0  0  0  0  0  0  0  0  0  0
   54.4134   84.8126   18.6921 O   0  0  0  0  0  0  0  0  0  0  0  0
   53.9413   85.1920   21.0838 C   0  0  0  0  0  0  0  0  0  0  0  0
   55.2932   85.3919   21.5686 N   0  0  0  0  0  0  0  0  0  0  0  0
   55.7228   86.6661   21.0218 C   0  0  0  0  0  0  0  0  0  0  0  0
   54.4901   87.5079   21.1865 C   0  0  0  0  0  0  0  0  0  0  0  0
   53.3518   86.5789   20.9343 C   0  0  0  0  0  0  0  0  0  0  0  0
   52.8973   86.8656   19.5646 C   0  0  0  0  0  0  0  0  0  0  0  0
   52.1522   86.1614   18.8072 O   0  0  0  0  0  0  0  0  0  0  0  0
   53.4236   88.1171   19.1417 N   0  0  0  0  0  0  0  0  0  0  0  0
   54.3521   88.5281   20.1249 C   0  0  0  0  0  0  0  0  0  0  0  0
   55.0017   89.6175   20.1353 O   0  0  0  0  0  0  0  0  0  0  0  0
   52.8267   82.6134   19.2467 H   0  0  0  0  0  0  0  0  0  0  0  0
   55.9281   84.6111   21.3230 H   0  0  0  0  0  0  0  0  0  0  0  0
   56.8945   87.1687   21.8048 C   0  0  0  0  0  0  0  0  0  0  0  0
   57.8268   86.1275   21.8952 O   0  0  0  0  0  0  0  0  0  0  0  0
   56.4716   87.5104   23.2123 C   0  0  0  0  0  0  0  0  0  0  0  0
   58.1917   86.0581   22.8145 H   0  0  0  0  0  0  0  0  0  0  0  0
   53.0788   88.8413   17.9340 C   0  0  0  0  0  0  0  0  0  0  0  0
   51.8417   89.6642   18.0951 C   0  0  0  0  0  0  0  0  0  0  0  0
   52.2596   91.1300   17.9233 C   0  0  0  0  0  0  0  0  0  0  0  0
   51.1141   92.0453   18.2577 C   0  0  0  0  0  0  0  0  0  0  0  0
  1  2  1  0  0  0
  2  3  2  0  0  0
  2  7  1  0  0  0
  3  4  1  0  0  0
  4  5  2  0  0  0
  4 11  1  0  0  0
  5  6  1  0  0  0
  5  8  1  0  0  0
  6  7  2  0  0  0
  8  9  1  0  0  0
  9 10  2  0  0  0
  9 11  1  0  0  0
 11 12  1  0  0  0
 11 15  1  0  0  0
 12 13  1  0  0  0
 13 14  1  0  0  0
 13 23  1  0  0  0
 14 15  1  0  0  0
 14 19  1  0  0  0
 15 16  1  0  0  0
 16 17  2  0  0  0
 16 18  1  0  0  0
 18 19  1  0  0  0
 18 27  1  0  0  0
 19 20  2  0  0  0
 27 28  1  0  0  0
 28 29  1  0  0  0
 29 30  1  0  0  0
 23 24  1  0  0  0
 23 25  1  0  0  0
  8 21  1  0  0  0
 12 22  1  0  0  0
 24 26  1  0  0  0
M  END
> <minimizedAffinity>
-7.54287

$$$$
571


 34 38  0  0  0  0  0  0  0  0999 V2000
   52.9000   79.4809   27.3562 Br  0  0  0  0  0  0  0  0  0  0  0  0
   51.3734   80.6227   27.4615 C   0  0  0  0  0  0  0  0  0  0  0  0
   51.3889   81.8212   28.1396 C   0  0  0  0  0  0  0  0  0  0  0  0
   50.2621   82.6536   28.2195 C   0  0  0  0  0  0  0  0  0  0  0  0
   49.1195   82.2289   27.5866 C   0  0  0  0  0  0  0  0  0  0  0  0
   49.0967   81.0229   26.9005 C   0  0  0  0  0  0  0  0  0  0  0  0
   50.2089   80.2136   26.8298 C   0  0  0  0  0  0  0  0  0  0  0  0
   48.0673   83.1574   27.7640 N   0  0  0  0  0  0  0  0  0  0  0  0
   48.5668   84.2189   28.5466 C   0  0  0  0  0  0  0  0  0  0  0  0
   47.8581   85.2102   28.8791 O   0  0  0  0  0  0  0  0  0  0  0  0
   49.9823   83.9369   28.8642 C   0  0  0  0  0  0  0  0  0  0  0  0
   50.1728   83.8467   30.3151 N   0  0  0  0  0  0  0  0  0  0  0  0
   51.5066   84.3463   30.5630 C   0  0  0  0  0  0  0  0  0  0  0  0
   51.8636   85.2706   29.4666 C   0  0  0  0  0  0  0  0  0  0  0  0
   50.7847   85.0991   28.4129 C   0  0  0  0  0  0  0  0  0  0  0  0
   51.4920   84.9894   27.1427 C   0  0  0  0  0  0  0  0  0  0  0  0
   50.9853   84.7124   26.0272 O   0  0  0  0  0  0  0  0  0  0  0  0
   52.8996   85.2478   27.3335 N   0  0  0  0  0  0  0  0  0  0  0  0
   53.1087   84.9677   28.7335 C   0  0  0  0  0  0  0  0  0  0  0  0
   54.1683   84.5441   29.2190 O   0  0  0  0  0  0  0  0  0  0  0  0
   47.0871   83.0684   27.3781 H   0  0  0  0  0  0  0  0  0  0  0  0
   50.0645   82.8637   30.6545 H   0  0  0  0  0  0  0  0  0  0  0  0
   51.5849   84.9688   31.9370 C   0  0  0  0  0  0  0  0  0  0  0  0
   52.2400   86.1833   31.8680 O   0  0  0  0  0  0  0  0  0  0  0  0
   50.2314   85.0786   32.5960 C   0  0  0  0  0  0  0  0  0  0  0  0
   52.2413   86.6574   32.7210 H   0  0  0  0  0  0  0  0  0  0  0  0
   53.8720   85.7051   26.3930 C   0  0  0  0  0  0  0  0  0  0  0  0
   54.6409   84.6398   25.6671 C   0  0  0  0  0  0  0  0  0  0  0  0
   53.8525   83.8483   24.7069 C   0  0  0  0  0  0  0  0  0  0  0  0
   53.5460   82.5259   25.0035 C   0  0  0  0  0  0  0  0  0  0  0  0
   52.7998   81.7953   24.1410 C   0  0  0  0  0  0  0  0  0  0  0  0
   52.3211   82.3042   22.9683 C   0  0  0  0  0  0  0  0  0  0  0  0
   52.6322   83.6248   22.6825 C   0  0  0  0  0  0  0  0  0  0  0  0
   53.3835   84.3813   23.5352 C   0  0  0  0  0  0  0  0  0  0  0  0
  1  2  1  0  0  0
  2  3  2  0  0  0
  2  7  1  0  0  0
  3  4  1  0  0  0
  4  5  2  0  0  0
  4 11  1  0  0  0
  5  6  1  0  0  0
  5  8  1  0  0  0
  6  7  2  0  0  0
  8  9  1  0  0  0
  9 10  2  0  0  0
  9 11  1  0  0  0
 11 12  1  0  0  0
 11 15  1  0  0  0
 12 13  1  0  0  0
 13 14  1  0  0  0
 13 23  1  0  0  0
 14 15  1  0  0  0
 14 19  1  0  0  0
 15 16  1  0  0  0
 16 17  2  0  0  0
 16 18  1  0  0  0
 18 19  1  0  0  0
 18 27  1  0  0  0
 19 20  2  0  0  0
 27 28  1  0  0  0
 28 29  1  0  0  0
 29 30  2  0  0  0
 29 34  1  0  0  0
 30 31  1  0  0  0
 31 32  2  0  0  0
 32 33  1  0  0  0
 33 34  2  0  0  0
 23 24  1  0  0  0
 23 25  1  0  0  0
  8 21  1  0  0  0
 12 22  1  0  0  0
 24 26  1  0  0  0
M  END
> <minimizedAffinity>
-7.40463

$$$$
578


 27 30  0  0  0  0  0  0  0  0999 V2000
   52.9365   82.4700   20.6020 Br  0  0  0  0  0  0  0  0  0  0  0  0
   53.4729   84.2848   20.8591 C   0  0  0  0  0  0  0  0  0  0  0  0
   54.2049   84.6847   21.9487 C   0  0  0  0  0  0  0  0  0  0  0  0
   54.6169   86.0106   22.1710 C   0  0  0  0  0  0  0  0  0  0  0  0
   54.2546   86.9298   21.2326 C   0  0  0  0  0  0  0  0  0  0  0  0
   53.5029   86.5382   20.1087 C   0  0  0  0  0  0  0  0  0  0  0  0
   53.1148   85.2324   19.9204 C   0  0  0  0  0  0  0  0  0  0  0  0
   54.7428   88.2195   21.5753 N   0  0  0  0  0  0  0  0  0  0  0  0
   55.4451   88.0914   22.7897 C   0  0  0  0  0  0  0  0  0  0  0  0
   56.0435   89.0438   23.4119 O   0  0  0  0  0  0  0  0  0  0  0  0
   55.3696   86.6806   23.2105 C   0  0  0  0  0  0  0  0  0  0  0  0
   56.7757   86.2392   23.1878 N   0  0  0  0  0  0  0  0  0  0  0  0
   57.2720   86.2334   24.5286 C   0  0  0  0  0  0  0  0  0  0  0  0
   56.0724   85.9839   25.3661 C   0  0  0  0  0  0  0  0  0  0  0  0
   54.8870   86.5106   24.6035 C   0  0  0  0  0  0  0  0  0  0  0  0
   53.8537   85.5331   24.8586 C   0  0  0  0  0  0  0  0  0  0  0  0
   52.6193   85.7041   24.6342 O   0  0  0  0  0  0  0  0  0  0  0  0
   54.4458   84.3599   25.3985 N   0  0  0  0  0  0  0  0  0  0  0  0
   55.8582   84.5040   25.4383 C   0  0  0  0  0  0  0  0  0  0  0  0
   56.6733   83.5636   25.5167 O   0  0  0  0  0  0  0  0  0  0  0  0
   58.0292   87.4781   24.9284 C   0  0  0  0  0  0  0  0  0  0  0  0
   54.6137   89.1231   21.0322 H   0  0  0  0  0  0  0  0  0  0  0  0
   56.8642   85.3039   22.7329 H   0  0  0  0  0  0  0  0  0  0  0  0
   53.6646   83.2085   25.8299 C   0  0  0  0  0  0  0  0  0  0  0  0
   53.4160   82.2463   24.7081 C   0  0  0  0  0  0  0  0  0  0  0  0
   51.9851   82.2360   24.2417 C   0  0  0  0  0  0  0  0  0  0  0  0
   51.1268   82.5650   25.4683 C   0  0  0  0  0  0  0  0  0  0  0  0
  1  2  1  0  0  0
  2  3  2  0  0  0
  2  7  1  0  0  0
  3  4  1  0  0  0
  4  5  2  0  0  0
  4 11  1  0  0  0
  5  6  1  0  0  0
  5  8  1  0  0  0
  6  7  2  0  0  0
  8  9  1  0  0  0
  9 10  2  0  0  0
  9 11  1  0  0  0
 11 12  1  0  0  0
 11 15  1  0  0  0
 12 13  1  0  0  0
 13 14  1  0  0  0
 13 21  1  0  0  0
 14 15  1  0  0  0
 14 19  1  0  0  0
 15 16  1  0  0  0
 16 17  2  0  0  0
 16 18  1  0  0  0
 18 19  1  0  0  0
 18 24  1  0  0  0
 19 20  2  0  0  0
 24 25  1  0  0  0
 25 26  1  0  0  0
 26 27  1  0  0  0
  8 22  1  0  0  0
 12 23  1  0  0  0
M  END
> <minimizedAffinity>
-6.33329

$$$$
579


 32 35  0  0  0  0  0  0  0  0999 V2000
   53.6009   85.0022   19.7944 Br  0  0  0  0  0  0  0  0  0  0  0  0
   53.9710   85.4463   21.6119 C   0  0  0  0  0  0  0  0  0  0  0  0
   53.4957   84.7090   22.6735 C   0  0  0  0  0  0  0  0  0  0  0  0
   53.7704   85.0386   24.0003 C   0  0  0  0  0  0  0  0  0  0  0  0
   54.5431   86.1404   24.2701 C   0  0  0  0  0  0  0  0  0  0  0  0
   55.0354   86.9025   23.2227 C   0  0  0  0  0  0  0  0  0  0  0  0
   54.7448   86.5486   21.8998 C   0  0  0  0  0  0  0  0  0  0  0  0
   54.7052   86.2931   25.6834 N   0  0  0  0  0  0  0  0  0  0  0  0
   54.0037   85.2422   26.3259 C   0  0  0  0  0  0  0  0  0  0  0  0
   53.9681   85.0997   27.5635 O   0  0  0  0  0  0  0  0  0  0  0  0
   53.3791   84.4219   25.3005 C   0  0  0  0  0  0  0  0  0  0  0  0
   53.9406   83.0769   25.4207 N   0  0  0  0  0  0  0  0  0  0  0  0
   52.8537   82.1792   25.1664 C   0  0  0  0  0  0  0  0  0  0  0  0
   51.6834   82.8514   25.7861 C   0  0  0  0  0  0  0  0  0  0  0  0
   51.8878   84.2963   25.3943 C   0  0  0  0  0  0  0  0  0  0  0  0
   51.2507   85.0603   26.4580 C   0  0  0  0  0  0  0  0  0  0  0  0
   50.9125   86.2618   26.3963 O   0  0  0  0  0  0  0  0  0  0  0  0
   51.0849   84.1960   27.5754 N   0  0  0  0  0  0  0  0  0  0  0  0
   51.7100   82.9272   27.2676 C   0  0  0  0  0  0  0  0  0  0  0  0
   52.1341   82.1587   28.1457 O   0  0  0  0  0  0  0  0  0  0  0  0
   55.2595   87.0698   26.1403 H   0  0  0  0  0  0  0  0  0  0  0  0
   54.2742   82.9080   26.3995 H   0  0  0  0  0  0  0  0  0  0  0  0
   50.4038   84.5580   28.7846 C   0  0  0  0  0  0  0  0  0  0  0  0
   48.9141   84.5788   28.6981 C   0  0  0  0  0  0  0  0  0  0  0  0
   48.3633   85.8091   29.0170 O   0  0  0  0  0  0  0  0  0  0  0  0
   49.3439   86.7430   29.3430 C   0  0  0  0  0  0  0  0  0  0  0  0
   53.1064   80.7831   25.6222 C   0  0  0  0  0  0  0  0  0  0  0  0
   54.4629   80.6755   26.1705 C   0  0  0  0  0  0  0  0  0  0  0  0
   55.4331   80.4390   25.3961 O   0  0  0  0  0  0  0  0  0  0  0  0
   54.7028   80.8352   27.5674 N   0  0  0  0  0  0  0  0  0  0  0  0
   55.6112   81.2141   27.9037 H   0  0  0  0  0  0  0  0  0  0  0  0
   53.9615   80.5697   28.2476 H   0  0  0  0  0  0  0  0  0  0  0  0
  1  2  1  0  0  0
  2  3  2  0  0  0
  2  7  1  0  0  0
  3  4  1  0  0  0
  4  5  2  0  0  0
  4 11  1  0  0  0
  5  6  1  0  0  0
  5  8  1  0  0  0
  6  7  2  0  0  0
  8  9  1  0  0  0
  9 10  2  0  0  0
  9 11  1  0  0  0
 11 12  1  0  0  0
 11 15  1  0  0  0
 12 13  1  0  0  0
 13 14  1  0  0  0
 13 27  1  0  0  0
 14 15  1  0  0  0
 14 19  1  0  0  0
 15 16  1  0  0  0
 16 17  2  0  0  0
 16 18  1  0  0  0
 18 19  1  0  0  0
 18 23  1  0  0  0
 19 20  2  0  0  0
 23 24  1  0  0  0
 24 25  1  0  0  0
 25 26  1  0  0  0
 27 28  1  0  0  0
 28 29  2  0  0  0
 28 30  1  0  0  0
  8 21  1  0  0  0
 12 22  1  0  0  0
 30 31  1  0  0  0
 30 32  1  0  0  0
M  END
> <minimizedAffinity>
-6.86569

$$$$
588


 24 27  0  0  0  0  0  0  0  0999 V2000
   55.2008   98.2430   26.8123 Br  0  0  0  0  0  0  0  0  0  0  0  0
   53.3593   98.2136   27.3013 C   0  0  0  0  0  0  0  0  0  0  0  0
   52.6468   99.3740   27.2127 C   0  0  0  0  0  0  0  0  0  0  0  0
   51.3070   99.3817   27.5621 C   0  0  0  0  0  0  0  0  0  0  0  0
   50.6900   98.2162   28.0000 C   0  0  0  0  0  0  0  0  0  0  0  0
   51.3970   97.0349   28.0948 C   0  0  0  0  0  0  0  0  0  0  0  0
   52.7260   97.0750   27.7376 C   0  0  0  0  0  0  0  0  0  0  0  0
   49.3335   98.1039   28.3812 N   0  0  0  0  0  0  0  0  0  0  0  0
   48.7056   96.9224   28.3581 N   0  0  0  0  0  0  0  0  0  0  0  0
   47.4860   97.1565   28.7603 N   0  0  0  0  0  0  0  0  0  0  0  0
   47.3281   98.4414   29.0345 N   0  0  0  0  0  0  0  0  0  0  0  0
   48.5194   99.0610   28.7919 C   0  0  0  0  0  0  0  0  0  0  0  0
   48.6979  100.5395   29.0016 C   0  0  0  0  0  0  0  0  0  0  0  0
   49.4696  101.1268   27.9094 N   0  0  0  0  0  0  0  0  0  0  0  0
   50.7325  100.7220   27.3939 C   0  0  0  0  0  0  0  0  0  0  0  0
   51.4093  101.5693   26.7470 O   0  0  0  0  0  0  0  0  0  0  0  0
   49.5429  100.6853   30.2381 C   0  0  0  0  0  0  0  0  0  0  0  0
   49.3697  102.0545   30.8094 C   0  0  0  0  0  0  0  0  0  0  0  0
   48.0575  102.1756   31.1836 O   0  0  0  0  0  0  0  0  0  0  0  0
   47.1471  102.1615   30.1618 C   0  0  0  0  0  0  0  0  0  0  0  0
   47.3657  101.1897   29.0835 C   0  0  0  0  0  0  0  0  0  0  0  0
   50.2087  102.1793   32.0874 C   0  0  0  0  0  0  0  0  0  0  0  0
   49.8367  103.1517   29.8909 C   0  0  0  0  0  0  0  0  0  0  0  0
   49.0473  101.9734   27.4207 H   0  0  0  0  0  0  0  0  0  0  0  0
  1  2  1  0  0  0
  2  3  2  0  0  0
  2  7  1  0  0  0
  3  4  1  0  0  0
  4  5  2  0  0  0
  4 15  1  0  0  0
  5  6  1  0  0  0
  5  8  1  0  0  0
  6  7  2  0  0  0
  8  9  1  0  0  0
  8 12  1  0  0  0
  9 10  2  0  0  0
 10 11  1  0  0  0
 11 12  2  0  0  0
 12 13  1  0  0  0
 13 14  1  0  0  0
 13 17  1  0  0  0
 13 21  1  0  0  0
 14 15  1  0  0  0
 15 16  2  0  0  0
 17 18  1  0  0  0
 18 19  1  0  0  0
 18 22  1  0  0  0
 18 23  1  0  0  0
 19 20  1  0  0  0
 20 21  1  0  0  0
 14 24  1  0  0  0
M  END
> <minimizedAffinity>
-9.23681

$$$$
591


 23 26  0  0  0  0  0  0  0  0999 V2000
   53.7510   91.9951   17.4585 Br  0  0  0  0  0  0  0  0  0  0  0  0
   53.8735   90.4146   18.5419 C   0  0  0  0  0  0  0  0  0  0  0  0
   53.0032   89.3639   18.3445 C   0  0  0  0  0  0  0  0  0  0  0  0
   53.0959   88.2305   19.1252 C   0  0  0  0  0  0  0  0  0  0  0  0
   54.0397   88.0850   20.1241 C   0  0  0  0  0  0  0  0  0  0  0  0
   54.9099   89.1563   20.3104 C   0  0  0  0  0  0  0  0  0  0  0  0
   54.8242   90.2922   19.5329 C   0  0  0  0  0  0  0  0  0  0  0  0
   54.2678   87.0074   21.0024 N   0  0  0  0  0  0  0  0  0  0  0  0
   55.0292   87.0933   22.0811 N   0  0  0  0  0  0  0  0  0  0  0  0
   55.0272   85.9083   22.6711 N   0  0  0  0  0  0  0  0  0  0  0  0
   54.2751   85.0928   21.9715 N   0  0  0  0  0  0  0  0  0  0  0  0
   53.7735   85.7565   20.9004 C   0  0  0  0  0  0  0  0  0  0  0  0
   52.8962   85.0766   19.9456 C   0  0  0  0  0  0  0  0  0  0  0  0
   51.9515   85.8863   19.2571 N   0  0  0  0  0  0  0  0  0  0  0  0
   52.0976   87.2153   18.7832 C   0  0  0  0  0  0  0  0  0  0  0  0
   51.2711   87.6467   17.9353 O   0  0  0  0  0  0  0  0  0  0  0  0
   53.7035   84.3401   18.8653 C   0  0  0  0  0  0  0  0  0  0  0  0
   52.9558   83.0921   18.4695 C   0  0  0  0  0  0  0  0  0  0  0  0
   53.1735   82.1086   19.5062 N   0  0  0  0  0  0  0  0  0  0  0  0
   52.9335   82.7163   20.7882 C   0  0  0  0  0  0  0  0  0  0  0  0
   52.1339   83.9929   20.6997 C   0  0  0  0  0  0  0  0  0  0  0  0
   54.5506   81.6331   19.3822 C   0  0  0  0  0  0  0  0  0  0  0  0
   51.0291   85.4395   19.0776 H   0  0  0  0  0  0  0  0  0  0  0  0
  1  2  1  0  0  0
  2  3  2  0  0  0
  2  7  1  0  0  0
  3  4  1  0  0  0
  4  5  2  0  0  0
  4 15  1  0  0  0
  5  6  1  0  0  0
  5  8  1  0  0  0
  6  7  2  0  0  0
  8  9  1  0  0  0
  8 12  1  0  0  0
  9 10  2  0  0  0
 10 11  1  0  0  0
 11 12  2  0  0  0
 12 13  1  0  0  0
 13 14  1  0  0  0
 13 17  1  0  0  0
 13 21  1  0  0  0
 14 15  1  0  0  0
 15 16  2  0  0  0
 17 18  1  0  0  0
 18 19  1  0  0  0
 19 20  1  0  0  0
 19 22  1  0  0  0
 20 21  1  0  0  0
 14 23  1  0  0  0
M  END
> <minimizedAffinity>
-9.30615

$$$$
592


 27 30  0  0  0  0  0  0  0  0999 V2000
   53.9795   80.9383   33.2671 Br  0  0  0  0  0  0  0  0  0  0  0  0
   53.4604   81.8576   31.6883 C   0  0  0  0  0  0  0  0  0  0  0  0
   52.4399   82.7650   31.7561 C   0  0  0  0  0  0  0  0  0  0  0  0
   52.0580   83.4410   30.5927 C   0  0  0  0  0  0  0  0  0  0  0  0
   52.7125   83.1755   29.4357 C   0  0  0  0  0  0  0  0  0  0  0  0
   53.7647   82.2388   29.3698 C   0  0  0  0  0  0  0  0  0  0  0  0
   54.1364   81.5761   30.5145 C   0  0  0  0  0  0  0  0  0  0  0  0
   52.3731   83.8179   28.2587 O   0  0  0  0  0  0  0  0  0  0  0  0
   51.3494   84.7402   28.2825 C   0  0  0  0  0  0  0  0  0  0  0  0
   50.6721   85.0490   29.3624 C   0  0  0  0  0  0  0  0  0  0  0  0
   50.9571   84.4256   30.6476 C   0  0  0  0  0  0  0  0  0  0  0  0
   49.7497   83.8525   31.2895 C   0  0  0  0  0  0  0  0  0  0  0  0
   49.5201   84.5218   32.4594 C   0  0  0  0  0  0  0  0  0  0  0  0
   48.4073   83.9918   33.0477 N   0  0  0  0  0  0  0  0  0  0  0  0
   47.9835   83.0297   32.2476 N   0  0  0  0  0  0  0  0  0  0  0  0
   48.7675   82.9098   31.1686 C   0  0  0  0  0  0  0  0  0  0  0  0
   48.5510   81.9115   30.0779 C   0  0  0  0  0  0  0  0  0  0  0  0
   50.4907   85.5242   32.6721 N   0  0  0  0  0  0  0  0  0  0  0  0
   51.3793   85.4886   31.5851 C   0  0  0  0  0  0  0  0  0  0  0  0
   52.3848   86.2252   31.4008 O   0  0  0  0  0  0  0  0  0  0  0  0
   51.0083   85.3986   27.0516 N   0  0  0  0  0  0  0  0  0  0  0  0
   47.1279   82.4582   32.4793 H   0  0  0  0  0  0  0  0  0  0  0  0
   50.5226   86.1818   33.5205 H   0  0  0  0  0  0  0  0  0  0  0  0
   51.2201   84.9320   26.1433 H   0  0  0  0  0  0  0  0  0  0  0  0
   50.5512   86.3376   27.0277 H   0  0  0  0  0  0  0  0  0  0  0  0
   49.6120   86.0271   29.3073 C   0  0  0  0  0  0  0  0  0  0  0  0
   48.7612   86.8101   29.2432 N   0  0  0  0  0  0  0  0  0  0  0  0
  1  2  1  0  0  0
  2  3  2  0  0  0
  2  7  1  0  0  0
  3  4  1  0  0  0
  4  5  2  0  0  0
  4 11  1  0  0  0
  5  6  1  0  0  0
  5  8  1  0  0  0
  6  7  2  0  0  0
  8  9  1  0  0  0
  9 10  2  0  0  0
  9 21  1  0  0  0
 10 11  1  0  0  0
 10 26  1  0  0  0
 11 12  1  0  0  0
 11 19  1  0  0  0
 12 13  1  0  0  0
 12 16  2  0  0  0
 13 14  2  0  0  0
 13 18  1  0  0  0
 14 15  1  0  0  0
 15 16  1  0  0  0
 16 17  1  0  0  0
 18 19  1  0  0  0
 19 20  2  0  0  0
 26 27  3  0  0  0
 15 22  1  0  0  0
 18 23  1  0  0  0
 21 24  1  0  0  0
 21 25  1  0  0  0
M  END
> <minimizedAffinity>
-7.02933

$$$$
596


 29 32  0  0  0  0  0  0  0  0999 V2000
   50.1023   99.1254   28.7960 C   0  0  0  0  0  0  0  0  0  0  0  0
   49.0608   98.2407   28.5667 C   0  0  0  0  0  0  0  0  0  0  0  0
   49.3028   97.0159   27.9816 C   0  0  0  0  0  0  0  0  0  0  0  0
   48.2962   96.2602   27.8016 O   0  0  0  0  0  0  0  0  0  0  0  0
   50.5055   96.6694   27.6390 O   0  0  0  0  0  0  0  0  0  0  0  0
   51.5094   97.4373   27.8236 C   0  0  0  0  0  0  0  0  0  0  0  0
   51.3528   98.7060   28.4140 C   0  0  0  0  0  0  0  0  0  0  0  0
   52.4454   99.4994   28.6099 C   0  0  0  0  0  0  0  0  0  0  0  0
   53.6911   99.0091   28.2031 C   0  0  0  0  0  0  0  0  0  0  0  0
   53.8107   97.7618   27.6233 C   0  0  0  0  0  0  0  0  0  0  0  0
   52.7303   96.9345   27.4135 C   0  0  0  0  0  0  0  0  0  0  0  0
   55.1117   97.3654   27.2446 O   0  0  0  0  0  0  0  0  0  0  0  0
   49.7985  103.8669   34.9213 Br  0  0  0  0  0  0  0  0  0  0  0  0
   49.6627  103.5116   33.0653 C   0  0  0  0  0  0  0  0  0  0  0  0
   49.8669  102.2423   32.5556 C   0  0  0  0  0  0  0  0  0  0  0  0
   49.7669  101.9346   31.2111 C   0  0  0  0  0  0  0  0  0  0  0  0
   49.4444  102.9578   30.3431 C   0  0  0  0  0  0  0  0  0  0  0  0
   49.2288  104.2511   30.7952 C   0  0  0  0  0  0  0  0  0  0  0  0
   49.3396  104.5150   32.1405 C   0  0  0  0  0  0  0  0  0  0  0  0
   49.3419  102.6884   29.0401 O   0  0  0  0  0  0  0  0  0  0  0  0
   49.5294  101.5158   28.5459 C   0  0  0  0  0  0  0  0  0  0  0  0
   49.4316  101.2506   27.3074 O   0  0  0  0  0  0  0  0  0  0  0  0
   49.8551  100.4516   29.3595 C   0  0  0  0  0  0  0  0  0  0  0  0
   49.9752  100.6730   30.7127 C   0  0  0  0  0  0  0  0  0  0  0  0
   52.9206   95.6928   26.7135 C   0  0  0  0  0  0  0  0  0  0  0  0
   54.1459   95.2746   26.1658 N   0  0  0  0  0  0  0  0  0  0  0  0
   54.8142   94.1701   26.7965 C   0  0  0  0  0  0  0  0  0  0  0  0
   54.0853   95.1362   24.6881 C   0  0  0  0  0  0  0  0  0  0  0  0
   54.8296   96.0758   26.2946 H   0  0  0  0  0  0  0  0  0  0  0  0
 13 14  1  0  0  0
 14 15  2  0  0  0
 14 19  1  0  0  0
 15 16  1  0  0  0
 16 17  2  0  0  0
 16 24  1  0  0  0
 17 18  1  0  0  0
 17 20  1  0  0  0
 18 19  2  0  0  0
 20 21  1  0  0  0
 21 22  2  0  0  0
 21 23  1  0  0  0
 23 24  2  0  0  0
 23  1  1  0  0  0
  1  2  2  0  0  0
  1  7  1  0  0  0
  2  3  1  0  0  0
  3  4  2  0  0  0
  3  5  1  0  0  0
  5  6  1  0  0  0
  6  7  2  0  0  0
  6 11  1  0  0  0
  7  8  1  0  0  0
  8  9  2  0  0  0
  9 10  1  0  0  0
 10 11  2  0  0  0
 10 12  1  0  0  0
 11 25  1  0  0  0
 25 26  1  0  0  0
 26 27  1  0  0  0
 26 28  1  0  0  0
 26 29  1  0  0  0
M  CHG 1  12  -1
M  CHG 1  26   1
M  END
> <minimizedAffinity>
-9.05044

$$$$
610


 32 35  0  0  0  0  0  0  0  0999 V2000
   54.8528   91.0748   20.1552 Br  0  0  0  0  0  0  0  0  0  0  0  0
   54.2227   89.2772   20.0427 C   0  0  0  0  0  0  0  0  0  0  0  0
   54.7345   88.2910   20.8814 C   0  0  0  0  0  0  0  0  0  0  0  0
   54.2762   86.9831   20.8009 C   0  0  0  0  0  0  0  0  0  0  0  0
   53.3041   86.6492   19.8827 C   0  0  0  0  0  0  0  0  0  0  0  0
   52.8521   85.3720   19.8053 N   0  0  0  0  0  0  0  0  0  0  0  0
   53.3275   84.4024   20.6070 C   0  0  0  0  0  0  0  0  0  0  0  0
   54.2710   84.7452   21.4922 N   0  0  0  0  0  0  0  0  0  0  0  0
   54.7658   85.9897   21.6235 C   0  0  0  0  0  0  0  0  0  0  0  0
   52.8100   87.6504   19.0565 C   0  0  0  0  0  0  0  0  0  0  0  0
   53.2502   88.9545   19.1200 C   0  0  0  0  0  0  0  0  0  0  0  0
   52.8237   83.0652   20.4978 N   0  0  0  0  0  0  0  0  0  0  0  0
   53.9109   82.1251   20.5304 C   0  0  0  0  0  0  0  0  0  0  0  0
   54.7015   82.0521   19.2685 C   0  0  0  0  0  0  0  0  0  0  0  0
   54.0396   82.7046   18.1607 N   0  0  0  0  0  0  0  0  0  0  0  0
   52.6012   82.5683   18.0909 C   0  0  0  0  0  0  0  0  0  0  0  0
   51.9332   82.8845   19.3931 C   0  0  0  0  0  0  0  0  0  0  0  0
   54.8242   83.4240   17.2275 C   0  0  0  0  0  0  0  0  0  0  0  0
   56.0662   83.4985   17.3539 O   0  0  0  0  0  0  0  0  0  0  0  0
   52.2868   82.9127   21.4035 H   0  0  0  0  0  0  0  0  0  0  0  0
   54.0916   84.0761   16.1035 C   0  0  0  0  0  0  0  0  0  0  0  0
   54.4406   83.4544   14.7851 C   0  0  0  0  0  0  0  0  0  0  0  0
   53.6168   82.2803   14.4590 C   0  0  0  0  0  0  0  0  0  0  0  0
   54.1325   81.1844   14.1559 O   0  0  0  0  0  0  0  0  0  0  0  0
   52.2417   82.3896   14.4892 O   0  0  0  0  0  0  0  0  0  0  0  0
   55.7910   86.2576   22.6192 C   0  0  0  0  0  0  0  0  0  0  0  0
   55.4925   86.1807   23.9726 C   0  0  0  0  0  0  0  0  0  0  0  0
   56.4408   86.4146   24.9453 C   0  0  0  0  0  0  0  0  0  0  0  0
   57.7395   86.7366   24.6090 C   0  0  0  0  0  0  0  0  0  0  0  0
   58.0367   86.8129   23.2538 C   0  0  0  0  0  0  0  0  0  0  0  0
   57.0826   86.5783   22.2884 C   0  0  0  0  0  0  0  0  0  0  0  0
   53.8384   85.7711   24.4334 Cl  0  0  0  0  0  0  0  0  0  0  0  0
  1  2  1  0  0  0
  2  3  2  0  0  0
  2 11  1  0  0  0
  3  4  1  0  0  0
  4  5  2  0  0  0
  4  9  1  0  0  0
  5  6  1  0  0  0
  5 10  1  0  0  0
  6  7  2  0  0  0
  7  8  1  0  0  0
  7 12  1  0  0  0
  8  9  2  0  0  0
  9 26  1  0  0  0
 26 27  2  0  0  0
 26 31  1  0  0  0
 27 28  1  0  0  0
 27 32  1  0  0  0
 28 29  2  0  0  0
 29 30  1  0  0  0
 30 31  2  0  0  0
 12 13  1  0  0  0
 12 17  1  0  0  0
 13 14  1  0  0  0
 14 15  1  0  0  0
 15 16  1  0  0  0
 15 18  1  0  0  0
 16 17  1  0  0  0
 18 19  2  0  0  0
 18 21  1  0  0  0
 21 22  1  0  0  0
 22 23  1  0  0  0
 23 24  2  0  0  0
 23 25  1  0  0  0
 10 11  2  0  0  0
 12 20  1  0  0  0
M  CHG 1  12   1
M  END
> <minimizedAffinity>
-8.93046

$$$$
611


 33 36  0  0  0  0  0  0  0  0999 V2000
   55.7559   92.9868   22.4420 Br  0  0  0  0  0  0  0  0  0  0  0  0
   55.3751   91.1408   22.1218 C   0  0  0  0  0  0  0  0  0  0  0  0
   54.8921   90.6911   20.9058 C   0  0  0  0  0  0  0  0  0  0  0  0
   54.6081   89.3685   20.6440 C   0  0  0  0  0  0  0  0  0  0  0  0
   54.8062   88.4180   21.6285 C   0  0  0  0  0  0  0  0  0  0  0  0
   54.5255   87.1120   21.3943 N   0  0  0  0  0  0  0  0  0  0  0  0
   54.0497   86.6775   20.2153 C   0  0  0  0  0  0  0  0  0  0  0  0
   53.8576   87.6008   19.2560 N   0  0  0  0  0  0  0  0  0  0  0  0
   54.1218   88.9159   19.4392 C   0  0  0  0  0  0  0  0  0  0  0  0
   55.2878   88.8559   22.8424 C   0  0  0  0  0  0  0  0  0  0  0  0
   55.5720   90.1915   23.1007 C   0  0  0  0  0  0  0  0  0  0  0  0
   53.7670   85.2986   20.0053 N   0  0  0  0  0  0  0  0  0  0  0  0
   52.6197   85.1301   19.1415 C   0  0  0  0  0  0  0  0  0  0  0  0
   52.6376   83.7379   18.5942 C   0  0  0  0  0  0  0  0  0  0  0  0
   53.5579   82.9427   19.3810 N   0  0  0  0  0  0  0  0  0  0  0  0
   53.4922   83.0846   20.8245 C   0  0  0  0  0  0  0  0  0  0  0  0
   53.5131   84.5664   21.2188 C   0  0  0  0  0  0  0  0  0  0  0  0
   54.4552   82.0863   18.7217 C   0  0  0  0  0  0  0  0  0  0  0  0
   55.2459   81.4104   19.4255 O   0  0  0  0  0  0  0  0  0  0  0  0
   54.6055   84.8798   19.5515 H   0  0  0  0  0  0  0  0  0  0  0  0
   54.4966   81.9612   17.2632 C   0  0  0  0  0  0  0  0  0  0  0  0
   55.3511   83.0500   16.6813 C   0  0  0  0  0  0  0  0  0  0  0  0
   54.7102   83.7155   15.4835 C   0  0  0  0  0  0  0  0  0  0  0  0
   53.9119   82.7847   14.6615 C   0  0  0  0  0  0  0  0  0  0  0  0
   52.6641   82.8920   14.7156 O   0  0  0  0  0  0  0  0  0  0  0  0
   54.5447   81.8384   13.8695 O   0  0  0  0  0  0  0  0  0  0  0  0
   53.8930   89.8728   18.3672 C   0  0  0  0  0  0  0  0  0  0  0  0
   52.7648   90.6778   18.3327 C   0  0  0  0  0  0  0  0  0  0  0  0
   52.5263   91.5772   17.3088 C   0  0  0  0  0  0  0  0  0  0  0  0
   53.4771   91.6559   16.2843 C   0  0  0  0  0  0  0  0  0  0  0  0
   54.6100   90.8694   16.2882 C   0  0  0  0  0  0  0  0  0  0  0  0
   54.8022   89.9994   17.3137 C   0  0  0  0  0  0  0  0  0  0  0  0
   51.5878   90.5586   19.6308 Cl  0  0  0  0  0  0  0  0  0  0  0  0
  1  2  1  0  0  0
  2  3  2  0  0  0
  2 11  1  0  0  0
  3  4  1  0  0  0
  4  5  2  0  0  0
  4  9  1  0  0  0
  5  6  1  0  0  0
  5 10  1  0  0  0
  6  7  2  0  0  0
  7  8  1  0  0  0
  7 12  1  0  0  0
  8  9  2  0  0  0
  9 27  1  0  0  0
 27 28  2  0  0  0
 27 32  1  0  0  0
 28 29  1  0  0  0
 28 33  1  0  0  0
 29 30  2  0  0  0
 30 31  1  0  0  0
 31 32  2  0  0  0
 12 13  1  0  0  0
 12 17  1  0  0  0
 13 14  1  0  0  0
 14 15  1  0  0  0
 15 16  1  0  0  0
 15 18  1  0  0  0
 16 17  1  0  0  0
 18 19  2  0  0  0
 18 21  1  0  0  0
 21 22  1  0  0  0
 22 23  1  0  0  0
 23 24  1  0  0  0
 24 25  2  0  0  0
 24 26  1  0  0  0
 10 11  2  0  0  0
 12 20  1  0  0  0
M  CHG 1  12   1
M  END
> <minimizedAffinity>
-8.68873

$$$$
616


 28 31  0  0  0  0  0  0  0  0999 V2000
   54.7558   86.3846   24.9449 C   0  0  0  0  0  0  0  0  0  0  0  0
   55.6259   87.1910   25.4506 O   0  0  0  0  0  0  0  0  0  0  0  0
   54.7794   86.2634   23.5552 N   0  0  0  0  0  0  0  0  0  0  0  0
   53.9085   85.4466   22.7538 C   0  0  0  0  0  0  0  0  0  0  0  0
   54.1842   85.6065   21.2529 C   0  0  0  0  0  0  0  0  0  0  0  0
   54.2578   87.0264   20.9450 N   0  0  0  0  0  0  0  0  0  0  0  0
   54.9955   87.9260   21.8332 C   0  0  0  0  0  0  0  0  0  0  0  0
   55.7943   87.0234   22.7776 C   0  0  0  0  0  0  0  0  0  0  0  0
   53.6253   87.5608   19.8012 C   0  0  0  0  0  0  0  0  0  0  0  0
   52.9972   86.7603   19.0676 O   0  0  0  0  0  0  0  0  0  0  0  0
   51.5934   81.8276   30.5232 Br  0  0  0  0  0  0  0  0  0  0  0  0
   51.8180   83.0792   29.0867 C   0  0  0  0  0  0  0  0  0  0  0  0
   53.0523   83.3702   28.5657 C   0  0  0  0  0  0  0  0  0  0  0  0
   53.2074   84.2838   27.5195 C   0  0  0  0  0  0  0  0  0  0  0  0
   52.1094   84.9083   26.9949 C   0  0  0  0  0  0  0  0  0  0  0  0
   52.5263   85.7448   25.9945 N   0  0  0  0  0  0  0  0  0  0  0  0
   53.8524   85.6936   25.8438 C   0  0  0  0  0  0  0  0  0  0  0  0
   54.2802   84.7588   26.8201 C   0  0  0  0  0  0  0  0  0  0  0  0
   50.8614   84.6203   27.5140 C   0  0  0  0  0  0  0  0  0  0  0  0
   50.7170   83.7121   28.5531 C   0  0  0  0  0  0  0  0  0  0  0  0
   51.8493   86.3106   25.4622 H   0  0  0  0  0  0  0  0  0  0  0  0
   53.7245   88.9861   19.5298 C   0  0  0  0  0  0  0  0  0  0  0  0
   52.9424   89.4513   18.4060 N   0  0  0  0  0  0  0  0  0  0  0  0
   53.8447   90.0172   17.4007 C   0  0  0  0  0  0  0  0  0  0  0  0
   53.9287   91.4987   17.5281 C   0  0  0  0  0  0  0  0  0  0  0  0
   53.8566   91.8836   18.8647 O   0  0  0  0  0  0  0  0  0  0  0  0
   52.5787   91.6677   19.3856 C   0  0  0  0  0  0  0  0  0  0  0  0
   51.9435   90.4365   18.7813 C   0  0  0  0  0  0  0  0  0  0  0  0
 11 12  1  0  0  0
 12 13  2  0  0  0
 12 20  1  0  0  0
 13 14  1  0  0  0
 14 15  2  0  0  0
 14 18  1  0  0  0
 15 16  1  0  0  0
 15 19  1  0  0  0
 16 17  1  0  0  0
 17 18  2  0  0  0
 17  1  1  0  0  0
  1  2  2  0  0  0
  1  3  1  0  0  0
  3  4  1  0  0  0
  3  8  1  0  0  0
  4  5  1  0  0  0
  5  6  1  0  0  0
  6  7  1  0  0  0
  6  9  1  0  0  0
  7  8  1  0  0  0
  9 10  2  0  0  0
  9 22  1  0  0  0
 22 23  1  0  0  0
 23 24  1  0  0  0
 23 28  1  0  0  0
 24 25  1  0  0  0
 25 26  1  0  0  0
 26 27  1  0  0  0
 27 28  1  0  0  0
 19 20  2  0  0  0
 16 21  1  0  0  0
M  END
> <minimizedAffinity>
-7.79819

$$$$
617


 25 28  0  0  0  0  0  0  0  0999 V2000
   54.3276   91.1825   17.0493 Br  0  0  0  0  0  0  0  0  0  0  0  0
   54.6365   91.0853   18.9237 C   0  0  0  0  0  0  0  0  0  0  0  0
   55.1911   89.9631   19.5036 C   0  0  0  0  0  0  0  0  0  0  0  0
   55.4215   89.8769   20.8615 C   0  0  0  0  0  0  0  0  0  0  0  0
   55.0783   90.9593   21.6494 C   0  0  0  0  0  0  0  0  0  0  0  0
   55.4052   90.6075   22.9059 N   0  0  0  0  0  0  0  0  0  0  0  0
   55.9361   89.3597   22.9402 C   0  0  0  0  0  0  0  0  0  0  0  0
   55.9548   88.8789   21.6483 C   0  0  0  0  0  0  0  0  0  0  0  0
   56.4442   87.6422   21.4312 N   0  0  0  0  0  0  0  0  0  0  0  0
   56.9115   86.8728   22.4327 C   0  0  0  0  0  0  0  0  0  0  0  0
   56.9063   87.3143   23.6975 N   0  0  0  0  0  0  0  0  0  0  0  0
   56.4226   88.5424   23.9353 C   0  0  0  0  0  0  0  0  0  0  0  0
   56.4095   88.9730   25.1156 O   0  0  0  0  0  0  0  0  0  0  0  0
   54.5225   92.0773   21.0557 C   0  0  0  0  0  0  0  0  0  0  0  0
   54.2880   92.1723   19.6988 C   0  0  0  0  0  0  0  0  0  0  0  0
   55.2791   91.1924   23.7526 H   0  0  0  0  0  0  0  0  0  0  0  0
   57.4139   86.4768   24.7980 C   0  0  0  0  0  0  0  0  0  0  0  0
   56.4488   85.4010   25.1170 C   0  0  0  0  0  0  0  0  0  0  0  0
   55.0769   85.7574   25.1379 N   0  0  0  0  0  0  0  0  0  0  0  0
   54.5129   85.9427   26.4299 C   0  0  0  0  0  0  0  0  0  0  0  0
   53.7936   84.7311   26.9500 C   0  0  0  0  0  0  0  0  0  0  0  0
   53.0853   84.0161   25.9101 N   0  0  0  0  0  0  0  0  0  0  0  0
   52.9074   84.8444   24.7293 C   0  0  0  0  0  0  0  0  0  0  0  0
   54.2865   85.0886   24.1674 C   0  0  0  0  0  0  0  0  0  0  0  0
   53.5481   83.1113   25.6647 H   0  0  0  0  0  0  0  0  0  0  0  0
  1  2  1  0  0  0
  2  3  2  0  0  0
  2 15  1  0  0  0
  3  4  1  0  0  0
  4  5  2  0  0  0
  4  8  1  0  0  0
  5  6  1  0  0  0
  5 14  1  0  0  0
  6  7  1  0  0  0
  7  8  2  0  0  0
  7 12  1  0  0  0
  8  9  1  0  0  0
  9 10  2  0  0  0
 10 11  1  0  0  0
 11 12  1  0  0  0
 11 17  1  0  0  0
 12 13  2  0  0  0
 17 18  1  0  0  0
 18 19  1  0  0  0
 19 20  1  0  0  0
 19 24  1  0  0  0
 20 21  1  0  0  0
 21 22  1  0  0  0
 22 23  1  0  0  0
 23 24  1  0  0  0
 14 15  2  0  0  0
  6 16  1  0  0  0
 22 25  1  0  0  0
M  END
> <minimizedAffinity>
-8.11326

$$$$
624


 22 25  0  0  0  0  0  0  0  0999 V2000
   53.4699   92.5274   17.4567 Br  0  0  0  0  0  0  0  0  0  0  0  0
   53.4955   90.8117   18.2830 C   0  0  0  0  0  0  0  0  0  0  0  0
   52.4546   89.9399   18.0415 C   0  0  0  0  0  0  0  0  0  0  0  0
   52.4442   88.6710   18.6345 C   0  0  0  0  0  0  0  0  0  0  0  0
   53.4804   88.3328   19.4437 C   0  0  0  0  0  0  0  0  0  0  0  0
   54.5414   89.1689   19.7146 C   0  0  0  0  0  0  0  0  0  0  0  0
   54.5292   90.4056   19.1234 C   0  0  0  0  0  0  0  0  0  0  0  0
   55.5195   88.6996   20.5503 C   0  0  0  0  0  0  0  0  0  0  0  0
   56.4821   89.4429   20.8022 O   0  0  0  0  0  0  0  0  0  0  0  0
   55.4756   87.4356   21.1193 C   0  0  0  0  0  0  0  0  0  0  0  0
   54.3874   86.6493   20.8079 C   0  0  0  0  0  0  0  0  0  0  0  0
   53.4020   87.1105   19.9726 N   0  0  0  0  0  0  0  0  0  0  0  0
   52.1788   86.5107   19.4884 C   0  0  0  0  0  0  0  0  0  0  0  0
   51.5185   87.5259   18.5956 C   0  0  0  0  0  0  0  0  0  0  0  0
   56.5269   86.9503   22.0070 C   0  0  0  0  0  0  0  0  0  0  0  0
   57.5718   86.4706   21.5106 O   0  0  0  0  0  0  0  0  0  0  0  0
   56.3740   87.0174   23.4315 N   0  0  0  0  0  0  0  0  0  0  0  0
   57.4007   86.5425   24.3341 C   0  0  0  0  0  0  0  0  0  0  0  0
   56.7107   85.5470   25.2754 C   0  0  0  0  0  0  0  0  0  0  0  0
   55.6127   86.1458   25.8447 O   0  0  0  0  0  0  0  0  0  0  0  0
   54.6189   86.4751   24.9471 C   0  0  0  0  0  0  0  0  0  0  0  0
   55.1735   87.5676   24.0289 C   0  0  0  0  0  0  0  0  0  0  0  0
  1  2  1  0  0  0
  2  3  2  0  0  0
  2  7  1  0  0  0
  3  4  1  0  0  0
  4  5  2  0  0  0
  4 14  1  0  0  0
  5  6  1  0  0  0
  5 12  1  0  0  0
  6  7  2  0  0  0
  6  8  1  0  0  0
  8  9  2  0  0  0
  8 10  1  0  0  0
 10 11  2  0  0  0
 10 15  1  0  0  0
 11 12  1  0  0  0
 12 13  1  0  0  0
 13 14  1  0  0  0
 15 16  2  0  0  0
 15 17  1  0  0  0
 17 18  1  0  0  0
 17 22  1  0  0  0
 18 19  1  0  0  0
 19 20  1  0  0  0
 20 21  1  0  0  0
 21 22  1  0  0  0
M  END
> <minimizedAffinity>
-8.63804

$$$$
625


 31 34  0  0  0  0  0  0  0  0999 V2000
   55.4340   91.6696   21.6195 Br  0  0  0  0  0  0  0  0  0  0  0  0
   54.9858   89.8638   21.3202 C   0  0  0  0  0  0  0  0  0  0  0  0
   54.0816   89.5003   20.3356 C   0  0  0  0  0  0  0  0  0  0  0  0
   53.7274   88.2018   20.1101 C   0  0  0  0  0  0  0  0  0  0  0  0
   52.9094   87.6583   19.1593 N   0  0  0  0  0  0  0  0  0  0  0  0
   52.9537   86.3233   19.3131 C   0  0  0  0  0  0  0  0  0  0  0  0
   53.7995   86.0098   20.4112 C   0  0  0  0  0  0  0  0  0  0  0  0
   54.2632   87.2183   20.8643 C   0  0  0  0  0  0  0  0  0  0  0  0
   55.1794   87.5587   21.8629 C   0  0  0  0  0  0  0  0  0  0  0  0
   55.5506   88.8739   22.1018 C   0  0  0  0  0  0  0  0  0  0  0  0
   56.4765   89.2478   23.0923 O   0  0  0  0  0  0  0  0  0  0  0  0
   56.7111   90.2445   23.2059 H   0  0  0  0  0  0  0  0  0  0  0  0
   53.9945   84.7065   21.0601 C   0  0  0  0  0  0  0  0  0  0  0  0
   54.6876   83.8532   20.4437 O   0  0  0  0  0  0  0  0  0  0  0  0
   53.5050   84.3454   22.2709 O   0  0  0  0  0  0  0  0  0  0  0  0
   52.2489   83.9328   22.6740 C   0  0  0  0  0  0  0  0  0  0  0  0
   51.3739   83.3793   21.5562 C   0  0  0  0  0  0  0  0  0  0  0  0
   51.9576   88.4952   18.4032 C   0  0  0  0  0  0  0  0  0  0  0  0
   52.8289   89.5543   17.6902 C   0  0  0  0  0  0  0  0  0  0  0  0
   52.4928   90.8530   17.9406 C   0  0  0  0  0  0  0  0  0  0  0  0
   53.2481   91.8721   17.3368 C   0  0  0  0  0  0  0  0  0  0  0  0
   54.3066   91.6183   16.5168 C   0  0  0  0  0  0  0  0  0  0  0  0
   54.6137   90.2755   16.2949 C   0  0  0  0  0  0  0  0  0  0  0  0
   53.8660   89.2497   16.8865 C   0  0  0  0  0  0  0  0  0  0  0  0
   52.3422   85.2705   18.5025 C   0  0  0  0  0  0  0  0  0  0  0  0
   53.1862   84.3053   17.8696 N   0  0  0  0  0  0  0  0  0  0  0  0
   53.9050   84.3761   16.7229 C   0  0  0  0  0  0  0  0  0  0  0  0
   53.9175   82.9648   16.0870 C   0  0  0  0  0  0  0  0  0  0  0  0
   53.7178   82.1098   17.3360 C   0  0  0  0  0  0  0  0  0  0  0  0
   52.6403   82.9451   18.0138 C   0  0  0  0  0  0  0  0  0  0  0  0
   53.9932   84.2027   18.7242 H   0  0  0  0  0  0  0  0  0  0  0  0
  1  2  1  0  0  0
  2  3  2  0  0  0
  2 10  1  0  0  0
  3  4  1  0  0  0
  4  5  1  0  0  0
  4  8  2  0  0  0
  5  6  1  0  0  0
  5 18  1  0  0  0
  6  7  2  0  0  0
  6 25  1  0  0  0
  7  8  1  0  0  0
  7 13  1  0  0  0
  8  9  1  0  0  0
  9 10  2  0  0  0
 10 11  1  0  0  0
 13 14  2  0  0  0
 13 15  1  0  0  0
 15 16  1  0  0  0
 16 17  1  0  0  0
 25 26  1  0  0  0
 26 27  1  0  0  0
 26 30  1  0  0  0
 27 28  1  0  0  0
 28 29  1  0  0  0
 29 30  1  0  0  0
 18 19  1  0  0  0
 19 20  2  0  0  0
 19 24  1  0  0  0
 20 21  1  0  0  0
 21 22  2  0  0  0
 22 23  1  0  0  0
 23 24  2  0  0  0
 11 12  1  0  0  0
 26 31  1  0  0  0
M  CHG 1  26   1
M  END
> <minimizedAffinity>
-8.86968

$$$$
626


 32 35  0  0  0  0  0  0  0  0999 V2000
   54.1185   97.8969   27.3415 N   0  0  0  0  0  0  0  0  0  0  0  0
   52.9289   97.8777   28.0810 C   0  0  0  0  0  0  0  0  0  0  0  0
   52.1377   96.9056   27.9813 O   0  0  0  0  0  0  0  0  0  0  0  0
   54.7322   98.7523   27.5067 H   0  0  0  0  0  0  0  0  0  0  0  0
   57.0501   98.2648   26.8535 Br  0  0  0  0  0  0  0  0  0  0  0  0
   55.9280   96.9093   26.0899 C   0  0  0  0  0  0  0  0  0  0  0  0
   56.4860   95.9922   25.2288 C   0  0  0  0  0  0  0  0  0  0  0  0
   55.7121   95.0131   24.6556 C   0  0  0  0  0  0  0  0  0  0  0  0
   55.9194   93.9918   23.8030 N   0  0  0  0  0  0  0  0  0  0  0  0
   54.7696   93.3294   23.5756 C   0  0  0  0  0  0  0  0  0  0  0  0
   53.8434   93.9686   24.3114 N   0  0  0  0  0  0  0  0  0  0  0  0
   54.3863   95.0037   24.9846 C   0  0  0  0  0  0  0  0  0  0  0  0
   53.8130   95.9354   25.8619 C   0  0  0  0  0  0  0  0  0  0  0  0
   54.5864   96.9175   26.4379 C   0  0  0  0  0  0  0  0  0  0  0  0
   54.5938   92.2074   22.7419 O   0  0  0  0  0  0  0  0  0  0  0  0
   52.8204   93.7043   24.3636 H   0  0  0  0  0  0  0  0  0  0  0  0
   54.6764   91.2969   23.2133 H   0  0  0  0  0  0  0  0  0  0  0  0
   52.5190   98.9452   28.9998 C   0  0  0  0  0  0  0  0  0  0  0  0
   51.3180   99.6301   28.7312 N   0  0  0  0  0  0  0  0  0  0  0  0
   51.0511  100.0209   27.3945 C   0  0  0  0  0  0  0  0  0  0  0  0
   49.9964  101.1250   27.3152 C   0  0  0  0  0  0  0  0  0  0  0  0
   48.8606  100.6894   28.0088 N   0  0  0  0  0  0  0  0  0  0  0  0
   48.9274   99.4799   28.7315 C   0  0  0  0  0  0  0  0  0  0  0  0
   50.1896   99.2259   29.4996 C   0  0  0  0  0  0  0  0  0  0  0  0
   47.9183  101.6590   28.3423 C   0  0  0  0  0  0  0  0  0  0  0  0
   48.0211  102.3206   29.6434 C   0  0  0  0  0  0  0  0  0  0  0  0
   46.9591  102.2553   30.3766 O   0  0  0  0  0  0  0  0  0  0  0  0
   49.1099  103.0001   30.1781 N   0  0  0  0  0  0  0  0  0  0  0  0
   49.9971  103.0789   29.6408 H   0  0  0  0  0  0  0  0  0  0  0  0
   49.0956  103.6241   31.4979 C   0  0  0  0  0  0  0  0  0  0  0  0
   49.5068  102.8724   32.6942 C   0  0  0  0  0  0  0  0  0  0  0  0
   50.4302  103.9403   32.1385 C   0  0  0  0  0  0  0  0  0  0  0  0
  5  6  1  0  0  0
  6  7  2  0  0  0
  6 14  1  0  0  0
  7  8  1  0  0  0
  8  9  1  0  0  0
  8 12  2  0  0  0
  9 10  2  0  0  0
 10 11  1  0  0  0
 10 15  1  0  0  0
 11 12  1  0  0  0
 12 13  1  0  0  0
 13 14  2  0  0  0
 14  1  1  0  0  0
  1  2  1  0  0  0
  2  3  2  0  0  0
  2 18  1  0  0  0
 18 19  1  0  0  0
 19 20  1  0  0  0
 19 24  1  0  0  0
 20 21  1  0  0  0
 21 22  1  0  0  0
 22 23  1  0  0  0
 22 25  1  0  0  0
 23 24  1  0  0  0
 25 26  1  0  0  0
 26 27  2  0  0  0
 26 28  1  0  0  0
 28 30  1  0  0  0
 30 31  1  0  0  0
 30 32  1  0  0  0
 31 32  1  0  0  0
 11 16  1  0  0  0
  1  4  1  0  0  0
 28 29  1  0  0  0
 15 17  1  0  0  0
M  END
> <minimizedAffinity>
-8.99987

$$$$
631


 29 32  0  0  0  0  0  0  0  0999 V2000
   49.6669   99.3749   28.8230 N   0  0  0  0  0  0  0  0  0  0  0  0
   51.1183   99.4559   28.5475 C   0  0  0  0  0  0  0  0  0  0  0  0
   51.3290   98.3652   27.5095 C   0  0  0  0  0  0  0  0  0  0  0  0
   50.3082   97.3211   27.9096 C   0  0  0  0  0  0  0  0  0  0  0  0
   49.3240   97.9913   28.7979 C   0  0  0  0  0  0  0  0  0  0  0  0
   48.3826   97.4675   29.4089 O   0  0  0  0  0  0  0  0  0  0  0  0
   49.3620  105.1821   32.8466 Br  0  0  0  0  0  0  0  0  0  0  0  0
   49.2425  103.6925   31.6486 C   0  0  0  0  0  0  0  0  0  0  0  0
   48.2042  103.5986   30.7241 C   0  0  0  0  0  0  0  0  0  0  0  0
   48.1868  102.4979   29.8989 C   0  0  0  0  0  0  0  0  0  0  0  0
   47.3518  102.1022   28.9220 N   0  0  0  0  0  0  0  0  0  0  0  0
   47.7716  100.9460   28.4162 N   0  0  0  0  0  0  0  0  0  0  0  0
   48.8900  100.5299   29.0274 C   0  0  0  0  0  0  0  0  0  0  0  0
   49.1529  101.5328   29.9811 C   0  0  0  0  0  0  0  0  0  0  0  0
   50.1759  101.6152   30.8834 C   0  0  0  0  0  0  0  0  0  0  0  0
   50.2142  102.7039   31.7187 C   0  0  0  0  0  0  0  0  0  0  0  0
   47.2716  100.4581   27.6478 H   0  0  0  0  0  0  0  0  0  0  0  0
   52.7297   97.9412   27.6645 C   0  0  0  0  0  0  0  0  0  0  0  0
   53.5620   98.6577   28.2675 O   0  0  0  0  0  0  0  0  0  0  0  0
   53.1157   96.6905   27.1107 N   0  0  0  0  0  0  0  0  0  0  0  0
   52.3953   96.1329   26.6118 H   0  0  0  0  0  0  0  0  0  0  0  0
   54.4695   96.1942   27.2246 C   0  0  0  0  0  0  0  0  0  0  0  0
   55.1527   96.0491   25.8814 C   0  0  0  0  0  0  0  0  0  0  0  0
   56.2496   97.0268   25.7424 C   0  0  0  0  0  0  0  0  0  0  0  0
   57.1353   97.0175   24.7333 N   0  0  0  0  0  0  0  0  0  0  0  0
   58.0017   98.0211   24.8751 C   0  0  0  0  0  0  0  0  0  0  0  0
   57.6667   98.6973   26.0071 N   0  0  0  0  0  0  0  0  0  0  0  0
   56.5988   98.0833   26.5256 C   0  0  0  0  0  0  0  0  0  0  0  0
   58.2003   99.5324   26.3392 H   0  0  0  0  0  0  0  0  0  0  0  0
  7  8  1  0  0  0
  8  9  2  0  0  0
  8 16  1  0  0  0
  9 10  1  0  0  0
 10 11  2  0  0  0
 10 14  1  0  0  0
 11 12  1  0  0  0
 12 13  1  0  0  0
 13 14  2  0  0  0
 13  1  1  0  0  0
 14 15  1  0  0  0
 15 16  2  0  0  0
  1  2  1  0  0  0
  1  5  1  0  0  0
  2  3  1  0  0  0
  3  4  1  0  0  0
  3 18  1  0  0  0
  4  5  1  0  0  0
  5  6  2  0  0  0
 18 19  2  0  0  0
 18 20  1  0  0  0
 20 22  1  0  0  0
 22 23  1  0  0  0
 23 24  1  0  0  0
 24 25  1  0  0  0
 24 28  2  0  0  0
 25 26  2  0  0  0
 26 27  1  0  0  0
 27 28  1  0  0  0
 12 17  1  0  0  0
 20 21  1  0  0  0
 27 29  1  0  0  0
M  END
> <minimizedAffinity>
-9.62673

$$$$
648


 32 35  0  0  0  0  0  0  0  0999 V2000
   54.5345   86.0416   22.3757 C   0  0  0  0  0  0  0  0  0  0  0  0
   53.6457   86.1031   23.2998 O   0  0  0  0  0  0  0  0  0  0  0  0
   55.6996   86.7353   22.5684 N   0  0  0  0  0  0  0  0  0  0  0  0
   56.7957   86.8029   21.6525 C   0  0  0  0  0  0  0  0  0  0  0  0
   56.8353   88.1693   21.0507 C   0  0  0  0  0  0  0  0  0  0  0  0
   56.2547   89.1628   21.9423 N   0  0  0  0  0  0  0  0  0  0  0  0
   56.1345   88.9787   23.3503 C   0  0  0  0  0  0  0  0  0  0  0  0
   55.9342   87.5318   23.7904 C   0  0  0  0  0  0  0  0  0  0  0  0
   55.7563   90.3240   21.2600 C   0  0  0  0  0  0  0  0  0  0  0  0
   55.8021   90.3017   19.9596 O   0  0  0  0  0  0  0  0  0  0  0  0
   53.1728   87.4942   19.6341 Br  0  0  0  0  0  0  0  0  0  0  0  0
   53.6218   85.6654   20.0267 C   0  0  0  0  0  0  0  0  0  0  0  0
   53.4537   84.5809   19.2094 C   0  0  0  0  0  0  0  0  0  0  0  0
   53.8981   83.5115   19.8777 N   0  0  0  0  0  0  0  0  0  0  0  0
   54.3246   83.8905   21.0531 N   0  0  0  0  0  0  0  0  0  0  0  0
   54.1876   85.2371   21.2318 C   0  0  0  0  0  0  0  0  0  0  0  0
   53.8616   82.1737   19.2998 C   0  0  0  0  0  0  0  0  0  0  0  0
   53.7347   82.1861   17.7999 C   0  0  0  0  0  0  0  0  0  0  0  0
   55.2227   91.4772   21.8971 C   0  0  0  0  0  0  0  0  0  0  0  0
   54.2229   92.2601   21.3342 N   0  0  0  0  0  0  0  0  0  0  0  0
   53.9765   93.2726   22.0995 N   0  0  0  0  0  0  0  0  0  0  0  0
   54.7475   93.2597   23.1829 C   0  0  0  0  0  0  0  0  0  0  0  0
   55.5461   92.1060   23.0479 C   0  0  0  0  0  0  0  0  0  0  0  0
   53.5499   91.9913   20.0855 C   0  0  0  0  0  0  0  0  0  0  0  0
   54.7876   94.1832   24.3023 C   0  0  0  0  0  0  0  0  0  0  0  0
   53.6771   94.3879   24.9107 O   0  0  0  0  0  0  0  0  0  0  0  0
   55.9140   94.8515   24.7563 N   0  0  0  0  0  0  0  0  0  0  0  0
   55.7709   95.7314   25.9206 C   0  0  0  0  0  0  0  0  0  0  0  0
   56.3365   97.0707   25.4965 C   0  0  0  0  0  0  0  0  0  0  0  0
   57.7129   96.8499   25.3067 O   0  0  0  0  0  0  0  0  0  0  0  0
   57.9154   96.1151   24.1717 C   0  0  0  0  0  0  0  0  0  0  0  0
   57.2105   94.7650   24.1603 C   0  0  0  0  0  0  0  0  0  0  0  0
 11 12  1  0  0  0
 12 13  2  0  0  0
 12 16  1  0  0  0
 13 14  1  0  0  0
 14 15  1  0  0  0
 14 17  1  0  0  0
 15 16  2  0  0  0
 16  1  1  0  0  0
  1  2  2  0  0  0
  1  3  1  0  0  0
  3  4  1  0  0  0
  3  8  1  0  0  0
  4  5  1  0  0  0
  5  6  1  0  0  0
  6  7  1  0  0  0
  6  9  1  0  0  0
  7  8  1  0  0  0
  9 10  2  0  0  0
  9 19  1  0  0  0
 19 20  1  0  0  0
 19 23  2  0  0  0
 20 21  1  0  0  0
 20 24  1  0  0  0
 21 22  2  0  0  0
 22 23  1  0  0  0
 22 25  1  0  0  0
 25 26  2  0  0  0
 25 27  1  0  0  0
 27 28  1  0  0  0
 27 32  1  0  0  0
 28 29  1  0  0  0
 29 30  1  0  0  0
 30 31  1  0  0  0
 31 32  1  0  0  0
 17 18  1  0  0  0
M  END
> <minimizedAffinity>
-8.62909

$$$$
653


 29 32  0  0  0  0  0  0  0  0999 V2000
   53.8046   87.4838   20.1109 C   0  0  0  0  0  0  0  0  0  0  0  0
   54.8909   87.6846   20.9238 C   0  0  0  0  0  0  0  0  0  0  0  0
   55.3545   88.9577   21.2010 C   0  0  0  0  0  0  0  0  0  0  0  0
   54.7384   90.0675   20.6667 C   0  0  0  0  0  0  0  0  0  0  0  0
   53.6226   89.8760   19.8294 C   0  0  0  0  0  0  0  0  0  0  0  0
   53.1636   88.6147   19.5560 C   0  0  0  0  0  0  0  0  0  0  0  0
   51.9957   88.4292   18.6914 C   0  0  0  0  0  0  0  0  0  0  0  0
   51.6425   89.5301   17.7728 C   0  0  0  0  0  0  0  0  0  0  0  0
   51.9203   90.8574   18.3067 N   0  0  0  0  0  0  0  0  0  0  0  0
   53.0045   91.0420   19.2068 C   0  0  0  0  0  0  0  0  0  0  0  0
   53.4114   92.2185   19.4488 O   0  0  0  0  0  0  0  0  0  0  0  0
   51.0643   91.9323   17.8597 C   0  0  0  0  0  0  0  0  0  0  0  0
   56.4413   88.8059   22.0395 O   0  0  0  0  0  0  0  0  0  0  0  0
   56.5670   87.4671   22.4475 C   0  0  0  0  0  0  0  0  0  0  0  0
   55.6958   86.7328   21.5914 O   0  0  0  0  0  0  0  0  0  0  0  0
   55.1724   91.3557   20.9230 O   0  0  0  0  0  0  0  0  0  0  0  0
   55.1025   91.9068   22.2215 C   0  0  0  0  0  0  0  0  0  0  0  0
   53.3124   86.1342   19.7612 C   0  0  0  0  0  0  0  0  0  0  0  0
   53.1662   84.2500   21.4852 C   0  0  0  0  0  0  0  0  0  0  0  0
   54.1918   83.6208   21.0693 O   0  0  0  0  0  0  0  0  0  0  0  0
   52.7434   85.4177   20.8883 N   0  0  0  0  0  0  0  0  0  0  0  0
   51.8771   85.8980   21.2899 H   0  0  0  0  0  0  0  0  0  0  0  0
   52.4359   83.6730   22.6458 C   0  0  0  0  0  0  0  0  0  0  0  0
   53.7349   84.6891   27.8257 Br  0  0  0  0  0  0  0  0  0  0  0  0
   53.5681   84.7478   25.9246 C   0  0  0  0  0  0  0  0  0  0  0  0
   52.8644   83.8866   25.1146 C   0  0  0  0  0  0  0  0  0  0  0  0
   53.0091   84.2910   23.8569 N   0  0  0  0  0  0  0  0  0  0  0  0
   53.7807   85.3750   23.8716 N   0  0  0  0  0  0  0  0  0  0  0  0
   54.1514   85.6988   25.1194 C   0  0  0  0  0  0  0  0  0  0  0  0
 24 25  1  0  0  0
 25 26  2  0  0  0
 25 29  1  0  0  0
 26 27  1  0  0  0
 27 28  1  0  0  0
 27 23  1  0  0  0
 28 29  2  0  0  0
 23 19  1  0  0  0
 19 20  2  0  0  0
 19 21  1  0  0  0
 21 18  1  0  0  0
 18  1  1  0  0  0
  1  2  2  0  0  0
  1  6  1  0  0  0
  2  3  1  0  0  0
  2 15  1  0  0  0
  3  4  2  0  0  0
  3 13  1  0  0  0
  4  5  1  0  0  0
  4 16  1  0  0  0
  5  6  2  0  0  0
  5 10  1  0  0  0
  6  7  1  0  0  0
  7  8  1  0  0  0
  8  9  1  0  0  0
  9 10  1  0  0  0
  9 12  1  0  0  0
 10 11  2  0  0  0
 16 17  1  0  0  0
 13 14  1  0  0  0
 14 15  1  0  0  0
 21 22  1  0  0  0
M  END
> <minimizedAffinity>
-8.07437

$$$$
662


 25 29  0  0  0  0  0  0  0  0999 V2000
   53.0468   97.5502   27.1887 C   0  0  0  0  0  0  0  0  0  0  0  0
   52.7839   96.2438   27.0255 N   0  0  0  0  0  0  0  0  0  0  0  0
   53.8016   95.6436   26.4085 N   0  0  0  0  0  0  0  0  0  0  0  0
   54.7499   96.5939   26.1675 C   0  0  0  0  0  0  0  0  0  0  0  0
   54.2626   97.7513   26.6548 N   0  0  0  0  0  0  0  0  0  0  0  0
   55.9120   96.2130   25.5307 C   0  0  0  0  0  0  0  0  0  0  0  0
   56.1505   94.9104   25.1298 C   0  0  0  0  0  0  0  0  0  0  0  0
   57.3567   94.8442   24.5412 N   0  0  0  0  0  0  0  0  0  0  0  0
   57.8703   96.0636   24.5664 N   0  0  0  0  0  0  0  0  0  0  0  0
   57.0205   96.9267   25.1612 C   0  0  0  0  0  0  0  0  0  0  0  0
   55.1887   94.0101   25.3880 N   0  0  0  0  0  0  0  0  0  0  0  0
   54.0585   94.3851   26.0091 C   0  0  0  0  0  0  0  0  0  0  0  0
   57.8250   94.0069   24.1338 H   0  0  0  0  0  0  0  0  0  0  0  0
   50.8962  100.2936   28.1589 N   0  0  0  0  0  0  0  0  0  0  0  0
   51.6345   99.6407   27.2785 N   0  0  0  0  0  0  0  0  0  0  0  0
   52.1733   98.5364   27.8228 C   0  0  0  0  0  0  0  0  0  0  0  0
   51.7303   98.5174   29.1284 C   0  0  0  0  0  0  0  0  0  0  0  0
   50.9230   99.6326   29.3287 C   0  0  0  0  0  0  0  0  0  0  0  0
   50.1668  101.5370   27.8965 C   0  0  0  0  0  0  0  0  0  0  0  0
   47.4772  103.2715   32.2335 Br  0  0  0  0  0  0  0  0  0  0  0  0
   47.9516  102.4178   30.6138 C   0  0  0  0  0  0  0  0  0  0  0  0
   49.1729  102.4835   29.9741 C   0  0  0  0  0  0  0  0  0  0  0  0
   49.1029  101.7396   28.8578 N   0  0  0  0  0  0  0  0  0  0  0  0
   47.8918  101.2180   28.7794 N   0  0  0  0  0  0  0  0  0  0  0  0
   47.1497  101.6085   29.8406 C   0  0  0  0  0  0  0  0  0  0  0  0
 20 21  1  0  0  0
 21 22  2  0  0  0
 21 25  1  0  0  0
 22 23  1  0  0  0
 23 24  1  0  0  0
 23 19  1  0  0  0
 24 25  2  0  0  0
 19 14  1  0  0  0
 14 15  1  0  0  0
 14 18  1  0  0  0
 15 16  2  0  0  0
 16 17  1  0  0  0
 16  1  1  0  0  0
 17 18  2  0  0  0
  1  2  2  0  0  0
  1  5  1  0  0  0
  2  3  1  0  0  0
  3  4  1  0  0  0
  3 12  1  0  0  0
  4  5  2  0  0  0
  4  6  1  0  0  0
  6  7  2  0  0  0
  6 10  1  0  0  0
  7  8  1  0  0  0
  7 11  1  0  0  0
  8  9  1  0  0  0
  9 10  2  0  0  0
 11 12  2  0  0  0
  8 13  1  0  0  0
M  END
> <minimizedAffinity>
-8.72799

$$$$
663


 28 31  0  0  0  0  0  0  0  0999 V2000
   54.4043   84.9388   24.9497 C   0  0  0  0  0  0  0  0  0  0  0  0
   55.4561   84.3170   25.3791 O   0  0  0  0  0  0  0  0  0  0  0  0
   53.1995   84.5248   25.4919 N   0  0  0  0  0  0  0  0  0  0  0  0
   51.8566   85.0042   25.3057 C   0  0  0  0  0  0  0  0  0  0  0  0
   51.1773   84.0598   24.3329 C   0  0  0  0  0  0  0  0  0  0  0  0
   51.6171   82.6323   24.5888 C   0  0  0  0  0  0  0  0  0  0  0  0
   50.4558   81.7887   24.4086 N   0  0  0  0  0  0  0  0  0  0  0  0
   50.3455   81.4884   23.0254 C   0  0  0  0  0  0  0  0  0  0  0  0
   49.3171   81.0887   22.3884 O   0  0  0  0  0  0  0  0  0  0  0  0
   51.6410   81.7207   22.4503 N   0  0  0  0  0  0  0  0  0  0  0  0
   52.5111   82.1618   23.5145 C   0  0  0  0  0  0  0  0  0  0  0  0
   53.7593   82.1220   23.4647 O   0  0  0  0  0  0  0  0  0  0  0  0
   52.1538   82.4116   25.9662 C   0  0  0  0  0  0  0  0  0  0  0  0
   53.2358   83.3394   26.4046 C   0  0  0  0  0  0  0  0  0  0  0  0
   49.7942   81.4414   25.1297 H   0  0  0  0  0  0  0  0  0  0  0  0
   51.9502   81.6093   21.4601 H   0  0  0  0  0  0  0  0  0  0  0  0
   55.0872   87.8982   21.9041 C   0  0  0  0  0  0  0  0  0  0  0  0
   54.6508   86.6269   21.6221 C   0  0  0  0  0  0  0  0  0  0  0  0
   54.4517   85.6946   22.6050 C   0  0  0  0  0  0  0  0  0  0  0  0
   54.6788   85.9654   23.9702 C   0  0  0  0  0  0  0  0  0  0  0  0
   55.1139   87.2418   24.2393 C   0  0  0  0  0  0  0  0  0  0  0  0
   55.3151   88.1882   23.2221 C   0  0  0  0  0  0  0  0  0  0  0  0
   54.2958   91.0066   17.5267 Br  0  0  0  0  0  0  0  0  0  0  0  0
   55.0383   90.1499   19.0829 C   0  0  0  0  0  0  0  0  0  0  0  0
   54.4434   89.1913   19.8735 C   0  0  0  0  0  0  0  0  0  0  0  0
   55.2848   88.8447   20.8641 N   0  0  0  0  0  0  0  0  0  0  0  0
   56.3747   89.5638   20.6993 N   0  0  0  0  0  0  0  0  0  0  0  0
   56.2785   90.3665   19.6413 C   0  0  0  0  0  0  0  0  0  0  0  0
 23 24  1  0  0  0
 24 25  2  0  0  0
 24 28  1  0  0  0
 25 26  1  0  0  0
 26 27  1  0  0  0
 26 17  1  0  0  0
 27 28  2  0  0  0
 17 18  2  0  0  0
 17 22  1  0  0  0
 18 19  1  0  0  0
 19 20  2  0  0  0
 20 21  1  0  0  0
 20  1  1  0  0  0
 21 22  2  0  0  0
  1  2  2  0  0  0
  1  3  1  0  0  0
  3  4  1  0  0  0
  3 14  1  0  0  0
  4  5  1  0  0  0
  5  6  1  0  0  0
  6  7  1  0  0  0
  6 11  1  0  0  0
  6 13  1  0  0  0
  7  8  1  0  0  0
  8  9  2  0  0  0
  8 10  1  0  0  0
 10 11  1  0  0  0
 11 12  2  0  0  0
 13 14  1  0  0  0
  7 15  1  0  0  0
 10 16  1  0  0  0
M  END
> <minimizedAffinity>
-8.02969

$$$$
666


 28 31  0  0  0  0  0  0  0  0999 V2000
   54.0542   86.9916   20.8948 C   0  0  0  0  0  0  0  0  0  0  0  0
   55.0805   87.6070   21.4036 C   0  0  0  0  0  0  0  0  0  0  0  0
   55.2409   88.8491   20.6457 C   0  0  0  0  0  0  0  0  0  0  0  0
   56.1539   89.7032   20.8714 O   0  0  0  0  0  0  0  0  0  0  0  0
   54.2374   88.9641   19.6263 N   0  0  0  0  0  0  0  0  0  0  0  0
   53.4672   87.7726   19.7793 C   0  0  0  0  0  0  0  0  0  0  0  0
   52.4666   87.4452   19.0882 O   0  0  0  0  0  0  0  0  0  0  0  0
   54.0717   90.0158   18.6889 C   0  0  0  0  0  0  0  0  0  0  0  0
   53.5447   91.2399   19.0123 C   0  0  0  0  0  0  0  0  0  0  0  0
   53.4105   92.2688   18.0567 C   0  0  0  0  0  0  0  0  0  0  0  0
   53.8114   92.0682   16.7555 C   0  0  0  0  0  0  0  0  0  0  0  0
   54.3393   90.8457   16.4271 C   0  0  0  0  0  0  0  0  0  0  0  0
   54.4645   89.8390   17.3855 C   0  0  0  0  0  0  0  0  0  0  0  0
   55.9137   87.2026   22.4919 N   0  0  0  0  0  0  0  0  0  0  0  0
   55.4938   87.3741   23.7584 C   0  0  0  0  0  0  0  0  0  0  0  0
   56.2920   86.9951   24.8517 C   0  0  0  0  0  0  0  0  0  0  0  0
   57.5368   86.4350   24.6335 C   0  0  0  0  0  0  0  0  0  0  0  0
   57.9444   86.2693   23.3272 C   0  0  0  0  0  0  0  0  0  0  0  0
   57.1353   86.6514   22.2896 C   0  0  0  0  0  0  0  0  0  0  0  0
   53.4846   85.7515   21.2690 N   0  0  0  0  0  0  0  0  0  0  0  0
   53.1037   85.6126   22.2046 H   0  0  0  0  0  0  0  0  0  0  0  0
   53.4850   81.3058   17.0581 Br  0  0  0  0  0  0  0  0  0  0  0  0
   53.4804   82.6844   18.3824 C   0  0  0  0  0  0  0  0  0  0  0  0
   54.6275   83.3266   18.7674 C   0  0  0  0  0  0  0  0  0  0  0  0
   54.5984   84.2938   19.6912 N   0  0  0  0  0  0  0  0  0  0  0  0
   53.4621   84.7120   20.3105 C   0  0  0  0  0  0  0  0  0  0  0  0
   52.2954   84.0480   19.9121 C   0  0  0  0  0  0  0  0  0  0  0  0
   52.2929   83.0564   18.9692 C   0  0  0  0  0  0  0  0  0  0  0  0
 22 23  1  0  0  0
 23 24  2  0  0  0
 23 28  1  0  0  0
 24 25  1  0  0  0
 25 26  2  0  0  0
 26 27  1  0  0  0
 26 20  1  0  0  0
 27 28  2  0  0  0
 20  1  1  0  0  0
  1  2  2  0  0  0
  1  6  1  0  0  0
  2  3  1  0  0  0
  2 14  1  0  0  0
  3  4  2  0  0  0
  3  5  1  0  0  0
  5  6  1  0  0  0
  5  8  1  0  0  0
  6  7  2  0  0  0
  8  9  2  0  0  0
  8 13  1  0  0  0
  9 10  1  0  0  0
 10 11  2  0  0  0
 11 12  1  0  0  0
 12 13  2  0  0  0
 14 15  2  0  0  0
 14 19  1  0  0  0
 15 16  1  0  0  0
 16 17  2  0  0  0
 17 18  1  0  0  0
 18 19  2  0  0  0
 20 21  1  0  0  0
M  END
> <minimizedAffinity>
-9.25206

$$$$
670


 23 26  0  0  0  0  0  0  0  0999 V2000
   50.4224   98.6102   29.7676 C   0  0  0  0  0  0  0  0  0  0  0  0
   49.8067   99.9096   29.7076 N   0  0  0  0  0  0  0  0  0  0  0  0
   50.2190  100.9258   30.5695 N   0  0  0  0  0  0  0  0  0  0  0  0
   49.6415  102.2239   30.5475 C   0  0  0  0  0  0  0  0  0  0  0  0
   50.0690  103.1489   31.3852 C   0  0  0  0  0  0  0  0  0  0  0  0
   50.9002  103.7045   32.4717 C   0  0  0  0  0  0  0  0  0  0  0  0
   49.9178  104.5819   31.8545 C   0  0  0  0  0  0  0  0  0  0  0  0
   48.5829  102.5375   29.6079 C   0  0  0  0  0  0  0  0  0  0  0  0
   48.1752  101.5885   28.7808 C   0  0  0  0  0  0  0  0  0  0  0  0
   48.7697  100.2361   28.7948 C   0  0  0  0  0  0  0  0  0  0  0  0
   48.3633   99.3505   27.9966 O   0  0  0  0  0  0  0  0  0  0  0  0
   50.9944  100.6878   31.2544 H   0  0  0  0  0  0  0  0  0  0  0  0
   53.1054   97.5796   28.0196 N   0  0  0  0  0  0  0  0  0  0  0  0
   52.8658   97.9889   29.3734 C   0  0  0  0  0  0  0  0  0  0  0  0
   51.5926   98.6111   28.8352 C   0  0  0  0  0  0  0  0  0  0  0  0
   51.6853   97.3994   27.9145 C   0  0  0  0  0  0  0  0  0  0  0  0
   57.9635   96.8862   24.4096 Br  0  0  0  0  0  0  0  0  0  0  0  0
   56.4327   97.0919   25.5384 C   0  0  0  0  0  0  0  0  0  0  0  0
   56.3164   98.1863   26.3652 C   0  0  0  0  0  0  0  0  0  0  0  0
   55.2469   98.3096   27.1396 N   0  0  0  0  0  0  0  0  0  0  0  0
   54.2243   97.4291   27.1934 C   0  0  0  0  0  0  0  0  0  0  0  0
   54.3466   96.3451   26.3713 N   0  0  0  0  0  0  0  0  0  0  0  0
   55.4087   96.1695   25.5650 C   0  0  0  0  0  0  0  0  0  0  0  0
 17 18  1  0  0  0
 18 19  2  0  0  0
 18 23  1  0  0  0
 19 20  1  0  0  0
 20 21  2  0  0  0
 21 22  1  0  0  0
 21 13  1  0  0  0
 22 23  2  0  0  0
 13 14  1  0  0  0
 13 16  1  0  0  0
 14 15  1  0  0  0
 15 16  1  0  0  0
 15  1  1  0  0  0
  1  2  1  0  0  0
  2  3  1  0  0  0
  2 10  1  0  0  0
  3  4  1  0  0  0
  4  5  2  0  0  0
  4  8  1  0  0  0
  5  6  1  0  0  0
  5  7  1  0  0  0
  6  7  1  0  0  0
  8  9  2  0  0  0
  9 10  1  0  0  0
 10 11  2  0  0  0
  3 12  1  0  0  0
M  END
> <minimizedAffinity>
-7.66444

$$$$
677


 29 32  0  0  0  0  0  0  0  0999 V2000
   53.4959   87.0012   20.0019 C   0  0  0  0  0  0  0  0  0  0  0  0
   54.6519   86.9436   20.8588 C   0  0  0  0  0  0  0  0  0  0  0  0
   55.3058   88.0757   21.1812 C   0  0  0  0  0  0  0  0  0  0  0  0
   54.8796   89.3252   20.6948 C   0  0  0  0  0  0  0  0  0  0  0  0
   53.7802   89.3983   19.8746 C   0  0  0  0  0  0  0  0  0  0  0  0
   53.0920   88.2242   19.5293 C   0  0  0  0  0  0  0  0  0  0  0  0
   51.9601   88.2736   18.5685 C   0  0  0  0  0  0  0  0  0  0  0  0
   51.9212   89.5497   17.7345 C   0  0  0  0  0  0  0  0  0  0  0  0
   52.1174   90.7262   18.5486 N   0  0  0  0  0  0  0  0  0  0  0  0
   53.2872   90.6791   19.3773 C   0  0  0  0  0  0  0  0  0  0  0  0
   53.8322   91.7727   19.6332 O   0  0  0  0  0  0  0  0  0  0  0  0
   51.2102   91.8535   18.5290 C   0  0  0  0  0  0  0  0  0  0  0  0
   55.5854   90.4092   21.0636 O   0  0  0  0  0  0  0  0  0  0  0  0
   56.3743   87.7128   22.0156 O   0  0  0  0  0  0  0  0  0  0  0  0
   56.2329   86.3671   22.4187 C   0  0  0  0  0  0  0  0  0  0  0  0
   55.2963   85.8711   21.4827 O   0  0  0  0  0  0  0  0  0  0  0  0
   55.4803   91.3421   20.8554 H   0  0  0  0  0  0  0  0  0  0  0  0
   52.9322   85.6854   19.7880 C   0  0  0  0  0  0  0  0  0  0  0  0
   53.7015   84.0494   18.1613 C   0  0  0  0  0  0  0  0  0  0  0  0
   54.6277   83.7917   18.9483 O   0  0  0  0  0  0  0  0  0  0  0  0
   52.7175   85.0819   18.5465 N   0  0  0  0  0  0  0  0  0  0  0  0
   51.9790   85.1779   17.8345 H   0  0  0  0  0  0  0  0  0  0  0  0
   51.6060   80.1770   15.1537 Br  0  0  0  0  0  0  0  0  0  0  0  0
   52.7374   81.6876   15.4459 C   0  0  0  0  0  0  0  0  0  0  0  0
   53.4997   82.1854   14.4372 C   0  0  0  0  0  0  0  0  0  0  0  0
   54.2935   83.2384   14.6264 N   0  0  0  0  0  0  0  0  0  0  0  0
   54.3461   83.8228   15.8321 C   0  0  0  0  0  0  0  0  0  0  0  0
   53.5880   83.3561   16.9001 C   0  0  0  0  0  0  0  0  0  0  0  0
   52.7653   82.2690   16.7127 C   0  0  0  0  0  0  0  0  0  0  0  0
 23 24  1  0  0  0
 24 25  2  0  0  0
 24 29  1  0  0  0
 25 26  1  0  0  0
 26 27  2  0  0  0
 27 28  1  0  0  0
 28 29  2  0  0  0
 28 19  1  0  0  0
 19 20  2  0  0  0
 19 21  1  0  0  0
 21 18  1  0  0  0
 18  1  1  0  0  0
  1  2  2  0  0  0
  1  6  1  0  0  0
  2  3  1  0  0  0
  2 16  1  0  0  0
  3  4  2  0  0  0
  3 14  1  0  0  0
  4  5  1  0  0  0
  4 13  1  0  0  0
  5  6  2  0  0  0
  5 10  1  0  0  0
  6  7  1  0  0  0
  7  8  1  0  0  0
  8  9  1  0  0  0
  9 10  1  0  0  0
  9 12  1  0  0  0
 10 11  2  0  0  0
 14 15  1  0  0  0
 15 16  1  0  0  0
 21 22  1  0  0  0
 13 17  1  0  0  0
M  END
> <minimizedAffinity>
-9.23112

$$$$
680


 24 27  0  0  0  0  0  0  0  0999 V2000
   56.1429   87.3943   24.5321 C   0  0  0  0  0  0  0  0  0  0  0  0
   56.8471   88.1674   25.2802 O   0  0  0  0  0  0  0  0  0  0  0  0
   55.7726   87.8831   23.2651 N   0  0  0  0  0  0  0  0  0  0  0  0
   55.0251   87.4764   22.1163 C   0  0  0  0  0  0  0  0  0  0  0  0
   54.7688   88.9692   21.8416 C   0  0  0  0  0  0  0  0  0  0  0  0
   56.0679   89.1329   22.5351 C   0  0  0  0  0  0  0  0  0  0  0  0
   54.7266   89.2537   20.4338 N   0  0  0  0  0  0  0  0  0  0  0  0
   55.6555   90.0258   19.6498 C   0  0  0  0  0  0  0  0  0  0  0  0
   56.8497   90.2102   19.9417 O   0  0  0  0  0  0  0  0  0  0  0  0
   54.8697   90.5186   18.4662 C   0  0  0  0  0  0  0  0  0  0  0  0
   54.0268   89.2980   18.1814 C   0  0  0  0  0  0  0  0  0  0  0  0
   52.8039   89.6532   17.3821 C   0  0  0  0  0  0  0  0  0  0  0  0
   51.9909   90.6494   18.1300 C   0  0  0  0  0  0  0  0  0  0  0  0
   52.6319   91.5698   18.8207 C   0  0  0  0  0  0  0  0  0  0  0  0
   54.0919   91.7055   18.9223 C   0  0  0  0  0  0  0  0  0  0  0  0
   53.7183   88.8021   19.5365 C   0  0  0  0  0  0  0  0  0  0  0  0
   52.7123   88.0982   19.7993 O   0  0  0  0  0  0  0  0  0  0  0  0
   52.6644   84.1003   27.0265 Br  0  0  0  0  0  0  0  0  0  0  0  0
   54.3353   84.5285   26.2214 C   0  0  0  0  0  0  0  0  0  0  0  0
   55.3141   83.5659   26.1548 C   0  0  0  0  0  0  0  0  0  0  0  0
   56.5109   83.8540   25.5827 N   0  0  0  0  0  0  0  0  0  0  0  0
   56.7619   85.0675   25.0796 C   0  0  0  0  0  0  0  0  0  0  0  0
   55.8236   86.1080   25.1047 C   0  0  0  0  0  0  0  0  0  0  0  0
   54.6233   85.7762   25.6910 C   0  0  0  0  0  0  0  0  0  0  0  0
 18 19  1  0  0  0
 19 20  2  0  0  0
 19 24  1  0  0  0
 20 21  1  0  0  0
 21 22  2  0  0  0
 22 23  1  0  0  0
 23 24  2  0  0  0
 23  1  1  0  0  0
  1  2  2  0  0  0
  1  3  1  0  0  0
  3  4  1  0  0  0
  3  6  1  0  0  0
  4  5  1  0  0  0
  5  6  1  0  0  0
  5  7  1  0  0  0
  7  8  1  0  0  0
  7 16  1  0  0  0
  8  9  2  0  0  0
  8 10  1  0  0  0
 10 11  1  0  0  0
 10 15  1  0  0  0
 11 12  1  0  0  0
 11 16  1  0  0  0
 12 13  1  0  0  0
 13 14  2  0  0  0
 14 15  1  0  0  0
 16 17  2  0  0  0
M  END
> <minimizedAffinity>
-8.59388

$$$$
681


 25 28  0  0  0  0  0  0  0  0999 V2000
   49.4470   99.1592   28.8188 C   0  0  0  0  0  0  0  0  0  0  0  0
   48.6491   98.1764   28.9229 O   0  0  0  0  0  0  0  0  0  0  0  0
   50.7176   98.9359   28.2740 N   0  0  0  0  0  0  0  0  0  0  0  0
   51.9257   99.6405   27.9363 C   0  0  0  0  0  0  0  0  0  0  0  0
   52.5072   98.4309   27.2202 C   0  0  0  0  0  0  0  0  0  0  0  0
   51.3469   97.6851   27.8057 C   0  0  0  0  0  0  0  0  0  0  0  0
   50.3854  103.2402   32.0969 Br  0  0  0  0  0  0  0  0  0  0  0  0
   49.3472  102.3546   30.7430 C   0  0  0  0  0  0  0  0  0  0  0  0
   48.2166  102.9799   30.2693 C   0  0  0  0  0  0  0  0  0  0  0  0
   47.5111  102.3438   29.3274 N   0  0  0  0  0  0  0  0  0  0  0  0
   47.8776  101.1227   28.8397 C   0  0  0  0  0  0  0  0  0  0  0  0
   48.9932  100.4506   29.2712 C   0  0  0  0  0  0  0  0  0  0  0  0
   49.7284  101.1281   30.2615 C   0  0  0  0  0  0  0  0  0  0  0  0
   53.7746   98.0108   27.6184 O   0  0  0  0  0  0  0  0  0  0  0  0
   54.7347   97.4408   26.8077 C   0  0  0  0  0  0  0  0  0  0  0  0
   55.8556   98.1070   26.5427 C   0  0  0  0  0  0  0  0  0  0  0  0
   56.9065   97.5591   25.6947 C   0  0  0  0  0  0  0  0  0  0  0  0
   58.0080   98.2482   25.4534 C   0  0  0  0  0  0  0  0  0  0  0  0
   56.6981   96.2665   25.1433 N   0  0  0  0  0  0  0  0  0  0  0  0
   55.4783   95.5716   25.4459 C   0  0  0  0  0  0  0  0  0  0  0  0
   54.5494   96.1311   26.2341 N   0  0  0  0  0  0  0  0  0  0  0  0
   53.5196   95.2864   26.3516 N   0  0  0  0  0  0  0  0  0  0  0  0
   53.8180   94.2006   25.6296 C   0  0  0  0  0  0  0  0  0  0  0  0
   55.0206   94.3729   25.0721 N   0  0  0  0  0  0  0  0  0  0  0  0
   57.4372   95.8676   24.5404 H   0  0  0  0  0  0  0  0  0  0  0  0
  7  8  1  0  0  0
  8  9  2  0  0  0
  8 13  1  0  0  0
  9 10  1  0  0  0
 10 11  2  0  0  0
 11 12  1  0  0  0
 12 13  2  0  0  0
 12  1  1  0  0  0
  1  2  2  0  0  0
  1  3  1  0  0  0
  3  4  1  0  0  0
  3  6  1  0  0  0
  4  5  1  0  0  0
  5  6  1  0  0  0
  5 14  1  0  0  0
 14 15  1  0  0  0
 15 16  2  0  0  0
 15 21  1  0  0  0
 16 17  1  0  0  0
 17 18  2  0  0  0
 17 19  1  0  0  0
 19 20  1  0  0  0
 20 21  1  0  0  0
 20 24  2  0  0  0
 21 22  1  0  0  0
 22 23  2  0  0  0
 23 24  1  0  0  0
 19 25  1  0  0  0
M  END
> <minimizedAffinity>
-9.04793

$$$$
683


 20 22  0  0  0  0  0  0  0  0999 V2000
   51.9869   89.0008   18.7054 N   0  0  0  0  0  0  0  0  0  0  0  0
   52.2247   89.6013   17.4031 C   0  0  0  0  0  0  0  0  0  0  0  0
   53.6611   90.0428   17.2343 C   0  0  0  0  0  0  0  0  0  0  0  0
   53.8261   91.4729   17.7178 C   0  0  0  0  0  0  0  0  0  0  0  0
   53.8133   91.5342   19.2285 C   0  0  0  0  0  0  0  0  0  0  0  0
   53.9713   90.1773   19.7752 C   0  0  0  0  0  0  0  0  0  0  0  0
   53.1655   89.0905   19.5350 C   0  0  0  0  0  0  0  0  0  0  0  0
   53.4506   87.9215   20.1142 N   0  0  0  0  0  0  0  0  0  0  0  0
   54.4992   87.7666   20.9274 C   0  0  0  0  0  0  0  0  0  0  0  0
   55.3168   88.8378   21.1816 C   0  0  0  0  0  0  0  0  0  0  0  0
   55.0463   90.0583   20.5970 C   0  0  0  0  0  0  0  0  0  0  0  0
   55.9156   91.1671   20.8775 N   0  0  0  0  0  0  0  0  0  0  0  0
   56.4228   88.7328   22.0208 C   0  0  0  0  0  0  0  0  0  0  0  0
   56.6788   87.5131   22.5958 C   0  0  0  0  0  0  0  0  0  0  0  0
   55.8595   86.4410   22.3404 C   0  0  0  0  0  0  0  0  0  0  0  0
   54.7547   86.5573   21.4981 C   0  0  0  0  0  0  0  0  0  0  0  0
   51.7091   87.5842   18.4952 C   0  0  0  0  0  0  0  0  0  0  0  0
   51.1744   89.4610   19.1761 H   0  0  0  0  0  0  0  0  0  0  0  0
   56.4791   91.5810   20.1183 H   0  0  0  0  0  0  0  0  0  0  0  0
   55.9897   91.5639   21.8423 H   0  0  0  0  0  0  0  0  0  0  0  0
  1  2  1  0  0  0
  1  7  1  0  0  0
  1 17  1  0  0  0
  2  3  1  0  0  0
  3  4  1  0  0  0
  4  5  1  0  0  0
  5  6  1  0  0  0
  6  7  2  0  0  0
  6 11  1  0  0  0
  7  8  1  0  0  0
  8  9  2  0  0  0
  9 10  1  0  0  0
  9 16  1  0  0  0
 10 11  2  0  0  0
 10 13  1  0  0  0
 11 12  1  0  0  0
 13 14  2  0  0  0
 14 15  1  0  0  0
 15 16  2  0  0  0
  1 18  1  0  0  0
 12 19  1  0  0  0
 12 20  1  0  0  0
M  CHG 1   1   1
M  END
> <minimizedAffinity>
-7.73903

$$$$
684


 19 21  0  0  0  0  0  0  0  0999 V2000
   57.5051   97.1727   25.7624 N   0  0  0  0  0  0  0  0  0  0  0  0
   57.5670   96.7234   24.3592 C   0  0  0  0  0  0  0  0  0  0  0  0
   57.5239   95.2308   24.3346 C   0  0  0  0  0  0  0  0  0  0  0  0
   56.2293   94.7609   24.9416 C   0  0  0  0  0  0  0  0  0  0  0  0
   55.5110   95.7845   25.7185 C   0  0  0  0  0  0  0  0  0  0  0  0
   56.1255   96.9501   26.1184 C   0  0  0  0  0  0  0  0  0  0  0  0
   55.4187   97.8337   26.8200 N   0  0  0  0  0  0  0  0  0  0  0  0
   54.1260   97.6521   27.1651 C   0  0  0  0  0  0  0  0  0  0  0  0
   53.4786   96.4964   26.7817 C   0  0  0  0  0  0  0  0  0  0  0  0
   54.1700   95.5536   26.0538 C   0  0  0  0  0  0  0  0  0  0  0  0
   53.4986   94.3625   25.6602 N   0  0  0  0  0  0  0  0  0  0  0  0
   52.1418   96.3054   27.1369 C   0  0  0  0  0  0  0  0  0  0  0  0
   51.4324   97.2356   27.8636 C   0  0  0  0  0  0  0  0  0  0  0  0
   52.0857   98.3898   28.2451 C   0  0  0  0  0  0  0  0  0  0  0  0
   53.4134   98.5805   27.8927 C   0  0  0  0  0  0  0  0  0  0  0  0
   57.8240   98.5857   25.7421 C   0  0  0  0  0  0  0  0  0  0  0  0
   58.1534   96.6228   26.3502 H   0  0  0  0  0  0  0  0  0  0  0  0
   52.7541   94.4584   24.9349 H   0  0  0  0  0  0  0  0  0  0  0  0
   53.6928   93.4236   26.0362 H   0  0  0  0  0  0  0  0  0  0  0  0
  1  2  1  0  0  0
  1  6  1  0  0  0
  1 16  1  0  0  0
  2  3  1  0  0  0
  3  4  1  0  0  0
  4  5  1  0  0  0
  5  6  2  0  0  0
  5 10  1  0  0  0
  6  7  1  0  0  0
  7  8  2  0  0  0
  8  9  1  0  0  0
  8 15  1  0  0  0
  9 10  2  0  0  0
  9 12  1  0  0  0
 10 11  1  0  0  0
 12 13  2  0  0  0
 13 14  1  0  0  0
 14 15  2  0  0  0
  1 17  1  0  0  0
 11 18  1  0  0  0
 11 19  1  0  0  0
M  CHG 1   1   1
M  END
> <minimizedAffinity>
-8.40396

$$$$
692


 29 32  0  0  0  0  0  0  0  0999 V2000
   51.6308   89.7086   17.7670 Br  0  0  0  0  0  0  0  0  0  0  0  0
   52.9507   89.2107   19.0395 C   0  0  0  0  0  0  0  0  0  0  0  0
   52.9893   87.9105   19.5057 C   0  0  0  0  0  0  0  0  0  0  0  0
   53.9364   87.4779   20.4460 C   0  0  0  0  0  0  0  0  0  0  0  0
   54.8602   88.3740   20.9233 C   0  0  0  0  0  0  0  0  0  0  0  0
   54.8273   89.6756   20.4612 C   0  0  0  0  0  0  0  0  0  0  0  0
   53.8974   90.1009   19.5379 C   0  0  0  0  0  0  0  0  0  0  0  0
   56.0935   90.9440   21.1013 Br  0  0  0  0  0  0  0  0  0  0  0  0
   53.9281   86.0988   20.9183 C   0  0  0  0  0  0  0  0  0  0  0  0
   54.4750   85.8974   22.0372 O   0  0  0  0  0  0  0  0  0  0  0  0
   53.3275   85.0121   20.1529 C   0  0  0  0  0  0  0  0  0  0  0  0
   52.5997   85.6171   18.9229 C   0  0  0  0  0  0  0  0  0  0  0  0
   52.1274   86.8995   19.1177 O   0  0  0  0  0  0  0  0  0  0  0  0
   54.2185   84.0098   19.5773 C   0  0  0  0  0  0  0  0  0  0  0  0
   54.1102   83.4206   18.3245 N   0  0  0  0  0  0  0  0  0  0  0  0
   53.4729   82.1512   18.1633 C   0  0  0  0  0  0  0  0  0  0  0  0
   52.9809   82.1023   16.6939 C   0  0  0  0  0  0  0  0  0  0  0  0
   54.2338   81.9103   15.8650 C   0  0  0  0  0  0  0  0  0  0  0  0
   55.4817   82.2625   16.6437 C   0  0  0  0  0  0  0  0  0  0  0  0
   55.2914   83.5108   17.4785 C   0  0  0  0  0  0  0  0  0  0  0  0
   53.4198   84.0750   17.8001 H   0  0  0  0  0  0  0  0  0  0  0  0
   52.2936   84.3348   21.0388 C   0  0  0  0  0  0  0  0  0  0  0  0
   52.8418   83.2503   21.8155 N   0  0  0  0  0  0  0  0  0  0  0  0
   51.9832   82.0895   21.6285 C   0  0  0  0  0  0  0  0  0  0  0  0
   50.5762   82.4657   21.9550 C   0  0  0  0  0  0  0  0  0  0  0  0
   50.3803   83.0838   23.2905 C   0  0  0  0  0  0  0  0  0  0  0  0
   51.4906   83.9577   23.7624 C   0  0  0  0  0  0  0  0  0  0  0  0
   52.8298   83.4781   23.2491 C   0  0  0  0  0  0  0  0  0  0  0  0
   53.8252   83.0536   21.5578 H   0  0  0  0  0  0  0  0  0  0  0  0
  1  2  1  0  0  0
  2  3  2  0  0  0
  2  7  1  0  0  0
  3  4  1  0  0  0
  3 13  1  0  0  0
  4  5  2  0  0  0
  4  9  1  0  0  0
  5  6  1  0  0  0
  6  7  2  0  0  0
  6  8  1  0  0  0
  9 10  2  0  0  0
  9 11  1  0  0  0
 11 12  1  0  0  0
 11 14  1  0  0  0
 11 22  1  0  0  0
 12 13  1  0  0  0
 14 15  1  0  0  0
 15 16  1  0  0  0
 15 20  1  0  0  0
 16 17  1  0  0  0
 17 18  1  0  0  0
 18 19  1  0  0  0
 19 20  1  0  0  0
 22 23  1  0  0  0
 23 24  1  0  0  0
 23 28  1  0  0  0
 24 25  1  0  0  0
 25 26  1  0  0  0
 26 27  1  0  0  0
 27 28  1  0  0  0
 15 21  1  0  0  0
 23 29  1  0  0  0
M  CHG 1  15   1
M  CHG 1  23   1
M  END
> <minimizedAffinity>
-7.85843

$$$$
693


 33 36  0  0  0  0  0  0  0  0999 V2000
   50.0511  100.6003   28.6427 N   0  0  0  0  0  0  0  0  0  0  0  0
   50.3429   99.2429   28.9027 C   0  0  0  0  0  0  0  0  0  0  0  0
   50.6955   98.8783   30.0436 O   0  0  0  0  0  0  0  0  0  0  0  0
   49.7522  100.9749   27.7172 H   0  0  0  0  0  0  0  0  0  0  0  0
   45.6696  104.9108   32.8586 Br  0  0  0  0  0  0  0  0  0  0  0  0
   47.4788  104.3772   32.5337 C   0  0  0  0  0  0  0  0  0  0  0  0
   47.8000  103.4638   31.5505 C   0  0  0  0  0  0  0  0  0  0  0  0
   49.1050  103.0721   31.3050 C   0  0  0  0  0  0  0  0  0  0  0  0
   50.0771  103.6428   32.0973 C   0  0  0  0  0  0  0  0  0  0  0  0
   49.7957  104.5562   33.0882 C   0  0  0  0  0  0  0  0  0  0  0  0
   48.4846  104.9381   33.3209 C   0  0  0  0  0  0  0  0  0  0  0  0
   51.1928  105.3112   34.1522 Br  0  0  0  0  0  0  0  0  0  0  0  0
   49.1658  102.1062   30.2182 C   0  0  0  0  0  0  0  0  0  0  0  0
   50.1722  101.5116   29.6961 N   0  0  0  0  0  0  0  0  0  0  0  0
   47.7781  101.9110   29.7842 C   0  0  0  0  0  0  0  0  0  0  0  0
   47.4364  101.1352   28.8518 O   0  0  0  0  0  0  0  0  0  0  0  0
   46.9995  102.7484   30.6157 N   0  0  0  0  0  0  0  0  0  0  0  0
   45.9708  102.8329   30.5549 H   0  0  0  0  0  0  0  0  0  0  0  0
   50.2479   98.1869   27.8456 C   0  0  0  0  0  0  0  0  0  0  0  0
   51.3391   97.2546   27.9175 N   0  0  0  0  0  0  0  0  0  0  0  0
   52.6366   97.5445   27.4147 C   0  0  0  0  0  0  0  0  0  0  0  0
   52.8329   98.6613   26.8880 O   0  0  0  0  0  0  0  0  0  0  0  0
   51.2188   96.3095   28.3518 H   0  0  0  0  0  0  0  0  0  0  0  0
   53.7795   96.5850   27.4796 C   0  0  0  0  0  0  0  0  0  0  0  0
   55.0045   97.2411   27.6206 O   0  0  0  0  0  0  0  0  0  0  0  0
   55.9855   97.3170   26.6343 C   0  0  0  0  0  0  0  0  0  0  0  0
   55.9143   96.4035   25.6160 C   0  0  0  0  0  0  0  0  0  0  0  0
   56.8844   96.4552   24.6148 C   0  0  0  0  0  0  0  0  0  0  0  0
   57.9004   97.3835   24.6174 C   0  0  0  0  0  0  0  0  0  0  0  0
   57.9397   98.2883   25.6605 C   0  0  0  0  0  0  0  0  0  0  0  0
   56.9859   98.2423   26.6502 C   0  0  0  0  0  0  0  0  0  0  0  0
   54.9088   95.4767   25.6043 O   0  0  0  0  0  0  0  0  0  0  0  0
   53.7472   95.5821   26.3802 C   0  0  0  0  0  0  0  0  0  0  0  0
  5  6  1  0  0  0
  6  7  2  0  0  0
  6 11  1  0  0  0
  7  8  1  0  0  0
  7 17  1  0  0  0
  8  9  2  0  0  0
  8 13  1  0  0  0
  9 10  1  0  0  0
 10 11  2  0  0  0
 10 12  1  0  0  0
 13 14  2  0  0  0
 13 15  1  0  0  0
 14  1  1  0  0  0
  1  2  1  0  0  0
  2  3  2  0  0  0
  2 19  1  0  0  0
 19 20  1  0  0  0
 20 21  1  0  0  0
 21 22  2  0  0  0
 21 24  1  0  0  0
 24 25  1  0  0  0
 24 33  1  0  0  0
 25 26  1  0  0  0
 26 27  2  0  0  0
 26 31  1  0  0  0
 27 28  1  0  0  0
 27 32  1  0  0  0
 28 29  2  0  0  0
 29 30  1  0  0  0
 30 31  2  0  0  0
 32 33  1  0  0  0
 15 16  2  0  0  0
 15 17  1  0  0  0
  1  4  1  0  0  0
 20 23  1  0  0  0
 17 18  1  0  0  0
M  END
> <minimizedAffinity>
-10.11231

$$$$
695


 22 25  0  0  0  0  0  0  0  0999 V2000
   53.0598   98.5376   28.6060 C   0  0  0  0  0  0  0  0  0  0  0  0
   57.2284   97.5281   25.3925 Br  0  0  0  0  0  0  0  0  0  0  0  0
   55.5131   97.0911   26.1387 C   0  0  0  0  0  0  0  0  0  0  0  0
   54.9139   95.9239   25.7145 C   0  0  0  0  0  0  0  0  0  0  0  0
   53.6879   95.6107   26.2478 C   0  0  0  0  0  0  0  0  0  0  0  0
   53.0860   96.4555   27.1822 C   0  0  0  0  0  0  0  0  0  0  0  0
   53.6752   97.6219   27.6118 C   0  0  0  0  0  0  0  0  0  0  0  0
   54.9230   97.9306   27.0621 C   0  0  0  0  0  0  0  0  0  0  0  0
   53.3040   94.4016   25.6651 O   0  0  0  0  0  0  0  0  0  0  0  0
   54.0306   94.2763   24.4328 C   0  0  0  0  0  0  0  0  0  0  0  0
   55.2608   94.9057   24.8187 O   0  0  0  0  0  0  0  0  0  0  0  0
   51.6898   98.1476   28.8330 N   0  0  0  0  0  0  0  0  0  0  0  0
   51.4232   97.1669   29.0231 H   0  0  0  0  0  0  0  0  0  0  0  0
   50.6727   99.1660   28.7896 C   0  0  0  0  0  0  0  0  0  0  0  0
   50.9940  100.4587   28.6442 N   0  0  0  0  0  0  0  0  0  0  0  0
   50.0376  101.4034   28.6045 C   0  0  0  0  0  0  0  0  0  0  0  0
   48.6902  101.0729   28.7125 C   0  0  0  0  0  0  0  0  0  0  0  0
   48.3785   99.7852   28.8565 N   0  0  0  0  0  0  0  0  0  0  0  0
   49.3417   98.8287   28.8971 C   0  0  0  0  0  0  0  0  0  0  0  0
   48.7320   97.6417   29.0482 N   0  0  0  0  0  0  0  0  0  0  0  0
   47.4221   97.8149   29.1039 N   0  0  0  0  0  0  0  0  0  0  0  0
   47.2117   99.1286   28.9866 C   0  0  0  0  0  0  0  0  0  0  0  0
  2  3  1  0  0  0
  3  4  2  0  0  0
  3  8  1  0  0  0
  4  5  1  0  0  0
  4 11  1  0  0  0
  5  6  2  0  0  0
  5  9  1  0  0  0
  6  7  1  0  0  0
  7  8  2  0  0  0
  7  1  1  0  0  0
  1 12  1  0  0  0
 12 14  1  0  0  0
 14 15  2  0  0  0
 14 19  1  0  0  0
 15 16  1  0  0  0
 16 17  2  0  0  0
 17 18  1  0  0  0
 18 19  1  0  0  0
 18 22  1  0  0  0
 19 20  2  0  0  0
 20 21  1  0  0  0
 21 22  2  0  0  0
  9 10  1  0  0  0
 10 11  1  0  0  0
 12 13  1  0  0  0
M  END
> <minimizedAffinity>
-8.75533

$$$$
696


 28 31  0  0  0  0  0  0  0  0999 V2000
   55.7657   89.4834   21.9677 Br  0  0  0  0  0  0  0  0  0  0  0  0
   54.6689   89.0214   20.4890 C   0  0  0  0  0  0  0  0  0  0  0  0
   54.0994   87.7422   20.4331 C   0  0  0  0  0  0  0  0  0  0  0  0
   53.2977   87.3573   19.4022 C   0  0  0  0  0  0  0  0  0  0  0  0
   53.0469   88.2620   18.3854 C   0  0  0  0  0  0  0  0  0  0  0  0
   53.6081   89.5332   18.4325 C   0  0  0  0  0  0  0  0  0  0  0  0
   54.4166   89.9197   19.4760 C   0  0  0  0  0  0  0  0  0  0  0  0
   53.3624   90.5366   17.3577 C   0  0  0  0  0  0  0  0  0  0  0  0
   52.6700   86.0079   19.3860 C   0  0  0  0  0  0  0  0  0  0  0  0
   53.4268   84.9119   20.0460 C   0  0  0  0  0  0  0  0  0  0  0  0
   54.5860   85.4735   20.9039 C   0  0  0  0  0  0  0  0  0  0  0  0
   54.2984   86.7695   21.4026 O   0  0  0  0  0  0  0  0  0  0  0  0
   51.3997   86.2568   19.9775 O   0  0  0  0  0  0  0  0  0  0  0  0
   50.7816   86.6459   19.3354 H   0  0  0  0  0  0  0  0  0  0  0  0
   54.1499   84.0142   19.0599 C   0  0  0  0  0  0  0  0  0  0  0  0
   53.4622   83.8243   17.8008 N   0  0  0  0  0  0  0  0  0  0  0  0
   53.0597   82.4237   17.6706 C   0  0  0  0  0  0  0  0  0  0  0  0
   52.9083   82.1295   16.2242 C   0  0  0  0  0  0  0  0  0  0  0  0
   53.4604   83.3382   15.5473 C   0  0  0  0  0  0  0  0  0  0  0  0
   54.3463   83.9288   16.6520 C   0  0  0  0  0  0  0  0  0  0  0  0
   52.6730   84.4627   17.6253 H   0  0  0  0  0  0  0  0  0  0  0  0
   52.6047   84.1598   21.0225 C   0  0  0  0  0  0  0  0  0  0  0  0
   52.2495   84.4807   22.3066 N   0  0  0  0  0  0  0  0  0  0  0  0
   50.8898   83.9752   22.6021 C   0  0  0  0  0  0  0  0  0  0  0  0
   50.8833   83.5891   24.0301 C   0  0  0  0  0  0  0  0  0  0  0  0
   52.2887   83.3069   24.4004 C   0  0  0  0  0  0  0  0  0  0  0  0
   53.0861   84.1043   23.3699 C   0  0  0  0  0  0  0  0  0  0  0  0
   52.0369   85.5691   22.4045 H   0  0  0  0  0  0  0  0  0  0  0  0
  1  2  1  0  0  0
  2  3  2  0  0  0
  2  7  1  0  0  0
  3  4  1  0  0  0
  3 12  1  0  0  0
  4  5  2  0  0  0
  4  9  1  0  0  0
  5  6  1  0  0  0
  6  7  2  0  0  0
  6  8  1  0  0  0
  9 10  1  0  0  0
  9 13  1  0  0  0
 10 11  1  0  0  0
 10 15  1  0  0  0
 10 22  1  0  0  0
 11 12  1  0  0  0
 15 16  1  0  0  0
 16 17  1  0  0  0
 16 20  1  0  0  0
 17 18  1  0  0  0
 18 19  1  0  0  0
 19 20  1  0  0  0
 22 23  1  0  0  0
 23 24  1  0  0  0
 23 27  1  0  0  0
 24 25  1  0  0  0
 25 26  1  0  0  0
 26 27  1  0  0  0
 16 21  1  0  0  0
 23 28  1  0  0  0
 13 14  1  0  0  0
M  CHG 1  16   1
M  CHG 1  23   1
M  END
> <minimizedAffinity>
-8.25163

$$$$
699


 32 35  0  0  0  0  0  0  0  0999 V2000
   50.6663   97.9819   28.1077 C   0  0  0  0  0  0  0  0  0  0  0  0
   50.0131   96.9973   27.4129 O   0  0  0  0  0  0  0  0  0  0  0  0
   50.5725   96.4782   26.8071 H   0  0  0  0  0  0  0  0  0  0  0  0
   52.1353   97.6993   28.2971 C   0  0  0  0  0  0  0  0  0  0  0  0
   52.6199   96.7542   27.3629 O   0  0  0  0  0  0  0  0  0  0  0  0
   53.5500   94.4174   25.6404 Br  0  0  0  0  0  0  0  0  0  0  0  0
   54.5201   95.9997   26.0587 C   0  0  0  0  0  0  0  0  0  0  0  0
   55.7945   96.1651   25.5534 C   0  0  0  0  0  0  0  0  0  0  0  0
   56.5206   97.3022   25.8399 C   0  0  0  0  0  0  0  0  0  0  0  0
   55.9169   98.2481   26.6431 C   0  0  0  0  0  0  0  0  0  0  0  0
   54.6420   98.0751   27.1439 C   0  0  0  0  0  0  0  0  0  0  0  0
   53.9075   96.9407   26.8631 C   0  0  0  0  0  0  0  0  0  0  0  0
   57.7988   97.4677   25.3330 C   0  0  0  0  0  0  0  0  0  0  0  0
   58.4033   96.5229   24.5293 C   0  0  0  0  0  0  0  0  0  0  0  0
   57.6771   95.3838   24.2426 C   0  0  0  0  0  0  0  0  0  0  0  0
   56.4027   95.2184   24.7479 C   0  0  0  0  0  0  0  0  0  0  0  0
   50.4578   99.3312   27.5123 C   0  0  0  0  0  0  0  0  0  0  0  0
   50.6904  100.4209   28.4339 N   0  0  0  0  0  0  0  0  0  0  0  0
   50.4115   99.9132   29.7656 C   0  0  0  0  0  0  0  0  0  0  0  0
   50.3741  101.0360   30.8123 C   0  0  0  0  0  0  0  0  0  0  0  0
   49.3961  101.9888   30.4260 N   0  0  0  0  0  0  0  0  0  0  0  0
   48.7337  101.7079   29.1352 C   0  0  0  0  0  0  0  0  0  0  0  0
   49.7886  101.5128   28.0977 C   0  0  0  0  0  0  0  0  0  0  0  0
   49.0380  103.1242   31.1616 C   0  0  0  0  0  0  0  0  0  0  0  0
   48.0986  103.8495   30.5764 O   0  0  0  0  0  0  0  0  0  0  0  0
   51.6707  100.7734   28.4295 H   0  0  0  0  0  0  0  0  0  0  0  0
   49.4922  103.6425   32.4112 C   0  0  0  0  0  0  0  0  0  0  0  0
   50.4746  104.5714   32.6040 C   0  0  0  0  0  0  0  0  0  0  0  0
   50.8700  105.0339   33.8515 C   0  0  0  0  0  0  0  0  0  0  0  0
   50.2700  104.5620   34.9746 C   0  0  0  0  0  0  0  0  0  0  0  0
   49.2730  103.6219   34.8140 C   0  0  0  0  0  0  0  0  0  0  0  0
   48.8827  103.1640   33.5808 C   0  0  0  0  0  0  0  0  0  0  0  0
  6  7  1  0  0  0
  7  8  2  0  0  0
  7 12  1  0  0  0
  8  9  1  0  0  0
  8 16  1  0  0  0
  9 10  2  0  0  0
  9 13  1  0  0  0
 10 11  1  0  0  0
 11 12  2  0  0  0
 12  5  1  0  0  0
  5  4  1  0  0  0
  4  1  1  0  0  0
  1  2  1  0  0  0
  1 17  1  0  0  0
 17 18  1  0  0  0
 18 19  1  0  0  0
 18 23  1  0  0  0
 19 20  1  0  0  0
 20 21  1  0  0  0
 21 22  1  0  0  0
 21 24  1  0  0  0
 22 23  1  0  0  0
 24 25  2  0  0  0
 24 27  1  0  0  0
 27 28  2  0  0  0
 27 32  1  0  0  0
 28 29  1  0  0  0
 29 30  2  0  0  0
 30 31  1  0  0  0
 31 32  2  0  0  0
 13 14  2  0  0  0
 14 15  1  0  0  0
 15 16  2  0  0  0
  2  3  1  0  0  0
 18 26  1  0  0  0
M  CHG 1  18   1
M  END
> <minimizedAffinity>
-9.79213

$$$$
706


 30 33  0  0  0  0  0  0  0  0999 V2000
   53.6651   83.9006   25.2963 C   0  0  0  0  0  0  0  0  0  0  0  0
   52.6669   82.4511   22.5005 Br  0  0  0  0  0  0  0  0  0  0  0  0
   53.4819   84.1573   22.8815 C   0  0  0  0  0  0  0  0  0  0  0  0
   53.8413   84.6335   24.0883 N   0  0  0  0  0  0  0  0  0  0  0  0
   54.3764   85.8562   23.9451 C   0  0  0  0  0  0  0  0  0  0  0  0
   54.3521   86.1593   22.5976 C   0  0  0  0  0  0  0  0  0  0  0  0
   53.8014   85.1045   21.9825 N   0  0  0  0  0  0  0  0  0  0  0  0
   54.8437   87.3474   22.1915 N   0  0  0  0  0  0  0  0  0  0  0  0
   55.3617   88.2557   23.0479 C   0  0  0  0  0  0  0  0  0  0  0  0
   55.8136   89.3611   22.6244 O   0  0  0  0  0  0  0  0  0  0  0  0
   55.4018   87.9930   24.3668 N   0  0  0  0  0  0  0  0  0  0  0  0
   54.9145   86.8111   24.7823 C   0  0  0  0  0  0  0  0  0  0  0  0
   54.9488   86.5565   26.0035 O   0  0  0  0  0  0  0  0  0  0  0  0
   55.9634   88.9829   25.2657 C   0  0  0  0  0  0  0  0  0  0  0  0
   54.8129   87.6570   20.7768 C   0  0  0  0  0  0  0  0  0  0  0  0
   52.2860   83.8025   25.8385 C   0  0  0  0  0  0  0  0  0  0  0  0
   52.1432   83.6137   27.2431 N   0  0  0  0  0  0  0  0  0  0  0  0
   51.4306   84.4121   28.0765 C   0  0  0  0  0  0  0  0  0  0  0  0
   51.5241   83.9298   29.3588 C   0  0  0  0  0  0  0  0  0  0  0  0
   52.2997   82.8366   29.2670 N   0  0  0  0  0  0  0  0  0  0  0  0
   52.6739   82.6450   27.9944 C   0  0  0  0  0  0  0  0  0  0  0  0
   53.7905   81.2337   27.3029 Br  0  0  0  0  0  0  0  0  0  0  0  0
   50.9138   84.5177   30.4222 N   0  0  0  0  0  0  0  0  0  0  0  0
   50.1919   85.6244   30.1697 C   0  0  0  0  0  0  0  0  0  0  0  0
   49.6208   86.1794   31.1477 O   0  0  0  0  0  0  0  0  0  0  0  0
   50.0653   86.1419   28.9353 N   0  0  0  0  0  0  0  0  0  0  0  0
   50.6671   85.5589   27.8996 C   0  0  0  0  0  0  0  0  0  0  0  0
   50.5889   85.9926   26.7188 O   0  0  0  0  0  0  0  0  0  0  0  0
   49.2762   87.3357   28.7168 C   0  0  0  0  0  0  0  0  0  0  0  0
   51.0343   83.9770   31.7696 C   0  0  0  0  0  0  0  0  0  0  0  0
  2  3  1  0  0  0
  3  4  1  0  0  0
  3  7  2  0  0  0
  4  5  1  0  0  0
  4  1  1  0  0  0
  5  6  2  0  0  0
  5 12  1  0  0  0
  6  7  1  0  0  0
  6  8  1  0  0  0
  8  9  1  0  0  0
  8 15  1  0  0  0
  9 10  2  0  0  0
  9 11  1  0  0  0
 11 12  1  0  0  0
 11 14  1  0  0  0
 12 13  2  0  0  0
  1 16  1  0  0  0
 16 17  1  0  0  0
 17 18  1  0  0  0
 17 21  1  0  0  0
 18 19  2  0  0  0
 18 27  1  0  0  0
 19 20  1  0  0  0
 19 23  1  0  0  0
 20 21  2  0  0  0
 21 22  1  0  0  0
 23 24  1  0  0  0
 23 30  1  0  0  0
 24 25  2  0  0  0
 24 26  1  0  0  0
 26 27  1  0  0  0
 26 29  1  0  0  0
 27 28  2  0  0  0
M  END
> <minimizedAffinity>
-8.07164

$$$$
708


 31 34  0  0  0  0  0  0  0  0999 V2000
   53.0825   84.9922   22.1443 C   0  0  0  0  0  0  0  0  0  0  0  0
   54.0983   85.2963   21.0824 C   0  0  0  0  0  0  0  0  0  0  0  0
   56.4842   87.0067   22.4858 Br  0  0  0  0  0  0  0  0  0  0  0  0
   55.1357   87.5601   21.2607 C   0  0  0  0  0  0  0  0  0  0  0  0
   54.1986   86.7031   20.7520 N   0  0  0  0  0  0  0  0  0  0  0  0
   53.4415   87.4673   19.9399 C   0  0  0  0  0  0  0  0  0  0  0  0
   53.8907   88.7780   19.9339 C   0  0  0  0  0  0  0  0  0  0  0  0
   54.9500   88.7948   20.7715 N   0  0  0  0  0  0  0  0  0  0  0  0
   53.3264   89.7674   19.2202 N   0  0  0  0  0  0  0  0  0  0  0  0
   52.2574   89.4359   18.4742 C   0  0  0  0  0  0  0  0  0  0  0  0
   51.6861   90.3403   17.7769 O   0  0  0  0  0  0  0  0  0  0  0  0
   51.7869   88.1753   18.4514 N   0  0  0  0  0  0  0  0  0  0  0  0
   52.3565   87.1704   19.1736 C   0  0  0  0  0  0  0  0  0  0  0  0
   51.9066   86.0065   19.1430 O   0  0  0  0  0  0  0  0  0  0  0  0
   53.8034   91.1339   19.2189 C   0  0  0  0  0  0  0  0  0  0  0  0
   50.9601   87.9021   17.8787 H   0  0  0  0  0  0  0  0  0  0  0  0
   53.2869   83.6823   22.8497 C   0  0  0  0  0  0  0  0  0  0  0  0
   52.6030   83.6961   24.1354 N   0  0  0  0  0  0  0  0  0  0  0  0
   53.0916   84.0602   25.3429 C   0  0  0  0  0  0  0  0  0  0  0  0
   52.1211   83.9301   26.3090 C   0  0  0  0  0  0  0  0  0  0  0  0
   51.0286   83.4781   25.6654 N   0  0  0  0  0  0  0  0  0  0  0  0
   51.3275   83.3392   24.3559 C   0  0  0  0  0  0  0  0  0  0  0  0
   50.1565   82.7337   22.9741 Br  0  0  0  0  0  0  0  0  0  0  0  0
   52.3184   84.2199   27.6086 N   0  0  0  0  0  0  0  0  0  0  0  0
   53.5540   84.6618   27.9488 C   0  0  0  0  0  0  0  0  0  0  0  0
   53.7436   84.9371   29.1729 O   0  0  0  0  0  0  0  0  0  0  0  0
   54.5345   84.8038   27.0324 N   0  0  0  0  0  0  0  0  0  0  0  0
   54.3254   84.5106   25.7326 C   0  0  0  0  0  0  0  0  0  0  0  0
   55.2155   84.6318   24.8562 O   0  0  0  0  0  0  0  0  0  0  0  0
   51.2568   84.0657   28.6003 C   0  0  0  0  0  0  0  0  0  0  0  0
   55.4619   85.1477   27.3517 H   0  0  0  0  0  0  0  0  0  0  0  0
  3  4  1  0  0  0
  4  5  1  0  0  0
  4  8  2  0  0  0
  5  6  1  0  0  0
  5  2  1  0  0  0
  6  7  2  0  0  0
  6 13  1  0  0  0
  7  8  1  0  0  0
  7  9  1  0  0  0
  9 10  1  0  0  0
  9 15  1  0  0  0
 10 11  2  0  0  0
 10 12  1  0  0  0
 12 13  1  0  0  0
 13 14  2  0  0  0
  2  1  1  0  0  0
  1 17  1  0  0  0
 17 18  1  0  0  0
 18 19  1  0  0  0
 18 22  1  0  0  0
 19 20  2  0  0  0
 19 28  1  0  0  0
 20 21  1  0  0  0
 20 24  1  0  0  0
 21 22  2  0  0  0
 22 23  1  0  0  0
 24 25  1  0  0  0
 24 30  1  0  0  0
 25 26  2  0  0  0
 25 27  1  0  0  0
 27 28  1  0  0  0
 28 29  2  0  0  0
 12 16  1  0  0  0
 27 31  1  0  0  0
M  END
> <minimizedAffinity>
-8.04679

$$$$
709


 30 33  0  0  0  0  0  0  0  0999 V2000
   51.5551   83.3015   25.3809 C   0  0  0  0  0  0  0  0  0  0  0  0
   51.6320   80.2856   26.5736 Br  0  0  0  0  0  0  0  0  0  0  0  0
   51.1651   81.9421   27.4008 C   0  0  0  0  0  0  0  0  0  0  0  0
   51.1950   83.1273   26.7465 N   0  0  0  0  0  0  0  0  0  0  0  0
   50.8055   84.0615   27.6450 C   0  0  0  0  0  0  0  0  0  0  0  0
   50.5299   83.4603   28.8699 C   0  0  0  0  0  0  0  0  0  0  0  0
   50.7685   82.1449   28.6669 N   0  0  0  0  0  0  0  0  0  0  0  0
   50.1167   84.1873   29.9234 N   0  0  0  0  0  0  0  0  0  0  0  0
   49.9586   85.5182   29.8160 C   0  0  0  0  0  0  0  0  0  0  0  0
   49.5687   86.2134   30.8072 O   0  0  0  0  0  0  0  0  0  0  0  0
   50.2081   86.1525   28.6561 N   0  0  0  0  0  0  0  0  0  0  0  0
   50.6260   85.4230   27.5896 C   0  0  0  0  0  0  0  0  0  0  0  0
   50.8685   85.9830   26.4804 O   0  0  0  0  0  0  0  0  0  0  0  0
   49.8295   83.5702   31.1981 C   0  0  0  0  0  0  0  0  0  0  0  0
   50.0919   87.1832   28.5508 H   0  0  0  0  0  0  0  0  0  0  0  0
   53.0061   83.2841   25.0557 C   0  0  0  0  0  0  0  0  0  0  0  0
   53.5048   84.2517   24.1435 N   0  0  0  0  0  0  0  0  0  0  0  0
   54.0669   85.4379   24.4284 C   0  0  0  0  0  0  0  0  0  0  0  0
   54.4031   86.0711   23.2500 C   0  0  0  0  0  0  0  0  0  0  0  0
   54.0216   85.2165   22.2790 N   0  0  0  0  0  0  0  0  0  0  0  0
   53.4794   84.1147   22.7848 C   0  0  0  0  0  0  0  0  0  0  0  0
   52.7820   82.5996   21.8200 Br  0  0  0  0  0  0  0  0  0  0  0  0
   54.9850   87.2694   23.2741 N   0  0  0  0  0  0  0  0  0  0  0  0
   55.2493   87.8723   24.4361 C   0  0  0  0  0  0  0  0  0  0  0  0
   55.8036   89.0200   24.4909 O   0  0  0  0  0  0  0  0  0  0  0  0
   54.9528   87.3212   25.6264 N   0  0  0  0  0  0  0  0  0  0  0  0
   54.3691   86.1162   25.5989 C   0  0  0  0  0  0  0  0  0  0  0  0
   54.0922   85.5941   26.7016 O   0  0  0  0  0  0  0  0  0  0  0  0
   55.3412   87.9445   22.0479 C   0  0  0  0  0  0  0  0  0  0  0  0
   55.1750   87.8231   26.5239 H   0  0  0  0  0  0  0  0  0  0  0  0
  2  3  1  0  0  0
  3  4  1  0  0  0
  3  7  2  0  0  0
  4  5  1  0  0  0
  4  1  1  0  0  0
  5  6  2  0  0  0
  5 12  1  0  0  0
  6  7  1  0  0  0
  6  8  1  0  0  0
  8  9  1  0  0  0
  8 14  1  0  0  0
  9 10  2  0  0  0
  9 11  1  0  0  0
 11 12  1  0  0  0
 12 13  2  0  0  0
  1 16  1  0  0  0
 16 17  1  0  0  0
 17 18  1  0  0  0
 17 21  1  0  0  0
 18 19  2  0  0  0
 18 27  1  0  0  0
 19 20  1  0  0  0
 19 23  1  0  0  0
 20 21  2  0  0  0
 21 22  1  0  0  0
 23 24  1  0  0  0
 23 29  1  0  0  0
 24 25  2  0  0  0
 24 26  1  0  0  0
 26 27  1  0  0  0
 27 28  2  0  0  0
 11 15  1  0  0  0
 26 30  1  0  0  0
M  END
> <minimizedAffinity>
-7.62144

$$$$
716


 31 35  0  0  0  0  0  0  0  0999 V2000
   54.0062   91.0815   19.5719 C   0  0  0  0  0  0  0  0  0  0  0  0
   53.6655   89.6455   19.9004 C   0  0  0  0  0  0  0  0  0  0  0  0
   52.9258   89.0318   18.7478 C   0  0  0  0  0  0  0  0  0  0  0  0
   53.9245   88.9718   17.5835 C   0  0  0  0  0  0  0  0  0  0  0  0
   54.3920   90.3718   17.2761 C   0  0  0  0  0  0  0  0  0  0  0  0
   55.0319   91.0505   18.4595 C   0  0  0  0  0  0  0  0  0  0  0  0
   53.2233   91.1700   16.7928 C   0  0  0  0  0  0  0  0  0  0  0  0
   52.1910   91.2283   17.8965 C   0  0  0  0  0  0  0  0  0  0  0  0
   52.8222   91.8609   19.0910 C   0  0  0  0  0  0  0  0  0  0  0  0
   51.7571   89.8282   18.2714 C   0  0  0  0  0  0  0  0  0  0  0  0
   54.3184   94.2558   23.9525 Br  0  0  0  0  0  0  0  0  0  0  0  0
   54.7170   93.0052   22.5543 C   0  0  0  0  0  0  0  0  0  0  0  0
   53.9175   92.6195   21.5432 N   0  0  0  0  0  0  0  0  0  0  0  0
   54.5343   91.7372   20.7673 N   0  0  0  0  0  0  0  0  0  0  0  0
   55.7527   91.5695   21.3132 C   0  0  0  0  0  0  0  0  0  0  0  0
   55.8833   92.3368   22.4059 N   0  0  0  0  0  0  0  0  0  0  0  0
   52.4783   87.6577   19.0599 C   0  0  0  0  0  0  0  0  0  0  0  0
   51.2484   87.4614   19.2299 O   0  0  0  0  0  0  0  0  0  0  0  0
   53.4137   86.5882   19.1650 N   0  0  0  0  0  0  0  0  0  0  0  0
   54.4102   86.8315   19.0119 H   0  0  0  0  0  0  0  0  0  0  0  0
   53.0784   85.2406   19.4607 C   0  0  0  0  0  0  0  0  0  0  0  0
   53.3520   84.6176   20.6453 C   0  0  0  0  0  0  0  0  0  0  0  0
   52.8838   83.3506   20.5479 N   0  0  0  0  0  0  0  0  0  0  0  0
   52.3438   83.1888   19.3589 N   0  0  0  0  0  0  0  0  0  0  0  0
   52.4397   84.3211   18.6542 C   0  0  0  0  0  0  0  0  0  0  0  0
   52.9397   82.3033   21.5525 C   0  0  0  0  0  0  0  0  0  0  0  0
   54.0046   85.0979   21.8466 C   0  0  0  0  0  0  0  0  0  0  0  0
   55.2101   85.4512   21.8370 O   0  0  0  0  0  0  0  0  0  0  0  0
   53.3491   85.2055   23.1031 N   0  0  0  0  0  0  0  0  0  0  0  0
   53.0168   86.1668   23.4060 H   0  0  0  0  0  0  0  0  0  0  0  0
   53.1701   84.4157   23.7524 H   0  0  0  0  0  0  0  0  0  0  0  0
 11 12  1  0  0  0
 12 13  2  0  0  0
 12 16  1  0  0  0
 13 14  1  0  0  0
 14 15  1  0  0  0
 14  1  1  0  0  0
 15 16  2  0  0  0
  1  2  1  0  0  0
  1  6  1  0  0  0
  1  9  1  0  0  0
  2  3  1  0  0  0
  3  4  1  0  0  0
  3 10  1  0  0  0
  3 17  1  0  0  0
  4  5  1  0  0  0
  5  6  1  0  0  0
  5  7  1  0  0  0
  7  8  1  0  0  0
  8  9  1  0  0  0
  8 10  1  0  0  0
 17 18  2  0  0  0
 17 19  1  0  0  0
 19 21  1  0  0  0
 21 22  2  0  0  0
 21 25  1  0  0  0
 22 23  1  0  0  0
 22 27  1  0  0  0
 23 24  1  0  0  0
 23 26  1  0  0  0
 24 25  2  0  0  0
 27 28  2  0  0  0
 27 29  1  0  0  0
 19 20  1  0  0  0
 29 30  1  0  0  0
 29 31  1  0  0  0
M  END
> <minimizedAffinity>
-9.35393

$$$$
723


 23 26  0  0  0  0  0  0  0  0999 V2000
   51.6390   82.9140   28.1494 N   0  0  0  0  0  0  0  0  0  0  0  0
   50.8171   83.3600   29.2302 C   0  0  0  0  0  0  0  0  0  0  0  0
   51.5667   83.5805   30.4874 C   0  0  0  0  0  0  0  0  0  0  0  0
   52.8652   83.1511   30.5278 O   0  0  0  0  0  0  0  0  0  0  0  0
   53.0671   81.9619   29.8361 C   0  0  0  0  0  0  0  0  0  0  0  0
   52.7951   82.1014   28.3728 C   0  0  0  0  0  0  0  0  0  0  0  0
   49.5583   80.4529   27.8270 Br  0  0  0  0  0  0  0  0  0  0  0  0
   49.7428   81.3760   26.1726 C   0  0  0  0  0  0  0  0  0  0  0  0
   49.1302   81.0896   25.0022 N   0  0  0  0  0  0  0  0  0  0  0  0
   49.4598   81.9481   24.0649 N   0  0  0  0  0  0  0  0  0  0  0  0
   50.3113   82.8187   24.6366 C   0  0  0  0  0  0  0  0  0  0  0  0
   50.9394   83.8956   24.1533 N   0  0  0  0  0  0  0  0  0  0  0  0
   51.7474   84.6434   24.9262 C   0  0  0  0  0  0  0  0  0  0  0  0
   51.9487   84.3260   26.2174 N   0  0  0  0  0  0  0  0  0  0  0  0
   51.3407   83.2378   26.7829 C   0  0  0  0  0  0  0  0  0  0  0  0
   50.5223   82.4916   25.9820 C   0  0  0  0  0  0  0  0  0  0  0  0
   48.9886   81.9400   22.6925 C   0  0  0  0  0  0  0  0  0  0  0  0
   49.9694   84.5076   28.8359 C   0  0  0  0  0  0  0  0  0  0  0  0
   50.2887   85.7967   28.9578 N   0  0  0  0  0  0  0  0  0  0  0  0
   49.2262   86.5030   28.4758 C   0  0  0  0  0  0  0  0  0  0  0  0
   48.3116   85.5974   28.0847 N   0  0  0  0  0  0  0  0  0  0  0  0
   48.7824   84.4059   28.3119 O   0  0  0  0  0  0  0  0  0  0  0  0
   49.0914   87.9753   28.3926 C   0  0  0  0  0  0  0  0  0  0  0  0
  7  8  1  0  0  0
  8  9  2  0  0  0
  8 16  1  0  0  0
  9 10  1  0  0  0
 10 11  1  0  0  0
 10 17  1  0  0  0
 11 12  1  0  0  0
 11 16  2  0  0  0
 12 13  2  0  0  0
 13 14  1  0  0  0
 14 15  2  0  0  0
 15 16  1  0  0  0
 15  1  1  0  0  0
  1  2  1  0  0  0
  1  6  1  0  0  0
  2  3  1  0  0  0
  2 18  1  0  0  0
  3  4  1  0  0  0
  4  5  1  0  0  0
  5  6  1  0  0  0
 18 19  2  0  0  0
 18 22  1  0  0  0
 19 20  1  0  0  0
 20 21  2  0  0  0
 20 23  1  0  0  0
 21 22  1  0  0  0
M  END
> <minimizedAffinity>
-6.48721

$$$$
727


 21 24  0  0  0  0  0  0  0  0999 V2000
   51.2440   98.5297   30.7621 Br  0  0  0  0  0  0  0  0  0  0  0  0
   50.3258   99.6554   29.5319 C   0  0  0  0  0  0  0  0  0  0  0  0
   49.2727  100.4729   29.8267 N   0  0  0  0  0  0  0  0  0  0  0  0
   48.9171  101.1097   28.7365 N   0  0  0  0  0  0  0  0  0  0  0  0
   49.7045  100.7404   27.7132 C   0  0  0  0  0  0  0  0  0  0  0  0
   49.7714  101.0897   26.4184 N   0  0  0  0  0  0  0  0  0  0  0  0
   50.6788  100.5703   25.5960 C   0  0  0  0  0  0  0  0  0  0  0  0
   51.5508   99.6775   26.0550 N   0  0  0  0  0  0  0  0  0  0  0  0
   51.5706   99.2497   27.3609 C   0  0  0  0  0  0  0  0  0  0  0  0
   50.6285   99.7980   28.1947 C   0  0  0  0  0  0  0  0  0  0  0  0
   47.8349  102.0916   28.5728 C   0  0  0  0  0  0  0  0  0  0  0  0
   52.4795   98.2806   27.7856 N   0  0  0  0  0  0  0  0  0  0  0  0
   52.0974   96.8901   27.8966 C   0  0  0  0  0  0  0  0  0  0  0  0
   52.7890   96.1337   26.7430 C   0  0  0  0  0  0  0  0  0  0  0  0
   54.1402   96.6965   26.5318 C   0  0  0  0  0  0  0  0  0  0  0  0
   55.0992   96.2183   25.7057 N   0  0  0  0  0  0  0  0  0  0  0  0
   56.1714   97.0209   25.8142 C   0  0  0  0  0  0  0  0  0  0  0  0
   55.9286   97.9984   26.6852 N   0  0  0  0  0  0  0  0  0  0  0  0
   54.6690   97.7995   27.1322 C   0  0  0  0  0  0  0  0  0  0  0  0
   53.8547   98.5629   28.1089 C   0  0  0  0  0  0  0  0  0  0  0  0
   55.0400   95.0661   24.8433 C   0  0  0  0  0  0  0  0  0  0  0  0
  1  2  1  0  0  0
  2  3  2  0  0  0
  2 10  1  0  0  0
  3  4  1  0  0  0
  4  5  1  0  0  0
  4 11  1  0  0  0
  5  6  1  0  0  0
  5 10  2  0  0  0
  6  7  2  0  0  0
  7  8  1  0  0  0
  8  9  2  0  0  0
  9 10  1  0  0  0
  9 12  1  0  0  0
 12 13  1  0  0  0
 12 20  1  0  0  0
 13 14  1  0  0  0
 14 15  1  0  0  0
 15 16  1  0  0  0
 15 19  2  0  0  0
 16 17  1  0  0  0
 16 21  1  0  0  0
 17 18  2  0  0  0
 18 19  1  0  0  0
 19 20  1  0  0  0
M  END
> <minimizedAffinity>
-6.85523

$$$$
729


 27 30  0  0  0  0  0  0  0  0999 V2000
   53.1399   88.3869   19.2708 N   0  0  0  0  0  0  0  0  0  0  0  0
   51.8432   87.9472   19.7018 C   0  0  0  0  0  0  0  0  0  0  0  0
   51.9311   86.4188   19.7286 C   0  0  0  0  0  0  0  0  0  0  0  0
   53.0412   85.9444   18.8947 N   0  0  0  0  0  0  0  0  0  0  0  0
   53.0606   86.6924   17.6351 C   0  0  0  0  0  0  0  0  0  0  0  0
   53.4721   88.1306   17.8905 C   0  0  0  0  0  0  0  0  0  0  0  0
   51.8533   91.2342   18.5929 Br  0  0  0  0  0  0  0  0  0  0  0  0
   53.2230   91.4061   19.8927 C   0  0  0  0  0  0  0  0  0  0  0  0
   53.6603   92.5211   20.5048 N   0  0  0  0  0  0  0  0  0  0  0  0
   54.6359   92.2681   21.3352 N   0  0  0  0  0  0  0  0  0  0  0  0
   54.8710   90.9428   21.2889 C   0  0  0  0  0  0  0  0  0  0  0  0
   55.7518   90.1432   21.9146 N   0  0  0  0  0  0  0  0  0  0  0  0
   55.8066   88.8265   21.6951 C   0  0  0  0  0  0  0  0  0  0  0  0
   54.9619   88.2791   20.8295 N   0  0  0  0  0  0  0  0  0  0  0  0
   54.0387   89.0003   20.1504 C   0  0  0  0  0  0  0  0  0  0  0  0
   53.9855   90.3702   20.3806 C   0  0  0  0  0  0  0  0  0  0  0  0
   55.3889   93.1750   22.1901 C   0  0  0  0  0  0  0  0  0  0  0  0
   52.7599   84.5497   18.5918 C   0  0  0  0  0  0  0  0  0  0  0  0
   52.2698   83.8952   19.9124 C   0  0  0  0  0  0  0  0  0  0  0  0
   53.9746   83.8452   18.1453 C   0  0  0  0  0  0  0  0  0  0  0  0
   54.8284   83.6300   19.1032 O   0  0  0  0  0  0  0  0  0  0  0  0
   54.3095   83.4003   16.8564 N   0  0  0  0  0  0  0  0  0  0  0  0
   53.5673   83.5447   15.6406 C   0  0  0  0  0  0  0  0  0  0  0  0
   53.4916   82.2856   14.8022 C   0  0  0  0  0  0  0  0  0  0  0  0
   54.7175   81.4403   14.8451 C   0  0  0  0  0  0  0  0  0  0  0  0
   55.2726   81.3001   16.2465 C   0  0  0  0  0  0  0  0  0  0  0  0
   55.6033   82.6953   16.7087 C   0  0  0  0  0  0  0  0  0  0  0  0
  7  8  1  0  0  0
  8  9  2  0  0  0
  8 16  1  0  0  0
  9 10  1  0  0  0
 10 11  1  0  0  0
 10 17  1  0  0  0
 11 12  1  0  0  0
 11 16  2  0  0  0
 12 13  2  0  0  0
 13 14  1  0  0  0
 14 15  2  0  0  0
 15 16  1  0  0  0
 15  1  1  0  0  0
  1  2  1  0  0  0
  1  6  1  0  0  0
  2  3  1  0  0  0
  3  4  1  0  0  0
  4  5  1  0  0  0
  4 18  1  0  0  0
  5  6  1  0  0  0
 18 19  1  0  0  0
 18 20  1  0  0  0
 20 21  2  0  0  0
 20 22  1  0  0  0
 22 23  1  0  0  0
 22 27  1  0  0  0
 23 24  1  0  0  0
 24 25  1  0  0  0
 25 26  1  0  0  0
 26 27  1  0  0  0
M  END
> <minimizedAffinity>
-7.36754

$$$$
737


 21 24  0  0  0  0  0  0  0  0999 V2000
   51.6192   98.0800   27.5304 C   0  0  0  0  0  0  0  0  0  0  0  0
   50.6415   97.4430   28.1338 C   0  0  0  0  0  0  0  0  0  0  0  0
   49.3890   98.1199   28.5041 C   0  0  0  0  0  0  0  0  0  0  0  0
   48.3978   97.4921   29.1113 C   0  0  0  0  0  0  0  0  0  0  0  0
   49.3194   99.4961   28.1629 N   0  0  0  0  0  0  0  0  0  0  0  0
   50.3973  100.1743   27.5038 C   0  0  0  0  0  0  0  0  0  0  0  0
   51.5107   99.4518   27.2072 N   0  0  0  0  0  0  0  0  0  0  0  0
   52.3462  100.3074   26.6073 N   0  0  0  0  0  0  0  0  0  0  0  0
   51.8028  101.5301   26.5170 C   0  0  0  0  0  0  0  0  0  0  0  0
   50.5866  101.4357   27.0793 N   0  0  0  0  0  0  0  0  0  0  0  0
   48.4574  100.0327   28.3988 H   0  0  0  0  0  0  0  0  0  0  0  0
   57.6219   95.9813   24.7968 Br  0  0  0  0  0  0  0  0  0  0  0  0
   55.8072   95.5266   25.2164 C   0  0  0  0  0  0  0  0  0  0  0  0
   54.9848   96.1207   26.0886 N   0  0  0  0  0  0  0  0  0  0  0  0
   53.8064   95.5004   26.0830 C   0  0  0  0  0  0  0  0  0  0  0  0
   53.8929   94.4882   25.1804 N   0  0  0  0  0  0  0  0  0  0  0  0
   55.1200   94.4839   24.6301 C   0  0  0  0  0  0  0  0  0  0  0  0
   52.6984   95.9618   26.9711 C   0  0  0  0  0  0  0  0  0  0  0  0
   52.7966   97.3822   27.1987 N   0  0  0  0  0  0  0  0  0  0  0  0
   54.0288   98.1301   27.1094 C   0  0  0  0  0  0  0  0  0  0  0  0
   55.2398   97.2589   26.9485 C   0  0  0  0  0  0  0  0  0  0  0  0
 12 13  1  0  0  0
 13 14  1  0  0  0
 13 17  2  0  0  0
 14 15  1  0  0  0
 14 21  1  0  0  0
 15 16  2  0  0  0
 15 18  1  0  0  0
 16 17  1  0  0  0
 18 19  1  0  0  0
 19 20  1  0  0  0
 19  1  1  0  0  0
 20 21  1  0  0  0
  1  2  2  0  0  0
  1  7  1  0  0  0
  2  3  1  0  0  0
  3  4  2  0  0  0
  3  5  1  0  0  0
  5  6  1  0  0  0
  6  7  1  0  0  0
  6 10  2  0  0  0
  7  8  1  0  0  0
  8  9  2  0  0  0
  9 10  1  0  0  0
  5 11  1  0  0  0
M  END
> <minimizedAffinity>
-8.20175

$$$$
743


 30 33  0  0  0  0  0  0  0  0999 V2000
   56.1699   88.7432   22.4523 C   0  0  0  0  0  0  0  0  0  0  0  0
   57.2630   88.0960   22.3313 O   0  0  0  0  0  0  0  0  0  0  0  0
   55.7726   89.6734   21.4543 N   0  0  0  0  0  0  0  0  0  0  0  0
   56.6091   89.8826   20.3050 C   0  0  0  0  0  0  0  0  0  0  0  0
   55.8548   90.1995   19.0501 C   0  0  0  0  0  0  0  0  0  0  0  0
   54.5012   90.7976   19.2977 C   0  0  0  0  0  0  0  0  0  0  0  0
   54.1229   91.6625   18.2218 N   0  0  0  0  0  0  0  0  0  0  0  0
   52.8661   92.3073   18.3974 C   0  0  0  0  0  0  0  0  0  0  0  0
   51.7660   91.4379   18.9099 C   0  0  0  0  0  0  0  0  0  0  0  0
   52.1937   90.0362   19.1512 C   0  0  0  0  0  0  0  0  0  0  0  0
   51.5002   88.8998   19.2331 N   0  0  0  0  0  0  0  0  0  0  0  0
   52.3416   87.8830   19.4662 C   0  0  0  0  0  0  0  0  0  0  0  0
   53.5907   88.3625   19.5365 N   0  0  0  0  0  0  0  0  0  0  0  0
   53.5074   89.6850   19.3440 C   0  0  0  0  0  0  0  0  0  0  0  0
   54.4730   91.4868   20.6525 C   0  0  0  0  0  0  0  0  0  0  0  0
   54.5083   90.3692   21.6739 C   0  0  0  0  0  0  0  0  0  0  0  0
   54.8625   92.3913   18.1167 H   0  0  0  0  0  0  0  0  0  0  0  0
   54.4849   87.8010   19.7121 H   0  0  0  0  0  0  0  0  0  0  0  0
   55.3733   88.4703   23.6591 C   0  0  0  0  0  0  0  0  0  0  0  0
   54.8049   87.0851   23.6885 C   0  0  0  0  0  0  0  0  0  0  0  0
   54.0399   85.2330   22.1944 C   0  0  0  0  0  0  0  0  0  0  0  0
   53.7784   84.5434   23.2241 O   0  0  0  0  0  0  0  0  0  0  0  0
   54.5666   86.5384   22.3892 N   0  0  0  0  0  0  0  0  0  0  0  0
   54.7821   87.1058   21.5475 H   0  0  0  0  0  0  0  0  0  0  0  0
   55.0034   83.2316   17.3260 Br  0  0  0  0  0  0  0  0  0  0  0  0
   54.1380   83.8496   18.9299 C   0  0  0  0  0  0  0  0  0  0  0  0
   54.6717   84.3472   20.0049 O   0  0  0  0  0  0  0  0  0  0  0  0
   53.7903   84.6610   20.8952 C   0  0  0  0  0  0  0  0  0  0  0  0
   52.5267   84.3488   20.3793 C   0  0  0  0  0  0  0  0  0  0  0  0
   52.7757   83.8323   19.1253 C   0  0  0  0  0  0  0  0  0  0  0  0
 25 26  1  0  0  0
 26 27  1  0  0  0
 26 30  2  0  0  0
 27 28  1  0  0  0
 28 29  2  0  0  0
 28 21  1  0  0  0
 29 30  1  0  0  0
 21 22  2  0  0  0
 21 23  1  0  0  0
 23 20  1  0  0  0
 20 19  1  0  0  0
 19  1  1  0  0  0
  1  2  2  0  0  0
  1  3  1  0  0  0
  3  4  1  0  0  0
  3 16  1  0  0  0
  4  5  1  0  0  0
  5  6  1  0  0  0
  6  7  1  0  0  0
  6 14  1  0  0  0
  6 15  1  0  0  0
  7  8  1  0  0  0
  8  9  1  0  0  0
  9 10  1  0  0  0
 10 11  1  0  0  0
 10 14  2  0  0  0
 11 12  2  0  0  0
 12 13  1  0  0  0
 13 14  1  0  0  0
 15 16  1  0  0  0
 23 24  1  0  0  0
  7 17  1  0  0  0
 13 18  1  0  0  0
M  END
> <minimizedAffinity>
-8.47081

$$$$
746


 30 33  0  0  0  0  0  0  0  0999 V2000
   55.7112   90.1521   21.9126 C   0  0  0  0  0  0  0  0  0  0  0  0
   56.0536   89.8768   20.7099 O   0  0  0  0  0  0  0  0  0  0  0  0
   56.1079   89.2511   22.9073 N   0  0  0  0  0  0  0  0  0  0  0  0
   55.7944   89.4393   24.3090 C   0  0  0  0  0  0  0  0  0  0  0  0
   54.9429   88.2887   24.7487 C   0  0  0  0  0  0  0  0  0  0  0  0
   55.5570   86.9683   24.4074 C   0  0  0  0  0  0  0  0  0  0  0  0
   55.6907   86.1943   25.6291 N   0  0  0  0  0  0  0  0  0  0  0  0
   54.3568   85.9041   26.1218 C   0  0  0  0  0  0  0  0  0  0  0  0
   53.8596   84.6975   25.3177 C   0  0  0  0  0  0  0  0  0  0  0  0
   53.9292   85.1074   23.8945 C   0  0  0  0  0  0  0  0  0  0  0  0
   53.3005   84.5894   22.8219 N   0  0  0  0  0  0  0  0  0  0  0  0
   53.6849   85.3024   21.7517 C   0  0  0  0  0  0  0  0  0  0  0  0
   54.5437   86.2507   22.1675 N   0  0  0  0  0  0  0  0  0  0  0  0
   54.7181   86.1584   23.4962 C   0  0  0  0  0  0  0  0  0  0  0  0
   56.9486   87.1859   23.8132 C   0  0  0  0  0  0  0  0  0  0  0  0
   56.8748   88.0570   22.6018 C   0  0  0  0  0  0  0  0  0  0  0  0
   56.1649   86.7582   26.3885 H   0  0  0  0  0  0  0  0  0  0  0  0
   52.6275   83.7834   22.7708 H   0  0  0  0  0  0  0  0  0  0  0  0
   54.9390   91.3932   22.0927 C   0  0  0  0  0  0  0  0  0  0  0  0
   54.3496   91.9620   20.8532 C   0  0  0  0  0  0  0  0  0  0  0  0
   55.1203   93.5175   23.4250 C   0  0  0  0  0  0  0  0  0  0  0  0
   53.8775   93.6284   23.4508 O   0  0  0  0  0  0  0  0  0  0  0  0
   55.7062   92.4241   22.7622 N   0  0  0  0  0  0  0  0  0  0  0  0
   56.7433   92.3412   22.7466 H   0  0  0  0  0  0  0  0  0  0  0  0
   56.3570   97.5421   26.7255 Br  0  0  0  0  0  0  0  0  0  0  0  0
   56.4941   96.1517   25.4010 C   0  0  0  0  0  0  0  0  0  0  0  0
   55.5177   95.3764   25.0059 O   0  0  0  0  0  0  0  0  0  0  0  0
   55.9471   94.5197   24.0785 C   0  0  0  0  0  0  0  0  0  0  0  0
   57.2850   94.7842   23.8862 C   0  0  0  0  0  0  0  0  0  0  0  0
   57.6501   95.8142   24.7153 C   0  0  0  0  0  0  0  0  0  0  0  0
 25 26  1  0  0  0
 26 27  1  0  0  0
 26 30  2  0  0  0
 27 28  1  0  0  0
 28 29  2  0  0  0
 28 21  1  0  0  0
 29 30  1  0  0  0
 21 22  2  0  0  0
 21 23  1  0  0  0
 23 19  1  0  0  0
 19 20  1  0  0  0
 19  1  1  0  0  0
  1  2  2  0  0  0
  1  3  1  0  0  0
  3  4  1  0  0  0
  3 16  1  0  0  0
  4  5  1  0  0  0
  5  6  1  0  0  0
  6  7  1  0  0  0
  6 14  1  0  0  0
  6 15  1  0  0  0
  7  8  1  0  0  0
  8  9  1  0  0  0
  9 10  1  0  0  0
 10 11  1  0  0  0
 10 14  2  0  0  0
 11 12  1  0  0  0
 12 13  2  0  0  0
 13 14  1  0  0  0
 15 16  1  0  0  0
 23 24  1  0  0  0
  7 17  1  0  0  0
 11 18  1  0  0  0
M  END
> <minimizedAffinity>
-9.04840

$$$$
754


 27 30  0  0  0  0  0  0  0  0999 V2000
   56.5108   87.2412   22.1356 C   0  0  0  0  0  0  0  0  0  0  0  0
   57.3349   86.4246   21.7000 O   0  0  0  0  0  0  0  0  0  0  0  0
   56.2418   87.2978   23.5252 N   0  0  0  0  0  0  0  0  0  0  0  0
   56.9335   86.4023   24.4297 C   0  0  0  0  0  0  0  0  0  0  0  0
   55.9818   85.5038   25.1814 C   0  0  0  0  0  0  0  0  0  0  0  0
   54.7200   86.2512   25.3116 N   0  0  0  0  0  0  0  0  0  0  0  0
   54.8411   87.6566   25.4977 C   0  0  0  0  0  0  0  0  0  0  0  0
   55.2961   88.2126   24.1355 C   0  0  0  0  0  0  0  0  0  0  0  0
   53.5221   85.4996   25.2395 C   0  0  0  0  0  0  0  0  0  0  0  0
   52.7159   85.3383   26.3253 N   0  0  0  0  0  0  0  0  0  0  0  0
   51.5793   84.6268   26.2716 C   0  0  0  0  0  0  0  0  0  0  0  0
   51.2005   84.0411   25.1150 N   0  0  0  0  0  0  0  0  0  0  0  0
   51.9325   84.1463   23.9922 C   0  0  0  0  0  0  0  0  0  0  0  0
   53.1143   84.8963   24.0851 C   0  0  0  0  0  0  0  0  0  0  0  0
   51.5343   83.5101   22.7075 C   0  0  0  0  0  0  0  0  0  0  0  0
   50.7738   84.4893   27.4300 N   0  0  0  0  0  0  0  0  0  0  0  0
   50.6227   85.5308   28.4170 C   0  0  0  0  0  0  0  0  0  0  0  0
   49.1681   85.8031   28.6588 C   0  0  0  0  0  0  0  0  0  0  0  0
   48.3308   84.8554   28.0731 O   0  0  0  0  0  0  0  0  0  0  0  0
   48.7673   83.5658   28.3637 C   0  0  0  0  0  0  0  0  0  0  0  0
   50.0595   83.2504   27.6505 C   0  0  0  0  0  0  0  0  0  0  0  0
   52.7296   89.2723   18.8768 Br  0  0  0  0  0  0  0  0  0  0  0  0
   54.3605   88.9841   19.8755 C   0  0  0  0  0  0  0  0  0  0  0  0
   54.6394   88.0219   20.6786 O   0  0  0  0  0  0  0  0  0  0  0  0
   55.8308   88.1368   21.1829 C   0  0  0  0  0  0  0  0  0  0  0  0
   56.3830   89.2831   20.6587 C   0  0  0  0  0  0  0  0  0  0  0  0
   55.4428   89.8274   19.8217 C   0  0  0  0  0  0  0  0  0  0  0  0
 22 23  1  0  0  0
 23 24  1  0  0  0
 23 27  2  0  0  0
 24 25  1  0  0  0
 25 26  2  0  0  0
 25  1  1  0  0  0
 26 27  1  0  0  0
  1  2  2  0  0  0
  1  3  1  0  0  0
  3  4  1  0  0  0
  3  8  1  0  0  0
  4  5  1  0  0  0
  5  6  1  0  0  0
  6  7  1  0  0  0
  6  9  1  0  0  0
  7  8  1  0  0  0
  9 10  2  0  0  0
  9 14  1  0  0  0
 10 11  1  0  0  0
 11 12  2  0  0  0
 11 16  1  0  0  0
 12 13  1  0  0  0
 13 14  2  0  0  0
 13 15  1  0  0  0
 16 17  1  0  0  0
 16 21  1  0  0  0
 17 18  1  0  0  0
 18 19  1  0  0  0
 19 20  1  0  0  0
 20 21  1  0  0  0
M  END
> <minimizedAffinity>
-8.79400

$$$$
755


 28 31  0  0  0  0  0  0  0  0999 V2000
   55.2253   90.2825   21.8822 C   0  0  0  0  0  0  0  0  0  0  0  0
   55.2433   91.4105   22.3970 O   0  0  0  0  0  0  0  0  0  0  0  0
   55.6276   89.1367   22.6179 N   0  0  0  0  0  0  0  0  0  0  0  0
   55.6037   87.8119   22.0035 C   0  0  0  0  0  0  0  0  0  0  0  0
   56.0177   86.7558   23.0260 C   0  0  0  0  0  0  0  0  0  0  0  0
   55.2240   86.9781   24.2186 N   0  0  0  0  0  0  0  0  0  0  0  0
   55.2868   88.2637   24.8586 C   0  0  0  0  0  0  0  0  0  0  0  0
   56.0751   89.2140   23.9941 C   0  0  0  0  0  0  0  0  0  0  0  0
   54.3885   85.9483   24.7627 C   0  0  0  0  0  0  0  0  0  0  0  0
   54.2758   85.7590   26.0849 N   0  0  0  0  0  0  0  0  0  0  0  0
   53.4890   84.7886   26.5637 C   0  0  0  0  0  0  0  0  0  0  0  0
   52.7903   83.9746   25.7485 N   0  0  0  0  0  0  0  0  0  0  0  0
   52.8588   84.1108   24.4122 C   0  0  0  0  0  0  0  0  0  0  0  0
   53.6744   85.1168   23.9387 C   0  0  0  0  0  0  0  0  0  0  0  0
   53.3703   84.5878   28.0294 C   0  0  0  0  0  0  0  0  0  0  0  0
   52.1437   83.2809   23.5142 N   0  0  0  0  0  0  0  0  0  0  0  0
   51.0514   83.8205   22.7306 C   0  0  0  0  0  0  0  0  0  0  0  0
   50.7105   82.7958   21.6689 C   0  0  0  0  0  0  0  0  0  0  0  0
   50.2851   81.5839   22.3155 N   0  0  0  0  0  0  0  0  0  0  0  0
   51.1313   81.1357   23.3764 C   0  0  0  0  0  0  0  0  0  0  0  0
   52.4509   81.8759   23.3275 C   0  0  0  0  0  0  0  0  0  0  0  0
   48.8888   81.6725   22.6596 C   0  0  0  0  0  0  0  0  0  0  0  0
   51.9672   89.1682   17.7655 Br  0  0  0  0  0  0  0  0  0  0  0  0
   53.5085   89.6893   18.7676 C   0  0  0  0  0  0  0  0  0  0  0  0
   53.5978   89.7272   20.0730 O   0  0  0  0  0  0  0  0  0  0  0  0
   54.7782   90.1240   20.4791 C   0  0  0  0  0  0  0  0  0  0  0  0
   55.5164   90.3626   19.3449 C   0  0  0  0  0  0  0  0  0  0  0  0
   54.7247   90.0913   18.2586 C   0  0  0  0  0  0  0  0  0  0  0  0
 23 24  1  0  0  0
 24 25  1  0  0  0
 24 28  2  0  0  0
 25 26  1  0  0  0
 26 27  2  0  0  0
 26  1  1  0  0  0
 27 28  1  0  0  0
  1  2  2  0  0  0
  1  3  1  0  0  0
  3  4  1  0  0  0
  3  8  1  0  0  0
  4  5  1  0  0  0
  5  6  1  0  0  0
  6  7  1  0  0  0
  6  9  1  0  0  0
  7  8  1  0  0  0
  9 10  2  0  0  0
  9 14  1  0  0  0
 10 11  1  0  0  0
 11 12  2  0  0  0
 11 15  1  0  0  0
 12 13  1  0  0  0
 13 14  2  0  0  0
 13 16  1  0  0  0
 16 17  1  0  0  0
 16 21  1  0  0  0
 17 18  1  0  0  0
 18 19  1  0  0  0
 19 20  1  0  0  0
 19 22  1  0  0  0
 20 21  1  0  0  0
M  END
> <minimizedAffinity>
-8.37415

$$$$
767


 32 35  0  0  0  0  0  0  0  0999 V2000
   55.1354   88.0740   25.1887 C   0  0  0  0  0  0  0  0  0  0  0  0
   55.1201   86.1843   23.5709 C   0  0  0  0  0  0  0  0  0  0  0  0
   56.2416   85.7972   24.0451 O   0  0  0  0  0  0  0  0  0  0  0  0
   54.5210   87.3471   24.1303 N   0  0  0  0  0  0  0  0  0  0  0  0
   53.6105   87.6670   23.7509 H   0  0  0  0  0  0  0  0  0  0  0  0
   54.0016   84.4714   20.5626 C   0  0  0  0  0  0  0  0  0  0  0  0
   53.0371   84.2320   21.4794 N   0  0  0  0  0  0  0  0  0  0  0  0
   53.3507   84.8113   22.6031 O   0  0  0  0  0  0  0  0  0  0  0  0
   54.4940   85.4372   22.4870 C   0  0  0  0  0  0  0  0  0  0  0  0
   54.8934   85.2264   21.2273 N   0  0  0  0  0  0  0  0  0  0  0  0
   55.3296   81.5897   16.2393 Br  0  0  0  0  0  0  0  0  0  0  0  0
   54.5652   82.8700   17.4118 C   0  0  0  0  0  0  0  0  0  0  0  0
   54.7446   83.0161   18.6892 O   0  0  0  0  0  0  0  0  0  0  0  0
   54.0515   84.0121   19.1798 C   0  0  0  0  0  0  0  0  0  0  0  0
   53.3559   84.5654   18.1205 C   0  0  0  0  0  0  0  0  0  0  0  0
   53.6696   83.8484   16.9757 C   0  0  0  0  0  0  0  0  0  0  0  0
   56.0465   89.1780   24.6957 C   0  0  0  0  0  0  0  0  0  0  0  0
   55.3906   89.9922   23.6824 N   0  0  0  0  0  0  0  0  0  0  0  0
   55.6808   89.7594   22.3272 C   0  0  0  0  0  0  0  0  0  0  0  0
   56.5239   88.8194   22.1013 O   0  0  0  0  0  0  0  0  0  0  0  0
   54.7142   90.7349   23.9357 H   0  0  0  0  0  0  0  0  0  0  0  0
   55.1489   90.4431   21.1759 C   0  0  0  0  0  0  0  0  0  0  0  0
   55.2483   89.8262   19.9296 C   0  0  0  0  0  0  0  0  0  0  0  0
   54.7413   90.4509   18.8180 C   0  0  0  0  0  0  0  0  0  0  0  0
   54.1440   91.6682   18.9272 C   0  0  0  0  0  0  0  0  0  0  0  0
   53.6294   92.3001   17.7923 C   0  0  0  0  0  0  0  0  0  0  0  0
   53.7066   91.7242   16.5476 C   0  0  0  0  0  0  0  0  0  0  0  0
   54.3106   90.4973   16.4439 C   0  0  0  0  0  0  0  0  0  0  0  0
   54.8229   89.8614   17.5528 C   0  0  0  0  0  0  0  0  0  0  0  0
   54.0662   92.2183   20.1045 O   0  0  0  0  0  0  0  0  0  0  0  0
   54.5352   91.6697   21.2195 C   0  0  0  0  0  0  0  0  0  0  0  0
   54.3963   92.3069   22.2899 O   0  0  0  0  0  0  0  0  0  0  0  0
 11 12  1  0  0  0
 12 13  1  0  0  0
 12 16  2  0  0  0
 13 14  1  0  0  0
 14 15  2  0  0  0
 14  6  1  0  0  0
 15 16  1  0  0  0
  6  7  2  0  0  0
  6 10  1  0  0  0
  7  8  1  0  0  0
  8  9  1  0  0  0
  9 10  2  0  0  0
  9  2  1  0  0  0
  2  3  2  0  0  0
  2  4  1  0  0  0
  4  1  1  0  0  0
  1 17  1  0  0  0
 17 18  1  0  0  0
 18 19  1  0  0  0
 19 20  2  0  0  0
 19 22  1  0  0  0
 22 23  2  0  0  0
 22 31  1  0  0  0
 23 24  1  0  0  0
 24 25  2  0  0  0
 24 29  1  0  0  0
 25 26  1  0  0  0
 25 30  1  0  0  0
 26 27  2  0  0  0
 27 28  1  0  0  0
 28 29  2  0  0  0
 30 31  1  0  0  0
 31 32  2  0  0  0
  4  5  1  0  0  0
 18 21  1  0  0  0
M  END
> <minimizedAffinity>
-10.07741

$$$$
769


 26 29  0  0  0  0  0  0  0  0999 V2000
   49.7473  101.2329   28.3077 C   0  0  0  0  0  0  0  0  0  0  0  0
   50.1273  102.1177   27.4053 O   0  0  0  0  0  0  0  0  0  0  0  0
   50.0708   99.9142   28.0249 N   0  0  0  0  0  0  0  0  0  0  0  0
   50.7986   99.6089   26.7668 C   0  0  0  0  0  0  0  0  0  0  0  0
   52.0654   98.8616   27.1097 C   0  0  0  0  0  0  0  0  0  0  0  0
   51.7467   97.6905   27.8259 N   0  0  0  0  0  0  0  0  0  0  0  0
   50.3472   97.5554   28.0453 C   0  0  0  0  0  0  0  0  0  0  0  0
   49.7864   98.7768   28.8128 C   0  0  0  0  0  0  0  0  0  0  0  0
   49.7398  103.4292   33.1964 Br  0  0  0  0  0  0  0  0  0  0  0  0
   48.9385  102.8484   31.5932 C   0  0  0  0  0  0  0  0  0  0  0  0
   49.6878  102.2585   30.5707 C   0  0  0  0  0  0  0  0  0  0  0  0
   49.0597  101.8528   29.4242 C   0  0  0  0  0  0  0  0  0  0  0  0
   47.6792  102.0610   29.3513 C   0  0  0  0  0  0  0  0  0  0  0  0
   47.0280  102.6119   30.3253 O   0  0  0  0  0  0  0  0  0  0  0  0
   47.5855  103.0044   31.4161 C   0  0  0  0  0  0  0  0  0  0  0  0
   46.8669  103.5302   32.3053 O   0  0  0  0  0  0  0  0  0  0  0  0
   52.3465   96.4809   27.3601 C   0  0  0  0  0  0  0  0  0  0  0  0
   53.7063   96.6155   26.8073 C   0  0  0  0  0  0  0  0  0  0  0  0
   54.6211   97.5309   27.2138 C   0  0  0  0  0  0  0  0  0  0  0  0
   55.8646   97.5812   26.6344 C   0  0  0  0  0  0  0  0  0  0  0  0
   56.1822   96.6998   25.6368 C   0  0  0  0  0  0  0  0  0  0  0  0
   55.2703   95.7619   25.2075 C   0  0  0  0  0  0  0  0  0  0  0  0
   54.0489   95.7342   25.7980 C   0  0  0  0  0  0  0  0  0  0  0  0
   57.4767   96.9350   25.2059 O   0  0  0  0  0  0  0  0  0  0  0  0
   57.8298   98.2196   25.6987 C   0  0  0  0  0  0  0  0  0  0  0  0
   56.9961   98.3887   26.8293 O   0  0  0  0  0  0  0  0  0  0  0  0
  9 10  1  0  0  0
 10 11  2  0  0  0
 10 15  1  0  0  0
 11 12  1  0  0  0
 12 13  2  0  0  0
 12  1  1  0  0  0
 13 14  1  0  0  0
 14 15  1  0  0  0
 15 16  2  0  0  0
  1  2  2  0  0  0
  1  3  1  0  0  0
  3  4  1  0  0  0
  3  8  1  0  0  0
  4  5  1  0  0  0
  5  6  1  0  0  0
  6  7  1  0  0  0
  6 17  1  0  0  0
  7  8  1  0  0  0
 17 18  1  0  0  0
 18 19  2  0  0  0
 18 23  1  0  0  0
 19 20  1  0  0  0
 20 21  2  0  0  0
 20 26  1  0  0  0
 21 22  1  0  0  0
 21 24  1  0  0  0
 22 23  2  0  0  0
 24 25  1  0  0  0
 25 26  1  0  0  0
M  END
> <minimizedAffinity>
-10.22199

$$$$
776


 38 41  0  0  0  0  0  0  0  0999 V2000
   51.7532   83.3240   25.8571 C   0  0  0  0  0  0  0  0  0  0  0  0
   53.0714   82.9412   26.5421 C   0  0  0  0  0  0  0  0  0  0  0  0
   53.8178   84.1823   26.8935 C   0  0  0  0  0  0  0  0  0  0  0  0
   54.1641   84.9150   25.6168 C   0  0  0  0  0  0  0  0  0  0  0  0
   53.3773   84.5260   24.5490 O   0  0  0  0  0  0  0  0  0  0  0  0
   52.0312   84.4036   24.8648 C   0  0  0  0  0  0  0  0  0  0  0  0
   54.1197   86.3715   25.9043 C   0  0  0  0  0  0  0  0  0  0  0  0
   54.5073   87.1291   24.6249 C   0  0  0  0  0  0  0  0  0  0  0  0
   55.8800   86.8529   24.3573 N   0  0  0  0  0  0  0  0  0  0  0  0
   56.4783   85.7778   25.2181 C   0  0  0  0  0  0  0  0  0  0  0  0
   55.5976   84.5733   25.2699 C   0  0  0  0  0  0  0  0  0  0  0  0
   56.6706   87.4662   23.4053 C   0  0  0  0  0  0  0  0  0  0  0  0
   57.9204   87.0535   23.3613 O   0  0  0  0  0  0  0  0  0  0  0  0
   53.8211   82.2472   25.5892 O   0  0  0  0  0  0  0  0  0  0  0  0
   52.8353   82.0223   27.6969 C   0  0  0  0  0  0  0  0  0  0  0  0
   53.2701   81.9031   24.8420 H   0  0  0  0  0  0  0  0  0  0  0  0
   49.8269   86.3600   29.7035 Br  0  0  0  0  0  0  0  0  0  0  0  0
   49.6910   84.8583   28.5425 C   0  0  0  0  0  0  0  0  0  0  0  0
   50.7103   84.6263   27.6540 C   0  0  0  0  0  0  0  0  0  0  0  0
   50.7089   83.5932   26.7926 N   0  0  0  0  0  0  0  0  0  0  0  0
   49.6096   82.7835   26.8662 C   0  0  0  0  0  0  0  0  0  0  0  0
   49.5340   81.7889   26.0874 O   0  0  0  0  0  0  0  0  0  0  0  0
   48.6092   82.9795   27.7104 N   0  0  0  0  0  0  0  0  0  0  0  0
   48.6108   84.0114   28.5712 C   0  0  0  0  0  0  0  0  0  0  0  0
   47.6828   84.2307   29.3879 O   0  0  0  0  0  0  0  0  0  0  0  0
   47.7837   82.3454   27.7440 H   0  0  0  0  0  0  0  0  0  0  0  0
   56.3675   88.4755   22.4536 C   0  0  0  0  0  0  0  0  0  0  0  0
   55.7068   89.6504   22.8555 C   0  0  0  0  0  0  0  0  0  0  0  0
   55.3786   90.6917   22.0470 C   0  0  0  0  0  0  0  0  0  0  0  0
   55.7397   90.5708   20.6891 C   0  0  0  0  0  0  0  0  0  0  0  0
   56.3764   89.4500   20.2783 C   0  0  0  0  0  0  0  0  0  0  0  0
   56.7010   88.3890   21.1407 C   0  0  0  0  0  0  0  0  0  0  0  0
   54.7331   91.8136   22.4742 O   0  0  0  0  0  0  0  0  0  0  0  0
   55.1023   93.1252   22.5079 C   0  0  0  0  0  0  0  0  0  0  0  0
   54.8257   93.7754   23.8201 C   0  0  0  0  0  0  0  0  0  0  0  0
   55.5369   93.0599   24.8805 N   0  0  0  0  0  0  0  0  0  0  0  0
   56.5244   93.3461   24.9479 H   0  0  0  0  0  0  0  0  0  0  0  0
   55.3744   92.0485   24.8580 H   0  0  0  0  0  0  0  0  0  0  0  0
 17 18  1  0  0  0
 18 19  2  0  0  0
 18 24  1  0  0  0
 19 20  1  0  0  0
 20 21  1  0  0  0
 20  1  1  0  0  0
 21 22  2  0  0  0
 21 23  1  0  0  0
 23 24  1  0  0  0
 24 25  2  0  0  0
  1  2  1  0  0  0
  1  6  1  0  0  0
  2  3  1  0  0  0
  2 14  1  0  0  0
  2 15  1  0  0  0
  3  4  1  0  0  0
  4  5  1  0  0  0
  4  7  1  0  0  0
  4 11  1  0  0  0
  5  6  1  0  0  0
  7  8  1  0  0  0
  8  9  1  0  0  0
  9 10  1  0  0  0
  9 12  1  0  0  0
 10 11  1  0  0  0
 12 13  2  0  0  0
 12 27  1  0  0  0
 27 28  2  0  0  0
 27 32  1  0  0  0
 28 29  1  0  0  0
 29 30  2  0  0  0
 29 33  1  0  0  0
 30 31  1  0  0  0
 31 32  2  0  0  0
 33 34  1  0  0  0
 34 35  1  0  0  0
 35 36  1  0  0  0
 23 26  1  0  0  0
 36 37  1  0  0  0
 36 38  1  0  0  0
 14 16  1  0  0  0
M  END
> <minimizedAffinity>
-8.89291

$$$$
783


 39 42  0  0  0  0  0  0  0  0999 V2000
   50.4814   84.1592   27.5441 C   0  0  0  0  0  0  0  0  0  0  0  0
   51.3800   84.8595   26.6052 C   0  0  0  0  0  0  0  0  0  0  0  0
   51.3731   84.2824   25.1845 C   0  0  0  0  0  0  0  0  0  0  0  0
   51.6672   82.8031   25.2114 C   0  0  0  0  0  0  0  0  0  0  0  0
   51.3907   82.2472   26.4462 O   0  0  0  0  0  0  0  0  0  0  0  0
   50.2934   82.7404   27.0817 C   0  0  0  0  0  0  0  0  0  0  0  0
   53.1252   82.6221   24.8292 C   0  0  0  0  0  0  0  0  0  0  0  0
   53.2511   82.3204   23.3600 C   0  0  0  0  0  0  0  0  0  0  0  0
   52.3087   83.1366   22.6381 N   0  0  0  0  0  0  0  0  0  0  0  0
   50.9047   82.8100   22.8386 C   0  0  0  0  0  0  0  0  0  0  0  0
   50.7856   82.1330   24.1848 C   0  0  0  0  0  0  0  0  0  0  0  0
   52.7395   84.1584   21.7882 C   0  0  0  0  0  0  0  0  0  0  0  0
   51.8050   84.8187   21.2038 O   0  0  0  0  0  0  0  0  0  0  0  0
   50.8624   86.1693   26.4348 O   0  0  0  0  0  0  0  0  0  0  0  0
   52.7887   85.0394   27.0698 C   0  0  0  0  0  0  0  0  0  0  0  0
   49.8915   86.1577   26.2667 H   0  0  0  0  0  0  0  0  0  0  0  0
   53.1614   81.8382   31.4321 Br  0  0  0  0  0  0  0  0  0  0  0  0
   52.0631   83.2541   30.7395 C   0  0  0  0  0  0  0  0  0  0  0  0
   51.6576   83.2377   29.4250 C   0  0  0  0  0  0  0  0  0  0  0  0
   50.8981   84.2098   28.9311 N   0  0  0  0  0  0  0  0  0  0  0  0
   50.5115   85.2240   29.7005 C   0  0  0  0  0  0  0  0  0  0  0  0
   49.7829   86.1752   29.2637 O   0  0  0  0  0  0  0  0  0  0  0  0
   50.8979   85.2580   30.9853 N   0  0  0  0  0  0  0  0  0  0  0  0
   51.6662   84.3035   31.5419 C   0  0  0  0  0  0  0  0  0  0  0  0
   52.0139   84.3641   32.7577 O   0  0  0  0  0  0  0  0  0  0  0  0
   50.5885   86.0699   31.6006 H   0  0  0  0  0  0  0  0  0  0  0  0
   54.0973   84.5829   21.4638 C   0  0  0  0  0  0  0  0  0  0  0  0
   54.4990   84.1553   20.1230 N   0  0  0  0  0  0  0  0  0  0  0  0
   54.1367   83.2009   19.9091 H   0  0  0  0  0  0  0  0  0  0  0  0
   55.5463   84.0833   20.0983 H   0  0  0  0  0  0  0  0  0  0  0  0
   54.3358   86.0756   21.5106 C   0  0  0  0  0  0  0  0  0  0  0  0
   55.4284   86.2882   22.5312 C   0  0  0  0  0  0  0  0  0  0  0  0
   56.6971   86.6114   22.1268 C   0  0  0  0  0  0  0  0  0  0  0  0
   57.6742   86.7982   23.1007 C   0  0  0  0  0  0  0  0  0  0  0  0
   57.3953   86.6677   24.4419 C   0  0  0  0  0  0  0  0  0  0  0  0
   56.1052   86.3414   24.8096 C   0  0  0  0  0  0  0  0  0  0  0  0
   55.1152   86.1485   23.8676 C   0  0  0  0  0  0  0  0  0  0  0  0
   58.4050   86.8652   25.3644 O   0  0  0  0  0  0  0  0  0  0  0  0
   59.0188   86.1256   25.7055 H   0  0  0  0  0  0  0  0  0  0  0  0
 17 18  1  0  0  0
 18 19  2  0  0  0
 18 24  1  0  0  0
 19 20  1  0  0  0
 20 21  1  0  0  0
 20  1  1  0  0  0
 21 22  2  0  0  0
 21 23  1  0  0  0
 23 24  1  0  0  0
 24 25  2  0  0  0
  1  2  1  0  0  0
  1  6  1  0  0  0
  2  3  1  0  0  0
  2 14  1  0  0  0
  2 15  1  0  0  0
  3  4  1  0  0  0
  4  5  1  0  0  0
  4  7  1  0  0  0
  4 11  1  0  0  0
  5  6  1  0  0  0
  7  8  1  0  0  0
  8  9  1  0  0  0
  9 10  1  0  0  0
  9 12  1  0  0  0
 10 11  1  0  0  0
 12 13  2  0  0  0
 12 27  1  0  0  0
 27 28  1  0  0  0
 27 31  1  0  0  0
 31 32  1  0  0  0
 32 33  2  0  0  0
 32 37  1  0  0  0
 33 34  1  0  0  0
 34 35  2  0  0  0
 35 36  1  0  0  0
 35 38  1  0  0  0
 36 37  2  0  0  0
 23 26  1  0  0  0
 28 29  1  0  0  0
 28 30  1  0  0  0
 38 39  1  0  0  0
 14 16  1  0  0  0
M  END
> <minimizedAffinity>
-8.66357

$$$$
784


 39 42  0  0  0  0  0  0  0  0999 V2000
   50.2071   83.2059   27.5316 C   0  0  0  0  0  0  0  0  0  0  0  0
   51.6212   82.6436   27.3120 C   0  0  0  0  0  0  0  0  0  0  0  0
   51.7092   82.4502   25.7918 C   0  0  0  0  0  0  0  0  0  0  0  0
   50.5415   81.6465   25.2909 C   0  0  0  0  0  0  0  0  0  0  0  0
   49.8342   81.1602   26.3639 O   0  0  0  0  0  0  0  0  0  0  0  0
   49.2606   82.1338   27.1777 C   0  0  0  0  0  0  0  0  0  0  0  0
   51.1331   80.4411   24.5728 C   0  0  0  0  0  0  0  0  0  0  0  0
   51.4672   80.8102   23.1495 C   0  0  0  0  0  0  0  0  0  0  0  0
   51.6301   82.2683   23.0236 N   0  0  0  0  0  0  0  0  0  0  0  0
   50.4330   83.0357   23.2009 C   0  0  0  0  0  0  0  0  0  0  0  0
   49.6586   82.3581   24.3286 C   0  0  0  0  0  0  0  0  0  0  0  0
   52.8679   82.8652   22.7870 C   0  0  0  0  0  0  0  0  0  0  0  0
   53.9449   82.1548   22.7185 O   0  0  0  0  0  0  0  0  0  0  0  0
   52.5996   83.5326   27.7001 O   0  0  0  0  0  0  0  0  0  0  0  0
   51.8182   81.3597   28.0539 C   0  0  0  0  0  0  0  0  0  0  0  0
   53.4226   83.0302   27.9283 H   0  0  0  0  0  0  0  0  0  0  0  0
   49.5464   83.1423   32.7625 Br  0  0  0  0  0  0  0  0  0  0  0  0
   49.7811   84.0577   31.1212 C   0  0  0  0  0  0  0  0  0  0  0  0
   49.9057   83.3108   29.9498 C   0  0  0  0  0  0  0  0  0  0  0  0
   50.0728   83.8848   28.7561 N   0  0  0  0  0  0  0  0  0  0  0  0
   50.1154   85.2513   28.7419 C   0  0  0  0  0  0  0  0  0  0  0  0
   50.2710   85.8415   27.6386 O   0  0  0  0  0  0  0  0  0  0  0  0
   49.9972   85.9970   29.8534 N   0  0  0  0  0  0  0  0  0  0  0  0
   49.8289   85.4329   31.0626 C   0  0  0  0  0  0  0  0  0  0  0  0
   49.7167   86.1392   32.1169 O   0  0  0  0  0  0  0  0  0  0  0  0
   50.0407   87.0461   29.7556 H   0  0  0  0  0  0  0  0  0  0  0  0
   53.0414   84.2978   22.6041 C   0  0  0  0  0  0  0  0  0  0  0  0
   53.9032   84.8495   23.6213 N   0  0  0  0  0  0  0  0  0  0  0  0
   53.5563   85.4110   24.8442 C   0  0  0  0  0  0  0  0  0  0  0  0
   52.3933   85.5486   25.2767 O   0  0  0  0  0  0  0  0  0  0  0  0
   54.6256   85.9237   25.7912 C   0  0  0  0  0  0  0  0  0  0  0  0
   54.9421   84.8149   23.3822 H   0  0  0  0  0  0  0  0  0  0  0  0
   53.6460   84.6296   21.2036 C   0  0  0  0  0  0  0  0  0  0  0  0
   54.5364   85.7994   21.3058 C   0  0  0  0  0  0  0  0  0  0  0  0
   55.8015   85.8712   21.6885 N   0  0  0  0  0  0  0  0  0  0  0  0
   56.2650   87.1504   21.6411 C   0  0  0  0  0  0  0  0  0  0  0  0
   55.2374   87.9051   21.2084 N   0  0  0  0  0  0  0  0  0  0  0  0
   54.1741   87.1003   20.9989 C   0  0  0  0  0  0  0  0  0  0  0  0
   55.3038   88.9432   21.0744 H   0  0  0  0  0  0  0  0  0  0  0  0
 17 18  1  0  0  0
 18 19  2  0  0  0
 18 24  1  0  0  0
 19 20  1  0  0  0
 20 21  1  0  0  0
 20  1  1  0  0  0
 21 22  2  0  0  0
 21 23  1  0  0  0
 23 24  1  0  0  0
 24 25  2  0  0  0
  1  2  1  0  0  0
  1  6  1  0  0  0
  2  3  1  0  0  0
  2 14  1  0  0  0
  2 15  1  0  0  0
  3  4  1  0  0  0
  4  5  1  0  0  0
  4  7  1  0  0  0
  4 11  1  0  0  0
  5  6  1  0  0  0
  7  8  1  0  0  0
  8  9  1  0  0  0
  9 10  1  0  0  0
  9 12  1  0  0  0
 10 11  1  0  0  0
 12 13  2  0  0  0
 12 27  1  0  0  0
 27 28  1  0  0  0
 27 33  1  0  0  0
 28 29  1  0  0  0
 29 30  2  0  0  0
 29 31  1  0  0  0
 33 34  1  0  0  0
 34 35  1  0  0  0
 34 38  2  0  0  0
 35 36  2  0  0  0
 36 37  1  0  0  0
 37 38  1  0  0  0
 23 26  1  0  0  0
 28 32  1  0  0  0
 37 39  1  0  0  0
 14 16  1  0  0  0
M  END
> <minimizedAffinity>
-7.89596

$$$$
786


 25 28  0  0  0  0  0  0  0  0999 V2000
   53.9276   83.9847   18.7671 N   0  0  0  0  0  0  0  0  0  0  0  0
   53.9590   82.6058   18.5060 C   0  0  0  0  0  0  0  0  0  0  0  0
   53.0251   81.8749   18.8964 O   0  0  0  0  0  0  0  0  0  0  0  0
   54.7093   84.5826   18.4380 H   0  0  0  0  0  0  0  0  0  0  0  0
   55.0889   82.0080   17.7707 C   0  0  0  0  0  0  0  0  0  0  0  0
   54.6202   80.8420   16.9372 C   0  0  0  0  0  0  0  0  0  0  0  0
   53.6397   81.3587   16.0016 N   0  0  0  0  0  0  0  0  0  0  0  0
   53.7971   82.5808   15.4675 C   0  0  0  0  0  0  0  0  0  0  0  0
   52.7470   82.7871   14.6475 N   0  0  0  0  0  0  0  0  0  0  0  0
   51.9698   81.7448   14.6665 N   0  0  0  0  0  0  0  0  0  0  0  0
   52.5125   80.8506   15.5027 C   0  0  0  0  0  0  0  0  0  0  0  0
   51.8870   79.5199   15.7769 C   0  0  0  0  0  0  0  0  0  0  0  0
   54.9223   83.4831   15.7567 C   0  0  0  0  0  0  0  0  0  0  0  0
   55.7492   83.0609   16.9187 C   0  0  0  0  0  0  0  0  0  0  0  0
   52.8095   84.5505   19.4888 C   0  0  0  0  0  0  0  0  0  0  0  0
   51.5593   92.2006   18.3517 Br  0  0  0  0  0  0  0  0  0  0  0  0
   52.3134   90.5286   18.9032 C   0  0  0  0  0  0  0  0  0  0  0  0
   51.7268   89.3224   18.5897 C   0  0  0  0  0  0  0  0  0  0  0  0
   52.2611   88.1306   18.9799 N   0  0  0  0  0  0  0  0  0  0  0  0
   53.4003   88.1381   19.6955 C   0  0  0  0  0  0  0  0  0  0  0  0
   53.7404   86.8663   19.9667 N   0  0  0  0  0  0  0  0  0  0  0  0
   52.8281   86.0342   19.4312 C   0  0  0  0  0  0  0  0  0  0  0  0
   51.9005   86.8450   18.8116 C   0  0  0  0  0  0  0  0  0  0  0  0
   54.0179   89.3404   20.0282 C   0  0  0  0  0  0  0  0  0  0  0  0
   53.4808   90.5411   19.6365 C   0  0  0  0  0  0  0  0  0  0  0  0
 16 17  1  0  0  0
 17 18  2  0  0  0
 17 25  1  0  0  0
 18 19  1  0  0  0
 19 20  1  0  0  0
 19 23  1  0  0  0
 20 21  2  0  0  0
 20 24  1  0  0  0
 21 22  1  0  0  0
 22 23  2  0  0  0
 22 15  1  0  0  0
 15  1  1  0  0  0
  1  2  1  0  0  0
  2  3  2  0  0  0
  2  5  1  0  0  0
  5  6  1  0  0  0
  5 14  1  0  0  0
  6  7  1  0  0  0
  7  8  1  0  0  0
  7 11  1  0  0  0
  8  9  2  0  0  0
  8 13  1  0  0  0
  9 10  1  0  0  0
 10 11  2  0  0  0
 11 12  1  0  0  0
 13 14  1  0  0  0
 24 25  2  0  0  0
  1  4  1  0  0  0
M  END
> <minimizedAffinity>
-8.43412

$$$$
789


 21 24  0  0  0  0  0  0  0  0999 V2000
   52.4084   98.3884   29.1907 C   0  0  0  0  0  0  0  0  0  0  0  0
   52.5979   98.1500   30.4139 O   0  0  0  0  0  0  0  0  0  0  0  0
   51.4397   99.3637   28.8424 N   0  0  0  0  0  0  0  0  0  0  0  0
   50.7198  100.0445   29.8555 C   0  0  0  0  0  0  0  0  0  0  0  0
   49.3811  100.5181   29.4280 C   0  0  0  0  0  0  0  0  0  0  0  0
   49.0246  100.2473   28.0648 N   0  0  0  0  0  0  0  0  0  0  0  0
   50.1026  100.5890   27.1555 C   0  0  0  0  0  0  0  0  0  0  0  0
   51.2320   99.6181   27.4427 C   0  0  0  0  0  0  0  0  0  0  0  0
   47.8252  101.0041   27.8720 C   0  0  0  0  0  0  0  0  0  0  0  0
   48.0276  102.2816   28.6478 C   0  0  0  0  0  0  0  0  0  0  0  0
   49.2460  102.0292   29.5076 C   0  0  0  0  0  0  0  0  0  0  0  0
   57.6614   95.4491   24.2101 Br  0  0  0  0  0  0  0  0  0  0  0  0
   56.0421   95.7394   25.2030 C   0  0  0  0  0  0  0  0  0  0  0  0
   55.9404   96.7467   26.1368 C   0  0  0  0  0  0  0  0  0  0  0  0
   54.8026   96.9643   26.8465 N   0  0  0  0  0  0  0  0  0  0  0  0
   54.4552   97.8400   27.7765 N   0  0  0  0  0  0  0  0  0  0  0  0
   53.1931   97.6548   28.1877 C   0  0  0  0  0  0  0  0  0  0  0  0
   52.7479   96.5699   27.4320 C   0  0  0  0  0  0  0  0  0  0  0  0
   53.7631   96.1468   26.5980 C   0  0  0  0  0  0  0  0  0  0  0  0
   53.8518   95.1503   25.6779 N   0  0  0  0  0  0  0  0  0  0  0  0
   54.9642   94.9161   24.9654 C   0  0  0  0  0  0  0  0  0  0  0  0
 12 13  1  0  0  0
 13 14  2  0  0  0
 13 21  1  0  0  0
 14 15  1  0  0  0
 15 16  1  0  0  0
 15 19  1  0  0  0
 16 17  2  0  0  0
 17 18  1  0  0  0
 17  1  1  0  0  0
 18 19  2  0  0  0
 19 20  1  0  0  0
 20 21  2  0  0  0
  1  2  2  0  0  0
  1  3  1  0  0  0
  3  4  1  0  0  0
  3  8  1  0  0  0
  4  5  1  0  0  0
  5  6  1  0  0  0
  5 11  1  0  0  0
  6  7  1  0  0  0
  6  9  1  0  0  0
  7  8  1  0  0  0
  9 10  1  0  0  0
 10 11  1  0  0  0
M  END
> <minimizedAffinity>
-7.78245

$$$$
790


 25 28  0  0  0  0  0  0  0  0999 V2000
   56.1980   87.0999   21.6449 C   0  0  0  0  0  0  0  0  0  0  0  0
   57.1595   86.5629   21.0235 O   0  0  0  0  0  0  0  0  0  0  0  0
   56.3387   87.5036   22.9976 N   0  0  0  0  0  0  0  0  0  0  0  0
   55.1703   88.1201   23.6445 C   0  0  0  0  0  0  0  0  0  0  0  0
   55.3751   87.8275   25.1309 C   0  0  0  0  0  0  0  0  0  0  0  0
   55.9142   86.5018   25.1977 N   0  0  0  0  0  0  0  0  0  0  0  0
   57.3927   86.4816   24.9960 C   0  0  0  0  0  0  0  0  0  0  0  0
   57.5833   87.3214   23.7299 C   0  0  0  0  0  0  0  0  0  0  0  0
   55.2427   85.3032   25.3745 C   0  0  0  0  0  0  0  0  0  0  0  0
   55.9674   84.2256   25.4444 O   0  0  0  0  0  0  0  0  0  0  0  0
   52.2375   92.0012   18.5161 Br  0  0  0  0  0  0  0  0  0  0  0  0
   53.1716   90.5464   19.3141 C   0  0  0  0  0  0  0  0  0  0  0  0
   52.6551   89.2892   19.2896 C   0  0  0  0  0  0  0  0  0  0  0  0
   53.3015   88.2713   19.8442 N   0  0  0  0  0  0  0  0  0  0  0  0
   52.9992   86.9756   19.9427 N   0  0  0  0  0  0  0  0  0  0  0  0
   53.9954   86.3637   20.6039 C   0  0  0  0  0  0  0  0  0  0  0  0
   54.9568   87.2896   20.9359 C   0  0  0  0  0  0  0  0  0  0  0  0
   54.4858   88.4994   20.4376 C   0  0  0  0  0  0  0  0  0  0  0  0
   55.0093   89.7350   20.4704 N   0  0  0  0  0  0  0  0  0  0  0  0
   54.3772   90.7735   19.9192 C   0  0  0  0  0  0  0  0  0  0  0  0
   53.8178   85.0447   25.4960 C   0  0  0  0  0  0  0  0  0  0  0  0
   53.1314   85.0987   26.6461 O   0  0  0  0  0  0  0  0  0  0  0  0
   51.8832   84.8246   26.4778 C   0  0  0  0  0  0  0  0  0  0  0  0
   51.6487   84.5598   25.1518 C   0  0  0  0  0  0  0  0  0  0  0  0
   52.8861   84.7036   24.5456 C   0  0  0  0  0  0  0  0  0  0  0  0
 11 12  1  0  0  0
 12 13  2  0  0  0
 12 20  1  0  0  0
 13 14  1  0  0  0
 14 15  1  0  0  0
 14 18  1  0  0  0
 15 16  2  0  0  0
 16 17  1  0  0  0
 17 18  2  0  0  0
 17  1  1  0  0  0
 18 19  1  0  0  0
 19 20  2  0  0  0
  1  2  2  0  0  0
  1  3  1  0  0  0
  3  4  1  0  0  0
  3  8  1  0  0  0
  4  5  1  0  0  0
  5  6  1  0  0  0
  6  7  1  0  0  0
  6  9  1  0  0  0
  7  8  1  0  0  0
  9 10  2  0  0  0
  9 21  1  0  0  0
 21 22  1  0  0  0
 21 25  2  0  0  0
 22 23  1  0  0  0
 23 24  2  0  0  0
 24 25  1  0  0  0
M  END
> <minimizedAffinity>
-8.29582

$$$$
797


 28 31  0  0  0  0  0  0  0  0999 V2000
   54.6945   84.9830   21.5926 O   0  0  0  0  0  0  0  0  0  0  0  0
   55.3908   86.1735   21.5811 C   0  0  0  0  0  0  0  0  0  0  0  0
   56.6149   86.1694   21.3395 O   0  0  0  0  0  0  0  0  0  0  0  0
   54.6561   87.4292   21.8574 C   0  0  0  0  0  0  0  0  0  0  0  0
   54.5650   88.2434   20.6796 N   0  0  0  0  0  0  0  0  0  0  0  0
   53.5494   88.1843   19.7027 C   0  0  0  0  0  0  0  0  0  0  0  0
   52.5393   87.4360   19.6460 O   0  0  0  0  0  0  0  0  0  0  0  0
   53.8468   89.1958   18.6657 C   0  0  0  0  0  0  0  0  0  0  0  0
   55.0043   89.8304   19.0268 C   0  0  0  0  0  0  0  0  0  0  0  0
   55.5432   90.8260   18.2637 C   0  0  0  0  0  0  0  0  0  0  0  0
   54.8969   91.1893   17.1073 C   0  0  0  0  0  0  0  0  0  0  0  0
   53.7280   90.5496   16.7425 C   0  0  0  0  0  0  0  0  0  0  0  0
   53.1761   89.5435   17.5055 C   0  0  0  0  0  0  0  0  0  0  0  0
   55.4714   89.2483   20.2871 C   0  0  0  0  0  0  0  0  0  0  0  0
   56.5227   89.6131   20.8971 O   0  0  0  0  0  0  0  0  0  0  0  0
   53.5488   84.7010   20.8327 C   0  0  0  0  0  0  0  0  0  0  0  0
   54.8724   80.7925   13.5530 Br  0  0  0  0  0  0  0  0  0  0  0  0
   54.5336   81.9260   15.0627 C   0  0  0  0  0  0  0  0  0  0  0  0
   54.5340   81.4352   16.3499 C   0  0  0  0  0  0  0  0  0  0  0  0
   54.2992   82.2010   17.4372 N   0  0  0  0  0  0  0  0  0  0  0  0
   54.0449   83.5171   17.3277 C   0  0  0  0  0  0  0  0  0  0  0  0
   53.8089   84.2941   18.3989 N   0  0  0  0  0  0  0  0  0  0  0  0
   53.8090   83.8175   19.6666 C   0  0  0  0  0  0  0  0  0  0  0  0
   54.0666   82.4698   19.8027 C   0  0  0  0  0  0  0  0  0  0  0  0
   54.3091   81.6806   18.6820 C   0  0  0  0  0  0  0  0  0  0  0  0
   54.5423   80.4668   18.7930 O   0  0  0  0  0  0  0  0  0  0  0  0
   54.0380   84.0439   16.0336 C   0  0  0  0  0  0  0  0  0  0  0  0
   54.2758   83.2723   14.9173 C   0  0  0  0  0  0  0  0  0  0  0  0
 17 18  1  0  0  0
 18 19  2  0  0  0
 18 28  1  0  0  0
 19 20  1  0  0  0
 20 21  1  0  0  0
 20 25  1  0  0  0
 21 22  2  0  0  0
 21 27  1  0  0  0
 22 23  1  0  0  0
 23 24  2  0  0  0
 23 16  1  0  0  0
 24 25  1  0  0  0
 25 26  2  0  0  0
 16  1  1  0  0  0
  1  2  1  0  0  0
  2  3  2  0  0  0
  2  4  1  0  0  0
  4  5  1  0  0  0
  5  6  1  0  0  0
  5 14  1  0  0  0
  6  7  2  0  0  0
  6  8  1  0  0  0
  8  9  2  0  0  0
  8 13  1  0  0  0
  9 10  1  0  0  0
  9 14  1  0  0  0
 10 11  2  0  0  0
 11 12  1  0  0  0
 12 13  2  0  0  0
 14 15  2  0  0  0
 27 28  2  0  0  0
M  END
> <minimizedAffinity>
-9.41399

$$$$
800


 29 32  0  0  0  0  0  0  0  0999 V2000
   51.1075  100.5494   27.9110 C   0  0  0  0  0  0  0  0  0  0  0  0
   51.2703  101.4175   27.0149 O   0  0  0  0  0  0  0  0  0  0  0  0
   52.2239  100.0033   28.4978 O   0  0  0  0  0  0  0  0  0  0  0  0
   52.2812   98.6610   28.9425 C   0  0  0  0  0  0  0  0  0  0  0  0
   57.8397   95.2215   23.8864 Br  0  0  0  0  0  0  0  0  0  0  0  0
   56.7500   96.2309   25.0876 C   0  0  0  0  0  0  0  0  0  0  0  0
   55.5071   95.7450   25.4316 C   0  0  0  0  0  0  0  0  0  0  0  0
   54.7379   96.4527   26.2759 N   0  0  0  0  0  0  0  0  0  0  0  0
   55.1502   97.6260   26.7979 C   0  0  0  0  0  0  0  0  0  0  0  0
   54.3585   98.3233   27.6477 N   0  0  0  0  0  0  0  0  0  0  0  0
   53.1392   97.8879   28.0100 C   0  0  0  0  0  0  0  0  0  0  0  0
   52.7021   96.6926   27.4885 C   0  0  0  0  0  0  0  0  0  0  0  0
   53.5194   95.9729   26.6109 C   0  0  0  0  0  0  0  0  0  0  0  0
   53.1341   94.8926   26.1343 O   0  0  0  0  0  0  0  0  0  0  0  0
   56.3946   98.1185   26.4571 C   0  0  0  0  0  0  0  0  0  0  0  0
   57.2205   97.4324   25.5953 C   0  0  0  0  0  0  0  0  0  0  0  0
   49.7093  100.1864   28.2609 C   0  0  0  0  0  0  0  0  0  0  0  0
   49.0600  101.1934   29.0466 N   0  0  0  0  0  0  0  0  0  0  0  0
   47.9451  101.9914   28.6514 C   0  0  0  0  0  0  0  0  0  0  0  0
   47.3630  101.9197   27.5308 O   0  0  0  0  0  0  0  0  0  0  0  0
   47.6207  102.8611   29.7300 N   0  0  0  0  0  0  0  0  0  0  0  0
   48.6279  102.7307   30.7522 C   0  0  0  0  0  0  0  0  0  0  0  0
   49.5225  103.9378   30.8511 C   0  0  0  0  0  0  0  0  0  0  0  0
   50.1206  103.8104   32.2170 C   0  0  0  0  0  0  0  0  0  0  0  0
   49.3052  102.8141   32.9882 C   0  0  0  0  0  0  0  0  0  0  0  0
   48.0749  102.6080   32.1314 C   0  0  0  0  0  0  0  0  0  0  0  0
   49.4303  101.5684   30.3752 C   0  0  0  0  0  0  0  0  0  0  0  0
   50.2981  100.9674   31.0506 O   0  0  0  0  0  0  0  0  0  0  0  0
   46.7875  103.4743   29.7445 H   0  0  0  0  0  0  0  0  0  0  0  0
  5  6  1  0  0  0
  6  7  2  0  0  0
  6 16  1  0  0  0
  7  8  1  0  0  0
  8  9  1  0  0  0
  8 13  1  0  0  0
  9 10  2  0  0  0
  9 15  1  0  0  0
 10 11  1  0  0  0
 11 12  2  0  0  0
 11  4  1  0  0  0
 12 13  1  0  0  0
 13 14  2  0  0  0
  4  3  1  0  0  0
  3  1  1  0  0  0
  1  2  2  0  0  0
  1 17  1  0  0  0
 17 18  1  0  0  0
 18 19  1  0  0  0
 18 27  1  0  0  0
 19 20  2  0  0  0
 19 21  1  0  0  0
 21 22  1  0  0  0
 22 23  1  0  0  0
 22 26  1  0  0  0
 22 27  1  0  0  0
 23 24  1  0  0  0
 24 25  1  0  0  0
 25 26  1  0  0  0
 27 28  2  0  0  0
 15 16  2  0  0  0
 21 29  1  0  0  0
M  END
> <minimizedAffinity>
-9.44327

$$$$
803


 31 34  0  0  0  0  0  0  0  0999 V2000
   48.9125   97.8961   28.9874 Br  0  0  0  0  0  0  0  0  0  0  0  0
   50.7476   98.0148   28.5103 C   0  0  0  0  0  0  0  0  0  0  0  0
   51.3996   97.0560   27.8165 C   0  0  0  0  0  0  0  0  0  0  0  0
   52.6650   97.1715   27.4031 N   0  0  0  0  0  0  0  0  0  0  0  0
   53.3242   98.2937   27.6887 C   0  0  0  0  0  0  0  0  0  0  0  0
   54.6183   98.4309   27.2842 N   0  0  0  0  0  0  0  0  0  0  0  0
   55.2701   97.4927   26.6114 C   0  0  0  0  0  0  0  0  0  0  0  0
   54.6109   96.3243   26.3036 C   0  0  0  0  0  0  0  0  0  0  0  0
   55.2380   95.3073   25.6116 C   0  0  0  0  0  0  0  0  0  0  0  0
   56.5636   95.4041   25.1869 C   0  0  0  0  0  0  0  0  0  0  0  0
   57.2136   96.5781   25.5005 C   0  0  0  0  0  0  0  0  0  0  0  0
   56.5889   97.6002   26.1939 C   0  0  0  0  0  0  0  0  0  0  0  0
   53.2918   96.2045   26.7239 C   0  0  0  0  0  0  0  0  0  0  0  0
   52.6812   95.1470   26.4516 O   0  0  0  0  0  0  0  0  0  0  0  0
   52.6941   99.2692   28.3836 N   0  0  0  0  0  0  0  0  0  0  0  0
   51.4454   99.2278   28.8280 C   0  0  0  0  0  0  0  0  0  0  0  0
   53.3309  100.1154   28.5464 H   0  0  0  0  0  0  0  0  0  0  0  0
   50.7849  100.1162   29.6161 N   0  0  0  0  0  0  0  0  0  0  0  0
   51.9530  100.5811   30.1527 H   0  0  0  0  0  0  0  0  0  0  0  0
   50.1346  100.9918   30.3929 C   0  0  0  0  0  0  0  0  0  0  0  0
   49.3555  101.9940   29.8001 C   0  0  0  0  0  0  0  0  0  0  0  0
   48.8804  103.0297   30.5358 C   0  0  0  0  0  0  0  0  0  0  0  0
   49.1510  103.1115   31.8800 C   0  0  0  0  0  0  0  0  0  0  0  0
   49.9048  102.1556   32.5238 C   0  0  0  0  0  0  0  0  0  0  0  0
   50.3772  101.1171   31.7560 C   0  0  0  0  0  0  0  0  0  0  0  0
   48.8959  101.8952   28.4092 C   0  0  0  0  0  0  0  0  0  0  0  0
   47.6556  101.8795   28.2048 O   0  0  0  0  0  0  0  0  0  0  0  0
   49.7021  101.8123   27.3111 O   0  0  0  0  0  0  0  0  0  0  0  0
   49.6140  100.7578   26.3723 C   0  0  0  0  0  0  0  0  0  0  0  0
   50.9280  100.6280   25.5965 C   0  0  0  0  0  0  0  0  0  0  0  0
   51.9632  101.5130   26.2489 C   0  0  0  0  0  0  0  0  0  0  0  0
  1  2  1  0  0  0
  2  3  2  0  0  0
  2 16  1  0  0  0
  3  4  1  0  0  0
  4  5  1  0  0  0
  4 13  1  0  0  0
  5  6  2  0  0  0
  5 15  1  0  0  0
  6  7  1  0  0  0
  7  8  2  0  0  0
  7 12  1  0  0  0
  8  9  1  0  0  0
  8 13  1  0  0  0
  9 10  2  0  0  0
 10 11  1  0  0  0
 11 12  2  0  0  0
 13 14  2  0  0  0
 15 16  2  0  0  0
 16 18  1  0  0  0
 18 20  1  0  0  0
 20 21  2  0  0  0
 20 25  1  0  0  0
 21 22  1  0  0  0
 21 26  1  0  0  0
 22 23  2  0  0  0
 23 24  1  0  0  0
 24 25  2  0  0  0
 26 27  2  0  0  0
 26 28  1  0  0  0
 28 29  1  0  0  0
 29 30  1  0  0  0
 30 31  1  0  0  0
 15 17  1  0  0  0
 18 19  1  0  0  0
M  END
> <minimizedAffinity>
-8.95691

$$$$
814


 31 34  0  0  0  0  0  0  0  0999 V2000
   55.6307   89.6665   21.0368 N   0  0  0  0  0  0  0  0  0  0  0  0
   55.7835   90.6989   21.8344 N   0  0  0  0  0  0  0  0  0  0  0  0
   54.9049   91.6652   21.5288 C   0  0  0  0  0  0  0  0  0  0  0  0
   54.1744   91.2165   20.4976 N   0  0  0  0  0  0  0  0  0  0  0  0
   54.6352   89.9669   20.1959 C   0  0  0  0  0  0  0  0  0  0  0  0
   54.1297   89.0961   19.1361 C   0  0  0  0  0  0  0  0  0  0  0  0
   54.2168   89.7230   17.7646 C   0  0  0  0  0  0  0  0  0  0  0  0
   53.1967   90.8249   17.5808 C   0  0  0  0  0  0  0  0  0  0  0  0
   53.5110   92.0574   18.3709 C   0  0  0  0  0  0  0  0  0  0  0  0
   53.1011   91.9269   19.8310 C   0  0  0  0  0  0  0  0  0  0  0  0
   56.3830   88.4476   21.0559 C   0  0  0  0  0  0  0  0  0  0  0  0
   56.1924   87.6995   22.3268 C   0  0  0  0  0  0  0  0  0  0  0  0
   56.9334   88.0045   23.2988 O   0  0  0  0  0  0  0  0  0  0  0  0
   51.9807   83.2285   22.9471 Br  0  0  0  0  0  0  0  0  0  0  0  0
   53.2932   84.6214   22.7451 C   0  0  0  0  0  0  0  0  0  0  0  0
   53.8195   85.2397   23.8663 C   0  0  0  0  0  0  0  0  0  0  0  0
   54.7686   86.2478   23.7270 C   0  0  0  0  0  0  0  0  0  0  0  0
   55.2060   86.6531   22.4873 C   0  0  0  0  0  0  0  0  0  0  0  0
   54.6614   86.0175   21.3940 C   0  0  0  0  0  0  0  0  0  0  0  0
   53.7235   85.0200   21.5021 C   0  0  0  0  0  0  0  0  0  0  0  0
   54.7434   92.9748   22.1754 C   0  0  0  0  0  0  0  0  0  0  0  0
   55.0185   92.9333   23.5789 N   0  0  0  0  0  0  0  0  0  0  0  0
   55.2009   92.0318   24.0437 H   0  0  0  0  0  0  0  0  0  0  0  0
   55.0556   94.0986   24.3969 C   0  0  0  0  0  0  0  0  0  0  0  0
   56.2346   94.7259   24.7303 C   0  0  0  0  0  0  0  0  0  0  0  0
   56.2573   95.8503   25.5145 C   0  0  0  0  0  0  0  0  0  0  0  0
   55.0897   96.3675   25.9809 C   0  0  0  0  0  0  0  0  0  0  0  0
   53.9078   95.7423   25.6499 C   0  0  0  0  0  0  0  0  0  0  0  0
   53.8727   94.6112   24.8610 C   0  0  0  0  0  0  0  0  0  0  0  0
   55.0820   97.4930   26.7697 O   0  0  0  0  0  0  0  0  0  0  0  0
   53.9092   98.0200   27.3389 C   0  0  0  0  0  0  0  0  0  0  0  0
 14 15  1  0  0  0
 15 16  2  0  0  0
 15 20  1  0  0  0
 16 17  1  0  0  0
 17 18  2  0  0  0
 18 19  1  0  0  0
 18 12  1  0  0  0
 19 20  2  0  0  0
 12 13  2  0  0  0
 12 11  1  0  0  0
 11  1  1  0  0  0
  1  2  1  0  0  0
  1  5  2  0  0  0
  2  3  2  0  0  0
  3  4  1  0  0  0
  3 21  1  0  0  0
  4  5  1  0  0  0
  4 10  1  0  0  0
  5  6  1  0  0  0
  6  7  1  0  0  0
  7  8  1  0  0  0
  8  9  1  0  0  0
  9 10  1  0  0  0
 21 22  1  0  0  0
 22 24  1  0  0  0
 24 25  2  0  0  0
 24 29  1  0  0  0
 25 26  1  0  0  0
 26 27  2  0  0  0
 27 28  1  0  0  0
 27 30  1  0  0  0
 28 29  2  0  0  0
 30 31  1  0  0  0
 22 23  1  0  0  0
M  END
> <minimizedAffinity>
-9.62937

$$$$
827


 29 32  0  0  0  0  0  0  0  0999 V2000
   52.4498   85.9511   19.6981 C   0  0  0  0  0  0  0  0  0  0  0  0
   53.4447   85.0708   20.3067 N   0  0  0  0  0  0  0  0  0  0  0  0
   53.8703   84.1458   19.3848 C   0  0  0  0  0  0  0  0  0  0  0  0
   54.4884   83.0051   19.5643 C   0  0  0  0  0  0  0  0  0  0  0  0
   54.9966   81.9403   18.6517 C   0  0  0  0  0  0  0  0  0  0  0  0
   54.5932   82.1147   17.2215 C   0  0  0  0  0  0  0  0  0  0  0  0
   55.0445   83.4481   16.6736 C   0  0  0  0  0  0  0  0  0  0  0  0
   53.9134   84.4534   16.7641 C   0  0  0  0  0  0  0  0  0  0  0  0
   53.4001   84.5853   18.0894 N   0  0  0  0  0  0  0  0  0  0  0  0
   52.1231   85.2704   18.3302 C   0  0  0  0  0  0  0  0  0  0  0  0
   51.3042   86.0290   20.3906 O   0  0  0  0  0  0  0  0  0  0  0  0
   52.7344   84.4368   20.9333 H   0  0  0  0  0  0  0  0  0  0  0  0
   50.6659   86.7362   20.2173 H   0  0  0  0  0  0  0  0  0  0  0  0
   55.0094   91.2265   17.8023 Br  0  0  0  0  0  0  0  0  0  0  0  0
   54.2253   89.6015   18.3770 C   0  0  0  0  0  0  0  0  0  0  0  0
   54.2085   89.2943   19.7245 C   0  0  0  0  0  0  0  0  0  0  0  0
   53.6358   88.1196   20.1640 C   0  0  0  0  0  0  0  0  0  0  0  0
   53.0733   87.2363   19.2721 C   0  0  0  0  0  0  0  0  0  0  0  0
   53.0917   87.5418   17.9446 C   0  0  0  0  0  0  0  0  0  0  0  0
   53.6683   88.7298   17.4759 C   0  0  0  0  0  0  0  0  0  0  0  0
   54.2324   85.6294   21.2781 C   0  0  0  0  0  0  0  0  0  0  0  0
   55.4930   86.1137   21.0987 C   0  0  0  0  0  0  0  0  0  0  0  0
   56.3176   86.5143   22.1637 C   0  0  0  0  0  0  0  0  0  0  0  0
   55.8782   86.4339   23.4588 C   0  0  0  0  0  0  0  0  0  0  0  0
   54.5944   85.9441   23.6501 C   0  0  0  0  0  0  0  0  0  0  0  0
   53.7896   85.5509   22.6026 C   0  0  0  0  0  0  0  0  0  0  0  0
   56.6800   86.8134   24.5225 O   0  0  0  0  0  0  0  0  0  0  0  0
   57.2687   88.0791   24.6836 C   0  0  0  0  0  0  0  0  0  0  0  0
   56.0990   89.0511   24.9306 C   0  0  0  0  0  0  0  0  0  0  0  0
 14 15  1  0  0  0
 15 16  2  0  0  0
 15 20  1  0  0  0
 16 17  1  0  0  0
 17 18  2  0  0  0
 18 19  1  0  0  0
 18  1  1  0  0  0
 19 20  2  0  0  0
  1  2  1  0  0  0
  1 10  1  0  0  0
  1 11  1  0  0  0
  2  3  1  0  0  0
  2 21  1  0  0  0
  3  4  2  0  0  0
  3  9  1  0  0  0
  4  5  1  0  0  0
  5  6  1  0  0  0
  6  7  1  0  0  0
  7  8  1  0  0  0
  8  9  1  0  0  0
  9 10  1  0  0  0
 21 22  2  0  0  0
 21 26  1  0  0  0
 22 23  1  0  0  0
 23 24  2  0  0  0
 24 25  1  0  0  0
 24 27  1  0  0  0
 25 26  2  0  0  0
 27 28  1  0  0  0
 28 29  1  0  0  0
  2 12  1  0  0  0
 11 13  1  0  0  0
M  CHG 1   2   1
M  END
> <minimizedAffinity>
-7.66556

$$$$
833


 28 31  0  0  0  0  0  0  0  0999 V2000
   53.4101   86.1095   20.3361 C   0  0  0  0  0  0  0  0  0  0  0  0
   54.6601   86.7856   20.6547 N   0  0  0  0  0  0  0  0  0  0  0  0
   55.9401   86.0881   20.7062 C   0  0  0  0  0  0  0  0  0  0  0  0
   57.0181   86.8878   21.3403 C   0  0  0  0  0  0  0  0  0  0  0  0
   56.6525   87.4559   22.6870 C   0  0  0  0  0  0  0  0  0  0  0  0
   56.1961   88.8799   22.4297 C   0  0  0  0  0  0  0  0  0  0  0  0
   55.0070   89.0219   21.6420 C   0  0  0  0  0  0  0  0  0  0  0  0
   54.3438   88.1236   20.8781 C   0  0  0  0  0  0  0  0  0  0  0  0
   53.1855   88.4970   20.1686 N   0  0  0  0  0  0  0  0  0  0  0  0
   52.6508   87.2396   19.7336 C   0  0  0  0  0  0  0  0  0  0  0  0
   52.8856   85.6420   21.5129 O   0  0  0  0  0  0  0  0  0  0  0  0
   52.4632   88.9864   20.7456 H   0  0  0  0  0  0  0  0  0  0  0  0
   53.4392   84.9689   21.9614 H   0  0  0  0  0  0  0  0  0  0  0  0
   54.2799   81.4297   16.4831 Br  0  0  0  0  0  0  0  0  0  0  0  0
   54.0188   82.8947   17.6876 C   0  0  0  0  0  0  0  0  0  0  0  0
   53.6710   84.1274   17.1853 C   0  0  0  0  0  0  0  0  0  0  0  0
   53.4742   85.2147   18.0375 C   0  0  0  0  0  0  0  0  0  0  0  0
   53.6494   84.9882   19.4055 C   0  0  0  0  0  0  0  0  0  0  0  0
   53.9945   83.7750   19.9119 C   0  0  0  0  0  0  0  0  0  0  0  0
   54.1851   82.7085   19.0499 C   0  0  0  0  0  0  0  0  0  0  0  0
   53.6312   89.3057   19.0796 C   0  0  0  0  0  0  0  0  0  0  0  0
   53.6384   90.6869   19.1788 C   0  0  0  0  0  0  0  0  0  0  0  0
   54.0162   91.3836   18.0383 C   0  0  0  0  0  0  0  0  0  0  0  0
   54.3738   90.7845   16.8447 C   0  0  0  0  0  0  0  0  0  0  0  0
   54.3514   89.3746   16.7921 C   0  0  0  0  0  0  0  0  0  0  0  0
   53.9848   88.7105   17.9064 C   0  0  0  0  0  0  0  0  0  0  0  0
   53.2908   91.2890   20.3492 O   0  0  0  0  0  0  0  0  0  0  0  0
   54.0992   92.2723   20.9407 C   0  0  0  0  0  0  0  0  0  0  0  0
 14 15  1  0  0  0
 15 16  2  0  0  0
 15 20  1  0  0  0
 16 17  1  0  0  0
 17 18  2  0  0  0
 18 19  1  0  0  0
 18  1  1  0  0  0
 19 20  2  0  0  0
  1  2  1  0  0  0
  1 10  1  0  0  0
  1 11  1  0  0  0
  2  3  1  0  0  0
  2  8  1  0  0  0
  3  4  1  0  0  0
  4  5  1  0  0  0
  5  6  1  0  0  0
  6  7  1  0  0  0
  7  8  2  0  0  0
  8  9  1  0  0  0
  9 10  1  0  0  0
  9 21  1  0  0  0
 21 22  2  0  0  0
 21 26  1  0  0  0
 22 23  1  0  0  0
 22 27  1  0  0  0
 23 24  2  0  0  0
 24 25  1  0  0  0
 25 26  2  0  0  0
 27 28  1  0  0  0
  9 12  1  0  0  0
 11 13  1  0  0  0
M  CHG 1   9   1
M  END
> <minimizedAffinity>
-7.79761

$$$$
834


 28 31  0  0  0  0  0  0  0  0999 V2000
   53.2602   84.3845   20.8262 C   0  0  0  0  0  0  0  0  0  0  0  0
   53.4612   85.5765   20.0670 N   0  0  0  0  0  0  0  0  0  0  0  0
   54.4571   86.5852   20.2590 C   0  0  0  0  0  0  0  0  0  0  0  0
   54.0160   87.9967   20.2135 C   0  0  0  0  0  0  0  0  0  0  0  0
   52.5814   88.2528   19.9233 C   0  0  0  0  0  0  0  0  0  0  0  0
   52.2303   87.9809   18.4601 C   0  0  0  0  0  0  0  0  0  0  0  0
   51.9161   86.5217   18.3615 C   0  0  0  0  0  0  0  0  0  0  0  0
   52.4356   85.5121   19.0396 C   0  0  0  0  0  0  0  0  0  0  0  0
   52.0442   84.1548   18.8730 N   0  0  0  0  0  0  0  0  0  0  0  0
   52.0067   83.7265   20.2397 C   0  0  0  0  0  0  0  0  0  0  0  0
   54.3534   83.5010   20.7358 O   0  0  0  0  0  0  0  0  0  0  0  0
   51.0948   84.1480   18.4221 H   0  0  0  0  0  0  0  0  0  0  0  0
   53.9476   82.6027   20.6303 H   0  0  0  0  0  0  0  0  0  0  0  0
   51.5552   84.7304   26.7488 Br  0  0  0  0  0  0  0  0  0  0  0  0
   52.1311   84.6430   24.9267 C   0  0  0  0  0  0  0  0  0  0  0  0
   53.3611   85.1342   24.5441 C   0  0  0  0  0  0  0  0  0  0  0  0
   53.7592   85.0645   23.2149 C   0  0  0  0  0  0  0  0  0  0  0  0
   52.9748   84.5212   22.2527 C   0  0  0  0  0  0  0  0  0  0  0  0
   51.7145   84.0177   22.6386 C   0  0  0  0  0  0  0  0  0  0  0  0
   51.3325   84.0914   23.9532 C   0  0  0  0  0  0  0  0  0  0  0  0
   53.0089   83.4891   18.1000 C   0  0  0  0  0  0  0  0  0  0  0  0
   53.1229   82.0874   18.1410 C   0  0  0  0  0  0  0  0  0  0  0  0
   54.0552   81.4094   17.4030 C   0  0  0  0  0  0  0  0  0  0  0  0
   54.9305   82.0826   16.5777 C   0  0  0  0  0  0  0  0  0  0  0  0
   54.8388   83.4493   16.5202 C   0  0  0  0  0  0  0  0  0  0  0  0
   53.8992   84.1320   17.2652 C   0  0  0  0  0  0  0  0  0  0  0  0
   55.8857   81.3765   15.8219 O   0  0  0  0  0  0  0  0  0  0  0  0
   55.8740   79.9736   15.8105 C   0  0  0  0  0  0  0  0  0  0  0  0
 14 15  1  0  0  0
 15 16  2  0  0  0
 15 20  1  0  0  0
 16 17  1  0  0  0
 17 18  2  0  0  0
 18 19  1  0  0  0
 18  1  1  0  0  0
 19 20  2  0  0  0
  1  2  1  0  0  0
  1 10  1  0  0  0
  1 11  1  0  0  0
  2  3  1  0  0  0
  2  8  1  0  0  0
  3  4  1  0  0  0
  4  5  1  0  0  0
  5  6  1  0  0  0
  6  7  1  0  0  0
  7  8  2  0  0  0
  8  9  1  0  0  0
  9 10  1  0  0  0
  9 21  1  0  0  0
 21 22  2  0  0  0
 21 26  1  0  0  0
 22 23  1  0  0  0
 23 24  2  0  0  0
 24 25  1  0  0  0
 24 27  1  0  0  0
 25 26  2  0  0  0
 27 28  1  0  0  0
  9 12  1  0  0  0
 11 13  1  0  0  0
M  CHG 1   9   1
M  END
> <minimizedAffinity>
-7.30884

$$$$
835


 27 30  0  0  0  0  0  0  0  0999 V2000
   54.5570   85.9471   20.8372 C   0  0  0  0  0  0  0  0  0  0  0  0
   53.7979   87.0351   20.2592 N   0  0  0  0  0  0  0  0  0  0  0  0
   53.9301   88.4680   20.1005 C   0  0  0  0  0  0  0  0  0  0  0  0
   53.3405   88.9560   18.7931 C   0  0  0  0  0  0  0  0  0  0  0  0
   51.9026   88.5608   18.7519 C   0  0  0  0  0  0  0  0  0  0  0  0
   51.7234   87.1232   19.0461 C   0  0  0  0  0  0  0  0  0  0  0  0
   52.6153   86.4212   19.7512 C   0  0  0  0  0  0  0  0  0  0  0  0
   52.5492   85.0615   20.1188 N   0  0  0  0  0  0  0  0  0  0  0  0
   53.4744   85.0003   21.2690 C   0  0  0  0  0  0  0  0  0  0  0  0
   55.3548   85.2928   19.9043 O   0  0  0  0  0  0  0  0  0  0  0  0
   51.6071   84.8343   20.5787 H   0  0  0  0  0  0  0  0  0  0  0  0
   55.5506   84.3992   20.2764 H   0  0  0  0  0  0  0  0  0  0  0  0
   58.2750   87.7383   25.4685 Br  0  0  0  0  0  0  0  0  0  0  0  0
   57.1041   87.1874   24.0495 C   0  0  0  0  0  0  0  0  0  0  0  0
   57.6301   86.9394   22.8017 C   0  0  0  0  0  0  0  0  0  0  0  0
   56.7718   86.5339   21.7802 C   0  0  0  0  0  0  0  0  0  0  0  0
   55.4161   86.3713   21.9692 C   0  0  0  0  0  0  0  0  0  0  0  0
   54.9129   86.6257   23.2311 C   0  0  0  0  0  0  0  0  0  0  0  0
   55.7507   87.0278   24.2541 C   0  0  0  0  0  0  0  0  0  0  0  0
   52.8889   84.1235   19.1498 C   0  0  0  0  0  0  0  0  0  0  0  0
   52.9006   82.7691   19.3727 C   0  0  0  0  0  0  0  0  0  0  0  0
   53.2714   81.8840   18.3579 C   0  0  0  0  0  0  0  0  0  0  0  0
   53.6311   82.3460   17.1180 C   0  0  0  0  0  0  0  0  0  0  0  0
   53.6204   83.7039   16.8843 C   0  0  0  0  0  0  0  0  0  0  0  0
   53.2546   84.5681   17.8854 C   0  0  0  0  0  0  0  0  0  0  0  0
   52.5515   82.2173   20.5889 O   0  0  0  0  0  0  0  0  0  0  0  0
   53.4822   81.5443   21.3698 C   0  0  0  0  0  0  0  0  0  0  0  0
 13 14  1  0  0  0
 14 15  2  0  0  0
 14 19  1  0  0  0
 15 16  1  0  0  0
 16 17  2  0  0  0
 17 18  1  0  0  0
 17  1  1  0  0  0
 18 19  2  0  0  0
  1  2  1  0  0  0
  1  9  1  0  0  0
  1 10  1  0  0  0
  2  3  1  0  0  0
  2  7  1  0  0  0
  3  4  1  0  0  0
  4  5  1  0  0  0
  5  6  1  0  0  0
  6  7  2  0  0  0
  7  8  1  0  0  0
  8  9  1  0  0  0
  8 20  1  0  0  0
 20 21  2  0  0  0
 20 25  1  0  0  0
 21 22  1  0  0  0
 21 26  1  0  0  0
 22 23  2  0  0  0
 23 24  1  0  0  0
 24 25  2  0  0  0
 26 27  1  0  0  0
  8 11  1  0  0  0
 10 12  1  0  0  0
M  CHG 1   8   1
M  END
> <minimizedAffinity>
-7.35398

$$$$
836


 27 30  0  0  0  0  0  0  0  0999 V2000
   53.9996   83.1334   19.3138 C   0  0  0  0  0  0  0  0  0  0  0  0
   52.8726   83.3766   20.1797 N   0  0  0  0  0  0  0  0  0  0  0  0
   51.5058   82.8822   20.2774 C   0  0  0  0  0  0  0  0  0  0  0  0
   50.9441   82.8677   21.6455 C   0  0  0  0  0  0  0  0  0  0  0  0
   51.8976   83.2501   22.7498 C   0  0  0  0  0  0  0  0  0  0  0  0
   52.8471   84.2879   22.3586 C   0  0  0  0  0  0  0  0  0  0  0  0
   53.3104   84.3425   21.1235 C   0  0  0  0  0  0  0  0  0  0  0  0
   54.2204   85.2178   20.4650 N   0  0  0  0  0  0  0  0  0  0  0  0
   54.7682   84.4316   19.4033 C   0  0  0  0  0  0  0  0  0  0  0  0
   54.7352   82.0735   19.8828 O   0  0  0  0  0  0  0  0  0  0  0  0
   54.9683   85.4604   21.1697 H   0  0  0  0  0  0  0  0  0  0  0  0
   54.0663   81.4709   20.2911 H   0  0  0  0  0  0  0  0  0  0  0  0
   52.5134   81.4216   13.5357 Br  0  0  0  0  0  0  0  0  0  0  0  0
   52.9691   81.9576   15.3094 C   0  0  0  0  0  0  0  0  0  0  0  0
   53.0097   81.0534   16.3538 C   0  0  0  0  0  0  0  0  0  0  0  0
   53.3436   81.4582   17.6297 C   0  0  0  0  0  0  0  0  0  0  0  0
   53.6529   82.7650   17.9430 C   0  0  0  0  0  0  0  0  0  0  0  0
   53.6085   83.6665   16.8864 C   0  0  0  0  0  0  0  0  0  0  0  0
   53.2752   83.2685   15.6047 C   0  0  0  0  0  0  0  0  0  0  0  0
   53.5443   86.3661   20.0751 C   0  0  0  0  0  0  0  0  0  0  0  0
   52.3471   86.2832   19.4036 C   0  0  0  0  0  0  0  0  0  0  0  0
   51.6653   87.4461   19.0096 C   0  0  0  0  0  0  0  0  0  0  0  0
   52.1596   88.6923   19.2755 C   0  0  0  0  0  0  0  0  0  0  0  0
   53.3849   88.7736   19.9630 C   0  0  0  0  0  0  0  0  0  0  0  0
   54.0300   87.6128   20.3365 C   0  0  0  0  0  0  0  0  0  0  0  0
   51.5373   89.8860   18.9148 O   0  0  0  0  0  0  0  0  0  0  0  0
   51.9650   91.1698   19.2345 C   0  0  0  0  0  0  0  0  0  0  0  0
 13 14  1  0  0  0
 14 15  2  0  0  0
 14 19  1  0  0  0
 15 16  1  0  0  0
 16 17  2  0  0  0
 17 18  1  0  0  0
 17  1  1  0  0  0
 18 19  2  0  0  0
  1  2  1  0  0  0
  1  9  1  0  0  0
  1 10  1  0  0  0
  2  3  1  0  0  0
  2  7  1  0  0  0
  3  4  1  0  0  0
  4  5  1  0  0  0
  5  6  1  0  0  0
  6  7  2  0  0  0
  7  8  1  0  0  0
  8  9  1  0  0  0
  8 20  1  0  0  0
 20 21  2  0  0  0
 20 25  1  0  0  0
 21 22  1  0  0  0
 22 23  2  0  0  0
 23 24  1  0  0  0
 23 26  1  0  0  0
 24 25  2  0  0  0
 26 27  1  0  0  0
  8 11  1  0  0  0
 10 12  1  0  0  0
M  CHG 1   8   1
M  END
> <minimizedAffinity>
-7.22320

$$$$
847


 31 34  0  0  0  0  0  0  0  0999 V2000
   54.7970   91.7751   21.4904 C   0  0  0  0  0  0  0  0  0  0  0  0
   54.1371   91.3032   20.4201 N   0  0  0  0  0  0  0  0  0  0  0  0
   54.6342   90.0872   20.1276 C   0  0  0  0  0  0  0  0  0  0  0  0
   55.6237   89.7990   21.0368 N   0  0  0  0  0  0  0  0  0  0  0  0
   55.6914   90.8439   21.8433 N   0  0  0  0  0  0  0  0  0  0  0  0
   54.3105   89.1061   19.0874 C   0  0  0  0  0  0  0  0  0  0  0  0
   53.8707   89.6943   17.7734 C   0  0  0  0  0  0  0  0  0  0  0  0
   52.6239   90.5116   17.8682 C   0  0  0  0  0  0  0  0  0  0  0  0
   53.0363   91.9046   18.2842 C   0  0  0  0  0  0  0  0  0  0  0  0
   53.1001   92.0480   19.7847 C   0  0  0  0  0  0  0  0  0  0  0  0
   54.6386   93.0750   22.2186 C   0  0  0  0  0  0  0  0  0  0  0  0
   55.2186   93.0443   23.5460 N   0  0  0  0  0  0  0  0  0  0  0  0
   55.8631   92.2754   23.8337 H   0  0  0  0  0  0  0  0  0  0  0  0
   54.0400   97.3169   27.7318 Br  0  0  0  0  0  0  0  0  0  0  0  0
   54.4061   95.9825   26.4289 C   0  0  0  0  0  0  0  0  0  0  0  0
   55.6943   95.8298   25.9260 C   0  0  0  0  0  0  0  0  0  0  0  0
   55.9577   94.8693   24.9866 C   0  0  0  0  0  0  0  0  0  0  0  0
   54.9487   94.0483   24.5324 C   0  0  0  0  0  0  0  0  0  0  0  0
   53.6779   94.2132   25.0413 C   0  0  0  0  0  0  0  0  0  0  0  0
   53.3793   95.1681   25.9857 C   0  0  0  0  0  0  0  0  0  0  0  0
   56.3960   88.6276   21.1625 C   0  0  0  0  0  0  0  0  0  0  0  0
   56.1276   87.7418   22.2644 C   0  0  0  0  0  0  0  0  0  0  0  0
   56.9438   87.9515   23.2982 O   0  0  0  0  0  0  0  0  0  0  0  0
   55.1825   86.6876   22.5017 C   0  0  0  0  0  0  0  0  0  0  0  0
   54.6161   85.9765   21.4213 C   0  0  0  0  0  0  0  0  0  0  0  0
   53.7063   84.9665   21.5900 C   0  0  0  0  0  0  0  0  0  0  0  0
   53.2953   84.5924   22.8446 C   0  0  0  0  0  0  0  0  0  0  0  0
   53.8197   85.2557   23.9197 C   0  0  0  0  0  0  0  0  0  0  0  0
   54.7535   86.2918   23.7314 C   0  0  0  0  0  0  0  0  0  0  0  0
   52.3700   83.5642   23.0148 O   0  0  0  0  0  0  0  0  0  0  0  0
   51.0493   83.7987   23.4375 C   0  0  0  0  0  0  0  0  0  0  0  0
 14 15  1  0  0  0
 15 16  2  0  0  0
 15 20  1  0  0  0
 16 17  1  0  0  0
 17 18  2  0  0  0
 18 19  1  0  0  0
 18 12  1  0  0  0
 19 20  2  0  0  0
 12 11  1  0  0  0
 11  1  1  0  0  0
  1  2  1  0  0  0
  1  5  2  0  0  0
  2  3  1  0  0  0
  2 10  1  0  0  0
  3  4  2  0  0  0
  3  6  1  0  0  0
  4  5  1  0  0  0
  4 21  1  0  0  0
 21 22  1  0  0  0
 22 23  2  0  0  0
 22 24  1  0  0  0
 24 25  2  0  0  0
 24 29  1  0  0  0
 25 26  1  0  0  0
 26 27  2  0  0  0
 27 28  1  0  0  0
 27 30  1  0  0  0
 28 29  2  0  0  0
 30 31  1  0  0  0
  6  7  1  0  0  0
  7  8  1  0  0  0
  8  9  1  0  0  0
  9 10  1  0  0  0
 12 13  1  0  0  0
M  END
> <minimizedAffinity>
-9.70918

$$$$
850


 29 32  0  0  0  0  0  0  0  0999 V2000
   52.0698   84.4750   28.3620 N   0  0  0  0  0  0  0  0  0  0  0  0
   51.2861   84.7315   27.1904 C   0  0  0  0  0  0  0  0  0  0  0  0
   50.5643   83.3908   27.0605 C   0  0  0  0  0  0  0  0  0  0  0  0
   51.6097   82.4191   27.4178 N   0  0  0  0  0  0  0  0  0  0  0  0
   51.4930   81.0529   27.0484 C   0  0  0  0  0  0  0  0  0  0  0  0
   52.6611   80.1928   27.4272 C   0  0  0  0  0  0  0  0  0  0  0  0
   53.9342   80.8538   26.9748 C   0  0  0  0  0  0  0  0  0  0  0  0
   54.5040   81.5248   28.2332 C   0  0  0  0  0  0  0  0  0  0  0  0
   53.8176   82.8178   28.4269 C   0  0  0  0  0  0  0  0  0  0  0  0
   52.5974   83.1842   28.1068 C   0  0  0  0  0  0  0  0  0  0  0  0
   50.4848   85.8286   27.1954 O   0  0  0  0  0  0  0  0  0  0  0  0
   52.8249   85.2291   28.3982 H   0  0  0  0  0  0  0  0  0  0  0  0
   49.8362   85.8424   26.4678 H   0  0  0  0  0  0  0  0  0  0  0  0
   49.3624   84.9585   33.8388 Br  0  0  0  0  0  0  0  0  0  0  0  0
   50.2153   84.7847   32.1310 C   0  0  0  0  0  0  0  0  0  0  0  0
   51.3717   85.4703   31.8340 C   0  0  0  0  0  0  0  0  0  0  0  0
   51.9698   85.3461   30.5886 C   0  0  0  0  0  0  0  0  0  0  0  0
   51.4406   84.5339   29.5874 C   0  0  0  0  0  0  0  0  0  0  0  0
   50.2968   83.8771   29.9326 C   0  0  0  0  0  0  0  0  0  0  0  0
   49.6749   83.9828   31.1739 C   0  0  0  0  0  0  0  0  0  0  0  0
   52.1320   84.8351   25.9667 C   0  0  0  0  0  0  0  0  0  0  0  0
   51.8626   84.2334   24.7740 C   0  0  0  0  0  0  0  0  0  0  0  0
   52.7027   84.3782   23.6498 C   0  0  0  0  0  0  0  0  0  0  0  0
   53.8419   85.1435   23.7164 C   0  0  0  0  0  0  0  0  0  0  0  0
   54.1241   85.7544   24.9142 C   0  0  0  0  0  0  0  0  0  0  0  0
   53.3025   85.6098   26.0087 C   0  0  0  0  0  0  0  0  0  0  0  0
   54.6829   85.2978   22.6018 O   0  0  0  0  0  0  0  0  0  0  0  0
   55.1234   86.5670   22.1809 C   0  0  0  0  0  0  0  0  0  0  0  0
   56.6153   86.6704   22.1323 C   0  0  0  0  0  0  0  0  0  0  0  0
 14 15  1  0  0  0
 15 16  2  0  0  0
 15 20  1  0  0  0
 16 17  1  0  0  0
 17 18  2  0  0  0
 18 19  1  0  0  0
 18  1  1  0  0  0
 19 20  2  0  0  0
  1  2  1  0  0  0
  1 10  1  0  0  0
  2  3  1  0  0  0
  2 11  1  0  0  0
  2 21  1  0  0  0
  3  4  1  0  0  0
  4  5  1  0  0  0
  4 10  1  0  0  0
  5  6  1  0  0  0
  6  7  1  0  0  0
  7  8  1  0  0  0
  8  9  1  0  0  0
  9 10  2  0  0  0
 21 22  2  0  0  0
 21 26  1  0  0  0
 22 23  1  0  0  0
 23 24  2  0  0  0
 24 25  1  0  0  0
 24 27  1  0  0  0
 25 26  2  0  0  0
 27 28  1  0  0  0
 28 29  1  0  0  0
  1 12  1  0  0  0
 11 13  1  0  0  0
M  CHG 1   1   1
M  END
> <minimizedAffinity>
-6.32853

$$$$
860


 29 32  0  0  0  0  0  0  0  0999 V2000
   52.5038   91.0712   18.4199 Br  0  0  0  0  0  0  0  0  0  0  0  0
   53.1854   89.4676   19.2152 C   0  0  0  0  0  0  0  0  0  0  0  0
   52.4100   88.3304   19.3291 C   0  0  0  0  0  0  0  0  0  0  0  0
   52.9044   87.1799   19.9016 C   0  0  0  0  0  0  0  0  0  0  0  0
   54.2064   87.2205   20.3553 C   0  0  0  0  0  0  0  0  0  0  0  0
   54.9862   88.3540   20.2443 C   0  0  0  0  0  0  0  0  0  0  0  0
   54.4871   89.5036   19.6702 C   0  0  0  0  0  0  0  0  0  0  0  0
   55.3383   90.7223   19.5552 C   0  0  0  0  0  0  0  0  0  0  0  0
   54.6838   86.0444   20.9306 O   0  0  0  0  0  0  0  0  0  0  0  0
   53.8748   84.9944   21.3427 C   0  0  0  0  0  0  0  0  0  0  0  0
   52.6348   84.7832   20.5415 C   0  0  0  0  0  0  0  0  0  0  0  0
   52.0159   86.0164   19.9847 C   0  0  0  0  0  0  0  0  0  0  0  0
   51.5230   85.7873   18.6770 O   0  0  0  0  0  0  0  0  0  0  0  0
   51.9601   86.3573   18.0113 H   0  0  0  0  0  0  0  0  0  0  0  0
   51.6602   84.2084   21.4748 N   0  0  0  0  0  0  0  0  0  0  0  0
   52.1371   84.1333   22.8129 C   0  0  0  0  0  0  0  0  0  0  0  0
   50.9041   83.8784   23.6936 C   0  0  0  0  0  0  0  0  0  0  0  0
   50.4153   82.6363   23.3263 O   0  0  0  0  0  0  0  0  0  0  0  0
   50.0236   82.5712   21.9942 C   0  0  0  0  0  0  0  0  0  0  0  0
   51.1937   82.9199   21.0626 C   0  0  0  0  0  0  0  0  0  0  0  0
   50.8438   84.8605   21.4548 H   0  0  0  0  0  0  0  0  0  0  0  0
   52.8190   83.7638   19.4359 C   0  0  0  0  0  0  0  0  0  0  0  0
   54.1451   83.7230   18.9007 N   0  0  0  0  0  0  0  0  0  0  0  0
   54.7005   82.3821   18.8774 C   0  0  0  0  0  0  0  0  0  0  0  0
   55.3979   82.0823   17.5592 C   0  0  0  0  0  0  0  0  0  0  0  0
   54.5250   82.1055   16.4840 O   0  0  0  0  0  0  0  0  0  0  0  0
   53.5329   83.0657   16.6576 C   0  0  0  0  0  0  0  0  0  0  0  0
   54.1362   84.1721   17.4985 C   0  0  0  0  0  0  0  0  0  0  0  0
   54.8339   84.3254   19.3761 H   0  0  0  0  0  0  0  0  0  0  0  0
  1  2  1  0  0  0
  2  3  2  0  0  0
  2  7  1  0  0  0
  3  4  1  0  0  0
  4  5  2  0  0  0
  4 12  1  0  0  0
  5  6  1  0  0  0
  5  9  1  0  0  0
  6  7  2  0  0  0
  7  8  1  0  0  0
  9 10  1  0  0  0
 10 11  1  0  0  0
 11 12  1  0  0  0
 11 15  1  0  0  0
 11 22  1  0  0  0
 12 13  1  0  0  0
 15 16  1  0  0  0
 15 20  1  0  0  0
 16 17  1  0  0  0
 17 18  1  0  0  0
 18 19  1  0  0  0
 19 20  1  0  0  0
 22 23  1  0  0  0
 23 24  1  0  0  0
 23 28  1  0  0  0
 24 25  1  0  0  0
 25 26  1  0  0  0
 26 27  1  0  0  0
 27 28  1  0  0  0
 13 14  1  0  0  0
 15 21  1  0  0  0
 23 29  1  0  0  0
M  CHG 1  15   1
M  CHG 1  23   1
M  END
> <minimizedAffinity>
-7.35859

$$$$
861


 32 35  0  0  0  0  0  0  0  0999 V2000
   50.2222   85.0208   28.7014 Br  0  0  0  0  0  0  0  0  0  0  0  0
   51.9125   84.1428   28.4891 C   0  0  0  0  0  0  0  0  0  0  0  0
   52.6595   84.3617   27.3562 C   0  0  0  0  0  0  0  0  0  0  0  0
   53.9032   83.7382   27.1612 C   0  0  0  0  0  0  0  0  0  0  0  0
   54.3325   82.8975   28.1647 C   0  0  0  0  0  0  0  0  0  0  0  0
   53.6031   82.6599   29.3098 C   0  0  0  0  0  0  0  0  0  0  0  0
   52.3877   83.2830   29.4782 C   0  0  0  0  0  0  0  0  0  0  0  0
   51.5287   83.0925   30.6755 C   0  0  0  0  0  0  0  0  0  0  0  0
   54.2237   81.4902   30.6835 Br  0  0  0  0  0  0  0  0  0  0  0  0
   54.6557   83.9952   25.9508 C   0  0  0  0  0  0  0  0  0  0  0  0
   55.7943   83.5345   25.8168 O   0  0  0  0  0  0  0  0  0  0  0  0
   54.0523   84.8103   24.8816 C   0  0  0  0  0  0  0  0  0  0  0  0
   53.1687   85.8407   25.5500 C   0  0  0  0  0  0  0  0  0  0  0  0
   52.1922   85.2188   26.3647 O   0  0  0  0  0  0  0  0  0  0  0  0
   55.0570   85.4502   23.9722 C   0  0  0  0  0  0  0  0  0  0  0  0
   54.8687   86.8245   23.7082 N   0  0  0  0  0  0  0  0  0  0  0  0
   55.8441   87.5980   24.4179 C   0  0  0  0  0  0  0  0  0  0  0  0
   57.2347   87.4915   23.9030 C   0  0  0  0  0  0  0  0  0  0  0  0
   57.4158   86.7900   22.6130 C   0  0  0  0  0  0  0  0  0  0  0  0
   56.2379   86.7225   21.7213 C   0  0  0  0  0  0  0  0  0  0  0  0
   54.9563   87.2134   22.3277 C   0  0  0  0  0  0  0  0  0  0  0  0
   58.0629   86.7465   24.9565 C   0  0  0  0  0  0  0  0  0  0  0  0
   53.9226   87.1301   24.0504 H   0  0  0  0  0  0  0  0  0  0  0  0
   53.1636   83.8710   24.0927 C   0  0  0  0  0  0  0  0  0  0  0  0
   52.2870   84.4988   23.1639 N   0  0  0  0  0  0  0  0  0  0  0  0
   50.9438   83.9326   23.2727 C   0  0  0  0  0  0  0  0  0  0  0  0
   50.6495   82.9343   22.1916 C   0  0  0  0  0  0  0  0  0  0  0  0
   51.8602   82.0565   21.9695 C   0  0  0  0  0  0  0  0  0  0  0  0
   52.9472   82.9131   21.3981 C   0  0  0  0  0  0  0  0  0  0  0  0
   52.6810   84.3481   21.7799 C   0  0  0  0  0  0  0  0  0  0  0  0
   49.5416   82.0139   22.7214 C   0  0  0  0  0  0  0  0  0  0  0  0
   52.1972   85.4975   23.3689 H   0  0  0  0  0  0  0  0  0  0  0  0
  1  2  1  0  0  0
  2  3  2  0  0  0
  2  7  1  0  0  0
  3  4  1  0  0  0
  3 14  1  0  0  0
  4  5  2  0  0  0
  4 10  1  0  0  0
  5  6  1  0  0  0
  6  7  2  0  0  0
  6  9  1  0  0  0
  7  8  1  0  0  0
 10 11  2  0  0  0
 10 12  1  0  0  0
 12 13  1  0  0  0
 12 15  1  0  0  0
 12 24  1  0  0  0
 13 14  1  0  0  0
 15 16  1  0  0  0
 16 17  1  0  0  0
 16 21  1  0  0  0
 17 18  1  0  0  0
 18 19  1  0  0  0
 18 22  1  0  0  0
 19 20  1  0  0  0
 20 21  1  0  0  0
 24 25  1  0  0  0
 25 26  1  0  0  0
 25 30  1  0  0  0
 26 27  1  0  0  0
 27 28  1  0  0  0
 27 31  1  0  0  0
 28 29  1  0  0  0
 29 30  1  0  0  0
 16 23  1  0  0  0
 25 32  1  0  0  0
M  CHG 1  16   1
M  CHG 1  25   1
M  END
> <minimizedAffinity>
-7.47087

$$$$
862


 30 33  0  0  0  0  0  0  0  0999 V2000
   51.7305   88.4084   17.8636 Br  0  0  0  0  0  0  0  0  0  0  0  0
   53.0336   88.0979   19.1932 C   0  0  0  0  0  0  0  0  0  0  0  0
   53.0598   86.8619   19.7913 C   0  0  0  0  0  0  0  0  0  0  0  0
   53.9831   86.5133   20.7917 C   0  0  0  0  0  0  0  0  0  0  0  0
   54.9198   87.4709   21.1997 C   0  0  0  0  0  0  0  0  0  0  0  0
   54.8813   88.7058   20.5916 C   0  0  0  0  0  0  0  0  0  0  0  0
   53.9638   89.0281   19.6082 C   0  0  0  0  0  0  0  0  0  0  0  0
   53.9466   90.3858   18.9642 C   0  0  0  0  0  0  0  0  0  0  0  0
   56.1580   90.0075   21.1466 Br  0  0  0  0  0  0  0  0  0  0  0  0
   53.9585   85.1936   21.3931 C   0  0  0  0  0  0  0  0  0  0  0  0
   54.3143   85.1223   22.5959 O   0  0  0  0  0  0  0  0  0  0  0  0
   53.5213   84.0707   20.5421 C   0  0  0  0  0  0  0  0  0  0  0  0
   52.0889   84.6146   20.0992 C   0  0  0  0  0  0  0  0  0  0  0  0
   52.1837   85.8416   19.4692 O   0  0  0  0  0  0  0  0  0  0  0  0
   53.2679   82.8030   21.1973 C   0  0  0  0  0  0  0  0  0  0  0  0
   53.0591   82.5456   22.5429 N   0  0  0  0  0  0  0  0  0  0  0  0
   53.4340   81.3350   23.1619 C   0  0  0  0  0  0  0  0  0  0  0  0
   52.5757   80.9704   24.3661 C   0  0  0  0  0  0  0  0  0  0  0  0
   51.1626   80.6770   23.9742 C   0  0  0  0  0  0  0  0  0  0  0  0
   50.8004   81.5638   22.8229 C   0  0  0  0  0  0  0  0  0  0  0  0
   51.6376   82.7999   22.8668 C   0  0  0  0  0  0  0  0  0  0  0  0
   53.5139   83.3327   23.1706 H   0  0  0  0  0  0  0  0  0  0  0  0
   54.3580   84.0052   19.3217 C   0  0  0  0  0  0  0  0  0  0  0  0
   53.9539   83.2537   18.2085 N   0  0  0  0  0  0  0  0  0  0  0  0
   54.2318   84.0393   16.9985 C   0  0  0  0  0  0  0  0  0  0  0  0
   53.5690   83.4493   15.7711 C   0  0  0  0  0  0  0  0  0  0  0  0
   54.2488   82.0888   15.5493 C   0  0  0  0  0  0  0  0  0  0  0  0
   53.9335   81.3062   16.8033 C   0  0  0  0  0  0  0  0  0  0  0  0
   54.6505   81.9997   17.9742 C   0  0  0  0  0  0  0  0  0  0  0  0
   52.9465   83.0115   18.1127 H   0  0  0  0  0  0  0  0  0  0  0  0
  1  2  1  0  0  0
  2  3  2  0  0  0
  2  7  1  0  0  0
  3  4  1  0  0  0
  3 14  1  0  0  0
  4  5  2  0  0  0
  4 10  1  0  0  0
  5  6  1  0  0  0
  6  7  2  0  0  0
  6  9  1  0  0  0
  7  8  1  0  0  0
 10 11  2  0  0  0
 10 12  1  0  0  0
 12 13  1  0  0  0
 12 15  1  0  0  0
 12 23  1  0  0  0
 13 14  1  0  0  0
 15 16  1  0  0  0
 16 17  1  0  0  0
 16 21  1  0  0  0
 17 18  1  0  0  0
 18 19  1  0  0  0
 19 20  1  0  0  0
 20 21  1  0  0  0
 23 24  1  0  0  0
 24 25  1  0  0  0
 24 29  1  0  0  0
 25 26  1  0  0  0
 26 27  1  0  0  0
 27 28  1  0  0  0
 28 29  1  0  0  0
 16 22  1  0  0  0
 24 30  1  0  0  0
M  CHG 1  16   1
M  CHG 1  24   1
M  END
> <minimizedAffinity>
-7.69745

$$$$
865


 30 33  0  0  0  0  0  0  0  0999 V2000
   54.1442   85.3266   20.9611 C   0  0  0  0  0  0  0  0  0  0  0  0
   54.8172   85.6621   22.0836 N   0  0  0  0  0  0  0  0  0  0  0  0
   55.0762   86.9479   22.4282 C   0  0  0  0  0  0  0  0  0  0  0  0
   54.6307   87.8887   21.5932 N   0  0  0  0  0  0  0  0  0  0  0  0
   53.9551   87.6292   20.4602 C   0  0  0  0  0  0  0  0  0  0  0  0
   53.7294   86.3347   20.1744 N   0  0  0  0  0  0  0  0  0  0  0  0
   53.5112   88.6850   19.6187 N   0  0  0  0  0  0  0  0  0  0  0  0
   52.3034   88.4989   18.8375 C   0  0  0  0  0  0  0  0  0  0  0  0
   52.0547   89.7289   17.9938 C   0  0  0  0  0  0  0  0  0  0  0  0
   52.1253   90.9079   18.6796 O   0  0  0  0  0  0  0  0  0  0  0  0
   53.1353   91.0296   19.5955 C   0  0  0  0  0  0  0  0  0  0  0  0
   54.1891   89.9404   19.4879 C   0  0  0  0  0  0  0  0  0  0  0  0
   55.7893   87.2446   23.6232 N   0  0  0  0  0  0  0  0  0  0  0  0
   55.2076   87.8949   24.7743 C   0  0  0  0  0  0  0  0  0  0  0  0
   56.1310   89.0849   25.0292 C   0  0  0  0  0  0  0  0  0  0  0  0
   57.3303   88.6304   25.4370 O   0  0  0  0  0  0  0  0  0  0  0  0
   57.9271   87.6219   24.7892 C   0  0  0  0  0  0  0  0  0  0  0  0
   57.1851   86.8927   23.7406 C   0  0  0  0  0  0  0  0  0  0  0  0
   53.9091   83.9645   20.6637 N   0  0  0  0  0  0  0  0  0  0  0  0
   53.9832   83.2621   21.4180 H   0  0  0  0  0  0  0  0  0  0  0  0
   54.4235   83.5316   18.4027 C   0  0  0  0  0  0  0  0  0  0  0  0
   53.5836   83.5659   19.3747 N   0  0  0  0  0  0  0  0  0  0  0  0
   52.8456   81.8958   13.2431 F   0  0  0  0  0  0  0  0  0  0  0  0
   53.2171   82.2795   14.4957 C   0  0  0  0  0  0  0  0  0  0  0  0
   52.6791   81.6959   15.6240 C   0  0  0  0  0  0  0  0  0  0  0  0
   53.0692   82.1005   16.8836 C   0  0  0  0  0  0  0  0  0  0  0  0
   54.0080   83.1007   17.0744 C   0  0  0  0  0  0  0  0  0  0  0  0
   54.5404   83.6779   15.9410 C   0  0  0  0  0  0  0  0  0  0  0  0
   54.1504   83.2744   14.6714 C   0  0  0  0  0  0  0  0  0  0  0  0
   51.3818   80.3136   15.3905 Br  0  0  0  0  0  0  0  0  0  0  0  0
 23 24  1  0  0  0
 24 25  2  0  0  0
 24 29  1  0  0  0
 25 26  1  0  0  0
 25 30  1  0  0  0
 26 27  2  0  0  0
 27 28  1  0  0  0
 27 21  1  0  0  0
 28 29  2  0  0  0
 21 22  2  0  0  0
 22 19  1  0  0  0
 19  1  1  0  0  0
  1  2  2  0  0  0
  1  6  1  0  0  0
  2  3  1  0  0  0
  3  4  2  0  0  0
  3 13  1  0  0  0
  4  5  1  0  0  0
  5  6  2  0  0  0
  5  7  1  0  0  0
  7  8  1  0  0  0
  7 12  1  0  0  0
  8  9  1  0  0  0
  9 10  1  0  0  0
 10 11  1  0  0  0
 11 12  1  0  0  0
 13 14  1  0  0  0
 13 18  1  0  0  0
 14 15  1  0  0  0
 15 16  1  0  0  0
 16 17  1  0  0  0
 17 18  1  0  0  0
 19 20  1  0  0  0
M  END
> <minimizedAffinity>
-9.40122

$$$$
872


 32 35  0  0  0  0  0  0  0  0999 V2000
   55.8824   94.4155   24.8887 N   0  0  0  0  0  0  0  0  0  0  0  0
   57.1193   94.7379   24.5555 N   0  0  0  0  0  0  0  0  0  0  0  0
   57.3103   95.9627   25.0137 N   0  0  0  0  0  0  0  0  0  0  0  0
   56.2070   96.4266   25.6355 C   0  0  0  0  0  0  0  0  0  0  0  0
   55.3063   95.4339   25.5496 C   0  0  0  0  0  0  0  0  0  0  0  0
   54.1895   95.9223   26.1866 C   0  0  0  0  0  0  0  0  0  0  0  0
   53.1090   95.2885   26.3233 O   0  0  0  0  0  0  0  0  0  0  0  0
   54.3847   97.1726   26.6525 N   0  0  0  0  0  0  0  0  0  0  0  0
   55.6434   97.4942   26.3120 C   0  0  0  0  0  0  0  0  0  0  0  0
   56.2083   98.5891   26.5709 O   0  0  0  0  0  0  0  0  0  0  0  0
   57.8259   94.1467   24.0302 H   0  0  0  0  0  0  0  0  0  0  0  0
   58.2212   96.4778   24.8887 H   0  0  0  0  0  0  0  0  0  0  0  0
   53.4161   97.9630   27.3638 C   0  0  0  0  0  0  0  0  0  0  0  0
   52.7446   98.9919   26.7327 C   0  0  0  0  0  0  0  0  0  0  0  0
   51.8085   99.7756   27.3749 C   0  0  0  0  0  0  0  0  0  0  0  0
   51.5558   99.4939   28.7034 C   0  0  0  0  0  0  0  0  0  0  0  0
   52.1979   98.4751   29.3876 C   0  0  0  0  0  0  0  0  0  0  0  0
   53.1237   97.7293   28.6863 C   0  0  0  0  0  0  0  0  0  0  0  0
   50.2484  100.5981   29.5770 Br  0  0  0  0  0  0  0  0  0  0  0  0
   55.2811   93.1387   24.5715 C   0  0  0  0  0  0  0  0  0  0  0  0
   54.8710   91.7406   22.5280 N   0  0  0  0  0  0  0  0  0  0  0  0
   55.2546   92.9659   23.0661 C   0  0  0  0  0  0  0  0  0  0  0  0
   55.5843   93.9458   22.3903 O   0  0  0  0  0  0  0  0  0  0  0  0
   54.6088   90.9779   23.2421 H   0  0  0  0  0  0  0  0  0  0  0  0
   56.6974   90.0587   21.4595 F   0  0  0  0  0  0  0  0  0  0  0  0
   55.7597   90.5702   20.6147 C   0  0  0  0  0  0  0  0  0  0  0  0
   54.8042   91.4450   21.1576 C   0  0  0  0  0  0  0  0  0  0  0  0
   53.8652   91.9578   20.3179 C   0  0  0  0  0  0  0  0  0  0  0  0
   53.8142   91.6497   18.9416 C   0  0  0  0  0  0  0  0  0  0  0  0
   54.7676   90.7888   18.4488 C   0  0  0  0  0  0  0  0  0  0  0  0
   55.7296   90.2553   19.2807 C   0  0  0  0  0  0  0  0  0  0  0  0
   54.7730   90.4530   17.1380 F   0  0  0  0  0  0  0  0  0  0  0  0
 25 26  1  0  0  0
 26 27  2  0  0  0
 26 31  1  0  0  0
 27 28  1  0  0  0
 27 21  1  0  0  0
 28 29  2  0  0  0
 29 30  1  0  0  0
 30 31  2  0  0  0
 30 32  1  0  0  0
 21 22  1  0  0  0
 22 23  2  0  0  0
 22 20  1  0  0  0
 20  1  1  0  0  0
  1  2  1  0  0  0
  1  5  1  0  0  0
  2  3  1  0  0  0
  3  4  1  0  0  0
  4  5  2  0  0  0
  4  9  1  0  0  0
  5  6  1  0  0  0
  6  7  2  0  0  0
  6  8  1  0  0  0
  8  9  1  0  0  0
  8 13  1  0  0  0
  9 10  2  0  0  0
 13 14  2  0  0  0
 13 18  1  0  0  0
 14 15  1  0  0  0
 15 16  2  0  0  0
 16 17  1  0  0  0
 16 19  1  0  0  0
 17 18  2  0  0  0
 21 24  1  0  0  0
  2 11  1  0  0  0
  3 12  1  0  0  0
M  END
> <minimizedAffinity>
-10.22486

$$$$
873


 32 35  0  0  0  0  0  0  0  0999 V2000
   52.1644   84.5784   19.7638 C   0  0  0  0  0  0  0  0  0  0  0  0
   52.3190   86.0244   19.7896 N   0  0  0  0  0  0  0  0  0  0  0  0
   53.5043   86.1719   20.5996 C   0  0  0  0  0  0  0  0  0  0  0  0
   54.3898   87.0655   20.5413 O   0  0  0  0  0  0  0  0  0  0  0  0
   53.5509   85.0527   21.5826 C   0  0  0  0  0  0  0  0  0  0  0  0
   54.3545   84.7591   22.4660 O   0  0  0  0  0  0  0  0  0  0  0  0
   52.3102   84.2957   21.2439 C   0  0  0  0  0  0  0  0  0  0  0  0
   51.5768   83.5779   22.0590 C   0  0  0  0  0  0  0  0  0  0  0  0
   50.4362   82.9186   21.5577 O   0  0  0  0  0  0  0  0  0  0  0  0
   53.2242   85.2956   17.1779 F   0  0  0  0  0  0  0  0  0  0  0  0
   53.6984   84.2337   17.8109 C   0  0  0  0  0  0  0  0  0  0  0  0
   53.2346   83.8579   19.0550 C   0  0  0  0  0  0  0  0  0  0  0  0
   53.8230   82.7353   19.5823 C   0  0  0  0  0  0  0  0  0  0  0  0
   54.8148   81.9991   18.9531 C   0  0  0  0  0  0  0  0  0  0  0  0
   55.2478   82.4026   17.7226 C   0  0  0  0  0  0  0  0  0  0  0  0
   54.6964   83.5054   17.1571 C   0  0  0  0  0  0  0  0  0  0  0  0
   51.9030   83.4426   23.4710 C   0  0  0  0  0  0  0  0  0  0  0  0
   52.5941   82.3281   23.8933 C   0  0  0  0  0  0  0  0  0  0  0  0
   52.9128   82.1224   25.2254 C   0  0  0  0  0  0  0  0  0  0  0  0
   52.5364   83.0512   26.1712 C   0  0  0  0  0  0  0  0  0  0  0  0
   51.8523   84.1598   25.7764 C   0  0  0  0  0  0  0  0  0  0  0  0
   51.5339   84.3574   24.4213 C   0  0  0  0  0  0  0  0  0  0  0  0
   52.9667   82.7916   28.0330 Br  0  0  0  0  0  0  0  0  0  0  0  0
   51.6099   87.0990   19.2407 C   0  0  0  0  0  0  0  0  0  0  0  0
   52.2494   87.9948   18.2415 C   0  0  0  0  0  0  0  0  0  0  0  0
   52.9649   89.1003   18.8129 N   0  0  0  0  0  0  0  0  0  0  0  0
   52.0852   90.2496   18.8675 C   0  0  0  0  0  0  0  0  0  0  0  0
   52.7613   91.4108   19.5741 C   0  0  0  0  0  0  0  0  0  0  0  0
   53.9160   91.7432   18.8917 O   0  0  0  0  0  0  0  0  0  0  0  0
   54.7596   90.6407   18.7914 C   0  0  0  0  0  0  0  0  0  0  0  0
   54.0880   89.5391   17.9596 C   0  0  0  0  0  0  0  0  0  0  0  0
   53.4279   88.8865   19.7200 H   0  0  0  0  0  0  0  0  0  0  0  0
 10 11  1  0  0  0
 11 12  2  0  0  0
 11 16  1  0  0  0
 12 13  1  0  0  0
 12  1  1  0  0  0
 13 14  2  0  0  0
 14 15  1  0  0  0
 15 16  2  0  0  0
  1  2  1  0  0  0
  1  7  1  0  0  0
  2  3  1  0  0  0
  2 24  1  0  0  0
  3  4  2  0  0  0
  3  5  1  0  0  0
  5  6  2  0  0  0
  5  7  1  0  0  0
  7  8  2  0  0  0
  8  9  1  0  0  0
  8 17  1  0  0  0
 17 18  2  0  0  0
 17 22  1  0  0  0
 18 19  1  0  0  0
 19 20  2  0  0  0
 20 21  1  0  0  0
 20 23  1  0  0  0
 21 22  2  0  0  0
 24 25  1  0  0  0
 25 26  1  0  0  0
 26 27  1  0  0  0
 26 31  1  0  0  0
 27 28  1  0  0  0
 28 29  1  0  0  0
 29 30  1  0  0  0
 30 31  1  0  0  0
 26 32  1  0  0  0
M  CHG 1   9  -1
M  CHG 1  26   1
M  END
> <minimizedAffinity>
-7.80280

$$$$
874


 31 34  0  0  0  0  0  0  0  0999 V2000
   55.7206   94.5073   24.8523 N   0  0  0  0  0  0  0  0  0  0  0  0
   56.9709   94.8306   24.6031 N   0  0  0  0  0  0  0  0  0  0  0  0
   57.2466   96.0248   25.1066 N   0  0  0  0  0  0  0  0  0  0  0  0
   56.1303   96.4947   25.7054 C   0  0  0  0  0  0  0  0  0  0  0  0
   55.2131   95.5633   25.5430 C   0  0  0  0  0  0  0  0  0  0  0  0
   54.0665   96.0434   26.1560 C   0  0  0  0  0  0  0  0  0  0  0  0
   52.9823   95.4234   26.2035 O   0  0  0  0  0  0  0  0  0  0  0  0
   54.2801   97.2591   26.6907 N   0  0  0  0  0  0  0  0  0  0  0  0
   55.5656   97.5412   26.4105 C   0  0  0  0  0  0  0  0  0  0  0  0
   56.1707   98.5872   26.7323 O   0  0  0  0  0  0  0  0  0  0  0  0
   57.6344   94.2057   24.0763 H   0  0  0  0  0  0  0  0  0  0  0  0
   58.1690   96.5214   25.0519 H   0  0  0  0  0  0  0  0  0  0  0  0
   53.3327   98.0588   27.3985 C   0  0  0  0  0  0  0  0  0  0  0  0
   53.0142   97.7923   28.7157 C   0  0  0  0  0  0  0  0  0  0  0  0
   52.1009   98.5561   29.4153 C   0  0  0  0  0  0  0  0  0  0  0  0
   51.4635   99.6247   28.8199 C   0  0  0  0  0  0  0  0  0  0  0  0
   51.7657   99.9088   27.5046 C   0  0  0  0  0  0  0  0  0  0  0  0
   52.6820   99.1329   26.8231 C   0  0  0  0  0  0  0  0  0  0  0  0
   50.1943  100.6997   29.7640 Br  0  0  0  0  0  0  0  0  0  0  0  0
   55.0039   93.2998   24.4861 C   0  0  0  0  0  0  0  0  0  0  0  0
   55.0139   91.7115   22.5391 N   0  0  0  0  0  0  0  0  0  0  0  0
   55.2628   92.9800   23.0539 C   0  0  0  0  0  0  0  0  0  0  0  0
   55.7091   93.9068   22.3584 O   0  0  0  0  0  0  0  0  0  0  0  0
   54.6284   90.9959   23.2399 H   0  0  0  0  0  0  0  0  0  0  0  0
   53.1775   92.3247   20.5891 F   0  0  0  0  0  0  0  0  0  0  0  0
   54.2577   91.5764   20.2216 C   0  0  0  0  0  0  0  0  0  0  0  0
   55.2068   91.2540   21.2045 C   0  0  0  0  0  0  0  0  0  0  0  0
   56.2741   90.5008   20.7868 C   0  0  0  0  0  0  0  0  0  0  0  0
   56.3853   90.0947   19.4670 C   0  0  0  0  0  0  0  0  0  0  0  0
   55.4606   90.4110   18.5154 C   0  0  0  0  0  0  0  0  0  0  0  0
   54.3842   91.1663   18.9189 C   0  0  0  0  0  0  0  0  0  0  0  0
 25 26  1  0  0  0
 26 27  2  0  0  0
 26 31  1  0  0  0
 27 28  1  0  0  0
 27 21  1  0  0  0
 28 29  2  0  0  0
 29 30  1  0  0  0
 30 31  2  0  0  0
 21 22  1  0  0  0
 22 23  2  0  0  0
 22 20  1  0  0  0
 20  1  1  0  0  0
  1  2  1  0  0  0
  1  5  1  0  0  0
  2  3  1  0  0  0
  3  4  1  0  0  0
  4  5  2  0  0  0
  4  9  1  0  0  0
  5  6  1  0  0  0
  6  7  2  0  0  0
  6  8  1  0  0  0
  8  9  1  0  0  0
  8 13  1  0  0  0
  9 10  2  0  0  0
 13 14  2  0  0  0
 13 18  1  0  0  0
 14 15  1  0  0  0
 15 16  2  0  0  0
 16 17  1  0  0  0
 16 19  1  0  0  0
 17 18  2  0  0  0
 21 24  1  0  0  0
  2 11  1  0  0  0
  3 12  1  0  0  0
M  END
> <minimizedAffinity>
-10.11248

$$$$
886


 31 34  0  0  0  0  0  0  0  0999 V2000
   54.3772   97.1488   26.6737 N   0  0  0  0  0  0  0  0  0  0  0  0
   54.1845   95.9651   26.0677 C   0  0  0  0  0  0  0  0  0  0  0  0
   53.0683   95.3794   26.1061 O   0  0  0  0  0  0  0  0  0  0  0  0
   55.3254   95.5112   25.4330 C   0  0  0  0  0  0  0  0  0  0  0  0
   56.2389   96.4504   25.6628 C   0  0  0  0  0  0  0  0  0  0  0  0
   57.3655   96.0493   25.0668 N   0  0  0  0  0  0  0  0  0  0  0  0
   57.1394   94.8858   24.4859 N   0  0  0  0  0  0  0  0  0  0  0  0
   55.8786   94.5185   24.6930 N   0  0  0  0  0  0  0  0  0  0  0  0
   55.6744   97.4559   26.4183 C   0  0  0  0  0  0  0  0  0  0  0  0
   56.2027   98.5215   26.8459 O   0  0  0  0  0  0  0  0  0  0  0  0
   58.2663   96.6025   25.0817 H   0  0  0  0  0  0  0  0  0  0  0  0
   57.8206   94.3307   23.9493 H   0  0  0  0  0  0  0  0  0  0  0  0
   50.6807  100.2776   29.4904 F   0  0  0  0  0  0  0  0  0  0  0  0
   51.5848   99.5137   28.8078 C   0  0  0  0  0  0  0  0  0  0  0  0
   52.2172   98.4811   29.4402 C   0  0  0  0  0  0  0  0  0  0  0  0
   53.1421   97.6931   28.7509 C   0  0  0  0  0  0  0  0  0  0  0  0
   53.4479   97.9240   27.4287 C   0  0  0  0  0  0  0  0  0  0  0  0
   52.7890   98.9792   26.8168 C   0  0  0  0  0  0  0  0  0  0  0  0
   51.8757   99.7620   27.4862 C   0  0  0  0  0  0  0  0  0  0  0  0
   55.1923   93.3396   24.2501 C   0  0  0  0  0  0  0  0  0  0  0  0
   55.2417   93.0816   22.8070 C   0  0  0  0  0  0  0  0  0  0  0  0
   55.8786   93.8811   22.1045 O   0  0  0  0  0  0  0  0  0  0  0  0
   54.5928   91.9715   22.2584 N   0  0  0  0  0  0  0  0  0  0  0  0
   54.0570   91.3145   22.9337 H   0  0  0  0  0  0  0  0  0  0  0  0
   54.5225   91.5545   20.9087 C   0  0  0  0  0  0  0  0  0  0  0  0
   53.4818   91.9152   20.0866 C   0  0  0  0  0  0  0  0  0  0  0  0
   53.3774   91.5217   18.7490 C   0  0  0  0  0  0  0  0  0  0  0  0
   54.3885   90.7320   18.2629 C   0  0  0  0  0  0  0  0  0  0  0  0
   55.4396   90.3577   19.0625 C   0  0  0  0  0  0  0  0  0  0  0  0
   55.5180   90.7569   20.3714 C   0  0  0  0  0  0  0  0  0  0  0  0
   54.3105   90.1532   16.4256 Br  0  0  0  0  0  0  0  0  0  0  0  0
 13 14  1  0  0  0
 14 15  2  0  0  0
 14 19  1  0  0  0
 15 16  1  0  0  0
 16 17  2  0  0  0
 17 18  1  0  0  0
 17  1  1  0  0  0
 18 19  2  0  0  0
  1  2  1  0  0  0
  1  9  1  0  0  0
  2  3  2  0  0  0
  2  4  1  0  0  0
  4  5  2  0  0  0
  4  8  1  0  0  0
  5  6  1  0  0  0
  5  9  1  0  0  0
  6  7  1  0  0  0
  7  8  1  0  0  0
  8 20  1  0  0  0
 20 21  1  0  0  0
 21 22  2  0  0  0
 21 23  1  0  0  0
 23 25  1  0  0  0
 25 26  2  0  0  0
 25 30  1  0  0  0
 26 27  1  0  0  0
 27 28  2  0  0  0
 28 29  1  0  0  0
 28 31  1  0  0  0
 29 30  2  0  0  0
  9 10  2  0  0  0
  6 11  1  0  0  0
  7 12  1  0  0  0
 23 24  1  0  0  0
M  END
> <minimizedAffinity>
-10.34710

$$$$
892


 27 30  0  0  0  0  0  0  0  0999 V2000
   52.0449   83.1818   19.9439 C   0  0  0  0  0  0  0  0  0  0  0  0
   51.6213   84.4687   19.4399 N   0  0  0  0  0  0  0  0  0  0  0  0
   52.4520   85.6161   19.6464 C   0  0  0  0  0  0  0  0  0  0  0  0
   52.6285   87.1253   18.8013 S   0  0  0  0  0  0  0  0  0  0  0  0
   53.8292   87.8448   19.7658 C   0  0  0  0  0  0  0  0  0  0  0  0
   54.0615   86.9047   20.7088 C   0  0  0  0  0  0  0  0  0  0  0  0
   53.3603   85.7600   20.6550 C   0  0  0  0  0  0  0  0  0  0  0  0
   53.3869   84.5572   21.5352 C   0  0  0  0  0  0  0  0  0  0  0  0
   54.1546   84.4947   22.5244 O   0  0  0  0  0  0  0  0  0  0  0  0
   52.5456   83.4516   21.2812 N   0  0  0  0  0  0  0  0  0  0  0  0
   55.1194   87.2901   21.7359 C   0  0  0  0  0  0  0  0  0  0  0  0
   55.2259   88.7800   21.7610 C   0  0  0  0  0  0  0  0  0  0  0  0
   55.6856   89.1661   20.4175 N   0  0  0  0  0  0  0  0  0  0  0  0
   54.4737   89.1709   19.6256 C   0  0  0  0  0  0  0  0  0  0  0  0
   56.3397   90.4529   20.4360 C   0  0  0  0  0  0  0  0  0  0  0  0
   50.7251   84.6143   18.9247 H   0  0  0  0  0  0  0  0  0  0  0  0
   52.2637   82.7990   22.0565 H   0  0  0  0  0  0  0  0  0  0  0  0
   56.2990   88.4114   20.0442 H   0  0  0  0  0  0  0  0  0  0  0  0
   56.4243   79.8500   19.1135 I   0  0  0  0  0  0  0  0  0  0  0  0
   55.0746   81.3554   18.5335 C   0  0  0  0  0  0  0  0  0  0  0  0
   54.0494   81.7429   19.3976 C   0  0  0  0  0  0  0  0  0  0  0  0
   53.1467   82.7222   19.0583 C   0  0  0  0  0  0  0  0  0  0  0  0
   53.3193   83.3051   17.7948 C   0  0  0  0  0  0  0  0  0  0  0  0
   54.3285   82.9178   16.9522 C   0  0  0  0  0  0  0  0  0  0  0  0
   55.2214   81.9357   17.3117 C   0  0  0  0  0  0  0  0  0  0  0  0
   54.5301   83.7326   15.2434 Br  0  0  0  0  0  0  0  0  0  0  0  0
   53.9442   81.1218   20.6223 O   0  0  0  0  0  0  0  0  0  0  0  0
 19 20  1  0  0  0
 20 21  2  0  0  0
 20 25  1  0  0  0
 21 22  1  0  0  0
 21 27  1  0  0  0
 22 23  2  0  0  0
 22  1  1  0  0  0
 23 24  1  0  0  0
 24 25  2  0  0  0
 24 26  1  0  0  0
  1  2  1  0  0  0
  1 10  1  0  0  0
  2  3  1  0  0  0
  3  4  1  0  0  0
  3  7  2  0  0  0
  4  5  1  0  0  0
  5  6  2  0  0  0
  5 14  1  0  0  0
  6  7  1  0  0  0
  6 11  1  0  0  0
  7  8  1  0  0  0
  8  9  2  0  0  0
  8 10  1  0  0  0
 11 12  1  0  0  0
 12 13  1  0  0  0
 13 14  1  0  0  0
 13 15  1  0  0  0
  2 16  1  0  0  0
 10 17  1  0  0  0
 13 18  1  0  0  0
M  CHG 1  13   1
M  CHG 1  27  -1
M  END
> <minimizedAffinity>
-7.95022

$$$$
895


 28 31  0  0  0  0  0  0  0  0999 V2000
   54.5353   86.3865   21.1712 C   0  0  0  0  0  0  0  0  0  0  0  0
   55.1430   87.7077   21.0113 N   0  0  0  0  0  0  0  0  0  0  0  0
   54.6496   88.6400   20.0171 C   0  0  0  0  0  0  0  0  0  0  0  0
   55.2902   90.0935   19.3603 S   0  0  0  0  0  0  0  0  0  0  0  0
   54.0357   90.4768   18.2855 C   0  0  0  0  0  0  0  0  0  0  0  0
   53.1396   89.4573   18.4638 C   0  0  0  0  0  0  0  0  0  0  0  0
   53.4655   88.5063   19.3660 C   0  0  0  0  0  0  0  0  0  0  0  0
   52.6678   87.3033   19.7405 C   0  0  0  0  0  0  0  0  0  0  0  0
   51.5436   87.0602   19.2064 O   0  0  0  0  0  0  0  0  0  0  0  0
   53.1743   86.4164   20.7106 N   0  0  0  0  0  0  0  0  0  0  0  0
   51.9141   89.6175   17.5709 C   0  0  0  0  0  0  0  0  0  0  0  0
   51.3684   91.0127   17.7220 C   0  0  0  0  0  0  0  0  0  0  0  0
   52.3637   92.0318   17.7062 N   0  0  0  0  0  0  0  0  0  0  0  0
   53.6672   91.5368   17.2770 C   0  0  0  0  0  0  0  0  0  0  0  0
   52.5544   92.4734   19.0967 C   0  0  0  0  0  0  0  0  0  0  0  0
   55.9387   88.0180   21.5984 H   0  0  0  0  0  0  0  0  0  0  0  0
   52.5203   85.7128   21.1429 H   0  0  0  0  0  0  0  0  0  0  0  0
   52.1006   92.8743   17.1309 H   0  0  0  0  0  0  0  0  0  0  0  0
   52.6645   83.4058   25.4716 I   0  0  0  0  0  0  0  0  0  0  0  0
   53.7936   84.9534   24.5892 C   0  0  0  0  0  0  0  0  0  0  0  0
   54.5512   85.7870   25.3868 C   0  0  0  0  0  0  0  0  0  0  0  0
   55.3022   86.8143   24.8176 C   0  0  0  0  0  0  0  0  0  0  0  0
   55.2552   86.9539   23.4632 C   0  0  0  0  0  0  0  0  0  0  0  0
   54.5021   86.1294   22.6372 C   0  0  0  0  0  0  0  0  0  0  0  0
   53.7720   85.1274   23.2143 C   0  0  0  0  0  0  0  0  0  0  0  0
   54.5727   85.6133   26.7579 O   0  0  0  0  0  0  0  0  0  0  0  0
   56.0445   87.6216   25.6689 O   0  0  0  0  0  0  0  0  0  0  0  0
   57.0003   88.4996   25.1044 C   0  0  0  0  0  0  0  0  0  0  0  0
 19 20  1  0  0  0
 20 21  2  0  0  0
 20 25  1  0  0  0
 21 22  1  0  0  0
 21 26  1  0  0  0
 22 23  2  0  0  0
 22 27  1  0  0  0
 23 24  1  0  0  0
 24 25  2  0  0  0
 24  1  1  0  0  0
  1  2  1  0  0  0
  1 10  1  0  0  0
  2  3  1  0  0  0
  3  4  1  0  0  0
  3  7  2  0  0  0
  4  5  1  0  0  0
  5  6  2  0  0  0
  5 14  1  0  0  0
  6  7  1  0  0  0
  6 11  1  0  0  0
  7  8  1  0  0  0
  8  9  2  0  0  0
  8 10  1  0  0  0
 11 12  1  0  0  0
 12 13  1  0  0  0
 13 14  1  0  0  0
 13 15  1  0  0  0
 27 28  1  0  0  0
  2 16  1  0  0  0
 10 17  1  0  0  0
 13 18  1  0  0  0
M  CHG 1  13   1
M  CHG 1  26  -1
M  END
> <minimizedAffinity>
-8.45180

$$$$
906


 27 30  0  0  0  0  0  0  0  0999 V2000
   51.8539   98.1492   27.5217 C   0  0  0  0  0  0  0  0  0  0  0  0
   50.9660   97.2688   27.9684 N   0  0  0  0  0  0  0  0  0  0  0  0
   49.7147   97.5498   28.3689 C   0  0  0  0  0  0  0  0  0  0  0  0
   48.6485   96.8967   28.8468 N   0  0  0  0  0  0  0  0  0  0  0  0
   47.6696   97.7256   29.0687 O   0  0  0  0  0  0  0  0  0  0  0  0
   48.0424   98.9333   28.7539 N   0  0  0  0  0  0  0  0  0  0  0  0
   49.3078   98.8872   28.3106 C   0  0  0  0  0  0  0  0  0  0  0  0
   50.1502   99.8064   27.8753 N   0  0  0  0  0  0  0  0  0  0  0  0
   51.3853   99.4773   27.4882 C   0  0  0  0  0  0  0  0  0  0  0  0
   51.9730  100.6010   27.1102 N   0  0  0  0  0  0  0  0  0  0  0  0
   51.1143  101.6249   27.2580 N   0  0  0  0  0  0  0  0  0  0  0  0
   49.9571  101.1493   27.7405 C   0  0  0  0  0  0  0  0  0  0  0  0
   53.1691   97.8663   27.0998 N   0  0  0  0  0  0  0  0  0  0  0  0
   53.8887   98.6713   27.1469 H   0  0  0  0  0  0  0  0  0  0  0  0
   56.3215   98.2009   26.7719 I   0  0  0  0  0  0  0  0  0  0  0  0
   55.0735   96.5438   26.3771 C   0  0  0  0  0  0  0  0  0  0  0  0
   53.6847   96.6477   26.6139 C   0  0  0  0  0  0  0  0  0  0  0  0
   52.8617   95.5859   26.3680 C   0  0  0  0  0  0  0  0  0  0  0  0
   53.4430   94.4138   25.8778 C   0  0  0  0  0  0  0  0  0  0  0  0
   54.7826   94.2841   25.6402 C   0  0  0  0  0  0  0  0  0  0  0  0
   55.6101   95.3749   25.8971 C   0  0  0  0  0  0  0  0  0  0  0  0
   48.7014  101.8755   28.0685 C   0  0  0  0  0  0  0  0  0  0  0  0
   48.6061  102.2611   29.4967 C   0  0  0  0  0  0  0  0  0  0  0  0
   47.5379  102.6146   30.0381 O   0  0  0  0  0  0  0  0  0  0  0  0
   49.7398  102.2328   30.2606 O   0  0  0  0  0  0  0  0  0  0  0  0
   49.7770  102.3112   31.6406 C   0  0  0  0  0  0  0  0  0  0  0  0
   50.6192  103.3845   32.2165 C   0  0  0  0  0  0  0  0  0  0  0  0
 15 16  1  0  0  0
 16 17  2  0  0  0
 16 21  1  0  0  0
 17 18  1  0  0  0
 17 13  1  0  0  0
 18 19  2  0  0  0
 19 20  1  0  0  0
 20 21  2  0  0  0
 13  1  1  0  0  0
  1  2  2  0  0  0
  1  9  1  0  0  0
  2  3  1  0  0  0
  3  4  2  0  0  0
  3  7  1  0  0  0
  4  5  1  0  0  0
  5  6  1  0  0  0
  6  7  2  0  0  0
  7  8  1  0  0  0
  8  9  1  0  0  0
  8 12  1  0  0  0
  9 10  2  0  0  0
 10 11  1  0  0  0
 11 12  2  0  0  0
 12 22  1  0  0  0
 22 23  1  0  0  0
 23 24  2  0  0  0
 23 25  1  0  0  0
 25 26  1  0  0  0
 26 27  1  0  0  0
 13 14  1  0  0  0
M  END
> <minimizedAffinity>
-8.34768

$$$$
908


 25 28  0  0  0  0  0  0  0  0999 V2000
   53.6611   84.3383   20.7791 N   0  0  0  0  0  0  0  0  0  0  0  0
   54.4511   85.1110   21.5455 C   0  0  0  0  0  0  0  0  0  0  0  0
   55.5396   85.6419   21.1705 O   0  0  0  0  0  0  0  0  0  0  0  0
   53.9302   85.2628   22.8142 C   0  0  0  0  0  0  0  0  0  0  0  0
   52.8027   84.5705   22.8190 C   0  0  0  0  0  0  0  0  0  0  0  0
   52.3032   84.7295   24.0674 N   0  0  0  0  0  0  0  0  0  0  0  0
   53.1009   85.4918   24.7926 N   0  0  0  0  0  0  0  0  0  0  0  0
   54.1133   85.8327   24.0378 N   0  0  0  0  0  0  0  0  0  0  0  0
   52.6272   83.9972   21.5696 C   0  0  0  0  0  0  0  0  0  0  0  0
   51.6357   83.2656   21.2459 O   0  0  0  0  0  0  0  0  0  0  0  0
   51.4165   84.3182   24.4276 H   0  0  0  0  0  0  0  0  0  0  0  0
   52.9545   85.7706   25.7840 H   0  0  0  0  0  0  0  0  0  0  0  0
   52.4021   86.5280   18.8651 I   0  0  0  0  0  0  0  0  0  0  0  0
   53.3881   84.7208   18.3736 C   0  0  0  0  0  0  0  0  0  0  0  0
   53.8443   83.9438   19.4186 C   0  0  0  0  0  0  0  0  0  0  0  0
   54.4849   82.7701   19.0777 C   0  0  0  0  0  0  0  0  0  0  0  0
   54.6550   82.3992   17.7548 C   0  0  0  0  0  0  0  0  0  0  0  0
   54.1950   83.1840   16.7186 C   0  0  0  0  0  0  0  0  0  0  0  0
   53.5537   84.3590   17.0516 C   0  0  0  0  0  0  0  0  0  0  0  0
   55.2294   86.6460   24.3739 C   0  0  0  0  0  0  0  0  0  0  0  0
   55.1182   88.0083   24.5426 C   0  0  0  0  0  0  0  0  0  0  0  0
   56.2257   88.7733   24.8705 C   0  0  0  0  0  0  0  0  0  0  0  0
   57.4746   88.2125   25.0407 C   0  0  0  0  0  0  0  0  0  0  0  0
   57.5875   86.8487   24.8725 C   0  0  0  0  0  0  0  0  0  0  0  0
   56.4951   86.0823   24.5469 C   0  0  0  0  0  0  0  0  0  0  0  0
 13 14  1  0  0  0
 14 15  2  0  0  0
 14 19  1  0  0  0
 15 16  1  0  0  0
 15  1  1  0  0  0
 16 17  2  0  0  0
 17 18  1  0  0  0
 18 19  2  0  0  0
  1  2  1  0  0  0
  1  9  1  0  0  0
  2  3  2  0  0  0
  2  4  1  0  0  0
  4  5  2  0  0  0
  4  8  1  0  0  0
  5  6  1  0  0  0
  5  9  1  0  0  0
  6  7  1  0  0  0
  7  8  1  0  0  0
  8 20  1  0  0  0
 20 21  2  0  0  0
 20 25  1  0  0  0
 21 22  1  0  0  0
 22 23  2  0  0  0
 23 24  1  0  0  0
 24 25  2  0  0  0
  9 10  2  0  0  0
  6 11  1  0  0  0
  7 12  1  0  0  0
M  END
> <minimizedAffinity>
-7.97025

$$$$
910


 26 29  0  0  0  0  0  0  0  0999 V2000
   54.0030   86.8089   20.8294 C   0  0  0  0  0  0  0  0  0  0  0  0
   53.0994   87.2698   19.8442 C   0  0  0  0  0  0  0  0  0  0  0  0
   52.0478   86.6896   19.2776 N   0  0  0  0  0  0  0  0  0  0  0  0
   51.5379   87.5188   18.4186 O   0  0  0  0  0  0  0  0  0  0  0  0
   52.2098   88.6129   18.3983 N   0  0  0  0  0  0  0  0  0  0  0  0
   53.2080   88.5004   19.2844 C   0  0  0  0  0  0  0  0  0  0  0  0
   54.2244   89.3430   19.6760 C   0  0  0  0  0  0  0  0  0  0  0  0
   55.1184   88.9263   20.6282 C   0  0  0  0  0  0  0  0  0  0  0  0
   55.0194   87.6759   21.2064 C   0  0  0  0  0  0  0  0  0  0  0  0
   54.3066   90.6046   19.0679 N   0  0  0  0  0  0  0  0  0  0  0  0
   53.6216   91.7845   19.5974 C   0  0  0  0  0  0  0  0  0  0  0  0
   52.6465   92.1803   18.5074 C   0  0  0  0  0  0  0  0  0  0  0  0
   52.7167   91.3787   17.3795 O   0  0  0  0  0  0  0  0  0  0  0  0
   53.9734   91.2473   16.8276 C   0  0  0  0  0  0  0  0  0  0  0  0
   55.0373   90.9499   17.8696 C   0  0  0  0  0  0  0  0  0  0  0  0
   53.4196   84.3714   21.8653 C   0  0  0  0  0  0  0  0  0  0  0  0
   53.9203   83.2565   21.4265 O   0  0  0  0  0  0  0  0  0  0  0  0
   53.7062   85.5688   21.3563 N   0  0  0  0  0  0  0  0  0  0  0  0
   54.3805   84.9878   20.3261 H   0  0  0  0  0  0  0  0  0  0  0  0
   54.3969   85.5428   25.0508 I   0  0  0  0  0  0  0  0  0  0  0  0
   52.6993   84.5009   24.3009 C   0  0  0  0  0  0  0  0  0  0  0  0
   52.4938   84.0999   22.9987 C   0  0  0  0  0  0  0  0  0  0  0  0
   51.3077   83.4880   22.9541 N   0  0  0  0  0  0  0  0  0  0  0  0
   50.7870   83.4996   24.1752 N   0  0  0  0  0  0  0  0  0  0  0  0
   51.6043   84.1095   25.0308 C   0  0  0  0  0  0  0  0  0  0  0  0
   50.6076   82.9237   21.7851 C   0  0  0  0  0  0  0  0  0  0  0  0
 20 21  1  0  0  0
 21 22  2  0  0  0
 21 25  1  0  0  0
 22 23  1  0  0  0
 22 16  1  0  0  0
 23 24  1  0  0  0
 23 26  1  0  0  0
 24 25  2  0  0  0
 16 17  2  0  0  0
 16 18  1  0  0  0
 18  1  1  0  0  0
  1  2  1  0  0  0
  1  9  2  0  0  0
  2  3  2  0  0  0
  2  6  1  0  0  0
  3  4  1  0  0  0
  4  5  1  0  0  0
  5  6  2  0  0  0
  6  7  1  0  0  0
  7  8  2  0  0  0
  7 10  1  0  0  0
  8  9  1  0  0  0
 10 11  1  0  0  0
 10 15  1  0  0  0
 11 12  1  0  0  0
 12 13  1  0  0  0
 13 14  1  0  0  0
 14 15  1  0  0  0
 18 19  1  0  0  0
M  END
> <minimizedAffinity>
-8.19291

$$$$
920


 24 27  0  0  0  0  0  0  0  0999 V2000
   49.8050  100.9305   27.5771 N   0  0  0  0  0  0  0  0  0  0  0  0
   50.0926   99.6925   27.8336 C   0  0  0  0  0  0  0  0  0  0  0  0
   49.3887   98.2275   28.6067 S   0  0  0  0  0  0  0  0  0  0  0  0
   50.8170   97.2208   28.2788 C   0  0  0  0  0  0  0  0  0  0  0  0
   51.7122   97.9472   27.6476 C   0  0  0  0  0  0  0  0  0  0  0  0
   51.3541   99.2927   27.3875 N   0  0  0  0  0  0  0  0  0  0  0  0
   51.9569  100.4836   26.7355 C   0  0  0  0  0  0  0  0  0  0  0  0
   50.9336  101.5465   26.9355 C   0  0  0  0  0  0  0  0  0  0  0  0
   53.0036   97.2963   27.2776 C   0  0  0  0  0  0  0  0  0  0  0  0
   54.2082   97.9378   27.4010 C   0  0  0  0  0  0  0  0  0  0  0  0
   55.4253   97.3161   27.0595 C   0  0  0  0  0  0  0  0  0  0  0  0
   55.4331   96.0248   26.5850 C   0  0  0  0  0  0  0  0  0  0  0  0
   54.2294   95.3777   26.4594 C   0  0  0  0  0  0  0  0  0  0  0  0
   53.0344   95.9989   26.7992 C   0  0  0  0  0  0  0  0  0  0  0  0
   48.5950  101.5815   27.9143 C   0  0  0  0  0  0  0  0  0  0  0  0
   48.2514  101.8876   29.2777 C   0  0  0  0  0  0  0  0  0  0  0  0
   47.1198  101.3484   29.6463 O   0  0  0  0  0  0  0  0  0  0  0  0
   50.9304  105.4029   33.8265 I   0  0  0  0  0  0  0  0  0  0  0  0
   50.0860  104.2148   32.3402 C   0  0  0  0  0  0  0  0  0  0  0  0
   50.4853  102.9232   32.0560 C   0  0  0  0  0  0  0  0  0  0  0  0
   49.9077  102.1675   31.0713 C   0  0  0  0  0  0  0  0  0  0  0  0
   48.8927  102.6587   30.3079 C   0  0  0  0  0  0  0  0  0  0  0  0
   48.4758  103.9606   30.5798 C   0  0  0  0  0  0  0  0  0  0  0  0
   49.0458  104.7107   31.5538 C   0  0  0  0  0  0  0  0  0  0  0  0
 18 19  1  0  0  0
 19 20  2  0  0  0
 19 24  1  0  0  0
 20 21  1  0  0  0
 21 22  2  0  0  0
 22 23  1  0  0  0
 22 16  1  0  0  0
 23 24  2  0  0  0
 16 17  2  0  0  0
 16 15  1  0  0  0
 15  1  1  0  0  0
  1  2  2  0  0  0
  1  8  1  0  0  0
  2  3  1  0  0  0
  2  6  1  0  0  0
  3  4  1  0  0  0
  4  5  2  0  0  0
  5  6  1  0  0  0
  5  9  1  0  0  0
  6  7  1  0  0  0
  7  8  1  0  0  0
  9 10  2  0  0  0
  9 14  1  0  0  0
 10 11  1  0  0  0
 11 12  2  0  0  0
 12 13  1  0  0  0
 13 14  2  0  0  0
M  END
> <minimizedAffinity>
-8.85085

$$$$
924


 29 32  0  0  0  0  0  0  0  0999 V2000
   54.8248   92.3452   22.5479 C   0  0  0  0  0  0  0  0  0  0  0  0
   54.1784   92.3834   21.3704 N   0  0  0  0  0  0  0  0  0  0  0  0
   54.1211   91.3078   20.5749 C   0  0  0  0  0  0  0  0  0  0  0  0
   54.7398   90.1985   21.0116 N   0  0  0  0  0  0  0  0  0  0  0  0
   55.3985   90.1220   22.1855 C   0  0  0  0  0  0  0  0  0  0  0  0
   55.4318   91.2246   22.9564 N   0  0  0  0  0  0  0  0  0  0  0  0
   56.0278   88.9081   22.5721 N   0  0  0  0  0  0  0  0  0  0  0  0
   56.1021   88.5556   23.9710 C   0  0  0  0  0  0  0  0  0  0  0  0
   57.4498   87.8396   24.1386 C   0  0  0  0  0  0  0  0  0  0  0  0
   57.3831   86.6674   23.4320 O   0  0  0  0  0  0  0  0  0  0  0  0
   57.1958   86.7799   22.0829 C   0  0  0  0  0  0  0  0  0  0  0  0
   56.5842   88.0415   21.5915 C   0  0  0  0  0  0  0  0  0  0  0  0
   53.4407   91.3249   19.3197 N   0  0  0  0  0  0  0  0  0  0  0  0
   52.0615   91.6817   19.1784 C   0  0  0  0  0  0  0  0  0  0  0  0
   51.6581   91.4045   17.7287 C   0  0  0  0  0  0  0  0  0  0  0  0
   52.0448   90.1371   17.3259 O   0  0  0  0  0  0  0  0  0  0  0  0
   53.4066   89.9666   17.2868 C   0  0  0  0  0  0  0  0  0  0  0  0
   54.1734   90.9641   18.1170 C   0  0  0  0  0  0  0  0  0  0  0  0
   54.8724   93.5208   23.3910 N   0  0  0  0  0  0  0  0  0  0  0  0
   53.9985   94.0582   23.5823 H   0  0  0  0  0  0  0  0  0  0  0  0
   56.1866   94.7328   24.8580 C   0  0  0  0  0  0  0  0  0  0  0  0
   56.0617   93.9248   23.9001 N   0  0  0  0  0  0  0  0  0  0  0  0
   51.9384   98.0405   28.2243 I   0  0  0  0  0  0  0  0  0  0  0  0
   53.2758   96.8808   27.1091 C   0  0  0  0  0  0  0  0  0  0  0  0
   52.9740   95.6306   26.6649 C   0  0  0  0  0  0  0  0  0  0  0  0
   53.9167   94.9048   25.9217 C   0  0  0  0  0  0  0  0  0  0  0  0
   55.1522   95.3901   25.6083 C   0  0  0  0  0  0  0  0  0  0  0  0
   55.4366   96.6809   26.0789 C   0  0  0  0  0  0  0  0  0  0  0  0
   54.5168   97.3959   26.8072 C   0  0  0  0  0  0  0  0  0  0  0  0
 23 24  1  0  0  0
 24 25  2  0  0  0
 24 29  1  0  0  0
 25 26  1  0  0  0
 26 27  2  0  0  0
 27 28  1  0  0  0
 27 21  1  0  0  0
 28 29  2  0  0  0
 21 22  2  0  0  0
 22 19  1  0  0  0
 19  1  1  0  0  0
  1  2  2  0  0  0
  1  6  1  0  0  0
  2  3  1  0  0  0
  3  4  2  0  0  0
  3 13  1  0  0  0
  4  5  1  0  0  0
  5  6  2  0  0  0
  5  7  1  0  0  0
  7  8  1  0  0  0
  7 12  1  0  0  0
  8  9  1  0  0  0
  9 10  1  0  0  0
 10 11  1  0  0  0
 11 12  1  0  0  0
 13 14  1  0  0  0
 13 18  1  0  0  0
 14 15  1  0  0  0
 15 16  1  0  0  0
 16 17  1  0  0  0
 17 18  1  0  0  0
 19 20  1  0  0  0
M  END
> <minimizedAffinity>
-9.35168

$$$$
935


 34 38  0  0  0  0  0  0  0  0999 V2000
   50.3790   84.9029   29.6571 N   0  0  0  0  0  0  0  0  0  0  0  0
   51.5520   84.4291   29.2024 C   0  0  0  0  0  0  0  0  0  0  0  0
   51.9787   84.6289   27.9077 C   0  0  0  0  0  0  0  0  0  0  0  0
   51.1263   85.3513   27.0957 C   0  0  0  0  0  0  0  0  0  0  0  0
   51.3719   85.6208   25.8812 O   0  0  0  0  0  0  0  0  0  0  0  0
   49.9290   85.8392   27.5468 N   0  0  0  0  0  0  0  0  0  0  0  0
   49.5874   85.5980   28.8244 C   0  0  0  0  0  0  0  0  0  0  0  0
   48.4980   86.0257   29.2834 O   0  0  0  0  0  0  0  0  0  0  0  0
   52.3716   83.7188   30.0413 O   0  0  0  0  0  0  0  0  0  0  0  0
   49.2920   86.3804   26.9332 H   0  0  0  0  0  0  0  0  0  0  0  0
   53.2203   84.1368   27.3400 C   0  0  0  0  0  0  0  0  0  0  0  0
   53.7600   82.9305   27.8819 N   0  0  0  0  0  0  0  0  0  0  0  0
   52.9432   81.7650   27.6810 C   0  0  0  0  0  0  0  0  0  0  0  0
   51.7918   81.9971   26.7254 C   0  0  0  0  0  0  0  0  0  0  0  0
   52.3101   82.7665   25.5338 C   0  0  0  0  0  0  0  0  0  0  0  0
   53.0668   83.8614   25.8666 C   0  0  0  0  0  0  0  0  0  0  0  0
   53.6346   84.6402   24.8869 C   0  0  0  0  0  0  0  0  0  0  0  0
   53.4071   84.2704   23.5690 C   0  0  0  0  0  0  0  0  0  0  0  0
   52.6480   83.1733   23.2178 C   0  0  0  0  0  0  0  0  0  0  0  0
   52.0912   82.4106   24.2436 C   0  0  0  0  0  0  0  0  0  0  0  0
   52.6179   83.0841   21.8350 O   0  0  0  0  0  0  0  0  0  0  0  0
   53.0493   84.3363   21.2778 C   0  0  0  0  0  0  0  0  0  0  0  0
   53.8277   84.8292   22.3523 O   0  0  0  0  0  0  0  0  0  0  0  0
   54.9934   82.6728   27.0932 C   0  0  0  0  0  0  0  0  0  0  0  0
   54.1437   82.9845   28.8400 H   0  0  0  0  0  0  0  0  0  0  0  0
   54.3878   85.7276   25.2277 O   0  0  0  0  0  0  0  0  0  0  0  0
   55.7730   85.8469   25.1594 C   0  0  0  0  0  0  0  0  0  0  0  0
   48.5031   83.9161   35.6242 I   0  0  0  0  0  0  0  0  0  0  0  0
   49.1158   84.2251   33.6407 C   0  0  0  0  0  0  0  0  0  0  0  0
   49.8449   85.3616   33.3072 C   0  0  0  0  0  0  0  0  0  0  0  0
   50.2471   85.5701   32.0203 C   0  0  0  0  0  0  0  0  0  0  0  0
   49.9595   84.6835   30.9949 C   0  0  0  0  0  0  0  0  0  0  0  0
   49.2302   83.5452   31.3220 C   0  0  0  0  0  0  0  0  0  0  0  0
   48.8281   83.3434   32.6255 C   0  0  0  0  0  0  0  0  0  0  0  0
 28 29  1  0  0  0
 29 30  2  0  0  0
 29 34  1  0  0  0
 30 31  1  0  0  0
 31 32  2  0  0  0
 32 33  1  0  0  0
 32  1  1  0  0  0
 33 34  2  0  0  0
  1  2  1  0  0  0
  1  7  1  0  0  0
  2  3  2  0  0  0
  2  9  1  0  0  0
  3  4  1  0  0  0
  3 11  1  0  0  0
  4  5  2  0  0  0
  4  6  1  0  0  0
  6  7  1  0  0  0
  7  8  2  0  0  0
 11 12  1  0  0  0
 11 16  1  0  0  0
 12 13  1  0  0  0
 12 24  1  0  0  0
 13 14  1  0  0  0
 14 15  1  0  0  0
 15 16  2  0  0  0
 15 20  1  0  0  0
 16 17  1  0  0  0
 17 18  2  0  0  0
 17 26  1  0  0  0
 18 19  1  0  0  0
 18 23  1  0  0  0
 19 20  2  0  0  0
 19 21  1  0  0  0
 21 22  1  0  0  0
 22 23  1  0  0  0
 26 27  1  0  0  0
  6 10  1  0  0  0
 12 25  1  0  0  0
M  CHG 1   9  -1
M  CHG 1  12   1
M  END
> <minimizedAffinity>
-8.02473

$$$$
937


 26 29  0  0  0  0  0  0  0  0999 V2000
   49.3064   99.7566   28.4654 N   0  0  0  0  0  0  0  0  0  0  0  0
   49.0922  101.1504   28.3174 C   0  0  0  0  0  0  0  0  0  0  0  0
   49.8003  101.8921   27.5883 O   0  0  0  0  0  0  0  0  0  0  0  0
   47.9241  101.5674   29.1420 C   0  0  0  0  0  0  0  0  0  0  0  0
   47.0920  100.2964   29.1517 C   0  0  0  0  0  0  0  0  0  0  0  0
   48.0666   99.2135   28.9137 C   0  0  0  0  0  0  0  0  0  0  0  0
   47.8662   97.9738   29.0724 O   0  0  0  0  0  0  0  0  0  0  0  0
   54.5724   96.3622   27.3465 I   0  0  0  0  0  0  0  0  0  0  0  0
   52.8189   97.4818   27.7142 C   0  0  0  0  0  0  0  0  0  0  0  0
   51.5688   97.0263   27.3519 C   0  0  0  0  0  0  0  0  0  0  0  0
   50.4396   97.7793   27.6038 C   0  0  0  0  0  0  0  0  0  0  0  0
   50.5136   99.0096   28.2228 C   0  0  0  0  0  0  0  0  0  0  0  0
   51.7684   99.4453   28.5759 C   0  0  0  0  0  0  0  0  0  0  0  0
   52.9117   98.7090   28.3340 C   0  0  0  0  0  0  0  0  0  0  0  0
   48.3907  101.9486   30.4109 N   0  0  0  0  0  0  0  0  0  0  0  0
   49.7183  102.3247   30.6120 C   0  0  0  0  0  0  0  0  0  0  0  0
   49.7411  103.2632   31.8470 C   0  0  0  0  0  0  0  0  0  0  0  0
   48.7130  104.2759   31.6590 N   0  0  0  0  0  0  0  0  0  0  0  0
   47.3582  103.7991   31.5323 C   0  0  0  0  0  0  0  0  0  0  0  0
   47.4254  102.2819   31.3785 C   0  0  0  0  0  0  0  0  0  0  0  0
   49.0382  105.6464   31.5985 C   0  0  0  0  0  0  0  0  0  0  0  0
   49.7940  106.2245   32.5714 N   0  0  0  0  0  0  0  0  0  0  0  0
   50.1418  107.5094   32.5643 C   0  0  0  0  0  0  0  0  0  0  0  0
   49.7315  108.3376   31.5282 C   0  0  0  0  0  0  0  0  0  0  0  0
   48.9632  107.7441   30.5419 C   0  0  0  0  0  0  0  0  0  0  0  0
   48.6367  106.4456   30.5885 N   0  0  0  0  0  0  0  0  0  0  0  0
  8  9  1  0  0  0
  9 10  2  0  0  0
  9 14  1  0  0  0
 10 11  1  0  0  0
 11 12  2  0  0  0
 12 13  1  0  0  0
 12  1  1  0  0  0
 13 14  2  0  0  0
  1  2  1  0  0  0
  1  6  1  0  0  0
  2  3  2  0  0  0
  2  4  1  0  0  0
  4  5  1  0  0  0
  4 15  1  0  0  0
  5  6  1  0  0  0
  6  7  2  0  0  0
 15 16  1  0  0  0
 15 20  1  0  0  0
 16 17  1  0  0  0
 17 18  1  0  0  0
 18 19  1  0  0  0
 18 21  1  0  0  0
 19 20  1  0  0  0
 21 22  2  0  0  0
 21 26  1  0  0  0
 22 23  1  0  0  0
 23 24  2  0  0  0
 24 25  1  0  0  0
 25 26  2  0  0  0
M  END
> <minimizedAffinity>
-8.60597

$$$$
950


 26 29  0  0  0  0  0  0  0  0999 V2000
   52.3274   98.8705   27.9689 C   0  0  0  0  0  0  0  0  0  0  0  0
   51.7441  100.0154   27.4173 C   0  0  0  0  0  0  0  0  0  0  0  0
   51.9126  100.6151   26.2259 N   0  0  0  0  0  0  0  0  0  0  0  0
   51.1408  101.6608   26.1786 O   0  0  0  0  0  0  0  0  0  0  0  0
   50.4723  101.7777   27.2839 N   0  0  0  0  0  0  0  0  0  0  0  0
   50.8187  100.7622   28.0981 C   0  0  0  0  0  0  0  0  0  0  0  0
   50.4373  100.3890   29.3688 C   0  0  0  0  0  0  0  0  0  0  0  0
   51.0154   99.2635   29.9000 C   0  0  0  0  0  0  0  0  0  0  0  0
   51.9627   98.4941   29.2125 C   0  0  0  0  0  0  0  0  0  0  0  0
   49.4787  101.1746   30.0572 N   0  0  0  0  0  0  0  0  0  0  0  0
   49.8905  102.1081   31.0853 C   0  0  0  0  0  0  0  0  0  0  0  0
   48.6956  102.8496   31.5743 C   0  0  0  0  0  0  0  0  0  0  0  0
   47.9026  103.3740   30.5723 O   0  0  0  0  0  0  0  0  0  0  0  0
   47.4425  102.4716   29.6665 C   0  0  0  0  0  0  0  0  0  0  0  0
   48.0570  101.0994   29.7849 C   0  0  0  0  0  0  0  0  0  0  0  0
   53.2388   96.8391   26.8096 C   0  0  0  0  0  0  0  0  0  0  0  0
   52.2776   96.0934   27.2065 O   0  0  0  0  0  0  0  0  0  0  0  0
   53.2709   98.1779   27.1748 N   0  0  0  0  0  0  0  0  0  0  0  0
   54.1164   98.7229   26.8141 H   0  0  0  0  0  0  0  0  0  0  0  0
   56.7476   97.9344   26.5599 I   0  0  0  0  0  0  0  0  0  0  0  0
   55.5678   96.4069   25.7730 C   0  0  0  0  0  0  0  0  0  0  0  0
   56.0354   95.4298   24.8941 C   0  0  0  0  0  0  0  0  0  0  0  0
   55.0186   94.6265   24.5776 N   0  0  0  0  0  0  0  0  0  0  0  0
   53.9646   95.0599   25.2121 N   0  0  0  0  0  0  0  0  0  0  0  0
   54.2522   96.1688   25.9741 C   0  0  0  0  0  0  0  0  0  0  0  0
   55.1115   93.4722   23.6731 C   0  0  0  0  0  0  0  0  0  0  0  0
 20 21  1  0  0  0
 21 22  2  0  0  0
 21 25  1  0  0  0
 22 23  1  0  0  0
 23 24  1  0  0  0
 23 26  1  0  0  0
 24 25  2  0  0  0
 25 16  1  0  0  0
 16 17  2  0  0  0
 16 18  1  0  0  0
 18  1  1  0  0  0
  1  2  1  0  0  0
  1  9  2  0  0  0
  2  3  2  0  0  0
  2  6  1  0  0  0
  3  4  1  0  0  0
  4  5  1  0  0  0
  5  6  2  0  0  0
  6  7  1  0  0  0
  7  8  2  0  0  0
  7 10  1  0  0  0
  8  9  1  0  0  0
 10 11  1  0  0  0
 10 15  1  0  0  0
 11 12  1  0  0  0
 12 13  1  0  0  0
 13 14  1  0  0  0
 14 15  1  0  0  0
 18 19  1  0  0  0
M  END
> <minimizedAffinity>
-8.82672

$$$$
956


 30 33  0  0  0  0  0  0  0  0999 V2000
   55.7208   89.7080   22.4956 I   0  0  0  0  0  0  0  0  0  0  0  0
   55.0941   87.7669   23.0279 C   0  0  0  0  0  0  0  0  0  0  0  0
   54.6083   86.8135   22.1826 C   0  0  0  0  0  0  0  0  0  0  0  0
   54.3394   85.7201   23.0068 C   0  0  0  0  0  0  0  0  0  0  0  0
   54.6387   85.9759   24.2810 N   0  0  0  0  0  0  0  0  0  0  0  0
   55.1007   87.2259   24.3027 C   0  0  0  0  0  0  0  0  0  0  0  0
   53.8414   84.6137   22.4298 N   0  0  0  0  0  0  0  0  0  0  0  0
   53.6107   84.5644   21.1086 C   0  0  0  0  0  0  0  0  0  0  0  0
   53.8693   85.6136   20.3223 N   0  0  0  0  0  0  0  0  0  0  0  0
   54.3780   86.7803   20.8268 C   0  0  0  0  0  0  0  0  0  0  0  0
   54.5090   85.1214   25.4230 C   0  0  0  0  0  0  0  0  0  0  0  0
   55.2240   83.9346   25.3167 O   0  0  0  0  0  0  0  0  0  0  0  0
   54.8290   83.2445   26.4593 C   0  0  0  0  0  0  0  0  0  0  0  0
   53.3493   83.4941   26.6354 C   0  0  0  0  0  0  0  0  0  0  0  0
   53.0855   84.5829   25.5884 C   0  0  0  0  0  0  0  0  0  0  0  0
   53.0663   84.0702   27.8745 O   0  0  0  0  0  0  0  0  0  0  0  0
   53.1480   83.3197   28.5407 H   0  0  0  0  0  0  0  0  0  0  0  0
   54.9866   81.7337   26.2369 C   0  0  0  0  0  0  0  0  0  0  0  0
   56.0340   81.5185   25.3315 O   0  0  0  0  0  0  0  0  0  0  0  0
   56.8979   81.3392   25.8213 H   0  0  0  0  0  0  0  0  0  0  0  0
   54.6342   87.8658   19.9417 N   0  0  0  0  0  0  0  0  0  0  0  0
   53.5270   88.5805   19.4004 C   0  0  0  0  0  0  0  0  0  0  0  0
   52.3766   88.2050   19.7419 O   0  0  0  0  0  0  0  0  0  0  0  0
   55.5593   88.1917   19.6484 H   0  0  0  0  0  0  0  0  0  0  0  0
   53.6423   89.6930   18.4978 C   0  0  0  0  0  0  0  0  0  0  0  0
   54.1360   89.5329   17.2326 C   0  0  0  0  0  0  0  0  0  0  0  0
   54.2508   90.6029   16.3424 C   0  0  0  0  0  0  0  0  0  0  0  0
   53.8615   91.8483   16.7389 C   0  0  0  0  0  0  0  0  0  0  0  0
   53.3628   92.0390   18.0016 C   0  0  0  0  0  0  0  0  0  0  0  0
   53.2563   90.9526   18.8774 C   0  0  0  0  0  0  0  0  0  0  0  0
  1  2  1  0  0  0
  2  3  1  0  0  0
  2  6  2  0  0  0
  3  4  2  0  0  0
  3 10  1  0  0  0
  4  5  1  0  0  0
  4  7  1  0  0  0
  5  6  1  0  0  0
  5 11  1  0  0  0
 11 12  1  0  0  0
 11 15  1  0  0  0
 12 13  1  0  0  0
 13 14  1  0  0  0
 13 18  1  0  0  0
 14 15  1  0  0  0
 14 16  1  0  0  0
 18 19  1  0  0  0
  7  8  2  0  0  0
  8  9  1  0  0  0
  9 10  2  0  0  0
 10 21  1  0  0  0
 21 22  1  0  0  0
 22 23  2  0  0  0
 22 25  1  0  0  0
 25 26  2  0  0  0
 25 30  1  0  0  0
 26 27  1  0  0  0
 27 28  2  0  0  0
 28 29  1  0  0  0
 29 30  2  0  0  0
 16 17  1  0  0  0
 19 20  1  0  0  0
 21 24  1  0  0  0
M  END
> <minimizedAffinity>
-8.55531

$$$$
961


 29 33  0  0  0  0  0  0  0  0999 V2000
   55.2258   87.2276   22.6337 C   0  0  0  0  0  0  0  0  0  0  0  0
   55.6660   87.2432   23.8689 N   0  0  0  0  0  0  0  0  0  0  0  0
   55.9967   88.4304   24.4608 C   0  0  0  0  0  0  0  0  0  0  0  0
   55.8962   89.6387   23.8424 C   0  0  0  0  0  0  0  0  0  0  0  0
   55.4343   89.6628   22.5444 C   0  0  0  0  0  0  0  0  0  0  0  0
   55.2047   90.6608   21.6225 N   0  0  0  0  0  0  0  0  0  0  0  0
   54.7520   90.1266   20.5009 C   0  0  0  0  0  0  0  0  0  0  0  0
   54.6965   88.7848   20.7215 N   0  0  0  0  0  0  0  0  0  0  0  0
   55.1068   88.4754   21.9575 C   0  0  0  0  0  0  0  0  0  0  0  0
   55.4414   92.0331   21.9703 C   0  0  0  0  0  0  0  0  0  0  0  0
   55.7495   86.0568   24.6687 C   0  0  0  0  0  0  0  0  0  0  0  0
   54.3511   90.7852   19.2520 C   0  0  0  0  0  0  0  0  0  0  0  0
   53.2008   91.4777   19.0670 C   0  0  0  0  0  0  0  0  0  0  0  0
   52.9093   92.0437   17.8116 C   0  0  0  0  0  0  0  0  0  0  0  0
   53.7894   91.8983   16.7637 C   0  0  0  0  0  0  0  0  0  0  0  0
   54.9751   91.1948   16.9272 C   0  0  0  0  0  0  0  0  0  0  0  0
   55.2164   90.6662   18.1521 C   0  0  0  0  0  0  0  0  0  0  0  0
   53.8748   85.6884   21.1925 C   0  0  0  0  0  0  0  0  0  0  0  0
   54.9301   86.0569   21.8287 C   0  0  0  0  0  0  0  0  0  0  0  0
   51.3415   83.8555   22.0022 Br  0  0  0  0  0  0  0  0  0  0  0  0
   52.5353   83.6787   20.5273 C   0  0  0  0  0  0  0  0  0  0  0  0
   52.3082   82.6039   19.6316 C   0  0  0  0  0  0  0  0  0  0  0  0
   53.1513   82.3849   18.5762 C   0  0  0  0  0  0  0  0  0  0  0  0
   54.2249   83.2309   18.4049 C   0  0  0  0  0  0  0  0  0  0  0  0
   54.4364   84.2717   19.2806 C   0  0  0  0  0  0  0  0  0  0  0  0
   53.5820   84.5281   20.3825 C   0  0  0  0  0  0  0  0  0  0  0  0
   54.9201   82.7896   17.2668 O   0  0  0  0  0  0  0  0  0  0  0  0
   53.9917   82.0441   16.5065 C   0  0  0  0  0  0  0  0  0  0  0  0
   53.2111   81.4468   17.5409 O   0  0  0  0  0  0  0  0  0  0  0  0
 20 21  1  0  0  0
 21 22  2  0  0  0
 21 26  1  0  0  0
 22 23  1  0  0  0
 23 24  2  0  0  0
 23 29  1  0  0  0
 24 25  1  0  0  0
 24 27  1  0  0  0
 25 26  2  0  0  0
 26 18  1  0  0  0
 18 19  2  0  0  0
 19  1  1  0  0  0
  1  2  2  0  0  0
  1  9  1  0  0  0
  2  3  1  0  0  0
  2 11  1  0  0  0
  3  4  2  0  0  0
  4  5  1  0  0  0
  5  6  1  0  0  0
  5  9  2  0  0  0
  6  7  1  0  0  0
  6 10  1  0  0  0
  7  8  2  0  0  0
  7 12  1  0  0  0
  8  9  1  0  0  0
 12 13  2  0  0  0
 12 17  1  0  0  0
 13 14  1  0  0  0
 14 15  2  0  0  0
 15 16  1  0  0  0
 16 17  2  0  0  0
 27 28  1  0  0  0
 28 29  1  0  0  0
M  END
> <minimizedAffinity>
-9.51691

$$$$
969


 31 34  0  0  0  0  0  0  0  0999 V2000
   51.2062   82.8744   20.5860 Br  0  0  0  0  0  0  0  0  0  0  0  0
   51.4688   82.7112   22.4616 C   0  0  0  0  0  0  0  0  0  0  0  0
   52.3257   83.5336   23.1876 C   0  0  0  0  0  0  0  0  0  0  0  0
   52.4833   83.3730   24.5545 C   0  0  0  0  0  0  0  0  0  0  0  0
   51.7853   82.3857   25.2198 C   0  0  0  0  0  0  0  0  0  0  0  0
   50.9418   81.5738   24.5143 C   0  0  0  0  0  0  0  0  0  0  0  0
   50.7905   81.7385   23.1607 C   0  0  0  0  0  0  0  0  0  0  0  0
   49.9036   80.8658   22.5037 O   0  0  0  0  0  0  0  0  0  0  0  0
   50.0000   80.2226   25.5011 Br  0  0  0  0  0  0  0  0  0  0  0  0
   53.3251   84.1731   25.2965 C   0  0  0  0  0  0  0  0  0  0  0  0
   54.0182   85.1581   24.6243 C   0  0  0  0  0  0  0  0  0  0  0  0
   53.7906   85.2551   23.1775 C   0  0  0  0  0  0  0  0  0  0  0  0
   54.5000   86.2558   22.5114 C   0  0  0  0  0  0  0  0  0  0  0  0
   55.3548   87.0859   23.1988 C   0  0  0  0  0  0  0  0  0  0  0  0
   55.9719   87.9733   22.5566 O   0  0  0  0  0  0  0  0  0  0  0  0
   55.5490   86.9678   24.5709 C   0  0  0  0  0  0  0  0  0  0  0  0
   54.8871   86.0119   25.2851 C   0  0  0  0  0  0  0  0  0  0  0  0
   56.7553   88.1645   25.4466 Br  0  0  0  0  0  0  0  0  0  0  0  0
   54.2524   86.4399   20.6147 Br  0  0  0  0  0  0  0  0  0  0  0  0
   52.9731   84.4600   22.5286 O   0  0  0  0  0  0  0  0  0  0  0  0
   53.4961   83.9964   26.7395 C   0  0  0  0  0  0  0  0  0  0  0  0
   54.5601   83.2678   27.2389 C   0  0  0  0  0  0  0  0  0  0  0  0
   54.7397   83.0823   28.5932 C   0  0  0  0  0  0  0  0  0  0  0  0
   53.8275   83.6439   29.4625 C   0  0  0  0  0  0  0  0  0  0  0  0
   52.7662   84.3686   29.0137 C   0  0  0  0  0  0  0  0  0  0  0  0
   52.6019   84.5431   27.6572 C   0  0  0  0  0  0  0  0  0  0  0  0
   51.6542   85.0492   30.1906 Cl  0  0  0  0  0  0  0  0  0  0  0  0
   55.7160   82.5597   26.1050 Cl  0  0  0  0  0  0  0  0  0  0  0  0
   51.4766   85.3054   27.1726 C   0  0  0  0  0  0  0  0  0  0  0  0
   51.5992   86.4775   26.7219 O   0  0  0  0  0  0  0  0  0  0  0  0
   50.1955   84.7587   27.1891 O   0  0  0  0  0  0  0  0  0  0  0  0
  1  2  1  0  0  0
  2  3  2  0  0  0
  2  7  1  0  0  0
  3  4  1  0  0  0
  3 20  1  0  0  0
  4  5  2  0  0  0
  4 10  1  0  0  0
  5  6  1  0  0  0
  6  7  2  0  0  0
  6  9  1  0  0  0
  7  8  1  0  0  0
 10 11  2  0  0  0
 10 21  1  0  0  0
 11 12  1  0  0  0
 11 17  1  0  0  0
 12 13  2  0  0  0
 12 20  1  0  0  0
 13 14  1  0  0  0
 13 19  1  0  0  0
 14 15  2  0  0  0
 14 16  1  0  0  0
 16 17  2  0  0  0
 16 18  1  0  0  0
 21 22  2  0  0  0
 21 26  1  0  0  0
 22 23  1  0  0  0
 22 28  1  0  0  0
 23 24  2  0  0  0
 24 25  1  0  0  0
 25 26  2  0  0  0
 25 27  1  0  0  0
 26 29  1  0  0  0
 29 30  2  0  0  0
 29 31  1  0  0  0
M  CHG 1   8  -1
M  END
> <minimizedAffinity>
-6.30385

$$$$
971


 29 33  0  0  0  0  0  0  0  0999 V2000
   46.6652   79.4646   27.4846 Br  0  0  0  0  0  0  0  0  0  0  0  0
   47.0107   81.0248   28.5257 C   0  0  0  0  0  0  0  0  0  0  0  0
   48.0653   81.9009   28.2077 C   0  0  0  0  0  0  0  0  0  0  0  0
   48.3451   83.0253   28.9263 C   0  0  0  0  0  0  0  0  0  0  0  0
   47.5341   83.3051   30.0283 C   0  0  0  0  0  0  0  0  0  0  0  0
   46.5128   82.4562   30.3365 C   0  0  0  0  0  0  0  0  0  0  0  0
   46.2241   81.3173   29.6130 C   0  0  0  0  0  0  0  0  0  0  0  0
   45.1540   80.4881   29.9894 O   0  0  0  0  0  0  0  0  0  0  0  0
   45.3999   82.8311   31.8402 Br  0  0  0  0  0  0  0  0  0  0  0  0
   49.4440   83.9138   28.5718 C   0  0  0  0  0  0  0  0  0  0  0  0
   48.8595   85.1711   28.2378 O   0  0  0  0  0  0  0  0  0  0  0  0
   49.2919   86.1747   29.0608 C   0  0  0  0  0  0  0  0  0  0  0  0
   48.9419   87.3749   28.9926 O   0  0  0  0  0  0  0  0  0  0  0  0
   50.2140   85.5554   29.9930 C   0  0  0  0  0  0  0  0  0  0  0  0
   50.3305   84.2088   29.7338 C   0  0  0  0  0  0  0  0  0  0  0  0
   51.1587   83.4750   30.5178 C   0  0  0  0  0  0  0  0  0  0  0  0
   51.8551   84.0814   31.5422 C   0  0  0  0  0  0  0  0  0  0  0  0
   51.7406   85.4298   31.8055 C   0  0  0  0  0  0  0  0  0  0  0  0
   50.9087   86.1848   31.0217 C   0  0  0  0  0  0  0  0  0  0  0  0
   50.1944   83.4821   27.3972 C   0  0  0  0  0  0  0  0  0  0  0  0
   49.8651   82.3427   26.7171 C   0  0  0  0  0  0  0  0  0  0  0  0
   50.6017   81.9412   25.5838 C   0  0  0  0  0  0  0  0  0  0  0  0
   51.6596   82.7176   25.1725 C   0  0  0  0  0  0  0  0  0  0  0  0
   51.9998   83.8753   25.8571 C   0  0  0  0  0  0  0  0  0  0  0  0
   51.2816   84.2578   26.9551 C   0  0  0  0  0  0  0  0  0  0  0  0
   53.4627   84.9610   25.2991 Br  0  0  0  0  0  0  0  0  0  0  0  0
   52.3753   82.3117   24.0563 O   0  0  0  0  0  0  0  0  0  0  0  0
   50.1103   80.3404   24.6588 Br  0  0  0  0  0  0  0  0  0  0  0  0
   48.8083   81.5225   27.0867 O   0  0  0  0  0  0  0  0  0  0  0  0
  1  2  1  0  0  0
  2  3  2  0  0  0
  2  7  1  0  0  0
  3  4  1  0  0  0
  3 29  1  0  0  0
  4  5  2  0  0  0
  4 10  1  0  0  0
  5  6  1  0  0  0
  6  7  2  0  0  0
  6  9  1  0  0  0
  7  8  1  0  0  0
 10 11  1  0  0  0
 10 15  1  0  0  0
 10 20  1  0  0  0
 11 12  1  0  0  0
 12 13  2  0  0  0
 12 14  1  0  0  0
 14 15  2  0  0  0
 14 19  1  0  0  0
 15 16  1  0  0  0
 16 17  2  0  0  0
 17 18  1  0  0  0
 18 19  2  0  0  0
 20 21  2  0  0  0
 20 25  1  0  0  0
 21 22  1  0  0  0
 21 29  1  0  0  0
 22 23  2  0  0  0
 22 28  1  0  0  0
 23 24  1  0  0  0
 23 27  1  0  0  0
 24 25  2  0  0  0
 24 26  1  0  0  0
M  CHG 1   8  -1
M  CHG 1  27  -1
M  END
> <minimizedAffinity>
-6.79288

$$$$
978


 33 37  0  0  0  0  0  0  0  0999 V2000
   55.2083   80.3676   30.2124 I   0  0  0  0  0  0  0  0  0  0  0  0
   53.8313   81.0225   31.6734 C   0  0  0  0  0  0  0  0  0  0  0  0
   52.9419   82.0260   31.3030 C   0  0  0  0  0  0  0  0  0  0  0  0
   52.0453   82.4672   32.2206 C   0  0  0  0  0  0  0  0  0  0  0  0
   52.0463   81.9023   33.4986 C   0  0  0  0  0  0  0  0  0  0  0  0
   52.9231   80.9083   33.8744 C   0  0  0  0  0  0  0  0  0  0  0  0
   53.8318   80.4645   32.9351 C   0  0  0  0  0  0  0  0  0  0  0  0
   54.7246   79.4645   33.2919 O   0  0  0  0  0  0  0  0  0  0  0  0
   52.8838   80.0840   35.8270 I   0  0  0  0  0  0  0  0  0  0  0  0
   51.0743   83.5085   31.9401 C   0  0  0  0  0  0  0  0  0  0  0  0
   51.2379   84.6280   32.8231 O   0  0  0  0  0  0  0  0  0  0  0  0
   50.1000   84.8929   33.5384 C   0  0  0  0  0  0  0  0  0  0  0  0
   49.8792   85.7924   34.3996 O   0  0  0  0  0  0  0  0  0  0  0  0
   49.1165   83.9046   33.1199 C   0  0  0  0  0  0  0  0  0  0  0  0
   49.6836   83.0929   32.1848 C   0  0  0  0  0  0  0  0  0  0  0  0
   48.9489   82.0528   31.6154 C   0  0  0  0  0  0  0  0  0  0  0  0
   47.6403   81.8225   31.9818 C   0  0  0  0  0  0  0  0  0  0  0  0
   47.0630   82.6536   32.9381 C   0  0  0  0  0  0  0  0  0  0  0  0
   47.7824   83.6776   33.4999 C   0  0  0  0  0  0  0  0  0  0  0  0
   47.0537   84.6971   34.6821 Cl  0  0  0  0  0  0  0  0  0  0  0  0
   45.4136   82.4162   33.4442 Cl  0  0  0  0  0  0  0  0  0  0  0  0
   46.7488   80.5102   31.2469 Cl  0  0  0  0  0  0  0  0  0  0  0  0
   49.7317   81.0593   30.4318 Cl  0  0  0  0  0  0  0  0  0  0  0  0
   51.1877   84.0166   30.5461 C   0  0  0  0  0  0  0  0  0  0  0  0
   52.0949   83.5533   29.6560 C   0  0  0  0  0  0  0  0  0  0  0  0
   52.0929   84.1180   28.3821 C   0  0  0  0  0  0  0  0  0  0  0  0
   51.2170   85.1111   28.0058 C   0  0  0  0  0  0  0  0  0  0  0  0
   50.3050   85.5590   28.9404 C   0  0  0  0  0  0  0  0  0  0  0  0
   50.2794   85.0268   30.2035 C   0  0  0  0  0  0  0  0  0  0  0  0
   48.9514   87.0780   28.3951 I   0  0  0  0  0  0  0  0  0  0  0  0
   51.2143   85.6665   26.7525 O   0  0  0  0  0  0  0  0  0  0  0  0
   53.4954   83.4074   26.9918 I   0  0  0  0  0  0  0  0  0  0  0  0
   52.9902   82.5565   29.9987 O   0  0  0  0  0  0  0  0  0  0  0  0
  1  2  1  0  0  0
  2  3  2  0  0  0
  2  7  1  0  0  0
  3  4  1  0  0  0
  3 33  1  0  0  0
  4  5  2  0  0  0
  4 10  1  0  0  0
  5  6  1  0  0  0
  6  7  2  0  0  0
  6  9  1  0  0  0
  7  8  1  0  0  0
 10 11  1  0  0  0
 10 15  1  0  0  0
 10 24  1  0  0  0
 11 12  1  0  0  0
 12 13  2  0  0  0
 12 14  1  0  0  0
 14 15  2  0  0  0
 14 19  1  0  0  0
 15 16  1  0  0  0
 16 17  2  0  0  0
 16 23  1  0  0  0
 17 18  1  0  0  0
 17 22  1  0  0  0
 18 19  2  0  0  0
 18 21  1  0  0  0
 19 20  1  0  0  0
 24 25  2  0  0  0
 24 29  1  0  0  0
 25 26  1  0  0  0
 25 33  1  0  0  0
 26 27  2  0  0  0
 26 32  1  0  0  0
 27 28  1  0  0  0
 27 31  1  0  0  0
 28 29  2  0  0  0
 28 30  1  0  0  0
M  CHG 1   8  -1
M  CHG 1  31  -1
M  END
> <minimizedAffinity>
-5.46026

$$$$
979


 29 33  0  0  0  0  0  0  0  0999 V2000
   49.3160   81.3256   25.1193 I   0  0  0  0  0  0  0  0  0  0  0  0
   50.2468   82.5349   26.5894 C   0  0  0  0  0  0  0  0  0  0  0  0
   49.6245   82.5701   27.8489 C   0  0  0  0  0  0  0  0  0  0  0  0
   50.2022   83.3385   28.8095 C   0  0  0  0  0  0  0  0  0  0  0  0
   51.3756   84.0518   28.5059 C   0  0  0  0  0  0  0  0  0  0  0  0
   51.9813   84.0156   27.2770 C   0  0  0  0  0  0  0  0  0  0  0  0
   51.3956   83.2360   26.3040 C   0  0  0  0  0  0  0  0  0  0  0  0
   51.9819   83.1766   25.0480 O   0  0  0  0  0  0  0  0  0  0  0  0
   53.7509   85.1156   26.8881 I   0  0  0  0  0  0  0  0  0  0  0  0
   49.6280   83.4412   30.1564 C   0  0  0  0  0  0  0  0  0  0  0  0
   49.4278   84.7878   30.5410 O   0  0  0  0  0  0  0  0  0  0  0  0
   50.1469   85.1258   31.6571 C   0  0  0  0  0  0  0  0  0  0  0  0
   50.1986   86.2308   32.2597 O   0  0  0  0  0  0  0  0  0  0  0  0
   50.8868   83.9395   32.0647 C   0  0  0  0  0  0  0  0  0  0  0  0
   50.5897   82.9456   31.1895 C   0  0  0  0  0  0  0  0  0  0  0  0
   51.1882   81.6943   31.3784 C   0  0  0  0  0  0  0  0  0  0  0  0
   52.0539   81.4916   32.4283 C   0  0  0  0  0  0  0  0  0  0  0  0
   52.3580   82.5001   33.3179 C   0  0  0  0  0  0  0  0  0  0  0  0
   51.7760   83.7323   33.1429 C   0  0  0  0  0  0  0  0  0  0  0  0
   48.4026   82.6426   30.3295 C   0  0  0  0  0  0  0  0  0  0  0  0
   47.8762   81.8958   29.3324 C   0  0  0  0  0  0  0  0  0  0  0  0
   46.7146   81.1672   29.5674 C   0  0  0  0  0  0  0  0  0  0  0  0
   46.1062   81.1990   30.7905 C   0  0  0  0  0  0  0  0  0  0  0  0
   46.6144   81.9465   31.8273 C   0  0  0  0  0  0  0  0  0  0  0  0
   47.7561   82.6550   31.5718 C   0  0  0  0  0  0  0  0  0  0  0  0
   45.6683   81.9917   33.7179 I   0  0  0  0  0  0  0  0  0  0  0  0
   44.9480   80.4608   30.9981 O   0  0  0  0  0  0  0  0  0  0  0  0
   45.8944   79.9962   27.9939 I   0  0  0  0  0  0  0  0  0  0  0  0
   48.4593   81.8279   28.0566 O   0  0  0  0  0  0  0  0  0  0  0  0
  1  2  1  0  0  0
  2  3  2  0  0  0
  2  7  1  0  0  0
  3  4  1  0  0  0
  3 29  1  0  0  0
  4  5  2  0  0  0
  4 10  1  0  0  0
  5  6  1  0  0  0
  6  7  2  0  0  0
  6  9  1  0  0  0
  7  8  1  0  0  0
 10 11  1  0  0  0
 10 15  1  0  0  0
 10 20  1  0  0  0
 11 12  1  0  0  0
 12 13  2  0  0  0
 12 14  1  0  0  0
 14 15  2  0  0  0
 14 19  1  0  0  0
 15 16  1  0  0  0
 16 17  2  0  0  0
 17 18  1  0  0  0
 18 19  2  0  0  0
 20 21  2  0  0  0
 20 25  1  0  0  0
 21 22  1  0  0  0
 21 29  1  0  0  0
 22 23  2  0  0  0
 22 28  1  0  0  0
 23 24  1  0  0  0
 23 27  1  0  0  0
 24 25  2  0  0  0
 24 26  1  0  0  0
M  CHG 1   8  -1
M  CHG 1  27  -1
M  END
> <minimizedAffinity>
-5.95410

$$$$
980


 27 30  0  0  0  0  0  0  0  0999 V2000
   55.8170   88.1987   21.4891 I   0  0  0  0  0  0  0  0  0  0  0  0
   55.1921   87.2683   23.2732 C   0  0  0  0  0  0  0  0  0  0  0  0
   54.4232   86.1215   23.2832 C   0  0  0  0  0  0  0  0  0  0  0  0
   54.0118   85.5099   24.4479 C   0  0  0  0  0  0  0  0  0  0  0  0
   54.3976   86.0880   25.6432 C   0  0  0  0  0  0  0  0  0  0  0  0
   55.1696   87.2401   25.6429 C   0  0  0  0  0  0  0  0  0  0  0  0
   55.5790   87.8504   24.4639 C   0  0  0  0  0  0  0  0  0  0  0  0
   56.3538   89.0060   24.5216 O   0  0  0  0  0  0  0  0  0  0  0  0
   53.2444   84.3632   24.4784 C   0  0  0  0  0  0  0  0  0  0  0  0
   52.8937   83.8378   23.2382 C   0  0  0  0  0  0  0  0  0  0  0  0
   53.3488   84.5149   22.0273 C   0  0  0  0  0  0  0  0  0  0  0  0
   52.9699   83.9460   20.8295 C   0  0  0  0  0  0  0  0  0  0  0  0
   52.2042   82.8025   20.7507 C   0  0  0  0  0  0  0  0  0  0  0  0
   51.8661   82.2950   19.6406 O   0  0  0  0  0  0  0  0  0  0  0  0
   51.7729   82.1614   21.8957 C   0  0  0  0  0  0  0  0  0  0  0  0
   52.1362   82.7059   23.1115 C   0  0  0  0  0  0  0  0  0  0  0  0
   53.5776   84.8490   19.0314 I   0  0  0  0  0  0  0  0  0  0  0  0
   54.0756   85.6002   22.1342 O   0  0  0  0  0  0  0  0  0  0  0  0
   52.8069   83.7132   25.7090 C   0  0  0  0  0  0  0  0  0  0  0  0
   53.6133   82.7194   26.2553 C   0  0  0  0  0  0  0  0  0  0  0  0
   53.2444   82.0813   27.4099 C   0  0  0  0  0  0  0  0  0  0  0  0
   52.0650   82.4272   28.0318 C   0  0  0  0  0  0  0  0  0  0  0  0
   51.2495   83.4078   27.5120 C   0  0  0  0  0  0  0  0  0  0  0  0
   51.6402   84.0364   26.3508 C   0  0  0  0  0  0  0  0  0  0  0  0
   54.8653   82.3445   25.6046 C   0  0  0  0  0  0  0  0  0  0  0  0
   54.9414   81.4330   24.7512 O   0  0  0  0  0  0  0  0  0  0  0  0
   56.0469   83.0010   25.9182 O   0  0  0  0  0  0  0  0  0  0  0  0
  1  2  1  0  0  0
  2  3  2  0  0  0
  2  7  1  0  0  0
  3  4  1  0  0  0
  3 18  1  0  0  0
  4  5  2  0  0  0
  4  9  1  0  0  0
  5  6  1  0  0  0
  6  7  2  0  0  0
  7  8  1  0  0  0
  9 10  2  0  0  0
  9 19  1  0  0  0
 10 11  1  0  0  0
 10 16  1  0  0  0
 11 12  2  0  0  0
 11 18  1  0  0  0
 12 13  1  0  0  0
 12 17  1  0  0  0
 13 14  2  0  0  0
 13 15  1  0  0  0
 15 16  2  0  0  0
 19 20  2  0  0  0
 19 24  1  0  0  0
 20 21  1  0  0  0
 20 25  1  0  0  0
 21 22  2  0  0  0
 22 23  1  0  0  0
 23 24  2  0  0  0
 25 26  2  0  0  0
 25 27  1  0  0  0
M  CHG 1   8  -1
M  END
> <minimizedAffinity>
-7.27795

$$$$
983


 34 37  0  0  0  0  0  0  0  0999 V2000
   53.2836   86.5762   19.9723 C   0  0  0  0  0  0  0  0  0  0  0  0
   53.7506   87.7849   19.4385 C   0  0  0  0  0  0  0  0  0  0  0  0
   54.4053   88.3999   20.4826 C   0  0  0  0  0  0  0  0  0  0  0  0
   54.3298   87.6070   21.5606 N   0  0  0  0  0  0  0  0  0  0  0  0
   53.6403   86.4569   21.2894 C   0  0  0  0  0  0  0  0  0  0  0  0
   54.9895   89.6443   20.2606 C   0  0  0  0  0  0  0  0  0  0  0  0
   54.9001   90.2185   19.0224 C   0  0  0  0  0  0  0  0  0  0  0  0
   54.2362   89.5985   17.9592 C   0  0  0  0  0  0  0  0  0  0  0  0
   53.6510   88.3490   18.1862 C   0  0  0  0  0  0  0  0  0  0  0  0
   54.1470   90.4485   16.2636 Br  0  0  0  0  0  0  0  0  0  0  0  0
   55.8961   90.5141   21.6776 Br  0  0  0  0  0  0  0  0  0  0  0  0
   54.7447   87.8246   22.5107 H   0  0  0  0  0  0  0  0  0  0  0  0
   53.4153   85.3678   22.2326 C   0  0  0  0  0  0  0  0  0  0  0  0
   52.3375   84.5398   22.1582 N   0  0  0  0  0  0  0  0  0  0  0  0
   52.3619   83.6372   23.1514 C   0  0  0  0  0  0  0  0  0  0  0  0
   53.4820   83.8536   23.9236 C   0  0  0  0  0  0  0  0  0  0  0  0
   54.1153   84.9453   23.3188 C   0  0  0  0  0  0  0  0  0  0  0  0
   53.7787   83.0763   25.0245 C   0  0  0  0  0  0  0  0  0  0  0  0
   52.9421   82.0350   25.3948 C   0  0  0  0  0  0  0  0  0  0  0  0
   51.8113   81.8042   24.6279 C   0  0  0  0  0  0  0  0  0  0  0  0
   51.5318   82.5917   23.5303 C   0  0  0  0  0  0  0  0  0  0  0  0
   49.9588   82.2195   22.5192 Br  0  0  0  0  0  0  0  0  0  0  0  0
   53.3333   80.9426   26.9207 Br  0  0  0  0  0  0  0  0  0  0  0  0
   51.5791   84.5728   21.4418 H   0  0  0  0  0  0  0  0  0  0  0  0
   55.2916   85.4822   23.8095 O   0  0  0  0  0  0  0  0  0  0  0  0
   55.3124   86.6748   25.0281 S   0  0  0  0  0  0  0  0  0  0  0  0
   54.7066   86.1543   26.2989 O   0  0  0  0  0  0  0  0  0  0  0  0
   54.5327   87.8945   24.6261 O   0  0  0  0  0  0  0  0  0  0  0  0
   56.9084   87.1948   25.2807 O   0  0  0  0  0  0  0  0  0  0  0  0
   52.5585   85.6557   19.2239 O   0  0  0  0  0  0  0  0  0  0  0  0
   53.2458   84.1617   18.7467 S   0  0  0  0  0  0  0  0  0  0  0  0
   52.3583   83.0831   19.3039 O   0  0  0  0  0  0  0  0  0  0  0  0
   53.2817   84.0407   17.2432 O   0  0  0  0  0  0  0  0  0  0  0  0
   54.7792   83.9605   19.4061 O   0  0  0  0  0  0  0  0  0  0  0  0
 31 32  2  0  0  0
 31 33  2  0  0  0
 31 34  1  0  0  0
 31 30  1  0  0  0
 30  1  1  0  0  0
  1  2  1  0  0  0
  1  5  2  0  0  0
  2  3  2  0  0  0
  2  9  1  0  0  0
  3  4  1  0  0  0
  3  6  1  0  0  0
  4  5  1  0  0  0
  5 13  1  0  0  0
 13 14  1  0  0  0
 13 17  2  0  0  0
 14 15  1  0  0  0
 15 16  2  0  0  0
 15 21  1  0  0  0
 16 17  1  0  0  0
 16 18  1  0  0  0
 17 25  1  0  0  0
 25 26  1  0  0  0
 26 27  2  0  0  0
 26 28  2  0  0  0
 26 29  1  0  0  0
 18 19  2  0  0  0
 19 20  1  0  0  0
 19 23  1  0  0  0
 20 21  2  0  0  0
 21 22  1  0  0  0
  6  7  2  0  0  0
  6 11  1  0  0  0
  7  8  1  0  0  0
  8  9  2  0  0  0
  8 10  1  0  0  0
  4 12  1  0  0  0
 14 24  1  0  0  0
M  END
> <minimizedAffinity>
-8.37251

$$$$
985


 28 31  0  0  0  0  0  0  0  0999 V2000
   53.3170   84.9555   25.7018 N   0  0  0  0  0  0  0  0  0  0  0  0
   54.0167   85.9040   25.0679 C   0  0  0  0  0  0  0  0  0  0  0  0
   54.4180   87.1462   25.4536 N   0  0  0  0  0  0  0  0  0  0  0  0
   55.1206   87.9612   24.6717 C   0  0  0  0  0  0  0  0  0  0  0  0
   55.4511   87.5392   23.4378 N   0  0  0  0  0  0  0  0  0  0  0  0
   55.0862   86.3194   22.9921 C   0  0  0  0  0  0  0  0  0  0  0  0
   54.3576   85.4725   23.8011 C   0  0  0  0  0  0  0  0  0  0  0  0
   53.8466   84.2382   23.6831 N   0  0  0  0  0  0  0  0  0  0  0  0
   53.2151   83.9282   24.8397 C   0  0  0  0  0  0  0  0  0  0  0  0
   52.3061   82.2857   25.2219 Br  0  0  0  0  0  0  0  0  0  0  0  0
   55.4264   85.8782   21.7167 O   0  0  0  0  0  0  0  0  0  0  0  0
   55.5172   89.2540   25.1210 N   0  0  0  0  0  0  0  0  0  0  0  0
   56.4014   86.0484   21.4277 H   0  0  0  0  0  0  0  0  0  0  0  0
   54.9276   90.0562   24.8110 H   0  0  0  0  0  0  0  0  0  0  0  0
   56.3581   89.4046   25.7327 H   0  0  0  0  0  0  0  0  0  0  0  0
   51.0810   85.2363   30.9076 P   0  0  0  0  0  0  0  0  0  0  0  0
   52.0660   86.2992   31.3421 O   0  0  0  0  0  0  0  0  0  0  0  0
   50.5234   85.5308   29.3217 O   0  0  0  0  0  0  0  0  0  0  0  0
   51.0785   84.5353   28.5214 C   0  0  0  0  0  0  0  0  0  0  0  0
   52.5146   84.3455   29.0250 C   0  0  0  0  0  0  0  0  0  0  0  0
   53.1775   84.0348   27.8634 O   0  0  0  0  0  0  0  0  0  0  0  0
   52.8141   85.1041   27.0452 C   0  0  0  0  0  0  0  0  0  0  0  0
   51.2910   84.9972   27.0953 C   0  0  0  0  0  0  0  0  0  0  0  0
   50.6677   86.1855   26.8087 O   0  0  0  0  0  0  0  0  0  0  0  0
   52.5055   83.2821   30.0576 C   0  0  0  0  0  0  0  0  0  0  0  0
   51.6601   83.6846   31.0971 O   0  0  0  0  0  0  0  0  0  0  0  0
   49.7124   85.4213   31.9184 O   0  0  0  0  0  0  0  0  0  0  0  0
   49.8983   86.0250   26.1752 H   0  0  0  0  0  0  0  0  0  0  0  0
 16 17  2  0  0  0
 16 18  1  0  0  0
 16 26  1  0  0  0
 16 27  1  0  0  0
 18 19  1  0  0  0
 19 20  1  0  0  0
 19 23  1  0  0  0
 20 21  1  0  0  0
 20 25  1  0  0  0
 21 22  1  0  0  0
 22 23  1  0  0  0
 22  1  1  0  0  0
 23 24  1  0  0  0
  1  2  1  0  0  0
  1  9  1  0  0  0
  2  3  2  0  0  0
  2  7  1  0  0  0
  3  4  1  0  0  0
  4  5  2  0  0  0
  4 12  1  0  0  0
  5  6  1  0  0  0
  6  7  2  0  0  0
  6 11  1  0  0  0
  7  8  1  0  0  0
  8  9  2  0  0  0
  9 10  1  0  0  0
 25 26  1  0  0  0
 24 28  1  0  0  0
 11 13  1  0  0  0
 12 14  1  0  0  0
 12 15  1  0  0  0
M  END
> <minimizedAffinity>
-8.79630

$$$$
991


 34 39  0  0  0  0  0  0  0  0999 V2000
   53.3510   85.0506   20.6980 N   0  0  0  0  0  0  0  0  0  0  0  0
   53.4539   84.1690   19.6719 C   0  0  0  0  0  0  0  0  0  0  0  0
   53.8058   82.9201   20.1377 C   0  0  0  0  0  0  0  0  0  0  0  0
   53.9153   83.0604   21.4754 N   0  0  0  0  0  0  0  0  0  0  0  0
   53.6421   84.3401   21.8020 C   0  0  0  0  0  0  0  0  0  0  0  0
   53.6440   85.1107   23.5525 Br  0  0  0  0  0  0  0  0  0  0  0  0
   53.9619   81.8794   19.2442 C   0  0  0  0  0  0  0  0  0  0  0  0
   54.2804   80.7421   19.6557 O   0  0  0  0  0  0  0  0  0  0  0  0
   53.7799   82.0388   17.9133 N   0  0  0  0  0  0  0  0  0  0  0  0
   53.4371   83.2656   17.4805 C   0  0  0  0  0  0  0  0  0  0  0  0
   53.3188   83.1615   16.1449 N   0  0  0  0  0  0  0  0  0  0  0  0
   53.5741   81.9122   15.7167 C   0  0  0  0  0  0  0  0  0  0  0  0
   53.8713   81.1895   16.8531 C   0  0  0  0  0  0  0  0  0  0  0  0
   53.2786   84.3062   18.3470 N   0  0  0  0  0  0  0  0  0  0  0  0
   53.0117   85.2570   18.0059 H   0  0  0  0  0  0  0  0  0  0  0  0
   52.5857   90.4356   18.6474 P   0  0  0  0  0  0  0  0  0  0  0  0
   53.3558   91.7861   17.8731 S   0  0  0  0  0  0  0  0  0  0  0  0
   53.7685   89.5973   19.5331 O   0  0  0  0  0  0  0  0  0  0  0  0
   53.6105   88.2485   19.2285 C   0  0  0  0  0  0  0  0  0  0  0  0
   52.1033   87.9836   19.2563 C   0  0  0  0  0  0  0  0  0  0  0  0
   52.0004   86.6897   19.6866 O   0  0  0  0  0  0  0  0  0  0  0  0
   53.0011   86.4672   20.6300 C   0  0  0  0  0  0  0  0  0  0  0  0
   54.1605   87.3353   20.2825 C   0  0  0  0  0  0  0  0  0  0  0  0
   54.5946   88.0719   21.3923 O   0  0  0  0  0  0  0  0  0  0  0  0
   51.6090   88.2034   17.8465 C   0  0  0  0  0  0  0  0  0  0  0  0
   51.9327   89.4725   17.4229 O   0  0  0  0  0  0  0  0  0  0  0  0
   51.3111   90.9386   19.6362 O   0  0  0  0  0  0  0  0  0  0  0  0
   53.9393   88.7453   21.6666 H   0  0  0  0  0  0  0  0  0  0  0  0
   53.5459   81.4162   14.3344 C   0  0  0  0  0  0  0  0  0  0  0  0
   52.3507   81.3085   13.6598 C   0  0  0  0  0  0  0  0  0  0  0  0
   52.2920   80.8435   12.3521 C   0  0  0  0  0  0  0  0  0  0  0  0
   53.4627   80.4843   11.7242 C   0  0  0  0  0  0  0  0  0  0  0  0
   54.6868   80.5770   12.3683 C   0  0  0  0  0  0  0  0  0  0  0  0
   54.6852   81.0453   13.6642 C   0  0  0  0  0  0  0  0  0  0  0  0
 16 17  2  0  0  0
 16 18  1  0  0  0
 16 26  1  0  0  0
 16 27  1  0  0  0
 18 19  1  0  0  0
 19 20  1  0  0  0
 19 23  1  0  0  0
 20 21  1  0  0  0
 20 25  1  0  0  0
 21 22  1  0  0  0
 22 23  1  0  0  0
 22  1  1  0  0  0
 23 24  1  0  0  0
  1  2  1  0  0  0
  1  5  1  0  0  0
  2  3  2  0  0  0
  2 14  1  0  0  0
  3  4  1  0  0  0
  3  7  1  0  0  0
  4  5  2  0  0  0
  5  6  1  0  0  0
  7  8  2  0  0  0
  7  9  1  0  0  0
  9 10  1  0  0  0
  9 13  1  0  0  0
 10 11  2  0  0  0
 10 14  1  0  0  0
 11 12  1  0  0  0
 12 13  2  0  0  0
 12 29  1  0  0  0
 29 30  2  0  0  0
 29 34  1  0  0  0
 30 31  1  0  0  0
 31 32  2  0  0  0
 32 33  1  0  0  0
 33 34  2  0  0  0
 25 26  1  0  0  0
 24 28  1  0  0  0
 14 15  1  0  0  0
M  END
> <minimizedAffinity>
-9.27156

$$$$
993


 26 29  0  0  0  0  0  0  0  0999 V2000
   55.8044   86.0548   24.0992 P   0  0  0  0  0  0  0  0  0  0  0  0
   54.3314   85.1957   23.7271 S   0  0  0  0  0  0  0  0  0  0  0  0
   55.4648   87.7156   24.3039 O   0  0  0  0  0  0  0  0  0  0  0  0
   55.1989   88.2229   23.0561 C   0  0  0  0  0  0  0  0  0  0  0  0
   56.4558   88.0738   22.1884 C   0  0  0  0  0  0  0  0  0  0  0  0
   56.1290   88.9275   21.1362 O   0  0  0  0  0  0  0  0  0  0  0  0
   55.6860   90.0895   21.7220 C   0  0  0  0  0  0  0  0  0  0  0  0
   55.0575   89.7335   23.0455 C   0  0  0  0  0  0  0  0  0  0  0  0
   55.9087   90.2198   24.0472 O   0  0  0  0  0  0  0  0  0  0  0  0
   56.6513   86.6550   21.7537 C   0  0  0  0  0  0  0  0  0  0  0  0
   56.9257   85.8890   22.8723 O   0  0  0  0  0  0  0  0  0  0  0  0
   56.3978   85.4645   25.5440 O   0  0  0  0  0  0  0  0  0  0  0  0
   55.4497   90.7731   24.7056 H   0  0  0  0  0  0  0  0  0  0  0  0
   54.6788   90.7721   20.9322 N   0  0  0  0  0  0  0  0  0  0  0  0
   53.9724   90.1882   19.9316 C   0  0  0  0  0  0  0  0  0  0  0  0
   53.9896   88.9305   19.4199 N   0  0  0  0  0  0  0  0  0  0  0  0
   53.1767   88.5810   18.4038 C   0  0  0  0  0  0  0  0  0  0  0  0
   52.3250   89.4957   17.8786 N   0  0  0  0  0  0  0  0  0  0  0  0
   52.2785   90.7513   18.3577 C   0  0  0  0  0  0  0  0  0  0  0  0
   53.1071   91.1229   19.4007 C   0  0  0  0  0  0  0  0  0  0  0  0
   53.2897   92.2701   20.0793 N   0  0  0  0  0  0  0  0  0  0  0  0
   54.2468   92.0423   21.0058 C   0  0  0  0  0  0  0  0  0  0  0  0
   54.9462   93.2955   22.2813 Br  0  0  0  0  0  0  0  0  0  0  0  0
   51.3734   91.7054   17.7926 N   0  0  0  0  0  0  0  0  0  0  0  0
   50.5285   91.3466   17.2689 H   0  0  0  0  0  0  0  0  0  0  0  0
   51.5167   92.7307   17.8787 H   0  0  0  0  0  0  0  0  0  0  0  0
  1  2  2  0  0  0
  1  3  1  0  0  0
  1 11  1  0  0  0
  1 12  1  0  0  0
  3  4  1  0  0  0
  4  5  1  0  0  0
  4  8  1  0  0  0
  5  6  1  0  0  0
  5 10  1  0  0  0
  6  7  1  0  0  0
  7  8  1  0  0  0
  7 14  1  0  0  0
  8  9  1  0  0  0
 14 15  1  0  0  0
 14 22  1  0  0  0
 15 16  2  0  0  0
 15 20  1  0  0  0
 16 17  1  0  0  0
 17 18  2  0  0  0
 18 19  1  0  0  0
 19 20  2  0  0  0
 19 24  1  0  0  0
 20 21  1  0  0  0
 21 22  2  0  0  0
 22 23  1  0  0  0
 10 11  1  0  0  0
  9 13  1  0  0  0
 24 25  1  0  0  0
 24 26  1  0  0  0
M  END
> <minimizedAffinity>
-7.99275

$$$$
999


 35 38  0  0  0  0  0  0  0  0999 V2000
   52.8961   84.2256   25.8686 N   0  0  0  0  0  0  0  0  0  0  0  0
   54.2300   84.2858   25.3952 C   0  0  0  0  0  0  0  0  0  0  0  0
   54.9108   83.2256   25.3931 O   0  0  0  0  0  0  0  0  0  0  0  0
   52.3481   85.1227   25.8610 H   0  0  0  0  0  0  0  0  0  0  0  0
   53.3303   83.3845   28.9763 S   0  0  0  0  0  0  0  0  0  0  0  0
   52.1521   82.7898   27.7652 C   0  0  0  0  0  0  0  0  0  0  0  0
   51.1124   83.7609   27.6358 N   0  0  0  0  0  0  0  0  0  0  0  0
   50.7419   84.8187   28.5245 C   0  0  0  0  0  0  0  0  0  0  0  0
   51.1971   84.8288   29.7377 C   0  0  0  0  0  0  0  0  0  0  0  0
   52.1343   83.7559   30.3108 C   0  0  0  0  0  0  0  0  0  0  0  0
   50.8594   83.1198   26.3978 C   0  0  0  0  0  0  0  0  0  0  0  0
   49.9742   82.7620   25.6124 O   0  0  0  0  0  0  0  0  0  0  0  0
   52.3709   82.9789   26.3233 C   0  0  0  0  0  0  0  0  0  0  0  0
   49.8262   85.8513   27.9575 C   0  0  0  0  0  0  0  0  0  0  0  0
   48.6535   86.0044   28.2234 O   0  0  0  0  0  0  0  0  0  0  0  0
   50.3407   86.7594   27.0131 O   0  0  0  0  0  0  0  0  0  0  0  0
   50.9184   85.8261   30.7393 C   0  0  0  0  0  0  0  0  0  0  0  0
   49.9230   85.7118   31.6510 O   0  0  0  0  0  0  0  0  0  0  0  0
   50.1459   85.4373   33.0056 C   0  0  0  0  0  0  0  0  0  0  0  0
   51.2183   84.8782   33.3013 O   0  0  0  0  0  0  0  0  0  0  0  0
   49.0953   85.8292   33.9747 C   0  0  0  0  0  0  0  0  0  0  0  0
   54.8306   85.5336   24.9137 C   0  0  0  0  0  0  0  0  0  0  0  0
   55.6255   85.7319   23.9092 O   0  0  0  0  0  0  0  0  0  0  0  0
   55.9594   86.9750   23.7807 C   0  0  0  0  0  0  0  0  0  0  0  0
   55.3235   87.6843   24.8061 C   0  0  0  0  0  0  0  0  0  0  0  0
   54.6128   86.7532   25.5145 C   0  0  0  0  0  0  0  0  0  0  0  0
   56.8591   87.5994   22.7430 C   0  0  0  0  0  0  0  0  0  0  0  0
   56.3943   88.8740   22.3809 O   0  0  0  0  0  0  0  0  0  0  0  0
   55.8672   89.2250   21.1711 C   0  0  0  0  0  0  0  0  0  0  0  0
   56.4328   90.1551   20.3033 C   0  0  0  0  0  0  0  0  0  0  0  0
   55.8159   90.4325   19.1040 C   0  0  0  0  0  0  0  0  0  0  0  0
   54.6460   89.8341   18.6981 C   0  0  0  0  0  0  0  0  0  0  0  0
   54.0767   88.9075   19.5547 C   0  0  0  0  0  0  0  0  0  0  0  0
   54.6938   88.6226   20.7658 C   0  0  0  0  0  0  0  0  0  0  0  0
   53.8373   90.2584   17.0234 Br  0  0  0  0  0  0  0  0  0  0  0  0
  5  6  1  0  0  0
  5 10  1  0  0  0
  6  7  1  0  0  0
  6 13  1  0  0  0
  7  8  1  0  0  0
  7 11  1  0  0  0
  8  9  2  0  0  0
  8 14  1  0  0  0
  9 10  1  0  0  0
  9 17  1  0  0  0
 17 18  1  0  0  0
 18 19  1  0  0  0
 19 20  2  0  0  0
 19 21  1  0  0  0
 14 15  2  0  0  0
 14 16  1  0  0  0
 11 12  2  0  0  0
 11 13  1  0  0  0
 13  1  1  0  0  0
  1  2  1  0  0  0
  2  3  2  0  0  0
  2 22  1  0  0  0
 22 23  1  0  0  0
 22 26  2  0  0  0
 23 24  1  0  0  0
 24 25  2  0  0  0
 24 27  1  0  0  0
 25 26  1  0  0  0
 27 28  1  0  0  0
 28 29  1  0  0  0
 29 30  2  0  0  0
 29 34  1  0  0  0
 30 31  1  0  0  0
 31 32  2  0  0  0
 32 33  1  0  0  0
 32 35  1  0  0  0
 33 34  2  0  0  0
  1  4  1  0  0  0
M  END
> <minimizedAffinity>
-8.83871

$$$$
1001


 26 29  0  0  0  0  0  0  0  0999 V2000
   56.8134   86.2938   24.5150 P   0  0  0  0  0  0  0  0  0  0  0  0
   56.2912   85.0884   25.2992 O   0  0  0  0  0  0  0  0  0  0  0  0
   55.7184   87.5479   24.7286 O   0  0  0  0  0  0  0  0  0  0  0  0
   55.4054   88.1613   23.5433 C   0  0  0  0  0  0  0  0  0  0  0  0
   56.6728   88.1168   22.6787 C   0  0  0  0  0  0  0  0  0  0  0  0
   56.6062   89.1949   21.8476 O   0  0  0  0  0  0  0  0  0  0  0  0
   55.8305   90.1712   22.4088 C   0  0  0  0  0  0  0  0  0  0  0  0
   55.2002   89.6487   23.6530 C   0  0  0  0  0  0  0  0  0  0  0  0
   55.7739   90.1293   24.8135 O   0  0  0  0  0  0  0  0  0  0  0  0
   56.6657   86.7842   22.0013 C   0  0  0  0  0  0  0  0  0  0  0  0
   56.9862   85.8182   22.9247 O   0  0  0  0  0  0  0  0  0  0  0  0
   58.3144   86.6953   25.2305 O   0  0  0  0  0  0  0  0  0  0  0  0
   55.1786   90.1213   25.5805 H   0  0  0  0  0  0  0  0  0  0  0  0
   54.8515   90.5878   21.4133 N   0  0  0  0  0  0  0  0  0  0  0  0
   54.2148   89.7736   20.5390 C   0  0  0  0  0  0  0  0  0  0  0  0
   54.2964   88.4452   20.3524 N   0  0  0  0  0  0  0  0  0  0  0  0
   53.5462   87.8657   19.4013 C   0  0  0  0  0  0  0  0  0  0  0  0
   52.7233   88.6176   18.6474 N   0  0  0  0  0  0  0  0  0  0  0  0
   52.5898   89.9461   18.7775 C   0  0  0  0  0  0  0  0  0  0  0  0
   53.3704   90.5417   19.7652 C   0  0  0  0  0  0  0  0  0  0  0  0
   53.4902   91.8059   20.1615 N   0  0  0  0  0  0  0  0  0  0  0  0
   54.3905   91.8231   21.1607 C   0  0  0  0  0  0  0  0  0  0  0  0
   54.9896   93.3686   22.1467 Br  0  0  0  0  0  0  0  0  0  0  0  0
   51.7247   90.7499   17.9883 N   0  0  0  0  0  0  0  0  0  0  0  0
   52.0992   91.1229   17.0660 H   0  0  0  0  0  0  0  0  0  0  0  0
   50.7636   90.9942   18.2447 H   0  0  0  0  0  0  0  0  0  0  0  0
  1  2  2  0  0  0
  1  3  1  0  0  0
  1 11  1  0  0  0
  1 12  1  0  0  0
  3  4  1  0  0  0
  4  5  1  0  0  0
  4  8  1  0  0  0
  5  6  1  0  0  0
  5 10  1  0  0  0
  6  7  1  0  0  0
  7  8  1  0  0  0
  7 14  1  0  0  0
  8  9  1  0  0  0
 14 15  1  0  0  0
 14 22  1  0  0  0
 15 16  2  0  0  0
 15 20  1  0  0  0
 16 17  1  0  0  0
 17 18  2  0  0  0
 18 19  1  0  0  0
 19 20  2  0  0  0
 19 24  1  0  0  0
 20 21  1  0  0  0
 21 22  2  0  0  0
 22 23  1  0  0  0
 10 11  1  0  0  0
  9 13  1  0  0  0
 24 25  1  0  0  0
 24 26  1  0  0  0
M  END
> <minimizedAffinity>
-8.50616

$$$$
1008


 29 32  0  0  0  0  0  0  0  0999 V2000
   50.5400   99.9226   29.7804 C   0  0  0  0  0  0  0  0  0  0  0  0
   50.7276   98.9741   30.5812 O   0  0  0  0  0  0  0  0  0  0  0  0
   51.4538  100.1399   28.7069 N   0  0  0  0  0  0  0  0  0  0  0  0
   52.6021   99.2769   28.5310 C   0  0  0  0  0  0  0  0  0  0  0  0
   52.8782   98.9482   27.0969 C   0  0  0  0  0  0  0  0  0  0  0  0
   51.6172   99.3110   26.3082 C   0  0  0  0  0  0  0  0  0  0  0  0
   51.5308  100.8210   26.3535 C   0  0  0  0  0  0  0  0  0  0  0  0
   51.2542  101.2226   27.7793 C   0  0  0  0  0  0  0  0  0  0  0  0
   53.2456   97.5122   26.8815 C   0  0  0  0  0  0  0  0  0  0  0  0
   54.4315   97.0431   26.4125 N   0  0  0  0  0  0  0  0  0  0  0  0
   54.4088   95.7087   26.3494 C   0  0  0  0  0  0  0  0  0  0  0  0
   53.1658   95.3562   26.7957 N   0  0  0  0  0  0  0  0  0  0  0  0
   52.4773   96.4358   27.1113 N   0  0  0  0  0  0  0  0  0  0  0  0
   55.6918   95.1436   25.8381 C   0  0  0  0  0  0  0  0  0  0  0  0
   56.6066   96.3256   25.9278 C   0  0  0  0  0  0  0  0  0  0  0  0
   55.7145   97.5485   25.9583 C   0  0  0  0  0  0  0  0  0  0  0  0
   48.4209  102.8538   30.7556 C   0  0  0  0  0  0  0  0  0  0  0  0
   49.5048  102.0251   30.5789 C   0  0  0  0  0  0  0  0  0  0  0  0
   49.3886  100.7839   29.9613 C   0  0  0  0  0  0  0  0  0  0  0  0
   48.1392  100.4011   29.5255 C   0  0  0  0  0  0  0  0  0  0  0  0
   47.0356  101.2354   29.7016 C   0  0  0  0  0  0  0  0  0  0  0  0
   47.1695  102.4607   30.3153 C   0  0  0  0  0  0  0  0  0  0  0  0
   47.8993   98.7249   28.6759 Br  0  0  0  0  0  0  0  0  0  0  0  0
   48.6335  104.3931   31.5357 S   0  0  0  0  0  0  0  0  0  0  0  0
   50.1114  104.6147   31.7835 O   0  0  0  0  0  0  0  0  0  0  0  0
   47.9197  104.4219   32.8650 O   0  0  0  0  0  0  0  0  0  0  0  0
   48.0978  105.6598   30.5116 N   0  0  0  0  0  0  0  0  0  0  0  0
   47.2015  106.0837   30.8531 H   0  0  0  0  0  0  0  0  0  0  0  0
   47.9774  105.3069   29.5295 H   0  0  0  0  0  0  0  0  0  0  0  0
 24 25  2  0  0  0
 24 26  2  0  0  0
 24 27  1  0  0  0
 24 17  1  0  0  0
 17 18  2  0  0  0
 17 22  1  0  0  0
 18 19  1  0  0  0
 19 20  2  0  0  0
 19  1  1  0  0  0
 20 21  1  0  0  0
 20 23  1  0  0  0
 21 22  2  0  0  0
  1  2  2  0  0  0
  1  3  1  0  0  0
  3  4  1  0  0  0
  3  8  1  0  0  0
  4  5  1  0  0  0
  5  6  1  0  0  0
  5  9  1  0  0  0
  6  7  1  0  0  0
  7  8  1  0  0  0
  9 10  1  0  0  0
  9 13  2  0  0  0
 10 11  1  0  0  0
 10 16  1  0  0  0
 11 12  2  0  0  0
 11 14  1  0  0  0
 12 13  1  0  0  0
 14 15  1  0  0  0
 15 16  1  0  0  0
 27 28  1  0  0  0
 27 29  1  0  0  0
M  END
> <minimizedAffinity>
-8.37573

$$$$
1011


 29 32  0  0  0  0  0  0  0  0999 V2000
   55.4463   88.0281   22.1830 C   0  0  0  0  0  0  0  0  0  0  0  0
   54.8580   88.5100   21.0095 C   0  0  0  0  0  0  0  0  0  0  0  0
   54.6852   89.8634   20.8183 C   0  0  0  0  0  0  0  0  0  0  0  0
   55.0759   90.8009   21.7577 C   0  0  0  0  0  0  0  0  0  0  0  0
   55.6524   90.3399   22.9079 C   0  0  0  0  0  0  0  0  0  0  0  0
   55.8314   88.9671   23.1090 C   0  0  0  0  0  0  0  0  0  0  0  0
   56.6315   88.3284   24.7303 Br  0  0  0  0  0  0  0  0  0  0  0  0
   54.7420   92.1646   21.2596 C   0  0  0  0  0  0  0  0  0  0  0  0
   53.6759   91.8527   20.1877 C   0  0  0  0  0  0  0  0  0  0  0  0
   54.1155   90.5577   19.6935 N   0  0  0  0  0  0  0  0  0  0  0  0
   54.0434   90.0161   18.3890 C   0  0  0  0  0  0  0  0  0  0  0  0
   54.4857   88.8808   18.0983 O   0  0  0  0  0  0  0  0  0  0  0  0
   53.4184   90.8260   17.3166 C   0  0  0  0  0  0  0  0  0  0  0  0
   54.1127   90.7786   16.0172 C   0  0  0  0  0  0  0  0  0  0  0  0
   54.0863   92.0558   16.8207 C   0  0  0  0  0  0  0  0  0  0  0  0
   55.6578   86.3110   22.3961 S   0  0  0  0  0  0  0  0  0  0  0  0
   57.1423   85.9657   22.3743 O   0  0  0  0  0  0  0  0  0  0  0  0
   55.1465   85.8435   23.7165 O   0  0  0  0  0  0  0  0  0  0  0  0
   54.9583   85.4450   21.0819 N   0  0  0  0  0  0  0  0  0  0  0  0
   54.8423   86.1047   20.2879 H   0  0  0  0  0  0  0  0  0  0  0  0
   53.6960   84.8240   21.4293 C   0  0  0  0  0  0  0  0  0  0  0  0
   52.7296   85.1649   20.3049 C   0  0  0  0  0  0  0  0  0  0  0  0
   52.3965   83.9422   19.4921 C   0  0  0  0  0  0  0  0  0  0  0  0
   53.4639   83.6779   18.6020 N   0  0  0  0  0  0  0  0  0  0  0  0
   53.7859   82.3130   18.3839 C   0  0  0  0  0  0  0  0  0  0  0  0
   55.2069   82.2345   17.8518 C   0  0  0  0  0  0  0  0  0  0  0  0
   55.4505   83.2133   16.9091 O   0  0  0  0  0  0  0  0  0  0  0  0
   54.2945   83.7626   16.3674 C   0  0  0  0  0  0  0  0  0  0  0  0
   53.6055   84.5437   17.4900 C   0  0  0  0  0  0  0  0  0  0  0  0
 16 17  2  0  0  0
 16 18  2  0  0  0
 16 19  1  0  0  0
 16  1  1  0  0  0
 19 21  1  0  0  0
 21 22  1  0  0  0
 22 23  1  0  0  0
 23 24  1  0  0  0
 24 25  1  0  0  0
 24 29  1  0  0  0
 25 26  1  0  0  0
 26 27  1  0  0  0
 27 28  1  0  0  0
 28 29  1  0  0  0
  1  2  2  0  0  0
  1  6  1  0  0  0
  2  3  1  0  0  0
  3  4  2  0  0  0
  3 10  1  0  0  0
  4  5  1  0  0  0
  4  8  1  0  0  0
  5  6  2  0  0  0
  6  7  1  0  0  0
  8  9  1  0  0  0
  9 10  1  0  0  0
 10 11  1  0  0  0
 11 12  2  0  0  0
 11 13  1  0  0  0
 13 14  1  0  0  0
 13 15  1  0  0  0
 14 15  1  0  0  0
 19 20  1  0  0  0
M  END
> <minimizedAffinity>
-8.22629

$$$$
1027


 32 35  0  0  0  0  0  0  0  0999 V2000
   55.3484   85.5719   24.9150 S   0  0  0  0  0  0  0  0  0  0  0  0
   56.7178   84.9171   25.0988 O   0  0  0  0  0  0  0  0  0  0  0  0
   55.0675   86.2217   26.2499 O   0  0  0  0  0  0  0  0  0  0  0  0
   55.5499   86.7838   23.6795 C   0  0  0  0  0  0  0  0  0  0  0  0
   54.6785   86.7649   22.5830 C   0  0  0  0  0  0  0  0  0  0  0  0
   54.7744   87.6246   21.5123 C   0  0  0  0  0  0  0  0  0  0  0  0
   55.7734   88.5734   21.4808 C   0  0  0  0  0  0  0  0  0  0  0  0
   56.6363   88.6079   22.5479 C   0  0  0  0  0  0  0  0  0  0  0  0
   56.5330   87.7289   23.6387 C   0  0  0  0  0  0  0  0  0  0  0  0
   57.7348   87.9419   25.1179 Br  0  0  0  0  0  0  0  0  0  0  0  0
   55.6813   89.3865   20.2435 C   0  0  0  0  0  0  0  0  0  0  0  0
   54.2497   89.0967   19.7902 C   0  0  0  0  0  0  0  0  0  0  0  0
   53.9989   87.7605   20.3196 N   0  0  0  0  0  0  0  0  0  0  0  0
   53.1509   86.8102   19.7243 C   0  0  0  0  0  0  0  0  0  0  0  0
   52.5182   87.1371   18.6606 O   0  0  0  0  0  0  0  0  0  0  0  0
   52.9118   85.4320   20.2160 C   0  0  0  0  0  0  0  0  0  0  0  0
   54.2414   84.3509   24.6101 N   0  0  0  0  0  0  0  0  0  0  0  0
   52.9082   84.6312   24.3238 C   0  0  0  0  0  0  0  0  0  0  0  0
   52.0208   84.7826   25.4985 C   0  0  0  0  0  0  0  0  0  0  0  0
   50.9880   85.4925   25.4414 O   0  0  0  0  0  0  0  0  0  0  0  0
   52.4077   84.0825   26.6757 N   0  0  0  0  0  0  0  0  0  0  0  0
   53.4228   83.1035   26.5275 C   0  0  0  0  0  0  0  0  0  0  0  0
   53.4499   82.1446   27.3491 O   0  0  0  0  0  0  0  0  0  0  0  0
   54.4330   83.1783   25.4514 C   0  0  0  0  0  0  0  0  0  0  0  0
   51.7742   84.3737   27.9441 C   0  0  0  0  0  0  0  0  0  0  0  0
   52.7150   84.7254   29.0442 C   0  0  0  0  0  0  0  0  0  0  0  0
   52.2344   84.4754   30.4017 C   0  0  0  0  0  0  0  0  0  0  0  0
   52.3705   83.2594   31.0116 C   0  0  0  0  0  0  0  0  0  0  0  0
   51.8951   83.0910   32.2817 C   0  0  0  0  0  0  0  0  0  0  0  0
   51.2736   84.1219   32.9779 C   0  0  0  0  0  0  0  0  0  0  0  0
   51.1495   85.3289   32.3465 C   0  0  0  0  0  0  0  0  0  0  0  0
   51.6162   85.5327   31.0706 C   0  0  0  0  0  0  0  0  0  0  0  0
  1  2  2  0  0  0
  1  3  2  0  0  0
  1 17  1  0  0  0
  1  4  1  0  0  0
 17 18  1  0  0  0
 17 24  1  0  0  0
 18 19  1  0  0  0
 19 20  2  0  0  0
 19 21  1  0  0  0
 21 22  1  0  0  0
 21 25  1  0  0  0
 22 23  2  0  0  0
 22 24  1  0  0  0
 25 26  1  0  0  0
 26 27  1  0  0  0
 27 28  2  0  0  0
 27 32  1  0  0  0
 28 29  1  0  0  0
 29 30  2  0  0  0
 30 31  1  0  0  0
 31 32  2  0  0  0
  4  5  2  0  0  0
  4  9  1  0  0  0
  5  6  1  0  0  0
  6  7  2  0  0  0
  6 13  1  0  0  0
  7  8  1  0  0  0
  7 11  1  0  0  0
  8  9  2  0  0  0
  9 10  1  0  0  0
 11 12  1  0  0  0
 12 13  1  0  0  0
 13 14  1  0  0  0
 14 15  2  0  0  0
 14 16  1  0  0  0
M  END
> <minimizedAffinity>
-8.92370

$$$$
1028


 25 28  0  0  0  0  0  0  0  0999 V2000
   50.1944   99.7691   28.3777 N   0  0  0  0  0  0  0  0  0  0  0  0
   50.4277   99.1214   27.1367 C   0  0  0  0  0  0  0  0  0  0  0  0
   51.8855   99.3377   27.2600 C   0  0  0  0  0  0  0  0  0  0  0  0
   51.5895   99.8206   28.6368 C   0  0  0  0  0  0  0  0  0  0  0  0
   52.7190   98.1510   27.2492 N   0  0  0  0  0  0  0  0  0  0  0  0
   52.3548   96.9025   27.1141 N   0  0  0  0  0  0  0  0  0  0  0  0
   53.4250   96.0974   27.1581 N   0  0  0  0  0  0  0  0  0  0  0  0
   54.5241   96.8528   27.3278 C   0  0  0  0  0  0  0  0  0  0  0  0
   54.0555   98.1577   27.3843 C   0  0  0  0  0  0  0  0  0  0  0  0
   55.9502   96.3953   27.4344 C   0  0  0  0  0  0  0  0  0  0  0  0
   56.6129   96.7155   26.1834 N   0  0  0  0  0  0  0  0  0  0  0  0
   57.1914   97.9810   25.8451 C   0  0  0  0  0  0  0  0  0  0  0  0
   57.8216   97.8011   24.4935 C   0  0  0  0  0  0  0  0  0  0  0  0
   57.8246   96.3437   24.1636 C   0  0  0  0  0  0  0  0  0  0  0  0
   56.7824   95.8023   25.1036 C   0  0  0  0  0  0  0  0  0  0  0  0
   56.1914   94.7226   24.9215 O   0  0  0  0  0  0  0  0  0  0  0  0
   49.3959  101.2563   28.4055 S   0  0  0  0  0  0  0  0  0  0  0  0
   48.0344  101.0895   27.7937 O   0  0  0  0  0  0  0  0  0  0  0  0
   50.1095  102.3005   27.5802 O   0  0  0  0  0  0  0  0  0  0  0  0
   49.1487  101.8959   30.0288 C   0  0  0  0  0  0  0  0  0  0  0  0
   47.7406  102.6393   30.6643 S   0  0  0  0  0  0  0  0  0  0  0  0
   48.2929  102.9655   32.2471 C   0  0  0  0  0  0  0  0  0  0  0  0
   49.5739  102.4777   32.2269 C   0  0  0  0  0  0  0  0  0  0  0  0
   50.0053  101.9310   31.0887 C   0  0  0  0  0  0  0  0  0  0  0  0
   47.3734  103.8061   33.7165 Br  0  0  0  0  0  0  0  0  0  0  0  0
 17 18  2  0  0  0
 17 19  2  0  0  0
 17  1  1  0  0  0
 17 20  1  0  0  0
  1  2  1  0  0  0
  1  4  1  0  0  0
  2  3  1  0  0  0
  3  4  1  0  0  0
  3  5  1  0  0  0
  5  6  1  0  0  0
  5  9  1  0  0  0
  6  7  2  0  0  0
  7  8  1  0  0  0
  8  9  2  0  0  0
  8 10  1  0  0  0
 10 11  1  0  0  0
 11 12  1  0  0  0
 11 15  1  0  0  0
 12 13  1  0  0  0
 13 14  1  0  0  0
 14 15  1  0  0  0
 15 16  2  0  0  0
 20 21  1  0  0  0
 20 24  2  0  0  0
 21 22  1  0  0  0
 22 23  2  0  0  0
 22 25  1  0  0  0
 23 24  1  0  0  0
M  END
> <minimizedAffinity>
-8.25425

$$$$
1037


 31 34  0  0  0  0  0  0  0  0999 V2000
   50.0434   99.0013   29.1265 N   0  0  0  0  0  0  0  0  0  0  0  0
   49.7545   98.0819   28.0793 C   0  0  0  0  0  0  0  0  0  0  0  0
   50.8623   97.4126   27.4094 C   0  0  0  0  0  0  0  0  0  0  0  0
   52.1717   97.4578   28.0306 N   0  0  0  0  0  0  0  0  0  0  0  0
   52.4371   98.3556   29.1123 C   0  0  0  0  0  0  0  0  0  0  0  0
   51.1788   98.6744   29.9106 C   0  0  0  0  0  0  0  0  0  0  0  0
   53.1504   96.5828   27.5562 C   0  0  0  0  0  0  0  0  0  0  0  0
   52.6296   95.7426   26.6366 O   0  0  0  0  0  0  0  0  0  0  0  0
   49.8642  100.6442   28.7530 S   0  0  0  0  0  0  0  0  0  0  0  0
   48.9073  100.7895   27.6019 O   0  0  0  0  0  0  0  0  0  0  0  0
   51.1846  101.2281   28.2805 O   0  0  0  0  0  0  0  0  0  0  0  0
   49.2084  101.6132   30.0561 C   0  0  0  0  0  0  0  0  0  0  0  0
   47.8280  101.7133   30.2239 C   0  0  0  0  0  0  0  0  0  0  0  0
   47.2517  102.4701   31.2210 C   0  0  0  0  0  0  0  0  0  0  0  0
   48.0309  103.1736   32.1116 C   0  0  0  0  0  0  0  0  0  0  0  0
   49.3961  103.0794   31.9517 C   0  0  0  0  0  0  0  0  0  0  0  0
   49.9848  102.3185   30.9482 C   0  0  0  0  0  0  0  0  0  0  0  0
   47.4506  103.9523   33.1326 O   0  0  0  0  0  0  0  0  0  0  0  0
   46.1375  103.6193   33.6167 C   0  0  0  0  0  0  0  0  0  0  0  0
   45.3082  103.3806   32.4072 C   0  0  0  0  0  0  0  0  0  0  0  0
   44.1648  103.8719   32.2694 O   0  0  0  0  0  0  0  0  0  0  0  0
   45.8248  102.5688   31.3678 N   0  0  0  0  0  0  0  0  0  0  0  0
   45.2499  102.0382   30.6976 H   0  0  0  0  0  0  0  0  0  0  0  0
   54.5455   96.3970   27.8316 C   0  0  0  0  0  0  0  0  0  0  0  0
   55.5701   96.7291   26.8446 C   0  0  0  0  0  0  0  0  0  0  0  0
   56.0047   95.8062   25.9252 C   0  0  0  0  0  0  0  0  0  0  0  0
   56.9789   96.1377   24.9841 C   0  0  0  0  0  0  0  0  0  0  0  0
   57.5044   97.3962   24.9768 C   0  0  0  0  0  0  0  0  0  0  0  0
   57.0648   98.3399   25.9068 C   0  0  0  0  0  0  0  0  0  0  0  0
   56.1161   98.0132   26.8229 C   0  0  0  0  0  0  0  0  0  0  0  0
   55.2856   94.0290   25.9207 Br  0  0  0  0  0  0  0  0  0  0  0  0
  9 10  2  0  0  0
  9 11  2  0  0  0
  9  1  1  0  0  0
  9 12  1  0  0  0
  1  2  1  0  0  0
  1  6  1  0  0  0
  2  3  1  0  0  0
  3  4  1  0  0  0
  4  5  1  0  0  0
  4  7  1  0  0  0
  5  6  1  0  0  0
  7  8  2  0  0  0
  7 24  1  0  0  0
 24 25  1  0  0  0
 25 26  2  0  0  0
 25 30  1  0  0  0
 26 27  1  0  0  0
 26 31  1  0  0  0
 27 28  2  0  0  0
 28 29  1  0  0  0
 29 30  2  0  0  0
 12 13  2  0  0  0
 12 17  1  0  0  0
 13 14  1  0  0  0
 14 15  2  0  0  0
 14 22  1  0  0  0
 15 16  1  0  0  0
 15 18  1  0  0  0
 16 17  2  0  0  0
 18 19  1  0  0  0
 19 20  1  0  0  0
 20 21  2  0  0  0
 20 22  1  0  0  0
 22 23  1  0  0  0
M  END
> <minimizedAffinity>
-10.52932

$$$$
1040


 34 38  0  0  0  0  0  0  0  0999 V2000
   53.3780   84.8497   20.3547 S   0  0  0  0  0  0  0  0  0  0  0  0
   54.3148   83.8329   20.8831 O   0  0  0  0  0  0  0  0  0  0  0  0
   52.1566   84.7756   21.2782 O   0  0  0  0  0  0  0  0  0  0  0  0
   53.9379   86.4892   20.4644 C   0  0  0  0  0  0  0  0  0  0  0  0
   55.1544   86.8221   21.0762 C   0  0  0  0  0  0  0  0  0  0  0  0
   55.5917   88.1286   21.1621 C   0  0  0  0  0  0  0  0  0  0  0  0
   54.8436   89.1663   20.6444 C   0  0  0  0  0  0  0  0  0  0  0  0
   53.6548   88.8491   20.0473 C   0  0  0  0  0  0  0  0  0  0  0  0
   53.2264   87.5281   19.9675 C   0  0  0  0  0  0  0  0  0  0  0  0
   51.9231   87.3448   19.3070 C   0  0  0  0  0  0  0  0  0  0  0  0
   51.8720   88.0968   17.9950 C   0  0  0  0  0  0  0  0  0  0  0  0
   52.4308   89.3886   18.1258 N   0  0  0  0  0  0  0  0  0  0  0  0
   52.7426   89.8464   19.4424 C   0  0  0  0  0  0  0  0  0  0  0  0
   53.3186   89.8122   17.1009 C   0  0  0  0  0  0  0  0  0  0  0  0
   56.8064   88.1166   21.8120 O   0  0  0  0  0  0  0  0  0  0  0  0
   57.0709   86.8160   22.2566 C   0  0  0  0  0  0  0  0  0  0  0  0
   56.0876   85.9776   21.6695 O   0  0  0  0  0  0  0  0  0  0  0  0
   55.2837   90.5034   20.7287 O   0  0  0  0  0  0  0  0  0  0  0  0
   55.1337   91.1964   21.9760 C   0  0  0  0  0  0  0  0  0  0  0  0
   52.7591   84.4773   18.7929 N   0  0  0  0  0  0  0  0  0  0  0  0
   52.1271   83.2064   18.7033 C   0  0  0  0  0  0  0  0  0  0  0  0
   53.0746   82.0597   18.3756 C   0  0  0  0  0  0  0  0  0  0  0  0
   53.8352   82.4068   17.2223 N   0  0  0  0  0  0  0  0  0  0  0  0
   54.6479   83.6470   17.4384 C   0  0  0  0  0  0  0  0  0  0  0  0
   53.6775   84.7390   17.7374 C   0  0  0  0  0  0  0  0  0  0  0  0
   53.9453   81.8133   15.9809 C   0  0  0  0  0  0  0  0  0  0  0  0
   54.7570   82.4275   15.1433 O   0  0  0  0  0  0  0  0  0  0  0  0
   53.3312   80.6393   15.4324 C   0  0  0  0  0  0  0  0  0  0  0  0
   53.2898   80.4536   14.0276 N   0  0  0  0  0  0  0  0  0  0  0  0
   54.1199   79.7340   13.2746 N   0  0  0  0  0  0  0  0  0  0  0  0
   53.7436   79.7597   11.9899 C   0  0  0  0  0  0  0  0  0  0  0  0
   52.6149   80.5407   11.9425 C   0  0  0  0  0  0  0  0  0  0  0  0
   52.3373   80.9686   13.2061 C   0  0  0  0  0  0  0  0  0  0  0  0
   51.5970   80.9619   10.3652 Br  0  0  0  0  0  0  0  0  0  0  0  0
  1  2  2  0  0  0
  1  3  2  0  0  0
  1 20  1  0  0  0
  1  4  1  0  0  0
 20 21  1  0  0  0
 20 25  1  0  0  0
 21 22  1  0  0  0
 22 23  1  0  0  0
 23 24  1  0  0  0
 23 26  1  0  0  0
 24 25  1  0  0  0
 26 27  2  0  0  0
 26 28  1  0  0  0
 28 29  1  0  0  0
 29 30  1  0  0  0
 29 33  1  0  0  0
 30 31  2  0  0  0
 31 32  1  0  0  0
 32 33  2  0  0  0
 32 34  1  0  0  0
  4  5  2  0  0  0
  4  9  1  0  0  0
  5  6  1  0  0  0
  5 17  1  0  0  0
  6  7  2  0  0  0
  6 15  1  0  0  0
  7  8  1  0  0  0
  7 18  1  0  0  0
  8  9  2  0  0  0
  8 13  1  0  0  0
  9 10  1  0  0  0
 10 11  1  0  0  0
 11 12  1  0  0  0
 12 13  1  0  0  0
 12 14  1  0  0  0
 18 19  1  0  0  0
 15 16  1  0  0  0
 16 17  1  0  0  0
M  END
> <minimizedAffinity>
-8.56537

$$$$
1042


 31 34  0  0  0  0  0  0  0  0999 V2000
   55.6647   88.9259   21.7370 N   0  0  0  0  0  0  0  0  0  0  0  0
   55.6213   89.4341   23.0250 C   0  0  0  0  0  0  0  0  0  0  0  0
   56.1980   88.3597   23.9871 C   0  0  0  0  0  0  0  0  0  0  0  0
   55.5326   87.1064   23.7646 N   0  0  0  0  0  0  0  0  0  0  0  0
   55.6150   86.5532   22.4323 C   0  0  0  0  0  0  0  0  0  0  0  0
   56.2303   87.6180   21.5508 C   0  0  0  0  0  0  0  0  0  0  0  0
   54.8225   86.4105   24.7614 C   0  0  0  0  0  0  0  0  0  0  0  0
   54.7551   86.8952   25.9137 O   0  0  0  0  0  0  0  0  0  0  0  0
   55.4206   89.8346   20.3737 S   0  0  0  0  0  0  0  0  0  0  0  0
   55.1799   91.2882   20.8032 O   0  0  0  0  0  0  0  0  0  0  0  0
   56.6863   89.9371   19.5171 O   0  0  0  0  0  0  0  0  0  0  0  0
   54.0804   89.4316   19.3459 C   0  0  0  0  0  0  0  0  0  0  0  0
   53.7860   89.9987   18.1349 C   0  0  0  0  0  0  0  0  0  0  0  0
   52.6475   89.6366   17.4060 C   0  0  0  0  0  0  0  0  0  0  0  0
   51.7740   88.7010   17.8630 C   0  0  0  0  0  0  0  0  0  0  0  0
   52.0412   88.1130   19.0699 C   0  0  0  0  0  0  0  0  0  0  0  0
   53.1576   88.4661   19.7896 C   0  0  0  0  0  0  0  0  0  0  0  0
   54.9872   91.2627   17.3874 Br  0  0  0  0  0  0  0  0  0  0  0  0
   54.1654   85.1352   24.4711 C   0  0  0  0  0  0  0  0  0  0  0  0
   54.2550   84.2374   25.6195 N   0  0  0  0  0  0  0  0  0  0  0  0
   55.3647   83.5226   26.1227 C   0  0  0  0  0  0  0  0  0  0  0  0
   56.5382   83.5483   25.6257 O   0  0  0  0  0  0  0  0  0  0  0  0
   54.9222   82.7921   27.2600 N   0  0  0  0  0  0  0  0  0  0  0  0
   53.7119   83.4211   27.7200 C   0  0  0  0  0  0  0  0  0  0  0  0
   53.9369   84.4894   28.7396 C   0  0  0  0  0  0  0  0  0  0  0  0
   52.5255   84.6738   29.3113 C   0  0  0  0  0  0  0  0  0  0  0  0
   51.9597   83.2804   29.3308 C   0  0  0  0  0  0  0  0  0  0  0  0
   52.7887   82.4451   28.4118 C   0  0  0  0  0  0  0  0  0  0  0  0
   53.1232   83.9367   26.4611 C   0  0  0  0  0  0  0  0  0  0  0  0
   51.9074   84.0761   26.1987 O   0  0  0  0  0  0  0  0  0  0  0  0
   55.4442   81.9588   27.6290 H   0  0  0  0  0  0  0  0  0  0  0  0
  9 10  2  0  0  0
  9 11  2  0  0  0
  9  1  1  0  0  0
  9 12  1  0  0  0
  1  2  1  0  0  0
  1  6  1  0  0  0
  2  3  1  0  0  0
  3  4  1  0  0  0
  4  5  1  0  0  0
  4  7  1  0  0  0
  5  6  1  0  0  0
  7  8  2  0  0  0
  7 19  1  0  0  0
 19 20  1  0  0  0
 20 21  1  0  0  0
 20 29  1  0  0  0
 21 22  2  0  0  0
 21 23  1  0  0  0
 23 24  1  0  0  0
 24 25  1  0  0  0
 24 28  1  0  0  0
 24 29  1  0  0  0
 25 26  1  0  0  0
 26 27  1  0  0  0
 27 28  1  0  0  0
 29 30  2  0  0  0
 12 13  2  0  0  0
 12 17  1  0  0  0
 13 14  1  0  0  0
 13 18  1  0  0  0
 14 15  2  0  0  0
 15 16  1  0  0  0
 16 17  2  0  0  0
 23 31  1  0  0  0
M  END
> <minimizedAffinity>
-9.04441

$$$$
1043


 31 34  0  0  0  0  0  0  0  0999 V2000
   53.9469   85.7618   23.2556 N   0  0  0  0  0  0  0  0  0  0  0  0
   53.0217   84.6536   23.1501 C   0  0  0  0  0  0  0  0  0  0  0  0
   52.9523   83.8756   24.4405 C   0  0  0  0  0  0  0  0  0  0  0  0
   52.6888   84.8536   25.5165 N   0  0  0  0  0  0  0  0  0  0  0  0
   53.6309   85.9246   25.6147 C   0  0  0  0  0  0  0  0  0  0  0  0
   54.6648   85.7283   24.4811 C   0  0  0  0  0  0  0  0  0  0  0  0
   51.5765   84.7065   26.3577 C   0  0  0  0  0  0  0  0  0  0  0  0
   50.8243   83.6577   26.0910 O   0  0  0  0  0  0  0  0  0  0  0  0
   54.9190   85.9603   21.8667 S   0  0  0  0  0  0  0  0  0  0  0  0
   54.7209   84.7255   21.0062 O   0  0  0  0  0  0  0  0  0  0  0  0
   56.3720   85.9481   22.2706 O   0  0  0  0  0  0  0  0  0  0  0  0
   54.5511   87.4146   20.9715 C   0  0  0  0  0  0  0  0  0  0  0  0
   53.5155   87.4756   20.0610 C   0  0  0  0  0  0  0  0  0  0  0  0
   53.2309   88.6378   19.3534 C   0  0  0  0  0  0  0  0  0  0  0  0
   53.9777   89.7721   19.5399 C   0  0  0  0  0  0  0  0  0  0  0  0
   55.0151   89.7251   20.4470 C   0  0  0  0  0  0  0  0  0  0  0  0
   55.2935   88.5625   21.1502 C   0  0  0  0  0  0  0  0  0  0  0  0
   53.5895   91.3867   18.5639 Br  0  0  0  0  0  0  0  0  0  0  0  0
   51.0815   85.4785   27.4690 C   0  0  0  0  0  0  0  0  0  0  0  0
   50.3989   84.8387   28.5491 N   0  0  0  0  0  0  0  0  0  0  0  0
   48.9707   84.8170   28.8024 C   0  0  0  0  0  0  0  0  0  0  0  0
   48.1353   85.3793   28.0408 O   0  0  0  0  0  0  0  0  0  0  0  0
   48.7536   84.0823   29.9958 N   0  0  0  0  0  0  0  0  0  0  0  0
   49.9927   84.0320   30.6950 C   0  0  0  0  0  0  0  0  0  0  0  0
   50.1470   85.1277   31.7224 C   0  0  0  0  0  0  0  0  0  0  0  0
   51.3509   84.6392   32.5050 C   0  0  0  0  0  0  0  0  0  0  0  0
   51.3357   83.1335   32.3972 C   0  0  0  0  0  0  0  0  0  0  0  0
   50.1345   82.7853   31.5509 C   0  0  0  0  0  0  0  0  0  0  0  0
   50.9948   84.0949   29.6324 C   0  0  0  0  0  0  0  0  0  0  0  0
   52.1556   83.6116   29.6239 O   0  0  0  0  0  0  0  0  0  0  0  0
   47.8104   83.6776   30.2489 H   0  0  0  0  0  0  0  0  0  0  0  0
  9 10  2  0  0  0
  9 11  2  0  0  0
  9  1  1  0  0  0
  9 12  1  0  0  0
  1  2  1  0  0  0
  1  6  1  0  0  0
  2  3  1  0  0  0
  3  4  1  0  0  0
  4  5  1  0  0  0
  4  7  1  0  0  0
  5  6  1  0  0  0
  7  8  2  0  0  0
  7 19  1  0  0  0
 19 20  1  0  0  0
 20 21  1  0  0  0
 20 29  1  0  0  0
 21 22  2  0  0  0
 21 23  1  0  0  0
 23 24  1  0  0  0
 24 25  1  0  0  0
 24 28  1  0  0  0
 24 29  1  0  0  0
 25 26  1  0  0  0
 26 27  1  0  0  0
 27 28  1  0  0  0
 29 30  2  0  0  0
 12 13  2  0  0  0
 12 17  1  0  0  0
 13 14  1  0  0  0
 14 15  2  0  0  0
 15 16  1  0  0  0
 15 18  1  0  0  0
 16 17  2  0  0  0
 23 31  1  0  0  0
M  END
> <minimizedAffinity>
-8.99409

$$$$
1044


 30 33  0  0  0  0  0  0  0  0999 V2000
   54.6272   85.5541   23.7839 S   0  0  0  0  0  0  0  0  0  0  0  0
   55.5461   84.8363   24.6933 O   0  0  0  0  0  0  0  0  0  0  0  0
   53.9631   86.6542   24.6028 O   0  0  0  0  0  0  0  0  0  0  0  0
   53.3147   84.5154   23.2401 C   0  0  0  0  0  0  0  0  0  0  0  0
   52.2752   84.1699   24.0789 C   0  0  0  0  0  0  0  0  0  0  0  0
   51.2318   83.3585   23.6824 C   0  0  0  0  0  0  0  0  0  0  0  0
   51.1922   82.8514   22.3998 C   0  0  0  0  0  0  0  0  0  0  0  0
   52.2349   83.1971   21.5539 C   0  0  0  0  0  0  0  0  0  0  0  0
   53.2746   84.0089   21.9569 C   0  0  0  0  0  0  0  0  0  0  0  0
   50.1522   82.0291   21.9700 O   0  0  0  0  0  0  0  0  0  0  0  0
   49.2005   81.4361   22.8327 C   0  0  0  0  0  0  0  0  0  0  0  0
   49.0887   82.1603   24.1241 C   0  0  0  0  0  0  0  0  0  0  0  0
   48.0358   81.9907   24.7897 O   0  0  0  0  0  0  0  0  0  0  0  0
   50.1595   82.9986   24.5438 N   0  0  0  0  0  0  0  0  0  0  0  0
   50.1746   83.3734   25.5159 H   0  0  0  0  0  0  0  0  0  0  0  0
   55.3804   86.2873   22.4594 N   0  0  0  0  0  0  0  0  0  0  0  0
   56.5461   87.0171   22.6979 C   0  0  0  0  0  0  0  0  0  0  0  0
   56.8807   88.0908   21.7242 C   0  0  0  0  0  0  0  0  0  0  0  0
   55.7585   88.6437   21.0343 N   0  0  0  0  0  0  0  0  0  0  0  0
   54.4344   88.1427   21.3328 C   0  0  0  0  0  0  0  0  0  0  0  0
   54.5673   86.6216   21.3626 C   0  0  0  0  0  0  0  0  0  0  0  0
   55.8917   89.6668   20.0650 C   0  0  0  0  0  0  0  0  0  0  0  0
   57.0362   90.1389   19.7700 O   0  0  0  0  0  0  0  0  0  0  0  0
   54.7586   90.2418   19.3516 C   0  0  0  0  0  0  0  0  0  0  0  0
   54.0838   91.3573   19.8116 C   0  0  0  0  0  0  0  0  0  0  0  0
   53.0135   91.9091   19.1464 C   0  0  0  0  0  0  0  0  0  0  0  0
   52.6039   91.3110   17.9648 C   0  0  0  0  0  0  0  0  0  0  0  0
   53.2378   90.2003   17.4594 C   0  0  0  0  0  0  0  0  0  0  0  0
   54.3039   89.6857   18.1636 C   0  0  0  0  0  0  0  0  0  0  0  0
   54.7036   92.1280   21.4454 Br  0  0  0  0  0  0  0  0  0  0  0  0
  1  2  2  0  0  0
  1  3  2  0  0  0
  1 16  1  0  0  0
  1  4  1  0  0  0
 16 17  1  0  0  0
 16 21  1  0  0  0
 17 18  1  0  0  0
 18 19  1  0  0  0
 19 20  1  0  0  0
 19 22  1  0  0  0
 20 21  1  0  0  0
 22 23  2  0  0  0
 22 24  1  0  0  0
 24 25  2  0  0  0
 24 29  1  0  0  0
 25 26  1  0  0  0
 25 30  1  0  0  0
 26 27  2  0  0  0
 27 28  1  0  0  0
 28 29  2  0  0  0
  4  5  2  0  0  0
  4  9  1  0  0  0
  5  6  1  0  0  0
  6  7  2  0  0  0
  6 14  1  0  0  0
  7  8  1  0  0  0
  7 10  1  0  0  0
  8  9  2  0  0  0
 10 11  1  0  0  0
 11 12  1  0  0  0
 12 13  2  0  0  0
 12 14  1  0  0  0
 14 15  1  0  0  0
M  END
> <minimizedAffinity>
-9.26929

$$$$
1051


 27 30  0  0  0  0  0  0  0  0999 V2000
   55.2817   85.6894   26.0752 N   0  0  0  0  0  0  0  0  0  0  0  0
   54.7424   86.9234   25.6366 C   0  0  0  0  0  0  0  0  0  0  0  0
   55.0072   87.3032   24.2199 C   0  0  0  0  0  0  0  0  0  0  0  0
   56.2896   86.8754   23.7283 N   0  0  0  0  0  0  0  0  0  0  0  0
   57.1378   86.1726   24.6647 C   0  0  0  0  0  0  0  0  0  0  0  0
   56.2589   85.0802   25.2385 C   0  0  0  0  0  0  0  0  0  0  0  0
   56.7555   87.0993   22.4194 C   0  0  0  0  0  0  0  0  0  0  0  0
   57.8879   86.6891   22.0825 O   0  0  0  0  0  0  0  0  0  0  0  0
   55.9278   87.8074   21.4485 C   0  0  0  0  0  0  0  0  0  0  0  0
   56.2833   88.8907   20.7654 N   0  0  0  0  0  0  0  0  0  0  0  0
   55.2899   89.2819   19.9642 N   0  0  0  0  0  0  0  0  0  0  0  0
   54.2392   88.4427   20.1101 C   0  0  0  0  0  0  0  0  0  0  0  0
   54.6486   87.5004   21.0605 C   0  0  0  0  0  0  0  0  0  0  0  0
   53.0874   88.6062   19.4121 N   0  0  0  0  0  0  0  0  0  0  0  0
   52.9791   89.6455   18.5348 C   0  0  0  0  0  0  0  0  0  0  0  0
   54.0327   90.5169   18.3631 C   0  0  0  0  0  0  0  0  0  0  0  0
   55.1801   90.3090   19.0954 C   0  0  0  0  0  0  0  0  0  0  0  0
   53.8771   91.9814   17.1257 Br  0  0  0  0  0  0  0  0  0  0  0  0
   54.0948   84.5095   26.4803 S   0  0  0  0  0  0  0  0  0  0  0  0
   53.4561   84.8487   27.7883 O   0  0  0  0  0  0  0  0  0  0  0  0
   54.8365   83.1890   26.6384 O   0  0  0  0  0  0  0  0  0  0  0  0
   52.8562   84.3808   25.2568 C   0  0  0  0  0  0  0  0  0  0  0  0
   53.0113   83.9758   23.9507 C   0  0  0  0  0  0  0  0  0  0  0  0
   51.8332   84.0088   23.3267 N   0  0  0  0  0  0  0  0  0  0  0  0
   50.9181   84.4206   24.1826 N   0  0  0  0  0  0  0  0  0  0  0  0
   51.4965   84.6635   25.3863 C   0  0  0  0  0  0  0  0  0  0  0  0
   51.5609   83.6626   21.9569 C   0  0  0  0  0  0  0  0  0  0  0  0
 19 20  2  0  0  0
 19 21  2  0  0  0
 19  1  1  0  0  0
 19 22  1  0  0  0
  1  2  1  0  0  0
  1  6  1  0  0  0
  2  3  1  0  0  0
  3  4  1  0  0  0
  4  5  1  0  0  0
  4  7  1  0  0  0
  5  6  1  0  0  0
  7  8  2  0  0  0
  7  9  1  0  0  0
  9 10  2  0  0  0
  9 13  1  0  0  0
 10 11  1  0  0  0
 11 12  1  0  0  0
 11 17  1  0  0  0
 12 13  2  0  0  0
 12 14  1  0  0  0
 14 15  2  0  0  0
 15 16  1  0  0  0
 16 17  2  0  0  0
 16 18  1  0  0  0
 22 23  2  0  0  0
 22 26  1  0  0  0
 23 24  1  0  0  0
 24 25  1  0  0  0
 24 27  1  0  0  0
 25 26  2  0  0  0
M  END
> <minimizedAffinity>
-8.41553

$$$$
1056


 30 33  0  0  0  0  0  0  0  0999 V2000
   56.2060   87.0264   23.6482 N   0  0  0  0  0  0  0  0  0  0  0  0
   57.1498   86.3187   24.4261 C   0  0  0  0  0  0  0  0  0  0  0  0
   56.6715   85.1316   25.1547 C   0  0  0  0  0  0  0  0  0  0  0  0
   55.3631   85.3266   25.7044 N   0  0  0  0  0  0  0  0  0  0  0  0
   54.7220   86.6018   25.5590 C   0  0  0  0  0  0  0  0  0  0  0  0
   54.9196   87.2225   24.2115 C   0  0  0  0  0  0  0  0  0  0  0  0
   54.7032   84.2828   26.3831 C   0  0  0  0  0  0  0  0  0  0  0  0
   55.2778   83.1766   26.4992 O   0  0  0  0  0  0  0  0  0  0  0  0
   53.3739   84.4102   26.9668 C   0  0  0  0  0  0  0  0  0  0  0  0
   52.2545   84.2491   26.1709 C   0  0  0  0  0  0  0  0  0  0  0  0
   51.0298   84.3654   26.7070 N   0  0  0  0  0  0  0  0  0  0  0  0
   50.8339   84.6372   28.0154 C   0  0  0  0  0  0  0  0  0  0  0  0
   51.9006   84.7996   28.8169 N   0  0  0  0  0  0  0  0  0  0  0  0
   51.7079   85.0741   30.1379 C   0  0  0  0  0  0  0  0  0  0  0  0
   50.4450   85.1924   30.6812 C   0  0  0  0  0  0  0  0  0  0  0  0
   49.3312   85.0294   29.8741 C   0  0  0  0  0  0  0  0  0  0  0  0
   49.5528   84.7523   28.5438 C   0  0  0  0  0  0  0  0  0  0  0  0
   50.1952   85.4904   32.1134 C   0  0  0  0  0  0  0  0  0  0  0  0
   53.1532   84.6876   28.3007 C   0  0  0  0  0  0  0  0  0  0  0  0
   54.1366   84.8371   29.0415 O   0  0  0  0  0  0  0  0  0  0  0  0
   56.2630   86.7723   21.9767 S   0  0  0  0  0  0  0  0  0  0  0  0
   57.6502   86.4453   21.5457 O   0  0  0  0  0  0  0  0  0  0  0  0
   55.3697   85.6038   21.6399 O   0  0  0  0  0  0  0  0  0  0  0  0
   55.6626   88.1763   21.1359 C   0  0  0  0  0  0  0  0  0  0  0  0
   54.4133   88.1536   20.5520 C   0  0  0  0  0  0  0  0  0  0  0  0
   53.9966   89.3082   19.8976 C   0  0  0  0  0  0  0  0  0  0  0  0
   54.7796   90.4305   19.8255 C   0  0  0  0  0  0  0  0  0  0  0  0
   56.0347   90.4426   20.4167 C   0  0  0  0  0  0  0  0  0  0  0  0
   56.4732   89.2915   21.0801 C   0  0  0  0  0  0  0  0  0  0  0  0
   52.2840   89.3400   19.0716 Br  0  0  0  0  0  0  0  0  0  0  0  0
 21 22  2  0  0  0
 21 23  2  0  0  0
 21  1  1  0  0  0
 21 24  1  0  0  0
  1  2  1  0  0  0
  1  6  1  0  0  0
  2  3  1  0  0  0
  3  4  1  0  0  0
  4  5  1  0  0  0
  4  7  1  0  0  0
  5  6  1  0  0  0
  7  8  2  0  0  0
  7  9  1  0  0  0
  9 10  2  0  0  0
  9 19  1  0  0  0
 10 11  1  0  0  0
 11 12  2  0  0  0
 12 13  1  0  0  0
 12 17  1  0  0  0
 13 14  1  0  0  0
 13 19  1  0  0  0
 14 15  2  0  0  0
 15 16  1  0  0  0
 15 18  1  0  0  0
 16 17  2  0  0  0
 19 20  2  0  0  0
 24 25  2  0  0  0
 24 29  1  0  0  0
 25 26  1  0  0  0
 26 27  2  0  0  0
 26 30  1  0  0  0
 27 28  1  0  0  0
 28 29  2  0  0  0
M  END
> <minimizedAffinity>
-9.96686

$$$$
1061


 30 34  0  0  0  0  0  0  0  0999 V2000
   56.3973   87.4922   23.5995 N   0  0  0  0  0  0  0  0  0  0  0  0
   55.2133   88.0803   24.1685 C   0  0  0  0  0  0  0  0  0  0  0  0
   54.8744   87.4672   25.5078 C   0  0  0  0  0  0  0  0  0  0  0  0
   54.7681   85.9921   25.3783 N   0  0  0  0  0  0  0  0  0  0  0  0
   56.0851   85.4896   25.0140 C   0  0  0  0  0  0  0  0  0  0  0  0
   57.0180   86.5745   24.5048 C   0  0  0  0  0  0  0  0  0  0  0  0
   56.3232   87.0640   21.9775 S   0  0  0  0  0  0  0  0  0  0  0  0
   57.7080   86.5903   21.5547 O   0  0  0  0  0  0  0  0  0  0  0  0
   55.4601   85.8062   21.8698 O   0  0  0  0  0  0  0  0  0  0  0  0
   55.6792   88.2193   20.8822 C   0  0  0  0  0  0  0  0  0  0  0  0
   54.3979   88.0964   20.4023 C   0  0  0  0  0  0  0  0  0  0  0  0
   53.9094   89.0521   19.5294 C   0  0  0  0  0  0  0  0  0  0  0  0
   54.6635   90.1348   19.1153 C   0  0  0  0  0  0  0  0  0  0  0  0
   55.9491   90.2542   19.6000 C   0  0  0  0  0  0  0  0  0  0  0  0
   56.4392   89.2933   20.4773 C   0  0  0  0  0  0  0  0  0  0  0  0
   53.9926   91.4517   17.9108 Br  0  0  0  0  0  0  0  0  0  0  0  0
   54.4365   85.5535   26.7169 C   0  0  0  0  0  0  0  0  0  0  0  0
   53.5232   84.4116   26.8603 C   0  0  0  0  0  0  0  0  0  0  0  0
   52.8916   83.8607   25.7096 N   0  0  0  0  0  0  0  0  0  0  0  0
   53.2338   82.7329   24.9122 C   0  0  0  0  0  0  0  0  0  0  0  0
   54.3735   82.2607   24.7898 O   0  0  0  0  0  0  0  0  0  0  0  0
   52.0065   82.2214   24.2560 C   0  0  0  0  0  0  0  0  0  0  0  0
   51.1942   83.5303   24.1269 C   0  0  0  0  0  0  0  0  0  0  0  0
   51.4050   83.9940   22.7349 C   0  0  0  0  0  0  0  0  0  0  0  0
   52.7388   83.3218   22.3678 C   0  0  0  0  0  0  0  0  0  0  0  0
   52.2727   81.9277   22.8231 C   0  0  0  0  0  0  0  0  0  0  0  0
   50.9390   81.8907   22.1348 C   0  0  0  0  0  0  0  0  0  0  0  0
   50.5231   83.1272   21.8605 C   0  0  0  0  0  0  0  0  0  0  0  0
   51.6652   84.4144   25.1834 C   0  0  0  0  0  0  0  0  0  0  0  0
   51.0825   85.4664   25.5474 O   0  0  0  0  0  0  0  0  0  0  0  0
  7  8  2  0  0  0
  7  9  2  0  0  0
  7  1  1  0  0  0
  7 10  1  0  0  0
  1  2  1  0  0  0
  1  6  1  0  0  0
  2  3  1  0  0  0
  3  4  1  0  0  0
  4  5  1  0  0  0
  4 17  1  0  0  0
  5  6  1  0  0  0
 17 18  1  0  0  0
 18 19  1  0  0  0
 19 20  1  0  0  0
 19 29  1  0  0  0
 20 21  2  0  0  0
 20 22  1  0  0  0
 22 23  1  0  0  0
 22 26  1  0  0  0
 23 24  1  0  0  0
 23 29  1  0  0  0
 24 25  1  0  0  0
 24 28  1  0  0  0
 25 26  1  0  0  0
 26 27  1  0  0  0
 27 28  2  0  0  0
 29 30  2  0  0  0
 10 11  2  0  0  0
 10 15  1  0  0  0
 11 12  1  0  0  0
 12 13  2  0  0  0
 13 14  1  0  0  0
 13 16  1  0  0  0
 14 15  2  0  0  0
M  END
> <minimizedAffinity>
-8.95878

$$$$
1073


 28 31  0  0  0  0  0  0  0  0999 V2000
   55.4818   85.4215   24.9441 N   0  0  0  0  0  0  0  0  0  0  0  0
   56.8634   85.6701   25.0298 C   0  0  0  0  0  0  0  0  0  0  0  0
   57.2691   86.9975   24.4511 C   0  0  0  0  0  0  0  0  0  0  0  0
   56.3331   87.5499   23.5387 N   0  0  0  0  0  0  0  0  0  0  0  0
   55.0532   87.6931   24.1350 C   0  0  0  0  0  0  0  0  0  0  0  0
   54.6029   86.5278   24.9350 C   0  0  0  0  0  0  0  0  0  0  0  0
   54.8900   83.9698   25.4937 S   0  0  0  0  0  0  0  0  0  0  0  0
   54.1353   83.2200   24.4483 O   0  0  0  0  0  0  0  0  0  0  0  0
   56.0004   83.1055   25.9983 O   0  0  0  0  0  0  0  0  0  0  0  0
   53.7674   84.2702   26.8369 C   0  0  0  0  0  0  0  0  0  0  0  0
   52.0734   84.4576   26.8010 S   0  0  0  0  0  0  0  0  0  0  0  0
   51.7917   84.7032   28.4629 C   0  0  0  0  0  0  0  0  0  0  0  0
   53.0492   84.6325   29.0100 C   0  0  0  0  0  0  0  0  0  0  0  0
   54.0656   84.4082   28.1627 C   0  0  0  0  0  0  0  0  0  0  0  0
   50.1349   85.0079   29.3751 Br  0  0  0  0  0  0  0  0  0  0  0  0
   56.4083   86.9431   22.2624 C   0  0  0  0  0  0  0  0  0  0  0  0
   55.2950   87.1210   21.3932 N   0  0  0  0  0  0  0  0  0  0  0  0
   55.0032   88.3100   20.9076 N   0  0  0  0  0  0  0  0  0  0  0  0
   53.9708   88.5645   20.0888 C   0  0  0  0  0  0  0  0  0  0  0  0
   53.1759   87.4966   19.7453 C   0  0  0  0  0  0  0  0  0  0  0  0
   53.4283   86.2272   20.2205 C   0  0  0  0  0  0  0  0  0  0  0  0
   54.5226   86.0743   21.0615 C   0  0  0  0  0  0  0  0  0  0  0  0
   54.7547   84.8940   21.5000 O   0  0  0  0  0  0  0  0  0  0  0  0
   53.6789   89.8700   19.5772 N   0  0  0  0  0  0  0  0  0  0  0  0
   54.5310   90.8393   19.2279 C   0  0  0  0  0  0  0  0  0  0  0  0
   53.8220   91.8997   18.7990 N   0  0  0  0  0  0  0  0  0  0  0  0
   52.5098   91.6140   18.8721 C   0  0  0  0  0  0  0  0  0  0  0  0
   52.4354   90.3287   19.3653 C   0  0  0  0  0  0  0  0  0  0  0  0
  7  8  2  0  0  0
  7  9  2  0  0  0
  7  1  1  0  0  0
  7 10  1  0  0  0
  1  2  1  0  0  0
  1  6  1  0  0  0
  2  3  1  0  0  0
  3  4  1  0  0  0
  4  5  1  0  0  0
  4 16  1  0  0  0
  5  6  1  0  0  0
 16 17  1  0  0  0
 17 18  1  0  0  0
 17 22  1  0  0  0
 18 19  2  0  0  0
 19 20  1  0  0  0
 19 24  1  0  0  0
 20 21  2  0  0  0
 21 22  1  0  0  0
 22 23  2  0  0  0
 24 25  1  0  0  0
 24 28  1  0  0  0
 25 26  2  0  0  0
 26 27  1  0  0  0
 27 28  2  0  0  0
 10 11  1  0  0  0
 10 14  2  0  0  0
 11 12  1  0  0  0
 12 13  2  0  0  0
 12 15  1  0  0  0
 13 14  1  0  0  0
M  END
> <minimizedAffinity>
-7.93882

$$$$
1076


 29 32  0  0  0  0  0  0  0  0999 V2000
   55.0016   86.4736   24.2665 N   0  0  0  0  0  0  0  0  0  0  0  0
   54.8117   87.7433   24.8938 C   0  0  0  0  0  0  0  0  0  0  0  0
   55.6052   88.7532   24.0468 C   0  0  0  0  0  0  0  0  0  0  0  0
   56.7311   88.1657   23.4617 N   0  0  0  0  0  0  0  0  0  0  0  0
   57.3494   87.0995   24.2015 C   0  0  0  0  0  0  0  0  0  0  0  0
   56.3593   86.0500   24.6539 C   0  0  0  0  0  0  0  0  0  0  0  0
   53.9319   85.2566   24.8173 S   0  0  0  0  0  0  0  0  0  0  0  0
   53.0538   85.7414   25.9408 O   0  0  0  0  0  0  0  0  0  0  0  0
   54.7780   84.1432   25.3903 O   0  0  0  0  0  0  0  0  0  0  0  0
   52.9410   84.5861   23.5795 C   0  0  0  0  0  0  0  0  0  0  0  0
   53.2937   84.4099   22.2742 C   0  0  0  0  0  0  0  0  0  0  0  0
   52.4157   83.8575   21.3529 C   0  0  0  0  0  0  0  0  0  0  0  0
   51.1608   83.4660   21.7138 C   0  0  0  0  0  0  0  0  0  0  0  0
   50.7737   83.6325   23.0345 C   0  0  0  0  0  0  0  0  0  0  0  0
   51.6505   84.1807   23.9364 C   0  0  0  0  0  0  0  0  0  0  0  0
   52.9349   83.6192   19.5181 Br  0  0  0  0  0  0  0  0  0  0  0  0
   56.8758   88.0986   22.0683 C   0  0  0  0  0  0  0  0  0  0  0  0
   55.7384   88.3715   21.2503 N   0  0  0  0  0  0  0  0  0  0  0  0
   54.7693   87.3700   20.9871 N   0  0  0  0  0  0  0  0  0  0  0  0
   53.7871   87.9913   20.1625 C   0  0  0  0  0  0  0  0  0  0  0  0
   52.7143   87.3529   19.7111 C   0  0  0  0  0  0  0  0  0  0  0  0
   51.5639   87.7384   18.8628 C   0  0  0  0  0  0  0  0  0  0  0  0
   51.9369   88.8605   17.9239 C   0  0  0  0  0  0  0  0  0  0  0  0
   52.0593   90.1060   18.7835 C   0  0  0  0  0  0  0  0  0  0  0  0
   53.4830   90.3880   19.1549 C   0  0  0  0  0  0  0  0  0  0  0  0
   54.1167   89.3474   19.9058 N   0  0  0  0  0  0  0  0  0  0  0  0
   55.3436   89.5677   20.5947 C   0  0  0  0  0  0  0  0  0  0  0  0
   55.9489   90.6683   20.5952 O   0  0  0  0  0  0  0  0  0  0  0  0
   54.7743   86.3792   21.3269 H   0  0  0  0  0  0  0  0  0  0  0  0
  7  8  2  0  0  0
  7  9  2  0  0  0
  7  1  1  0  0  0
  7 10  1  0  0  0
  1  2  1  0  0  0
  1  6  1  0  0  0
  2  3  1  0  0  0
  3  4  1  0  0  0
  4  5  1  0  0  0
  4 17  1  0  0  0
  5  6  1  0  0  0
 17 18  1  0  0  0
 18 19  1  0  0  0
 18 27  1  0  0  0
 19 20  1  0  0  0
 20 21  2  0  0  0
 20 26  1  0  0  0
 21 22  1  0  0  0
 22 23  1  0  0  0
 23 24  1  0  0  0
 24 25  1  0  0  0
 25 26  1  0  0  0
 26 27  1  0  0  0
 27 28  2  0  0  0
 10 11  2  0  0  0
 10 15  1  0  0  0
 11 12  1  0  0  0
 12 13  2  0  0  0
 12 16  1  0  0  0
 13 14  1  0  0  0
 14 15  2  0  0  0
 19 29  1  0  0  0
M  END
> <minimizedAffinity>
-8.50498

$$$$
1081


 27 30  0  0  0  0  0  0  0  0999 V2000
   51.9037   99.6281   27.6523 N   0  0  0  0  0  0  0  0  0  0  0  0
   51.9859  100.4885   28.7698 C   0  0  0  0  0  0  0  0  0  0  0  0
   50.7280  101.1689   29.1957 C   0  0  0  0  0  0  0  0  0  0  0  0
   49.5723  100.8460   28.3964 N   0  0  0  0  0  0  0  0  0  0  0  0
   49.7314  100.6121   26.9975 C   0  0  0  0  0  0  0  0  0  0  0  0
   51.0153   99.9678   26.6065 C   0  0  0  0  0  0  0  0  0  0  0  0
   48.3041  100.7872   29.0650 C   0  0  0  0  0  0  0  0  0  0  0  0
   47.9403  101.5251   30.1277 N   0  0  0  0  0  0  0  0  0  0  0  0
   46.6959  101.1306   30.4218 N   0  0  0  0  0  0  0  0  0  0  0  0
   46.3147  100.1957   29.5795 N   0  0  0  0  0  0  0  0  0  0  0  0
   47.2845   99.9549   28.7225 N   0  0  0  0  0  0  0  0  0  0  0  0
   48.7151  102.5184   30.7841 C   0  0  0  0  0  0  0  0  0  0  0  0
   49.6464  102.1832   31.7402 C   0  0  0  0  0  0  0  0  0  0  0  0
   50.3918  103.1816   32.3659 C   0  0  0  0  0  0  0  0  0  0  0  0
   50.2181  104.5108   32.0479 C   0  0  0  0  0  0  0  0  0  0  0  0
   49.2700  104.8519   31.0748 C   0  0  0  0  0  0  0  0  0  0  0  0
   48.5330  103.8390   30.4591 C   0  0  0  0  0  0  0  0  0  0  0  0
   52.0790   97.9620   27.9452 S   0  0  0  0  0  0  0  0  0  0  0  0
   50.8862   97.1458   27.6413 O   0  0  0  0  0  0  0  0  0  0  0  0
   52.3563   97.7802   29.4327 O   0  0  0  0  0  0  0  0  0  0  0  0
   53.4711   97.3542   27.0924 C   0  0  0  0  0  0  0  0  0  0  0  0
   53.4679   96.1644   26.4090 C   0  0  0  0  0  0  0  0  0  0  0  0
   54.5889   95.6907   25.7279 C   0  0  0  0  0  0  0  0  0  0  0  0
   55.7511   96.4686   25.7515 C   0  0  0  0  0  0  0  0  0  0  0  0
   55.7660   97.6642   26.4346 C   0  0  0  0  0  0  0  0  0  0  0  0
   54.6458   98.0934   27.0897 C   0  0  0  0  0  0  0  0  0  0  0  0
   57.3260   95.8814   24.8364 Br  0  0  0  0  0  0  0  0  0  0  0  0
 18 19  2  0  0  0
 18 20  2  0  0  0
 18  1  1  0  0  0
 18 21  1  0  0  0
  1  2  1  0  0  0
  1  6  1  0  0  0
  2  3  1  0  0  0
  3  4  1  0  0  0
  4  5  1  0  0  0
  4  7  1  0  0  0
  5  6  1  0  0  0
  7  8  1  0  0  0
  7 11  2  0  0  0
  8  9  1  0  0  0
  8 12  1  0  0  0
  9 10  2  0  0  0
 10 11  1  0  0  0
 12 13  2  0  0  0
 12 17  1  0  0  0
 13 14  1  0  0  0
 14 15  2  0  0  0
 15 16  1  0  0  0
 16 17  2  0  0  0
 21 22  2  0  0  0
 21 26  1  0  0  0
 22 23  1  0  0  0
 23 24  2  0  0  0
 24 25  1  0  0  0
 24 27  1  0  0  0
 25 26  2  0  0  0
M  END
> <minimizedAffinity>
-8.96028

$$$$
1084


 29 32  0  0  0  0  0  0  0  0999 V2000
   54.9711   86.6723   24.4205 N   0  0  0  0  0  0  0  0  0  0  0  0
   54.9433   86.2554   23.0587 C   0  0  0  0  0  0  0  0  0  0  0  0
   55.8061   87.1049   22.1506 C   0  0  0  0  0  0  0  0  0  0  0  0
   55.9075   88.4063   22.7439 N   0  0  0  0  0  0  0  0  0  0  0  0
   56.5353   88.5293   24.0265 C   0  0  0  0  0  0  0  0  0  0  0  0
   56.2096   87.2932   24.8264 C   0  0  0  0  0  0  0  0  0  0  0  0
   55.3991   89.5302   22.0713 C   0  0  0  0  0  0  0  0  0  0  0  0
   54.8026   89.4487   20.8705 N   0  0  0  0  0  0  0  0  0  0  0  0
   54.3064   90.4659   20.1889 C   0  0  0  0  0  0  0  0  0  0  0  0
   54.4041   91.7256   20.7554 C   0  0  0  0  0  0  0  0  0  0  0  0
   55.0066   91.8606   21.9859 C   0  0  0  0  0  0  0  0  0  0  0  0
   55.4859   90.7701   22.6112 N   0  0  0  0  0  0  0  0  0  0  0  0
   55.1318   93.1969   22.6280 C   0  0  0  0  0  0  0  0  0  0  0  0
   53.7011   90.2468   18.9279 N   0  0  0  0  0  0  0  0  0  0  0  0
   53.0353   89.0135   18.5624 C   0  0  0  0  0  0  0  0  0  0  0  0
   52.0596   89.3713   17.4422 C   0  0  0  0  0  0  0  0  0  0  0  0
   51.4530   90.5771   17.8003 O   0  0  0  0  0  0  0  0  0  0  0  0
   52.2796   91.6674   17.6521 C   0  0  0  0  0  0  0  0  0  0  0  0
   53.7397   91.3011   17.9406 C   0  0  0  0  0  0  0  0  0  0  0  0
   54.7540   85.2747   25.4158 S   0  0  0  0  0  0  0  0  0  0  0  0
   56.0349   84.4587   25.3549 O   0  0  0  0  0  0  0  0  0  0  0  0
   54.5515   85.7119   26.8376 O   0  0  0  0  0  0  0  0  0  0  0  0
   53.4380   84.2860   24.8509 C   0  0  0  0  0  0  0  0  0  0  0  0
   53.6694   82.9360   24.6242 C   0  0  0  0  0  0  0  0  0  0  0  0
   52.6761   82.0931   24.1770 C   0  0  0  0  0  0  0  0  0  0  0  0
   51.4169   82.5894   23.9432 C   0  0  0  0  0  0  0  0  0  0  0  0
   51.1466   83.9280   24.1566 C   0  0  0  0  0  0  0  0  0  0  0  0
   52.1722   84.7535   24.6095 C   0  0  0  0  0  0  0  0  0  0  0  0
   50.0541   81.4094   23.3250 Br  0  0  0  0  0  0  0  0  0  0  0  0
 20 21  2  0  0  0
 20 22  2  0  0  0
 20  1  1  0  0  0
 20 23  1  0  0  0
  1  2  1  0  0  0
  1  6  1  0  0  0
  2  3  1  0  0  0
  3  4  1  0  0  0
  4  5  1  0  0  0
  4  7  1  0  0  0
  5  6  1  0  0  0
  7  8  2  0  0  0
  7 12  1  0  0  0
  8  9  1  0  0  0
  9 10  2  0  0  0
  9 14  1  0  0  0
 10 11  1  0  0  0
 11 12  2  0  0  0
 11 13  1  0  0  0
 14 15  1  0  0  0
 14 19  1  0  0  0
 15 16  1  0  0  0
 16 17  1  0  0  0
 17 18  1  0  0  0
 18 19  1  0  0  0
 23 24  2  0  0  0
 23 28  1  0  0  0
 24 25  1  0  0  0
 25 26  2  0  0  0
 26 27  1  0  0  0
 26 29  1  0  0  0
 27 28  2  0  0  0
M  END
> <minimizedAffinity>
-8.47552

$$$$
1089


 25 28  0  0  0  0  0  0  0  0999 V2000
   56.8673   87.1319   23.6622 N   0  0  0  0  0  0  0  0  0  0  0  0
   57.1599   86.0211   24.4823 C   0  0  0  0  0  0  0  0  0  0  0  0
   56.0107   85.4757   25.2933 C   0  0  0  0  0  0  0  0  0  0  0  0
   54.8148   86.2456   25.1546 N   0  0  0  0  0  0  0  0  0  0  0  0
   54.8108   87.6668   24.8554 C   0  0  0  0  0  0  0  0  0  0  0  0
   56.1393   88.1339   24.3369 C   0  0  0  0  0  0  0  0  0  0  0  0
   53.5473   85.6209   25.3063 C   0  0  0  0  0  0  0  0  0  0  0  0
   52.9023   85.6906   26.5086 N   0  0  0  0  0  0  0  0  0  0  0  0
   51.7087   85.1187   26.6703 C   0  0  0  0  0  0  0  0  0  0  0  0
   51.0974   84.4637   25.6846 N   0  0  0  0  0  0  0  0  0  0  0  0
   51.7091   84.3841   24.5049 C   0  0  0  0  0  0  0  0  0  0  0  0
   51.3469   83.8010   23.3586 N   0  0  0  0  0  0  0  0  0  0  0  0
   52.3341   84.0034   22.4416 C   0  0  0  0  0  0  0  0  0  0  0  0
   53.3193   84.7110   22.9952 N   0  0  0  0  0  0  0  0  0  0  0  0
   52.9587   84.9574   24.2627 C   0  0  0  0  0  0  0  0  0  0  0  0
   54.1908   85.0001   22.5137 H   0  0  0  0  0  0  0  0  0  0  0  0
   56.6017   86.8971   22.0292 S   0  0  0  0  0  0  0  0  0  0  0  0
   55.5826   85.7760   21.8590 O   0  0  0  0  0  0  0  0  0  0  0  0
   57.8150   86.4759   21.2832 O   0  0  0  0  0  0  0  0  0  0  0  0
   55.9058   88.2829   21.1839 C   0  0  0  0  0  0  0  0  0  0  0  0
   54.3395   88.4834   20.5430 S   0  0  0  0  0  0  0  0  0  0  0  0
   54.4917   90.0587   19.9163 C   0  0  0  0  0  0  0  0  0  0  0  0
   55.7871   90.3916   20.2318 C   0  0  0  0  0  0  0  0  0  0  0  0
   56.5083   89.4728   20.8838 C   0  0  0  0  0  0  0  0  0  0  0  0
   53.1984   91.1226   18.9990 Br  0  0  0  0  0  0  0  0  0  0  0  0
 17 18  2  0  0  0
 17 19  2  0  0  0
 17  1  1  0  0  0
 17 20  1  0  0  0
  1  2  1  0  0  0
  1  6  1  0  0  0
  2  3  1  0  0  0
  3  4  1  0  0  0
  4  5  1  0  0  0
  4  7  1  0  0  0
  5  6  1  0  0  0
  7  8  2  0  0  0
  7 15  1  0  0  0
  8  9  1  0  0  0
  9 10  2  0  0  0
 10 11  1  0  0  0
 11 12  1  0  0  0
 11 15  2  0  0  0
 12 13  2  0  0  0
 13 14  1  0  0  0
 14 15  1  0  0  0
 20 21  1  0  0  0
 20 24  2  0  0  0
 21 22  1  0  0  0
 22 23  2  0  0  0
 22 25  1  0  0  0
 23 24  1  0  0  0
 14 16  1  0  0  0
M  END
> <minimizedAffinity>
-8.24881

$$$$
1100


 26 29  0  0  0  0  0  0  0  0999 V2000
   53.7334   84.7166   19.0972 N   0  0  0  0  0  0  0  0  0  0  0  0
   52.5930   85.4166   18.6087 C   0  0  0  0  0  0  0  0  0  0  0  0
   52.2368   86.6245   19.4493 C   0  0  0  0  0  0  0  0  0  0  0  0
   53.4712   87.1877   19.9333 N   0  0  0  0  0  0  0  0  0  0  0  0
   54.2103   86.3753   20.8659 C   0  0  0  0  0  0  0  0  0  0  0  0
   54.0984   84.9515   20.4536 C   0  0  0  0  0  0  0  0  0  0  0  0
   53.9559   88.4558   19.5378 C   0  0  0  0  0  0  0  0  0  0  0  0
   53.7743   88.9340   18.3065 C   0  0  0  0  0  0  0  0  0  0  0  0
   54.2550   90.2297   17.8627 C   0  0  0  0  0  0  0  0  0  0  0  0
   54.0460   90.6530   16.6271 C   0  0  0  0  0  0  0  0  0  0  0  0
   54.9578   91.0410   18.7799 N   0  0  0  0  0  0  0  0  0  0  0  0
   55.1338   90.4950   20.0957 C   0  0  0  0  0  0  0  0  0  0  0  0
   54.6691   89.2891   20.4570 N   0  0  0  0  0  0  0  0  0  0  0  0
   54.9876   89.0635   21.7342 N   0  0  0  0  0  0  0  0  0  0  0  0
   55.6633   90.1222   22.2138 C   0  0  0  0  0  0  0  0  0  0  0  0
   55.7477   90.9961   21.1965 N   0  0  0  0  0  0  0  0  0  0  0  0
   55.3383   91.9727   18.5647 H   0  0  0  0  0  0  0  0  0  0  0  0
   53.6173   83.0643   18.7226 S   0  0  0  0  0  0  0  0  0  0  0  0
   52.5031   82.3729   19.4648 O   0  0  0  0  0  0  0  0  0  0  0  0
   54.9048   82.3935   19.1786 O   0  0  0  0  0  0  0  0  0  0  0  0
   53.4984   82.7696   16.9888 C   0  0  0  0  0  0  0  0  0  0  0  0
   52.5988   81.5470   16.2273 S   0  0  0  0  0  0  0  0  0  0  0  0
   52.9730   81.8961   14.6041 C   0  0  0  0  0  0  0  0  0  0  0  0
   53.8061   82.9784   14.6997 C   0  0  0  0  0  0  0  0  0  0  0  0
   54.0785   83.4327   15.9462 C   0  0  0  0  0  0  0  0  0  0  0  0
   52.3885   81.0101   12.9912 Br  0  0  0  0  0  0  0  0  0  0  0  0
 18 19  2  0  0  0
 18 20  2  0  0  0
 18  1  1  0  0  0
 18 21  1  0  0  0
  1  2  1  0  0  0
  1  6  1  0  0  0
  2  3  1  0  0  0
  3  4  1  0  0  0
  4  5  1  0  0  0
  4  7  1  0  0  0
  5  6  1  0  0  0
  7  8  2  0  0  0
  7 13  1  0  0  0
  8  9  1  0  0  0
  9 10  2  0  0  0
  9 11  1  0  0  0
 11 12  1  0  0  0
 12 13  1  0  0  0
 12 16  2  0  0  0
 13 14  1  0  0  0
 14 15  2  0  0  0
 15 16  1  0  0  0
 21 22  1  0  0  0
 21 25  2  0  0  0
 22 23  1  0  0  0
 23 24  2  0  0  0
 23 26  1  0  0  0
 24 25  1  0  0  0
 11 17  1  0  0  0
M  END
> <minimizedAffinity>
-8.67421

$$$$
1101


 26 29  0  0  0  0  0  0  0  0999 V2000
   55.8034   86.5777   25.3166 N   0  0  0  0  0  0  0  0  0  0  0  0
   57.0303   86.5971   24.6140 C   0  0  0  0  0  0  0  0  0  0  0  0
   56.9777   87.0996   23.2145 C   0  0  0  0  0  0  0  0  0  0  0  0
   56.1076   88.2808   23.0988 N   0  0  0  0  0  0  0  0  0  0  0  0
   55.6688   88.8317   24.3632 C   0  0  0  0  0  0  0  0  0  0  0  0
   54.9513   87.7129   25.0942 C   0  0  0  0  0  0  0  0  0  0  0  0
   55.7554   88.8015   21.8323 C   0  0  0  0  0  0  0  0  0  0  0  0
   54.6638   88.2572   21.1667 C   0  0  0  0  0  0  0  0  0  0  0  0
   54.3265   88.7783   19.9192 C   0  0  0  0  0  0  0  0  0  0  0  0
   55.0173   89.7676   19.3680 N   0  0  0  0  0  0  0  0  0  0  0  0
   54.4521   90.0435   18.1815 C   0  0  0  0  0  0  0  0  0  0  0  0
   53.4099   89.2043   18.0264 N   0  0  0  0  0  0  0  0  0  0  0  0
   53.3283   88.4252   19.0910 N   0  0  0  0  0  0  0  0  0  0  0  0
   54.8936   91.0901   17.2040 C   0  0  0  0  0  0  0  0  0  0  0  0
   56.0432   90.2877   19.9813 N   0  0  0  0  0  0  0  0  0  0  0  0
   56.4151   89.8162   21.2003 C   0  0  0  0  0  0  0  0  0  0  0  0
   54.9685   85.0949   25.3027 S   0  0  0  0  0  0  0  0  0  0  0  0
   55.9773   84.0024   25.6356 O   0  0  0  0  0  0  0  0  0  0  0  0
   54.4579   84.7832   23.9275 O   0  0  0  0  0  0  0  0  0  0  0  0
   53.7162   84.9935   26.5108 C   0  0  0  0  0  0  0  0  0  0  0  0
   52.3754   85.1541   26.1889 C   0  0  0  0  0  0  0  0  0  0  0  0
   51.3869   85.0741   27.1446 C   0  0  0  0  0  0  0  0  0  0  0  0
   51.7502   84.8265   28.4587 C   0  0  0  0  0  0  0  0  0  0  0  0
   53.0704   84.6584   28.8289 C   0  0  0  0  0  0  0  0  0  0  0  0
   54.0262   84.7463   27.8436 C   0  0  0  0  0  0  0  0  0  0  0  0
   50.3625   84.7182   29.7752 Br  0  0  0  0  0  0  0  0  0  0  0  0
 17 18  2  0  0  0
 17 19  2  0  0  0
 17  1  1  0  0  0
 17 20  1  0  0  0
  1  2  1  0  0  0
  1  6  1  0  0  0
  2  3  1  0  0  0
  3  4  1  0  0  0
  4  5  1  0  0  0
  4  7  1  0  0  0
  5  6  1  0  0  0
  7  8  2  0  0  0
  7 16  1  0  0  0
  8  9  1  0  0  0
  9 10  1  0  0  0
  9 13  2  0  0  0
 10 11  1  0  0  0
 10 15  1  0  0  0
 11 12  2  0  0  0
 11 14  1  0  0  0
 12 13  1  0  0  0
 15 16  2  0  0  0
 20 21  2  0  0  0
 20 25  1  0  0  0
 21 22  1  0  0  0
 22 23  2  0  0  0
 23 24  1  0  0  0
 23 26  1  0  0  0
 24 25  2  0  0  0
M  END
> <minimizedAffinity>
-8.63307

$$$$
1105


 33 36  0  0  0  0  0  0  0  0999 V2000
   53.0782   83.1395   26.1081 N   0  0  0  0  0  0  0  0  0  0  0  0
   52.6930   81.7932   26.3679 C   0  0  0  0  0  0  0  0  0  0  0  0
   52.7121   81.3996   27.8274 C   0  0  0  0  0  0  0  0  0  0  0  0
   52.0825   82.4337   28.6522 N   0  0  0  0  0  0  0  0  0  0  0  0
   52.5399   83.7678   28.3334 C   0  0  0  0  0  0  0  0  0  0  0  0
   52.0933   84.7732   28.8912 O   0  0  0  0  0  0  0  0  0  0  0  0
   53.5961   83.7679   27.2673 C   0  0  0  0  0  0  0  0  0  0  0  0
   51.3916   82.2686   29.3835 H   0  0  0  0  0  0  0  0  0  0  0  0
   51.8230   83.9610   25.3102 S   0  0  0  0  0  0  0  0  0  0  0  0
   51.7116   85.4088   25.6685 O   0  0  0  0  0  0  0  0  0  0  0  0
   50.4732   83.3383   25.6458 O   0  0  0  0  0  0  0  0  0  0  0  0
   51.9753   83.8401   23.5662 C   0  0  0  0  0  0  0  0  0  0  0  0
   50.9993   83.2515   22.7714 C   0  0  0  0  0  0  0  0  0  0  0  0
   51.0979   83.1426   21.4129 C   0  0  0  0  0  0  0  0  0  0  0  0
   52.2021   83.6290   20.7628 C   0  0  0  0  0  0  0  0  0  0  0  0
   53.2066   84.2300   21.5309 C   0  0  0  0  0  0  0  0  0  0  0  0
   53.0746   84.3216   22.8955 C   0  0  0  0  0  0  0  0  0  0  0  0
   52.3968   83.5084   18.8740 Br  0  0  0  0  0  0  0  0  0  0  0  0
   54.2489   85.0830   27.1041 C   0  0  0  0  0  0  0  0  0  0  0  0
   55.1411   85.0513   25.9206 C   0  0  0  0  0  0  0  0  0  0  0  0
   55.7765   83.9816   25.7221 O   0  0  0  0  0  0  0  0  0  0  0  0
   55.2777   86.1731   25.0469 N   0  0  0  0  0  0  0  0  0  0  0  0
   54.5474   87.3882   25.2846 C   0  0  0  0  0  0  0  0  0  0  0  0
   55.2407   88.6243   24.8026 C   0  0  0  0  0  0  0  0  0  0  0  0
   56.0724   88.4152   23.6301 N   0  0  0  0  0  0  0  0  0  0  0  0
   57.0136   87.3119   23.7500 C   0  0  0  0  0  0  0  0  0  0  0  0
   56.1621   86.0711   23.9158 C   0  0  0  0  0  0  0  0  0  0  0  0
   56.0352   89.1834   22.4587 C   0  0  0  0  0  0  0  0  0  0  0  0
   55.4898   90.4475   22.4954 C   0  0  0  0  0  0  0  0  0  0  0  0
   55.4416   91.1997   21.3318 C   0  0  0  0  0  0  0  0  0  0  0  0
   55.9168   90.7383   20.1293 C   0  0  0  0  0  0  0  0  0  0  0  0
   56.4611   89.4752   20.0978 C   0  0  0  0  0  0  0  0  0  0  0  0
   56.5125   88.7166   21.2582 C   0  0  0  0  0  0  0  0  0  0  0  0
  9 10  2  0  0  0
  9 11  2  0  0  0
  9  1  1  0  0  0
  9 12  1  0  0  0
  1  2  1  0  0  0
  1  7  1  0  0  0
  2  3  1  0  0  0
  3  4  1  0  0  0
  4  5  1  0  0  0
  5  6  2  0  0  0
  5  7  1  0  0  0
  7 19  1  0  0  0
 19 20  1  0  0  0
 20 21  2  0  0  0
 20 22  1  0  0  0
 22 23  1  0  0  0
 22 27  1  0  0  0
 23 24  1  0  0  0
 24 25  1  0  0  0
 25 26  1  0  0  0
 25 28  1  0  0  0
 26 27  1  0  0  0
 28 29  2  0  0  0
 28 33  1  0  0  0
 29 30  1  0  0  0
 30 31  2  0  0  0
 31 32  1  0  0  0
 32 33  2  0  0  0
 12 13  2  0  0  0
 12 17  1  0  0  0
 13 14  1  0  0  0
 14 15  2  0  0  0
 15 16  1  0  0  0
 15 18  1  0  0  0
 16 17  2  0  0  0
  4  8  1  0  0  0
M  END
> <minimizedAffinity>
-8.32927

$$$$
1112


 32 35  0  0  0  0  0  0  0  0999 V2000
   55.7930   93.4005   22.7521 C   0  0  0  0  0  0  0  0  0  0  0  0
   53.9732   90.6226   20.0267 C   0  0  0  0  0  0  0  0  0  0  0  0
   55.0855   90.2672   20.7334 C   0  0  0  0  0  0  0  0  0  0  0  0
   55.6943   91.1470   21.6235 C   0  0  0  0  0  0  0  0  0  0  0  0
   55.2039   92.4023   21.8268 C   0  0  0  0  0  0  0  0  0  0  0  0
   54.0758   92.7704   21.1145 C   0  0  0  0  0  0  0  0  0  0  0  0
   53.4720   91.8946   20.2310 C   0  0  0  0  0  0  0  0  0  0  0  0
   53.1786   89.5381   18.8950 S   0  0  0  0  0  0  0  0  0  0  0  0
   52.1337   90.2453   18.1024 O   0  0  0  0  0  0  0  0  0  0  0  0
   54.2476   89.0835   17.9220 O   0  0  0  0  0  0  0  0  0  0  0  0
   52.5561   88.1432   19.6593 N   0  0  0  0  0  0  0  0  0  0  0  0
   53.5643   87.1592   19.9543 C   0  0  0  0  0  0  0  0  0  0  0  0
   52.8295   85.8324   20.1669 C   0  0  0  0  0  0  0  0  0  0  0  0
   52.4000   85.3199   18.9620 O   0  0  0  0  0  0  0  0  0  0  0  0
   52.2419   86.3762   18.0472 C   0  0  0  0  0  0  0  0  0  0  0  0
   51.5688   87.5116   18.8037 C   0  0  0  0  0  0  0  0  0  0  0  0
   55.0284   93.5548   23.9270 O   0  0  0  0  0  0  0  0  0  0  0  0
   55.5186   93.9843   25.1361 C   0  0  0  0  0  0  0  0  0  0  0  0
   55.6504   93.1647   26.0661 O   0  0  0  0  0  0  0  0  0  0  0  0
   55.8845   95.3829   25.3450 C   0  0  0  0  0  0  0  0  0  0  0  0
   54.9390   96.1149   26.1354 N   0  0  0  0  0  0  0  0  0  0  0  0
   53.5524   95.7624   26.2212 C   0  0  0  0  0  0  0  0  0  0  0  0
   52.9984   94.7912   25.6312 O   0  0  0  0  0  0  0  0  0  0  0  0
   52.8748   96.7055   27.1031 C   0  0  0  0  0  0  0  0  0  0  0  0
   53.7913   97.6177   27.5564 C   0  0  0  0  0  0  0  0  0  0  0  0
   53.4082   98.6303   28.4153 C   0  0  0  0  0  0  0  0  0  0  0  0
   52.0970   98.7470   28.8360 C   0  0  0  0  0  0  0  0  0  0  0  0
   51.1639   97.8362   28.3873 C   0  0  0  0  0  0  0  0  0  0  0  0
   51.5731   96.8359   27.5299 C   0  0  0  0  0  0  0  0  0  0  0  0
   49.3430   97.9566   28.9387 Br  0  0  0  0  0  0  0  0  0  0  0  0
   55.0891   97.2591   26.9584 C   0  0  0  0  0  0  0  0  0  0  0  0
   56.1761   97.8537   27.1307 O   0  0  0  0  0  0  0  0  0  0  0  0
  8  9  2  0  0  0
  8 10  2  0  0  0
  8 11  1  0  0  0
  8  2  1  0  0  0
 11 12  1  0  0  0
 11 16  1  0  0  0
 12 13  1  0  0  0
 13 14  1  0  0  0
 14 15  1  0  0  0
 15 16  1  0  0  0
  2  3  2  0  0  0
  2  7  1  0  0  0
  3  4  1  0  0  0
  4  5  2  0  0  0
  5  6  1  0  0  0
  5  1  1  0  0  0
  6  7  2  0  0  0
  1 17  1  0  0  0
 17 18  1  0  0  0
 18 19  2  0  0  0
 18 20  1  0  0  0
 20 21  1  0  0  0
 21 22  1  0  0  0
 21 31  1  0  0  0
 22 23  2  0  0  0
 22 24  1  0  0  0
 24 25  2  0  0  0
 24 29  1  0  0  0
 25 26  1  0  0  0
 25 31  1  0  0  0
 26 27  2  0  0  0
 27 28  1  0  0  0
 28 29  2  0  0  0
 28 30  1  0  0  0
 31 32  2  0  0  0
M  END
> <minimizedAffinity>
-10.14722

$$$$
1113


 28 31  0  0  0  0  0  0  0  0999 V2000
   46.6330  101.6757   30.6427 C   0  0  0  0  0  0  0  0  0  0  0  0
   46.3343  100.4506   30.1790 N   0  0  0  0  0  0  0  0  0  0  0  0
   46.9691  100.2629   28.9940 C   0  0  0  0  0  0  0  0  0  0  0  0
   47.6772  101.3646   28.6919 N   0  0  0  0  0  0  0  0  0  0  0  0
   47.4844  102.2267   29.6793 C   0  0  0  0  0  0  0  0  0  0  0  0
   46.0860  102.4291   32.1227 S   0  0  0  0  0  0  0  0  0  0  0  0
   44.8881  103.3060   31.7815 O   0  0  0  0  0  0  0  0  0  0  0  0
   45.5420  101.3666   33.0569 O   0  0  0  0  0  0  0  0  0  0  0  0
   47.2357  103.3800   32.8849 N   0  0  0  0  0  0  0  0  0  0  0  0
   48.2009  102.7518   33.6865 C   0  0  0  0  0  0  0  0  0  0  0  0
   49.5692  103.3048   33.4178 C   0  0  0  0  0  0  0  0  0  0  0  0
   49.5199  104.6704   33.6372 O   0  0  0  0  0  0  0  0  0  0  0  0
   48.7282  105.3322   32.7071 C   0  0  0  0  0  0  0  0  0  0  0  0
   47.4082  104.7054   32.4736 C   0  0  0  0  0  0  0  0  0  0  0  0
   48.4849  101.5280   27.5005 C   0  0  0  0  0  0  0  0  0  0  0  0
   49.8597  101.0100   27.6967 C   0  0  0  0  0  0  0  0  0  0  0  0
   50.9623  101.4490   27.0345 N   0  0  0  0  0  0  0  0  0  0  0  0
   51.9848  100.7722   27.4614 O   0  0  0  0  0  0  0  0  0  0  0  0
   51.6343   99.9012   28.3735 C   0  0  0  0  0  0  0  0  0  0  0  0
   50.2933  100.0535   28.5197 N   0  0  0  0  0  0  0  0  0  0  0  0
   52.4995   98.9334   29.1135 C   0  0  0  0  0  0  0  0  0  0  0  0
   53.0069   97.9563   28.1103 C   0  0  0  0  0  0  0  0  0  0  0  0
   52.1820   96.9069   27.7369 C   0  0  0  0  0  0  0  0  0  0  0  0
   52.5655   95.9623   26.8218 C   0  0  0  0  0  0  0  0  0  0  0  0
   53.8099   96.0704   26.2631 C   0  0  0  0  0  0  0  0  0  0  0  0
   54.6571   97.0812   26.5967 C   0  0  0  0  0  0  0  0  0  0  0  0
   54.2410   98.0272   27.5296 C   0  0  0  0  0  0  0  0  0  0  0  0
   54.3793   94.7735   24.9851 Br  0  0  0  0  0  0  0  0  0  0  0  0
  6  7  2  0  0  0
  6  8  2  0  0  0
  6  9  1  0  0  0
  6  1  1  0  0  0
  9 10  1  0  0  0
  9 14  1  0  0  0
 10 11  1  0  0  0
 11 12  1  0  0  0
 12 13  1  0  0  0
 13 14  1  0  0  0
  1  2  1  0  0  0
  1  5  2  0  0  0
  2  3  2  0  0  0
  3  4  1  0  0  0
  4  5  1  0  0  0
  4 15  1  0  0  0
 15 16  1  0  0  0
 16 17  2  0  0  0
 16 20  1  0  0  0
 17 18  1  0  0  0
 18 19  1  0  0  0
 19 20  2  0  0  0
 19 21  1  0  0  0
 21 22  1  0  0  0
 22 23  2  0  0  0
 22 27  1  0  0  0
 23 24  1  0  0  0
 24 25  2  0  0  0
 25 26  1  0  0  0
 25 28  1  0  0  0
 26 27  2  0  0  0
M  END
> <minimizedAffinity>
-8.80170

$$$$
1114


 27 30  0  0  0  0  0  0  0  0999 V2000
   53.8375   97.3395   27.2645 C   0  0  0  0  0  0  0  0  0  0  0  0
   54.8544   98.0088   26.6937 N   0  0  0  0  0  0  0  0  0  0  0  0
   55.6853   97.1177   26.1218 C   0  0  0  0  0  0  0  0  0  0  0  0
   55.2320   95.8694   26.3082 N   0  0  0  0  0  0  0  0  0  0  0  0
   54.0955   96.0032   27.0107 C   0  0  0  0  0  0  0  0  0  0  0  0
   52.4665   98.0223   28.1479 S   0  0  0  0  0  0  0  0  0  0  0  0
   51.2920   97.1086   27.9204 O   0  0  0  0  0  0  0  0  0  0  0  0
   52.7375   98.0458   29.6176 O   0  0  0  0  0  0  0  0  0  0  0  0
   52.0667   99.5771   27.5590 N   0  0  0  0  0  0  0  0  0  0  0  0
   51.4934  100.4413   28.5224 C   0  0  0  0  0  0  0  0  0  0  0  0
   50.4320  101.3742   28.0397 C   0  0  0  0  0  0  0  0  0  0  0  0
   50.7820  101.7593   26.7249 O   0  0  0  0  0  0  0  0  0  0  0  0
   50.5068  100.6291   25.9494 C   0  0  0  0  0  0  0  0  0  0  0  0
   51.5187   99.5819   26.2519 C   0  0  0  0  0  0  0  0  0  0  0  0
   55.8475   94.6434   25.8431 C   0  0  0  0  0  0  0  0  0  0  0  0
   55.2158   94.1182   24.6110 C   0  0  0  0  0  0  0  0  0  0  0  0
   53.9767   94.4350   24.1903 N   0  0  0  0  0  0  0  0  0  0  0  0
   53.7408   93.7999   23.0823 O   0  0  0  0  0  0  0  0  0  0  0  0
   54.7650   93.0689   22.7365 C   0  0  0  0  0  0  0  0  0  0  0  0
   55.6898   93.2656   23.6900 N   0  0  0  0  0  0  0  0  0  0  0  0
   54.8407   92.2260   21.5422 C   0  0  0  0  0  0  0  0  0  0  0  0
   53.8741   92.2632   20.5589 C   0  0  0  0  0  0  0  0  0  0  0  0
   53.9602   91.4549   19.4277 C   0  0  0  0  0  0  0  0  0  0  0  0
   55.0169   90.5899   19.2524 C   0  0  0  0  0  0  0  0  0  0  0  0
   55.9845   90.5506   20.2328 C   0  0  0  0  0  0  0  0  0  0  0  0
   55.8953   91.3619   21.3668 C   0  0  0  0  0  0  0  0  0  0  0  0
   52.6088   91.5220   18.0766 Br  0  0  0  0  0  0  0  0  0  0  0  0
  6  7  2  0  0  0
  6  8  2  0  0  0
  6  9  1  0  0  0
  6  1  1  0  0  0
  9 10  1  0  0  0
  9 14  1  0  0  0
 10 11  1  0  0  0
 11 12  1  0  0  0
 12 13  1  0  0  0
 13 14  1  0  0  0
  1  2  1  0  0  0
  1  5  2  0  0  0
  2  3  2  0  0  0
  3  4  1  0  0  0
  4  5  1  0  0  0
  4 15  1  0  0  0
 15 16  1  0  0  0
 16 17  2  0  0  0
 16 20  1  0  0  0
 17 18  1  0  0  0
 18 19  1  0  0  0
 19 20  2  0  0  0
 19 21  1  0  0  0
 21 22  2  0  0  0
 21 26  1  0  0  0
 22 23  1  0  0  0
 23 24  2  0  0  0
 23 27  1  0  0  0
 24 25  1  0  0  0
 25 26  2  0  0  0
M  END
> <minimizedAffinity>
-9.19178

$$$$
1130


 29 32  0  0  0  0  0  0  0  0999 V2000
   53.1062   83.9154   22.5210 C   0  0  0  0  0  0  0  0  0  0  0  0
   53.6314   82.6909   22.3442 N   0  0  0  0  0  0  0  0  0  0  0  0
   54.0230   82.2209   21.1707 N   0  0  0  0  0  0  0  0  0  0  0  0
   53.9121   82.9685   20.0519 C   0  0  0  0  0  0  0  0  0  0  0  0
   53.3747   84.2298   20.2086 C   0  0  0  0  0  0  0  0  0  0  0  0
   53.3653   84.7766   18.9765 N   0  0  0  0  0  0  0  0  0  0  0  0
   53.8661   83.9269   18.0653 C   0  0  0  0  0  0  0  0  0  0  0  0
   54.2224   82.7662   18.7177 C   0  0  0  0  0  0  0  0  0  0  0  0
   54.7767   81.6774   18.0618 C   0  0  0  0  0  0  0  0  0  0  0  0
   54.9626   81.7986   16.6959 C   0  0  0  0  0  0  0  0  0  0  0  0
   54.6133   82.9487   16.0180 C   0  0  0  0  0  0  0  0  0  0  0  0
   54.0661   84.0160   16.6883 C   0  0  0  0  0  0  0  0  0  0  0  0
   55.7264   80.2963   15.7908 Br  0  0  0  0  0  0  0  0  0  0  0  0
   52.8703   86.1126   18.7086 C   0  0  0  0  0  0  0  0  0  0  0  0
   52.9776   84.6917   21.4316 N   0  0  0  0  0  0  0  0  0  0  0  0
   52.5946   84.4873   24.1548 S   0  0  0  0  0  0  0  0  0  0  0  0
   53.8688   83.9956   25.3469 C   0  0  0  0  0  0  0  0  0  0  0  0
   54.7168   85.1848   25.6484 C   0  0  0  0  0  0  0  0  0  0  0  0
   54.6295   85.7820   26.7682 O   0  0  0  0  0  0  0  0  0  0  0  0
   55.6408   85.6902   24.7105 N   0  0  0  0  0  0  0  0  0  0  0  0
   55.7230   85.2117   23.7880 H   0  0  0  0  0  0  0  0  0  0  0  0
   56.4459   86.8186   24.9987 C   0  0  0  0  0  0  0  0  0  0  0  0
   57.7799   86.8686   25.1485 N   0  0  0  0  0  0  0  0  0  0  0  0
   58.1634   88.0882   25.4086 O   0  0  0  0  0  0  0  0  0  0  0  0
   57.1098   88.8315   25.4314 N   0  0  0  0  0  0  0  0  0  0  0  0
   56.0005   88.1223   25.1874 C   0  0  0  0  0  0  0  0  0  0  0  0
   54.6800   88.6187   25.1379 N   0  0  0  0  0  0  0  0  0  0  0  0
   53.9945   88.1775   24.4967 H   0  0  0  0  0  0  0  0  0  0  0  0
   54.3575   89.4163   25.7225 H   0  0  0  0  0  0  0  0  0  0  0  0
 16 17  1  0  0  0
 16  1  1  0  0  0
 17 18  1  0  0  0
 18 19  2  0  0  0
 18 20  1  0  0  0
 20 22  1  0  0  0
 22 23  2  0  0  0
 22 26  1  0  0  0
 23 24  1  0  0  0
 24 25  1  0  0  0
 25 26  2  0  0  0
 26 27  1  0  0  0
  1  2  2  0  0  0
  1 15  1  0  0  0
  2  3  1  0  0  0
  3  4  2  0  0  0
  4  5  1  0  0  0
  4  8  1  0  0  0
  5  6  1  0  0  0
  5 15  2  0  0  0
  6  7  1  0  0  0
  6 14  1  0  0  0
  7  8  2  0  0  0
  7 12  1  0  0  0
  8  9  1  0  0  0
  9 10  2  0  0  0
 10 11  1  0  0  0
 10 13  1  0  0  0
 11 12  2  0  0  0
 20 21  1  0  0  0
 27 28  1  0  0  0
 27 29  1  0  0  0
M  END
> <minimizedAffinity>
-8.83845

$$$$
1133


 35 38  0  0  0  0  0  0  0  0999 V2000
   53.8100   87.3055   20.3475 C   0  0  0  0  0  0  0  0  0  0  0  0
   54.3859   86.2451   20.9139 N   0  0  0  0  0  0  0  0  0  0  0  0
   55.2521   86.7218   21.8467 C   0  0  0  0  0  0  0  0  0  0  0  0
   56.1674   86.2237   22.6924 N   0  0  0  0  0  0  0  0  0  0  0  0
   56.9689   86.9382   23.4894 C   0  0  0  0  0  0  0  0  0  0  0  0
   56.8461   88.3207   23.4561 N   0  0  0  0  0  0  0  0  0  0  0  0
   55.9799   88.8967   22.6602 C   0  0  0  0  0  0  0  0  0  0  0  0
   55.1677   88.1408   21.8391 C   0  0  0  0  0  0  0  0  0  0  0  0
   54.2754   88.4345   20.9014 N   0  0  0  0  0  0  0  0  0  0  0  0
   55.8117   90.2571   22.5949 O   0  0  0  0  0  0  0  0  0  0  0  0
   57.9767   86.3888   24.3518 N   0  0  0  0  0  0  0  0  0  0  0  0
   54.9769   90.7374   22.9110 H   0  0  0  0  0  0  0  0  0  0  0  0
   57.9586   86.3499   25.3687 H   0  0  0  0  0  0  0  0  0  0  0  0
   58.8667   86.0097   23.8738 H   0  0  0  0  0  0  0  0  0  0  0  0
   54.1814   84.8488   20.7001 C   0  0  0  0  0  0  0  0  0  0  0  0
   54.1753   84.4703   19.3394 O   0  0  0  0  0  0  0  0  0  0  0  0
   53.7790   83.1211   19.4865 C   0  0  0  0  0  0  0  0  0  0  0  0
   52.4261   83.3800   20.1995 C   0  0  0  0  0  0  0  0  0  0  0  0
   52.9768   84.2413   21.3436 C   0  0  0  0  0  0  0  0  0  0  0  0
   53.3427   83.3464   22.3816 O   0  0  0  0  0  0  0  0  0  0  0  0
   51.8320   82.2263   20.6339 O   0  0  0  0  0  0  0  0  0  0  0  0
   52.4943   83.1488   22.8374 H   0  0  0  0  0  0  0  0  0  0  0  0
   50.8591   82.2611   20.4705 H   0  0  0  0  0  0  0  0  0  0  0  0
   53.6071   82.4369   18.1840 C   0  0  0  0  0  0  0  0  0  0  0  0
   52.4104   82.8302   17.5723 O   0  0  0  0  0  0  0  0  0  0  0  0
   51.9003   83.3746   18.2474 H   0  0  0  0  0  0  0  0  0  0  0  0
   52.6511   87.2727   18.9733 S   0  0  0  0  0  0  0  0  0  0  0  0
   51.9062   88.9430   18.7206 C   0  0  0  0  0  0  0  0  0  0  0  0
   52.8556   89.8009   17.9755 C   0  0  0  0  0  0  0  0  0  0  0  0
   52.6709   91.1421   17.7457 C   0  0  0  0  0  0  0  0  0  0  0  0
   53.4926   91.8585   16.9465 C   0  0  0  0  0  0  0  0  0  0  0  0
   54.5837   91.2733   16.3145 C   0  0  0  0  0  0  0  0  0  0  0  0
   54.8002   89.9043   16.5248 C   0  0  0  0  0  0  0  0  0  0  0  0
   53.9506   89.1833   17.3413 C   0  0  0  0  0  0  0  0  0  0  0  0
   51.2579   91.9683   18.7351 Br  0  0  0  0  0  0  0  0  0  0  0  0
 27 28  1  0  0  0
 27  1  1  0  0  0
 28 29  1  0  0  0
 29 30  2  0  0  0
 29 34  1  0  0  0
 30 31  1  0  0  0
 30 35  1  0  0  0
 31 32  2  0  0  0
 32 33  1  0  0  0
 33 34  2  0  0  0
  1  2  1  0  0  0
  1  9  2  0  0  0
  2  3  1  0  0  0
  2 15  1  0  0  0
  3  4  2  0  0  0
  3  8  1  0  0  0
  4  5  1  0  0  0
  5  6  2  0  0  0
  5 11  1  0  0  0
  6  7  1  0  0  0
  7  8  2  0  0  0
  7 10  1  0  0  0
  8  9  1  0  0  0
 15 16  1  0  0  0
 15 19  1  0  0  0
 16 17  1  0  0  0
 17 18  1  0  0  0
 17 24  1  0  0  0
 18 19  1  0  0  0
 18 21  1  0  0  0
 19 20  1  0  0  0
 24 25  1  0  0  0
 10 12  1  0  0  0
 11 13  1  0  0  0
 11 14  1  0  0  0
 20 22  1  0  0  0
 21 23  1  0  0  0
 25 26  1  0  0  0
M  END
> <minimizedAffinity>
-10.01917

$$$$
1143


 33 37  0  0  0  0  0  0  0  0999 V2000
   51.5842   82.6973   28.2714 C   0  0  0  0  0  0  0  0  0  0  0  0
   52.1209   82.2370   29.5448 N   0  0  0  0  0  0  0  0  0  0  0  0
   52.5399   80.8501   29.4370 C   0  0  0  0  0  0  0  0  0  0  0  0
   52.0413   80.1502   28.1998 C   0  0  0  0  0  0  0  0  0  0  0  0
   50.6041   80.5481   27.9861 C   0  0  0  0  0  0  0  0  0  0  0  0
   50.3638   81.9415   28.0500 C   0  0  0  0  0  0  0  0  0  0  0  0
   49.0883   82.4082   27.8938 C   0  0  0  0  0  0  0  0  0  0  0  0
   48.0774   81.4755   27.6731 C   0  0  0  0  0  0  0  0  0  0  0  0
   48.3361   80.1266   27.6133 C   0  0  0  0  0  0  0  0  0  0  0  0
   49.6201   79.6389   27.7710 C   0  0  0  0  0  0  0  0  0  0  0  0
   47.1474   79.4647   27.3848 O   0  0  0  0  0  0  0  0  0  0  0  0
   46.0850   80.3643   27.5846 C   0  0  0  0  0  0  0  0  0  0  0  0
   46.7314   81.6330   27.4826 O   0  0  0  0  0  0  0  0  0  0  0  0
   51.2296   82.3546   30.6471 C   0  0  0  0  0  0  0  0  0  0  0  0
   52.9724   82.8064   29.7327 H   0  0  0  0  0  0  0  0  0  0  0  0
   55.6117   83.0707   25.9119 S   0  0  0  0  0  0  0  0  0  0  0  0
   54.1746   83.7559   26.7221 C   0  0  0  0  0  0  0  0  0  0  0  0
   54.1400   83.9894   27.9836 N   0  0  0  0  0  0  0  0  0  0  0  0
   53.0384   84.5309   28.6932 C   0  0  0  0  0  0  0  0  0  0  0  0
   53.1397   85.2494   29.6912 O   0  0  0  0  0  0  0  0  0  0  0  0
   51.6646   84.1424   28.1045 C   0  0  0  0  0  0  0  0  0  0  0  0
   51.8443   84.6144   26.6979 C   0  0  0  0  0  0  0  0  0  0  0  0
   51.1217   85.4137   26.0998 O   0  0  0  0  0  0  0  0  0  0  0  0
   52.9618   84.0797   26.0041 N   0  0  0  0  0  0  0  0  0  0  0  0
   52.8784   83.8746   24.6236 C   0  0  0  0  0  0  0  0  0  0  0  0
   52.2280   82.7168   24.1794 C   0  0  0  0  0  0  0  0  0  0  0  0
   52.1057   82.4465   22.8335 C   0  0  0  0  0  0  0  0  0  0  0  0
   52.6383   83.3391   21.9086 C   0  0  0  0  0  0  0  0  0  0  0  0
   53.2867   84.4948   22.3627 C   0  0  0  0  0  0  0  0  0  0  0  0
   53.3988   84.7478   23.7092 C   0  0  0  0  0  0  0  0  0  0  0  0
   52.4923   83.0063   20.0567 Br  0  0  0  0  0  0  0  0  0  0  0  0
   48.7941   83.7631   27.9558 O   0  0  0  0  0  0  0  0  0  0  0  0
   48.2985   84.3027   29.1762 C   0  0  0  0  0  0  0  0  0  0  0  0
 16 17  1  0  0  0
 17 18  2  0  0  0
 17 24  1  0  0  0
 18 19  1  0  0  0
 19 20  2  0  0  0
 19 21  1  0  0  0
 21 22  1  0  0  0
 21  1  1  0  0  0
 22 23  2  0  0  0
 22 24  1  0  0  0
 24 25  1  0  0  0
 25 26  2  0  0  0
 25 30  1  0  0  0
 26 27  1  0  0  0
 27 28  2  0  0  0
 28 29  1  0  0  0
 28 31  1  0  0  0
 29 30  2  0  0  0
  1  2  1  0  0  0
  1  6  1  0  0  0
  2  3  1  0  0  0
  2 14  1  0  0  0
  3  4  1  0  0  0
  4  5  1  0  0  0
  5  6  2  0  0  0
  5 10  1  0  0  0
  6  7  1  0  0  0
  7  8  2  0  0  0
  7 32  1  0  0  0
  8  9  1  0  0  0
  8 13  1  0  0  0
  9 10  2  0  0  0
  9 11  1  0  0  0
 11 12  1  0  0  0
 12 13  1  0  0  0
 32 33  1  0  0  0
  2 15  1  0  0  0
M  CHG 1   2   1
M  END
> <minimizedAffinity>
-6.49732

$$$$
1151


 24 27  0  0  0  0  0  0  0  0999 V2000
   49.8131   85.1158   30.1421 S   0  0  0  0  0  0  0  0  0  0  0  0
   49.6973   86.1591   31.2150 O   0  0  0  0  0  0  0  0  0  0  0  0
   48.4974   84.4381   29.8784 O   0  0  0  0  0  0  0  0  0  0  0  0
   50.4543   85.8065   28.6321 C   0  0  0  0  0  0  0  0  0  0  0  0
   51.1216   84.6593   27.9018 C   0  0  0  0  0  0  0  0  0  0  0  0
   52.3234   84.2861   28.6202 N   0  0  0  0  0  0  0  0  0  0  0  0
   52.3542   84.3110   30.0676 C   0  0  0  0  0  0  0  0  0  0  0  0
   51.0026   83.8545   30.6209 C   0  0  0  0  0  0  0  0  0  0  0  0
   53.2710   83.9562   27.6129 C   0  0  0  0  0  0  0  0  0  0  0  0
   54.3760   83.3411   27.7944 O   0  0  0  0  0  0  0  0  0  0  0  0
   52.8270   84.4038   26.3389 N   0  0  0  0  0  0  0  0  0  0  0  0
   51.5717   85.0306   26.5565 C   0  0  0  0  0  0  0  0  0  0  0  0
   50.9404   85.7763   25.7510 O   0  0  0  0  0  0  0  0  0  0  0  0
   53.4983   84.2650   25.0553 C   0  0  0  0  0  0  0  0  0  0  0  0
   52.5157   83.8937   23.9583 C   0  0  0  0  0  0  0  0  0  0  0  0
   53.3562   83.6842   22.6969 C   0  0  0  0  0  0  0  0  0  0  0  0
   53.8792   84.9563   22.3587 O   0  0  0  0  0  0  0  0  0  0  0  0
   54.2979   85.8378   23.3489 C   0  0  0  0  0  0  0  0  0  0  0  0
   54.1310   85.5408   24.6716 C   0  0  0  0  0  0  0  0  0  0  0  0
   54.5424   86.4075   25.6457 C   0  0  0  0  0  0  0  0  0  0  0  0
   55.1296   87.5915   25.2694 C   0  0  0  0  0  0  0  0  0  0  0  0
   55.2910   87.8763   23.9371 C   0  0  0  0  0  0  0  0  0  0  0  0
   54.8853   87.0213   22.9282 C   0  0  0  0  0  0  0  0  0  0  0  0
   55.1146   87.4281   21.0857 Br  0  0  0  0  0  0  0  0  0  0  0  0
  1  2  2  0  0  0
  1  3  2  0  0  0
  1  4  1  0  0  0
  1  8  1  0  0  0
  4  5  1  0  0  0
  5  6  1  0  0  0
  5 12  1  0  0  0
  6  7  1  0  0  0
  6  9  1  0  0  0
  7  8  1  0  0  0
  9 10  2  0  0  0
  9 11  1  0  0  0
 11 12  1  0  0  0
 11 14  1  0  0  0
 12 13  2  0  0  0
 14 15  1  0  0  0
 14 19  1  0  0  0
 15 16  1  0  0  0
 16 17  1  0  0  0
 17 18  1  0  0  0
 18 19  2  0  0  0
 18 23  1  0  0  0
 19 20  1  0  0  0
 20 21  2  0  0  0
 21 22  1  0  0  0
 22 23  2  0  0  0
 23 24  1  0  0  0
M  END
> <minimizedAffinity>
-7.65127

$$$$
1157


 24 27  0  0  0  0  0  0  0  0999 V2000
   56.2751   88.8726   21.9895 C   0  0  0  0  0  0  0  0  0  0  0  0
   56.4648   87.4134   21.6622 C   0  0  0  0  0  0  0  0  0  0  0  0
   55.1781   86.8552   22.0503 N   0  0  0  0  0  0  0  0  0  0  0  0
   54.8956   87.4202   23.3482 C   0  0  0  0  0  0  0  0  0  0  0  0
   55.5570   88.7851   23.3192 C   0  0  0  0  0  0  0  0  0  0  0  0
   54.3994   85.9385   21.2647 C   0  0  0  0  0  0  0  0  0  0  0  0
   54.4710   84.6102   21.4723 N   0  0  0  0  0  0  0  0  0  0  0  0
   53.7309   83.7770   20.7203 C   0  0  0  0  0  0  0  0  0  0  0  0
   52.8936   84.2341   19.7352 C   0  0  0  0  0  0  0  0  0  0  0  0
   52.8099   85.5572   19.5157 N   0  0  0  0  0  0  0  0  0  0  0  0
   53.5565   86.3831   20.2748 C   0  0  0  0  0  0  0  0  0  0  0  0
   53.2646   87.6203   19.8289 N   0  0  0  0  0  0  0  0  0  0  0  0
   52.3836   87.5753   18.8441 N   0  0  0  0  0  0  0  0  0  0  0  0
   52.0842   86.2829   18.6315 C   0  0  0  0  0  0  0  0  0  0  0  0
   55.8264   90.0835   19.8395 C   0  0  0  0  0  0  0  0  0  0  0  0
   57.0304   90.0601   19.4834 O   0  0  0  0  0  0  0  0  0  0  0  0
   55.3699   89.5235   21.0540 N   0  0  0  0  0  0  0  0  0  0  0  0
   54.3505   89.5887   21.2699 H   0  0  0  0  0  0  0  0  0  0  0  0
   55.1537   91.2793   17.3029 S   0  0  0  0  0  0  0  0  0  0  0  0
   54.8903   90.7423   18.9003 C   0  0  0  0  0  0  0  0  0  0  0  0
   53.5771   91.0700   19.1171 C   0  0  0  0  0  0  0  0  0  0  0  0
   52.9140   91.6643   18.1229 C   0  0  0  0  0  0  0  0  0  0  0  0
   53.6037   91.8993   16.9612 C   0  0  0  0  0  0  0  0  0  0  0  0
   51.0542   92.2035   18.2382 Br  0  0  0  0  0  0  0  0  0  0  0  0
 19 20  1  0  0  0
 19 23  1  0  0  0
 20 21  2  0  0  0
 20 15  1  0  0  0
 21 22  1  0  0  0
 22 23  2  0  0  0
 22 24  1  0  0  0
 15 16  2  0  0  0
 15 17  1  0  0  0
 17  1  1  0  0  0
  1  2  1  0  0  0
  1  5  1  0  0  0
  2  3  1  0  0  0
  3  4  1  0  0  0
  3  6  1  0  0  0
  4  5  1  0  0  0
  6  7  2  0  0  0
  6 11  1  0  0  0
  7  8  1  0  0  0
  8  9  2  0  0  0
  9 10  1  0  0  0
 10 11  1  0  0  0
 10 14  1  0  0  0
 11 12  2  0  0  0
 12 13  1  0  0  0
 13 14  2  0  0  0
 17 18  1  0  0  0
M  END
> <minimizedAffinity>
-8.06125

$$$$
1160


 25 28  0  0  0  0  0  0  0  0999 V2000
   51.4454   98.8590   28.2429 C   0  0  0  0  0  0  0  0  0  0  0  0
   52.0552   98.3659   27.1497 N   0  0  0  0  0  0  0  0  0  0  0  0
   53.1587   97.6839   27.5017 C   0  0  0  0  0  0  0  0  0  0  0  0
   53.2090   97.7724   28.8414 N   0  0  0  0  0  0  0  0  0  0  0  0
   52.1806   98.4754   29.2595 O   0  0  0  0  0  0  0  0  0  0  0  0
   54.1139   96.9885   26.6389 C   0  0  0  0  0  0  0  0  0  0  0  0
   55.4106   97.3013   26.4769 N   0  0  0  0  0  0  0  0  0  0  0  0
   55.9823   96.4544   25.6141 N   0  0  0  0  0  0  0  0  0  0  0  0
   55.0414   95.5732   25.2065 C   0  0  0  0  0  0  0  0  0  0  0  0
   53.9025   95.9228   25.8491 N   0  0  0  0  0  0  0  0  0  0  0  0
   57.3705   96.4695   25.1844 C   0  0  0  0  0  0  0  0  0  0  0  0
   57.7850   97.8735   24.9778 C   0  0  0  0  0  0  0  0  0  0  0  0
   58.0364   98.2598   23.8154 O   0  0  0  0  0  0  0  0  0  0  0  0
   57.8898   98.7510   26.0821 N   0  0  0  0  0  0  0  0  0  0  0  0
   57.5244   99.7423   26.0411 H   0  0  0  0  0  0  0  0  0  0  0  0
   58.3253   98.4875   26.9990 H   0  0  0  0  0  0  0  0  0  0  0  0
   50.4388  101.1627   28.6041 C   0  0  0  0  0  0  0  0  0  0  0  0
   50.1847   99.6798   28.2994 C   0  0  0  0  0  0  0  0  0  0  0  0
   49.9613  100.7372   27.2867 C   0  0  0  0  0  0  0  0  0  0  0  0
   47.4028  102.6142   30.5716 S   0  0  0  0  0  0  0  0  0  0  0  0
   48.7418  102.5847   31.6169 C   0  0  0  0  0  0  0  0  0  0  0  0
   49.7423  102.0628   30.8395 C   0  0  0  0  0  0  0  0  0  0  0  0
   49.4179  101.7428   29.5659 C   0  0  0  0  0  0  0  0  0  0  0  0
   48.1286  101.9693   29.1747 C   0  0  0  0  0  0  0  0  0  0  0  0
   48.8695  103.1416   33.4612 Br  0  0  0  0  0  0  0  0  0  0  0  0
 20 21  1  0  0  0
 20 24  1  0  0  0
 21 22  2  0  0  0
 21 25  1  0  0  0
 22 23  1  0  0  0
 23 24  2  0  0  0
 23 17  1  0  0  0
 17 18  1  0  0  0
 17 19  1  0  0  0
 18 19  1  0  0  0
 18  1  1  0  0  0
  1  2  2  0  0  0
  1  5  1  0  0  0
  2  3  1  0  0  0
  3  4  2  0  0  0
  3  6  1  0  0  0
  4  5  1  0  0  0
  6  7  2  0  0  0
  6 10  1  0  0  0
  7  8  1  0  0  0
  8  9  1  0  0  0
  8 11  1  0  0  0
  9 10  2  0  0  0
 11 12  1  0  0  0
 12 13  2  0  0  0
 12 14  1  0  0  0
 14 15  1  0  0  0
 14 16  1  0  0  0
M  END
> <minimizedAffinity>
-8.21563

$$$$
1161


 29 32  0  0  0  0  0  0  0  0999 V2000
   50.4740   99.8751   27.4984 N   0  0  0  0  0  0  0  0  0  0  0  0
   49.6416   98.8987   27.9319 C   0  0  0  0  0  0  0  0  0  0  0  0
   48.5507   99.4549   28.5282 C   0  0  0  0  0  0  0  0  0  0  0  0
   47.5524   98.6535   29.0516 C   0  0  0  0  0  0  0  0  0  0  0  0
   47.6767   97.2861   28.9612 C   0  0  0  0  0  0  0  0  0  0  0  0
   48.7646   96.7014   28.3651 C   0  0  0  0  0  0  0  0  0  0  0  0
   49.7410   97.5276   27.8543 C   0  0  0  0  0  0  0  0  0  0  0  0
   48.7139  100.7799   28.4638 N   0  0  0  0  0  0  0  0  0  0  0  0
   49.8958  101.0322   27.8315 C   0  0  0  0  0  0  0  0  0  0  0  0
   50.2887  102.2385   27.6542 N   0  0  0  0  0  0  0  0  0  0  0  0
   51.1426  102.5764   27.2143 H   0  0  0  0  0  0  0  0  0  0  0  0
   51.7234   99.6383   26.8197 C   0  0  0  0  0  0  0  0  0  0  0  0
   52.7432   99.0529   27.7240 C   0  0  0  0  0  0  0  0  0  0  0  0
   52.9293   99.5159   28.8763 O   0  0  0  0  0  0  0  0  0  0  0  0
   53.1505   96.2801   27.0477 S   0  0  0  0  0  0  0  0  0  0  0  0
   54.6752   95.6527   26.6348 C   0  0  0  0  0  0  0  0  0  0  0  0
   55.4869   96.7499   26.7208 C   0  0  0  0  0  0  0  0  0  0  0  0
   54.9271   97.9099   27.0707 C   0  0  0  0  0  0  0  0  0  0  0  0
   53.5775   97.9159   27.3190 C   0  0  0  0  0  0  0  0  0  0  0  0
   55.1122   93.8555   26.1687 Br  0  0  0  0  0  0  0  0  0  0  0  0
   47.7643  101.7578   28.9764 C   0  0  0  0  0  0  0  0  0  0  0  0
   48.0510  101.9647   30.4715 C   0  0  0  0  0  0  0  0  0  0  0  0
   48.0292  103.3521   30.8352 N   0  0  0  0  0  0  0  0  0  0  0  0
   47.4664  103.6102   32.1454 C   0  0  0  0  0  0  0  0  0  0  0  0
   48.1065  102.7641   33.2093 C   0  0  0  0  0  0  0  0  0  0  0  0
   49.5972  102.7723   33.1550 C   0  0  0  0  0  0  0  0  0  0  0  0
   50.1987  103.0254   31.8192 C   0  0  0  0  0  0  0  0  0  0  0  0
   49.3877  103.8365   30.8724 C   0  0  0  0  0  0  0  0  0  0  0  0
   47.4463  103.8965   30.1631 H   0  0  0  0  0  0  0  0  0  0  0  0
 15 16  1  0  0  0
 15 19  1  0  0  0
 16 17  2  0  0  0
 16 20  1  0  0  0
 17 18  1  0  0  0
 18 19  2  0  0  0
 19 13  1  0  0  0
 13 14  2  0  0  0
 13 12  1  0  0  0
 12  1  1  0  0  0
  1  2  1  0  0  0
  1  9  1  0  0  0
  2  3  1  0  0  0
  2  7  2  0  0  0
  3  4  2  0  0  0
  3  8  1  0  0  0
  4  5  1  0  0  0
  5  6  2  0  0  0
  6  7  1  0  0  0
  8  9  1  0  0  0
  8 21  1  0  0  0
  9 10  2  0  0  0
 21 22  1  0  0  0
 22 23  1  0  0  0
 23 24  1  0  0  0
 23 28  1  0  0  0
 24 25  1  0  0  0
 25 26  1  0  0  0
 26 27  1  0  0  0
 27 28  1  0  0  0
 10 11  1  0  0  0
 23 29  1  0  0  0
M  CHG 1  23   1
M  END
> <minimizedAffinity>
-8.76286

$$$$
1177


 33 36  0  0  0  0  0  0  0  0999 V2000
   54.7494   88.1460   21.2430 C   0  0  0  0  0  0  0  0  0  0  0  0
   53.9712   87.1514   20.8616 C   0  0  0  0  0  0  0  0  0  0  0  0
   52.9024   87.1550   19.8083 C   0  0  0  0  0  0  0  0  0  0  0  0
   52.9409   85.8272   19.2798 N   0  0  0  0  0  0  0  0  0  0  0  0
   53.2756   84.9950   20.4253 C   0  0  0  0  0  0  0  0  0  0  0  0
   53.0166   83.7618   20.4736 O   0  0  0  0  0  0  0  0  0  0  0  0
   53.9240   85.8126   21.4346 C   0  0  0  0  0  0  0  0  0  0  0  0
   54.3567   85.4418   22.5762 O   0  0  0  0  0  0  0  0  0  0  0  0
   54.6004   89.4069   20.6211 O   0  0  0  0  0  0  0  0  0  0  0  0
   55.7352   88.6552   23.8550 S   0  0  0  0  0  0  0  0  0  0  0  0
   57.2172   88.0375   24.4308 C   0  0  0  0  0  0  0  0  0  0  0  0
   57.6469   87.3361   23.3990 N   0  0  0  0  0  0  0  0  0  0  0  0
   56.9385   87.2771   22.3101 C   0  0  0  0  0  0  0  0  0  0  0  0
   55.7516   87.9615   22.2903 C   0  0  0  0  0  0  0  0  0  0  0  0
   57.4601   86.5009   21.1076 C   0  0  0  0  0  0  0  0  0  0  0  0
   57.8740   88.2401   25.7766 C   0  0  0  0  0  0  0  0  0  0  0  0
   53.0671   88.2563   18.8687 C   0  0  0  0  0  0  0  0  0  0  0  0
   52.2087   89.3597   18.9960 C   0  0  0  0  0  0  0  0  0  0  0  0
   52.2812   90.4661   18.1886 C   0  0  0  0  0  0  0  0  0  0  0  0
   53.2325   90.5215   17.2000 C   0  0  0  0  0  0  0  0  0  0  0  0
   54.0995   89.4512   17.0440 C   0  0  0  0  0  0  0  0  0  0  0  0
   53.9967   88.3554   17.8745 C   0  0  0  0  0  0  0  0  0  0  0  0
   51.0995   91.9539   18.3845 Br  0  0  0  0  0  0  0  0  0  0  0  0
   52.6608   85.3137   17.9716 C   0  0  0  0  0  0  0  0  0  0  0  0
   53.7374   84.4953   17.3361 C   0  0  0  0  0  0  0  0  0  0  0  0
   53.2823   83.0381   17.1623 C   0  0  0  0  0  0  0  0  0  0  0  0
   52.7651   82.8859   15.8444 N   0  0  0  0  0  0  0  0  0  0  0  0
   53.6984   83.0444   14.7752 C   0  0  0  0  0  0  0  0  0  0  0  0
   54.6181   81.8595   14.5987 C   0  0  0  0  0  0  0  0  0  0  0  0
   54.3022   80.9423   15.6261 O   0  0  0  0  0  0  0  0  0  0  0  0
   53.0033   80.4914   15.3165 C   0  0  0  0  0  0  0  0  0  0  0  0
   52.0647   81.6271   15.6680 C   0  0  0  0  0  0  0  0  0  0  0  0
   52.0247   83.6398   15.7137 H   0  0  0  0  0  0  0  0  0  0  0  0
 10 11  1  0  0  0
 10 14  1  0  0  0
 11 12  2  0  0  0
 11 16  1  0  0  0
 12 13  1  0  0  0
 13 14  2  0  0  0
 13 15  1  0  0  0
 14  1  1  0  0  0
  1  2  2  0  0  0
  1  9  1  0  0  0
  2  3  1  0  0  0
  2  7  1  0  0  0
  3  4  1  0  0  0
  3 17  1  0  0  0
  4  5  1  0  0  0
  4 24  1  0  0  0
  5  6  2  0  0  0
  5  7  1  0  0  0
  7  8  2  0  0  0
 24 25  1  0  0  0
 25 26  1  0  0  0
 26 27  1  0  0  0
 27 28  1  0  0  0
 27 32  1  0  0  0
 28 29  1  0  0  0
 29 30  1  0  0  0
 30 31  1  0  0  0
 31 32  1  0  0  0
 17 18  2  0  0  0
 17 22  1  0  0  0
 18 19  1  0  0  0
 19 20  2  0  0  0
 19 23  1  0  0  0
 20 21  1  0  0  0
 21 22  2  0  0  0
 27 33  1  0  0  0
M  CHG 1   9  -1
M  CHG 1  27   1
M  END
> <minimizedAffinity>
-8.40125

$$$$
1178


 33 36  0  0  0  0  0  0  0  0999 V2000
   52.3010   83.0087   21.8159 C   0  0  0  0  0  0  0  0  0  0  0  0
   52.8438   84.1079   22.2490 C   0  0  0  0  0  0  0  0  0  0  0  0
   53.2979   85.2447   21.3882 C   0  0  0  0  0  0  0  0  0  0  0  0
   54.4374   85.7475   22.1084 N   0  0  0  0  0  0  0  0  0  0  0  0
   54.1134   85.5808   23.4954 C   0  0  0  0  0  0  0  0  0  0  0  0
   54.6099   86.2137   24.4446 O   0  0  0  0  0  0  0  0  0  0  0  0
   53.0984   84.5436   23.6160 C   0  0  0  0  0  0  0  0  0  0  0  0
   52.5147   84.0713   24.6293 O   0  0  0  0  0  0  0  0  0  0  0  0
   52.1000   82.8376   20.4356 O   0  0  0  0  0  0  0  0  0  0  0  0
   50.4294   81.7615   23.6260 S   0  0  0  0  0  0  0  0  0  0  0  0
   50.7636   80.2779   24.3936 C   0  0  0  0  0  0  0  0  0  0  0  0
   51.9718   79.9946   23.9512 N   0  0  0  0  0  0  0  0  0  0  0  0
   52.5690   80.8051   23.1319 C   0  0  0  0  0  0  0  0  0  0  0  0
   51.8956   81.9433   22.7591 C   0  0  0  0  0  0  0  0  0  0  0  0
   53.9501   80.4879   22.5646 C   0  0  0  0  0  0  0  0  0  0  0  0
   49.9232   79.4645   25.3408 C   0  0  0  0  0  0  0  0  0  0  0  0
   53.5586   84.7931   20.0133 C   0  0  0  0  0  0  0  0  0  0  0  0
   54.4470   83.8275   19.6268 C   0  0  0  0  0  0  0  0  0  0  0  0
   54.6642   83.4365   18.3250 C   0  0  0  0  0  0  0  0  0  0  0  0
   53.9468   84.0485   17.3286 C   0  0  0  0  0  0  0  0  0  0  0  0
   53.0414   85.0247   17.6517 C   0  0  0  0  0  0  0  0  0  0  0  0
   52.8484   85.3913   18.9635 C   0  0  0  0  0  0  0  0  0  0  0  0
   54.2506   83.5004   15.5170 Br  0  0  0  0  0  0  0  0  0  0  0  0
   55.6133   86.3091   21.5137 C   0  0  0  0  0  0  0  0  0  0  0  0
   55.7518   87.7692   21.6349 C   0  0  0  0  0  0  0  0  0  0  0  0
   54.9813   88.6087   20.7544 C   0  0  0  0  0  0  0  0  0  0  0  0
   55.3660   89.7303   20.0383 N   0  0  0  0  0  0  0  0  0  0  0  0
   56.0317   90.7382   20.9445 C   0  0  0  0  0  0  0  0  0  0  0  0
   54.9815   91.4948   21.6885 C   0  0  0  0  0  0  0  0  0  0  0  0
   54.3071   92.2840   20.7636 O   0  0  0  0  0  0  0  0  0  0  0  0
   53.5521   91.3799   19.9828 C   0  0  0  0  0  0  0  0  0  0  0  0
   54.4555   90.4517   19.2193 C   0  0  0  0  0  0  0  0  0  0  0  0
   56.1729   89.4925   19.4121 H   0  0  0  0  0  0  0  0  0  0  0  0
 10 11  1  0  0  0
 10 14  1  0  0  0
 11 12  2  0  0  0
 11 16  1  0  0  0
 12 13  1  0  0  0
 13 14  2  0  0  0
 13 15  1  0  0  0
 14  1  1  0  0  0
  1  2  2  0  0  0
  1  9  1  0  0  0
  2  3  1  0  0  0
  2  7  1  0  0  0
  3  4  1  0  0  0
  3 17  1  0  0  0
  4  5  1  0  0  0
  4 24  1  0  0  0
  5  6  2  0  0  0
  5  7  1  0  0  0
  7  8  2  0  0  0
 24 25  1  0  0  0
 25 26  1  0  0  0
 26 27  1  0  0  0
 27 28  1  0  0  0
 27 32  1  0  0  0
 28 29  1  0  0  0
 29 30  1  0  0  0
 30 31  1  0  0  0
 31 32  1  0  0  0
 17 18  2  0  0  0
 17 22  1  0  0  0
 18 19  1  0  0  0
 19 20  2  0  0  0
 20 21  1  0  0  0
 20 23  1  0  0  0
 21 22  2  0  0  0
 27 33  1  0  0  0
M  CHG 1   9  -1
M  CHG 1  27   1
M  END
> <minimizedAffinity>
-7.44388

$$$$
1180


 32 35  0  0  0  0  0  0  0  0999 V2000
   53.4304   84.6179   22.3397 C   0  0  0  0  0  0  0  0  0  0  0  0
   53.6215   85.3201   21.2429 C   0  0  0  0  0  0  0  0  0  0  0  0
   54.6083   86.4111   20.9778 C   0  0  0  0  0  0  0  0  0  0  0  0
   53.7870   87.3656   20.3402 N   0  0  0  0  0  0  0  0  0  0  0  0
   53.0681   86.5369   19.3448 C   0  0  0  0  0  0  0  0  0  0  0  0
   52.6361   86.9060   18.2201 O   0  0  0  0  0  0  0  0  0  0  0  0
   52.9645   85.2094   19.9410 C   0  0  0  0  0  0  0  0  0  0  0  0
   52.4374   84.1463   19.4888 O   0  0  0  0  0  0  0  0  0  0  0  0
   54.2129   84.8507   23.4566 O   0  0  0  0  0  0  0  0  0  0  0  0
   50.6933   83.7783   22.6781 S   0  0  0  0  0  0  0  0  0  0  0  0
   50.1797   82.1934   22.3336 C   0  0  0  0  0  0  0  0  0  0  0  0
   51.2990   81.6111   21.9520 N   0  0  0  0  0  0  0  0  0  0  0  0
   52.4078   82.2827   21.9245 C   0  0  0  0  0  0  0  0  0  0  0  0
   52.3662   83.6033   22.3043 C   0  0  0  0  0  0  0  0  0  0  0  0
   53.7016   81.6409   21.4449 C   0  0  0  0  0  0  0  0  0  0  0  0
   48.8007   81.6001   22.4383 C   0  0  0  0  0  0  0  0  0  0  0  0
   55.5731   86.6869   21.9852 C   0  0  0  0  0  0  0  0  0  0  0  0
   55.1955   87.4475   23.0956 C   0  0  0  0  0  0  0  0  0  0  0  0
   56.0668   87.7733   24.1021 C   0  0  0  0  0  0  0  0  0  0  0  0
   57.3670   87.3248   24.0030 C   0  0  0  0  0  0  0  0  0  0  0  0
   57.7598   86.5732   22.9150 C   0  0  0  0  0  0  0  0  0  0  0  0
   56.8668   86.2590   21.9165 C   0  0  0  0  0  0  0  0  0  0  0  0
   58.6473   87.7343   25.3639 Br  0  0  0  0  0  0  0  0  0  0  0  0
   53.5280   88.7650   20.3181 C   0  0  0  0  0  0  0  0  0  0  0  0
   54.5714   89.7044   19.8892 C   0  0  0  0  0  0  0  0  0  0  0  0
   54.3921   90.5845   18.8074 N   0  0  0  0  0  0  0  0  0  0  0  0
   54.4148   89.9551   17.5040 C   0  0  0  0  0  0  0  0  0  0  0  0
   54.3467   91.0862   16.4830 C   0  0  0  0  0  0  0  0  0  0  0  0
   53.9185   92.2718   17.0801 O   0  0  0  0  0  0  0  0  0  0  0  0
   52.7193   91.9471   17.7459 C   0  0  0  0  0  0  0  0  0  0  0  0
   52.9712   91.0500   18.9238 C   0  0  0  0  0  0  0  0  0  0  0  0
   54.9673   91.4286   18.8951 H   0  0  0  0  0  0  0  0  0  0  0  0
 10 11  1  0  0  0
 10 14  1  0  0  0
 11 12  2  0  0  0
 11 16  1  0  0  0
 12 13  1  0  0  0
 13 14  2  0  0  0
 13 15  1  0  0  0
 14  1  1  0  0  0
  1  2  2  0  0  0
  1  9  1  0  0  0
  2  3  1  0  0  0
  2  7  1  0  0  0
  3  4  1  0  0  0
  3 17  1  0  0  0
  4  5  1  0  0  0
  4 24  1  0  0  0
  5  6  2  0  0  0
  5  7  1  0  0  0
  7  8  2  0  0  0
 24 25  1  0  0  0
 25 26  1  0  0  0
 26 27  1  0  0  0
 26 31  1  0  0  0
 27 28  1  0  0  0
 28 29  1  0  0  0
 29 30  1  0  0  0
 30 31  1  0  0  0
 17 18  2  0  0  0
 17 22  1  0  0  0
 18 19  1  0  0  0
 19 20  2  0  0  0
 20 21  1  0  0  0
 20 23  1  0  0  0
 21 22  2  0  0  0
 26 32  1  0  0  0
M  CHG 1   9  -1
M  CHG 1  26   1
M  END
> <minimizedAffinity>
-8.21834

$$$$
1192


 27 30  0  0  0  0  0  0  0  0999 V2000
   54.0670   85.0708   22.6781 S   0  0  0  0  0  0  0  0  0  0  0  0
   53.1530   84.9547   21.2283 C   0  0  0  0  0  0  0  0  0  0  0  0
   53.4380   86.1384   20.6028 C   0  0  0  0  0  0  0  0  0  0  0  0
   54.2708   86.9851   21.2280 C   0  0  0  0  0  0  0  0  0  0  0  0
   54.7707   86.5981   22.4422 C   0  0  0  0  0  0  0  0  0  0  0  0
   55.7005   87.5587   23.1243 C   0  0  0  0  0  0  0  0  0  0  0  0
   56.7793   87.8769   22.1915 N   0  0  0  0  0  0  0  0  0  0  0  0
   56.3120   88.3474   20.9244 C   0  0  0  0  0  0  0  0  0  0  0  0
   54.7906   88.3567   20.8242 C   0  0  0  0  0  0  0  0  0  0  0  0
   57.4849   86.6164   21.9601 C   0  0  0  0  0  0  0  0  0  0  0  0
   52.7601   86.3152   19.2885 C   0  0  0  0  0  0  0  0  0  0  0  0
   52.9385   87.3665   18.6053 O   0  0  0  0  0  0  0  0  0  0  0  0
   51.9102   85.2827   18.8146 N   0  0  0  0  0  0  0  0  0  0  0  0
   51.9716   83.9161   19.2434 C   0  0  0  0  0  0  0  0  0  0  0  0
   52.2711   83.9529   20.6662 N   0  0  0  0  0  0  0  0  0  0  0  0
   57.4710   88.5065   22.6461 H   0  0  0  0  0  0  0  0  0  0  0  0
   51.1844   85.5597   18.0938 H   0  0  0  0  0  0  0  0  0  0  0  0
   51.8690   83.2664   21.3365 H   0  0  0  0  0  0  0  0  0  0  0  0
   53.0200   83.1396   18.5378 C   0  0  0  0  0  0  0  0  0  0  0  0
   53.2535   83.2902   17.1863 C   0  0  0  0  0  0  0  0  0  0  0  0
   54.2226   82.5792   16.5153 C   0  0  0  0  0  0  0  0  0  0  0  0
   55.0045   81.6716   17.2001 C   0  0  0  0  0  0  0  0  0  0  0  0
   54.7900   81.5044   18.5473 C   0  0  0  0  0  0  0  0  0  0  0  0
   53.8157   82.2225   19.2137 C   0  0  0  0  0  0  0  0  0  0  0  0
   55.9018   80.2313   19.4609 Br  0  0  0  0  0  0  0  0  0  0  0  0
   55.9830   80.9515   16.5298 O   0  0  0  0  0  0  0  0  0  0  0  0
   54.5343   82.7956   14.6581 Br  0  0  0  0  0  0  0  0  0  0  0  0
  1  2  1  0  0  0
  1  5  1  0  0  0
  2  3  2  0  0  0
  2 15  1  0  0  0
  3  4  1  0  0  0
  3 11  1  0  0  0
  4  5  2  0  0  0
  4  9  1  0  0  0
  5  6  1  0  0  0
  6  7  1  0  0  0
  7  8  1  0  0  0
  7 10  1  0  0  0
  8  9  1  0  0  0
 11 12  2  0  0  0
 11 13  1  0  0  0
 13 14  1  0  0  0
 14 15  1  0  0  0
 14 19  1  0  0  0
 19 20  2  0  0  0
 19 24  1  0  0  0
 20 21  1  0  0  0
 21 22  2  0  0  0
 21 27  1  0  0  0
 22 23  1  0  0  0
 22 26  1  0  0  0
 23 24  2  0  0  0
 23 25  1  0  0  0
  7 16  1  0  0  0
 13 17  1  0  0  0
 15 18  1  0  0  0
M  CHG 1   7   1
M  CHG 1  26  -1
M  END
> <minimizedAffinity>
-7.27791

$$$$
1193


 29 32  0  0  0  0  0  0  0  0999 V2000
   53.9620   84.9825   22.2510 S   0  0  0  0  0  0  0  0  0  0  0  0
   55.2721   86.0764   22.2333 C   0  0  0  0  0  0  0  0  0  0  0  0
   55.2606   86.5906   23.5000 C   0  0  0  0  0  0  0  0  0  0  0  0
   54.3011   86.1321   24.3429 C   0  0  0  0  0  0  0  0  0  0  0  0
   53.4299   85.1953   23.8454 C   0  0  0  0  0  0  0  0  0  0  0  0
   52.3301   84.6154   24.6713 C   0  0  0  0  0  0  0  0  0  0  0  0
   52.6343   84.5122   26.0570 N   0  0  0  0  0  0  0  0  0  0  0  0
   53.7688   85.2396   26.5147 C   0  0  0  0  0  0  0  0  0  0  0  0
   54.0525   86.5255   25.8039 C   0  0  0  0  0  0  0  0  0  0  0  0
   51.4564   84.7793   26.8737 C   0  0  0  0  0  0  0  0  0  0  0  0
   56.3428   87.5919   23.7496 C   0  0  0  0  0  0  0  0  0  0  0  0
   56.4360   88.1441   24.8939 O   0  0  0  0  0  0  0  0  0  0  0  0
   57.2512   87.9180   22.7162 N   0  0  0  0  0  0  0  0  0  0  0  0
   56.8645   87.8012   21.3274 C   0  0  0  0  0  0  0  0  0  0  0  0
   56.2427   86.4811   21.2304 N   0  0  0  0  0  0  0  0  0  0  0  0
   52.8475   83.4823   26.2408 H   0  0  0  0  0  0  0  0  0  0  0  0
   58.2135   88.2471   22.9534 H   0  0  0  0  0  0  0  0  0  0  0  0
   56.4414   85.7922   20.4862 H   0  0  0  0  0  0  0  0  0  0  0  0
   55.8538   88.8576   21.0597 C   0  0  0  0  0  0  0  0  0  0  0  0
   55.9657   90.1026   21.6402 C   0  0  0  0  0  0  0  0  0  0  0  0
   55.0394   91.0955   21.4048 C   0  0  0  0  0  0  0  0  0  0  0  0
   53.9642   90.8408   20.5635 C   0  0  0  0  0  0  0  0  0  0  0  0
   53.8270   89.6049   19.9695 C   0  0  0  0  0  0  0  0  0  0  0  0
   54.7575   88.6461   20.2215 C   0  0  0  0  0  0  0  0  0  0  0  0
   53.0155   91.8287   20.3112 O   0  0  0  0  0  0  0  0  0  0  0  0
   55.1818   92.8217   22.2001 Br  0  0  0  0  0  0  0  0  0  0  0  0
   52.7396   89.4017   19.1402 O   0  0  0  0  0  0  0  0  0  0  0  0
   52.7910   89.0252   17.8003 C   0  0  0  0  0  0  0  0  0  0  0  0
   53.6888   89.9431   16.9998 C   0  0  0  0  0  0  0  0  0  0  0  0
  1  2  1  0  0  0
  1  5  1  0  0  0
  2  3  2  0  0  0
  2 15  1  0  0  0
  3  4  1  0  0  0
  3 11  1  0  0  0
  4  5  2  0  0  0
  4  9  1  0  0  0
  5  6  1  0  0  0
  6  7  1  0  0  0
  7  8  1  0  0  0
  7 10  1  0  0  0
  8  9  1  0  0  0
 11 12  2  0  0  0
 11 13  1  0  0  0
 13 14  1  0  0  0
 14 15  1  0  0  0
 14 19  1  0  0  0
 19 20  2  0  0  0
 19 24  1  0  0  0
 20 21  1  0  0  0
 21 22  2  0  0  0
 21 26  1  0  0  0
 22 23  1  0  0  0
 22 25  1  0  0  0
 23 24  2  0  0  0
 23 27  1  0  0  0
 27 28  1  0  0  0
 28 29  1  0  0  0
  7 16  1  0  0  0
 13 17  1  0  0  0
 15 18  1  0  0  0
M  CHG 1   7   1
M  CHG 1  25  -1
M  END
> <minimizedAffinity>
-7.58705

$$$$
1206


 25 28  0  0  0  0  0  0  0  0999 V2000
   56.4425   88.4492   22.9532 S   0  0  0  0  0  0  0  0  0  0  0  0
   56.1664   87.5541   24.5039 C   0  0  0  0  0  0  0  0  0  0  0  0
   55.7215   86.2303   23.9445 C   0  0  0  0  0  0  0  0  0  0  0  0
   54.9891   86.3782   22.7235 N   0  0  0  0  0  0  0  0  0  0  0  0
   55.2129   87.5169   22.0473 C   0  0  0  0  0  0  0  0  0  0  0  0
   54.4499   87.5352   20.9483 N   0  0  0  0  0  0  0  0  0  0  0  0
   53.7239   86.3956   20.9097 C   0  0  0  0  0  0  0  0  0  0  0  0
   54.0526   85.6548   22.0198 C   0  0  0  0  0  0  0  0  0  0  0  0
   55.0113   88.1403   25.2792 C   0  0  0  0  0  0  0  0  0  0  0  0
   54.3946   88.5672   19.9704 C   0  0  0  0  0  0  0  0  0  0  0  0
   53.4346   88.5883   18.9857 C   0  0  0  0  0  0  0  0  0  0  0  0
   53.3587   89.5765   18.0268 C   0  0  0  0  0  0  0  0  0  0  0  0
   54.2791   90.6011   18.0347 C   0  0  0  0  0  0  0  0  0  0  0  0
   55.2603   90.6130   19.0102 C   0  0  0  0  0  0  0  0  0  0  0  0
   55.3133   89.6121   19.9589 C   0  0  0  0  0  0  0  0  0  0  0  0
   54.2058   91.9892   16.7199 Br  0  0  0  0  0  0  0  0  0  0  0  0
   53.4786   84.3699   22.3415 C   0  0  0  0  0  0  0  0  0  0  0  0
   53.3813   83.4187   21.3110 C   0  0  0  0  0  0  0  0  0  0  0  0
   52.8833   82.1650   21.5560 C   0  0  0  0  0  0  0  0  0  0  0  0
   52.4554   81.7605   22.7953 C   0  0  0  0  0  0  0  0  0  0  0  0
   52.5406   82.6726   23.8212 C   0  0  0  0  0  0  0  0  0  0  0  0
   53.0495   83.9530   23.5730 C   0  0  0  0  0  0  0  0  0  0  0  0
   51.9534   80.4490   22.9659 N   0  0  0  0  0  0  0  0  0  0  0  0
   52.6431   79.4647   22.6770 O   0  0  0  0  0  0  0  0  0  0  0  0
   50.6947   80.2749   23.4544 O   0  0  0  0  0  0  0  0  0  0  0  0
  1  2  1  0  0  0
  1  5  1  0  0  0
  2  3  1  0  0  0
  2  9  1  0  0  0
  3  4  1  0  0  0
  4  5  1  0  0  0
  4  8  1  0  0  0
  5  6  2  0  0  0
  6  7  1  0  0  0
  6 10  1  0  0  0
  7  8  2  0  0  0
  8 17  1  0  0  0
 17 18  2  0  0  0
 17 22  1  0  0  0
 18 19  1  0  0  0
 19 20  2  0  0  0
 20 21  1  0  0  0
 20 23  1  0  0  0
 21 22  2  0  0  0
 23 24  2  0  0  0
 23 25  1  0  0  0
 10 11  2  0  0  0
 10 15  1  0  0  0
 11 12  1  0  0  0
 12 13  2  0  0  0
 13 14  1  0  0  0
 13 16  1  0  0  0
 14 15  2  0  0  0
M  CHG 1  25  -1
M  END
> <minimizedAffinity>
-7.59426

$$$$
1209


 24 27  0  0  0  0  0  0  0  0999 V2000
   54.6478   89.9231   20.0862 S   0  0  0  0  0  0  0  0  0  0  0  0
   54.5742   90.5552   18.3864 C   0  0  0  0  0  0  0  0  0  0  0  0
   53.8586   89.5100   17.5498 C   0  0  0  0  0  0  0  0  0  0  0  0
   52.6331   89.0044   18.2822 C   0  0  0  0  0  0  0  0  0  0  0  0
   53.0839   87.9403   19.1641 N   0  0  0  0  0  0  0  0  0  0  0  0
   54.0289   88.2500   20.0555 C   0  0  0  0  0  0  0  0  0  0  0  0
   54.3245   87.1239   20.7947 N   0  0  0  0  0  0  0  0  0  0  0  0
   53.5716   86.1234   20.3683 C   0  0  0  0  0  0  0  0  0  0  0  0
   52.7968   86.6562   19.3408 C   0  0  0  0  0  0  0  0  0  0  0  0
   55.3019   87.1399   21.8325 C   0  0  0  0  0  0  0  0  0  0  0  0
   56.5763   86.6464   21.6143 C   0  0  0  0  0  0  0  0  0  0  0  0
   57.5539   86.6748   22.5887 C   0  0  0  0  0  0  0  0  0  0  0  0
   57.2303   87.2170   23.8167 C   0  0  0  0  0  0  0  0  0  0  0  0
   55.9580   87.7056   24.0252 C   0  0  0  0  0  0  0  0  0  0  0  0
   54.9676   87.6875   23.0675 C   0  0  0  0  0  0  0  0  0  0  0  0
   58.5241   87.2991   25.2348 Br  0  0  0  0  0  0  0  0  0  0  0  0
   53.4900   84.7380   20.8030 C   0  0  0  0  0  0  0  0  0  0  0  0
   53.9058   83.7206   19.9318 C   0  0  0  0  0  0  0  0  0  0  0  0
   53.8521   82.4006   20.2845 C   0  0  0  0  0  0  0  0  0  0  0  0
   53.3917   81.9728   21.5088 C   0  0  0  0  0  0  0  0  0  0  0  0
   52.9825   82.9599   22.3678 C   0  0  0  0  0  0  0  0  0  0  0  0
   53.0282   84.3196   22.0270 C   0  0  0  0  0  0  0  0  0  0  0  0
   53.3529   80.6233   21.8308 O   0  0  0  0  0  0  0  0  0  0  0  0
   52.7052   80.1889   23.0121 C   0  0  0  0  0  0  0  0  0  0  0  0
  1  2  1  0  0  0
  1  6  1  0  0  0
  2  3  1  0  0  0
  3  4  1  0  0  0
  4  5  1  0  0  0
  5  6  2  0  0  0
  5  9  1  0  0  0
  6  7  1  0  0  0
  7  8  1  0  0  0
  7 10  1  0  0  0
  8  9  2  0  0  0
  8 17  1  0  0  0
 17 18  2  0  0  0
 17 22  1  0  0  0
 18 19  1  0  0  0
 19 20  2  0  0  0
 20 21  1  0  0  0
 20 23  1  0  0  0
 21 22  2  0  0  0
 23 24  1  0  0  0
 10 11  2  0  0  0
 10 15  1  0  0  0
 11 12  1  0  0  0
 12 13  2  0  0  0
 13 14  1  0  0  0
 13 16  1  0  0  0
 14 15  2  0  0  0
M  END
> <minimizedAffinity>
-7.53612

$$$$
1211


 26 29  0  0  0  0  0  0  0  0999 V2000
   54.9994   82.2745   25.8903 S   0  0  0  0  0  0  0  0  0  0  0  0
   54.7849   80.4524   25.9440 C   0  0  0  0  0  0  0  0  0  0  0  0
   53.5939   80.1839   25.0214 C   0  0  0  0  0  0  0  0  0  0  0  0
   52.3558   80.7875   25.6767 C   0  0  0  0  0  0  0  0  0  0  0  0
   52.3237   82.1854   25.3241 N   0  0  0  0  0  0  0  0  0  0  0  0
   53.4084   82.9136   25.3811 C   0  0  0  0  0  0  0  0  0  0  0  0
   53.0499   84.2536   24.9511 N   0  0  0  0  0  0  0  0  0  0  0  0
   51.7188   84.3834   25.5033 C   0  0  0  0  0  0  0  0  0  0  0  0
   51.2268   83.0370   24.8532 C   0  0  0  0  0  0  0  0  0  0  0  0
   50.9928   85.4453   25.0660 O   0  0  0  0  0  0  0  0  0  0  0  0
   50.2245   85.5879   25.7002 H   0  0  0  0  0  0  0  0  0  0  0  0
   53.8121   85.1172   24.1384 C   0  0  0  0  0  0  0  0  0  0  0  0
   54.5753   86.1222   24.7817 C   0  0  0  0  0  0  0  0  0  0  0  0
   55.3123   87.0492   24.0654 C   0  0  0  0  0  0  0  0  0  0  0  0
   55.3309   87.0318   22.6978 C   0  0  0  0  0  0  0  0  0  0  0  0
   54.5972   86.0654   22.0419 C   0  0  0  0  0  0  0  0  0  0  0  0
   53.8516   85.1241   22.7778 C   0  0  0  0  0  0  0  0  0  0  0  0
   56.3158   88.3021   21.6662 Br  0  0  0  0  0  0  0  0  0  0  0  0
   51.7667   84.1947   26.9577 C   0  0  0  0  0  0  0  0  0  0  0  0
   50.7982   83.4995   27.6613 C   0  0  0  0  0  0  0  0  0  0  0  0
   50.8960   83.3902   29.0569 C   0  0  0  0  0  0  0  0  0  0  0  0
   51.9041   83.9404   29.7543 C   0  0  0  0  0  0  0  0  0  0  0  0
   52.9096   84.6531   29.0684 C   0  0  0  0  0  0  0  0  0  0  0  0
   52.7769   84.7380   27.6934 C   0  0  0  0  0  0  0  0  0  0  0  0
   52.0376   83.8545   31.1647 O   0  0  0  0  0  0  0  0  0  0  0  0
   51.5273   84.8778   31.9929 C   0  0  0  0  0  0  0  0  0  0  0  0
  1  2  1  0  0  0
  1  6  1  0  0  0
  2  3  1  0  0  0
  3  4  1  0  0  0
  4  5  1  0  0  0
  5  6  2  0  0  0
  5  9  1  0  0  0
  6  7  1  0  0  0
  7  8  1  0  0  0
  7 12  1  0  0  0
  8  9  1  0  0  0
  8 10  1  0  0  0
  8 19  1  0  0  0
 19 20  2  0  0  0
 19 24  1  0  0  0
 20 21  1  0  0  0
 21 22  2  0  0  0
 22 23  1  0  0  0
 22 25  1  0  0  0
 23 24  2  0  0  0
 25 26  1  0  0  0
 12 13  2  0  0  0
 12 17  1  0  0  0
 13 14  1  0  0  0
 14 15  2  0  0  0
 15 16  1  0  0  0
 15 18  1  0  0  0
 16 17  2  0  0  0
 10 11  1  0  0  0
M  END
> <minimizedAffinity>
-6.22737

$$$$
1217


 28 31  0  0  0  0  0  0  0  0999 V2000
   53.3830   85.3087   23.7735 S   0  0  0  0  0  0  0  0  0  0  0  0
   53.8847   85.1385   25.4684 C   0  0  0  0  0  0  0  0  0  0  0  0
   55.0553   86.0598   25.7472 C   0  0  0  0  0  0  0  0  0  0  0  0
   56.2172   85.6809   24.8460 C   0  0  0  0  0  0  0  0  0  0  0  0
   55.9623   86.1328   23.4970 N   0  0  0  0  0  0  0  0  0  0  0  0
   56.7092   86.9691   22.6147 C   0  0  0  0  0  0  0  0  0  0  0  0
   56.3501   86.3224   21.2861 C   0  0  0  0  0  0  0  0  0  0  0  0
   54.9715   85.9316   21.4766 N   0  0  0  0  0  0  0  0  0  0  0  0
   54.7890   85.7813   22.7422 C   0  0  0  0  0  0  0  0  0  0  0  0
   58.0706   86.8524   22.8750 O   0  0  0  0  0  0  0  0  0  0  0  0
   58.2440   86.0586   23.4304 H   0  0  0  0  0  0  0  0  0  0  0  0
   56.2783   88.3794   22.5522 C   0  0  0  0  0  0  0  0  0  0  0  0
   55.7888   89.1186   23.5824 C   0  0  0  0  0  0  0  0  0  0  0  0
   55.3751   90.4400   23.4015 C   0  0  0  0  0  0  0  0  0  0  0  0
   55.4457   91.0480   22.1656 C   0  0  0  0  0  0  0  0  0  0  0  0
   55.9345   90.3167   21.1271 C   0  0  0  0  0  0  0  0  0  0  0  0
   56.3394   89.0232   21.3044 C   0  0  0  0  0  0  0  0  0  0  0  0
   54.8677   92.8615   21.9312 Br  0  0  0  0  0  0  0  0  0  0  0  0
   53.9723   85.7759   20.4794 C   0  0  0  0  0  0  0  0  0  0  0  0
   53.7453   84.4895   20.0082 C   0  0  0  0  0  0  0  0  0  0  0  0
   52.7954   84.2593   19.0079 C   0  0  0  0  0  0  0  0  0  0  0  0
   52.0804   85.3222   18.4845 C   0  0  0  0  0  0  0  0  0  0  0  0
   52.2791   86.6079   18.9279 C   0  0  0  0  0  0  0  0  0  0  0  0
   53.2488   86.7723   19.9363 C   0  0  0  0  0  0  0  0  0  0  0  0
   51.5969   87.7117   18.4459 O   0  0  0  0  0  0  0  0  0  0  0  0
   52.1196   89.0009   18.2978 C   0  0  0  0  0  0  0  0  0  0  0  0
   54.4618   83.4342   20.5303 O   0  0  0  0  0  0  0  0  0  0  0  0
   53.9652   82.1300   20.7188 C   0  0  0  0  0  0  0  0  0  0  0  0
  1  2  1  0  0  0
  1  9  1  0  0  0
  2  3  1  0  0  0
  3  4  1  0  0  0
  4  5  1  0  0  0
  5  6  1  0  0  0
  5  9  1  0  0  0
  6  7  1  0  0  0
  6 10  1  0  0  0
  6 12  1  0  0  0
  7  8  1  0  0  0
  8  9  2  0  0  0
  8 19  1  0  0  0
 19 20  2  0  0  0
 19 24  1  0  0  0
 20 21  1  0  0  0
 20 27  1  0  0  0
 21 22  2  0  0  0
 22 23  1  0  0  0
 23 24  2  0  0  0
 23 25  1  0  0  0
 25 26  1  0  0  0
 27 28  1  0  0  0
 12 13  2  0  0  0
 12 17  1  0  0  0
 13 14  1  0  0  0
 14 15  2  0  0  0
 15 16  1  0  0  0
 15 18  1  0  0  0
 16 17  2  0  0  0
 10 11  1  0  0  0
M  END
> <minimizedAffinity>
-7.41673

$$$$
1219


 27 30  0  0  0  0  0  0  0  0999 V2000
   54.0980   88.2726   19.4784 S   0  0  0  0  0  0  0  0  0  0  0  0
   52.4803   89.1042   19.1958 C   0  0  0  0  0  0  0  0  0  0  0  0
   51.3692   88.0742   19.3031 C   0  0  0  0  0  0  0  0  0  0  0  0
   51.7161   86.8208   18.5422 C   0  0  0  0  0  0  0  0  0  0  0  0
   52.5788   85.9980   19.3288 N   0  0  0  0  0  0  0  0  0  0  0  0
   52.7012   84.5855   19.6385 C   0  0  0  0  0  0  0  0  0  0  0  0
   53.3401   84.5914   21.0159 C   0  0  0  0  0  0  0  0  0  0  0  0
   54.0894   85.8634   20.9834 N   0  0  0  0  0  0  0  0  0  0  0  0
   53.6503   86.6187   20.0569 C   0  0  0  0  0  0  0  0  0  0  0  0
   51.4826   83.9362   19.6292 O   0  0  0  0  0  0  0  0  0  0  0  0
   51.1258   83.6878   20.4937 H   0  0  0  0  0  0  0  0  0  0  0  0
   55.1431   86.1928   21.8843 C   0  0  0  0  0  0  0  0  0  0  0  0
   56.4402   86.4479   21.5490 C   0  0  0  0  0  0  0  0  0  0  0  0
   57.4143   86.7824   22.4797 C   0  0  0  0  0  0  0  0  0  0  0  0
   57.0807   86.8669   23.8161 C   0  0  0  0  0  0  0  0  0  0  0  0
   55.7675   86.6129   24.1949 C   0  0  0  0  0  0  0  0  0  0  0  0
   54.8098   86.2798   23.2451 C   0  0  0  0  0  0  0  0  0  0  0  0
   58.3524   87.3149   25.1738 Br  0  0  0  0  0  0  0  0  0  0  0  0
   53.6312   83.8995   18.7102 C   0  0  0  0  0  0  0  0  0  0  0  0
   54.3081   82.7705   19.1277 C   0  0  0  0  0  0  0  0  0  0  0  0
   55.1726   82.1570   18.2210 C   0  0  0  0  0  0  0  0  0  0  0  0
   55.3456   82.6531   16.9643 C   0  0  0  0  0  0  0  0  0  0  0  0
   54.6736   83.7820   16.5324 C   0  0  0  0  0  0  0  0  0  0  0  0
   53.8076   84.3921   17.4478 C   0  0  0  0  0  0  0  0  0  0  0  0
   55.8718   80.9968   18.6403 N   0  0  0  0  0  0  0  0  0  0  0  0
   55.9236   80.6577   19.8381 O   0  0  0  0  0  0  0  0  0  0  0  0
   56.5212   80.1980   17.7423 O   0  0  0  0  0  0  0  0  0  0  0  0
  1  2  1  0  0  0
  1  9  1  0  0  0
  2  3  1  0  0  0
  3  4  1  0  0  0
  4  5  1  0  0  0
  5  6  1  0  0  0
  5  9  1  0  0  0
  6  7  1  0  0  0
  6 10  1  0  0  0
  6 19  1  0  0  0
  7  8  1  0  0  0
  8  9  2  0  0  0
  8 12  1  0  0  0
 12 13  2  0  0  0
 12 17  1  0  0  0
 13 14  1  0  0  0
 14 15  2  0  0  0
 15 16  1  0  0  0
 15 18  1  0  0  0
 16 17  2  0  0  0
 19 20  2  0  0  0
 19 24  1  0  0  0
 20 21  1  0  0  0
 21 22  2  0  0  0
 21 25  1  0  0  0
 22 23  1  0  0  0
 23 24  2  0  0  0
 25 26  2  0  0  0
 25 27  1  0  0  0
 10 11  1  0  0  0
M  CHG 1  27  -1
M  END
> <minimizedAffinity>
-8.09706

$$$$
1220


 27 30  0  0  0  0  0  0  0  0999 V2000
   51.6025   81.6750   26.9859 S   0  0  0  0  0  0  0  0  0  0  0  0
   53.0784   80.6623   26.5669 C   0  0  0  0  0  0  0  0  0  0  0  0
   53.8832   81.2234   25.4713 C   0  0  0  0  0  0  0  0  0  0  0  0
   53.3457   82.3370   24.6696 C   0  0  0  0  0  0  0  0  0  0  0  0
   52.8054   83.4460   25.3427 N   0  0  0  0  0  0  0  0  0  0  0  0
   52.6798   84.8379   25.0338 C   0  0  0  0  0  0  0  0  0  0  0  0
   52.8225   85.4447   26.4124 C   0  0  0  0  0  0  0  0  0  0  0  0
   52.1774   84.4482   27.2407 N   0  0  0  0  0  0  0  0  0  0  0  0
   52.1803   83.3486   26.6485 C   0  0  0  0  0  0  0  0  0  0  0  0
   51.3707   85.1005   24.6217 O   0  0  0  0  0  0  0  0  0  0  0  0
   51.0831   85.9460   25.0031 H   0  0  0  0  0  0  0  0  0  0  0  0
   51.6094   84.6975   28.5318 C   0  0  0  0  0  0  0  0  0  0  0  0
   52.4481   84.6835   29.6374 C   0  0  0  0  0  0  0  0  0  0  0  0
   51.9632   84.8967   30.9258 C   0  0  0  0  0  0  0  0  0  0  0  0
   50.6227   85.1280   31.1411 C   0  0  0  0  0  0  0  0  0  0  0  0
   49.7799   85.1452   30.0563 C   0  0  0  0  0  0  0  0  0  0  0  0
   50.2956   84.9259   28.7728 C   0  0  0  0  0  0  0  0  0  0  0  0
   49.9571   85.4045   32.9248 Br  0  0  0  0  0  0  0  0  0  0  0  0
   53.6683   85.3882   24.0872 C   0  0  0  0  0  0  0  0  0  0  0  0
   54.6781   86.1875   24.6144 C   0  0  0  0  0  0  0  0  0  0  0  0
   55.6489   86.7440   23.8119 C   0  0  0  0  0  0  0  0  0  0  0  0
   55.6694   86.5362   22.4441 C   0  0  0  0  0  0  0  0  0  0  0  0
   54.6704   85.7413   21.9156 C   0  0  0  0  0  0  0  0  0  0  0  0
   53.6852   85.1778   22.7332 C   0  0  0  0  0  0  0  0  0  0  0  0
   56.6798   87.1174   21.6412 N   0  0  0  0  0  0  0  0  0  0  0  0
   57.6641   86.4959   21.2250 O   0  0  0  0  0  0  0  0  0  0  0  0
   56.5729   88.4397   21.2931 O   0  0  0  0  0  0  0  0  0  0  0  0
  1  2  1  0  0  0
  1  9  1  0  0  0
  2  3  1  0  0  0
  3  4  1  0  0  0
  4  5  1  0  0  0
  5  6  1  0  0  0
  5  9  1  0  0  0
  6  7  1  0  0  0
  6 10  1  0  0  0
  6 19  1  0  0  0
  7  8  1  0  0  0
  8  9  2  0  0  0
  8 12  1  0  0  0
 12 13  2  0  0  0
 12 17  1  0  0  0
 13 14  1  0  0  0
 14 15  2  0  0  0
 15 16  1  0  0  0
 15 18  1  0  0  0
 16 17  2  0  0  0
 19 20  2  0  0  0
 19 24  1  0  0  0
 20 21  1  0  0  0
 21 22  2  0  0  0
 22 23  1  0  0  0
 22 25  1  0  0  0
 23 24  2  0  0  0
 25 26  2  0  0  0
 25 27  1  0  0  0
 10 11  1  0  0  0
M  CHG 1  27  -1
M  END
> <minimizedAffinity>
-7.23796

$$$$
1222


 24 27  0  0  0  0  0  0  0  0999 V2000
   56.1993   88.4184   20.9479 S   0  0  0  0  0  0  0  0  0  0  0  0
   56.3421   89.0929   22.6633 C   0  0  0  0  0  0  0  0  0  0  0  0
   55.3709   90.2278   22.8606 C   0  0  0  0  0  0  0  0  0  0  0  0
   55.0440   90.9809   21.5893 C   0  0  0  0  0  0  0  0  0  0  0  0
   54.2304   90.2667   20.6851 N   0  0  0  0  0  0  0  0  0  0  0  0
   53.1247   90.4774   19.7344 C   0  0  0  0  0  0  0  0  0  0  0  0
   52.3909   89.1812   19.9830 C   0  0  0  0  0  0  0  0  0  0  0  0
   53.4945   88.2350   20.0528 N   0  0  0  0  0  0  0  0  0  0  0  0
   54.4782   88.8425   20.5231 C   0  0  0  0  0  0  0  0  0  0  0  0
   52.3397   91.5431   20.0518 O   0  0  0  0  0  0  0  0  0  0  0  0
   52.8115   92.3944   20.2300 H   0  0  0  0  0  0  0  0  0  0  0  0
   53.4542   86.8676   19.5912 C   0  0  0  0  0  0  0  0  0  0  0  0
   53.0559   86.4684   18.3545 C   0  0  0  0  0  0  0  0  0  0  0  0
   52.9878   85.1364   17.9657 C   0  0  0  0  0  0  0  0  0  0  0  0
   53.3339   84.1546   18.8563 C   0  0  0  0  0  0  0  0  0  0  0  0
   53.7403   84.5558   20.1142 C   0  0  0  0  0  0  0  0  0  0  0  0
   53.8062   85.8674   20.4946 C   0  0  0  0  0  0  0  0  0  0  0  0
   53.2672   82.2885   18.4102 Br  0  0  0  0  0  0  0  0  0  0  0  0
   53.6372   90.4997   18.3242 C   0  0  0  0  0  0  0  0  0  0  0  0
   53.0971   89.7224   17.3176 C   0  0  0  0  0  0  0  0  0  0  0  0
   53.6268   89.8085   16.0366 C   0  0  0  0  0  0  0  0  0  0  0  0
   54.6842   90.6500   15.7161 C   0  0  0  0  0  0  0  0  0  0  0  0
   55.2238   91.4233   16.7077 C   0  0  0  0  0  0  0  0  0  0  0  0
   54.6963   91.3369   17.9954 C   0  0  0  0  0  0  0  0  0  0  0  0
  1  2  1  0  0  0
  1  9  1  0  0  0
  2  3  1  0  0  0
  3  4  1  0  0  0
  4  5  1  0  0  0
  5  6  1  0  0  0
  5  9  1  0  0  0
  6  7  1  0  0  0
  6 10  1  0  0  0
  6 19  1  0  0  0
  7  8  1  0  0  0
  8  9  2  0  0  0
  8 12  1  0  0  0
 12 13  2  0  0  0
 12 17  1  0  0  0
 13 14  1  0  0  0
 14 15  2  0  0  0
 15 16  1  0  0  0
 15 18  1  0  0  0
 16 17  2  0  0  0
 19 20  2  0  0  0
 19 24  1  0  0  0
 20 21  1  0  0  0
 21 22  2  0  0  0
 22 23  1  0  0  0
 23 24  2  0  0  0
 10 11  1  0  0  0
M  END
> <minimizedAffinity>
-6.76656

$$$$
1224


 26 29  0  0  0  0  0  0  0  0999 V2000
   52.0888   88.3808   19.6808 S   0  0  0  0  0  0  0  0  0  0  0  0
   51.6999   88.4299   17.8834 C   0  0  0  0  0  0  0  0  0  0  0  0
   52.2976   89.7361   17.3813 C   0  0  0  0  0  0  0  0  0  0  0  0
   53.7937   89.7058   17.3846 C   0  0  0  0  0  0  0  0  0  0  0  0
   54.3895   89.5832   18.6793 N   0  0  0  0  0  0  0  0  0  0  0  0
   55.5459   90.1714   19.3618 C   0  0  0  0  0  0  0  0  0  0  0  0
   56.0337   88.8795   20.0442 C   0  0  0  0  0  0  0  0  0  0  0  0
   54.7811   88.3053   20.5004 N   0  0  0  0  0  0  0  0  0  0  0  0
   53.8671   88.7042   19.7124 C   0  0  0  0  0  0  0  0  0  0  0  0
   56.4569   90.6207   18.4352 O   0  0  0  0  0  0  0  0  0  0  0  0
   57.1488   89.9517   18.2182 H   0  0  0  0  0  0  0  0  0  0  0  0
   55.1640   91.1627   20.3831 C   0  0  0  0  0  0  0  0  0  0  0  0
   54.1048   92.0386   20.2948 C   0  0  0  0  0  0  0  0  0  0  0  0
   53.8238   92.9280   21.3187 C   0  0  0  0  0  0  0  0  0  0  0  0
   54.5988   92.9509   22.4422 C   0  0  0  0  0  0  0  0  0  0  0  0
   55.6627   92.0818   22.5465 C   0  0  0  0  0  0  0  0  0  0  0  0
   55.9301   91.2057   21.5255 C   0  0  0  0  0  0  0  0  0  0  0  0
   54.2638   94.1610   23.8972 Br  0  0  0  0  0  0  0  0  0  0  0  0
   54.6947   87.4441   21.6584 C   0  0  0  0  0  0  0  0  0  0  0  0
   55.1076   87.9135   22.9018 C   0  0  0  0  0  0  0  0  0  0  0  0
   55.0406   87.1161   24.0233 C   0  0  0  0  0  0  0  0  0  0  0  0
   54.5679   85.8219   23.9850 C   0  0  0  0  0  0  0  0  0  0  0  0
   54.1591   85.3502   22.7608 C   0  0  0  0  0  0  0  0  0  0  0  0
   54.2292   86.1657   21.6200 C   0  0  0  0  0  0  0  0  0  0  0  0
   54.5130   85.0473   25.1386 O   0  0  0  0  0  0  0  0  0  0  0  0
   54.3147   85.5332   26.4356 C   0  0  0  0  0  0  0  0  0  0  0  0
  1  2  1  0  0  0
  1  9  1  0  0  0
  2  3  1  0  0  0
  3  4  1  0  0  0
  4  5  1  0  0  0
  5  6  1  0  0  0
  5  9  1  0  0  0
  6  7  1  0  0  0
  6 10  1  0  0  0
  6 12  1  0  0  0
  7  8  1  0  0  0
  8  9  2  0  0  0
  8 19  1  0  0  0
 19 20  2  0  0  0
 19 24  1  0  0  0
 20 21  1  0  0  0
 21 22  2  0  0  0
 22 23  1  0  0  0
 22 25  1  0  0  0
 23 24  2  0  0  0
 25 26  1  0  0  0
 12 13  2  0  0  0
 12 17  1  0  0  0
 13 14  1  0  0  0
 14 15  2  0  0  0
 15 16  1  0  0  0
 15 18  1  0  0  0
 16 17  2  0  0  0
 10 11  1  0  0  0
M  END
> <minimizedAffinity>
-6.95358

$$$$
1226


 24 27  0  0  0  0  0  0  0  0999 V2000
   55.6508   88.8940   20.9557 S   0  0  0  0  0  0  0  0  0  0  0  0
   56.0915   88.2732   22.6030 C   0  0  0  0  0  0  0  0  0  0  0  0
   54.9347   87.3696   23.0412 C   0  0  0  0  0  0  0  0  0  0  0  0
   54.9005   86.1574   22.0968 C   0  0  0  0  0  0  0  0  0  0  0  0
   54.1505   86.5481   20.8969 N   0  0  0  0  0  0  0  0  0  0  0  0
   53.1777   85.9017   20.1142 C   0  0  0  0  0  0  0  0  0  0  0  0
   52.5775   87.0060   19.2504 C   0  0  0  0  0  0  0  0  0  0  0  0
   53.4469   88.1239   19.4538 N   0  0  0  0  0  0  0  0  0  0  0  0
   54.3184   87.8415   20.3338 C   0  0  0  0  0  0  0  0  0  0  0  0
   52.1242   85.4631   20.9473 O   0  0  0  0  0  0  0  0  0  0  0  0
   52.4988   84.7297   21.5015 H   0  0  0  0  0  0  0  0  0  0  0  0
   53.5784   84.7924   19.2513 C   0  0  0  0  0  0  0  0  0  0  0  0
   53.3584   84.9623   17.8853 C   0  0  0  0  0  0  0  0  0  0  0  0
   53.7086   84.0263   16.9299 C   0  0  0  0  0  0  0  0  0  0  0  0
   54.3036   82.8553   17.3116 C   0  0  0  0  0  0  0  0  0  0  0  0
   54.5301   82.6674   18.6633 C   0  0  0  0  0  0  0  0  0  0  0  0
   54.1740   83.6191   19.6144 C   0  0  0  0  0  0  0  0  0  0  0  0
   54.8282   81.5132   16.0288 Br  0  0  0  0  0  0  0  0  0  0  0  0
   53.2650   89.3703   18.7625 C   0  0  0  0  0  0  0  0  0  0  0  0
   52.3872   90.2787   19.2591 C   0  0  0  0  0  0  0  0  0  0  0  0
   52.2523   91.4897   18.5876 C   0  0  0  0  0  0  0  0  0  0  0  0
   52.9673   91.7984   17.4523 C   0  0  0  0  0  0  0  0  0  0  0  0
   53.8455   90.8423   16.9844 C   0  0  0  0  0  0  0  0  0  0  0  0
   54.0037   89.6362   17.6223 C   0  0  0  0  0  0  0  0  0  0  0  0
  1  2  1  0  0  0
  1  9  1  0  0  0
  2  3  1  0  0  0
  3  4  1  0  0  0
  4  5  1  0  0  0
  5  6  1  0  0  0
  5  9  1  0  0  0
  6  7  1  0  0  0
  6 10  1  0  0  0
  6 12  1  0  0  0
  7  8  1  0  0  0
  8  9  2  0  0  0
  8 19  1  0  0  0
 19 20  2  0  0  0
 19 24  1  0  0  0
 20 21  1  0  0  0
 21 22  2  0  0  0
 22 23  1  0  0  0
 23 24  2  0  0  0
 12 13  2  0  0  0
 12 17  1  0  0  0
 13 14  1  0  0  0
 14 15  2  0  0  0
 15 16  1  0  0  0
 15 18  1  0  0  0
 16 17  2  0  0  0
 10 11  1  0  0  0
M  END
> <minimizedAffinity>
-8.61148

$$$$
1231


 37 40  0  0  0  0  0  0  0  0999 V2000
   52.9300   84.2143   20.7698 C   0  0  0  0  0  0  0  0  0  0  0  0
   53.1366   83.3408   19.7762 N   0  0  0  0  0  0  0  0  0  0  0  0
   52.5754   82.1895   20.1866 N   0  0  0  0  0  0  0  0  0  0  0  0
   52.0498   82.3165   21.3514 N   0  0  0  0  0  0  0  0  0  0  0  0
   52.2291   83.6056   21.8165 C   0  0  0  0  0  0  0  0  0  0  0  0
   53.7592   83.4699   18.5007 C   0  0  0  0  0  0  0  0  0  0  0  0
   53.5068   84.3749   17.5328 N   0  0  0  0  0  0  0  0  0  0  0  0
   54.2709   84.2215   16.5170 O   0  0  0  0  0  0  0  0  0  0  0  0
   55.0587   83.2209   16.7560 N   0  0  0  0  0  0  0  0  0  0  0  0
   54.7865   82.7042   17.9913 C   0  0  0  0  0  0  0  0  0  0  0  0
   55.4471   81.6210   18.6139 N   0  0  0  0  0  0  0  0  0  0  0  0
   56.2963   81.3837   18.0365 H   0  0  0  0  0  0  0  0  0  0  0  0
   54.8611   80.7789   18.7517 H   0  0  0  0  0  0  0  0  0  0  0  0
   55.8139   81.9402   19.5517 H   0  0  0  0  0  0  0  0  0  0  0  0
   51.7431   84.0763   23.0874 C   0  0  0  0  0  0  0  0  0  0  0  0
   50.4954   83.8532   23.3482 O   0  0  0  0  0  0  0  0  0  0  0  0
   52.4394   84.7471   24.0881 N   0  0  0  0  0  0  0  0  0  0  0  0
   53.4313   85.0388   24.1017 H   0  0  0  0  0  0  0  0  0  0  0  0
   51.7604   85.1297   25.2971 N   0  0  0  0  0  0  0  0  0  0  0  0
   52.0929   84.6597   26.4336 C   0  0  0  0  0  0  0  0  0  0  0  0
   51.4323   85.0210   27.6802 C   0  0  0  0  0  0  0  0  0  0  0  0
   51.7820   84.4422   28.8792 C   0  0  0  0  0  0  0  0  0  0  0  0
   51.1705   84.7785   30.0690 C   0  0  0  0  0  0  0  0  0  0  0  0
   50.1722   85.7177   30.1054 C   0  0  0  0  0  0  0  0  0  0  0  0
   49.7896   86.3289   28.9013 C   0  0  0  0  0  0  0  0  0  0  0  0
   50.4202   85.9709   27.7290 C   0  0  0  0  0  0  0  0  0  0  0  0
   49.5707   86.0403   31.3125 O   0  0  0  0  0  0  0  0  0  0  0  0
   51.6915   83.9468   31.7091 Br  0  0  0  0  0  0  0  0  0  0  0  0
   48.7836   87.2605   29.0091 O   0  0  0  0  0  0  0  0  0  0  0  0
   48.8343   88.5833   28.5354 C   0  0  0  0  0  0  0  0  0  0  0  0
   53.3285   85.6302   20.8039 C   0  0  0  0  0  0  0  0  0  0  0  0
   55.0114   85.9919   21.2584 S   0  0  0  0  0  0  0  0  0  0  0  0
   56.0622   88.3894   22.9887 S   0  0  0  0  0  0  0  0  0  0  0  0
   55.9050   88.4921   24.7980 C   0  0  0  0  0  0  0  0  0  0  0  0
   54.8770   87.4300   25.0232 C   0  0  0  0  0  0  0  0  0  0  0  0
   54.6648   86.6216   23.9331 N   0  0  0  0  0  0  0  0  0  0  0  0
   55.1353   86.8647   22.8142 C   0  0  0  0  0  0  0  0  0  0  0  0
 33 34  1  0  0  0
 33 37  1  0  0  0
 34 35  1  0  0  0
 35 36  1  0  0  0
 36 37  2  0  0  0
 37 32  1  0  0  0
 32 31  1  0  0  0
 31  1  1  0  0  0
  1  2  1  0  0  0
  1  5  2  0  0  0
  2  3  1  0  0  0
  2  6  1  0  0  0
  3  4  2  0  0  0
  4  5  1  0  0  0
  5 15  1  0  0  0
 15 16  2  0  0  0
 15 17  1  0  0  0
 17 19  1  0  0  0
 19 20  2  0  0  0
 20 21  1  0  0  0
 21 22  2  0  0  0
 21 26  1  0  0  0
 22 23  1  0  0  0
 23 24  2  0  0  0
 23 28  1  0  0  0
 24 25  1  0  0  0
 24 27  1  0  0  0
 25 26  2  0  0  0
 25 29  1  0  0  0
 29 30  1  0  0  0
  6  7  2  0  0  0
  6 10  1  0  0  0
  7  8  1  0  0  0
  8  9  1  0  0  0
  9 10  2  0  0  0
 10 11  1  0  0  0
 17 18  1  0  0  0
 11 12  1  0  0  0
 11 13  1  0  0  0
 11 14  1  0  0  0
M  CHG 1  11   1
M  CHG 1  27  -1
M  END
> <minimizedAffinity>
-8.07161

$$$$
1236


 30 34  0  0  0  0  0  0  0  0999 V2000
   50.8822   83.6736   28.9401 C   0  0  0  0  0  0  0  0  0  0  0  0
   53.5874   82.6876   24.9213 S   0  0  0  0  0  0  0  0  0  0  0  0
   52.5771   83.7223   23.7573 C   0  0  0  0  0  0  0  0  0  0  0  0
   51.4311   83.9963   24.6972 C   0  0  0  0  0  0  0  0  0  0  0  0
   51.9242   84.2846   26.0142 N   0  0  0  0  0  0  0  0  0  0  0  0
   53.1184   83.6210   26.3638 C   0  0  0  0  0  0  0  0  0  0  0  0
   53.6432   83.7734   27.5044 N   0  0  0  0  0  0  0  0  0  0  0  0
   53.0564   84.6013   28.5276 C   0  0  0  0  0  0  0  0  0  0  0  0
   53.7179   85.0884   29.4773 O   0  0  0  0  0  0  0  0  0  0  0  0
   51.5965   84.8740   28.4260 C   0  0  0  0  0  0  0  0  0  0  0  0
   51.3101   85.1547   27.0004 C   0  0  0  0  0  0  0  0  0  0  0  0
   50.5796   86.0860   26.5839 O   0  0  0  0  0  0  0  0  0  0  0  0
   49.6515   83.3087   28.1474 C   0  0  0  0  0  0  0  0  0  0  0  0
   48.3822   83.6896   28.7879 C   0  0  0  0  0  0  0  0  0  0  0  0
   47.9999   84.9120   28.7692 O   0  0  0  0  0  0  0  0  0  0  0  0
   47.5639   82.6876   29.4417 N   0  0  0  0  0  0  0  0  0  0  0  0
   46.4387   82.9287   30.3018 C   0  0  0  0  0  0  0  0  0  0  0  0
   46.3110   81.8356   31.3334 C   0  0  0  0  0  0  0  0  0  0  0  0
   46.6732   80.4140   30.2000 S   0  0  0  0  0  0  0  0  0  0  0  0
   47.8585   81.3253   29.2131 C   0  0  0  0  0  0  0  0  0  0  0  0
   48.8104   80.9395   28.4549 N   0  0  0  0  0  0  0  0  0  0  0  0
   49.6631   81.8726   27.7726 C   0  0  0  0  0  0  0  0  0  0  0  0
   50.4058   81.4307   26.8603 O   0  0  0  0  0  0  0  0  0  0  0  0
   50.5852   83.8670   30.3770 C   0  0  0  0  0  0  0  0  0  0  0  0
   50.5067   82.7815   31.2406 C   0  0  0  0  0  0  0  0  0  0  0  0
   50.2339   82.9502   32.5820 C   0  0  0  0  0  0  0  0  0  0  0  0
   50.0327   84.2109   33.0986 C   0  0  0  0  0  0  0  0  0  0  0  0
   50.1099   85.2733   32.2501 C   0  0  0  0  0  0  0  0  0  0  0  0
   50.3815   85.1207   30.9059 C   0  0  0  0  0  0  0  0  0  0  0  0
   50.1245   81.4652   33.7757 Br  0  0  0  0  0  0  0  0  0  0  0  0
  2  3  1  0  0  0
  2  6  1  0  0  0
  3  4  1  0  0  0
  4  5  1  0  0  0
  5  6  1  0  0  0
  5 11  1  0  0  0
  6  7  2  0  0  0
  7  8  1  0  0  0
  8  9  2  0  0  0
  8 10  1  0  0  0
 10 11  1  0  0  0
 10  1  1  0  0  0
 11 12  2  0  0  0
  1 13  1  0  0  0
  1 24  1  0  0  0
 13 14  1  0  0  0
 13 22  1  0  0  0
 14 15  2  0  0  0
 14 16  1  0  0  0
 16 17  1  0  0  0
 16 20  1  0  0  0
 17 18  1  0  0  0
 18 19  1  0  0  0
 19 20  1  0  0  0
 20 21  2  0  0  0
 21 22  1  0  0  0
 22 23  2  0  0  0
 24 25  2  0  0  0
 24 29  1  0  0  0
 25 26  1  0  0  0
 26 27  2  0  0  0
 26 30  1  0  0  0
 27 28  1  0  0  0
 28 29  2  0  0  0
M  END
> <minimizedAffinity>
-6.79357

$$$$
1237


 30 34  0  0  0  0  0  0  0  0999 V2000
   50.6189   83.7912   27.3311 C   0  0  0  0  0  0  0  0  0  0  0  0
   46.4491   82.3645   30.3097 S   0  0  0  0  0  0  0  0  0  0  0  0
   47.5281   80.8821   30.5242 C   0  0  0  0  0  0  0  0  0  0  0  0
   48.8104   81.5767   30.8584 C   0  0  0  0  0  0  0  0  0  0  0  0
   48.9686   82.7712   30.1179 N   0  0  0  0  0  0  0  0  0  0  0  0
   47.7883   83.4343   29.7223 C   0  0  0  0  0  0  0  0  0  0  0  0
   47.7650   84.5443   29.0559 N   0  0  0  0  0  0  0  0  0  0  0  0
   49.0031   85.2204   28.7019 C   0  0  0  0  0  0  0  0  0  0  0  0
   48.8586   86.4570   28.5425 O   0  0  0  0  0  0  0  0  0  0  0  0
   50.1829   84.4094   28.5921 C   0  0  0  0  0  0  0  0  0  0  0  0
   50.2045   83.4125   29.7274 C   0  0  0  0  0  0  0  0  0  0  0  0
   51.2616   83.1399   30.3244 O   0  0  0  0  0  0  0  0  0  0  0  0
   50.5109   82.3454   27.0960 C   0  0  0  0  0  0  0  0  0  0  0  0
   49.5579   82.1463   25.9176 C   0  0  0  0  0  0  0  0  0  0  0  0
   48.3214   82.2331   26.0947 O   0  0  0  0  0  0  0  0  0  0  0  0
   50.0833   81.8590   24.6010 N   0  0  0  0  0  0  0  0  0  0  0  0
   49.4047   81.9692   23.3562 C   0  0  0  0  0  0  0  0  0  0  0  0
   50.3615   82.2888   22.2345 C   0  0  0  0  0  0  0  0  0  0  0  0
   51.7432   81.1816   22.7881 S   0  0  0  0  0  0  0  0  0  0  0  0
   51.4194   81.3957   24.5293 C   0  0  0  0  0  0  0  0  0  0  0  0
   52.1691   81.2171   25.5440 N   0  0  0  0  0  0  0  0  0  0  0  0
   51.6515   81.4962   26.8795 C   0  0  0  0  0  0  0  0  0  0  0  0
   52.2670   80.9408   27.8072 O   0  0  0  0  0  0  0  0  0  0  0  0
   51.9061   84.3922   26.8086 C   0  0  0  0  0  0  0  0  0  0  0  0
   52.9954   84.5546   27.6305 C   0  0  0  0  0  0  0  0  0  0  0  0
   54.1430   85.1081   27.1219 C   0  0  0  0  0  0  0  0  0  0  0  0
   54.2606   85.5094   25.8286 C   0  0  0  0  0  0  0  0  0  0  0  0
   53.1893   85.3606   24.9830 C   0  0  0  0  0  0  0  0  0  0  0  0
   52.0220   84.7980   25.5003 C   0  0  0  0  0  0  0  0  0  0  0  0
   55.8700   86.2825   25.1263 Br  0  0  0  0  0  0  0  0  0  0  0  0
  2  3  1  0  0  0
  2  6  1  0  0  0
  3  4  1  0  0  0
  4  5  1  0  0  0
  5  6  1  0  0  0
  5 11  1  0  0  0
  6  7  2  0  0  0
  7  8  1  0  0  0
  8  9  2  0  0  0
  8 10  1  0  0  0
 10 11  1  0  0  0
 10  1  1  0  0  0
 11 12  2  0  0  0
  1 13  1  0  0  0
  1 24  1  0  0  0
 13 14  1  0  0  0
 13 22  1  0  0  0
 14 15  2  0  0  0
 14 16  1  0  0  0
 16 17  1  0  0  0
 16 20  1  0  0  0
 17 18  1  0  0  0
 18 19  1  0  0  0
 19 20  1  0  0  0
 20 21  2  0  0  0
 21 22  1  0  0  0
 22 23  2  0  0  0
 24 25  2  0  0  0
 24 29  1  0  0  0
 25 26  1  0  0  0
 26 27  2  0  0  0
 27 28  1  0  0  0
 27 30  1  0  0  0
 28 29  2  0  0  0
M  END
> <minimizedAffinity>
-6.98378

$$$$
1248


 21 24  0  0  0  0  0  0  0  0999 V2000
   52.1682   87.0057   18.6699 S   0  0  0  0  0  0  0  0  0  0  0  0
   53.0928   85.9159   19.6224 C   0  0  0  0  0  0  0  0  0  0  0  0
   53.8086   86.7615   20.3621 N   0  0  0  0  0  0  0  0  0  0  0  0
   54.5778   85.9417   21.1555 C   0  0  0  0  0  0  0  0  0  0  0  0
   54.3064   84.6683   20.8737 N   0  0  0  0  0  0  0  0  0  0  0  0
   53.3905   84.6123   19.9285 N   0  0  0  0  0  0  0  0  0  0  0  0
   53.6497   88.0125   20.2001 N   0  0  0  0  0  0  0  0  0  0  0  0
   52.7912   88.4793   19.3148 C   0  0  0  0  0  0  0  0  0  0  0  0
   52.4500   89.8619   18.9645 C   0  0  0  0  0  0  0  0  0  0  0  0
   51.5943   90.6632   19.6104 N   0  0  0  0  0  0  0  0  0  0  0  0
   51.5491   91.8527   18.9889 N   0  0  0  0  0  0  0  0  0  0  0  0
   52.3837   91.8208   17.9311 C   0  0  0  0  0  0  0  0  0  0  0  0
   52.9587   90.5474   17.9173 C   0  0  0  0  0  0  0  0  0  0  0  0
   54.2111   89.9750   16.6288 Br  0  0  0  0  0  0  0  0  0  0  0  0
   50.9566   92.6591   19.2919 H   0  0  0  0  0  0  0  0  0  0  0  0
   55.5585   86.3835   22.1681 C   0  0  0  0  0  0  0  0  0  0  0  0
   56.8812   86.2410   21.9641 N   0  0  0  0  0  0  0  0  0  0  0  0
   57.7685   86.6489   22.8986 C   0  0  0  0  0  0  0  0  0  0  0  0
   57.3332   87.2137   24.0656 C   0  0  0  0  0  0  0  0  0  0  0  0
   56.0195   87.3498   24.2530 N   0  0  0  0  0  0  0  0  0  0  0  0
   55.1109   86.9501   23.3366 C   0  0  0  0  0  0  0  0  0  0  0  0
  1  2  1  0  0  0
  1  8  1  0  0  0
  2  3  1  0  0  0
  2  6  2  0  0  0
  3  4  1  0  0  0
  3  7  1  0  0  0
  4  5  2  0  0  0
  4 16  1  0  0  0
  5  6  1  0  0  0
 16 17  2  0  0  0
 16 21  1  0  0  0
 17 18  1  0  0  0
 18 19  2  0  0  0
 19 20  1  0  0  0
 20 21  2  0  0  0
  7  8  2  0  0  0
  8  9  1  0  0  0
  9 10  2  0  0  0
  9 13  1  0  0  0
 10 11  1  0  0  0
 11 12  1  0  0  0
 12 13  2  0  0  0
 13 14  1  0  0  0
 11 15  1  0  0  0
M  END
> <minimizedAffinity>
-8.11583

$$$$
1255


 34 38  0  0  0  0  0  0  0  0999 V2000
   51.1141   84.2705   28.3479 C   0  0  0  0  0  0  0  0  0  0  0  0
   53.5977   81.2931   31.0222 S   0  0  0  0  0  0  0  0  0  0  0  0
   53.4174   82.8097   30.0980 C   0  0  0  0  0  0  0  0  0  0  0  0
   53.8582   83.1494   28.9306 N   0  0  0  0  0  0  0  0  0  0  0  0
   53.5603   84.4649   28.4088 C   0  0  0  0  0  0  0  0  0  0  0  0
   54.2652   85.1037   27.6292 O   0  0  0  0  0  0  0  0  0  0  0  0
   52.2511   85.0959   28.8801 C   0  0  0  0  0  0  0  0  0  0  0  0
   52.3865   84.9925   30.3673 C   0  0  0  0  0  0  0  0  0  0  0  0
   52.2815   85.9854   31.1433 O   0  0  0  0  0  0  0  0  0  0  0  0
   52.6557   83.6704   30.9180 N   0  0  0  0  0  0  0  0  0  0  0  0
   52.2723   83.1664   32.1314 N   0  0  0  0  0  0  0  0  0  0  0  0
   52.6692   81.8482   32.4440 C   0  0  0  0  0  0  0  0  0  0  0  0
   52.4242   81.1422   33.5439 C   0  0  0  0  0  0  0  0  0  0  0  0
   51.6958   83.7218   32.8579 H   0  0  0  0  0  0  0  0  0  0  0  0
   49.7441   84.7745   28.5681 C   0  0  0  0  0  0  0  0  0  0  0  0
   49.4717   85.4956   29.8023 C   0  0  0  0  0  0  0  0  0  0  0  0
   49.3975   86.7713   29.7945 O   0  0  0  0  0  0  0  0  0  0  0  0
   49.2758   84.8014   31.0618 N   0  0  0  0  0  0  0  0  0  0  0  0
   49.4522   85.2831   32.3190 N   0  0  0  0  0  0  0  0  0  0  0  0
   49.1851   84.4028   33.3970 C   0  0  0  0  0  0  0  0  0  0  0  0
   49.2682   84.6128   34.6926 C   0  0  0  0  0  0  0  0  0  0  0  0
   48.6870   82.8693   32.6176 S   0  0  0  0  0  0  0  0  0  0  0  0
   48.8423   83.4653   30.9444 C   0  0  0  0  0  0  0  0  0  0  0  0
   48.6272   82.8753   29.8226 N   0  0  0  0  0  0  0  0  0  0  0  0
   48.8241   83.5659   28.5777 C   0  0  0  0  0  0  0  0  0  0  0  0
   48.2930   83.2427   27.5053 O   0  0  0  0  0  0  0  0  0  0  0  0
   49.7765   86.2830   32.5603 H   0  0  0  0  0  0  0  0  0  0  0  0
   51.3115   83.9366   26.9083 C   0  0  0  0  0  0  0  0  0  0  0  0
   51.3972   84.9224   25.9525 C   0  0  0  0  0  0  0  0  0  0  0  0
   51.5785   84.6200   24.6226 C   0  0  0  0  0  0  0  0  0  0  0  0
   51.6767   83.3030   24.2334 C   0  0  0  0  0  0  0  0  0  0  0  0
   51.5947   82.2717   25.1714 C   0  0  0  0  0  0  0  0  0  0  0  0
   51.4128   82.6165   26.4949 C   0  0  0  0  0  0  0  0  0  0  0  0
   51.9295   82.8501   22.3927 Br  0  0  0  0  0  0  0  0  0  0  0  0
  2  3  1  0  0  0
  2 12  1  0  0  0
  3  4  2  0  0  0
  3 10  1  0  0  0
  4  5  1  0  0  0
  5  6  2  0  0  0
  5  7  1  0  0  0
  7  8  1  0  0  0
  7  1  1  0  0  0
  8  9  2  0  0  0
  8 10  1  0  0  0
 10 11  1  0  0  0
 11 12  1  0  0  0
 12 13  2  0  0  0
  1 15  1  0  0  0
  1 28  1  0  0  0
 15 16  1  0  0  0
 15 25  1  0  0  0
 16 17  2  0  0  0
 16 18  1  0  0  0
 18 19  1  0  0  0
 18 23  1  0  0  0
 19 20  1  0  0  0
 20 21  2  0  0  0
 20 22  1  0  0  0
 22 23  1  0  0  0
 23 24  2  0  0  0
 24 25  1  0  0  0
 25 26  2  0  0  0
 28 29  2  0  0  0
 28 33  1  0  0  0
 29 30  1  0  0  0
 30 31  2  0  0  0
 31 32  1  0  0  0
 31 34  1  0  0  0
 32 33  2  0  0  0
 11 14  1  0  0  0
 19 27  1  0  0  0
M  END
> <minimizedAffinity>
-7.31725

$$$$
1256


 30 33  0  0  0  0  0  0  0  0999 V2000
   54.1128   84.5553   24.6682 S   0  0  0  0  0  0  0  0  0  0  0  0
   53.0719   83.9279   23.4614 C   0  0  0  0  0  0  0  0  0  0  0  0
   52.1618   82.9054   23.4212 N   0  0  0  0  0  0  0  0  0  0  0  0
   51.4449   82.6573   22.3130 C   0  0  0  0  0  0  0  0  0  0  0  0
   50.5974   81.7537   22.1855 O   0  0  0  0  0  0  0  0  0  0  0  0
   51.6991   83.4961   21.2535 C   0  0  0  0  0  0  0  0  0  0  0  0
   52.6038   84.5159   21.2851 C   0  0  0  0  0  0  0  0  0  0  0  0
   53.3204   84.7452   22.4336 N   0  0  0  0  0  0  0  0  0  0  0  0
   54.1748   85.6776   22.6074 N   0  0  0  0  0  0  0  0  0  0  0  0
   54.7956   85.8428   23.7409 C   0  0  0  0  0  0  0  0  0  0  0  0
   55.7691   86.8375   24.1373 N   0  0  0  0  0  0  0  0  0  0  0  0
   57.0933   86.4607   24.4532 C   0  0  0  0  0  0  0  0  0  0  0  0
   57.8815   87.6602   24.9244 C   0  0  0  0  0  0  0  0  0  0  0  0
   57.0750   88.4606   25.7377 O   0  0  0  0  0  0  0  0  0  0  0  0
   56.1209   89.1302   24.9621 C   0  0  0  0  0  0  0  0  0  0  0  0
   55.2781   88.1732   24.1770 C   0  0  0  0  0  0  0  0  0  0  0  0
   52.7545   85.3306   20.0808 C   0  0  0  0  0  0  0  0  0  0  0  0
   52.7197   84.7614   18.9287 O   0  0  0  0  0  0  0  0  0  0  0  0
   52.9464   86.7274   20.0745 N   0  0  0  0  0  0  0  0  0  0  0  0
   53.0095   87.2692   20.9572 H   0  0  0  0  0  0  0  0  0  0  0  0
   53.0704   87.4353   18.8057 C   0  0  0  0  0  0  0  0  0  0  0  0
   53.1053   88.9023   19.0245 C   0  0  0  0  0  0  0  0  0  0  0  0
   54.0881   89.4399   19.8409 C   0  0  0  0  0  0  0  0  0  0  0  0
   54.1040   90.7907   20.0830 C   0  0  0  0  0  0  0  0  0  0  0  0
   53.1739   91.6401   19.5433 C   0  0  0  0  0  0  0  0  0  0  0  0
   52.1907   91.1124   18.7275 C   0  0  0  0  0  0  0  0  0  0  0  0
   52.1783   89.7485   18.4844 C   0  0  0  0  0  0  0  0  0  0  0  0
   50.8611   92.2266   17.9312 Br  0  0  0  0  0  0  0  0  0  0  0  0
   55.0167   88.5767   20.3787 O   0  0  0  0  0  0  0  0  0  0  0  0
   56.3256   89.0768   20.6515 C   0  0  0  0  0  0  0  0  0  0  0  0
  1  2  1  0  0  0
  1 10  1  0  0  0
  2  3  2  0  0  0
  2  8  1  0  0  0
  3  4  1  0  0  0
  4  5  2  0  0  0
  4  6  1  0  0  0
  6  7  2  0  0  0
  7  8  1  0  0  0
  7 17  1  0  0  0
  8  9  1  0  0  0
  9 10  2  0  0  0
 10 11  1  0  0  0
 11 12  1  0  0  0
 11 16  1  0  0  0
 12 13  1  0  0  0
 13 14  1  0  0  0
 14 15  1  0  0  0
 15 16  1  0  0  0
 17 18  2  0  0  0
 17 19  1  0  0  0
 19 21  1  0  0  0
 21 22  1  0  0  0
 22 23  2  0  0  0
 22 27  1  0  0  0
 23 24  1  0  0  0
 23 29  1  0  0  0
 24 25  2  0  0  0
 25 26  1  0  0  0
 26 27  2  0  0  0
 26 28  1  0  0  0
 29 30  1  0  0  0
 19 20  1  0  0  0
M  END
> <minimizedAffinity>
-8.79831

$$$$
1265


 24 27  0  0  0  0  0  0  0  0999 V2000
   51.0115  101.3899   26.7206 S   0  0  0  0  0  0  0  0  0  0  0  0
   49.9875  100.2971   27.6974 C   0  0  0  0  0  0  0  0  0  0  0  0
   48.8478  100.2331   28.3051 N   0  0  0  0  0  0  0  0  0  0  0  0
   48.6564   98.9764   28.9261 C   0  0  0  0  0  0  0  0  0  0  0  0
   49.8965   98.2064   28.6102 C   0  0  0  0  0  0  0  0  0  0  0  0
   50.7402   99.1130   27.7957 N   0  0  0  0  0  0  0  0  0  0  0  0
   51.9837   99.1117   27.1529 C   0  0  0  0  0  0  0  0  0  0  0  0
   52.3371  100.2083   26.5211 C   0  0  0  0  0  0  0  0  0  0  0  0
   52.9244   97.9440   27.1282 C   0  0  0  0  0  0  0  0  0  0  0  0
   54.2852   98.1143   27.2495 C   0  0  0  0  0  0  0  0  0  0  0  0
   55.1937   97.0776   27.2292 C   0  0  0  0  0  0  0  0  0  0  0  0
   54.7558   95.7817   27.0807 C   0  0  0  0  0  0  0  0  0  0  0  0
   53.4090   95.5867   26.9573 C   0  0  0  0  0  0  0  0  0  0  0  0
   52.4899   96.6524   26.9791 C   0  0  0  0  0  0  0  0  0  0  0  0
   47.9085  101.3688   28.2966 C   0  0  0  0  0  0  0  0  0  0  0  0
   47.5466  101.6380   29.7026 C   0  0  0  0  0  0  0  0  0  0  0  0
   46.5418  101.1157   30.2261 O   0  0  0  0  0  0  0  0  0  0  0  0
   48.3672  102.5295   30.5095 C   0  0  0  0  0  0  0  0  0  0  0  0
   49.5333  102.0719   31.1261 C   0  0  0  0  0  0  0  0  0  0  0  0
   50.3266  102.8945   31.9040 C   0  0  0  0  0  0  0  0  0  0  0  0
   49.9319  104.1970   32.0575 C   0  0  0  0  0  0  0  0  0  0  0  0
   48.7864  104.6985   31.4673 C   0  0  0  0  0  0  0  0  0  0  0  0
   48.0020  103.8476   30.6858 C   0  0  0  0  0  0  0  0  0  0  0  0
   51.0400  105.3303   33.1378 Br  0  0  0  0  0  0  0  0  0  0  0  0
  1  2  1  0  0  0
  1  8  1  0  0  0
  2  3  2  0  0  0
  2  6  1  0  0  0
  3  4  1  0  0  0
  3 15  1  0  0  0
  4  5  1  0  0  0
  5  6  1  0  0  0
  6  7  1  0  0  0
  7  8  2  0  0  0
  7  9  1  0  0  0
  9 10  2  0  0  0
  9 14  1  0  0  0
 10 11  1  0  0  0
 11 12  2  0  0  0
 12 13  1  0  0  0
 13 14  2  0  0  0
 15 16  1  0  0  0
 16 17  2  0  0  0
 16 18  1  0  0  0
 18 19  2  0  0  0
 18 23  1  0  0  0
 19 20  1  0  0  0
 20 21  2  0  0  0
 21 22  1  0  0  0
 21 24  1  0  0  0
 22 23  2  0  0  0
M  END
> <minimizedAffinity>
-8.59896

$$$$
1266


 28 31  0  0  0  0  0  0  0  0999 V2000
   50.4503  100.9300   28.6772 C   0  0  0  0  0  0  0  0  0  0  0  0
   50.1903  101.4479   27.3395 N   0  0  0  0  0  0  0  0  0  0  0  0
   51.1381  101.2666   26.3433 C   0  0  0  0  0  0  0  0  0  0  0  0
   52.1011  100.1019   26.4372 C   0  0  0  0  0  0  0  0  0  0  0  0
   52.3509   99.6834   27.7473 N   0  0  0  0  0  0  0  0  0  0  0  0
   51.8251  100.4654   28.8253 C   0  0  0  0  0  0  0  0  0  0  0  0
   53.0862   98.5341   28.1358 C   0  0  0  0  0  0  0  0  0  0  0  0
   53.2777   98.4921   29.4341 O   0  0  0  0  0  0  0  0  0  0  0  0
   49.2228  101.2106   27.0407 H   0  0  0  0  0  0  0  0  0  0  0  0
   53.6372   97.4417   27.4187 C   0  0  0  0  0  0  0  0  0  0  0  0
   52.7645   96.3748   27.0932 C   0  0  0  0  0  0  0  0  0  0  0  0
   53.1619   95.3734   26.3090 N   0  0  0  0  0  0  0  0  0  0  0  0
   54.3928   95.3264   25.7960 C   0  0  0  0  0  0  0  0  0  0  0  0
   55.2811   96.3293   26.0750 C   0  0  0  0  0  0  0  0  0  0  0  0
   54.9053   97.3939   26.8913 C   0  0  0  0  0  0  0  0  0  0  0  0
   56.5921   96.3078   25.5026 N   0  0  0  0  0  0  0  0  0  0  0  0
   56.9421   95.2228   24.6420 C   0  0  0  0  0  0  0  0  0  0  0  0
   57.8286   95.2769   23.7653 O   0  0  0  0  0  0  0  0  0  0  0  0
   56.1847   93.9453   24.8165 C   0  0  0  0  0  0  0  0  0  0  0  0
   54.7932   94.2645   24.9772 O   0  0  0  0  0  0  0  0  0  0  0  0
   57.2795   97.0532   25.6901 H   0  0  0  0  0  0  0  0  0  0  0  0
   47.7548  102.0076   29.0345 Cl  0  0  0  0  0  0  0  0  0  0  0  0
   48.0720  100.2612   28.9792 C   0  0  0  0  0  0  0  0  0  0  0  0
   49.4123   99.8571   28.8718 C   0  0  0  0  0  0  0  0  0  0  0  0
   49.6533   98.5149   28.8325 C   0  0  0  0  0  0  0  0  0  0  0  0
   48.6064   97.6123   28.8979 C   0  0  0  0  0  0  0  0  0  0  0  0
   47.2843   98.0081   29.0043 C   0  0  0  0  0  0  0  0  0  0  0  0
   47.0200   99.3731   29.0449 C   0  0  0  0  0  0  0  0  0  0  0  0
 22 23  1  0  0  0
 23 24  2  0  0  0
 23 28  1  0  0  0
 24 25  1  0  0  0
 24  1  1  0  0  0
 25 26  2  0  0  0
 26 27  1  0  0  0
 27 28  2  0  0  0
  1  2  1  0  0  0
  1  6  1  0  0  0
  2  3  1  0  0  0
  3  4  1  0  0  0
  4  5  1  0  0  0
  5  6  1  0  0  0
  5  7  1  0  0  0
  7  8  2  0  0  0
  7 10  1  0  0  0
 10 11  2  0  0  0
 10 15  1  0  0  0
 11 12  1  0  0  0
 12 13  2  0  0  0
 13 14  1  0  0  0
 13 20  1  0  0  0
 14 15  2  0  0  0
 14 16  1  0  0  0
 16 17  1  0  0  0
 17 18  2  0  0  0
 17 19  1  0  0  0
 19 20  1  0  0  0
  2  9  1  0  0  0
 16 21  1  0  0  0
M  END
> <minimizedAffinity>
-9.65400

$$$$
1271


 35 38  0  0  0  0  0  0  0  0999 V2000
   55.2334   89.5474   22.1805 C   0  0  0  0  0  0  0  0  0  0  0  0
   55.1892   88.8463   23.3211 N   0  0  0  0  0  0  0  0  0  0  0  0
   54.8919   87.6155   22.9914 N   0  0  0  0  0  0  0  0  0  0  0  0
   54.7440   87.5088   21.6734 N   0  0  0  0  0  0  0  0  0  0  0  0
   54.9457   88.6888   21.1081 C   0  0  0  0  0  0  0  0  0  0  0  0
   54.3951   86.3036   21.0192 C   0  0  0  0  0  0  0  0  0  0  0  0
   55.2115   85.2134   20.9891 N   0  0  0  0  0  0  0  0  0  0  0  0
   54.6043   84.2893   20.3139 O   0  0  0  0  0  0  0  0  0  0  0  0
   53.4569   84.6879   19.8969 N   0  0  0  0  0  0  0  0  0  0  0  0
   53.2821   85.9484   20.3162 C   0  0  0  0  0  0  0  0  0  0  0  0
   52.1721   86.7763   20.0909 N   0  0  0  0  0  0  0  0  0  0  0  0
   51.7832   87.0430   19.1599 H   0  0  0  0  0  0  0  0  0  0  0  0
   51.6725   87.1762   20.9146 H   0  0  0  0  0  0  0  0  0  0  0  0
   55.0336   91.9065   23.0267 N   0  0  0  0  0  0  0  0  0  0  0  0
   55.5457   90.9626   22.1057 C   0  0  0  0  0  0  0  0  0  0  0  0
   56.3007   91.3580   21.1882 O   0  0  0  0  0  0  0  0  0  0  0  0
   54.3899   91.6321   23.8162 H   0  0  0  0  0  0  0  0  0  0  0  0
   55.3464   93.2637   22.9491 N   0  0  0  0  0  0  0  0  0  0  0  0
   55.7043   93.7489   22.1091 H   0  0  0  0  0  0  0  0  0  0  0  0
   55.1579   94.0718   24.1305 C   0  0  0  0  0  0  0  0  0  0  0  0
   54.0901   93.8718   24.8613 C   0  0  0  0  0  0  0  0  0  0  0  0
   56.4889   98.2932   27.0828 Br  0  0  0  0  0  0  0  0  0  0  0  0
   56.8320   96.9834   25.7470 C   0  0  0  0  0  0  0  0  0  0  0  0
   55.8930   96.0335   25.4276 C   0  0  0  0  0  0  0  0  0  0  0  0
   56.1522   95.0784   24.4456 C   0  0  0  0  0  0  0  0  0  0  0  0
   57.3695   95.1392   23.8324 C   0  0  0  0  0  0  0  0  0  0  0  0
   58.3264   96.1026   24.1524 C   0  0  0  0  0  0  0  0  0  0  0  0
   58.0615   97.0298   25.1128 C   0  0  0  0  0  0  0  0  0  0  0  0
   54.8743   89.1525   19.7414 C   0  0  0  0  0  0  0  0  0  0  0  0
   53.5466   89.2688   19.1702 N   0  0  0  0  0  0  0  0  0  0  0  0
   53.0935   90.6563   19.1930 C   0  0  0  0  0  0  0  0  0  0  0  0
   54.1503   91.6039   18.6701 C   0  0  0  0  0  0  0  0  0  0  0  0
   54.5529   91.2035   17.2620 C   0  0  0  0  0  0  0  0  0  0  0  0
   53.7667   90.0107   16.7972 C   0  0  0  0  0  0  0  0  0  0  0  0
   53.5938   88.9032   17.7575 C   0  0  0  0  0  0  0  0  0  0  0  0
 22 23  1  0  0  0
 23 24  2  0  0  0
 23 28  1  0  0  0
 24 25  1  0  0  0
 25 26  2  0  0  0
 25 20  1  0  0  0
 26 27  1  0  0  0
 27 28  2  0  0  0
 20 21  2  0  0  0
 20 18  1  0  0  0
 18 14  1  0  0  0
 14 15  1  0  0  0
 15 16  2  0  0  0
 15  1  1  0  0  0
  1  2  1  0  0  0
  1  5  2  0  0  0
  2  3  2  0  0  0
  3  4  1  0  0  0
  4  5  1  0  0  0
  4  6  1  0  0  0
  5 29  1  0  0  0
 29 30  1  0  0  0
 30 31  1  0  0  0
 30 35  1  0  0  0
 31 32  1  0  0  0
 32 33  1  0  0  0
 33 34  1  0  0  0
 34 35  1  0  0  0
  6  7  2  0  0  0
  6 10  1  0  0  0
  7  8  1  0  0  0
  8  9  1  0  0  0
  9 10  2  0  0  0
 10 11  1  0  0  0
 18 19  1  0  0  0
 14 17  1  0  0  0
 11 12  1  0  0  0
 11 13  1  0  0  0
M  END
> <minimizedAffinity>
-9.77822

$$$$
1280


 35 38  0  0  0  0  0  0  0  0999 V2000
   54.0623   84.7528   20.2849 C   0  0  0  0  0  0  0  0  0  0  0  0
   53.5756   84.8567   18.9238 N   0  0  0  0  0  0  0  0  0  0  0  0
   52.7696   86.0207   18.8615 C   0  0  0  0  0  0  0  0  0  0  0  0
   51.8472   86.2109   18.0622 O   0  0  0  0  0  0  0  0  0  0  0  0
   53.2556   86.9217   19.9209 C   0  0  0  0  0  0  0  0  0  0  0  0
   52.8276   88.0652   20.2110 O   0  0  0  0  0  0  0  0  0  0  0  0
   54.3482   86.2003   20.5614 C   0  0  0  0  0  0  0  0  0  0  0  0
   55.3669   86.7568   21.2013 C   0  0  0  0  0  0  0  0  0  0  0  0
   56.3356   85.8551   21.7018 O   0  0  0  0  0  0  0  0  0  0  0  0
   52.0128   84.4348   25.2262 Br  0  0  0  0  0  0  0  0  0  0  0  0
   52.0163   83.9793   23.3594 C   0  0  0  0  0  0  0  0  0  0  0  0
   53.0027   84.4921   22.5090 C   0  0  0  0  0  0  0  0  0  0  0  0
   53.0273   84.1790   21.1574 C   0  0  0  0  0  0  0  0  0  0  0  0
   52.0428   83.3474   20.6995 C   0  0  0  0  0  0  0  0  0  0  0  0
   51.0557   82.8295   21.5280 C   0  0  0  0  0  0  0  0  0  0  0  0
   51.0448   83.1478   22.8651 C   0  0  0  0  0  0  0  0  0  0  0  0
   55.5203   88.1937   21.4004 C   0  0  0  0  0  0  0  0  0  0  0  0
   55.3365   88.8322   22.5905 C   0  0  0  0  0  0  0  0  0  0  0  0
   55.4562   90.2308   22.6830 C   0  0  0  0  0  0  0  0  0  0  0  0
   55.7596   91.0167   21.6044 C   0  0  0  0  0  0  0  0  0  0  0  0
   55.9475   90.3730   20.4000 C   0  0  0  0  0  0  0  0  0  0  0  0
   55.8336   89.0113   20.2982 C   0  0  0  0  0  0  0  0  0  0  0  0
   55.0537   88.0582   23.8219 C   0  0  0  0  0  0  0  0  0  0  0  0
   55.8808   92.4037   21.6908 O   0  0  0  0  0  0  0  0  0  0  0  0
   54.9555   93.1582   22.4301 C   0  0  0  0  0  0  0  0  0  0  0  0
   53.8848   83.9113   17.8716 C   0  0  0  0  0  0  0  0  0  0  0  0
   54.7945   82.8055   18.3057 C   0  0  0  0  0  0  0  0  0  0  0  0
   54.7723   81.5822   17.4709 C   0  0  0  0  0  0  0  0  0  0  0  0
   53.8840   81.6088   16.3640 N   0  0  0  0  0  0  0  0  0  0  0  0
   54.5625   81.5238   15.0602 C   0  0  0  0  0  0  0  0  0  0  0  0
   53.5791   82.1274   14.0553 C   0  0  0  0  0  0  0  0  0  0  0  0
   52.3169   82.2907   14.5971 O   0  0  0  0  0  0  0  0  0  0  0  0
   51.8758   81.1125   15.2002 C   0  0  0  0  0  0  0  0  0  0  0  0
   52.8206   80.6717   16.3333 C   0  0  0  0  0  0  0  0  0  0  0  0
   53.4343   82.5748   16.3569 H   0  0  0  0  0  0  0  0  0  0  0  0
 10 11  1  0  0  0
 11 12  2  0  0  0
 11 16  1  0  0  0
 12 13  1  0  0  0
 13 14  2  0  0  0
 13  1  1  0  0  0
 14 15  1  0  0  0
 15 16  2  0  0  0
  1  2  1  0  0  0
  1  7  1  0  0  0
  2  3  1  0  0  0
  2 26  1  0  0  0
  3  4  2  0  0  0
  3  5  1  0  0  0
  5  6  2  0  0  0
  5  7  1  0  0  0
  7  8  2  0  0  0
  8  9  1  0  0  0
  8 17  1  0  0  0
 17 18  2  0  0  0
 17 22  1  0  0  0
 18 19  1  0  0  0
 18 23  1  0  0  0
 19 20  2  0  0  0
 20 21  1  0  0  0
 20 24  1  0  0  0
 21 22  2  0  0  0
 24 25  1  0  0  0
 26 27  1  0  0  0
 27 28  1  0  0  0
 28 29  1  0  0  0
 29 30  1  0  0  0
 29 34  1  0  0  0
 30 31  1  0  0  0
 31 32  1  0  0  0
 32 33  1  0  0  0
 33 34  1  0  0  0
 29 35  1  0  0  0
M  CHG 1   9  -1
M  CHG 1  29   1
M  END
> <minimizedAffinity>
-8.55997

$$$$
1282


 30 33  0  0  0  0  0  0  0  0999 V2000
   51.1272   98.1835   28.4091 C   0  0  0  0  0  0  0  0  0  0  0  0
   49.6180   98.0375   28.3784 C   0  0  0  0  0  0  0  0  0  0  0  0
   49.1571   99.3793   28.6775 N   0  0  0  0  0  0  0  0  0  0  0  0
   50.2591  100.3197   28.6741 C   0  0  0  0  0  0  0  0  0  0  0  0
   51.3105   99.5655   27.8490 C   0  0  0  0  0  0  0  0  0  0  0  0
   49.8238  101.5456   28.0071 C   0  0  0  0  0  0  0  0  0  0  0  0
   50.4659  102.0355   27.0666 O   0  0  0  0  0  0  0  0  0  0  0  0
   48.6353  102.1662   28.4706 N   0  0  0  0  0  0  0  0  0  0  0  0
   47.6159  101.3641   29.1084 C   0  0  0  0  0  0  0  0  0  0  0  0
   47.8553   99.9105   28.9644 C   0  0  0  0  0  0  0  0  0  0  0  0
   46.8966   99.1046   29.0944 O   0  0  0  0  0  0  0  0  0  0  0  0
   48.4599  103.1913   28.3690 H   0  0  0  0  0  0  0  0  0  0  0  0
   53.1681   97.2744   27.4138 C   0  0  0  0  0  0  0  0  0  0  0  0
   53.8022   98.2611   27.9409 O   0  0  0  0  0  0  0  0  0  0  0  0
   51.7767   97.1611   27.6086 N   0  0  0  0  0  0  0  0  0  0  0  0
   51.2626   96.3767   27.1850 H   0  0  0  0  0  0  0  0  0  0  0  0
   57.6518   96.1612   24.7843 Br  0  0  0  0  0  0  0  0  0  0  0  0
   55.9056   95.7165   25.4281 C   0  0  0  0  0  0  0  0  0  0  0  0
   55.1907   96.6233   26.1603 C   0  0  0  0  0  0  0  0  0  0  0  0
   53.9218   96.3092   26.6316 C   0  0  0  0  0  0  0  0  0  0  0  0
   53.4188   95.0788   26.3447 C   0  0  0  0  0  0  0  0  0  0  0  0
   54.1517   94.1665   25.6020 C   0  0  0  0  0  0  0  0  0  0  0  0
   55.4049   94.4799   25.1364 C   0  0  0  0  0  0  0  0  0  0  0  0
   47.3818  101.7618   30.5502 C   0  0  0  0  0  0  0  0  0  0  0  0
   48.3841  102.7113   31.0612 C   0  0  0  0  0  0  0  0  0  0  0  0
   49.5384  102.2378   31.6583 C   0  0  0  0  0  0  0  0  0  0  0  0
   50.4799  103.1187   32.1384 C   0  0  0  0  0  0  0  0  0  0  0  0
   50.3297  104.4900   32.0541 C   0  0  0  0  0  0  0  0  0  0  0  0
   49.1803  104.9651   31.4596 C   0  0  0  0  0  0  0  0  0  0  0  0
   48.2241  104.0955   30.9718 C   0  0  0  0  0  0  0  0  0  0  0  0
 17 18  1  0  0  0
 18 19  2  0  0  0
 18 23  1  0  0  0
 19 20  1  0  0  0
 20 21  2  0  0  0
 20 13  1  0  0  0
 21 22  1  0  0  0
 22 23  2  0  0  0
 13 14  2  0  0  0
 13 15  1  0  0  0
 15  1  1  0  0  0
  1  2  1  0  0  0
  1  5  1  0  0  0
  2  3  1  0  0  0
  3  4  1  0  0  0
  3 10  1  0  0  0
  4  5  1  0  0  0
  4  6  1  0  0  0
  6  7  2  0  0  0
  6  8  1  0  0  0
  8  9  1  0  0  0
  9 10  1  0  0  0
  9 24  1  0  0  0
 10 11  2  0  0  0
 24 25  1  0  0  0
 25 26  2  0  0  0
 25 30  1  0  0  0
 26 27  1  0  0  0
 27 28  2  0  0  0
 28 29  1  0  0  0
 29 30  2  0  0  0
 15 16  1  0  0  0
  8 12  1  0  0  0
M  END
> <minimizedAffinity>
-11.07012

$$$$
1284


 35 38  0  0  0  0  0  0  0  0999 V2000
   52.1714   83.3104   27.4631 C   0  0  0  0  0  0  0  0  0  0  0  0
   53.0181   82.3392   28.0481 N   0  0  0  0  0  0  0  0  0  0  0  0
   54.0269   81.9654   27.1242 C   0  0  0  0  0  0  0  0  0  0  0  0
   54.8843   81.0474   27.3139 O   0  0  0  0  0  0  0  0  0  0  0  0
   53.9115   82.8056   25.9520 C   0  0  0  0  0  0  0  0  0  0  0  0
   54.6899   82.6807   24.9681 O   0  0  0  0  0  0  0  0  0  0  0  0
   52.7996   83.7093   26.1765 C   0  0  0  0  0  0  0  0  0  0  0  0
   52.4240   84.6516   25.3417 C   0  0  0  0  0  0  0  0  0  0  0  0
   51.3095   85.4026   25.6366 O   0  0  0  0  0  0  0  0  0  0  0  0
   47.3638   82.8250   29.6969 Br  0  0  0  0  0  0  0  0  0  0  0  0
   48.5960   82.5497   28.2650 C   0  0  0  0  0  0  0  0  0  0  0  0
   49.8935   82.9611   28.2907 C   0  0  0  0  0  0  0  0  0  0  0  0
   50.8166   82.7817   27.2747 C   0  0  0  0  0  0  0  0  0  0  0  0
   50.3808   82.1233   26.1279 C   0  0  0  0  0  0  0  0  0  0  0  0
   49.0699   81.6910   26.0684 C   0  0  0  0  0  0  0  0  0  0  0  0
   48.1708   81.8868   27.1022 C   0  0  0  0  0  0  0  0  0  0  0  0
   53.1610   84.9159   24.1312 C   0  0  0  0  0  0  0  0  0  0  0  0
   52.7738   84.4563   22.8600 C   0  0  0  0  0  0  0  0  0  0  0  0
   53.6465   84.9027   21.9483 N   0  0  0  0  0  0  0  0  0  0  0  0
   54.5516   85.6139   22.5948 N   0  0  0  0  0  0  0  0  0  0  0  0
   54.2944   85.6481   23.9108 C   0  0  0  0  0  0  0  0  0  0  0  0
   51.5705   83.6094   22.6143 C   0  0  0  0  0  0  0  0  0  0  0  0
   53.6155   84.6789   20.5458 C   0  0  0  0  0  0  0  0  0  0  0  0
   52.9961   85.6187   19.7328 C   0  0  0  0  0  0  0  0  0  0  0  0
   52.9380   85.4712   18.3613 C   0  0  0  0  0  0  0  0  0  0  0  0
   53.5057   84.3615   17.7337 C   0  0  0  0  0  0  0  0  0  0  0  0
   54.1228   83.4251   18.5438 C   0  0  0  0  0  0  0  0  0  0  0  0
   54.1669   83.5946   19.9036 C   0  0  0  0  0  0  0  0  0  0  0  0
   52.9217   81.7832   29.4271 C   0  0  0  0  0  0  0  0  0  0  0  0
   53.2025   82.8709   30.4316 C   0  0  0  0  0  0  0  0  0  0  0  0
   52.1445   83.0017   31.4810 C   0  0  0  0  0  0  0  0  0  0  0  0
   51.6041   84.3067   31.6730 N   0  0  0  0  0  0  0  0  0  0  0  0
   51.8054   85.2396   30.6136 C   0  0  0  0  0  0  0  0  0  0  0  0
   50.1560   84.2235   31.9229 C   0  0  0  0  0  0  0  0  0  0  0  0
   51.9980   84.7264   32.5690 H   0  0  0  0  0  0  0  0  0  0  0  0
 10 11  1  0  0  0
 11 12  2  0  0  0
 11 16  1  0  0  0
 12 13  1  0  0  0
 13 14  2  0  0  0
 13  1  1  0  0  0
 14 15  1  0  0  0
 15 16  2  0  0  0
  1  2  1  0  0  0
  1  7  1  0  0  0
  2  3  1  0  0  0
  2 29  1  0  0  0
  3  4  2  0  0  0
  3  5  1  0  0  0
  5  6  2  0  0  0
  5  7  1  0  0  0
  7  8  2  0  0  0
  8  9  1  0  0  0
  8 17  1  0  0  0
 17 18  2  0  0  0
 17 21  1  0  0  0
 18 19  1  0  0  0
 18 22  1  0  0  0
 19 20  1  0  0  0
 19 23  1  0  0  0
 20 21  2  0  0  0
 23 24  2  0  0  0
 23 28  1  0  0  0
 24 25  1  0  0  0
 25 26  2  0  0  0
 26 27  1  0  0  0
 27 28  2  0  0  0
 29 30  1  0  0  0
 30 31  1  0  0  0
 31 32  1  0  0  0
 32 33  1  0  0  0
 32 34  1  0  0  0
 32 35  1  0  0  0
M  CHG 1   9  -1
M  CHG 1  32   1
M  END
> <minimizedAffinity>
-7.08273

$$$$
1285


 34 37  0  0  0  0  0  0  0  0999 V2000
   52.0411   83.6846   27.4513 C   0  0  0  0  0  0  0  0  0  0  0  0
   53.0323   83.5201   28.4965 N   0  0  0  0  0  0  0  0  0  0  0  0
   54.2364   83.0030   27.8892 C   0  0  0  0  0  0  0  0  0  0  0  0
   55.1416   82.3566   28.4295 O   0  0  0  0  0  0  0  0  0  0  0  0
   54.1490   83.4127   26.4907 C   0  0  0  0  0  0  0  0  0  0  0  0
   54.9694   83.1899   25.5511 O   0  0  0  0  0  0  0  0  0  0  0  0
   52.9115   84.1546   26.3138 C   0  0  0  0  0  0  0  0  0  0  0  0
   52.5917   85.0090   25.3555 C   0  0  0  0  0  0  0  0  0  0  0  0
   51.2784   85.5591   25.3752 O   0  0  0  0  0  0  0  0  0  0  0  0
   53.5309   85.3865   24.3289 C   0  0  0  0  0  0  0  0  0  0  0  0
   54.4848   86.3404   24.3748 N   0  0  0  0  0  0  0  0  0  0  0  0
   55.1601   86.3289   23.1994 C   0  0  0  0  0  0  0  0  0  0  0  0
   54.6404   85.3637   22.3915 N   0  0  0  0  0  0  0  0  0  0  0  0
   53.6374   84.7910   23.0981 C   0  0  0  0  0  0  0  0  0  0  0  0
   52.7890   83.6784   22.5884 C   0  0  0  0  0  0  0  0  0  0  0  0
   56.1926   87.1746   22.8869 C   0  0  0  0  0  0  0  0  0  0  0  0
   56.5675   88.1017   23.8341 C   0  0  0  0  0  0  0  0  0  0  0  0
   55.8817   88.1189   25.0316 C   0  0  0  0  0  0  0  0  0  0  0  0
   54.8574   87.2490   25.2922 C   0  0  0  0  0  0  0  0  0  0  0  0
   56.9027   87.1158   21.5765 C   0  0  0  0  0  0  0  0  0  0  0  0
   49.8308   80.9620   23.4954 Br  0  0  0  0  0  0  0  0  0  0  0  0
   50.3128   81.1687   25.3324 C   0  0  0  0  0  0  0  0  0  0  0  0
   50.9705   82.2872   25.7402 C   0  0  0  0  0  0  0  0  0  0  0  0
   51.3304   82.4535   27.0809 C   0  0  0  0  0  0  0  0  0  0  0  0
   50.9987   81.4512   27.9667 C   0  0  0  0  0  0  0  0  0  0  0  0
   50.3270   80.3086   27.5499 C   0  0  0  0  0  0  0  0  0  0  0  0
   49.9866   80.1757   26.2242 C   0  0  0  0  0  0  0  0  0  0  0  0
   52.8620   83.8109   29.9099 C   0  0  0  0  0  0  0  0  0  0  0  0
   51.7810   84.7920   30.2086 C   0  0  0  0  0  0  0  0  0  0  0  0
   50.4808   84.1811   30.6675 C   0  0  0  0  0  0  0  0  0  0  0  0
   49.3734   84.9772   30.1933 N   0  0  0  0  0  0  0  0  0  0  0  0
   49.8540   86.1990   29.5748 C   0  0  0  0  0  0  0  0  0  0  0  0
   48.6849   84.2326   29.1573 C   0  0  0  0  0  0  0  0  0  0  0  0
   48.6666   85.1642   30.9371 H   0  0  0  0  0  0  0  0  0  0  0  0
 21 22  1  0  0  0
 22 23  2  0  0  0
 22 27  1  0  0  0
 23 24  1  0  0  0
 24 25  2  0  0  0
 24  1  1  0  0  0
 25 26  1  0  0  0
 26 27  2  0  0  0
  1  2  1  0  0  0
  1  7  1  0  0  0
  2  3  1  0  0  0
  2 28  1  0  0  0
  3  4  2  0  0  0
  3  5  1  0  0  0
  5  6  2  0  0  0
  5  7  1  0  0  0
  7  8  2  0  0  0
  8  9  1  0  0  0
  8 10  1  0  0  0
 10 11  1  0  0  0
 10 14  2  0  0  0
 11 12  1  0  0  0
 11 19  1  0  0  0
 12 13  2  0  0  0
 12 16  1  0  0  0
 13 14  1  0  0  0
 14 15  1  0  0  0
 16 17  2  0  0  0
 16 20  1  0  0  0
 17 18  1  0  0  0
 18 19  2  0  0  0
 28 29  1  0  0  0
 29 30  1  0  0  0
 30 31  1  0  0  0
 31 32  1  0  0  0
 31 33  1  0  0  0
 31 34  1  0  0  0
M  CHG 1   9  -1
M  CHG 1  31   1
M  END
> <minimizedAffinity>
-7.48128

$$$$
1295


 26 29  0  0  0  0  0  0  0  0999 V2000
   54.1227   86.3518   20.4401 C   0  0  0  0  0  0  0  0  0  0  0  0
   54.3762   86.4499   21.8606 C   0  0  0  0  0  0  0  0  0  0  0  0
   53.9577   85.4766   22.7238 C   0  0  0  0  0  0  0  0  0  0  0  0
   53.2715   84.3019   22.2735 N   0  0  0  0  0  0  0  0  0  0  0  0
   53.0536   84.2101   20.8714 C   0  0  0  0  0  0  0  0  0  0  0  0
   53.4456   85.1231   20.0272 C   0  0  0  0  0  0  0  0  0  0  0  0
   53.0844   84.6845   18.6439 C   0  0  0  0  0  0  0  0  0  0  0  0
   53.3427   85.3750   17.6127 O   0  0  0  0  0  0  0  0  0  0  0  0
   52.4737   83.4812   18.7808 O   0  0  0  0  0  0  0  0  0  0  0  0
   52.3587   83.0965   20.1085 C   0  0  0  0  0  0  0  0  0  0  0  0
   54.2075   85.6121   24.0662 N   0  0  0  0  0  0  0  0  0  0  0  0
   54.8550   86.6850   24.5334 C   0  0  0  0  0  0  0  0  0  0  0  0
   55.0743   86.7891   25.7736 O   0  0  0  0  0  0  0  0  0  0  0  0
   55.2629   87.6363   23.6771 N   0  0  0  0  0  0  0  0  0  0  0  0
   55.0604   87.5811   22.3628 C   0  0  0  0  0  0  0  0  0  0  0  0
   55.4385   88.4652   21.5546 O   0  0  0  0  0  0  0  0  0  0  0  0
   55.9671   88.7920   24.2347 C   0  0  0  0  0  0  0  0  0  0  0  0
   53.7359   84.5423   24.9331 C   0  0  0  0  0  0  0  0  0  0  0  0
   52.9693   83.5884   22.9607 H   0  0  0  0  0  0  0  0  0  0  0  0
   51.6335   91.3621   17.8454 Br  0  0  0  0  0  0  0  0  0  0  0  0
   52.4430   89.8096   18.6412 C   0  0  0  0  0  0  0  0  0  0  0  0
   53.7935   89.5915   18.5497 C   0  0  0  0  0  0  0  0  0  0  0  0
   54.3516   88.4455   19.1430 C   0  0  0  0  0  0  0  0  0  0  0  0
   53.5725   87.5477   19.8090 C   0  0  0  0  0  0  0  0  0  0  0  0
   52.2219   87.7757   19.8948 C   0  0  0  0  0  0  0  0  0  0  0  0
   51.6519   88.9175   19.3050 C   0  0  0  0  0  0  0  0  0  0  0  0
 20 21  1  0  0  0
 21 22  2  0  0  0
 21 26  1  0  0  0
 22 23  1  0  0  0
 23 24  2  0  0  0
 24 25  1  0  0  0
 24  1  1  0  0  0
 25 26  2  0  0  0
  1  2  1  0  0  0
  1  6  1  0  0  0
  2  3  2  0  0  0
  2 15  1  0  0  0
  3  4  1  0  0  0
  3 11  1  0  0  0
  4  5  1  0  0  0
  5  6  2  0  0  0
  5 10  1  0  0  0
  6  7  1  0  0  0
  7  8  2  0  0  0
  7  9  1  0  0  0
  9 10  1  0  0  0
 11 12  1  0  0  0
 11 18  1  0  0  0
 12 13  2  0  0  0
 12 14  1  0  0  0
 14 15  1  0  0  0
 14 17  1  0  0  0
 15 16  2  0  0  0
  4 19  1  0  0  0
M  END
> <minimizedAffinity>
-7.79354

$$$$
1299


 36 39  0  0  0  0  0  0  0  0999 V2000
   55.1886   88.2320   21.9085 C   0  0  0  0  0  0  0  0  0  0  0  0
   55.4254   88.3917   23.2500 N   0  0  0  0  0  0  0  0  0  0  0  0
   55.5516   89.6892   23.4346 N   0  0  0  0  0  0  0  0  0  0  0  0
   55.4138   90.3485   22.3317 N   0  0  0  0  0  0  0  0  0  0  0  0
   55.1794   89.4673   21.3184 C   0  0  0  0  0  0  0  0  0  0  0  0
   55.5153   87.3747   24.2264 C   0  0  0  0  0  0  0  0  0  0  0  0
   54.5967   86.9638   25.1355 N   0  0  0  0  0  0  0  0  0  0  0  0
   55.0963   86.0064   25.8311 O   0  0  0  0  0  0  0  0  0  0  0  0
   56.3059   85.7151   25.4718 N   0  0  0  0  0  0  0  0  0  0  0  0
   56.6116   86.5633   24.4533 C   0  0  0  0  0  0  0  0  0  0  0  0
   57.8537   86.5759   23.7702 N   0  0  0  0  0  0  0  0  0  0  0  0
   57.8578   86.8532   22.7711 H   0  0  0  0  0  0  0  0  0  0  0  0
   58.7587   86.3257   24.2095 H   0  0  0  0  0  0  0  0  0  0  0  0
   53.7969   86.3664   20.8254 N   0  0  0  0  0  0  0  0  0  0  0  0
   54.9969   86.9017   21.3447 C   0  0  0  0  0  0  0  0  0  0  0  0
   55.9957   86.0874   21.2909 O   0  0  0  0  0  0  0  0  0  0  0  0
   52.8771   86.8573   20.7742 H   0  0  0  0  0  0  0  0  0  0  0  0
   53.7198   84.7652   19.0821 C   0  0  0  0  0  0  0  0  0  0  0  0
   53.8606   85.0230   20.3238 N   0  0  0  0  0  0  0  0  0  0  0  0
   52.0858   81.2033   15.4473 Br  0  0  0  0  0  0  0  0  0  0  0  0
   53.1044   81.7237   16.9758 C   0  0  0  0  0  0  0  0  0  0  0  0
   53.9015   80.7751   17.5840 C   0  0  0  0  0  0  0  0  0  0  0  0
   54.6306   81.1572   18.6819 C   0  0  0  0  0  0  0  0  0  0  0  0
   54.5697   82.4515   19.1651 C   0  0  0  0  0  0  0  0  0  0  0  0
   53.7854   83.3886   18.5690 C   0  0  0  0  0  0  0  0  0  0  0  0
   53.0503   83.0130   17.4658 C   0  0  0  0  0  0  0  0  0  0  0  0
   55.7432   79.8408   19.5341 Br  0  0  0  0  0  0  0  0  0  0  0  0
   53.9878   79.4673   17.1287 O   0  0  0  0  0  0  0  0  0  0  0  0
   53.4807   79.1251   16.3319 H   0  0  0  0  0  0  0  0  0  0  0  0
   54.9728   89.7533   19.8994 C   0  0  0  0  0  0  0  0  0  0  0  0
   53.6048   89.5534   19.4460 N   0  0  0  0  0  0  0  0  0  0  0  0
   52.8864   90.8216   19.4421 C   0  0  0  0  0  0  0  0  0  0  0  0
   52.9852   91.5157   18.1132 C   0  0  0  0  0  0  0  0  0  0  0  0
   54.0739   91.1296   17.3536 O   0  0  0  0  0  0  0  0  0  0  0  0
   54.1221   89.7746   17.0634 C   0  0  0  0  0  0  0  0  0  0  0  0
   53.5202   88.9258   18.1503 C   0  0  0  0  0  0  0  0  0  0  0  0
 20 21  1  0  0  0
 21 22  2  0  0  0
 21 26  1  0  0  0
 22 23  1  0  0  0
 22 28  1  0  0  0
 23 24  2  0  0  0
 23 27  1  0  0  0
 24 25  1  0  0  0
 25 26  2  0  0  0
 25 18  1  0  0  0
 18 19  2  0  0  0
 19 14  1  0  0  0
 14 15  1  0  0  0
 15 16  2  0  0  0
 15  1  1  0  0  0
  1  2  1  0  0  0
  1  5  2  0  0  0
  2  3  1  0  0  0
  2  6  1  0  0  0
  3  4  2  0  0  0
  4  5  1  0  0  0
  5 30  1  0  0  0
 30 31  1  0  0  0
 31 32  1  0  0  0
 31 36  1  0  0  0
 32 33  1  0  0  0
 33 34  1  0  0  0
 34 35  1  0  0  0
 35 36  1  0  0  0
  6  7  2  0  0  0
  6 10  1  0  0  0
  7  8  1  0  0  0
  8  9  1  0  0  0
  9 10  2  0  0  0
 10 11  1  0  0  0
 14 17  1  0  0  0
 11 12  1  0  0  0
 11 13  1  0  0  0
 28 29  1  0  0  0
M  END
> <minimizedAffinity>
-8.86054

$$$$
1300


 22 25  0  0  0  0  0  0  0  0999 V2000
   50.2336  100.1234   28.6246 N   0  0  0  0  0  0  0  0  0  0  0  0
   50.0159   98.7272   28.5412 C   0  0  0  0  0  0  0  0  0  0  0  0
   49.1159   98.0789   29.1139 O   0  0  0  0  0  0  0  0  0  0  0  0
   51.0227   98.0995   27.6590 C   0  0  0  0  0  0  0  0  0  0  0  0
   52.1286   97.5878   28.5564 C   0  0  0  0  0  0  0  0  0  0  0  0
   52.7534   98.8173   28.8965 O   0  0  0  0  0  0  0  0  0  0  0  0
   53.0950   99.1885   27.5687 C   0  0  0  0  0  0  0  0  0  0  0  0
   51.7213   99.2608   26.9577 C   0  0  0  0  0  0  0  0  0  0  0  0
   51.0410  100.4608   27.4939 C   0  0  0  0  0  0  0  0  0  0  0  0
   51.1549  101.6376   27.0199 O   0  0  0  0  0  0  0  0  0  0  0  0
   53.8326   97.9770   27.1531 C   0  0  0  0  0  0  0  0  0  0  0  0
   53.2074   96.9653   27.7495 C   0  0  0  0  0  0  0  0  0  0  0  0
   47.6650  101.4744   27.7772 Br  0  0  0  0  0  0  0  0  0  0  0  0
   48.6442  101.8113   29.3887 C   0  0  0  0  0  0  0  0  0  0  0  0
   49.7921  101.0768   29.5791 C   0  0  0  0  0  0  0  0  0  0  0  0
   50.4989  101.3260   30.7566 C   0  0  0  0  0  0  0  0  0  0  0  0
   50.0524  102.2600   31.6616 C   0  0  0  0  0  0  0  0  0  0  0  0
   48.8967  102.9987   31.4690 C   0  0  0  0  0  0  0  0  0  0  0  0
   48.1923  102.7570   30.3060 C   0  0  0  0  0  0  0  0  0  0  0  0
   48.4615  103.9598   32.4227 N   0  0  0  0  0  0  0  0  0  0  0  0
   49.1925  104.1897   33.4020 O   0  0  0  0  0  0  0  0  0  0  0  0
   47.2861  104.6543   32.3358 O   0  0  0  0  0  0  0  0  0  0  0  0
 13 14  1  0  0  0
 14 15  2  0  0  0
 14 19  1  0  0  0
 15 16  1  0  0  0
 15  1  1  0  0  0
 16 17  2  0  0  0
 17 18  1  0  0  0
 18 19  2  0  0  0
 18 20  1  0  0  0
 20 21  2  0  0  0
 20 22  1  0  0  0
  1  2  1  0  0  0
  1  9  1  0  0  0
  2  3  2  0  0  0
  2  4  1  0  0  0
  4  5  1  0  0  0
  4  8  1  0  0  0
  5  6  1  0  0  0
  5 12  1  0  0  0
  6  7  1  0  0  0
  7  8  1  0  0  0
  7 11  1  0  0  0
  8  9  1  0  0  0
  9 10  2  0  0  0
 11 12  2  0  0  0
M  CHG 1  22  -1
M  END
> <minimizedAffinity>
-7.76838

$$$$
1301


 24 27  0  0  0  0  0  0  0  0999 V2000
   52.8384   98.7885   27.8904 N   0  0  0  0  0  0  0  0  0  0  0  0
   52.6928  100.1100   27.3835 C   0  0  0  0  0  0  0  0  0  0  0  0
   53.4746  100.7245   26.6259 O   0  0  0  0  0  0  0  0  0  0  0  0
   51.4203  100.7013   27.8977 C   0  0  0  0  0  0  0  0  0  0  0  0
   50.2545  100.3696   27.0272 C   0  0  0  0  0  0  0  0  0  0  0  0
   49.9494   99.0357   27.3963 O   0  0  0  0  0  0  0  0  0  0  0  0
   49.7711   99.2960   28.7787 C   0  0  0  0  0  0  0  0  0  0  0  0
   51.1115   99.8538   29.1296 C   0  0  0  0  0  0  0  0  0  0  0  0
   52.1358   98.7826   29.1260 C   0  0  0  0  0  0  0  0  0  0  0  0
   52.3468   97.9932   30.0704 O   0  0  0  0  0  0  0  0  0  0  0  0
   48.7530  100.3855   28.6858 C   0  0  0  0  0  0  0  0  0  0  0  0
   49.0526  101.0624   27.5631 C   0  0  0  0  0  0  0  0  0  0  0  0
   49.3417   98.1157   29.5405 C   0  0  0  0  0  0  0  0  0  0  0  0
   57.2610   97.2256   25.4209 Br  0  0  0  0  0  0  0  0  0  0  0  0
   55.5142   96.8996   26.1011 C   0  0  0  0  0  0  0  0  0  0  0  0
   54.9742   95.6435   25.9513 C   0  0  0  0  0  0  0  0  0  0  0  0
   53.7101   95.4359   26.4528 C   0  0  0  0  0  0  0  0  0  0  0  0
   53.0148   96.4706   27.0881 C   0  0  0  0  0  0  0  0  0  0  0  0
   53.5431   97.7359   27.2464 C   0  0  0  0  0  0  0  0  0  0  0  0
   54.8149   97.9294   26.7359 C   0  0  0  0  0  0  0  0  0  0  0  0
   55.7136   94.5367   25.2769 C   0  0  0  0  0  0  0  0  0  0  0  0
   50.4642  100.5405   25.5787 C   0  0  0  0  0  0  0  0  0  0  0  0
   51.2207  101.6739   25.2897 O   0  0  0  0  0  0  0  0  0  0  0  0
   50.6612  102.4700   25.0686 H   0  0  0  0  0  0  0  0  0  0  0  0
 14 15  1  0  0  0
 15 16  2  0  0  0
 15 20  1  0  0  0
 16 17  1  0  0  0
 16 21  1  0  0  0
 17 18  2  0  0  0
 18 19  1  0  0  0
 19 20  2  0  0  0
 19  1  1  0  0  0
  1  2  1  0  0  0
  1  9  1  0  0  0
  2  3  2  0  0  0
  2  4  1  0  0  0
  4  5  1  0  0  0
  4  8  1  0  0  0
  5  6  1  0  0  0
  5 12  1  0  0  0
  5 22  1  0  0  0
  6  7  1  0  0  0
  7  8  1  0  0  0
  7 11  1  0  0  0
  7 13  1  0  0  0
  8  9  1  0  0  0
  9 10  2  0  0  0
 11 12  2  0  0  0
 22 23  1  0  0  0
 23 24  1  0  0  0
M  END
> <minimizedAffinity>
-8.22397

$$$$
1310


 32 35  0  0  0  0  0  0  0  0999 V2000
   53.8638   84.6431   20.9638 C   0  0  0  0  0  0  0  0  0  0  0  0
   53.6982   83.8270   19.7807 N   0  0  0  0  0  0  0  0  0  0  0  0
   52.5731   84.3348   19.0856 C   0  0  0  0  0  0  0  0  0  0  0  0
   51.8015   83.7191   18.3086 O   0  0  0  0  0  0  0  0  0  0  0  0
   52.4762   85.7481   19.4525 C   0  0  0  0  0  0  0  0  0  0  0  0
   51.6375   86.6025   19.0857 O   0  0  0  0  0  0  0  0  0  0  0  0
   53.5958   85.9935   20.3753 C   0  0  0  0  0  0  0  0  0  0  0  0
   54.1541   87.1608   20.6008 C   0  0  0  0  0  0  0  0  0  0  0  0
   55.1806   87.2008   21.5529 O   0  0  0  0  0  0  0  0  0  0  0  0
   53.7429   88.3886   19.8911 C   0  0  0  0  0  0  0  0  0  0  0  0
   52.6892   89.1262   20.0784 O   0  0  0  0  0  0  0  0  0  0  0  0
   52.6607   90.1487   19.2537 C   0  0  0  0  0  0  0  0  0  0  0  0
   53.7833   90.1020   18.4431 C   0  0  0  0  0  0  0  0  0  0  0  0
   54.4605   88.9743   18.8652 C   0  0  0  0  0  0  0  0  0  0  0  0
   53.9929   91.0695   17.4845 C   0  0  0  0  0  0  0  0  0  0  0  0
   53.1131   92.1101   17.2901 C   0  0  0  0  0  0  0  0  0  0  0  0
   51.9917   92.1707   18.0880 C   0  0  0  0  0  0  0  0  0  0  0  0
   51.7757   91.1941   19.0586 C   0  0  0  0  0  0  0  0  0  0  0  0
   49.4608   82.1132   22.8099 Br  0  0  0  0  0  0  0  0  0  0  0  0
   51.0231   83.2105   23.0474 C   0  0  0  0  0  0  0  0  0  0  0  0
   51.8415   83.5170   21.9583 C   0  0  0  0  0  0  0  0  0  0  0  0
   52.9658   84.2947   22.0689 C   0  0  0  0  0  0  0  0  0  0  0  0
   53.2567   84.7764   23.3565 C   0  0  0  0  0  0  0  0  0  0  0  0
   52.4598   84.4815   24.4382 C   0  0  0  0  0  0  0  0  0  0  0  0
   51.3359   83.6978   24.2977 C   0  0  0  0  0  0  0  0  0  0  0  0
   54.4939   82.7008   19.2969 C   0  0  0  0  0  0  0  0  0  0  0  0
   55.0886   83.0165   17.9376 C   0  0  0  0  0  0  0  0  0  0  0  0
   54.6064   82.0814   16.8601 C   0  0  0  0  0  0  0  0  0  0  0  0
   53.6756   82.7591   16.0159 N   0  0  0  0  0  0  0  0  0  0  0  0
   54.3089   83.5322   14.9686 C   0  0  0  0  0  0  0  0  0  0  0  0
   52.6834   81.9273   15.4052 C   0  0  0  0  0  0  0  0  0  0  0  0
   53.1578   83.4635   16.6219 H   0  0  0  0  0  0  0  0  0  0  0  0
 19 20  1  0  0  0
 20 21  2  0  0  0
 20 25  1  0  0  0
 21 22  1  0  0  0
 22 23  2  0  0  0
 22  1  1  0  0  0
 23 24  1  0  0  0
 24 25  2  0  0  0
  1  2  1  0  0  0
  1  7  1  0  0  0
  2  3  1  0  0  0
  2 26  1  0  0  0
  3  4  2  0  0  0
  3  5  1  0  0  0
  5  6  2  0  0  0
  5  7  1  0  0  0
  7  8  2  0  0  0
  8  9  1  0  0  0
  8 10  1  0  0  0
 10 11  1  0  0  0
 10 14  2  0  0  0
 11 12  1  0  0  0
 12 13  2  0  0  0
 12 18  1  0  0  0
 13 14  1  0  0  0
 13 15  1  0  0  0
 15 16  2  0  0  0
 16 17  1  0  0  0
 17 18  2  0  0  0
 26 27  1  0  0  0
 27 28  1  0  0  0
 28 29  1  0  0  0
 29 30  1  0  0  0
 29 31  1  0  0  0
 29 32  1  0  0  0
M  CHG 1   9  -1
M  CHG 1  29   1
M  END
> <minimizedAffinity>
-8.03887

$$$$
1314


 32 35  0  0  0  0  0  0  0  0999 V2000
   54.6575   86.1716   22.0516 C   0  0  0  0  0  0  0  0  0  0  0  0
   54.7049   85.8893   23.3177 N   0  0  0  0  0  0  0  0  0  0  0  0
   54.1259   84.7580   23.5297 N   0  0  0  0  0  0  0  0  0  0  0  0
   53.6351   84.1929   22.3602 N   0  0  0  0  0  0  0  0  0  0  0  0
   53.9536   85.0484   21.4142 C   0  0  0  0  0  0  0  0  0  0  0  0
   52.9357   82.9928   22.4778 C   0  0  0  0  0  0  0  0  0  0  0  0
   53.3520   81.9891   23.3521 N   0  0  0  0  0  0  0  0  0  0  0  0
   52.6082   80.9704   23.1766 O   0  0  0  0  0  0  0  0  0  0  0  0
   51.7276   81.1756   22.2806 N   0  0  0  0  0  0  0  0  0  0  0  0
   51.9126   82.4453   21.8209 C   0  0  0  0  0  0  0  0  0  0  0  0
   51.0777   82.9680   20.7805 N   0  0  0  0  0  0  0  0  0  0  0  0
   50.1272   83.2625   21.0455 H   0  0  0  0  0  0  0  0  0  0  0  0
   51.3962   82.9837   19.8138 H   0  0  0  0  0  0  0  0  0  0  0  0
   56.3339   87.9645   21.2532 N   0  0  0  0  0  0  0  0  0  0  0  0
   54.9130   87.3647   21.3529 C   0  0  0  0  0  0  0  0  0  0  0  0
   54.0690   88.0431   20.7783 O   0  0  0  0  0  0  0  0  0  0  0  0
   57.0568   87.4026   21.6947 H   0  0  0  0  0  0  0  0  0  0  0  0
   56.4425   90.2160   20.2070 C   0  0  0  0  0  0  0  0  0  0  0  0
   56.1550   89.0860   20.6386 N   0  0  0  0  0  0  0  0  0  0  0  0
   54.9110   92.2174   21.8841 Br  0  0  0  0  0  0  0  0  0  0  0  0
   54.3778   91.5979   20.1826 C   0  0  0  0  0  0  0  0  0  0  0  0
   55.2210   90.7963   19.4515 C   0  0  0  0  0  0  0  0  0  0  0  0
   54.8829   90.3037   18.2593 C   0  0  0  0  0  0  0  0  0  0  0  0
   53.6020   90.5960   17.6959 C   0  0  0  0  0  0  0  0  0  0  0  0
   52.7386   91.3613   18.4048 C   0  0  0  0  0  0  0  0  0  0  0  0
   53.1130   91.8711   19.6518 C   0  0  0  0  0  0  0  0  0  0  0  0
   53.9368   85.0797   19.9545 C   0  0  0  0  0  0  0  0  0  0  0  0
   53.7823   84.1054   19.0515 N   0  0  0  0  0  0  0  0  0  0  0  0
   53.3480   84.6637   17.7788 C   0  0  0  0  0  0  0  0  0  0  0  0
   54.1946   84.0337   16.7136 C   0  0  0  0  0  0  0  0  0  0  0  0
   55.1762   83.1266   17.4487 C   0  0  0  0  0  0  0  0  0  0  0  0
   54.4326   82.9317   18.7932 C   0  0  0  0  0  0  0  0  0  0  0  0
 20 21  1  0  0  0
 21 22  2  0  0  0
 21 26  1  0  0  0
 22 23  1  0  0  0
 22 18  1  0  0  0
 23 24  2  0  0  0
 24 25  1  0  0  0
 25 26  2  0  0  0
 18 19  2  0  0  0
 19 14  1  0  0  0
 14 15  1  0  0  0
 15 16  2  0  0  0
 15  1  1  0  0  0
  1  2  1  0  0  0
  1  5  2  0  0  0
  2  3  2  0  0  0
  3  4  1  0  0  0
  4  5  1  0  0  0
  4  6  1  0  0  0
  5 27  1  0  0  0
 27 28  1  0  0  0
 28 29  1  0  0  0
 28 32  1  0  0  0
 29 30  1  0  0  0
 30 31  1  0  0  0
 31 32  1  0  0  0
  6  7  2  0  0  0
  6 10  1  0  0  0
  7  8  1  0  0  0
  8  9  1  0  0  0
  9 10  2  0  0  0
 10 11  1  0  0  0
 14 17  1  0  0  0
 11 12  1  0  0  0
 11 13  1  0  0  0
M  END
> <minimizedAffinity>
-8.93290

$$$$
1315


 30 33  0  0  0  0  0  0  0  0999 V2000
   50.6038   99.7648   27.6432 N   0  0  0  0  0  0  0  0  0  0  0  0
   49.7851   98.7055   27.9465 C   0  0  0  0  0  0  0  0  0  0  0  0
   48.6710   99.2334   28.5320 C   0  0  0  0  0  0  0  0  0  0  0  0
   47.6493   98.3792   28.9574 C   0  0  0  0  0  0  0  0  0  0  0  0
   47.7833   97.0188   28.7786 C   0  0  0  0  0  0  0  0  0  0  0  0
   48.9062   96.4829   28.1868 C   0  0  0  0  0  0  0  0  0  0  0  0
   49.9208   97.3460   27.7653 C   0  0  0  0  0  0  0  0  0  0  0  0
   48.8222  100.5755   28.5724 N   0  0  0  0  0  0  0  0  0  0  0  0
   49.9945  100.9163   28.0330 C   0  0  0  0  0  0  0  0  0  0  0  0
   50.4210  102.1424   27.8284 N   0  0  0  0  0  0  0  0  0  0  0  0
   49.9216  102.9684   28.1464 H   0  0  0  0  0  0  0  0  0  0  0  0
   51.2903  102.2744   27.2929 H   0  0  0  0  0  0  0  0  0  0  0  0
   51.8692   99.6412   26.9521 C   0  0  0  0  0  0  0  0  0  0  0  0
   52.8883   98.8975   27.7033 C   0  0  0  0  0  0  0  0  0  0  0  0
   52.9146   99.1175   28.9983 O   0  0  0  0  0  0  0  0  0  0  0  0
   57.6276   97.7919   25.4133 Br  0  0  0  0  0  0  0  0  0  0  0  0
   55.9598   97.3049   26.2668 C   0  0  0  0  0  0  0  0  0  0  0  0
   55.0611   98.2593   26.6484 C   0  0  0  0  0  0  0  0  0  0  0  0
   53.8787   97.9517   27.2580 C   0  0  0  0  0  0  0  0  0  0  0  0
   53.6321   96.5871   27.4753 C   0  0  0  0  0  0  0  0  0  0  0  0
   54.5074   95.6031   27.1069 C   0  0  0  0  0  0  0  0  0  0  0  0
   55.6815   95.9766   26.4961 C   0  0  0  0  0  0  0  0  0  0  0  0
   47.7868  101.4463   29.1016 C   0  0  0  0  0  0  0  0  0  0  0  0
   48.0539  102.0379   30.4240 C   0  0  0  0  0  0  0  0  0  0  0  0
   48.9044  103.1689   30.5239 N   0  0  0  0  0  0  0  0  0  0  0  0
   50.0326  102.8898   31.4489 C   0  0  0  0  0  0  0  0  0  0  0  0
   49.5597  102.4619   32.7993 C   0  0  0  0  0  0  0  0  0  0  0  0
   48.9389  103.5677   33.3827 O   0  0  0  0  0  0  0  0  0  0  0  0
   47.8980  104.0313   32.6174 C   0  0  0  0  0  0  0  0  0  0  0  0
   48.2397  104.3083   31.1782 C   0  0  0  0  0  0  0  0  0  0  0  0
 16 17  1  0  0  0
 17 18  2  0  0  0
 17 22  1  0  0  0
 18 19  1  0  0  0
 19 20  2  0  0  0
 19 14  1  0  0  0
 20 21  1  0  0  0
 21 22  2  0  0  0
 14 15  2  0  0  0
 14 13  1  0  0  0
 13  1  1  0  0  0
  1  2  1  0  0  0
  1  9  1  0  0  0
  2  3  1  0  0  0
  2  7  2  0  0  0
  3  4  2  0  0  0
  3  8  1  0  0  0
  4  5  1  0  0  0
  5  6  2  0  0  0
  6  7  1  0  0  0
  8  9  1  0  0  0
  8 23  1  0  0  0
  9 10  2  0  0  0
 23 24  1  0  0  0
 24 25  1  0  0  0
 25 26  1  0  0  0
 25 30  1  0  0  0
 26 27  1  0  0  0
 27 28  1  0  0  0
 28 29  1  0  0  0
 29 30  1  0  0  0
 10 11  1  0  0  0
 10 12  1  0  0  0
M  END
> <minimizedAffinity>
-8.90527

$$$$
1325


 31 34  0  0  0  0  0  0  0  0999 V2000
   53.3694   84.4604   20.1887 C   0  0  0  0  0  0  0  0  0  0  0  0
   52.5444   83.6692   21.0533 N   0  0  0  0  0  0  0  0  0  0  0  0
   53.0494   82.3145   20.8597 C   0  0  0  0  0  0  0  0  0  0  0  0
   52.9745   81.3750   21.6816 O   0  0  0  0  0  0  0  0  0  0  0  0
   53.6513   82.2575   19.5406 C   0  0  0  0  0  0  0  0  0  0  0  0
   54.2130   81.2808   18.9608 O   0  0  0  0  0  0  0  0  0  0  0  0
   53.4851   83.6007   18.9761 C   0  0  0  0  0  0  0  0  0  0  0  0
   53.4911   83.9060   17.7080 C   0  0  0  0  0  0  0  0  0  0  0  0
   53.3751   85.2541   17.3474 O   0  0  0  0  0  0  0  0  0  0  0  0
   53.6090   82.8714   16.6614 C   0  0  0  0  0  0  0  0  0  0  0  0
   52.6313   82.0654   16.2627 O   0  0  0  0  0  0  0  0  0  0  0  0
   53.0342   81.2515   15.3216 C   0  0  0  0  0  0  0  0  0  0  0  0
   54.3630   81.4893   15.0394 C   0  0  0  0  0  0  0  0  0  0  0  0
   54.6987   82.5188   15.9026 C   0  0  0  0  0  0  0  0  0  0  0  0
   55.0191   80.7550   14.0771 C   0  0  0  0  0  0  0  0  0  0  0  0
   54.4070   79.7571   13.3511 C   0  0  0  0  0  0  0  0  0  0  0  0
   53.0746   79.5135   13.6312 C   0  0  0  0  0  0  0  0  0  0  0  0
   52.4038   80.2396   14.5906 C   0  0  0  0  0  0  0  0  0  0  0  0
   52.1604   90.4452   19.1675 Br  0  0  0  0  0  0  0  0  0  0  0  0
   52.5192   88.5901   19.4837 C   0  0  0  0  0  0  0  0  0  0  0  0
   53.7109   88.1650   20.0161 C   0  0  0  0  0  0  0  0  0  0  0  0
   53.9426   86.8309   20.2336 C   0  0  0  0  0  0  0  0  0  0  0  0
   53.0005   85.8301   19.9337 C   0  0  0  0  0  0  0  0  0  0  0  0
   51.8272   86.2732   19.4070 C   0  0  0  0  0  0  0  0  0  0  0  0
   51.5927   87.6172   19.1881 C   0  0  0  0  0  0  0  0  0  0  0  0
   51.4956   83.9940   21.9943 C   0  0  0  0  0  0  0  0  0  0  0  0
   51.7678   83.8152   23.4282 C   0  0  0  0  0  0  0  0  0  0  0  0
   52.2891   84.9475   24.1485 N   0  0  0  0  0  0  0  0  0  0  0  0
   51.8256   84.9993   25.5060 C   0  0  0  0  0  0  0  0  0  0  0  0
   53.6963   85.1752   23.9823 C   0  0  0  0  0  0  0  0  0  0  0  0
   51.8120   85.7893   23.6737 H   0  0  0  0  0  0  0  0  0  0  0  0
 19 20  1  0  0  0
 20 21  2  0  0  0
 20 25  1  0  0  0
 21 22  1  0  0  0
 22 23  2  0  0  0
 23 24  1  0  0  0
 23  1  1  0  0  0
 24 25  2  0  0  0
  1  2  1  0  0  0
  1  7  1  0  0  0
  2  3  1  0  0  0
  2 26  1  0  0  0
  3  4  2  0  0  0
  3  5  1  0  0  0
  5  6  2  0  0  0
  5  7  1  0  0  0
  7  8  2  0  0  0
  8  9  1  0  0  0
  8 10  1  0  0  0
 10 11  1  0  0  0
 10 14  2  0  0  0
 11 12  1  0  0  0
 12 13  2  0  0  0
 12 18  1  0  0  0
 13 14  1  0  0  0
 13 15  1  0  0  0
 15 16  2  0  0  0
 16 17  1  0  0  0
 17 18  2  0  0  0
 26 27  1  0  0  0
 27 28  1  0  0  0
 28 29  1  0  0  0
 28 30  1  0  0  0
 28 31  1  0  0  0
M  CHG 1   9  -1
M  CHG 1  28   1
M  END
> <minimizedAffinity>
-7.96697

$$$$
1329


 28 31  0  0  0  0  0  0  0  0999 V2000
   52.2343   86.4022   18.4983 C   0  0  0  0  0  0  0  0  0  0  0  0
   52.7216   87.5745   18.9089 C   0  0  0  0  0  0  0  0  0  0  0  0
   53.8037   87.7836   19.7615 O   0  0  0  0  0  0  0  0  0  0  0  0
   54.0179   89.1210   19.9522 C   0  0  0  0  0  0  0  0  0  0  0  0
   53.0866   89.8648   19.2356 C   0  0  0  0  0  0  0  0  0  0  0  0
   53.1570   91.2470   19.3065 C   0  0  0  0  0  0  0  0  0  0  0  0
   54.1295   91.8532   20.0686 C   0  0  0  0  0  0  0  0  0  0  0  0
   55.0481   91.0731   20.7755 C   0  0  0  0  0  0  0  0  0  0  0  0
   55.0003   89.7050   20.7244 C   0  0  0  0  0  0  0  0  0  0  0  0
   55.9869   91.7775   21.5132 O   0  0  0  0  0  0  0  0  0  0  0  0
   52.2210   88.8965   18.5409 C   0  0  0  0  0  0  0  0  0  0  0  0
   51.2544   89.2033   17.7963 O   0  0  0  0  0  0  0  0  0  0  0  0
   55.3942   82.2552   17.3775 Br  0  0  0  0  0  0  0  0  0  0  0  0
   54.2276   83.2399   18.5263 C   0  0  0  0  0  0  0  0  0  0  0  0
   53.6746   84.4460   18.1044 C   0  0  0  0  0  0  0  0  0  0  0  0
   52.8280   85.1523   18.9298 C   0  0  0  0  0  0  0  0  0  0  0  0
   52.5194   84.6742   20.1798 C   0  0  0  0  0  0  0  0  0  0  0  0
   53.0732   83.4808   20.5800 C   0  0  0  0  0  0  0  0  0  0  0  0
   53.9245   82.7462   19.7858 C   0  0  0  0  0  0  0  0  0  0  0  0
   55.9346   88.9337   21.5460 C   0  0  0  0  0  0  0  0  0  0  0  0
   55.3659   87.9563   22.4010 N   0  0  0  0  0  0  0  0  0  0  0  0
   55.2410   88.5308   23.7306 C   0  0  0  0  0  0  0  0  0  0  0  0
   55.5364   87.5988   24.8545 C   0  0  0  0  0  0  0  0  0  0  0  0
   56.7492   86.8682   24.7385 N   0  0  0  0  0  0  0  0  0  0  0  0
   57.2814   86.9235   23.4167 C   0  0  0  0  0  0  0  0  0  0  0  0
   56.1829   86.7664   22.4202 C   0  0  0  0  0  0  0  0  0  0  0  0
   56.5494   85.5082   25.1930 C   0  0  0  0  0  0  0  0  0  0  0  0
   54.4105   87.6237   22.0699 H   0  0  0  0  0  0  0  0  0  0  0  0
 13 14  1  0  0  0
 14 15  2  0  0  0
 14 19  1  0  0  0
 15 16  1  0  0  0
 16 17  2  0  0  0
 16  1  1  0  0  0
 17 18  1  0  0  0
 18 19  2  0  0  0
  1  2  2  0  0  0
  2  3  1  0  0  0
  2 11  1  0  0  0
  3  4  1  0  0  0
  4  5  2  0  0  0
  4  9  1  0  0  0
  5  6  1  0  0  0
  5 11  1  0  0  0
  6  7  2  0  0  0
  7  8  1  0  0  0
  8  9  2  0  0  0
  8 10  1  0  0  0
  9 20  1  0  0  0
 20 21  1  0  0  0
 21 22  1  0  0  0
 21 26  1  0  0  0
 22 23  1  0  0  0
 23 24  1  0  0  0
 24 25  1  0  0  0
 24 27  1  0  0  0
 25 26  1  0  0  0
 11 12  2  0  0  0
 21 28  1  0  0  0
M  CHG 1  10  -1
M  CHG 1  21   1
M  END
> <minimizedAffinity>
-8.83007

$$$$
1337


 32 35  0  0  0  0  0  0  0  0999 V2000
   55.9205   86.3022   24.5554 N   0  0  0  0  0  0  0  0  0  0  0  0
   54.6865   86.2315   25.2483 C   0  0  0  0  0  0  0  0  0  0  0  0
   54.1523   87.3149   25.6089 O   0  0  0  0  0  0  0  0  0  0  0  0
   56.3668   85.4096   24.2556 H   0  0  0  0  0  0  0  0  0  0  0  0
   54.0660   84.9093   25.5273 C   0  0  0  0  0  0  0  0  0  0  0  0
   54.2381   84.1148   24.4568 O   0  0  0  0  0  0  0  0  0  0  0  0
   53.3402   83.1191   24.2332 C   0  0  0  0  0  0  0  0  0  0  0  0
   53.5151   82.6753   22.9143 O   0  0  0  0  0  0  0  0  0  0  0  0
   52.7092   83.4431   22.1098 C   0  0  0  0  0  0  0  0  0  0  0  0
   51.8824   84.2071   22.9090 O   0  0  0  0  0  0  0  0  0  0  0  0
   51.9064   83.5918   24.1822 C   0  0  0  0  0  0  0  0  0  0  0  0
   51.5809   84.5396   25.2714 C   0  0  0  0  0  0  0  0  0  0  0  0
   50.7156   83.9535   26.2234 O   0  0  0  0  0  0  0  0  0  0  0  0
   51.1662   84.3159   27.4673 C   0  0  0  0  0  0  0  0  0  0  0  0
   52.5215   84.4509   27.3137 O   0  0  0  0  0  0  0  0  0  0  0  0
   52.6943   85.0698   26.0667 C   0  0  0  0  0  0  0  0  0  0  0  0
   50.8220   83.1620   28.4172 C   0  0  0  0  0  0  0  0  0  0  0  0
   50.4815   85.5368   28.0233 C   0  0  0  0  0  0  0  0  0  0  0  0
   51.7966   82.5853   21.2322 C   0  0  0  0  0  0  0  0  0  0  0  0
   53.5041   84.3260   21.1617 C   0  0  0  0  0  0  0  0  0  0  0  0
   56.5876   87.5317   24.2459 C   0  0  0  0  0  0  0  0  0  0  0  0
   55.5104   88.8216   22.3445 N   0  0  0  0  0  0  0  0  0  0  0  0
   56.4391   87.8724   22.8074 C   0  0  0  0  0  0  0  0  0  0  0  0
   57.1887   87.2692   22.0141 O   0  0  0  0  0  0  0  0  0  0  0  0
   54.9151   89.2815   23.1082 H   0  0  0  0  0  0  0  0  0  0  0  0
   54.1628   90.4260   16.5833 Br  0  0  0  0  0  0  0  0  0  0  0  0
   54.6335   89.9692   18.3832 C   0  0  0  0  0  0  0  0  0  0  0  0
   53.9046   88.9970   19.0313 C   0  0  0  0  0  0  0  0  0  0  0  0
   54.2270   88.6556   20.3243 C   0  0  0  0  0  0  0  0  0  0  0  0
   55.2639   89.2372   21.0403 C   0  0  0  0  0  0  0  0  0  0  0  0
   55.9733   90.2045   20.3650 C   0  0  0  0  0  0  0  0  0  0  0  0
   55.6582   90.5657   19.0460 C   0  0  0  0  0  0  0  0  0  0  0  0
 26 27  1  0  0  0
 27 28  2  0  0  0
 27 32  1  0  0  0
 28 29  1  0  0  0
 29 30  2  0  0  0
 30 31  1  0  0  0
 30 22  1  0  0  0
 31 32  2  0  0  0
 22 23  1  0  0  0
 23 24  2  0  0  0
 23 21  1  0  0  0
 21  1  1  0  0  0
  1  2  1  0  0  0
  2  3  2  0  0  0
  2  5  1  0  0  0
  5  6  1  0  0  0
  5 16  1  0  0  0
  6  7  1  0  0  0
  7  8  1  0  0  0
  7 11  1  0  0  0
  8  9  1  0  0  0
  9 10  1  0  0  0
  9 19  1  0  0  0
  9 20  1  0  0  0
 10 11  1  0  0  0
 11 12  1  0  0  0
 12 13  1  0  0  0
 12 16  1  0  0  0
 13 14  1  0  0  0
 14 15  1  0  0  0
 14 17  1  0  0  0
 14 18  1  0  0  0
 15 16  1  0  0  0
 22 25  1  0  0  0
  1  4  1  0  0  0
M  END
> <minimizedAffinity>
-9.16712

$$$$
1341


 28 31  0  0  0  0  0  0  0  0999 V2000
   48.8093  103.7016   31.5077 C   0  0  0  0  0  0  0  0  0  0  0  0
   47.6988  103.0685   31.9527 N   0  0  0  0  0  0  0  0  0  0  0  0
   47.1897  102.3325   30.9432 C   0  0  0  0  0  0  0  0  0  0  0  0
   47.9481  102.4703   29.8344 N   0  0  0  0  0  0  0  0  0  0  0  0
   48.9424  103.3144   30.1924 C   0  0  0  0  0  0  0  0  0  0  0  0
   45.9687  101.6243   31.4051 C   0  0  0  0  0  0  0  0  0  0  0  0
   45.7266  102.0807   32.8024 C   0  0  0  0  0  0  0  0  0  0  0  0
   46.8931  102.9308   33.1455 C   0  0  0  0  0  0  0  0  0  0  0  0
   52.5994  107.4019   34.4336 Cl  0  0  0  0  0  0  0  0  0  0  0  0
   51.4948  106.3307   33.5817 C   0  0  0  0  0  0  0  0  0  0  0  0
   51.7146  104.9718   33.5204 C   0  0  0  0  0  0  0  0  0  0  0  0
   50.8430  104.1342   32.8480 C   0  0  0  0  0  0  0  0  0  0  0  0
   49.7149  104.6100   32.2091 C   0  0  0  0  0  0  0  0  0  0  0  0
   49.4914  105.9695   32.2701 C   0  0  0  0  0  0  0  0  0  0  0  0
   50.3715  106.8206   32.9491 C   0  0  0  0  0  0  0  0  0  0  0  0
   47.7627  101.8593   28.5340 C   0  0  0  0  0  0  0  0  0  0  0  0
   48.9904  101.1073   28.1474 C   0  0  0  0  0  0  0  0  0  0  0  0
   49.7143  101.5934   27.2764 O   0  0  0  0  0  0  0  0  0  0  0  0
   49.2462   99.8972   28.7949 N   0  0  0  0  0  0  0  0  0  0  0  0
   48.5783   99.5202   29.5477 H   0  0  0  0  0  0  0  0  0  0  0  0
   50.3719   99.0691   28.5472 C   0  0  0  0  0  0  0  0  0  0  0  0
   51.6170   99.4504   29.0639 C   0  0  0  0  0  0  0  0  0  0  0  0
   52.7185   98.6915   28.8299 C   0  0  0  0  0  0  0  0  0  0  0  0
   52.6448   97.5280   28.0817 C   0  0  0  0  0  0  0  0  0  0  0  0
   51.4268   97.1650   27.5815 C   0  0  0  0  0  0  0  0  0  0  0  0
   50.2730   97.9267   27.8053 C   0  0  0  0  0  0  0  0  0  0  0  0
   53.8627   96.7140   27.8398 C   0  0  0  0  0  0  0  0  0  0  0  0
   53.6111   95.8354   26.6104 C   0  0  0  0  0  0  0  0  0  0  0  0
  9 10  1  0  0  0
 10 11  2  0  0  0
 10 15  1  0  0  0
 11 12  1  0  0  0
 12 13  2  0  0  0
 13 14  1  0  0  0
 13  1  1  0  0  0
 14 15  2  0  0  0
  1  2  1  0  0  0
  1  5  2  0  0  0
  2  3  1  0  0  0
  2  8  1  0  0  0
  3  4  2  0  0  0
  3  6  1  0  0  0
  4  5  1  0  0  0
  4 16  1  0  0  0
 16 17  1  0  0  0
 17 18  2  0  0  0
 17 19  1  0  0  0
 19 21  1  0  0  0
 21 22  2  0  0  0
 21 26  1  0  0  0
 22 23  1  0  0  0
 23 24  2  0  0  0
 24 25  1  0  0  0
 24 27  1  0  0  0
 25 26  2  0  0  0
 27 28  1  0  0  0
  6  7  1  0  0  0
  7  8  1  0  0  0
 19 20  1  0  0  0
M  END
> <minimizedAffinity>
-9.04561

$$$$
1343


 41 44  0  0  0  0  0  0  0  0999 V2000
   52.3556   83.3540   19.6231 C   0  0  0  0  0  0  0  0  0  0  0  0
   53.4639   82.5744   19.7117 N   0  0  0  0  0  0  0  0  0  0  0  0
   53.4360   81.9125   20.8972 C   0  0  0  0  0  0  0  0  0  0  0  0
   54.2498   81.0341   21.4941 N   0  0  0  0  0  0  0  0  0  0  0  0
   53.9794   80.5158   22.7060 C   0  0  0  0  0  0  0  0  0  0  0  0
   52.8491   80.8951   23.3412 N   0  0  0  0  0  0  0  0  0  0  0  0
   51.9951   81.7626   22.8095 C   0  0  0  0  0  0  0  0  0  0  0  0
   52.2779   82.2902   21.5651 C   0  0  0  0  0  0  0  0  0  0  0  0
   51.6680   83.1497   20.7671 N   0  0  0  0  0  0  0  0  0  0  0  0
   50.8171   82.1740   23.4415 O   0  0  0  0  0  0  0  0  0  0  0  0
   54.8638   79.5742   23.3315 N   0  0  0  0  0  0  0  0  0  0  0  0
   49.9998   81.5983   23.2775 H   0  0  0  0  0  0  0  0  0  0  0  0
   55.3119   79.7173   24.2425 H   0  0  0  0  0  0  0  0  0  0  0  0
   55.0481   78.6938   22.8059 H   0  0  0  0  0  0  0  0  0  0  0  0
   54.4880   82.4707   18.7187 C   0  0  0  0  0  0  0  0  0  0  0  0
   54.5861   83.5803   17.8908 O   0  0  0  0  0  0  0  0  0  0  0  0
   55.1941   83.2032   16.7279 C   0  0  0  0  0  0  0  0  0  0  0  0
   55.2517   81.7164   16.6451 C   0  0  0  0  0  0  0  0  0  0  0  0
   54.3093   81.2987   17.7759 C   0  0  0  0  0  0  0  0  0  0  0  0
   54.7321   80.1004   18.3499 O   0  0  0  0  0  0  0  0  0  0  0  0
   56.5253   81.2539   17.0347 O   0  0  0  0  0  0  0  0  0  0  0  0
   53.9601   79.4873   18.4617 H   0  0  0  0  0  0  0  0  0  0  0  0
   56.7308   80.3838   16.6303 H   0  0  0  0  0  0  0  0  0  0  0  0
   54.3426   83.7022   15.5588 C   0  0  0  0  0  0  0  0  0  0  0  0
   52.9930   83.7256   15.9274 O   0  0  0  0  0  0  0  0  0  0  0  0
   52.8437   83.2424   16.7802 H   0  0  0  0  0  0  0  0  0  0  0  0
   52.0103   84.2038   18.5363 N   0  0  0  0  0  0  0  0  0  0  0  0
   51.4758   83.8193   17.7418 H   0  0  0  0  0  0  0  0  0  0  0  0
   52.8866   86.0904   19.6554 C   0  0  0  0  0  0  0  0  0  0  0  0
   52.4228   85.5486   18.6054 N   0  0  0  0  0  0  0  0  0  0  0  0
   55.1711   86.4979   21.6649 Br  0  0  0  0  0  0  0  0  0  0  0  0
   54.3381   87.8445   20.6126 C   0  0  0  0  0  0  0  0  0  0  0  0
   53.3210   87.4792   19.7572 C   0  0  0  0  0  0  0  0  0  0  0  0
   52.7464   88.4882   19.0146 C   0  0  0  0  0  0  0  0  0  0  0  0
   53.1536   89.8024   19.1085 C   0  0  0  0  0  0  0  0  0  0  0  0
   54.1717   90.1678   19.9639 C   0  0  0  0  0  0  0  0  0  0  0  0
   54.7594   89.1729   20.7156 C   0  0  0  0  0  0  0  0  0  0  0  0
   52.5683   90.8150   18.3545 O   0  0  0  0  0  0  0  0  0  0  0  0
   51.4640   91.5624   18.7551 C   0  0  0  0  0  0  0  0  0  0  0  0
   54.5795   91.4994   20.0541 O   0  0  0  0  0  0  0  0  0  0  0  0
   54.6095   92.2134   21.2530 C   0  0  0  0  0  0  0  0  0  0  0  0
 31 32  1  0  0  0
 32 33  2  0  0  0
 32 37  1  0  0  0
 33 34  1  0  0  0
 33 29  1  0  0  0
 34 35  2  0  0  0
 35 36  1  0  0  0
 35 38  1  0  0  0
 36 37  2  0  0  0
 36 40  1  0  0  0
 40 41  1  0  0  0
 38 39  1  0  0  0
 29 30  2  0  0  0
 30 27  1  0  0  0
 27  1  1  0  0  0
  1  2  1  0  0  0
  1  9  2  0  0  0
  2  3  1  0  0  0
  2 15  1  0  0  0
  3  4  2  0  0  0
  3  8  1  0  0  0
  4  5  1  0  0  0
  5  6  2  0  0  0
  5 11  1  0  0  0
  6  7  1  0  0  0
  7  8  2  0  0  0
  7 10  1  0  0  0
  8  9  1  0  0  0
 15 16  1  0  0  0
 15 19  1  0  0  0
 16 17  1  0  0  0
 17 18  1  0  0  0
 17 24  1  0  0  0
 18 19  1  0  0  0
 18 21  1  0  0  0
 19 20  1  0  0  0
 24 25  1  0  0  0
 27 28  1  0  0  0
 10 12  1  0  0  0
 11 13  1  0  0  0
 11 14  1  0  0  0
 20 22  1  0  0  0
 21 23  1  0  0  0
 25 26  1  0  0  0
M  END
> <minimizedAffinity>
-8.68509

$$$$
1355


 27 30  0  0  0  0  0  0  0  0999 V2000
   55.0744   91.8032   23.1169 N   0  0  0  0  0  0  0  0  0  0  0  0
   55.4296   90.6813   22.3475 C   0  0  0  0  0  0  0  0  0  0  0  0
   55.9425   90.8466   21.2189 O   0  0  0  0  0  0  0  0  0  0  0  0
   54.6488   91.6600   24.0542 H   0  0  0  0  0  0  0  0  0  0  0  0
   55.2002   89.3227   22.8618 C   0  0  0  0  0  0  0  0  0  0  0  0
   55.1227   88.2956   21.7476 C   0  0  0  0  0  0  0  0  0  0  0  0
   55.0810   86.9062   22.2895 C   0  0  0  0  0  0  0  0  0  0  0  0
   56.4125   86.2456   22.4391 C   0  0  0  0  0  0  0  0  0  0  0  0
   57.5320   87.2515   22.6886 C   0  0  0  0  0  0  0  0  0  0  0  0
   57.1539   88.0401   23.8385 N   0  0  0  0  0  0  0  0  0  0  0  0
   57.7665   87.9791   24.9906 N   0  0  0  0  0  0  0  0  0  0  0  0
   57.1861   88.8110   25.8194 N   0  0  0  0  0  0  0  0  0  0  0  0
   56.1989   89.3957   25.1689 N   0  0  0  0  0  0  0  0  0  0  0  0
   56.1530   88.9271   23.9096 C   0  0  0  0  0  0  0  0  0  0  0  0
   55.2905   93.1529   22.6287 C   0  0  0  0  0  0  0  0  0  0  0  0
   54.8319   95.4960   25.4106 C   0  0  0  0  0  0  0  0  0  0  0  0
   56.1684   95.3838   25.3376 N   0  0  0  0  0  0  0  0  0  0  0  0
   56.4847   94.5569   24.3634 O   0  0  0  0  0  0  0  0  0  0  0  0
   55.3974   94.1149   23.7842 C   0  0  0  0  0  0  0  0  0  0  0  0
   54.3659   94.6980   24.4337 N   0  0  0  0  0  0  0  0  0  0  0  0
   56.1659   97.9606   26.4534 Cl  0  0  0  0  0  0  0  0  0  0  0  0
   54.5514   97.4665   26.9012 C   0  0  0  0  0  0  0  0  0  0  0  0
   54.0577   96.3057   26.3451 C   0  0  0  0  0  0  0  0  0  0  0  0
   52.7848   95.9453   26.7176 C   0  0  0  0  0  0  0  0  0  0  0  0
   52.0281   96.6870   27.5961 C   0  0  0  0  0  0  0  0  0  0  0  0
   52.5483   97.8627   28.1512 C   0  0  0  0  0  0  0  0  0  0  0  0
   53.8172   98.2421   27.7929 C   0  0  0  0  0  0  0  0  0  0  0  0
 21 22  1  0  0  0
 22 23  2  0  0  0
 22 27  1  0  0  0
 23 24  1  0  0  0
 23 16  1  0  0  0
 24 25  2  0  0  0
 25 26  1  0  0  0
 26 27  2  0  0  0
 16 17  2  0  0  0
 16 20  1  0  0  0
 17 18  1  0  0  0
 18 19  1  0  0  0
 19 20  2  0  0  0
 19 15  1  0  0  0
 15  1  1  0  0  0
  1  2  1  0  0  0
  2  3  2  0  0  0
  2  5  1  0  0  0
  5  6  1  0  0  0
  5 14  1  0  0  0
  6  7  1  0  0  0
  7  8  1  0  0  0
  8  9  1  0  0  0
  9 10  1  0  0  0
 10 11  1  0  0  0
 10 14  1  0  0  0
 11 12  2  0  0  0
 12 13  1  0  0  0
 13 14  2  0  0  0
  1  4  1  0  0  0
M  END
> <minimizedAffinity>
-10.00535

$$$$
1357


 24 27  0  0  0  0  0  0  0  0999 V2000
   51.1481   83.6545   28.4726 C   0  0  0  0  0  0  0  0  0  0  0  0
   49.9142   83.5632   29.1190 C   0  0  0  0  0  0  0  0  0  0  0  0
   49.2760   84.1085   30.3480 C   0  0  0  0  0  0  0  0  0  0  0  0
   48.6213   85.2392   29.6430 N   0  0  0  0  0  0  0  0  0  0  0  0
   49.4583   85.6966   28.7653 C   0  0  0  0  0  0  0  0  0  0  0  0
   50.6506   84.9151   28.8688 C   0  0  0  0  0  0  0  0  0  0  0  0
   49.2128   86.7946   27.8584 N   0  0  0  0  0  0  0  0  0  0  0  0
   48.2948   83.2030   30.7666 O   0  0  0  0  0  0  0  0  0  0  0  0
   48.5097   82.9665   32.1105 C   0  0  0  0  0  0  0  0  0  0  0  0
   49.2336   84.2280   32.5496 C   0  0  0  0  0  0  0  0  0  0  0  0
   50.0321   84.4419   31.3986 O   0  0  0  0  0  0  0  0  0  0  0  0
   48.6504   87.6163   28.1507 H   0  0  0  0  0  0  0  0  0  0  0  0
   49.5958   86.7813   26.8949 H   0  0  0  0  0  0  0  0  0  0  0  0
   54.0143   84.4954   27.3561 Br  0  0  0  0  0  0  0  0  0  0  0  0
   53.6034   83.2683   28.7594 C   0  0  0  0  0  0  0  0  0  0  0  0
   52.3101   83.0095   29.1371 C   0  0  0  0  0  0  0  0  0  0  0  0
   52.0525   82.1245   30.1570 C   0  0  0  0  0  0  0  0  0  0  0  0
   53.0780   81.4719   30.8276 C   0  0  0  0  0  0  0  0  0  0  0  0
   54.3808   81.7166   30.4658 C   0  0  0  0  0  0  0  0  0  0  0  0
   54.6333   82.6190   29.4265 C   0  0  0  0  0  0  0  0  0  0  0  0
   51.4557   85.4746   29.9960 C   0  0  0  0  0  0  0  0  0  0  0  0
   52.1057   85.9343   30.8716 N   0  0  0  0  0  0  0  0  0  0  0  0
   48.7878   83.2716   28.1618 C   0  0  0  0  0  0  0  0  0  0  0  0
   47.9154   83.0251   27.4044 N   0  0  0  0  0  0  0  0  0  0  0  0
 14 15  1  0  0  0
 15 16  2  0  0  0
 15 20  1  0  0  0
 16 17  1  0  0  0
 16  1  1  0  0  0
 17 18  2  0  0  0
 18 19  1  0  0  0
 19 20  2  0  0  0
  1  2  1  0  0  0
  1  6  1  0  0  0
  2  3  1  0  0  0
  2  6  1  0  0  0
  2 23  1  0  0  0
  3  4  1  0  0  0
  3  8  1  0  0  0
  3 11  1  0  0  0
  4  5  2  0  0  0
  5  6  1  0  0  0
  5  7  1  0  0  0
  6 21  1  0  0  0
 21 22  3  0  0  0
  8  9  1  0  0  0
  9 10  1  0  0  0
 10 11  1  0  0  0
 23 24  3  0  0  0
  7 12  1  0  0  0
  7 13  1  0  0  0
M  END
> <minimizedAffinity>
-5.97848

$$$$
1360


 34 37  0  0  0  0  0  0  0  0999 V2000
   54.0783   84.9983   20.1603 C   0  0  0  0  0  0  0  0  0  0  0  0
   53.8863   85.1225   21.5819 N   0  0  0  0  0  0  0  0  0  0  0  0
   52.6084   84.3977   21.7680 C   0  0  0  0  0  0  0  0  0  0  0  0
   52.3959   84.3018   23.1602 N   0  0  0  0  0  0  0  0  0  0  0  0
   53.4245   85.0536   23.8110 C   0  0  0  0  0  0  0  0  0  0  0  0
   54.3060   85.5368   22.8417 C   0  0  0  0  0  0  0  0  0  0  0  0
   55.3829   86.2976   23.2458 C   0  0  0  0  0  0  0  0  0  0  0  0
   56.1627   86.7218   22.3546 O   0  0  0  0  0  0  0  0  0  0  0  0
   55.5601   86.5556   24.5467 N   0  0  0  0  0  0  0  0  0  0  0  0
   54.7093   86.0849   25.4429 C   0  0  0  0  0  0  0  0  0  0  0  0
   54.9123   86.3513   26.6587 O   0  0  0  0  0  0  0  0  0  0  0  0
   53.6229   85.3247   25.1042 N   0  0  0  0  0  0  0  0  0  0  0  0
   52.7688   84.8744   26.1798 C   0  0  0  0  0  0  0  0  0  0  0  0
   56.7185   87.3686   24.9323 C   0  0  0  0  0  0  0  0  0  0  0  0
   51.3357   83.6191   23.8563 C   0  0  0  0  0  0  0  0  0  0  0  0
   52.7381   83.1984   20.9270 C   0  0  0  0  0  0  0  0  0  0  0  0
   53.9745   83.4681   20.0582 C   0  0  0  0  0  0  0  0  0  0  0  0
   52.9996   85.6000   19.4105 C   0  0  0  0  0  0  0  0  0  0  0  0
   52.1412   84.7377   18.9448 O   0  0  0  0  0  0  0  0  0  0  0  0
   52.0583   91.5216   18.1428 Br  0  0  0  0  0  0  0  0  0  0  0  0
   52.3355   89.6781   18.5371 C   0  0  0  0  0  0  0  0  0  0  0  0
   51.5591   88.6988   17.9361 C   0  0  0  0  0  0  0  0  0  0  0  0
   51.7423   87.3654   18.2062 C   0  0  0  0  0  0  0  0  0  0  0  0
   52.7194   86.9830   19.0944 C   0  0  0  0  0  0  0  0  0  0  0  0
   53.5111   87.9563   19.7094 C   0  0  0  0  0  0  0  0  0  0  0  0
   53.3170   89.2869   19.4302 C   0  0  0  0  0  0  0  0  0  0  0  0
   53.7927   82.9950   18.6897 C   0  0  0  0  0  0  0  0  0  0  0  0
   52.8990   82.1220   18.4313 O   0  0  0  0  0  0  0  0  0  0  0  0
   54.5564   83.4580   17.6524 O   0  0  0  0  0  0  0  0  0  0  0  0
   54.0952   83.4932   16.2998 C   0  0  0  0  0  0  0  0  0  0  0  0
   52.8197   81.8919   21.5663 C   0  0  0  0  0  0  0  0  0  0  0  0
   51.8058   81.1467   21.6026 O   0  0  0  0  0  0  0  0  0  0  0  0
   53.9855   81.4341   22.1407 O   0  0  0  0  0  0  0  0  0  0  0  0
   53.9924   80.8419   23.4212 C   0  0  0  0  0  0  0  0  0  0  0  0
 20 21  1  0  0  0
 21 22  2  0  0  0
 21 26  1  0  0  0
 22 23  1  0  0  0
 23 24  2  0  0  0
 24 25  1  0  0  0
 24 18  1  0  0  0
 25 26  2  0  0  0
 18 19  2  0  0  0
 18  1  1  0  0  0
  1  2  1  0  0  0
  1 17  1  0  0  0
  2  3  1  0  0  0
  2  6  1  0  0  0
  3  4  1  0  0  0
  3 16  1  0  0  0
  4  5  1  0  0  0
  4 15  1  0  0  0
  5  6  2  0  0  0
  5 12  1  0  0  0
  6  7  1  0  0  0
  7  8  2  0  0  0
  7  9  1  0  0  0
  9 10  1  0  0  0
  9 14  1  0  0  0
 10 11  2  0  0  0
 10 12  1  0  0  0
 12 13  1  0  0  0
 16 17  1  0  0  0
 16 31  1  0  0  0
 17 27  1  0  0  0
 27 28  2  0  0  0
 27 29  1  0  0  0
 29 30  1  0  0  0
 31 32  2  0  0  0
 31 33  1  0  0  0
 33 34  1  0  0  0
M  END
> <minimizedAffinity>
-8.32042

$$$$
1372


 31 34  0  0  0  0  0  0  0  0999 V2000
   53.3635   84.5673   24.1088 C   0  0  0  0  0  0  0  0  0  0  0  0
   53.7958   83.9423   23.1185 O   0  0  0  0  0  0  0  0  0  0  0  0
   52.1801   84.1601   24.7347 N   0  0  0  0  0  0  0  0  0  0  0  0
   51.4779   82.9230   24.6751 C   0  0  0  0  0  0  0  0  0  0  0  0
   50.8086   82.8006   26.0529 C   0  0  0  0  0  0  0  0  0  0  0  0
   51.6070   83.4879   27.1331 C   0  0  0  0  0  0  0  0  0  0  0  0
   50.9637   83.3715   28.4133 N   0  0  0  0  0  0  0  0  0  0  0  0
   51.7554   84.1448   29.3803 C   0  0  0  0  0  0  0  0  0  0  0  0
   53.1022   83.5339   29.6124 C   0  0  0  0  0  0  0  0  0  0  0  0
   53.6457   82.8696   28.4061 C   0  0  0  0  0  0  0  0  0  0  0  0
   54.8050   82.2320   28.2175 N   0  0  0  0  0  0  0  0  0  0  0  0
   54.8522   81.7964   26.9427 C   0  0  0  0  0  0  0  0  0  0  0  0
   53.7109   82.1740   26.3506 N   0  0  0  0  0  0  0  0  0  0  0  0
   52.9224   82.8414   27.2062 C   0  0  0  0  0  0  0  0  0  0  0  0
   51.7267   85.0029   26.9009 C   0  0  0  0  0  0  0  0  0  0  0  0
   51.3874   85.1914   25.4844 C   0  0  0  0  0  0  0  0  0  0  0  0
   50.0291   83.8437   28.3752 H   0  0  0  0  0  0  0  0  0  0  0  0
   55.5896   82.0558   28.8832 H   0  0  0  0  0  0  0  0  0  0  0  0
   54.1583   85.7374   24.5935 C   0  0  0  0  0  0  0  0  0  0  0  0
   55.4422   85.1560   25.2409 C   0  0  0  0  0  0  0  0  0  0  0  0
   55.0936   87.9284   23.8523 C   0  0  0  0  0  0  0  0  0  0  0  0
   55.0730   88.3612   25.0112 O   0  0  0  0  0  0  0  0  0  0  0  0
   54.6675   86.5760   23.5359 N   0  0  0  0  0  0  0  0  0  0  0  0
   54.7336   86.2251   22.5824 H   0  0  0  0  0  0  0  0  0  0  0  0
   55.1485   92.8566   21.8626 Br  0  0  0  0  0  0  0  0  0  0  0  0
   55.5866   90.9817   21.7273 C   0  0  0  0  0  0  0  0  0  0  0  0
   55.2414   90.1203   22.7386 C   0  0  0  0  0  0  0  0  0  0  0  0
   55.5346   88.7468   22.7102 C   0  0  0  0  0  0  0  0  0  0  0  0
   56.1874   88.2611   21.6183 C   0  0  0  0  0  0  0  0  0  0  0  0
   56.5435   89.1240   20.5870 C   0  0  0  0  0  0  0  0  0  0  0  0
   56.2495   90.4766   20.6336 C   0  0  0  0  0  0  0  0  0  0  0  0
 25 26  1  0  0  0
 26 27  2  0  0  0
 26 31  1  0  0  0
 27 28  1  0  0  0
 28 29  2  0  0  0
 28 21  1  0  0  0
 29 30  1  0  0  0
 30 31  2  0  0  0
 21 22  2  0  0  0
 21 23  1  0  0  0
 23 19  1  0  0  0
 19 20  1  0  0  0
 19  1  1  0  0  0
  1  2  2  0  0  0
  1  3  1  0  0  0
  3  4  1  0  0  0
  3 16  1  0  0  0
  4  5  1  0  0  0
  5  6  1  0  0  0
  6  7  1  0  0  0
  6 14  1  0  0  0
  6 15  1  0  0  0
  7  8  1  0  0  0
  8  9  1  0  0  0
  9 10  1  0  0  0
 10 11  1  0  0  0
 10 14  2  0  0  0
 11 12  1  0  0  0
 12 13  2  0  0  0
 13 14  1  0  0  0
 15 16  1  0  0  0
 23 24  1  0  0  0
  7 17  1  0  0  0
 11 18  1  0  0  0
M  END
> <minimizedAffinity>
-7.82487

$$$$
1381


 31 34  0  0  0  0  0  0  0  0999 V2000
   52.3826   87.4349   19.3269 C   0  0  0  0  0  0  0  0  0  0  0  0
   51.2018   87.6646   19.5538 O   0  0  0  0  0  0  0  0  0  0  0  0
   53.5528   88.2607   19.5536 C   0  0  0  0  0  0  0  0  0  0  0  0
   54.3068   88.1000   20.6819 N   0  0  0  0  0  0  0  0  0  0  0  0
   55.3775   88.8392   20.9116 N   0  0  0  0  0  0  0  0  0  0  0  0
   55.7752   89.7857   20.0446 C   0  0  0  0  0  0  0  0  0  0  0  0
   56.8110   90.4944   20.2778 O   0  0  0  0  0  0  0  0  0  0  0  0
   55.0708   90.0113   18.8857 C   0  0  0  0  0  0  0  0  0  0  0  0
   53.9433   89.2157   18.6668 C   0  0  0  0  0  0  0  0  0  0  0  0
   53.2714   89.4741   17.4972 C   0  0  0  0  0  0  0  0  0  0  0  0
   53.6913   90.4563   16.6063 C   0  0  0  0  0  0  0  0  0  0  0  0
   54.8063   91.2220   16.8538 C   0  0  0  0  0  0  0  0  0  0  0  0
   55.4944   90.9813   18.0163 C   0  0  0  0  0  0  0  0  0  0  0  0
   56.1682   88.6596   22.1117 C   0  0  0  0  0  0  0  0  0  0  0  0
   55.5651   89.3494   23.3070 C   0  0  0  0  0  0  0  0  0  0  0  0
   55.4814   90.7201   23.1465 O   0  0  0  0  0  0  0  0  0  0  0  0
   55.7214   90.9254   22.2123 H   0  0  0  0  0  0  0  0  0  0  0  0
   52.5571   86.1447   18.7557 O   0  0  0  0  0  0  0  0  0  0  0  0
   53.1412   85.1515   19.5540 C   0  0  0  0  0  0  0  0  0  0  0  0
   54.9810   79.7693   13.5249 Br  0  0  0  0  0  0  0  0  0  0  0  0
   54.5237   81.2056   14.7211 C   0  0  0  0  0  0  0  0  0  0  0  0
   54.4654   80.9927   16.0866 C   0  0  0  0  0  0  0  0  0  0  0  0
   54.1446   81.9941   16.9425 N   0  0  0  0  0  0  0  0  0  0  0  0
   53.8755   83.2227   16.4877 C   0  0  0  0  0  0  0  0  0  0  0  0
   53.5582   84.2112   17.3400 N   0  0  0  0  0  0  0  0  0  0  0  0
   53.4958   84.0244   18.6688 C   0  0  0  0  0  0  0  0  0  0  0  0
   53.7719   82.7641   19.1372 C   0  0  0  0  0  0  0  0  0  0  0  0
   54.1052   81.7199   18.2623 C   0  0  0  0  0  0  0  0  0  0  0  0
   54.3522   80.5781   18.7242 O   0  0  0  0  0  0  0  0  0  0  0  0
   53.9283   83.4526   15.1390 C   0  0  0  0  0  0  0  0  0  0  0  0
   54.2502   82.4606   14.2361 C   0  0  0  0  0  0  0  0  0  0  0  0
 20 21  1  0  0  0
 21 22  2  0  0  0
 21 31  1  0  0  0
 22 23  1  0  0  0
 23 24  1  0  0  0
 23 28  1  0  0  0
 24 25  2  0  0  0
 24 30  1  0  0  0
 25 26  1  0  0  0
 26 27  2  0  0  0
 26 19  1  0  0  0
 27 28  1  0  0  0
 28 29  2  0  0  0
 19 18  1  0  0  0
 18  1  1  0  0  0
  1  2  2  0  0  0
  1  3  1  0  0  0
  3  4  2  0  0  0
  3  9  1  0  0  0
  4  5  1  0  0  0
  5  6  1  0  0  0
  5 14  1  0  0  0
  6  7  2  0  0  0
  6  8  1  0  0  0
  8  9  2  0  0  0
  8 13  1  0  0  0
  9 10  1  0  0  0
 10 11  2  0  0  0
 11 12  1  0  0  0
 12 13  2  0  0  0
 14 15  1  0  0  0
 15 16  1  0  0  0
 30 31  2  0  0  0
 16 17  1  0  0  0
M  END
> <minimizedAffinity>
-9.72104

$$$$
1386


 33 36  0  0  0  0  0  0  0  0999 V2000
   54.5200   85.9854   25.7033 C   0  0  0  0  0  0  0  0  0  0  0  0
   54.0265   87.1359   25.7038 O   0  0  0  0  0  0  0  0  0  0  0  0
   53.7151   84.8822   26.1718 N   0  0  0  0  0  0  0  0  0  0  0  0
   52.3748   85.1414   26.6221 C   0  0  0  0  0  0  0  0  0  0  0  0
   52.3456   84.8834   28.1144 C   0  0  0  0  0  0  0  0  0  0  0  0
   53.2769   83.8113   28.5519 C   0  0  0  0  0  0  0  0  0  0  0  0
   53.7222   82.8740   27.4901 C   0  0  0  0  0  0  0  0  0  0  0  0
   54.1690   83.5198   26.2197 C   0  0  0  0  0  0  0  0  0  0  0  0
   54.4205   84.3122   29.1936 O   0  0  0  0  0  0  0  0  0  0  0  0
   52.5479   82.9825   29.6180 C   0  0  0  0  0  0  0  0  0  0  0  0
   54.5621   85.2576   28.8750 H   0  0  0  0  0  0  0  0  0  0  0  0
   50.9737   84.6508   28.4953 N   0  0  0  0  0  0  0  0  0  0  0  0
   50.2181   83.7721   27.8080 C   0  0  0  0  0  0  0  0  0  0  0  0
   48.9050   83.5195   28.1363 C   0  0  0  0  0  0  0  0  0  0  0  0
   48.3559   84.1915   29.2038 C   0  0  0  0  0  0  0  0  0  0  0  0
   47.1454   84.0019   29.5583 O   0  0  0  0  0  0  0  0  0  0  0  0
   49.1318   85.0610   29.8694 N   0  0  0  0  0  0  0  0  0  0  0  0
   50.4018   85.2882   29.5313 C   0  0  0  0  0  0  0  0  0  0  0  0
   51.0901   86.1182   30.1920 O   0  0  0  0  0  0  0  0  0  0  0  0
   48.7471   85.6025   30.7006 H   0  0  0  0  0  0  0  0  0  0  0  0
   55.8874   85.7141   25.2460 C   0  0  0  0  0  0  0  0  0  0  0  0
   56.7992   86.8544   25.0806 C   0  0  0  0  0  0  0  0  0  0  0  0
   54.4399   92.5445   20.5178 Cl  0  0  0  0  0  0  0  0  0  0  0  0
   55.1877   91.0312   21.0530 C   0  0  0  0  0  0  0  0  0  0  0  0
   55.1633   90.7062   22.3889 C   0  0  0  0  0  0  0  0  0  0  0  0
   55.7376   89.5318   22.8481 C   0  0  0  0  0  0  0  0  0  0  0  0
   55.8594   88.9744   24.0618 N   0  0  0  0  0  0  0  0  0  0  0  0
   56.5335   87.7768   23.9472 C   0  0  0  0  0  0  0  0  0  0  0  0
   56.7991   87.6455   22.6522 N   0  0  0  0  0  0  0  0  0  0  0  0
   56.3311   88.7019   21.9255 C   0  0  0  0  0  0  0  0  0  0  0  0
   56.3614   89.0192   20.5838 C   0  0  0  0  0  0  0  0  0  0  0  0
   55.7890   90.1868   20.1400 C   0  0  0  0  0  0  0  0  0  0  0  0
   57.4557   86.5308   21.9929 C   0  0  0  0  0  0  0  0  0  0  0  0
 23 24  1  0  0  0
 24 25  2  0  0  0
 24 32  1  0  0  0
 25 26  1  0  0  0
 26 27  1  0  0  0
 26 30  2  0  0  0
 27 28  2  0  0  0
 28 29  1  0  0  0
 28 22  1  0  0  0
 29 30  1  0  0  0
 29 33  1  0  0  0
 30 31  1  0  0  0
 31 32  2  0  0  0
 22 21  1  0  0  0
 21  1  1  0  0  0
  1  2  2  0  0  0
  1  3  1  0  0  0
  3  4  1  0  0  0
  3  8  1  0  0  0
  4  5  1  0  0  0
  5  6  1  0  0  0
  5 12  1  0  0  0
  6  7  1  0  0  0
  6  9  1  0  0  0
  6 10  1  0  0  0
  7  8  1  0  0  0
 12 13  1  0  0  0
 12 18  1  0  0  0
 13 14  2  0  0  0
 14 15  1  0  0  0
 15 16  2  0  0  0
 15 17  1  0  0  0
 17 18  1  0  0  0
 18 19  2  0  0  0
  9 11  1  0  0  0
 17 20  1  0  0  0
M  END
> <minimizedAffinity>
-9.29423

$$$$
1388


 30 33  0  0  0  0  0  0  0  0999 V2000
   53.2131   84.3105   20.3718 C   0  0  0  0  0  0  0  0  0  0  0  0
   54.3662   84.7765   20.5444 O   0  0  0  0  0  0  0  0  0  0  0  0
   52.6437   83.4995   21.3658 N   0  0  0  0  0  0  0  0  0  0  0  0
   51.3258   82.9286   21.2389 C   0  0  0  0  0  0  0  0  0  0  0  0
   50.4757   83.5406   22.3310 C   0  0  0  0  0  0  0  0  0  0  0  0
   51.1831   83.4120   23.6590 C   0  0  0  0  0  0  0  0  0  0  0  0
   51.4547   84.7456   24.1520 N   0  0  0  0  0  0  0  0  0  0  0  0
   52.0091   84.7995   25.4595 C   0  0  0  0  0  0  0  0  0  0  0  0
   51.4762   83.8418   26.4611 C   0  0  0  0  0  0  0  0  0  0  0  0
   50.3507   83.0115   25.9835 C   0  0  0  0  0  0  0  0  0  0  0  0
   49.3447   82.3545   26.6383 N   0  0  0  0  0  0  0  0  0  0  0  0
   48.6044   81.7539   25.6987 C   0  0  0  0  0  0  0  0  0  0  0  0
   49.1231   82.0219   24.4892 N   0  0  0  0  0  0  0  0  0  0  0  0
   50.2201   82.8080   24.6282 C   0  0  0  0  0  0  0  0  0  0  0  0
   52.4368   82.5994   23.6151 C   0  0  0  0  0  0  0  0  0  0  0  0
   53.3777   83.2068   22.5699 C   0  0  0  0  0  0  0  0  0  0  0  0
   52.1319   85.2092   23.4908 H   0  0  0  0  0  0  0  0  0  0  0  0
   49.2196   82.3518   27.6926 H   0  0  0  0  0  0  0  0  0  0  0  0
   52.5270   84.6627   19.1005 C   0  0  0  0  0  0  0  0  0  0  0  0
   52.2099   87.1297   18.8333 C   0  0  0  0  0  0  0  0  0  0  0  0
   51.1465   87.0218   19.4962 O   0  0  0  0  0  0  0  0  0  0  0  0
   52.9559   85.9518   18.6019 N   0  0  0  0  0  0  0  0  0  0  0  0
   53.8379   86.0158   18.0566 H   0  0  0  0  0  0  0  0  0  0  0  0
   51.0907   92.2917   18.1422 Br  0  0  0  0  0  0  0  0  0  0  0  0
   52.2410   90.7976   17.9653 C   0  0  0  0  0  0  0  0  0  0  0  0
   51.8263   89.5665   18.4404 C   0  0  0  0  0  0  0  0  0  0  0  0
   52.6186   88.4380   18.3426 C   0  0  0  0  0  0  0  0  0  0  0  0
   53.8633   88.5702   17.7438 C   0  0  0  0  0  0  0  0  0  0  0  0
   54.2692   89.7968   17.2739 C   0  0  0  0  0  0  0  0  0  0  0  0
   53.4932   90.9310   17.3634 C   0  0  0  0  0  0  0  0  0  0  0  0
 24 25  1  0  0  0
 25 26  2  0  0  0
 25 30  1  0  0  0
 26 27  1  0  0  0
 27 28  2  0  0  0
 27 20  1  0  0  0
 28 29  1  0  0  0
 29 30  2  0  0  0
 20 21  2  0  0  0
 20 22  1  0  0  0
 22 19  1  0  0  0
 19  1  1  0  0  0
  1  2  2  0  0  0
  1  3  1  0  0  0
  3  4  1  0  0  0
  3 16  1  0  0  0
  4  5  1  0  0  0
  5  6  1  0  0  0
  6  7  1  0  0  0
  6 14  1  0  0  0
  6 15  1  0  0  0
  7  8  1  0  0  0
  8  9  1  0  0  0
  9 10  1  0  0  0
 10 11  1  0  0  0
 10 14  2  0  0  0
 11 12  1  0  0  0
 12 13  2  0  0  0
 13 14  1  0  0  0
 15 16  1  0  0  0
 22 23  1  0  0  0
  7 17  1  0  0  0
 11 18  1  0  0  0
M  END
> <minimizedAffinity>
-8.48709

$$$$
1404


 26 29  0  0  0  0  0  0  0  0999 V2000
   55.7323   80.9689   16.5258 Br  0  0  0  0  0  0  0  0  0  0  0  0
   54.7243   82.2998   17.4486 C   0  0  0  0  0  0  0  0  0  0  0  0
   54.3641   82.1361   18.7728 C   0  0  0  0  0  0  0  0  0  0  0  0
   53.6369   83.0681   19.4824 C   0  0  0  0  0  0  0  0  0  0  0  0
   53.2719   84.2196   18.7788 C   0  0  0  0  0  0  0  0  0  0  0  0
   53.6300   84.3822   17.4630 C   0  0  0  0  0  0  0  0  0  0  0  0
   54.3583   83.4406   16.7658 C   0  0  0  0  0  0  0  0  0  0  0  0
   54.7192   83.6697   15.3377 C   0  0  0  0  0  0  0  0  0  0  0  0
   52.5432   85.1349   19.5255 O   0  0  0  0  0  0  0  0  0  0  0  0
   52.0002   84.8713   20.8054 C   0  0  0  0  0  0  0  0  0  0  0  0
   53.0385   84.1054   21.6912 C   0  0  0  0  0  0  0  0  0  0  0  0
   53.2422   82.8857   20.8722 C   0  0  0  0  0  0  0  0  0  0  0  0
   53.1106   81.7046   21.2380 O   0  0  0  0  0  0  0  0  0  0  0  0
   52.6340   83.9284   22.9779 N   0  0  0  0  0  0  0  0  0  0  0  0
   53.3547   83.2088   23.9387 C   0  0  0  0  0  0  0  0  0  0  0  0
   52.7560   81.8293   24.1114 C   0  0  0  0  0  0  0  0  0  0  0  0
   51.4758   82.0417   24.6759 O   0  0  0  0  0  0  0  0  0  0  0  0
   50.7164   82.5688   23.6168 C   0  0  0  0  0  0  0  0  0  0  0  0
   51.2727   83.9555   23.2851 C   0  0  0  0  0  0  0  0  0  0  0  0
   54.2444   84.9719   21.6145 C   0  0  0  0  0  0  0  0  0  0  0  0
   54.1986   86.2591   22.2347 N   0  0  0  0  0  0  0  0  0  0  0  0
   54.7935   86.4182   23.5073 C   0  0  0  0  0  0  0  0  0  0  0  0
   56.3233   86.4807   23.3844 C   0  0  0  0  0  0  0  0  0  0  0  0
   56.5939   87.6644   22.6899 O   0  0  0  0  0  0  0  0  0  0  0  0
   56.1607   87.4684   21.3734 C   0  0  0  0  0  0  0  0  0  0  0  0
   54.6807   87.2582   21.2794 C   0  0  0  0  0  0  0  0  0  0  0  0
  1  2  1  0  0  0
  2  3  2  0  0  0
  2  7  1  0  0  0
  3  4  1  0  0  0
  4  5  2  0  0  0
  4 12  1  0  0  0
  5  6  1  0  0  0
  5  9  1  0  0  0
  6  7  2  0  0  0
  7  8  1  0  0  0
  9 10  1  0  0  0
 10 11  1  0  0  0
 11 12  1  0  0  0
 11 14  1  0  0  0
 11 20  1  0  0  0
 12 13  2  0  0  0
 14 15  1  0  0  0
 14 19  1  0  0  0
 15 16  1  0  0  0
 16 17  1  0  0  0
 17 18  1  0  0  0
 18 19  1  0  0  0
 20 21  1  0  0  0
 21 22  1  0  0  0
 21 26  1  0  0  0
 22 23  1  0  0  0
 23 24  1  0  0  0
 24 25  1  0  0  0
 25 26  1  0  0  0
M  END
> <minimizedAffinity>
-6.64505

$$$$
1405


 27 30  0  0  0  0  0  0  0  0999 V2000
   47.9575   79.9283   29.0520 Br  0  0  0  0  0  0  0  0  0  0  0  0
   48.7543   81.4653   29.8989 C   0  0  0  0  0  0  0  0  0  0  0  0
   49.8218   82.1102   29.3321 C   0  0  0  0  0  0  0  0  0  0  0  0
   50.3749   83.2086   29.9563 C   0  0  0  0  0  0  0  0  0  0  0  0
   49.8199   83.6134   31.1400 C   0  0  0  0  0  0  0  0  0  0  0  0
   48.7213   82.9488   31.7217 C   0  0  0  0  0  0  0  0  0  0  0  0
   48.1845   81.8601   31.0879 C   0  0  0  0  0  0  0  0  0  0  0  0
   50.4966   84.7539   31.6599 N   0  0  0  0  0  0  0  0  0  0  0  0
   51.5248   85.0875   30.7694 C   0  0  0  0  0  0  0  0  0  0  0  0
   52.3333   86.0545   30.9162 O   0  0  0  0  0  0  0  0  0  0  0  0
   51.5039   84.1116   29.6234 C   0  0  0  0  0  0  0  0  0  0  0  0
   51.2659   84.9081   28.4251 C   0  0  0  0  0  0  0  0  0  0  0  0
   52.1935   84.9854   27.4333 C   0  0  0  0  0  0  0  0  0  0  0  0
   51.6674   85.7982   26.4701 N   0  0  0  0  0  0  0  0  0  0  0  0
   50.4718   86.2154   26.8300 N   0  0  0  0  0  0  0  0  0  0  0  0
   50.1840   85.6957   28.0212 C   0  0  0  0  0  0  0  0  0  0  0  0
   48.9530   85.8649   28.8551 C   0  0  0  0  0  0  0  0  0  0  0  0
   53.4211   84.3166   27.4900 O   0  0  0  0  0  0  0  0  0  0  0  0
   53.6446   83.5584   28.6347 C   0  0  0  0  0  0  0  0  0  0  0  0
   52.7930   83.4458   29.6204 C   0  0  0  0  0  0  0  0  0  0  0  0
   54.9049   82.8395   28.7506 N   0  0  0  0  0  0  0  0  0  0  0  0
   50.1828   85.4645   32.9089 C   0  0  0  0  0  0  0  0  0  0  0  0
   49.8144   86.8497   26.3070 H   0  0  0  0  0  0  0  0  0  0  0  0
   55.6757   83.3828   29.1880 H   0  0  0  0  0  0  0  0  0  0  0  0
   55.0365   81.8815   28.4325 H   0  0  0  0  0  0  0  0  0  0  0  0
   53.1978   82.5982   30.7555 C   0  0  0  0  0  0  0  0  0  0  0  0
   53.5260   81.9100   31.6402 N   0  0  0  0  0  0  0  0  0  0  0  0
  1  2  1  0  0  0
  2  3  2  0  0  0
  2  7  1  0  0  0
  3  4  1  0  0  0
  4  5  2  0  0  0
  4 11  1  0  0  0
  5  6  1  0  0  0
  5  8  1  0  0  0
  6  7  2  0  0  0
  8  9  1  0  0  0
  8 22  1  0  0  0
  9 10  2  0  0  0
  9 11  1  0  0  0
 11 12  1  0  0  0
 11 20  1  0  0  0
 12 13  1  0  0  0
 12 16  2  0  0  0
 13 14  2  0  0  0
 13 18  1  0  0  0
 14 15  1  0  0  0
 15 16  1  0  0  0
 16 17  1  0  0  0
 18 19  1  0  0  0
 19 20  2  0  0  0
 19 21  1  0  0  0
 20 26  1  0  0  0
 26 27  3  0  0  0
 15 23  1  0  0  0
 21 24  1  0  0  0
 21 25  1  0  0  0
M  END
> <minimizedAffinity>
-6.54950

$$$$
1413


 24 27  0  0  0  0  0  0  0  0999 V2000
   52.1306   99.8332   27.9385 C   0  0  0  0  0  0  0  0  0  0  0  0
   49.4085  103.2891   30.8823 Br  0  0  0  0  0  0  0  0  0  0  0  0
   49.5231  101.7223   29.8243 C   0  0  0  0  0  0  0  0  0  0  0  0
   48.4036  100.9905   29.6180 C   0  0  0  0  0  0  0  0  0  0  0  0
   47.1347  101.1576   30.0396 N   0  0  0  0  0  0  0  0  0  0  0  0
   46.4742  100.1254   29.5236 N   0  0  0  0  0  0  0  0  0  0  0  0
   47.2462   99.3452   28.8196 N   0  0  0  0  0  0  0  0  0  0  0  0
   48.5051   99.8554   28.8455 C   0  0  0  0  0  0  0  0  0  0  0  0
   49.7227   99.4716   28.2934 C   0  0  0  0  0  0  0  0  0  0  0  0
   50.8374  100.1942   28.4953 N   0  0  0  0  0  0  0  0  0  0  0  0
   50.7253  101.3057   29.2544 C   0  0  0  0  0  0  0  0  0  0  0  0
   46.5349  102.1548   30.8427 C   0  0  0  0  0  0  0  0  0  0  0  0
   52.6311   98.5336   28.3763 C   0  0  0  0  0  0  0  0  0  0  0  0
   52.4069   98.2231   29.5858 O   0  0  0  0  0  0  0  0  0  0  0  0
   53.3591   97.5664   27.5606 C   0  0  0  0  0  0  0  0  0  0  0  0
   54.6233   97.8721   27.1416 C   0  0  0  0  0  0  0  0  0  0  0  0
   55.3283   96.9860   26.3694 C   0  0  0  0  0  0  0  0  0  0  0  0
   54.8012   95.7659   25.9872 C   0  0  0  0  0  0  0  0  0  0  0  0
   53.5107   95.4858   26.4300 C   0  0  0  0  0  0  0  0  0  0  0  0
   52.8038   96.3668   27.2012 C   0  0  0  0  0  0  0  0  0  0  0  0
   55.4913   94.8578   25.2113 C   0  0  0  0  0  0  0  0  0  0  0  0
   56.7639   95.2010   24.8080 C   0  0  0  0  0  0  0  0  0  0  0  0
   57.3002   96.4153   25.1830 C   0  0  0  0  0  0  0  0  0  0  0  0
   56.6070   97.3165   25.9577 C   0  0  0  0  0  0  0  0  0  0  0  0
  2  3  1  0  0  0
  3  4  2  0  0  0
  3 11  1  0  0  0
  4  5  1  0  0  0
  4  8  1  0  0  0
  5  6  1  0  0  0
  5 12  1  0  0  0
  6  7  2  0  0  0
  7  8  1  0  0  0
  8  9  2  0  0  0
  9 10  1  0  0  0
 10 11  2  0  0  0
 10  1  1  0  0  0
  1 13  1  0  0  0
 13 14  2  0  0  0
 13 15  1  0  0  0
 15 16  2  0  0  0
 15 20  1  0  0  0
 16 17  1  0  0  0
 17 18  2  0  0  0
 17 24  1  0  0  0
 18 19  1  0  0  0
 18 21  1  0  0  0
 19 20  2  0  0  0
 21 22  2  0  0  0
 22 23  1  0  0  0
 23 24  2  0  0  0
M  END
> <minimizedAffinity>
-10.05957

$$$$
1415


 32 35  0  0  0  0  0  0  0  0999 V2000
   50.2222   85.0208   28.7014 Br  0  0  0  0  0  0  0  0  0  0  0  0
   51.9125   84.1428   28.4891 C   0  0  0  0  0  0  0  0  0  0  0  0
   52.6595   84.3617   27.3562 C   0  0  0  0  0  0  0  0  0  0  0  0
   53.9032   83.7382   27.1612 C   0  0  0  0  0  0  0  0  0  0  0  0
   54.3325   82.8975   28.1647 C   0  0  0  0  0  0  0  0  0  0  0  0
   53.6031   82.6599   29.3098 C   0  0  0  0  0  0  0  0  0  0  0  0
   52.3877   83.2830   29.4782 C   0  0  0  0  0  0  0  0  0  0  0  0
   51.5287   83.0925   30.6755 C   0  0  0  0  0  0  0  0  0  0  0  0
   54.2237   81.4902   30.6835 Br  0  0  0  0  0  0  0  0  0  0  0  0
   54.6557   83.9952   25.9508 C   0  0  0  0  0  0  0  0  0  0  0  0
   55.7943   83.5345   25.8168 O   0  0  0  0  0  0  0  0  0  0  0  0
   54.0523   84.8103   24.8816 C   0  0  0  0  0  0  0  0  0  0  0  0
   53.1687   85.8407   25.5500 C   0  0  0  0  0  0  0  0  0  0  0  0
   52.1922   85.2188   26.3647 O   0  0  0  0  0  0  0  0  0  0  0  0
   55.0570   85.4502   23.9722 C   0  0  0  0  0  0  0  0  0  0  0  0
   54.8687   86.8245   23.7082 N   0  0  0  0  0  0  0  0  0  0  0  0
   55.8441   87.5980   24.4179 C   0  0  0  0  0  0  0  0  0  0  0  0
   57.2347   87.4915   23.9030 C   0  0  0  0  0  0  0  0  0  0  0  0
   57.4158   86.7900   22.6130 C   0  0  0  0  0  0  0  0  0  0  0  0
   56.2379   86.7225   21.7213 C   0  0  0  0  0  0  0  0  0  0  0  0
   54.9563   87.2134   22.3277 C   0  0  0  0  0  0  0  0  0  0  0  0
   58.0629   86.7465   24.9565 C   0  0  0  0  0  0  0  0  0  0  0  0
   53.9226   87.1301   24.0504 H   0  0  0  0  0  0  0  0  0  0  0  0
   53.1636   83.8710   24.0927 C   0  0  0  0  0  0  0  0  0  0  0  0
   52.2870   84.4988   23.1639 N   0  0  0  0  0  0  0  0  0  0  0  0
   50.9438   83.9326   23.2727 C   0  0  0  0  0  0  0  0  0  0  0  0
   50.6495   82.9343   22.1916 C   0  0  0  0  0  0  0  0  0  0  0  0
   51.8602   82.0565   21.9695 C   0  0  0  0  0  0  0  0  0  0  0  0
   52.9472   82.9131   21.3981 C   0  0  0  0  0  0  0  0  0  0  0  0
   52.6810   84.3481   21.7799 C   0  0  0  0  0  0  0  0  0  0  0  0
   49.5416   82.0139   22.7214 C   0  0  0  0  0  0  0  0  0  0  0  0
   52.1972   85.4975   23.3689 H   0  0  0  0  0  0  0  0  0  0  0  0
  1  2  1  0  0  0
  2  3  2  0  0  0
  2  7  1  0  0  0
  3  4  1  0  0  0
  3 14  1  0  0  0
  4  5  2  0  0  0
  4 10  1  0  0  0
  5  6  1  0  0  0
  6  7  2  0  0  0
  6  9  1  0  0  0
  7  8  1  0  0  0
 10 11  2  0  0  0
 10 12  1  0  0  0
 12 13  1  0  0  0
 12 15  1  0  0  0
 12 24  1  0  0  0
 13 14  1  0  0  0
 15 16  1  0  0  0
 16 17  1  0  0  0
 16 21  1  0  0  0
 17 18  1  0  0  0
 18 19  1  0  0  0
 18 22  1  0  0  0
 19 20  1  0  0  0
 20 21  1  0  0  0
 24 25  1  0  0  0
 25 26  1  0  0  0
 25 30  1  0  0  0
 26 27  1  0  0  0
 27 28  1  0  0  0
 27 31  1  0  0  0
 28 29  1  0  0  0
 29 30  1  0  0  0
 16 23  1  0  0  0
 25 32  1  0  0  0
M  CHG 1  16   1
M  CHG 1  25   1
M  END
> <minimizedAffinity>
-7.47087

$$$$
1428


 37 40  0  0  0  0  0  0  0  0999 V2000
   55.2290   88.1963   23.5829 Cl  0  0  0  0  0  0  0  0  0  0  0  0
   54.5387   86.6466   23.1109 C   0  0  0  0  0  0  0  0  0  0  0  0
   54.3426   86.3077   21.7988 C   0  0  0  0  0  0  0  0  0  0  0  0
   53.7986   85.0828   21.4847 C   0  0  0  0  0  0  0  0  0  0  0  0
   53.4692   84.2366   22.5109 C   0  0  0  0  0  0  0  0  0  0  0  0
   53.6709   84.5852   23.8493 C   0  0  0  0  0  0  0  0  0  0  0  0
   54.2102   85.8018   24.1485 C   0  0  0  0  0  0  0  0  0  0  0  0
   52.9317   83.0044   22.0442 N   0  0  0  0  0  0  0  0  0  0  0  0
   52.9263   83.0866   20.6459 C   0  0  0  0  0  0  0  0  0  0  0  0
   52.5128   82.1257   19.9171 O   0  0  0  0  0  0  0  0  0  0  0  0
   53.4481   84.3930   20.2206 C   0  0  0  0  0  0  0  0  0  0  0  0
   54.5971   84.1590   19.3917 N   0  0  0  0  0  0  0  0  0  0  0  0
   54.2872   84.5416   18.0495 C   0  0  0  0  0  0  0  0  0  0  0  0
   52.8069   84.7351   17.9716 C   0  0  0  0  0  0  0  0  0  0  0  0
   52.4562   85.0859   19.3908 C   0  0  0  0  0  0  0  0  0  0  0  0
   52.6027   82.1898   22.6274 H   0  0  0  0  0  0  0  0  0  0  0  0
   55.4446   84.6224   19.7822 H   0  0  0  0  0  0  0  0  0  0  0  0
   52.3222   86.5497   19.6055 C   0  0  0  0  0  0  0  0  0  0  0  0
   51.2692   86.9281   20.1733 O   0  0  0  0  0  0  0  0  0  0  0  0
   53.2863   87.4854   19.2133 N   0  0  0  0  0  0  0  0  0  0  0  0
   54.1473   87.0598   18.7505 H   0  0  0  0  0  0  0  0  0  0  0  0
   53.2700   88.8736   19.3560 C   0  0  0  0  0  0  0  0  0  0  0  0
   54.4114   89.5228   19.8042 C   0  0  0  0  0  0  0  0  0  0  0  0
   54.4669   90.8921   19.9667 C   0  0  0  0  0  0  0  0  0  0  0  0
   53.3811   91.6844   19.6899 C   0  0  0  0  0  0  0  0  0  0  0  0
   52.2432   91.0740   19.2476 C   0  0  0  0  0  0  0  0  0  0  0  0
   52.2011   89.6910   19.0872 C   0  0  0  0  0  0  0  0  0  0  0  0
   55.5476   88.7923   20.1045 O   0  0  0  0  0  0  0  0  0  0  0  0
   56.7758   89.3588   20.4449 C   0  0  0  0  0  0  0  0  0  0  0  0
   51.1269   91.8369   18.9565 O   0  0  0  0  0  0  0  0  0  0  0  0
   50.7551   92.1749   17.6325 C   0  0  0  0  0  0  0  0  0  0  0  0
   54.7832   83.5175   17.0420 C   0  0  0  0  0  0  0  0  0  0  0  0
   54.7939   82.1573   17.5989 C   0  0  0  0  0  0  0  0  0  0  0  0
   55.7078   81.7972   18.3573 O   0  0  0  0  0  0  0  0  0  0  0  0
   53.7615   81.2595   17.2694 N   0  0  0  0  0  0  0  0  0  0  0  0
   53.3068   80.7268   18.0413 H   0  0  0  0  0  0  0  0  0  0  0  0
   53.4138   81.0866   16.2948 H   0  0  0  0  0  0  0  0  0  0  0  0
  1  2  1  0  0  0
  2  3  2  0  0  0
  2  7  1  0  0  0
  3  4  1  0  0  0
  4  5  2  0  0  0
  4 11  1  0  0  0
  5  6  1  0  0  0
  5  8  1  0  0  0
  6  7  2  0  0  0
  8  9  1  0  0  0
  9 10  2  0  0  0
  9 11  1  0  0  0
 11 12  1  0  0  0
 11 15  1  0  0  0
 12 13  1  0  0  0
 13 14  1  0  0  0
 13 32  1  0  0  0
 14 15  1  0  0  0
 15 18  1  0  0  0
 18 19  2  0  0  0
 18 20  1  0  0  0
 20 22  1  0  0  0
 22 23  2  0  0  0
 22 27  1  0  0  0
 23 24  1  0  0  0
 23 28  1  0  0  0
 24 25  2  0  0  0
 25 26  1  0  0  0
 26 27  2  0  0  0
 26 30  1  0  0  0
 30 31  1  0  0  0
 28 29  1  0  0  0
 32 33  1  0  0  0
 33 34  2  0  0  0
 33 35  1  0  0  0
  8 16  1  0  0  0
 12 17  1  0  0  0
 20 21  1  0  0  0
 35 36  1  0  0  0
 35 37  1  0  0  0
M  END
> <minimizedAffinity>
-7.70684

$$$$
1432


 21 24  0  0  0  0  0  0  0  0999 V2000
   55.7359   89.6320   21.8849 C   0  0  0  0  0  0  0  0  0  0  0  0
   55.6839   89.6546   23.2269 N   0  0  0  0  0  0  0  0  0  0  0  0
   55.2384   88.4795   23.7023 N   0  0  0  0  0  0  0  0  0  0  0  0
   55.0022   87.6898   22.6395 C   0  0  0  0  0  0  0  0  0  0  0  0
   55.3078   88.3994   21.5373 N   0  0  0  0  0  0  0  0  0  0  0  0
   54.5315   86.4131   22.8798 C   0  0  0  0  0  0  0  0  0  0  0  0
   54.3035   85.9412   24.1587 C   0  0  0  0  0  0  0  0  0  0  0  0
   53.8468   84.6711   24.1138 N   0  0  0  0  0  0  0  0  0  0  0  0
   53.7908   84.3526   22.8343 N   0  0  0  0  0  0  0  0  0  0  0  0
   54.1924   85.3697   22.0507 C   0  0  0  0  0  0  0  0  0  0  0  0
   53.4968   83.8437   25.2663 C   0  0  0  0  0  0  0  0  0  0  0  0
   54.5619   86.7849   25.1727 N   0  0  0  0  0  0  0  0  0  0  0  0
   55.0197   88.0280   24.9517 C   0  0  0  0  0  0  0  0  0  0  0  0
   56.1666   90.7103   20.9529 C   0  0  0  0  0  0  0  0  0  0  0  0
   51.6645   91.8791   18.1285 Br  0  0  0  0  0  0  0  0  0  0  0  0
   53.4147   91.3410   18.6566 C   0  0  0  0  0  0  0  0  0  0  0  0
   53.9632   91.3366   19.9369 C   0  0  0  0  0  0  0  0  0  0  0  0
   55.2285   90.8788   19.8548 N   0  0  0  0  0  0  0  0  0  0  0  0
   55.4834   90.6015   18.5758 N   0  0  0  0  0  0  0  0  0  0  0  0
   54.4025   90.8702   17.8179 C   0  0  0  0  0  0  0  0  0  0  0  0
   54.2310   90.7157   16.3540 C   0  0  0  0  0  0  0  0  0  0  0  0
 15 16  1  0  0  0
 16 17  2  0  0  0
 16 20  1  0  0  0
 17 18  1  0  0  0
 18 19  1  0  0  0
 18 14  1  0  0  0
 19 20  2  0  0  0
 20 21  1  0  0  0
 14  1  1  0  0  0
  1  2  2  0  0  0
  1  5  1  0  0  0
  2  3  1  0  0  0
  3  4  1  0  0  0
  3 13  1  0  0  0
  4  5  2  0  0  0
  4  6  1  0  0  0
  6  7  2  0  0  0
  6 10  1  0  0  0
  7  8  1  0  0  0
  7 12  1  0  0  0
  8  9  1  0  0  0
  8 11  1  0  0  0
  9 10  2  0  0  0
 12 13  2  0  0  0
M  END
> <minimizedAffinity>
-8.07576

$$$$
1433


 28 31  0  0  0  0  0  0  0  0999 V2000
   52.4965   89.5459   17.6561 Br  0  0  0  0  0  0  0  0  0  0  0  0
   53.5042   89.0184   19.1735 C   0  0  0  0  0  0  0  0  0  0  0  0
   53.5259   87.6736   19.5570 C   0  0  0  0  0  0  0  0  0  0  0  0
   54.2541   87.2537   20.6429 C   0  0  0  0  0  0  0  0  0  0  0  0
   54.9604   88.2038   21.3411 C   0  0  0  0  0  0  0  0  0  0  0  0
   54.9560   89.5504   20.9815 C   0  0  0  0  0  0  0  0  0  0  0  0
   54.2127   89.9627   19.8717 C   0  0  0  0  0  0  0  0  0  0  0  0
   54.2048   91.3978   19.4744 C   0  0  0  0  0  0  0  0  0  0  0  0
   55.7199   90.5437   21.7821 C   0  0  0  0  0  0  0  0  0  0  0  0
   54.3658   85.8384   21.0994 C   0  0  0  0  0  0  0  0  0  0  0  0
   53.4321   84.8884   20.4143 C   0  0  0  0  0  0  0  0  0  0  0  0
   52.2887   85.6802   19.8067 C   0  0  0  0  0  0  0  0  0  0  0  0
   52.8255   86.6742   18.8957 O   0  0  0  0  0  0  0  0  0  0  0  0
   54.1206   85.8362   22.5077 O   0  0  0  0  0  0  0  0  0  0  0  0
   54.9408   86.1806   22.9396 H   0  0  0  0  0  0  0  0  0  0  0  0
   52.8809   84.0417   21.4504 N   0  0  0  0  0  0  0  0  0  0  0  0
   53.3974   82.7138   21.4410 C   0  0  0  0  0  0  0  0  0  0  0  0
   52.5975   81.7018   22.2102 C   0  0  0  0  0  0  0  0  0  0  0  0
   51.2395   81.8619   22.1507 O   0  0  0  0  0  0  0  0  0  0  0  0
   50.9372   83.1479   22.6175 C   0  0  0  0  0  0  0  0  0  0  0  0
   51.4486   84.0759   21.4845 C   0  0  0  0  0  0  0  0  0  0  0  0
   53.9989   84.1223   19.2803 C   0  0  0  0  0  0  0  0  0  0  0  0
   53.2888   83.7919   18.1317 N   0  0  0  0  0  0  0  0  0  0  0  0
   54.1569   84.0171   16.9254 C   0  0  0  0  0  0  0  0  0  0  0  0
   55.4309   83.2639   17.0325 C   0  0  0  0  0  0  0  0  0  0  0  0
   55.3503   82.0846   17.7231 O   0  0  0  0  0  0  0  0  0  0  0  0
   54.1196   81.4971   17.7646 C   0  0  0  0  0  0  0  0  0  0  0  0
   52.9385   82.4038   17.8942 C   0  0  0  0  0  0  0  0  0  0  0  0
  1  2  1  0  0  0
  2  3  2  0  0  0
  2  7  1  0  0  0
  3  4  1  0  0  0
  3 13  1  0  0  0
  4  5  2  0  0  0
  4 10  1  0  0  0
  5  6  1  0  0  0
  6  7  2  0  0  0
  6  9  1  0  0  0
  7  8  1  0  0  0
 10 11  1  0  0  0
 10 14  1  0  0  0
 11 12  1  0  0  0
 11 16  1  0  0  0
 11 22  1  0  0  0
 12 13  1  0  0  0
 16 17  1  0  0  0
 16 21  1  0  0  0
 17 18  1  0  0  0
 18 19  1  0  0  0
 19 20  1  0  0  0
 20 21  1  0  0  0
 22 23  1  0  0  0
 23 24  1  0  0  0
 23 28  1  0  0  0
 24 25  1  0  0  0
 25 26  1  0  0  0
 26 27  1  0  0  0
 27 28  1  0  0  0
 14 15  1  0  0  0
M  END
> <minimizedAffinity>
-8.21236

$$$$
1434


 28 31  0  0  0  0  0  0  0  0999 V2000
   53.0528   85.8619   19.4206 C   0  0  0  0  0  0  0  0  0  0  0  0
   52.8902   85.5327   18.1439 O   0  0  0  0  0  0  0  0  0  0  0  0
   53.7276   84.9147   20.1744 N   0  0  0  0  0  0  0  0  0  0  0  0
   54.0547   84.9636   21.5548 C   0  0  0  0  0  0  0  0  0  0  0  0
   53.1876   83.9705   22.3297 C   0  0  0  0  0  0  0  0  0  0  0  0
   52.8849   82.7671   21.4528 C   0  0  0  0  0  0  0  0  0  0  0  0
   52.8461   81.6271   22.3531 N   0  0  0  0  0  0  0  0  0  0  0  0
   51.4827   81.5191   22.8121 C   0  0  0  0  0  0  0  0  0  0  0  0
   51.0926   80.8851   23.8239 O   0  0  0  0  0  0  0  0  0  0  0  0
   50.6648   82.2714   21.8959 N   0  0  0  0  0  0  0  0  0  0  0  0
   51.5157   82.8254   20.9000 C   0  0  0  0  0  0  0  0  0  0  0  0
   51.1382   83.2641   19.7887 O   0  0  0  0  0  0  0  0  0  0  0  0
   53.9424   82.5216   20.4234 C   0  0  0  0  0  0  0  0  0  0  0  0
   54.1767   83.6724   19.4999 C   0  0  0  0  0  0  0  0  0  0  0  0
   53.6356   81.0038   22.6221 H   0  0  0  0  0  0  0  0  0  0  0  0
   49.6432   82.3842   21.9567 H   0  0  0  0  0  0  0  0  0  0  0  0
   52.4708   87.1551   19.7202 C   0  0  0  0  0  0  0  0  0  0  0  0
   53.8542   91.6727   17.0399 Br  0  0  0  0  0  0  0  0  0  0  0  0
   53.7447   90.1871   18.2379 C   0  0  0  0  0  0  0  0  0  0  0  0
   54.6571   89.9627   19.2385 C   0  0  0  0  0  0  0  0  0  0  0  0
   54.2628   88.8200   19.8852 C   0  0  0  0  0  0  0  0  0  0  0  0
   53.1258   88.3431   19.2966 N   0  0  0  0  0  0  0  0  0  0  0  0
   52.8138   89.1872   18.2850 C   0  0  0  0  0  0  0  0  0  0  0  0
   51.6501   89.0385   17.3820 C   0  0  0  0  0  0  0  0  0  0  0  0
   55.0148   88.3489   20.9617 C   0  0  0  0  0  0  0  0  0  0  0  0
   56.1532   89.0264   21.3792 C   0  0  0  0  0  0  0  0  0  0  0  0
   56.5300   90.1639   20.7212 C   0  0  0  0  0  0  0  0  0  0  0  0
   55.7944   90.6355   19.6584 C   0  0  0  0  0  0  0  0  0  0  0  0
 18 19  1  0  0  0
 19 20  1  0  0  0
 19 23  2  0  0  0
 20 21  2  0  0  0
 20 28  1  0  0  0
 21 22  1  0  0  0
 21 25  1  0  0  0
 22 23  1  0  0  0
 22 17  1  0  0  0
 23 24  1  0  0  0
 17  1  1  0  0  0
  1  2  2  0  0  0
  1  3  1  0  0  0
  3  4  1  0  0  0
  3 14  1  0  0  0
  4  5  1  0  0  0
  5  6  1  0  0  0
  6  7  1  0  0  0
  6 11  1  0  0  0
  6 13  1  0  0  0
  7  8  1  0  0  0
  8  9  2  0  0  0
  8 10  1  0  0  0
 10 11  1  0  0  0
 11 12  2  0  0  0
 13 14  1  0  0  0
 25 26  2  0  0  0
 26 27  1  0  0  0
 27 28  2  0  0  0
  7 15  1  0  0  0
 10 16  1  0  0  0
M  END
> <minimizedAffinity>
-8.45897

$$$$
1435


 32 35  0  0  0  0  0  0  0  0999 V2000
   52.9696   84.1424   22.1666 C   0  0  0  0  0  0  0  0  0  0  0  0
   53.2575   83.0967   23.2353 C   0  0  0  0  0  0  0  0  0  0  0  0
   49.9601   82.5796   23.3456 Br  0  0  0  0  0  0  0  0  0  0  0  0
   51.1832   83.2076   24.6707 C   0  0  0  0  0  0  0  0  0  0  0  0
   52.5108   83.3576   24.4426 N   0  0  0  0  0  0  0  0  0  0  0  0
   53.0127   83.8157   25.6111 C   0  0  0  0  0  0  0  0  0  0  0  0
   52.0174   83.9505   26.5564 C   0  0  0  0  0  0  0  0  0  0  0  0
   50.8804   83.5610   25.9331 N   0  0  0  0  0  0  0  0  0  0  0  0
   52.2590   84.3925   27.8114 N   0  0  0  0  0  0  0  0  0  0  0  0
   53.5269   84.7073   28.1316 C   0  0  0  0  0  0  0  0  0  0  0  0
   53.8283   85.1253   29.2810 O   0  0  0  0  0  0  0  0  0  0  0  0
   54.5358   84.5867   27.2259 N   0  0  0  0  0  0  0  0  0  0  0  0
   54.3054   84.1487   25.9794 C   0  0  0  0  0  0  0  0  0  0  0  0
   55.1976   84.0211   25.1115 O   0  0  0  0  0  0  0  0  0  0  0  0
   51.1991   84.5293   28.7927 C   0  0  0  0  0  0  0  0  0  0  0  0
   55.5102   84.8410   27.5127 H   0  0  0  0  0  0  0  0  0  0  0  0
   53.8139   85.3721   22.3716 C   0  0  0  0  0  0  0  0  0  0  0  0
   54.6576   85.7591   21.1938 C   0  0  0  0  0  0  0  0  0  0  0  0
   54.3358   87.0780   20.7610 N   0  0  0  0  0  0  0  0  0  0  0  0
   54.8305   88.2596   21.1251 C   0  0  0  0  0  0  0  0  0  0  0  0
   54.2087   89.2544   20.3788 C   0  0  0  0  0  0  0  0  0  0  0  0
   53.3499   88.6244   19.5827 N   0  0  0  0  0  0  0  0  0  0  0  0
   53.4090   87.3091   19.7972 C   0  0  0  0  0  0  0  0  0  0  0  0
   52.3460   86.0243   18.8730 Br  0  0  0  0  0  0  0  0  0  0  0  0
   54.5238   90.5406   20.5558 N   0  0  0  0  0  0  0  0  0  0  0  0
   55.4502   90.9087   21.4616 C   0  0  0  0  0  0  0  0  0  0  0  0
   55.7410   92.1203   21.6218 O   0  0  0  0  0  0  0  0  0  0  0  0
   56.0549   89.9627   22.1868 N   0  0  0  0  0  0  0  0  0  0  0  0
   55.7682   88.6604   22.0403 C   0  0  0  0  0  0  0  0  0  0  0  0
   56.3411   87.7921   22.7279 O   0  0  0  0  0  0  0  0  0  0  0  0
   53.8877   91.6043   19.7859 C   0  0  0  0  0  0  0  0  0  0  0  0
   56.7892   90.2091   22.9104 H   0  0  0  0  0  0  0  0  0  0  0  0
  3  4  1  0  0  0
  4  5  1  0  0  0
  4  8  2  0  0  0
  5  6  1  0  0  0
  5  2  1  0  0  0
  6  7  2  0  0  0
  6 13  1  0  0  0
  7  8  1  0  0  0
  7  9  1  0  0  0
  9 10  1  0  0  0
  9 15  1  0  0  0
 10 11  2  0  0  0
 10 12  1  0  0  0
 12 13  1  0  0  0
 13 14  2  0  0  0
  2  1  1  0  0  0
  1 17  1  0  0  0
 17 18  1  0  0  0
 18 19  1  0  0  0
 19 20  1  0  0  0
 19 23  1  0  0  0
 20 21  2  0  0  0
 20 29  1  0  0  0
 21 22  1  0  0  0
 21 25  1  0  0  0
 22 23  2  0  0  0
 23 24  1  0  0  0
 25 26  1  0  0  0
 25 31  1  0  0  0
 26 27  2  0  0  0
 26 28  1  0  0  0
 28 29  1  0  0  0
 29 30  2  0  0  0
 12 16  1  0  0  0
 28 32  1  0  0  0
M  END
> <minimizedAffinity>
-8.04419

$$$$
1436


 33 36  0  0  0  0  0  0  0  0999 V2000
   54.5115   85.9879   25.4903 O   0  0  0  0  0  0  0  0  0  0  0  0
   54.6594   84.7710   26.0688 C   0  0  0  0  0  0  0  0  0  0  0  0
   53.5120   83.9129   26.4072 C   0  0  0  0  0  0  0  0  0  0  0  0
   54.7388   82.4462   29.2952 Br  0  0  0  0  0  0  0  0  0  0  0  0
   53.2672   83.5969   28.8865 C   0  0  0  0  0  0  0  0  0  0  0  0
   52.9104   84.0579   27.6897 N   0  0  0  0  0  0  0  0  0  0  0  0
   51.7803   84.7898   27.8948 C   0  0  0  0  0  0  0  0  0  0  0  0
   51.4923   84.7447   29.2415 C   0  0  0  0  0  0  0  0  0  0  0  0
   52.4115   84.0085   29.8509 N   0  0  0  0  0  0  0  0  0  0  0  0
   50.3934   85.4033   29.7043 N   0  0  0  0  0  0  0  0  0  0  0  0
   49.6295   86.0699   28.8410 C   0  0  0  0  0  0  0  0  0  0  0  0
   48.6163   86.6721   29.3005 O   0  0  0  0  0  0  0  0  0  0  0  0
   49.9009   86.1200   27.5273 N   0  0  0  0  0  0  0  0  0  0  0  0
   50.9857   85.4820   27.0027 C   0  0  0  0  0  0  0  0  0  0  0  0
   51.2293   85.5327   25.7711 O   0  0  0  0  0  0  0  0  0  0  0  0
   50.0568   85.3810   31.1129 C   0  0  0  0  0  0  0  0  0  0  0  0
   49.2935   86.6456   26.8631 H   0  0  0  0  0  0  0  0  0  0  0  0
   54.2070   85.8760   24.1436 C   0  0  0  0  0  0  0  0  0  0  0  0
   55.3956   86.3011   23.3339 C   0  0  0  0  0  0  0  0  0  0  0  0
   55.0360   87.1945   22.2788 N   0  0  0  0  0  0  0  0  0  0  0  0
   55.1622   88.5280   22.3033 C   0  0  0  0  0  0  0  0  0  0  0  0
   54.7047   89.0103   21.1167 C   0  0  0  0  0  0  0  0  0  0  0  0
   54.3112   87.9608   20.4000 N   0  0  0  0  0  0  0  0  0  0  0  0
   54.5008   86.8208   21.0847 C   0  0  0  0  0  0  0  0  0  0  0  0
   54.1301   85.0293   20.5744 Br  0  0  0  0  0  0  0  0  0  0  0  0
   54.7210   90.3326   20.8757 N   0  0  0  0  0  0  0  0  0  0  0  0
   55.1900   91.1554   21.8107 C   0  0  0  0  0  0  0  0  0  0  0  0
   55.1997   92.3922   21.5711 O   0  0  0  0  0  0  0  0  0  0  0  0
   55.6414   90.7050   22.9747 N   0  0  0  0  0  0  0  0  0  0  0  0
   55.6444   89.4000   23.2592 C   0  0  0  0  0  0  0  0  0  0  0  0
   56.0859   89.0087   24.3867 O   0  0  0  0  0  0  0  0  0  0  0  0
   54.2379   90.8646   19.6187 C   0  0  0  0  0  0  0  0  0  0  0  0
   56.0050   91.3660   23.6950 H   0  0  0  0  0  0  0  0  0  0  0  0
  4  5  1  0  0  0
  5  6  1  0  0  0
  5  9  2  0  0  0
  6  7  1  0  0  0
  6  3  1  0  0  0
  7  8  2  0  0  0
  7 14  1  0  0  0
  8  9  1  0  0  0
  8 10  1  0  0  0
 10 11  1  0  0  0
 10 16  1  0  0  0
 11 12  2  0  0  0
 11 13  1  0  0  0
 13 14  1  0  0  0
 14 15  2  0  0  0
  3  2  1  0  0  0
  2  1  1  0  0  0
  1 18  1  0  0  0
 18 19  1  0  0  0
 19 20  1  0  0  0
 20 21  1  0  0  0
 20 24  1  0  0  0
 21 22  2  0  0  0
 21 30  1  0  0  0
 22 23  1  0  0  0
 22 26  1  0  0  0
 23 24  2  0  0  0
 24 25  1  0  0  0
 26 27  1  0  0  0
 26 32  1  0  0  0
 27 28  2  0  0  0
 27 29  1  0  0  0
 29 30  1  0  0  0
 30 31  2  0  0  0
 13 17  1  0  0  0
 29 33  1  0  0  0
M  END
> <minimizedAffinity>
-8.23255

$$$$
1444


 33 36  0  0  0  0  0  0  0  0999 V2000
   52.4684   85.8112   18.2750 N   0  0  0  0  0  0  0  0  0  0  0  0
   52.4278   87.1398   18.5551 C   0  0  0  0  0  0  0  0  0  0  0  0
   51.2700   87.6448   18.0120 O   0  0  0  0  0  0  0  0  0  0  0  0
   51.5617   85.4752   17.7014 H   0  0  0  0  0  0  0  0  0  0  0  0
   53.8725   84.2601   19.5778 N   0  0  0  0  0  0  0  0  0  0  0  0
   54.6256   83.2049   19.2944 N   0  0  0  0  0  0  0  0  0  0  0  0
   54.6387   82.9570   17.9959 C   0  0  0  0  0  0  0  0  0  0  0  0
   53.8259   83.9360   17.4055 C   0  0  0  0  0  0  0  0  0  0  0  0
   53.3525   84.7476   18.4114 C   0  0  0  0  0  0  0  0  0  0  0  0
   53.6364   84.8118   20.8662 C   0  0  0  0  0  0  0  0  0  0  0  0
   53.6916   85.1025   23.9205 Cl  0  0  0  0  0  0  0  0  0  0  0  0
   52.5368   84.1495   23.0174 C   0  0  0  0  0  0  0  0  0  0  0  0
   52.6157   84.0993   21.6568 C   0  0  0  0  0  0  0  0  0  0  0  0
   51.6809   83.3336   20.9965 C   0  0  0  0  0  0  0  0  0  0  0  0
   50.7012   82.6408   21.6602 C   0  0  0  0  0  0  0  0  0  0  0  0
   50.6307   82.6989   23.0358 C   0  0  0  0  0  0  0  0  0  0  0  0
   51.5618   83.4624   23.7027 C   0  0  0  0  0  0  0  0  0  0  0  0
   53.1656   88.2008   19.2211 C   0  0  0  0  0  0  0  0  0  0  0  0
   53.6305   89.3839   18.6358 N   0  0  0  0  0  0  0  0  0  0  0  0
   54.0023   89.4816   17.1990 C   0  0  0  0  0  0  0  0  0  0  0  0
   54.7676   90.7841   17.0925 C   0  0  0  0  0  0  0  0  0  0  0  0
   53.8336   91.9194   17.4186 C   0  0  0  0  0  0  0  0  0  0  0  0
   53.4737   91.8666   18.8882 C   0  0  0  0  0  0  0  0  0  0  0  0
   53.8510   90.5399   19.4563 C   0  0  0  0  0  0  0  0  0  0  0  0
   54.4612   90.4649   20.6413 C   0  0  0  0  0  0  0  0  0  0  0  0
   54.6619   91.6335   21.4541 N   0  0  0  0  0  0  0  0  0  0  0  0
   55.3816   91.2791   22.6096 N   0  0  0  0  0  0  0  0  0  0  0  0
   55.6466   89.8955   22.5512 C   0  0  0  0  0  0  0  0  0  0  0  0
   56.2561   89.1660   23.3659 O   0  0  0  0  0  0  0  0  0  0  0  0
   55.0683   89.4155   21.3241 N   0  0  0  0  0  0  0  0  0  0  0  0
   54.3707   92.6213   21.3220 H   0  0  0  0  0  0  0  0  0  0  0  0
   55.6846   91.9041   23.3973 H   0  0  0  0  0  0  0  0  0  0  0  0
   55.1284   88.4354   21.0029 H   0  0  0  0  0  0  0  0  0  0  0  0
 11 12  1  0  0  0
 12 13  2  0  0  0
 12 17  1  0  0  0
 13 14  1  0  0  0
 13 10  1  0  0  0
 14 15  2  0  0  0
 15 16  1  0  0  0
 16 17  2  0  0  0
 10  5  1  0  0  0
  5  6  1  0  0  0
  5  9  1  0  0  0
  6  7  2  0  0  0
  7  8  1  0  0  0
  8  9  2  0  0  0
  9  1  1  0  0  0
  1  2  1  0  0  0
  2  3  2  0  0  0
  2 18  1  0  0  0
 18 19  1  0  0  0
 19 20  1  0  0  0
 19 24  1  0  0  0
 20 21  1  0  0  0
 21 22  1  0  0  0
 22 23  1  0  0  0
 23 24  1  0  0  0
 24 25  2  0  0  0
 25 26  1  0  0  0
 25 30  1  0  0  0
 26 27  1  0  0  0
 27 28  1  0  0  0
 28 29  2  0  0  0
 28 30  1  0  0  0
  1  4  1  0  0  0
 26 31  1  0  0  0
 27 32  1  0  0  0
 30 33  1  0  0  0
M  END
> <minimizedAffinity>
-9.42037

$$$$
1447


 38 41  0  0  0  0  0  0  0  0999 V2000
   54.5995   90.0094   21.1147 C   0  0  0  0  0  0  0  0  0  0  0  0
   53.8857   89.8928   19.9483 N   0  0  0  0  0  0  0  0  0  0  0  0
   53.7351   88.6305   19.6571 N   0  0  0  0  0  0  0  0  0  0  0  0
   54.3067   87.8546   20.5618 N   0  0  0  0  0  0  0  0  0  0  0  0
   54.8497   88.6802   21.4724 C   0  0  0  0  0  0  0  0  0  0  0  0
   54.2773   86.4388   20.5245 C   0  0  0  0  0  0  0  0  0  0  0  0
   55.2645   85.5537   20.7793 N   0  0  0  0  0  0  0  0  0  0  0  0
   54.8130   84.3353   20.6412 O   0  0  0  0  0  0  0  0  0  0  0  0
   53.5497   84.3529   20.3001 N   0  0  0  0  0  0  0  0  0  0  0  0
   53.1838   85.6430   20.2188 C   0  0  0  0  0  0  0  0  0  0  0  0
   51.8863   86.0803   19.8751 N   0  0  0  0  0  0  0  0  0  0  0  0
   51.1147   85.9381   20.5518 H   0  0  0  0  0  0  0  0  0  0  0  0
   51.6728   86.5391   18.9712 H   0  0  0  0  0  0  0  0  0  0  0  0
   54.1787   92.1276   22.4945 N   0  0  0  0  0  0  0  0  0  0  0  0
   54.9668   91.2611   21.7493 C   0  0  0  0  0  0  0  0  0  0  0  0
   56.1993   91.5995   21.5867 O   0  0  0  0  0  0  0  0  0  0  0  0
   53.1625   92.0220   22.7262 H   0  0  0  0  0  0  0  0  0  0  0  0
   54.4913   93.7310   24.1820 C   0  0  0  0  0  0  0  0  0  0  0  0
   54.8118   93.3091   23.0108 N   0  0  0  0  0  0  0  0  0  0  0  0
   58.7050   96.9138   24.6899 Br  0  0  0  0  0  0  0  0  0  0  0  0
   56.9213   96.4348   25.1115 C   0  0  0  0  0  0  0  0  0  0  0  0
   56.1987   97.1943   25.9846 C   0  0  0  0  0  0  0  0  0  0  0  0
   54.8905   96.8160   26.2756 C   0  0  0  0  0  0  0  0  0  0  0  0
   54.3532   95.6816   25.6756 C   0  0  0  0  0  0  0  0  0  0  0  0
   55.0717   94.9139   24.7986 C   0  0  0  0  0  0  0  0  0  0  0  0
   56.3640   95.2999   24.5204 C   0  0  0  0  0  0  0  0  0  0  0  0
   57.0819   94.5155   23.6308 O   0  0  0  0  0  0  0  0  0  0  0  0
   53.8592   97.8501   27.4840 Br  0  0  0  0  0  0  0  0  0  0  0  0
   56.7154   98.3288   26.5932 O   0  0  0  0  0  0  0  0  0  0  0  0
   58.0360   94.7572   23.3938 H   0  0  0  0  0  0  0  0  0  0  0  0
   56.1615   98.8721   27.2349 H   0  0  0  0  0  0  0  0  0  0  0  0
   55.5670   88.2966   22.6919 C   0  0  0  0  0  0  0  0  0  0  0  0
   54.7000   88.0171   23.8396 N   0  0  0  0  0  0  0  0  0  0  0  0
   55.2681   88.6832   25.0281 C   0  0  0  0  0  0  0  0  0  0  0  0
   56.7289   88.4078   25.1108 C   0  0  0  0  0  0  0  0  0  0  0  0
   56.9463   87.0524   25.0725 O   0  0  0  0  0  0  0  0  0  0  0  0
   55.8102   86.2935   25.1757 C   0  0  0  0  0  0  0  0  0  0  0  0
   54.7681   86.5636   24.1218 C   0  0  0  0  0  0  0  0  0  0  0  0
 20 21  1  0  0  0
 21 22  2  0  0  0
 21 26  1  0  0  0
 22 23  1  0  0  0
 22 29  1  0  0  0
 23 24  2  0  0  0
 23 28  1  0  0  0
 24 25  1  0  0  0
 25 26  2  0  0  0
 25 18  1  0  0  0
 26 27  1  0  0  0
 18 19  2  0  0  0
 19 14  1  0  0  0
 14 15  1  0  0  0
 15 16  2  0  0  0
 15  1  1  0  0  0
  1  2  1  0  0  0
  1  5  2  0  0  0
  2  3  2  0  0  0
  3  4  1  0  0  0
  4  5  1  0  0  0
  4  6  1  0  0  0
  5 32  1  0  0  0
 32 33  1  0  0  0
 33 34  1  0  0  0
 33 38  1  0  0  0
 34 35  1  0  0  0
 35 36  1  0  0  0
 36 37  1  0  0  0
 37 38  1  0  0  0
  6  7  2  0  0  0
  6 10  1  0  0  0
  7  8  1  0  0  0
  8  9  1  0  0  0
  9 10  2  0  0  0
 10 11  1  0  0  0
 27 30  1  0  0  0
 14 17  1  0  0  0
 11 12  1  0  0  0
 11 13  1  0  0  0
 29 31  1  0  0  0
M  END
> <minimizedAffinity>
-8.78459

$$$$
1466


 29 32  0  0  0  0  0  0  0  0999 V2000
   55.7600   96.1243   25.7028 N   0  0  0  0  0  0  0  0  0  0  0  0
   56.4071   97.2468   25.9677 N   0  0  0  0  0  0  0  0  0  0  0  0
   55.6591   98.0495   26.7123 N   0  0  0  0  0  0  0  0  0  0  0  0
   54.4799   97.4564   26.9562 C   0  0  0  0  0  0  0  0  0  0  0  0
   54.5518   96.2419   26.3153 C   0  0  0  0  0  0  0  0  0  0  0  0
   53.3666   97.9789   27.7279 C   0  0  0  0  0  0  0  0  0  0  0  0
   52.3557   98.7453   27.2805 N   0  0  0  0  0  0  0  0  0  0  0  0
   51.5247   99.0233   28.2980 C   0  0  0  0  0  0  0  0  0  0  0  0
   52.0478   98.4119   29.3726 N   0  0  0  0  0  0  0  0  0  0  0  0
   53.1335   97.8051   29.0022 O   0  0  0  0  0  0  0  0  0  0  0  0
   50.2895   99.8349   28.2462 C   0  0  0  0  0  0  0  0  0  0  0  0
   50.3093  101.0729   27.6468 C   0  0  0  0  0  0  0  0  0  0  0  0
   49.1904  101.8206   27.5932 N   0  0  0  0  0  0  0  0  0  0  0  0
   48.0116  101.4165   28.1086 C   0  0  0  0  0  0  0  0  0  0  0  0
   48.0019  100.1717   28.7076 C   0  0  0  0  0  0  0  0  0  0  0  0
   49.1171   99.3787   28.7837 C   0  0  0  0  0  0  0  0  0  0  0  0
   56.2210   94.9749   24.9155 C   0  0  0  0  0  0  0  0  0  0  0  0
   55.0297   94.0526   24.7847 C   0  0  0  0  0  0  0  0  0  0  0  0
   54.7335   92.7831   22.6925 C   0  0  0  0  0  0  0  0  0  0  0  0
   53.9115   93.6799   22.3091 O   0  0  0  0  0  0  0  0  0  0  0  0
   55.3587   92.8985   23.9623 N   0  0  0  0  0  0  0  0  0  0  0  0
   56.0310   92.1761   24.2880 H   0  0  0  0  0  0  0  0  0  0  0  0
   54.5514   90.6150   17.7831 Br  0  0  0  0  0  0  0  0  0  0  0  0
   54.9593   90.6069   19.6489 C   0  0  0  0  0  0  0  0  0  0  0  0
   55.5347   89.4801   20.1922 C   0  0  0  0  0  0  0  0  0  0  0  0
   55.8347   89.4429   21.5114 N   0  0  0  0  0  0  0  0  0  0  0  0
   55.5587   90.5243   22.2638 C   0  0  0  0  0  0  0  0  0  0  0  0
   54.9894   91.6711   21.7891 C   0  0  0  0  0  0  0  0  0  0  0  0
   54.6793   91.7185   20.4440 C   0  0  0  0  0  0  0  0  0  0  0  0
 23 24  1  0  0  0
 24 25  2  0  0  0
 24 29  1  0  0  0
 25 26  1  0  0  0
 26 27  2  0  0  0
 27 28  1  0  0  0
 28 29  2  0  0  0
 28 19  1  0  0  0
 19 20  2  0  0  0
 19 21  1  0  0  0
 21 18  1  0  0  0
 18 17  1  0  0  0
 17  1  1  0  0  0
  1  2  1  0  0  0
  1  5  1  0  0  0
  2  3  2  0  0  0
  3  4  1  0  0  0
  4  5  2  0  0  0
  4  6  1  0  0  0
  6  7  2  0  0  0
  6 10  1  0  0  0
  7  8  1  0  0  0
  8  9  2  0  0  0
  8 11  1  0  0  0
  9 10  1  0  0  0
 11 12  2  0  0  0
 11 16  1  0  0  0
 12 13  1  0  0  0
 13 14  2  0  0  0
 14 15  1  0  0  0
 15 16  2  0  0  0
 21 22  1  0  0  0
M  END
> <minimizedAffinity>
-9.54301

$$$$
1471


 31 34  0  0  0  0  0  0  0  0999 V2000
   53.7465   85.1212   20.8788 C   0  0  0  0  0  0  0  0  0  0  0  0
   54.6349   85.8471   21.6233 C   0  0  0  0  0  0  0  0  0  0  0  0
   54.8520   87.1894   21.4692 N   0  0  0  0  0  0  0  0  0  0  0  0
   54.1482   87.8169   20.5326 C   0  0  0  0  0  0  0  0  0  0  0  0
   53.2349   87.1757   19.7377 C   0  0  0  0  0  0  0  0  0  0  0  0
   53.0165   85.7523   19.9149 C   0  0  0  0  0  0  0  0  0  0  0  0
   52.0807   85.4042   19.0119 N   0  0  0  0  0  0  0  0  0  0  0  0
   51.7126   86.4636   18.3114 N   0  0  0  0  0  0  0  0  0  0  0  0
   52.3819   87.5512   18.7150 C   0  0  0  0  0  0  0  0  0  0  0  0
   52.3075   88.7450   18.2917 O   0  0  0  0  0  0  0  0  0  0  0  0
   50.9976   86.5096   17.5325 H   0  0  0  0  0  0  0  0  0  0  0  0
   52.3077   82.7525   24.4044 N   0  0  0  0  0  0  0  0  0  0  0  0
   52.0005   81.5960   23.6046 C   0  0  0  0  0  0  0  0  0  0  0  0
   52.3300   81.7767   22.1441 C   0  0  0  0  0  0  0  0  0  0  0  0
   52.5258   83.1801   21.8986 N   0  0  0  0  0  0  0  0  0  0  0  0
   51.5905   84.0984   22.4957 C   0  0  0  0  0  0  0  0  0  0  0  0
   51.9064   84.1073   23.9980 C   0  0  0  0  0  0  0  0  0  0  0  0
   53.5767   83.6955   21.1085 C   0  0  0  0  0  0  0  0  0  0  0  0
   54.4238   82.9296   20.5619 O   0  0  0  0  0  0  0  0  0  0  0  0
   50.5973   82.4065   26.8571 Cl  0  0  0  0  0  0  0  0  0  0  0  0
   52.3620   82.4770   26.8244 C   0  0  0  0  0  0  0  0  0  0  0  0
   53.0103   82.6404   25.6198 C   0  0  0  0  0  0  0  0  0  0  0  0
   54.3776   82.6919   25.6235 C   0  0  0  0  0  0  0  0  0  0  0  0
   55.1288   82.5883   26.7843 C   0  0  0  0  0  0  0  0  0  0  0  0
   54.4330   82.4240   27.9869 C   0  0  0  0  0  0  0  0  0  0  0  0
   53.0614   82.3695   28.0076 C   0  0  0  0  0  0  0  0  0  0  0  0
   55.8500   87.8558   22.2917 C   0  0  0  0  0  0  0  0  0  0  0  0
   55.3368   88.7477   23.3321 C   0  0  0  0  0  0  0  0  0  0  0  0
   55.3937   88.4626   24.7670 C   0  0  0  0  0  0  0  0  0  0  0  0
   54.4213   87.7865   25.4003 O   0  0  0  0  0  0  0  0  0  0  0  0
   54.4256   86.4625   25.5674 C   0  0  0  0  0  0  0  0  0  0  0  0
 20 21  1  0  0  0
 21 22  2  0  0  0
 21 26  1  0  0  0
 22 23  1  0  0  0
 22 12  1  0  0  0
 23 24  2  0  0  0
 24 25  1  0  0  0
 25 26  2  0  0  0
 12 13  1  0  0  0
 12 17  1  0  0  0
 13 14  1  0  0  0
 14 15  1  0  0  0
 15 16  1  0  0  0
 15 18  1  0  0  0
 16 17  1  0  0  0
 18 19  2  0  0  0
 18  1  1  0  0  0
  1  2  2  0  0  0
  1  6  1  0  0  0
  2  3  1  0  0  0
  3  4  1  0  0  0
  3 27  1  0  0  0
  4  5  2  0  0  0
  5  6  1  0  0  0
  5  9  1  0  0  0
  6  7  2  0  0  0
  7  8  1  0  0  0
  8  9  1  0  0  0
  9 10  2  0  0  0
 27 28  1  0  0  0
 28 29  1  0  0  0
 29 30  1  0  0  0
 30 31  1  0  0  0
  8 11  1  0  0  0
M  END
> <minimizedAffinity>
-7.26808

$$$$
1477


 35 39  0  0  0  0  0  0  0  0999 V2000
   51.8149   84.5871   29.1375 C   0  0  0  0  0  0  0  0  0  0  0  0
   50.6657   85.3323   29.4106 N   0  0  0  0  0  0  0  0  0  0  0  0
   50.1266   85.7717   28.1271 C   0  0  0  0  0  0  0  0  0  0  0  0
   49.0307   86.3479   27.9116 O   0  0  0  0  0  0  0  0  0  0  0  0
   51.0658   85.4464   27.0650 C   0  0  0  0  0  0  0  0  0  0  0  0
   50.9123   85.6813   25.8198 O   0  0  0  0  0  0  0  0  0  0  0  0
   52.1864   84.8079   27.7023 C   0  0  0  0  0  0  0  0  0  0  0  0
   53.3027   84.4473   27.1037 C   0  0  0  0  0  0  0  0  0  0  0  0
   54.2352   83.7724   27.9262 O   0  0  0  0  0  0  0  0  0  0  0  0
   53.6485   84.6829   25.7144 C   0  0  0  0  0  0  0  0  0  0  0  0
   54.1707   85.7397   25.0727 N   0  0  0  0  0  0  0  0  0  0  0  0
   54.2844   85.5374   23.7514 C   0  0  0  0  0  0  0  0  0  0  0  0
   53.8135   84.2905   23.5274 N   0  0  0  0  0  0  0  0  0  0  0  0
   53.4228   83.7459   24.6823 C   0  0  0  0  0  0  0  0  0  0  0  0
   52.8533   82.4055   24.8786 C   0  0  0  0  0  0  0  0  0  0  0  0
   54.8130   86.4886   22.8998 C   0  0  0  0  0  0  0  0  0  0  0  0
   55.2343   87.6821   23.4214 C   0  0  0  0  0  0  0  0  0  0  0  0
   55.1181   87.8906   24.7825 C   0  0  0  0  0  0  0  0  0  0  0  0
   54.5878   86.9219   25.6021 C   0  0  0  0  0  0  0  0  0  0  0  0
   54.1581   81.0989   32.4077 Br  0  0  0  0  0  0  0  0  0  0  0  0
   52.9755   81.5549   30.9953 C   0  0  0  0  0  0  0  0  0  0  0  0
   52.8526   82.8609   30.5749 C   0  0  0  0  0  0  0  0  0  0  0  0
   51.9783   83.2027   29.5346 C   0  0  0  0  0  0  0  0  0  0  0  0
   51.2791   82.1475   28.9910 C   0  0  0  0  0  0  0  0  0  0  0  0
   51.3713   80.8415   29.3753 C   0  0  0  0  0  0  0  0  0  0  0  0
   52.2440   80.5430   30.4062 C   0  0  0  0  0  0  0  0  0  0  0  0
   50.1212   85.7260   30.6583 C   0  0  0  0  0  0  0  0  0  0  0  0
   50.2503   84.8879   31.8481 C   0  0  0  0  0  0  0  0  0  0  0  0
   49.0970   84.2876   32.4515 N   0  0  0  0  0  0  0  0  0  0  0  0
   49.0375   82.9099   31.9629 C   0  0  0  0  0  0  0  0  0  0  0  0
   49.8035   81.9561   32.8222 C   0  0  0  0  0  0  0  0  0  0  0  0
   50.6235   82.6437   33.7299 O   0  0  0  0  0  0  0  0  0  0  0  0
   49.7602   83.3036   34.5756 C   0  0  0  0  0  0  0  0  0  0  0  0
   49.0623   84.4066   33.8700 C   0  0  0  0  0  0  0  0  0  0  0  0
   48.1949   84.7041   32.0731 H   0  0  0  0  0  0  0  0  0  0  0  0
 20 21  1  0  0  0
 21 22  2  0  0  0
 21 26  1  0  0  0
 22 23  1  0  0  0
 23 24  2  0  0  0
 23  1  1  0  0  0
 24 25  1  0  0  0
 25 26  2  0  0  0
  1  2  1  0  0  0
  1  7  1  0  0  0
  2  3  1  0  0  0
  2 27  1  0  0  0
  3  4  2  0  0  0
  3  5  1  0  0  0
  5  6  2  0  0  0
  5  7  1  0  0  0
  7  8  2  0  0  0
  8  9  1  0  0  0
  8 10  1  0  0  0
 10 11  1  0  0  0
 10 14  2  0  0  0
 11 12  1  0  0  0
 11 19  1  0  0  0
 12 13  2  0  0  0
 12 16  1  0  0  0
 13 14  1  0  0  0
 14 15  1  0  0  0
 16 17  2  0  0  0
 17 18  1  0  0  0
 18 19  2  0  0  0
 27 28  1  0  0  0
 28 29  1  0  0  0
 29 30  1  0  0  0
 29 34  1  0  0  0
 30 31  1  0  0  0
 31 32  1  0  0  0
 32 33  1  0  0  0
 33 34  1  0  0  0
 29 35  1  0  0  0
M  CHG 1   9  -1
M  CHG 1  29   1
M  END
> <minimizedAffinity>
-7.35326

$$$$
1486


 31 34  0  0  0  0  0  0  0  0999 V2000
   55.6307   89.6665   21.0368 N   0  0  0  0  0  0  0  0  0  0  0  0
   55.7835   90.6989   21.8344 N   0  0  0  0  0  0  0  0  0  0  0  0
   54.9049   91.6652   21.5288 C   0  0  0  0  0  0  0  0  0  0  0  0
   54.1744   91.2165   20.4976 N   0  0  0  0  0  0  0  0  0  0  0  0
   54.6352   89.9669   20.1959 C   0  0  0  0  0  0  0  0  0  0  0  0
   54.1297   89.0961   19.1361 C   0  0  0  0  0  0  0  0  0  0  0  0
   54.2168   89.7230   17.7646 C   0  0  0  0  0  0  0  0  0  0  0  0
   53.1967   90.8249   17.5808 C   0  0  0  0  0  0  0  0  0  0  0  0
   53.5110   92.0574   18.3709 C   0  0  0  0  0  0  0  0  0  0  0  0
   53.1011   91.9269   19.8310 C   0  0  0  0  0  0  0  0  0  0  0  0
   56.3830   88.4476   21.0559 C   0  0  0  0  0  0  0  0  0  0  0  0
   56.1924   87.6995   22.3268 C   0  0  0  0  0  0  0  0  0  0  0  0
   56.9334   88.0045   23.2988 O   0  0  0  0  0  0  0  0  0  0  0  0
   51.9807   83.2285   22.9471 Br  0  0  0  0  0  0  0  0  0  0  0  0
   53.2932   84.6214   22.7451 C   0  0  0  0  0  0  0  0  0  0  0  0
   53.8195   85.2397   23.8663 C   0  0  0  0  0  0  0  0  0  0  0  0
   54.7686   86.2478   23.7270 C   0  0  0  0  0  0  0  0  0  0  0  0
   55.2060   86.6531   22.4873 C   0  0  0  0  0  0  0  0  0  0  0  0
   54.6614   86.0175   21.3940 C   0  0  0  0  0  0  0  0  0  0  0  0
   53.7235   85.0200   21.5021 C   0  0  0  0  0  0  0  0  0  0  0  0
   54.7434   92.9748   22.1754 C   0  0  0  0  0  0  0  0  0  0  0  0
   55.0185   92.9333   23.5789 N   0  0  0  0  0  0  0  0  0  0  0  0
   55.2009   92.0318   24.0437 H   0  0  0  0  0  0  0  0  0  0  0  0
   55.0556   94.0986   24.3969 C   0  0  0  0  0  0  0  0  0  0  0  0
   56.2346   94.7259   24.7303 C   0  0  0  0  0  0  0  0  0  0  0  0
   56.2573   95.8503   25.5145 C   0  0  0  0  0  0  0  0  0  0  0  0
   55.0897   96.3675   25.9809 C   0  0  0  0  0  0  0  0  0  0  0  0
   53.9078   95.7423   25.6499 C   0  0  0  0  0  0  0  0  0  0  0  0
   53.8727   94.6112   24.8610 C   0  0  0  0  0  0  0  0  0  0  0  0
   55.0820   97.4930   26.7697 O   0  0  0  0  0  0  0  0  0  0  0  0
   53.9092   98.0200   27.3389 C   0  0  0  0  0  0  0  0  0  0  0  0
 14 15  1  0  0  0
 15 16  2  0  0  0
 15 20  1  0  0  0
 16 17  1  0  0  0
 17 18  2  0  0  0
 18 19  1  0  0  0
 18 12  1  0  0  0
 19 20  2  0  0  0
 12 13  2  0  0  0
 12 11  1  0  0  0
 11  1  1  0  0  0
  1  2  1  0  0  0
  1  5  2  0  0  0
  2  3  2  0  0  0
  3  4  1  0  0  0
  3 21  1  0  0  0
  4  5  1  0  0  0
  4 10  1  0  0  0
  5  6  1  0  0  0
  6  7  1  0  0  0
  7  8  1  0  0  0
  8  9  1  0  0  0
  9 10  1  0  0  0
 21 22  1  0  0  0
 22 24  1  0  0  0
 24 25  2  0  0  0
 24 29  1  0  0  0
 25 26  1  0  0  0
 26 27  2  0  0  0
 27 28  1  0  0  0
 27 30  1  0  0  0
 28 29  2  0  0  0
 30 31  1  0  0  0
 22 23  1  0  0  0
M  END
> <minimizedAffinity>
-9.62937

$$$$
1487


 29 32  0  0  0  0  0  0  0  0999 V2000
   52.3601   83.9329   18.3308 N   0  0  0  0  0  0  0  0  0  0  0  0
   52.5414   85.3625   18.3676 C   0  0  0  0  0  0  0  0  0  0  0  0
   52.3921   85.8917   19.7317 C   0  0  0  0  0  0  0  0  0  0  0  0
   52.0728   84.7282   20.5093 N   0  0  0  0  0  0  0  0  0  0  0  0
   51.4102   84.5599   21.7812 C   0  0  0  0  0  0  0  0  0  0  0  0
   52.2341   83.9055   22.8431 C   0  0  0  0  0  0  0  0  0  0  0  0
   53.5166   83.3111   22.3759 C   0  0  0  0  0  0  0  0  0  0  0  0
   53.1892   82.0002   21.6258 C   0  0  0  0  0  0  0  0  0  0  0  0
   52.9921   82.4424   20.1868 C   0  0  0  0  0  0  0  0  0  0  0  0
   52.5202   83.5818   19.7352 C   0  0  0  0  0  0  0  0  0  0  0  0
   51.2487   86.7366   19.7885 O   0  0  0  0  0  0  0  0  0  0  0  0
   51.4513   83.5814   18.0497 H   0  0  0  0  0  0  0  0  0  0  0  0
   51.0831   87.0261   18.8314 H   0  0  0  0  0  0  0  0  0  0  0  0
   53.8212   79.6935   15.7198 Cl  0  0  0  0  0  0  0  0  0  0  0  0
   54.1723   81.2303   16.4963 C   0  0  0  0  0  0  0  0  0  0  0  0
   53.1500   81.9884   17.0613 C   0  0  0  0  0  0  0  0  0  0  0  0
   53.3754   83.2059   17.6546 C   0  0  0  0  0  0  0  0  0  0  0  0
   54.7041   83.6469   17.6638 C   0  0  0  0  0  0  0  0  0  0  0  0
   55.7393   82.9057   17.1048 C   0  0  0  0  0  0  0  0  0  0  0  0
   55.4708   81.6972   16.5196 C   0  0  0  0  0  0  0  0  0  0  0  0
   53.4754   86.6853   20.2592 C   0  0  0  0  0  0  0  0  0  0  0  0
   54.4930   86.1616   21.0567 C   0  0  0  0  0  0  0  0  0  0  0  0
   55.5463   86.9249   21.5413 C   0  0  0  0  0  0  0  0  0  0  0  0
   55.5928   88.2806   21.2161 C   0  0  0  0  0  0  0  0  0  0  0  0
   54.6159   88.8333   20.4394 C   0  0  0  0  0  0  0  0  0  0  0  0
   53.5668   88.0279   19.9681 C   0  0  0  0  0  0  0  0  0  0  0  0
   56.5435   86.3270   22.3449 N   0  0  0  0  0  0  0  0  0  0  0  0
   56.2413   85.8922   23.4999 O   0  0  0  0  0  0  0  0  0  0  0  0
   57.8241   86.1891   21.9588 O   0  0  0  0  0  0  0  0  0  0  0  0
 14 15  1  0  0  0
 15 16  2  0  0  0
 15 20  1  0  0  0
 16 17  1  0  0  0
 17 18  2  0  0  0
 17  1  1  0  0  0
 18 19  1  0  0  0
 19 20  2  0  0  0
  1  2  1  0  0  0
  1 10  1  0  0  0
  2  3  1  0  0  0
  3  4  1  0  0  0
  3 11  1  0  0  0
  3 21  1  0  0  0
  4  5  1  0  0  0
  4 10  1  0  0  0
  5  6  1  0  0  0
  6  7  1  0  0  0
  7  8  1  0  0  0
  8  9  1  0  0  0
  9 10  2  0  0  0
 21 22  2  0  0  0
 21 26  1  0  0  0
 22 23  1  0  0  0
 23 24  2  0  0  0
 23 27  1  0  0  0
 24 25  1  0  0  0
 25 26  2  0  0  0
 27 28  2  0  0  0
 27 29  1  0  0  0
  1 12  1  0  0  0
 11 13  1  0  0  0
M  CHG 1   1   1
M  CHG 1  29  -1
M  END
> <minimizedAffinity>
-8.56794

$$$$
1491


 34 38  0  0  0  0  0  0  0  0999 V2000
   55.7508   86.3741   24.9872 F   0  0  0  0  0  0  0  0  0  0  0  0
   54.6687   85.6033   25.1970 C   0  0  0  0  0  0  0  0  0  0  0  0
   54.3375   85.4416   26.5392 C   0  0  0  0  0  0  0  0  0  0  0  0
   53.2471   84.6834   26.9035 C   0  0  0  0  0  0  0  0  0  0  0  0
   52.5033   84.0992   25.9060 C   0  0  0  0  0  0  0  0  0  0  0  0
   52.8499   84.2739   24.5700 C   0  0  0  0  0  0  0  0  0  0  0  0
   53.9321   85.0237   24.1950 C   0  0  0  0  0  0  0  0  0  0  0  0
   51.4399   83.3628   26.2862 N   0  0  0  0  0  0  0  0  0  0  0  0
   51.0999   83.1914   27.5763 C   0  0  0  0  0  0  0  0  0  0  0  0
   51.8246   83.7628   28.5989 C   0  0  0  0  0  0  0  0  0  0  0  0
   52.9180   84.5229   28.2565 C   0  0  0  0  0  0  0  0  0  0  0  0
   53.6203   85.0720   29.1380 O   0  0  0  0  0  0  0  0  0  0  0  0
   54.2531   85.1674   22.8454 N   0  0  0  0  0  0  0  0  0  0  0  0
   54.5902   86.5029   22.4230 C   0  0  0  0  0  0  0  0  0  0  0  0
   55.0650   86.4827   20.9507 C   0  0  0  0  0  0  0  0  0  0  0  0
   53.9514   86.0525   20.2012 N   0  0  0  0  0  0  0  0  0  0  0  0
   53.6528   84.5979   20.4994 C   0  0  0  0  0  0  0  0  0  0  0  0
   53.2824   84.6284   21.9505 C   0  0  0  0  0  0  0  0  0  0  0  0
   53.1060   86.6755   19.3465 C   0  0  0  0  0  0  0  0  0  0  0  0
   52.2149   85.9018   18.7747 O   0  0  0  0  0  0  0  0  0  0  0  0
   55.1399   84.5955   22.6894 H   0  0  0  0  0  0  0  0  0  0  0  0
   53.0066   88.0508   18.9443 C   0  0  0  0  0  0  0  0  0  0  0  0
   53.7419   88.6140   17.9521 C   0  0  0  0  0  0  0  0  0  0  0  0
   53.5727   89.9357   17.5595 C   0  0  0  0  0  0  0  0  0  0  0  0
   52.6333   90.7067   18.1940 C   0  0  0  0  0  0  0  0  0  0  0  0
   51.8676   90.1899   19.2005 C   0  0  0  0  0  0  0  0  0  0  0  0
   52.0562   88.8903   19.5617 C   0  0  0  0  0  0  0  0  0  0  0  0
   54.5509   90.6238   16.2612 Cl  0  0  0  0  0  0  0  0  0  0  0  0
   51.4386   83.5644   30.0090 C   0  0  0  0  0  0  0  0  0  0  0  0
   51.8435   82.6035   30.6821 O   0  0  0  0  0  0  0  0  0  0  0  0
   50.5987   84.4900   30.5852 O   0  0  0  0  0  0  0  0  0  0  0  0
   50.6581   82.7467   25.2078 C   0  0  0  0  0  0  0  0  0  0  0  0
   49.5817   81.7960   25.5025 C   0  0  0  0  0  0  0  0  0  0  0  0
   50.8559   81.1982   25.1008 C   0  0  0  0  0  0  0  0  0  0  0  0
  1  2  1  0  0  0
  2  3  2  0  0  0
  2  7  1  0  0  0
  3  4  1  0  0  0
  4  5  2  0  0  0
  4 11  1  0  0  0
  5  6  1  0  0  0
  5  8  1  0  0  0
  6  7  2  0  0  0
  7 13  1  0  0  0
 13 14  1  0  0  0
 13 18  1  0  0  0
 14 15  1  0  0  0
 15 16  1  0  0  0
 16 17  1  0  0  0
 16 19  1  0  0  0
 17 18  1  0  0  0
 19 20  2  0  0  0
 19 22  1  0  0  0
 22 23  2  0  0  0
 22 27  1  0  0  0
 23 24  1  0  0  0
 24 25  2  0  0  0
 24 28  1  0  0  0
 25 26  1  0  0  0
 26 27  2  0  0  0
  8  9  1  0  0  0
  8 32  1  0  0  0
  9 10  2  0  0  0
 10 11  1  0  0  0
 10 29  1  0  0  0
 11 12  2  0  0  0
 29 30  2  0  0  0
 29 31  1  0  0  0
 32 33  1  0  0  0
 32 34  1  0  0  0
 33 34  1  0  0  0
 13 21  1  0  0  0
M  CHG 1  13   1
M  END
> <minimizedAffinity>
-8.77821

$$$$
1506


 32 35  0  0  0  0  0  0  0  0999 V2000
   55.4390   90.3758   23.1426 N   0  0  0  0  0  0  0  0  0  0  0  0
   56.1545   89.2492   22.5975 C   0  0  0  0  0  0  0  0  0  0  0  0
   56.3650   89.2013   21.3754 O   0  0  0  0  0  0  0  0  0  0  0  0
   55.3290   90.3631   24.1533 H   0  0  0  0  0  0  0  0  0  0  0  0
   56.6438   88.1494   23.4619 C   0  0  0  0  0  0  0  0  0  0  0  0
   56.3328   86.8392   22.7734 C   0  0  0  0  0  0  0  0  0  0  0  0
   54.8359   86.6380   22.8505 C   0  0  0  0  0  0  0  0  0  0  0  0
   54.5494   86.3579   24.2544 N   0  0  0  0  0  0  0  0  0  0  0  0
   55.3003   87.0037   25.2768 C   0  0  0  0  0  0  0  0  0  0  0  0
   56.0937   88.1812   24.8398 C   0  0  0  0  0  0  0  0  0  0  0  0
   53.5144   85.4371   24.5380 C   0  0  0  0  0  0  0  0  0  0  0  0
   52.7402   85.5216   25.6368 N   0  0  0  0  0  0  0  0  0  0  0  0
   51.7718   84.6696   25.9168 N   0  0  0  0  0  0  0  0  0  0  0  0
   50.9202   84.5963   26.9344 N   0  0  0  0  0  0  0  0  0  0  0  0
   50.1239   83.5707   26.7935 N   0  0  0  0  0  0  0  0  0  0  0  0
   50.4468   82.9585   25.6741 N   0  0  0  0  0  0  0  0  0  0  0  0
   51.4744   83.6365   25.1207 C   0  0  0  0  0  0  0  0  0  0  0  0
   52.2356   83.4943   23.9744 C   0  0  0  0  0  0  0  0  0  0  0  0
   53.2486   84.3843   23.6797 C   0  0  0  0  0  0  0  0  0  0  0  0
   55.0174   91.3706   22.2373 C   0  0  0  0  0  0  0  0  0  0  0  0
   55.4853   92.7629   22.3316 C   0  0  0  0  0  0  0  0  0  0  0  0
   55.6945   94.4029   24.2765 C   0  0  0  0  0  0  0  0  0  0  0  0
   56.9294   94.5802   24.2068 O   0  0  0  0  0  0  0  0  0  0  0  0
   55.0230   93.5631   23.4005 N   0  0  0  0  0  0  0  0  0  0  0  0
   53.9316   93.5346   23.6115 H   0  0  0  0  0  0  0  0  0  0  0  0
   52.9737   97.5026   28.6571 Cl  0  0  0  0  0  0  0  0  0  0  0  0
   53.7534   96.5881   27.3765 C   0  0  0  0  0  0  0  0  0  0  0  0
   55.0922   96.8045   27.0952 C   0  0  0  0  0  0  0  0  0  0  0  0
   55.6946   96.0832   26.0916 C   0  0  0  0  0  0  0  0  0  0  0  0
   55.0019   95.1477   25.3542 C   0  0  0  0  0  0  0  0  0  0  0  0
   53.6786   94.9515   25.6499 C   0  0  0  0  0  0  0  0  0  0  0  0
   53.0349   95.6663   26.6627 C   0  0  0  0  0  0  0  0  0  0  0  0
 26 27  1  0  0  0
 27 28  2  0  0  0
 27 32  1  0  0  0
 28 29  1  0  0  0
 29 30  2  0  0  0
 30 31  1  0  0  0
 30 22  1  0  0  0
 31 32  2  0  0  0
 22 23  2  0  0  0
 22 24  1  0  0  0
 24 21  1  0  0  0
 21 20  1  0  0  0
 20  1  1  0  0  0
  1  2  1  0  0  0
  2  3  2  0  0  0
  2  5  1  0  0  0
  5  6  1  0  0  0
  5 10  1  0  0  0
  6  7  1  0  0  0
  7  8  1  0  0  0
  8  9  1  0  0  0
  8 11  1  0  0  0
  9 10  1  0  0  0
 11 12  2  0  0  0
 11 19  1  0  0  0
 12 13  1  0  0  0
 13 14  1  0  0  0
 13 17  1  0  0  0
 14 15  2  0  0  0
 15 16  1  0  0  0
 16 17  2  0  0  0
 17 18  1  0  0  0
 18 19  2  0  0  0
 24 25  1  0  0  0
  1  4  1  0  0  0
M  END
> <minimizedAffinity>
-9.85079

$$$$
1507


 32 35  0  0  0  0  0  0  0  0999 V2000
   55.0609   88.1674   21.1109 C   0  0  0  0  0  0  0  0  0  0  0  0
   54.1315   87.2832   20.8113 C   0  0  0  0  0  0  0  0  0  0  0  0
   53.0710   87.3323   19.7532 C   0  0  0  0  0  0  0  0  0  0  0  0
   53.0896   86.0050   19.2552 N   0  0  0  0  0  0  0  0  0  0  0  0
   53.1662   85.1866   20.4621 C   0  0  0  0  0  0  0  0  0  0  0  0
   52.7438   84.0121   20.6225 O   0  0  0  0  0  0  0  0  0  0  0  0
   53.8373   86.0075   21.4634 C   0  0  0  0  0  0  0  0  0  0  0  0
   54.1413   85.7428   22.6740 O   0  0  0  0  0  0  0  0  0  0  0  0
   55.1833   89.3653   20.4290 O   0  0  0  0  0  0  0  0  0  0  0  0
   58.9770   87.1678   25.7787 Br  0  0  0  0  0  0  0  0  0  0  0  0
   57.7601   87.4893   24.3250 C   0  0  0  0  0  0  0  0  0  0  0  0
   57.8566   86.7984   23.1391 C   0  0  0  0  0  0  0  0  0  0  0  0
   57.0205   86.9861   22.0745 C   0  0  0  0  0  0  0  0  0  0  0  0
   56.0135   87.9266   22.1881 C   0  0  0  0  0  0  0  0  0  0  0  0
   55.8943   88.6312   23.3640 C   0  0  0  0  0  0  0  0  0  0  0  0
   56.7568   88.4288   24.4456 C   0  0  0  0  0  0  0  0  0  0  0  0
   53.1270   88.4811   18.9124 C   0  0  0  0  0  0  0  0  0  0  0  0
   52.3261   89.5604   19.1976 C   0  0  0  0  0  0  0  0  0  0  0  0
   52.3356   90.7097   18.4444 C   0  0  0  0  0  0  0  0  0  0  0  0
   53.1739   90.8226   17.3447 C   0  0  0  0  0  0  0  0  0  0  0  0
   53.9706   89.7277   17.0745 C   0  0  0  0  0  0  0  0  0  0  0  0
   53.9548   88.5796   17.8348 C   0  0  0  0  0  0  0  0  0  0  0  0
   53.1965   92.2773   16.3794 Cl  0  0  0  0  0  0  0  0  0  0  0  0
   52.9947   85.4128   17.9349 C   0  0  0  0  0  0  0  0  0  0  0  0
   53.8067   84.2059   17.6675 C   0  0  0  0  0  0  0  0  0  0  0  0
   53.0977   83.1593   16.9231 N   0  0  0  0  0  0  0  0  0  0  0  0
   53.3490   81.8843   17.5025 C   0  0  0  0  0  0  0  0  0  0  0  0
   54.0963   80.9053   16.6666 C   0  0  0  0  0  0  0  0  0  0  0  0
   53.9591   81.0587   15.3002 O   0  0  0  0  0  0  0  0  0  0  0  0
   54.4685   82.3486   15.0256 C   0  0  0  0  0  0  0  0  0  0  0  0
   53.4536   83.3066   15.5423 C   0  0  0  0  0  0  0  0  0  0  0  0
   52.0678   83.4158   17.0246 H   0  0  0  0  0  0  0  0  0  0  0  0
 10 11  1  0  0  0
 11 12  2  0  0  0
 11 16  1  0  0  0
 12 13  1  0  0  0
 13 14  2  0  0  0
 14 15  1  0  0  0
 14  1  1  0  0  0
 15 16  2  0  0  0
  1  2  2  0  0  0
  1  9  1  0  0  0
  2  3  1  0  0  0
  2  7  1  0  0  0
  3  4  1  0  0  0
  3 17  1  0  0  0
  4  5  1  0  0  0
  4 24  1  0  0  0
  5  6  2  0  0  0
  5  7  1  0  0  0
  7  8  2  0  0  0
 24 25  1  0  0  0
 25 26  1  0  0  0
 26 27  1  0  0  0
 26 31  1  0  0  0
 27 28  1  0  0  0
 28 29  1  0  0  0
 29 30  1  0  0  0
 30 31  1  0  0  0
 17 18  2  0  0  0
 17 22  1  0  0  0
 18 19  1  0  0  0
 19 20  2  0  0  0
 20 21  1  0  0  0
 20 23  1  0  0  0
 21 22  2  0  0  0
 26 32  1  0  0  0
M  CHG 1   9  -1
M  CHG 1  26   1
M  END
> <minimizedAffinity>
-8.66358

$$$$
1511


 34 37  0  0  0  0  0  0  0  0999 V2000
   54.2985   97.1225   26.6934 N   0  0  0  0  0  0  0  0  0  0  0  0
   54.1571   95.8872   26.1860 C   0  0  0  0  0  0  0  0  0  0  0  0
   53.0877   95.2333   26.2887 O   0  0  0  0  0  0  0  0  0  0  0  0
   55.3192   95.4669   25.5608 C   0  0  0  0  0  0  0  0  0  0  0  0
   56.1820   96.4665   25.6912 C   0  0  0  0  0  0  0  0  0  0  0  0
   57.3079   96.0587   25.0856 N   0  0  0  0  0  0  0  0  0  0  0  0
   57.1369   94.8427   24.5986 N   0  0  0  0  0  0  0  0  0  0  0  0
   55.9197   94.4610   24.8799 N   0  0  0  0  0  0  0  0  0  0  0  0
   55.5637   97.4852   26.3855 C   0  0  0  0  0  0  0  0  0  0  0  0
   56.1000   98.6017   26.6910 O   0  0  0  0  0  0  0  0  0  0  0  0
   58.1972   96.5888   24.9940 H   0  0  0  0  0  0  0  0  0  0  0  0
   57.8466   94.2557   24.0671 H   0  0  0  0  0  0  0  0  0  0  0  0
   50.2565  100.6977   29.6658 Br  0  0  0  0  0  0  0  0  0  0  0  0
   51.5151   99.5780   28.7548 C   0  0  0  0  0  0  0  0  0  0  0  0
   52.1493   98.5365   29.4030 C   0  0  0  0  0  0  0  0  0  0  0  0
   53.0627   97.7255   28.7359 C   0  0  0  0  0  0  0  0  0  0  0  0
   53.3704   97.9311   27.4071 C   0  0  0  0  0  0  0  0  0  0  0  0
   52.7350   98.9717   26.7659 C   0  0  0  0  0  0  0  0  0  0  0  0
   51.8283   99.7763   27.4250 C   0  0  0  0  0  0  0  0  0  0  0  0
   55.2899   93.2056   24.5470 C   0  0  0  0  0  0  0  0  0  0  0  0
   55.2588   93.0507   23.0443 C   0  0  0  0  0  0  0  0  0  0  0  0
   55.6915   93.9793   22.3262 O   0  0  0  0  0  0  0  0  0  0  0  0
   54.7497   91.8777   22.4683 N   0  0  0  0  0  0  0  0  0  0  0  0
   54.3971   91.1248   23.1445 H   0  0  0  0  0  0  0  0  0  0  0  0
   54.6686   91.6030   21.0887 C   0  0  0  0  0  0  0  0  0  0  0  0
   53.7018   92.0633   20.2310 C   0  0  0  0  0  0  0  0  0  0  0  0
   53.6688   91.7427   18.8897 C   0  0  0  0  0  0  0  0  0  0  0  0
   54.6592   90.9203   18.3953 C   0  0  0  0  0  0  0  0  0  0  0  0
   55.6545   90.4347   19.2278 C   0  0  0  0  0  0  0  0  0  0  0  0
   55.6666   90.7647   20.5555 C   0  0  0  0  0  0  0  0  0  0  0  0
   54.6447   90.5848   17.0441 O   0  0  0  0  0  0  0  0  0  0  0  0
   54.0310   89.3770   16.6399 C   0  0  0  0  0  0  0  0  0  0  0  0
   52.6738   92.2257   18.0427 O   0  0  0  0  0  0  0  0  0  0  0  0
   51.3193   91.8587   18.3348 C   0  0  0  0  0  0  0  0  0  0  0  0
 13 14  1  0  0  0
 14 15  2  0  0  0
 14 19  1  0  0  0
 15 16  1  0  0  0
 16 17  2  0  0  0
 17 18  1  0  0  0
 17  1  1  0  0  0
 18 19  2  0  0  0
  1  2  1  0  0  0
  1  9  1  0  0  0
  2  3  2  0  0  0
  2  4  1  0  0  0
  4  5  2  0  0  0
  4  8  1  0  0  0
  5  6  1  0  0  0
  5  9  1  0  0  0
  6  7  1  0  0  0
  7  8  1  0  0  0
  8 20  1  0  0  0
 20 21  1  0  0  0
 21 22  2  0  0  0
 21 23  1  0  0  0
 23 25  1  0  0  0
 25 26  2  0  0  0
 25 30  1  0  0  0
 26 27  1  0  0  0
 27 28  2  0  0  0
 27 33  1  0  0  0
 28 29  1  0  0  0
 28 31  1  0  0  0
 29 30  2  0  0  0
 31 32  1  0  0  0
 33 34  1  0  0  0
  9 10  2  0  0  0
  6 11  1  0  0  0
  7 12  1  0  0  0
 23 24  1  0  0  0
M  END
> <minimizedAffinity>
-9.95788

$$$$
1516


 30 33  0  0  0  0  0  0  0  0999 V2000
   48.0717  101.7257   29.4110 C   0  0  0  0  0  0  0  0  0  0  0  0
   48.9053  101.9052   28.4120 O   0  0  0  0  0  0  0  0  0  0  0  0
   48.2630  102.5994   30.4721 N   0  0  0  0  0  0  0  0  0  0  0  0
   47.4647  102.6238   31.6533 C   0  0  0  0  0  0  0  0  0  0  0  0
   47.7824  103.9307   32.4157 C   0  0  0  0  0  0  0  0  0  0  0  0
   49.2038  103.7916   32.9267 C   0  0  0  0  0  0  0  0  0  0  0  0
   49.2796  102.6870   33.7917 N   0  0  0  0  0  0  0  0  0  0  0  0
   48.9560  102.8142   35.1475 C   0  0  0  0  0  0  0  0  0  0  0  0
   49.3319  104.0753   35.8300 C   0  0  0  0  0  0  0  0  0  0  0  0
   49.6438  105.1836   34.9034 C   0  0  0  0  0  0  0  0  0  0  0  0
   50.0195  106.4406   35.2095 N   0  0  0  0  0  0  0  0  0  0  0  0
   50.1977  107.1104   34.0668 C   0  0  0  0  0  0  0  0  0  0  0  0
   49.9331  106.2713   33.0398 N   0  0  0  0  0  0  0  0  0  0  0  0
   49.5873  105.0712   33.5417 C   0  0  0  0  0  0  0  0  0  0  0  0
   50.1026  103.4918   31.7149 C   0  0  0  0  0  0  0  0  0  0  0  0
   49.3512  103.5887   30.4165 C   0  0  0  0  0  0  0  0  0  0  0  0
   49.4049  101.7599   33.4033 H   0  0  0  0  0  0  0  0  0  0  0  0
   49.9879  106.5202   32.0356 H   0  0  0  0  0  0  0  0  0  0  0  0
   47.1116  100.6440   29.1986 C   0  0  0  0  0  0  0  0  0  0  0  0
   48.0727   98.1064   28.9552 C   0  0  0  0  0  0  0  0  0  0  0  0
   47.4219   97.0323   29.0389 O   0  0  0  0  0  0  0  0  0  0  0  0
   47.5954   99.3684   29.0761 N   0  0  0  0  0  0  0  0  0  0  0  0
   46.3351   98.8901   29.3553 H   0  0  0  0  0  0  0  0  0  0  0  0
   53.9312   97.4585   27.9275 Cl  0  0  0  0  0  0  0  0  0  0  0  0
   52.2079   97.6388   28.2238 C   0  0  0  0  0  0  0  0  0  0  0  0
   51.7995   98.5019   29.2020 C   0  0  0  0  0  0  0  0  0  0  0  0
   50.4288   98.6509   29.4371 C   0  0  0  0  0  0  0  0  0  0  0  0
   49.5390   97.9357   28.6912 C   0  0  0  0  0  0  0  0  0  0  0  0
   49.9383   97.0801   27.7216 C   0  0  0  0  0  0  0  0  0  0  0  0
   51.3173   96.9242   27.4770 C   0  0  0  0  0  0  0  0  0  0  0  0
 24 25  1  0  0  0
 25 26  2  0  0  0
 25 30  1  0  0  0
 26 27  1  0  0  0
 27 28  2  0  0  0
 28 29  1  0  0  0
 28 20  1  0  0  0
 29 30  2  0  0  0
 20 21  2  0  0  0
 20 22  1  0  0  0
 22 19  1  0  0  0
 19  1  1  0  0  0
  1  2  2  0  0  0
  1  3  1  0  0  0
  3  4  1  0  0  0
  3 16  1  0  0  0
  4  5  1  0  0  0
  5  6  1  0  0  0
  6  7  1  0  0  0
  6 14  1  0  0  0
  6 15  1  0  0  0
  7  8  1  0  0  0
  8  9  1  0  0  0
  9 10  1  0  0  0
 10 11  1  0  0  0
 10 14  2  0  0  0
 11 12  2  0  0  0
 12 13  1  0  0  0
 13 14  1  0  0  0
 15 16  1  0  0  0
 22 23  1  0  0  0
  7 17  1  0  0  0
 13 18  1  0  0  0
M  END
> <minimizedAffinity>
-9.12090

$$$$
1518


 31 34  0  0  0  0  0  0  0  0999 V2000
   50.3102  100.4733   28.7889 C   0  0  0  0  0  0  0  0  0  0  0  0
   51.5512  100.6450   28.7107 O   0  0  0  0  0  0  0  0  0  0  0  0
   49.5086  101.3763   29.5258 N   0  0  0  0  0  0  0  0  0  0  0  0
   48.0727  101.2323   29.6549 C   0  0  0  0  0  0  0  0  0  0  0  0
   47.4744  102.6284   29.7431 C   0  0  0  0  0  0  0  0  0  0  0  0
   47.9623  103.3362   31.0067 C   0  0  0  0  0  0  0  0  0  0  0  0
   48.0832  104.7276   30.6804 N   0  0  0  0  0  0  0  0  0  0  0  0
   48.0658  105.5658   31.8602 C   0  0  0  0  0  0  0  0  0  0  0  0
   46.6514  105.5643   32.4358 C   0  0  0  0  0  0  0  0  0  0  0  0
   46.3444  104.1464   32.7816 C   0  0  0  0  0  0  0  0  0  0  0  0
   45.5035  103.5987   33.7093 N   0  0  0  0  0  0  0  0  0  0  0  0
   45.5981  102.2608   33.6124 C   0  0  0  0  0  0  0  0  0  0  0  0
   46.4836  101.9779   32.6403 N   0  0  0  0  0  0  0  0  0  0  0  0
   46.9723  103.1313   32.0960 C   0  0  0  0  0  0  0  0  0  0  0  0
   49.3163  102.8064   31.4283 C   0  0  0  0  0  0  0  0  0  0  0  0
   50.1176  102.5089   30.1955 C   0  0  0  0  0  0  0  0  0  0  0  0
   48.9344  104.9192   30.1165 H   0  0  0  0  0  0  0  0  0  0  0  0
   44.9232  104.1917   34.3440 H   0  0  0  0  0  0  0  0  0  0  0  0
   49.7203   99.3075   28.0937 C   0  0  0  0  0  0  0  0  0  0  0  0
   50.1778   98.0013   28.6615 C   0  0  0  0  0  0  0  0  0  0  0  0
   52.5681   97.3912   28.1898 C   0  0  0  0  0  0  0  0  0  0  0  0
   52.9369   97.8392   29.3050 O   0  0  0  0  0  0  0  0  0  0  0  0
   51.2229   97.4460   27.8238 N   0  0  0  0  0  0  0  0  0  0  0  0
   50.8997   97.0746   26.8986 H   0  0  0  0  0  0  0  0  0  0  0  0
   56.8594   95.1377   24.6427 Cl  0  0  0  0  0  0  0  0  0  0  0  0
   55.6328   95.8248   25.6889 C   0  0  0  0  0  0  0  0  0  0  0  0
   54.3889   95.2121   25.7467 C   0  0  0  0  0  0  0  0  0  0  0  0
   53.3737   95.7027   26.5538 C   0  0  0  0  0  0  0  0  0  0  0  0
   53.5958   96.8257   27.3194 C   0  0  0  0  0  0  0  0  0  0  0  0
   54.8544   97.4207   27.2417 C   0  0  0  0  0  0  0  0  0  0  0  0
   55.8672   96.9494   26.4519 C   0  0  0  0  0  0  0  0  0  0  0  0
 25 26  1  0  0  0
 26 27  2  0  0  0
 26 31  1  0  0  0
 27 28  1  0  0  0
 28 29  2  0  0  0
 29 30  1  0  0  0
 29 21  1  0  0  0
 30 31  2  0  0  0
 21 22  2  0  0  0
 21 23  1  0  0  0
 23 20  1  0  0  0
 20 19  1  0  0  0
 19  1  1  0  0  0
  1  2  2  0  0  0
  1  3  1  0  0  0
  3  4  1  0  0  0
  3 16  1  0  0  0
  4  5  1  0  0  0
  5  6  1  0  0  0
  6  7  1  0  0  0
  6 14  1  0  0  0
  6 15  1  0  0  0
  7  8  1  0  0  0
  8  9  1  0  0  0
  9 10  1  0  0  0
 10 11  1  0  0  0
 10 14  2  0  0  0
 11 12  1  0  0  0
 12 13  2  0  0  0
 13 14  1  0  0  0
 15 16  1  0  0  0
 23 24  1  0  0  0
  7 17  1  0  0  0
 11 18  1  0  0  0
M  END
> <minimizedAffinity>
-8.96615

$$$$
1521


 24 27  0  0  0  0  0  0  0  0999 V2000
   50.8597   92.2045   17.7975 Cl  0  0  0  0  0  0  0  0  0  0  0  0
   52.2593   91.1549   17.8771 C   0  0  0  0  0  0  0  0  0  0  0  0
   53.1238   91.2610   18.9394 C   0  0  0  0  0  0  0  0  0  0  0  0
   53.1795   92.0347   20.0365 N   0  0  0  0  0  0  0  0  0  0  0  0
   54.2554   91.7442   20.7921 C   0  0  0  0  0  0  0  0  0  0  0  0
   54.9103   90.7298   20.1263 C   0  0  0  0  0  0  0  0  0  0  0  0
   54.2217   90.4177   18.9740 C   0  0  0  0  0  0  0  0  0  0  0  0
   54.4092   89.5084   17.9531 C   0  0  0  0  0  0  0  0  0  0  0  0
   53.5606   89.3823   16.8813 C   0  0  0  0  0  0  0  0  0  0  0  0
   52.4595   90.2317   16.8501 C   0  0  0  0  0  0  0  0  0  0  0  0
   56.1470   90.2284   20.7753 C   0  0  0  0  0  0  0  0  0  0  0  0
   55.7589   89.9443   22.1383 N   0  0  0  0  0  0  0  0  0  0  0  0
   55.4218   91.0778   22.9079 C   0  0  0  0  0  0  0  0  0  0  0  0
   54.8747   92.1994   22.0545 C   0  0  0  0  0  0  0  0  0  0  0  0
   52.4893   92.7883   20.3134 H   0  0  0  0  0  0  0  0  0  0  0  0
   56.4591   88.8944   22.7465 C   0  0  0  0  0  0  0  0  0  0  0  0
   55.6046   87.6940   23.0183 C   0  0  0  0  0  0  0  0  0  0  0  0
   56.3675   86.4151   23.0506 C   0  0  0  0  0  0  0  0  0  0  0  0
   56.1616   85.7453   24.2885 N   0  0  0  0  0  0  0  0  0  0  0  0
   55.3347   86.5507   25.1270 C   0  0  0  0  0  0  0  0  0  0  0  0
   55.0303   87.8189   24.4040 C   0  0  0  0  0  0  0  0  0  0  0  0
   54.5184   87.6388   22.1357 O   0  0  0  0  0  0  0  0  0  0  0  0
   55.8009   84.7671   24.1875 H   0  0  0  0  0  0  0  0  0  0  0  0
   54.2529   86.6824   22.0918 H   0  0  0  0  0  0  0  0  0  0  0  0
  1  2  1  0  0  0
  2  3  2  0  0  0
  2 10  1  0  0  0
  3  4  1  0  0  0
  3  7  1  0  0  0
  4  5  1  0  0  0
  5  6  2  0  0  0
  5 14  1  0  0  0
  6  7  1  0  0  0
  6 11  1  0  0  0
  7  8  2  0  0  0
  8  9  1  0  0  0
  9 10  2  0  0  0
 11 12  1  0  0  0
 12 13  1  0  0  0
 12 16  1  0  0  0
 13 14  1  0  0  0
 16 17  1  0  0  0
 17 18  1  0  0  0
 17 21  1  0  0  0
 17 22  1  0  0  0
 18 19  1  0  0  0
 19 20  1  0  0  0
 20 21  1  0  0  0
  4 15  1  0  0  0
 19 23  1  0  0  0
 22 24  1  0  0  0
M  END
> <minimizedAffinity>
-7.67431

$$$$
1523


 25 28  0  0  0  0  0  0  0  0999 V2000
   49.1026   98.3831   29.0202 C   0  0  0  0  0  0  0  0  0  0  0  0
   48.4604   97.3542   29.4320 O   0  0  0  0  0  0  0  0  0  0  0  0
   48.4330   99.5789   28.7584 N   0  0  0  0  0  0  0  0  0  0  0  0
   47.0103   99.6544   28.9461 C   0  0  0  0  0  0  0  0  0  0  0  0
   46.7303  100.5973   30.0835 C   0  0  0  0  0  0  0  0  0  0  0  0
   47.5393  101.7737   29.9391 N   0  0  0  0  0  0  0  0  0  0  0  0
   48.1372  101.9740   28.6046 C   0  0  0  0  0  0  0  0  0  0  0  0
   49.0552  100.7996   28.2953 C   0  0  0  0  0  0  0  0  0  0  0  0
   47.8289  102.7369   30.9056 C   0  0  0  0  0  0  0  0  0  0  0  0
   48.5617  103.7250   30.4913 O   0  0  0  0  0  0  0  0  0  0  0  0
   52.5344   97.5643   28.0400 N   0  0  0  0  0  0  0  0  0  0  0  0
   52.7018   98.2432   29.1799 N   0  0  0  0  0  0  0  0  0  0  0  0
   51.5399   98.6155   29.6683 N   0  0  0  0  0  0  0  0  0  0  0  0
   50.5618   98.1881   28.8571 C   0  0  0  0  0  0  0  0  0  0  0  0
   51.2067   97.5287   27.8372 C   0  0  0  0  0  0  0  0  0  0  0  0
   57.3367   98.1127   25.8667 Br  0  0  0  0  0  0  0  0  0  0  0  0
   55.7275   97.1492   26.2071 C   0  0  0  0  0  0  0  0  0  0  0  0
   54.7196   97.7146   27.0017 C   0  0  0  0  0  0  0  0  0  0  0  0
   53.5642   97.0101   27.2391 C   0  0  0  0  0  0  0  0  0  0  0  0
   53.4233   95.7624   26.6910 C   0  0  0  0  0  0  0  0  0  0  0  0
   54.4238   95.1892   25.8959 C   0  0  0  0  0  0  0  0  0  0  0  0
   55.5754   95.9015   25.6637 C   0  0  0  0  0  0  0  0  0  0  0  0
   47.4412  102.8157   32.3089 C   0  0  0  0  0  0  0  0  0  0  0  0
   48.3637  102.6506   33.4323 C   0  0  0  0  0  0  0  0  0  0  0  0
   47.6810  103.9919   33.1804 C   0  0  0  0  0  0  0  0  0  0  0  0
 16 17  1  0  0  0
 17 18  2  0  0  0
 17 22  1  0  0  0
 18 19  1  0  0  0
 19 20  2  0  0  0
 19 11  1  0  0  0
 20 21  1  0  0  0
 21 22  2  0  0  0
 11 12  1  0  0  0
 11 15  1  0  0  0
 12 13  2  0  0  0
 13 14  1  0  0  0
 14 15  2  0  0  0
 14  1  1  0  0  0
  1  2  2  0  0  0
  1  3  1  0  0  0
  3  4  1  0  0  0
  3  8  1  0  0  0
  4  5  1  0  0  0
  5  6  1  0  0  0
  6  7  1  0  0  0
  6  9  1  0  0  0
  7  8  1  0  0  0
  9 10  2  0  0  0
  9 23  1  0  0  0
 23 24  1  0  0  0
 23 25  1  0  0  0
 24 25  1  0  0  0
M  END
> <minimizedAffinity>
-9.25044

$$$$
1525


 26 29  0  0  0  0  0  0  0  0999 V2000
   55.8046   86.9951   23.8293 N   0  0  0  0  0  0  0  0  0  0  0  0
   54.9537   86.8021   24.9525 C   0  0  0  0  0  0  0  0  0  0  0  0
   54.1151   87.6521   25.3381 O   0  0  0  0  0  0  0  0  0  0  0  0
   55.2678   85.4877   25.4997 C   0  0  0  0  0  0  0  0  0  0  0  0
   56.7308   85.3119   25.1510 C   0  0  0  0  0  0  0  0  0  0  0  0
   56.9519   86.1458   23.9542 C   0  0  0  0  0  0  0  0  0  0  0  0
   57.9457   86.1314   23.1807 O   0  0  0  0  0  0  0  0  0  0  0  0
   53.3467   88.0596   19.1962 Br  0  0  0  0  0  0  0  0  0  0  0  0
   54.4687   88.4919   20.6713 C   0  0  0  0  0  0  0  0  0  0  0  0
   54.7117   87.5764   21.6916 C   0  0  0  0  0  0  0  0  0  0  0  0
   55.5261   87.8967   22.7573 C   0  0  0  0  0  0  0  0  0  0  0  0
   56.0797   89.1721   22.7487 C   0  0  0  0  0  0  0  0  0  0  0  0
   55.8535   90.0852   21.7551 C   0  0  0  0  0  0  0  0  0  0  0  0
   55.0385   89.7462   20.7027 C   0  0  0  0  0  0  0  0  0  0  0  0
   54.4657   84.4150   25.0667 N   0  0  0  0  0  0  0  0  0  0  0  0
   53.3597   84.7032   24.2463 C   0  0  0  0  0  0  0  0  0  0  0  0
   52.1040   84.7786   25.1258 C   0  0  0  0  0  0  0  0  0  0  0  0
   52.3647   84.1469   26.4094 N   0  0  0  0  0  0  0  0  0  0  0  0
   53.2172   82.9812   26.5326 C   0  0  0  0  0  0  0  0  0  0  0  0
   54.4825   83.1906   25.7347 C   0  0  0  0  0  0  0  0  0  0  0  0
   51.7978   84.6714   27.6180 C   0  0  0  0  0  0  0  0  0  0  0  0
   50.5741   85.2404   27.6221 N   0  0  0  0  0  0  0  0  0  0  0  0
   50.0402   85.7159   28.7642 C   0  0  0  0  0  0  0  0  0  0  0  0
   50.7232   85.6385   29.9725 C   0  0  0  0  0  0  0  0  0  0  0  0
   51.9769   85.0530   29.9610 C   0  0  0  0  0  0  0  0  0  0  0  0
   52.4548   84.5974   28.7895 N   0  0  0  0  0  0  0  0  0  0  0  0
  8  9  1  0  0  0
  9 10  2  0  0  0
  9 14  1  0  0  0
 10 11  1  0  0  0
 11 12  2  0  0  0
 11  1  1  0  0  0
 12 13  1  0  0  0
 13 14  2  0  0  0
  1  2  1  0  0  0
  1  6  1  0  0  0
  2  3  2  0  0  0
  2  4  1  0  0  0
  4  5  1  0  0  0
  4 15  1  0  0  0
  5  6  1  0  0  0
  6  7  2  0  0  0
 15 16  1  0  0  0
 15 20  1  0  0  0
 16 17  1  0  0  0
 17 18  1  0  0  0
 18 19  1  0  0  0
 18 21  1  0  0  0
 19 20  1  0  0  0
 21 22  2  0  0  0
 21 26  1  0  0  0
 22 23  1  0  0  0
 23 24  2  0  0  0
 24 25  1  0  0  0
 25 26  2  0  0  0
M  END
> <minimizedAffinity>
-8.16418

$$$$
1531


 27 30  0  0  0  0  0  0  0  0999 V2000
   51.3416   99.2999   27.9450 N   0  0  0  0  0  0  0  0  0  0  0  0
   50.2445   98.4951   28.1058 C   0  0  0  0  0  0  0  0  0  0  0  0
   49.3803   99.1841   28.8548 N   0  0  0  0  0  0  0  0  0  0  0  0
   49.8538  100.3951   29.1929 C   0  0  0  0  0  0  0  0  0  0  0  0
   51.1065  100.4642   28.6097 C   0  0  0  0  0  0  0  0  0  0  0  0
   48.1705   98.4008   29.0829 C   0  0  0  0  0  0  0  0  0  0  0  0
   48.4408   97.0647   28.4552 C   0  0  0  0  0  0  0  0  0  0  0  0
   49.7324   97.1566   27.7245 C   0  0  0  0  0  0  0  0  0  0  0  0
   49.2290  101.4454   29.9956 C   0  0  0  0  0  0  0  0  0  0  0  0
   47.9624  101.9320   29.7965 C   0  0  0  0  0  0  0  0  0  0  0  0
   47.4305  102.9419   30.6110 C   0  0  0  0  0  0  0  0  0  0  0  0
   48.1493  103.4951   31.6472 C   0  0  0  0  0  0  0  0  0  0  0  0
   49.4235  103.0135   31.8549 C   0  0  0  0  0  0  0  0  0  0  0  0
   49.9440  102.0195   31.0526 C   0  0  0  0  0  0  0  0  0  0  0  0
   47.6356  104.4951   32.4611 O   0  0  0  0  0  0  0  0  0  0  0  0
   46.2548  104.5275   32.7749 C   0  0  0  0  0  0  0  0  0  0  0  0
   52.5014   98.9954   27.1781 C   0  0  0  0  0  0  0  0  0  0  0  0
   53.3989   97.9289   27.5553 C   0  0  0  0  0  0  0  0  0  0  0  0
   53.2688   97.5270   28.8048 O   0  0  0  0  0  0  0  0  0  0  0  0
   57.9519   98.2568   25.1710 Cl  0  0  0  0  0  0  0  0  0  0  0  0
   56.5669   97.3254   25.6740 C   0  0  0  0  0  0  0  0  0  0  0  0
   56.5151   95.9903   25.3442 C   0  0  0  0  0  0  0  0  0  0  0  0
   55.4174   95.2697   25.7466 C   0  0  0  0  0  0  0  0  0  0  0  0
   54.3987   95.9054   26.4716 C   0  0  0  0  0  0  0  0  0  0  0  0
   54.4115   97.2223   26.8180 C   0  0  0  0  0  0  0  0  0  0  0  0
   55.5669   97.9137   26.3758 C   0  0  0  0  0  0  0  0  0  0  0  0
   57.7879   95.2028   24.4407 Cl  0  0  0  0  0  0  0  0  0  0  0  0
 20 21  1  0  0  0
 21 22  2  0  0  0
 21 26  1  0  0  0
 22 23  1  0  0  0
 22 27  1  0  0  0
 23 24  2  0  0  0
 24 25  1  0  0  0
 25 26  2  0  0  0
 25 18  1  0  0  0
 18 19  2  0  0  0
 18 17  1  0  0  0
 17  1  1  0  0  0
  1  2  1  0  0  0
  1  5  1  0  0  0
  2  3  2  0  0  0
  2  8  1  0  0  0
  3  4  1  0  0  0
  3  6  1  0  0  0
  4  5  2  0  0  0
  4  9  1  0  0  0
  9 10  2  0  0  0
  9 14  1  0  0  0
 10 11  1  0  0  0
 11 12  2  0  0  0
 12 13  1  0  0  0
 12 15  1  0  0  0
 13 14  2  0  0  0
 15 16  1  0  0  0
  6  7  1  0  0  0
  7  8  1  0  0  0
M  END
> <minimizedAffinity>
-9.88736

$$$$
1533


 28 31  0  0  0  0  0  0  0  0999 V2000
   54.4980   95.8791   26.0972 C   0  0  0  0  0  0  0  0  0  0  0  0
   55.7646   96.2017   25.7282 N   0  0  0  0  0  0  0  0  0  0  0  0
   56.2391   95.2620   24.9037 C   0  0  0  0  0  0  0  0  0  0  0  0
   55.2924   94.2942   24.7057 N   0  0  0  0  0  0  0  0  0  0  0  0
   54.2378   94.6851   25.4403 C   0  0  0  0  0  0  0  0  0  0  0  0
   57.6250   95.5719   24.4870 C   0  0  0  0  0  0  0  0  0  0  0  0
   57.6893   97.0546   24.7285 C   0  0  0  0  0  0  0  0  0  0  0  0
   56.7806   97.2371   25.9221 C   0  0  0  0  0  0  0  0  0  0  0  0
   49.6237   96.9098   27.6707 Cl  0  0  0  0  0  0  0  0  0  0  0  0
   51.3595   97.1179   27.7575 C   0  0  0  0  0  0  0  0  0  0  0  0
   51.8656   97.9869   28.6791 C   0  0  0  0  0  0  0  0  0  0  0  0
   53.2260   98.1698   28.7692 C   0  0  0  0  0  0  0  0  0  0  0  0
   54.0654   97.4571   27.9091 C   0  0  0  0  0  0  0  0  0  0  0  0
   53.5614   96.5785   26.9767 C   0  0  0  0  0  0  0  0  0  0  0  0
   52.2085   96.4154   26.9080 C   0  0  0  0  0  0  0  0  0  0  0  0
   50.8232   98.8972   29.7739 Cl  0  0  0  0  0  0  0  0  0  0  0  0
   55.4333   93.0999   23.9245 C   0  0  0  0  0  0  0  0  0  0  0  0
   54.7874   92.9262   22.6523 C   0  0  0  0  0  0  0  0  0  0  0  0
   53.7834   93.7758   22.4566 O   0  0  0  0  0  0  0  0  0  0  0  0
   54.9870   92.0337   21.5388 C   0  0  0  0  0  0  0  0  0  0  0  0
   54.0434   92.0036   20.4870 C   0  0  0  0  0  0  0  0  0  0  0  0
   54.1476   91.1917   19.3880 C   0  0  0  0  0  0  0  0  0  0  0  0
   55.2511   90.3648   19.3328 C   0  0  0  0  0  0  0  0  0  0  0  0
   56.1849   90.3753   20.3448 C   0  0  0  0  0  0  0  0  0  0  0  0
   56.0731   91.2047   21.4624 C   0  0  0  0  0  0  0  0  0  0  0  0
   53.1906   91.1768   18.3456 N   0  0  0  0  0  0  0  0  0  0  0  0
   53.5566   91.3915   17.1851 O   0  0  0  0  0  0  0  0  0  0  0  0
   51.8696   90.9313   18.5840 O   0  0  0  0  0  0  0  0  0  0  0  0
  9 10  1  0  0  0
 10 11  2  0  0  0
 10 15  1  0  0  0
 11 12  1  0  0  0
 11 16  1  0  0  0
 12 13  2  0  0  0
 13 14  1  0  0  0
 14 15  2  0  0  0
 14  1  1  0  0  0
  1  2  1  0  0  0
  1  5  2  0  0  0
  2  3  2  0  0  0
  2  8  1  0  0  0
  3  4  1  0  0  0
  3  6  1  0  0  0
  4  5  1  0  0  0
  4 17  1  0  0  0
 17 18  1  0  0  0
 18 19  2  0  0  0
 18 20  1  0  0  0
 20 21  2  0  0  0
 20 25  1  0  0  0
 21 22  1  0  0  0
 22 23  2  0  0  0
 22 26  1  0  0  0
 23 24  1  0  0  0
 24 25  2  0  0  0
 26 27  2  0  0  0
 26 28  1  0  0  0
  6  7  1  0  0  0
  7  8  1  0  0  0
M  CHG 1  28  -1
M  END
> <minimizedAffinity>
-10.74294

$$$$
1535


 28 31  0  0  0  0  0  0  0  0999 V2000
   54.5134   95.8393   26.0648 C   0  0  0  0  0  0  0  0  0  0  0  0
   55.7813   96.1214   25.7244 N   0  0  0  0  0  0  0  0  0  0  0  0
   56.2386   95.1810   24.8715 C   0  0  0  0  0  0  0  0  0  0  0  0
   55.2508   94.2919   24.6655 N   0  0  0  0  0  0  0  0  0  0  0  0
   54.1564   94.6624   25.3886 C   0  0  0  0  0  0  0  0  0  0  0  0
   57.6417   95.4745   24.4974 C   0  0  0  0  0  0  0  0  0  0  0  0
   57.6273   96.9767   24.6211 C   0  0  0  0  0  0  0  0  0  0  0  0
   56.8497   97.1040   25.9424 C   0  0  0  0  0  0  0  0  0  0  0  0
   49.6626   96.8585   27.6224 Cl  0  0  0  0  0  0  0  0  0  0  0  0
   51.3741   97.1102   27.7606 C   0  0  0  0  0  0  0  0  0  0  0  0
   51.8807   97.9829   28.6856 C   0  0  0  0  0  0  0  0  0  0  0  0
   53.2443   98.1422   28.7483 C   0  0  0  0  0  0  0  0  0  0  0  0
   54.0680   97.4432   27.9066 C   0  0  0  0  0  0  0  0  0  0  0  0
   53.5855   96.5434   26.9513 C   0  0  0  0  0  0  0  0  0  0  0  0
   52.2384   96.4012   26.9033 C   0  0  0  0  0  0  0  0  0  0  0  0
   50.8373   98.8809   29.7661 Cl  0  0  0  0  0  0  0  0  0  0  0  0
   55.3316   93.1268   23.8639 C   0  0  0  0  0  0  0  0  0  0  0  0
   54.6996   93.0028   22.5820 C   0  0  0  0  0  0  0  0  0  0  0  0
   53.7762   93.9254   22.3999 O   0  0  0  0  0  0  0  0  0  0  0  0
   54.8775   92.0824   21.4839 C   0  0  0  0  0  0  0  0  0  0  0  0
   53.9981   91.9122   20.4492 C   0  0  0  0  0  0  0  0  0  0  0  0
   54.2383   91.0004   19.4171 C   0  0  0  0  0  0  0  0  0  0  0  0
   55.3697   90.2497   19.4194 C   0  0  0  0  0  0  0  0  0  0  0  0
   56.2728   90.4006   20.4491 C   0  0  0  0  0  0  0  0  0  0  0  0
   56.0480   91.2903   21.4642 C   0  0  0  0  0  0  0  0  0  0  0  0
   53.2797   90.8710   18.3655 N   0  0  0  0  0  0  0  0  0  0  0  0
   52.0989   90.6003   18.6447 O   0  0  0  0  0  0  0  0  0  0  0  0
   53.6182   91.0347   17.0606 O   0  0  0  0  0  0  0  0  0  0  0  0
  9 10  1  0  0  0
 10 11  2  0  0  0
 10 15  1  0  0  0
 11 12  1  0  0  0
 11 16  1  0  0  0
 12 13  2  0  0  0
 13 14  1  0  0  0
 14 15  2  0  0  0
 14  1  1  0  0  0
  1  2  1  0  0  0
  1  5  2  0  0  0
  2  3  1  0  0  0
  2  8  1  0  0  0
  3  4  2  0  0  0
  3  6  1  0  0  0
  4  5  1  0  0  0
  4 17  1  0  0  0
 17 18  1  0  0  0
 18 19  2  0  0  0
 18 20  1  0  0  0
 20 21  2  0  0  0
 20 25  1  0  0  0
 21 22  1  0  0  0
 22 23  2  0  0  0
 22 26  1  0  0  0
 23 24  1  0  0  0
 24 25  2  0  0  0
 26 27  2  0  0  0
 26 28  1  0  0  0
  6  7  1  0  0  0
  7  8  1  0  0  0
M  CHG 1  28  -1
M  END
> <minimizedAffinity>
-10.62689

$$$$
1536


 31 34  0  0  0  0  0  0  0  0999 V2000
   52.2338   98.9943   28.4009 S   0  0  0  0  0  0  0  0  0  0  0  0
   52.1586   98.3597   29.7935 O   0  0  0  0  0  0  0  0  0  0  0  0
   52.8731  100.3576   28.6753 O   0  0  0  0  0  0  0  0  0  0  0  0
   53.3284   97.9933   27.4921 C   0  0  0  0  0  0  0  0  0  0  0  0
   54.6361   98.4496   27.2535 C   0  0  0  0  0  0  0  0  0  0  0  0
   55.5391   97.7411   26.5044 C   0  0  0  0  0  0  0  0  0  0  0  0
   55.1751   96.5468   25.9630 C   0  0  0  0  0  0  0  0  0  0  0  0
   53.9123   96.0500   26.1629 C   0  0  0  0  0  0  0  0  0  0  0  0
   53.0118   96.7906   26.9311 C   0  0  0  0  0  0  0  0  0  0  0  0
   51.4365   96.0714   27.2197 Cl  0  0  0  0  0  0  0  0  0  0  0  0
   56.1344   95.8202   25.1758 N   0  0  0  0  0  0  0  0  0  0  0  0
   57.4303   96.3597   24.9814 C   0  0  0  0  0  0  0  0  0  0  0  0
   58.3970   95.6419   24.6508 O   0  0  0  0  0  0  0  0  0  0  0  0
   57.6017   97.8219   25.1861 C   0  0  0  0  0  0  0  0  0  0  0  0
   56.8344   98.2287   26.2879 O   0  0  0  0  0  0  0  0  0  0  0  0
   55.8653   94.9069   24.7590 H   0  0  0  0  0  0  0  0  0  0  0  0
   50.6928   99.2034   27.8408 N   0  0  0  0  0  0  0  0  0  0  0  0
   50.2878  100.2534   27.0247 C   0  0  0  0  0  0  0  0  0  0  0  0
   49.7456  101.4665   27.7095 C   0  0  0  0  0  0  0  0  0  0  0  0
   49.2454  101.0723   29.0974 C   0  0  0  0  0  0  0  0  0  0  0  0
   48.5315   99.7325   28.8550 C   0  0  0  0  0  0  0  0  0  0  0  0
   49.6480   98.7081   28.7289 C   0  0  0  0  0  0  0  0  0  0  0  0
   48.3532  102.0681   29.6657 C   0  0  0  0  0  0  0  0  0  0  0  0
   47.2541  102.3118   29.1021 O   0  0  0  0  0  0  0  0  0  0  0  0
   48.6818  102.7673   30.8316 N   0  0  0  0  0  0  0  0  0  0  0  0
   47.7872  103.7504   31.4532 C   0  0  0  0  0  0  0  0  0  0  0  0
   48.5870  104.4192   32.5513 C   0  0  0  0  0  0  0  0  0  0  0  0
   48.9744  103.4481   33.5562 N   0  0  0  0  0  0  0  0  0  0  0  0
   49.7847  102.3883   32.9827 C   0  0  0  0  0  0  0  0  0  0  0  0
   49.9464  102.5747   31.4841 C   0  0  0  0  0  0  0  0  0  0  0  0
   49.6672  104.0856   34.6549 C   0  0  0  0  0  0  0  0  0  0  0  0
  1  2  2  0  0  0
  1  3  2  0  0  0
  1 17  1  0  0  0
  1  4  1  0  0  0
 17 18  1  0  0  0
 17 22  1  0  0  0
 18 19  1  0  0  0
 19 20  1  0  0  0
 20 21  1  0  0  0
 20 23  1  0  0  0
 21 22  1  0  0  0
 23 24  2  0  0  0
 23 25  1  0  0  0
 25 26  1  0  0  0
 25 30  1  0  0  0
 26 27  1  0  0  0
 27 28  1  0  0  0
 28 29  1  0  0  0
 28 31  1  0  0  0
 29 30  1  0  0  0
  4  5  2  0  0  0
  4  9  1  0  0  0
  5  6  1  0  0  0
  6  7  2  0  0  0
  6 15  1  0  0  0
  7  8  1  0  0  0
  7 11  1  0  0  0
  8  9  2  0  0  0
  9 10  1  0  0  0
 11 12  1  0  0  0
 12 13  2  0  0  0
 12 14  1  0  0  0
 14 15  1  0  0  0
 11 16  1  0  0  0
M  END
> <minimizedAffinity>
-9.31662

$$$$
1539


 34 37  0  0  0  0  0  0  0  0999 V2000
   52.1100   84.5693   19.8034 C   0  0  0  0  0  0  0  0  0  0  0  0
   52.4350   85.9934   19.6512 N   0  0  0  0  0  0  0  0  0  0  0  0
   53.5858   86.1953   20.4590 C   0  0  0  0  0  0  0  0  0  0  0  0
   54.4684   87.0536   20.2962 O   0  0  0  0  0  0  0  0  0  0  0  0
   53.5218   85.1927   21.5177 C   0  0  0  0  0  0  0  0  0  0  0  0
   54.3129   84.9621   22.4798 O   0  0  0  0  0  0  0  0  0  0  0  0
   52.2937   84.4212   21.2763 C   0  0  0  0  0  0  0  0  0  0  0  0
   51.5903   83.7588   22.1738 C   0  0  0  0  0  0  0  0  0  0  0  0
   50.4682   83.0455   21.7433 O   0  0  0  0  0  0  0  0  0  0  0  0
   56.4193   81.5243   16.7961 Cl  0  0  0  0  0  0  0  0  0  0  0  0
   55.1687   82.4100   17.6668 C   0  0  0  0  0  0  0  0  0  0  0  0
   54.7016   81.9719   18.8926 C   0  0  0  0  0  0  0  0  0  0  0  0
   53.7226   82.6758   19.5609 C   0  0  0  0  0  0  0  0  0  0  0  0
   53.1623   83.8322   19.0620 C   0  0  0  0  0  0  0  0  0  0  0  0
   53.6477   84.2605   17.8201 C   0  0  0  0  0  0  0  0  0  0  0  0
   54.6247   83.5602   17.1509 C   0  0  0  0  0  0  0  0  0  0  0  0
   51.9268   83.7414   23.5896 C   0  0  0  0  0  0  0  0  0  0  0  0
   52.6987   82.7389   24.1533 C   0  0  0  0  0  0  0  0  0  0  0  0
   52.9929   82.7122   25.5007 C   0  0  0  0  0  0  0  0  0  0  0  0
   52.5191   83.7023   26.3498 C   0  0  0  0  0  0  0  0  0  0  0  0
   51.7506   84.7040   25.8025 C   0  0  0  0  0  0  0  0  0  0  0  0
   51.4589   84.7204   24.4352 C   0  0  0  0  0  0  0  0  0  0  0  0
   53.8214   81.6205   26.0585 C   0  0  0  0  0  0  0  0  0  0  0  0
   52.8079   83.6903   27.7119 O   0  0  0  0  0  0  0  0  0  0  0  0
   53.6701   84.6626   28.2332 C   0  0  0  0  0  0  0  0  0  0  0  0
   51.7227   86.9789   18.8372 C   0  0  0  0  0  0  0  0  0  0  0  0
   51.9944   88.3285   19.4604 C   0  0  0  0  0  0  0  0  0  0  0  0
   52.1641   89.3659   18.4790 N   0  0  0  0  0  0  0  0  0  0  0  0
   53.4209   89.2423   17.8154 C   0  0  0  0  0  0  0  0  0  0  0  0
   54.5303   90.0864   18.3483 C   0  0  0  0  0  0  0  0  0  0  0  0
   54.1486   91.2938   18.8680 O   0  0  0  0  0  0  0  0  0  0  0  0
   53.1422   91.1887   19.8192 C   0  0  0  0  0  0  0  0  0  0  0  0
   51.9333   90.6346   19.1116 C   0  0  0  0  0  0  0  0  0  0  0  0
   51.4074   89.1980   17.7565 H   0  0  0  0  0  0  0  0  0  0  0  0
 10 11  1  0  0  0
 11 12  2  0  0  0
 11 16  1  0  0  0
 12 13  1  0  0  0
 13 14  2  0  0  0
 14 15  1  0  0  0
 14  1  1  0  0  0
 15 16  2  0  0  0
  1  2  1  0  0  0
  1  7  1  0  0  0
  2  3  1  0  0  0
  2 26  1  0  0  0
  3  4  2  0  0  0
  3  5  1  0  0  0
  5  6  2  0  0  0
  5  7  1  0  0  0
  7  8  2  0  0  0
  8  9  1  0  0  0
  8 17  1  0  0  0
 17 18  2  0  0  0
 17 22  1  0  0  0
 18 19  1  0  0  0
 19 20  2  0  0  0
 19 23  1  0  0  0
 20 21  1  0  0  0
 20 24  1  0  0  0
 21 22  2  0  0  0
 24 25  1  0  0  0
 26 27  1  0  0  0
 27 28  1  0  0  0
 28 29  1  0  0  0
 28 33  1  0  0  0
 29 30  1  0  0  0
 30 31  1  0  0  0
 31 32  1  0  0  0
 32 33  1  0  0  0
 28 34  1  0  0  0
M  CHG 1   9  -1
M  CHG 1  28   1
M  END
> <minimizedAffinity>
-7.88004

$$$$
1548


 24 27  0  0  0  0  0  0  0  0999 V2000
   53.2664   92.5082   18.0681 Cl  0  0  0  0  0  0  0  0  0  0  0  0
   52.9291   90.8048   18.3396 C   0  0  0  0  0  0  0  0  0  0  0  0
   53.6538   90.0470   19.2334 C   0  0  0  0  0  0  0  0  0  0  0  0
   53.3899   88.7237   19.4421 N   0  0  0  0  0  0  0  0  0  0  0  0
   52.4025   88.0926   18.7811 C   0  0  0  0  0  0  0  0  0  0  0  0
   52.1387   86.7779   18.9866 N   0  0  0  0  0  0  0  0  0  0  0  0
   52.8531   86.0416   19.8643 C   0  0  0  0  0  0  0  0  0  0  0  0
   53.8621   86.6501   20.5525 C   0  0  0  0  0  0  0  0  0  0  0  0
   54.6861   85.8804   21.5393 C   0  0  0  0  0  0  0  0  0  0  0  0
   53.7971   84.8072   22.0171 N   0  0  0  0  0  0  0  0  0  0  0  0
   53.3712   83.9026   20.9874 C   0  0  0  0  0  0  0  0  0  0  0  0
   52.4640   84.6130   19.9982 C   0  0  0  0  0  0  0  0  0  0  0  0
   53.4748   84.7870   23.3709 C   0  0  0  0  0  0  0  0  0  0  0  0
   53.9683   85.6906   24.1312 O   0  0  0  0  0  0  0  0  0  0  0  0
   54.1060   87.9967   20.3183 C   0  0  0  0  0  0  0  0  0  0  0  0
   55.0259   88.5612   20.9424 O   0  0  0  0  0  0  0  0  0  0  0  0
   51.6682   88.8478   17.8794 C   0  0  0  0  0  0  0  0  0  0  0  0
   51.9114   90.1847   17.6476 C   0  0  0  0  0  0  0  0  0  0  0  0
   52.6035   83.8077   24.0314 C   0  0  0  0  0  0  0  0  0  0  0  0
   53.0730   82.6756   24.5632 N   0  0  0  0  0  0  0  0  0  0  0  0
   52.2723   81.7894   25.1627 C   0  0  0  0  0  0  0  0  0  0  0  0
   50.9119   81.9931   25.2668 C   0  0  0  0  0  0  0  0  0  0  0  0
   50.4573   83.1372   24.7267 N   0  0  0  0  0  0  0  0  0  0  0  0
   51.2347   84.0367   24.1231 C   0  0  0  0  0  0  0  0  0  0  0  0
  1  2  1  0  0  0
  2  3  2  0  0  0
  2 18  1  0  0  0
  3  4  1  0  0  0
  4  5  1  0  0  0
  4 15  1  0  0  0
  5  6  2  0  0  0
  5 17  1  0  0  0
  6  7  1  0  0  0
  7  8  2  0  0  0
  7 12  1  0  0  0
  8  9  1  0  0  0
  8 15  1  0  0  0
  9 10  1  0  0  0
 10 11  1  0  0  0
 10 13  1  0  0  0
 11 12  1  0  0  0
 13 14  2  0  0  0
 13 19  1  0  0  0
 19 20  2  0  0  0
 19 24  1  0  0  0
 20 21  1  0  0  0
 21 22  2  0  0  0
 22 23  1  0  0  0
 23 24  2  0  0  0
 15 16  2  0  0  0
 17 18  2  0  0  0
M  END
> <minimizedAffinity>
-7.97268

$$$$
1553


 29 32  0  0  0  0  0  0  0  0999 V2000
   56.3130   87.6607   21.6536 C   0  0  0  0  0  0  0  0  0  0  0  0
   57.0266   88.0670   22.8048 N   0  0  0  0  0  0  0  0  0  0  0  0
   56.8582   87.2733   23.9869 C   0  0  0  0  0  0  0  0  0  0  0  0
   55.3572   87.1593   24.3027 C   0  0  0  0  0  0  0  0  0  0  0  0
   54.8124   86.4071   23.1563 C   0  0  0  0  0  0  0  0  0  0  0  0
   53.8513   85.4117   23.0835 C   0  0  0  0  0  0  0  0  0  0  0  0
   53.7484   85.0655   21.7546 C   0  0  0  0  0  0  0  0  0  0  0  0
   54.6020   85.8060   21.0308 N   0  0  0  0  0  0  0  0  0  0  0  0
   55.2661   86.6412   21.8958 C   0  0  0  0  0  0  0  0  0  0  0  0
   52.8437   84.0764   21.4139 C   0  0  0  0  0  0  0  0  0  0  0  0
   52.0953   83.4902   22.4042 C   0  0  0  0  0  0  0  0  0  0  0  0
   52.2004   83.8382   23.7319 C   0  0  0  0  0  0  0  0  0  0  0  0
   53.1078   84.8329   24.0895 C   0  0  0  0  0  0  0  0  0  0  0  0
   58.0684   88.0421   22.5625 H   0  0  0  0  0  0  0  0  0  0  0  0
   56.8549   89.0636   23.0907 H   0  0  0  0  0  0  0  0  0  0  0  0
   54.7740   85.7948   19.9923 H   0  0  0  0  0  0  0  0  0  0  0  0
   54.6856   92.7890   22.1351 Br  0  0  0  0  0  0  0  0  0  0  0  0
   54.8511   91.1488   21.1647 C   0  0  0  0  0  0  0  0  0  0  0  0
   55.4939   90.0509   21.7455 C   0  0  0  0  0  0  0  0  0  0  0  0
   55.6173   88.8583   21.0555 C   0  0  0  0  0  0  0  0  0  0  0  0
   55.0860   88.7940   19.7836 C   0  0  0  0  0  0  0  0  0  0  0  0
   54.4484   89.8889   19.2144 C   0  0  0  0  0  0  0  0  0  0  0  0
   54.3271   91.0733   19.9031 C   0  0  0  0  0  0  0  0  0  0  0  0
   53.7225   89.7414   17.4368 Br  0  0  0  0  0  0  0  0  0  0  0  0
   55.9798   90.2359   23.0131 O   0  0  0  0  0  0  0  0  0  0  0  0
   56.4500   89.5736   23.5670 H   0  0  0  0  0  0  0  0  0  0  0  0
   57.5859   87.8916   25.1136 C   0  0  0  0  0  0  0  0  0  0  0  0
   57.1710   88.9833   25.5816 O   0  0  0  0  0  0  0  0  0  0  0  0
   58.7063   87.2623   25.6304 O   0  0  0  0  0  0  0  0  0  0  0  0
 17 18  1  0  0  0
 18 19  2  0  0  0
 18 23  1  0  0  0
 19 20  1  0  0  0
 19 25  1  0  0  0
 20 21  2  0  0  0
 20  1  1  0  0  0
 21 22  1  0  0  0
 22 23  2  0  0  0
 22 24  1  0  0  0
  1  2  1  0  0  0
  1  9  1  0  0  0
  2  3  1  0  0  0
  3  4  1  0  0  0
  3 27  1  0  0  0
  4  5  1  0  0  0
  5  6  1  0  0  0
  5  9  2  0  0  0
  6  7  2  0  0  0
  6 13  1  0  0  0
  7  8  1  0  0  0
  7 10  1  0  0  0
  8  9  1  0  0  0
 10 11  2  0  0  0
 11 12  1  0  0  0
 12 13  2  0  0  0
 27 28  2  0  0  0
 27 29  1  0  0  0
  2 14  1  0  0  0
  2 15  1  0  0  0
  8 16  1  0  0  0
 25 26  1  0  0  0
M  CHG 1   2   1
M  END
> <minimizedAffinity>
-9.39091

$$$$
1571


 28 31  0  0  0  0  0  0  0  0999 V2000
   54.9868   85.2287   21.4128 O   0  0  0  0  0  0  0  0  0  0  0  0
   55.5608   86.4778   21.4691 C   0  0  0  0  0  0  0  0  0  0  0  0
   56.8116   86.5189   21.2925 O   0  0  0  0  0  0  0  0  0  0  0  0
   54.7745   87.7153   21.7206 C   0  0  0  0  0  0  0  0  0  0  0  0
   54.6099   88.5039   20.4983 N   0  0  0  0  0  0  0  0  0  0  0  0
   53.5622   88.4010   19.5379 C   0  0  0  0  0  0  0  0  0  0  0  0
   52.5014   87.7395   19.6625 O   0  0  0  0  0  0  0  0  0  0  0  0
   53.9444   89.2158   18.3612 C   0  0  0  0  0  0  0  0  0  0  0  0
   54.7525   90.3021   19.0316 C   0  0  0  0  0  0  0  0  0  0  0  0
   53.8890   91.3276   19.7399 C   0  0  0  0  0  0  0  0  0  0  0  0
   52.4184   91.1473   19.4715 C   0  0  0  0  0  0  0  0  0  0  0  0
   52.1555   90.9435   18.0064 C   0  0  0  0  0  0  0  0  0  0  0  0
   52.8143   89.6927   17.5439 C   0  0  0  0  0  0  0  0  0  0  0  0
   55.4906   89.5188   20.0491 C   0  0  0  0  0  0  0  0  0  0  0  0
   56.6805   89.7005   20.4566 O   0  0  0  0  0  0  0  0  0  0  0  0
   53.7891   84.9117   20.7605 C   0  0  0  0  0  0  0  0  0  0  0  0
   54.8149   80.6788   13.6581 Br  0  0  0  0  0  0  0  0  0  0  0  0
   54.5586   81.8814   15.1420 C   0  0  0  0  0  0  0  0  0  0  0  0
   54.5306   81.4148   16.4347 C   0  0  0  0  0  0  0  0  0  0  0  0
   54.3544   82.2252   17.4877 N   0  0  0  0  0  0  0  0  0  0  0  0
   54.1955   83.5626   17.3179 C   0  0  0  0  0  0  0  0  0  0  0  0
   54.0185   84.4114   18.3329 N   0  0  0  0  0  0  0  0  0  0  0  0
   53.9841   83.9936   19.6134 C   0  0  0  0  0  0  0  0  0  0  0  0
   54.1421   82.6396   19.8255 C   0  0  0  0  0  0  0  0  0  0  0  0
   54.3248   81.7720   18.7673 C   0  0  0  0  0  0  0  0  0  0  0  0
   54.4737   80.5272   18.9172 O   0  0  0  0  0  0  0  0  0  0  0  0
   54.2191   84.0734   16.0217 C   0  0  0  0  0  0  0  0  0  0  0  0
   54.4003   83.2296   14.9467 C   0  0  0  0  0  0  0  0  0  0  0  0
 17 18  1  0  0  0
 18 19  2  0  0  0
 18 28  1  0  0  0
 19 20  1  0  0  0
 20 21  1  0  0  0
 20 25  1  0  0  0
 21 22  2  0  0  0
 21 27  1  0  0  0
 22 23  1  0  0  0
 23 24  2  0  0  0
 23 16  1  0  0  0
 24 25  1  0  0  0
 25 26  2  0  0  0
 16  1  1  0  0  0
  1  2  1  0  0  0
  2  3  2  0  0  0
  2  4  1  0  0  0
  4  5  1  0  0  0
  5  6  1  0  0  0
  5 14  1  0  0  0
  6  7  2  0  0  0
  6  8  1  0  0  0
  8  9  1  0  0  0
  8 13  1  0  0  0
  9 10  1  0  0  0
  9 14  1  0  0  0
 10 11  1  0  0  0
 11 12  1  0  0  0
 12 13  1  0  0  0
 14 15  2  0  0  0
 27 28  2  0  0  0
M  END
> <minimizedAffinity>
-9.29834

$$$$
1576


 30 33  0  0  0  0  0  0  0  0999 V2000
   55.3784   90.2644   20.1674 N   0  0  0  0  0  0  0  0  0  0  0  0
   54.7438   90.7650   21.3676 C   0  0  0  0  0  0  0  0  0  0  0  0
   55.4851   90.2007   22.5772 C   0  0  0  0  0  0  0  0  0  0  0  0
   55.8212   88.8076   22.3304 N   0  0  0  0  0  0  0  0  0  0  0  0
   56.6140   88.4866   21.1669 C   0  0  0  0  0  0  0  0  0  0  0  0
   56.7421   89.7367   20.3296 C   0  0  0  0  0  0  0  0  0  0  0  0
   55.3906   87.7692   23.2024 C   0  0  0  0  0  0  0  0  0  0  0  0
   54.6991   88.0881   24.2192 O   0  0  0  0  0  0  0  0  0  0  0  0
   53.0751   88.3612   19.6853 Cl  0  0  0  0  0  0  0  0  0  0  0  0
   53.7599   89.4323   18.5166 C   0  0  0  0  0  0  0  0  0  0  0  0
   54.8119   90.2400   18.8916 C   0  0  0  0  0  0  0  0  0  0  0  0
   55.3187   91.0784   17.9012 C   0  0  0  0  0  0  0  0  0  0  0  0
   54.7906   91.0916   16.6252 C   0  0  0  0  0  0  0  0  0  0  0  0
   53.7437   90.2706   16.2984 C   0  0  0  0  0  0  0  0  0  0  0  0
   53.2266   89.4399   17.2425 C   0  0  0  0  0  0  0  0  0  0  0  0
   55.6964   86.3480   23.0023 C   0  0  0  0  0  0  0  0  0  0  0  0
   54.7552   85.6698   22.1131 N   0  0  0  0  0  0  0  0  0  0  0  0
   54.7667   85.5754   20.7985 N   0  0  0  0  0  0  0  0  0  0  0  0
   53.7390   84.8713   20.3193 C   0  0  0  0  0  0  0  0  0  0  0  0
   52.9974   84.4742   21.4173 C   0  0  0  0  0  0  0  0  0  0  0  0
   53.6507   84.9835   22.5172 C   0  0  0  0  0  0  0  0  0  0  0  0
   53.2104   84.8061   23.9168 C   0  0  0  0  0  0  0  0  0  0  0  0
   53.4535   84.5740   18.9037 C   0  0  0  0  0  0  0  0  0  0  0  0
   52.8224   85.3932   18.2064 O   0  0  0  0  0  0  0  0  0  0  0  0
   53.9078   83.3536   18.3576 N   0  0  0  0  0  0  0  0  0  0  0  0
   54.6392   82.3656   19.0993 C   0  0  0  0  0  0  0  0  0  0  0  0
   54.7935   81.1555   18.1696 C   0  0  0  0  0  0  0  0  0  0  0  0
   53.5742   80.7527   17.6712 O   0  0  0  0  0  0  0  0  0  0  0  0
   52.9386   81.7013   16.9056 C   0  0  0  0  0  0  0  0  0  0  0  0
   53.6316   83.0470   16.9510 C   0  0  0  0  0  0  0  0  0  0  0  0
  9 10  1  0  0  0
 10 11  2  0  0  0
 10 15  1  0  0  0
 11 12  1  0  0  0
 11  1  1  0  0  0
 12 13  2  0  0  0
 13 14  1  0  0  0
 14 15  2  0  0  0
  1  2  1  0  0  0
  1  6  1  0  0  0
  2  3  1  0  0  0
  3  4  1  0  0  0
  4  5  1  0  0  0
  4  7  1  0  0  0
  5  6  1  0  0  0
  7  8  2  0  0  0
  7 16  1  0  0  0
 16 17  1  0  0  0
 17 18  1  0  0  0
 17 21  1  0  0  0
 18 19  2  0  0  0
 19 20  1  0  0  0
 19 23  1  0  0  0
 20 21  2  0  0  0
 21 22  1  0  0  0
 23 24  2  0  0  0
 23 25  1  0  0  0
 25 26  1  0  0  0
 25 30  1  0  0  0
 26 27  1  0  0  0
 27 28  1  0  0  0
 28 29  1  0  0  0
 29 30  1  0  0  0
M  END
> <minimizedAffinity>
-9.12936

$$$$
1581


 27 30  0  0  0  0  0  0  0  0999 V2000
   51.0280   98.2307   27.7094 N   0  0  0  0  0  0  0  0  0  0  0  0
   49.7983   97.6327   28.0242 C   0  0  0  0  0  0  0  0  0  0  0  0
   48.9710   98.3410   29.0449 C   0  0  0  0  0  0  0  0  0  0  0  0
   49.2247   99.7744   29.0584 N   0  0  0  0  0  0  0  0  0  0  0  0
   48.5975  100.6762   29.8121 N   0  0  0  0  0  0  0  0  0  0  0  0
   49.0964  101.8886   29.5543 C   0  0  0  0  0  0  0  0  0  0  0  0
   50.0717  101.7272   28.6027 C   0  0  0  0  0  0  0  0  0  0  0  0
   50.1499  100.3669   28.2875 C   0  0  0  0  0  0  0  0  0  0  0  0
   51.0033   99.6022   27.3443 C   0  0  0  0  0  0  0  0  0  0  0  0
   48.6659  103.1731   30.1896 C   0  0  0  0  0  0  0  0  0  0  0  0
   47.2863  103.3168   29.9688 O   0  0  0  0  0  0  0  0  0  0  0  0
   46.9045  102.4814   29.5714 H   0  0  0  0  0  0  0  0  0  0  0  0
   48.8362  103.0884   31.7043 C   0  0  0  0  0  0  0  0  0  0  0  0
   50.3082  103.2898   32.0320 C   0  0  0  0  0  0  0  0  0  0  0  0
   52.1885   97.7516   28.3359 C   0  0  0  0  0  0  0  0  0  0  0  0
   58.3851   95.2826   23.7260 Cl  0  0  0  0  0  0  0  0  0  0  0  0
   57.1919   96.0297   24.7786 C   0  0  0  0  0  0  0  0  0  0  0  0
   56.0023   95.3646   24.9703 C   0  0  0  0  0  0  0  0  0  0  0  0
   55.0838   95.9443   25.7834 N   0  0  0  0  0  0  0  0  0  0  0  0
   55.3068   97.1214   26.3893 C   0  0  0  0  0  0  0  0  0  0  0  0
   54.4015   97.7028   27.1980 N   0  0  0  0  0  0  0  0  0  0  0  0
   53.2039   97.1492   27.4611 C   0  0  0  0  0  0  0  0  0  0  0  0
   52.9728   95.9357   26.8369 C   0  0  0  0  0  0  0  0  0  0  0  0
   53.8989   95.3419   26.0098 C   0  0  0  0  0  0  0  0  0  0  0  0
   53.6441   94.2267   25.4580 O   0  0  0  0  0  0  0  0  0  0  0  0
   56.5142   97.8012   26.1989 C   0  0  0  0  0  0  0  0  0  0  0  0
   57.4637   97.2406   25.3812 C   0  0  0  0  0  0  0  0  0  0  0  0
 16 17  1  0  0  0
 17 18  2  0  0  0
 17 27  1  0  0  0
 18 19  1  0  0  0
 19 20  1  0  0  0
 19 24  1  0  0  0
 20 21  2  0  0  0
 20 26  1  0  0  0
 21 22  1  0  0  0
 22 23  2  0  0  0
 22 15  1  0  0  0
 23 24  1  0  0  0
 24 25  2  0  0  0
 15  1  1  0  0  0
  1  2  1  0  0  0
  1  9  1  0  0  0
  2  3  1  0  0  0
  3  4  1  0  0  0
  4  5  1  0  0  0
  4  8  1  0  0  0
  5  6  2  0  0  0
  6  7  1  0  0  0
  6 10  1  0  0  0
  7  8  2  0  0  0
  8  9  1  0  0  0
 10 11  1  0  0  0
 10 13  1  0  0  0
 13 14  1  0  0  0
 26 27  2  0  0  0
 11 12  1  0  0  0
M  END
> <minimizedAffinity>
-9.20116

$$$$
1586


 29 32  0  0  0  0  0  0  0  0999 V2000
   55.5748   89.3855   20.2315 C   0  0  0  0  0  0  0  0  0  0  0  0
   56.7406   89.9277   19.9176 O   0  0  0  0  0  0  0  0  0  0  0  0
   55.6374   88.2289   21.0263 N   0  0  0  0  0  0  0  0  0  0  0  0
   54.5115   87.4766   21.4522 C   0  0  0  0  0  0  0  0  0  0  0  0
   55.0026   86.1726   22.1039 C   0  0  0  0  0  0  0  0  0  0  0  0
   55.8497   86.5821   23.1940 N   0  0  0  0  0  0  0  0  0  0  0  0
   57.0063   87.3498   22.8747 C   0  0  0  0  0  0  0  0  0  0  0  0
   56.9791   87.8105   21.4318 C   0  0  0  0  0  0  0  0  0  0  0  0
   55.5402   86.2349   24.5203 C   0  0  0  0  0  0  0  0  0  0  0  0
   56.4448   86.2541   25.3737 O   0  0  0  0  0  0  0  0  0  0  0  0
   54.1506   85.8601   24.8540 C   0  0  0  0  0  0  0  0  0  0  0  0
   53.7195   84.9298   23.8526 N   0  0  0  0  0  0  0  0  0  0  0  0
   53.9052   85.2898   22.4950 C   0  0  0  0  0  0  0  0  0  0  0  0
   53.1330   84.8608   21.5812 O   0  0  0  0  0  0  0  0  0  0  0  0
   53.2770   84.0075   24.0899 H   0  0  0  0  0  0  0  0  0  0  0  0
   50.8124   92.1257   17.7238 Cl  0  0  0  0  0  0  0  0  0  0  0  0
   52.2172   91.3594   18.4807 C   0  0  0  0  0  0  0  0  0  0  0  0
   52.8241   91.9219   19.5563 C   0  0  0  0  0  0  0  0  0  0  0  0
   53.9296   91.2925   20.1300 C   0  0  0  0  0  0  0  0  0  0  0  0
   54.4657   90.1119   19.6783 C   0  0  0  0  0  0  0  0  0  0  0  0
   53.7979   89.5768   18.5627 C   0  0  0  0  0  0  0  0  0  0  0  0
   52.7041   90.1807   17.9787 C   0  0  0  0  0  0  0  0  0  0  0  0
   53.9643   85.4118   26.2530 C   0  0  0  0  0  0  0  0  0  0  0  0
   52.7276   84.6224   26.3708 C   0  0  0  0  0  0  0  0  0  0  0  0
   52.5303   83.3330   26.0857 N   0  0  0  0  0  0  0  0  0  0  0  0
   51.2286   83.0098   26.3424 C   0  0  0  0  0  0  0  0  0  0  0  0
   50.5991   84.0982   26.7904 N   0  0  0  0  0  0  0  0  0  0  0  0
   51.4916   85.0934   26.8163 C   0  0  0  0  0  0  0  0  0  0  0  0
   49.6151   84.1644   27.0640 H   0  0  0  0  0  0  0  0  0  0  0  0
 16 17  1  0  0  0
 17 18  2  0  0  0
 17 22  1  0  0  0
 18 19  1  0  0  0
 19 20  2  0  0  0
 20 21  1  0  0  0
 20  1  1  0  0  0
 21 22  2  0  0  0
  1  2  2  0  0  0
  1  3  1  0  0  0
  3  4  1  0  0  0
  3  8  1  0  0  0
  4  5  1  0  0  0
  5  6  1  0  0  0
  5 13  1  0  0  0
  6  7  1  0  0  0
  6  9  1  0  0  0
  7  8  1  0  0  0
  9 10  2  0  0  0
  9 11  1  0  0  0
 11 12  1  0  0  0
 11 23  1  0  0  0
 12 13  1  0  0  0
 13 14  2  0  0  0
 23 24  1  0  0  0
 24 25  1  0  0  0
 24 28  2  0  0  0
 25 26  2  0  0  0
 26 27  1  0  0  0
 27 28  1  0  0  0
 12 15  1  0  0  0
 27 29  1  0  0  0
M  END
> <minimizedAffinity>
-8.94126

$$$$
1591


 26 29  0  0  0  0  0  0  0  0999 V2000
   53.8288   85.7842   20.7865 Cl  0  0  0  0  0  0  0  0  0  0  0  0
   54.4035   87.4343   20.8691 C   0  0  0  0  0  0  0  0  0  0  0  0
   55.3844   87.7787   21.7556 C   0  0  0  0  0  0  0  0  0  0  0  0
   55.7531   89.1267   21.7430 C   0  0  0  0  0  0  0  0  0  0  0  0
   55.1637   89.9933   20.9045 N   0  0  0  0  0  0  0  0  0  0  0  0
   54.2196   89.6830   20.0449 N   0  0  0  0  0  0  0  0  0  0  0  0
   53.8340   88.4004   20.0219 C   0  0  0  0  0  0  0  0  0  0  0  0
   52.9378   88.0052   19.2335 O   0  0  0  0  0  0  0  0  0  0  0  0
   53.6462   90.6663   19.1890 C   0  0  0  0  0  0  0  0  0  0  0  0
   52.4407   91.2815   19.4624 C   0  0  0  0  0  0  0  0  0  0  0  0
   51.8952   92.2328   18.6272 C   0  0  0  0  0  0  0  0  0  0  0  0
   52.5466   92.6077   17.4692 C   0  0  0  0  0  0  0  0  0  0  0  0
   53.7513   91.9973   17.1908 C   0  0  0  0  0  0  0  0  0  0  0  0
   54.2946   91.0441   18.0311 C   0  0  0  0  0  0  0  0  0  0  0  0
   56.0158   86.8536   22.6202 N   0  0  0  0  0  0  0  0  0  0  0  0
   55.3555   86.2843   23.7832 C   0  0  0  0  0  0  0  0  0  0  0  0
   56.0439   86.6812   25.0635 C   0  0  0  0  0  0  0  0  0  0  0  0
   57.4626   86.6162   24.8108 N   0  0  0  0  0  0  0  0  0  0  0  0
   57.9188   85.7717   23.7376 C   0  0  0  0  0  0  0  0  0  0  0  0
   57.3936   86.4117   22.4339 C   0  0  0  0  0  0  0  0  0  0  0  0
   58.3823   87.3568   25.5916 C   0  0  0  0  0  0  0  0  0  0  0  0
   58.2489   88.6412   26.0311 N   0  0  0  0  0  0  0  0  0  0  0  0
   59.3156   88.9753   26.7294 N   0  0  0  0  0  0  0  0  0  0  0  0
   60.1327   87.9300   26.7468 C   0  0  0  0  0  0  0  0  0  0  0  0
   59.5555   86.9776   26.0624 O   0  0  0  0  0  0  0  0  0  0  0  0
   61.4737   87.7943   27.4025 C   0  0  0  0  0  0  0  0  0  0  0  0
  1  2  1  0  0  0
  2  3  2  0  0  0
  2  7  1  0  0  0
  3  4  1  0  0  0
  3 15  1  0  0  0
  4  5  2  0  0  0
  5  6  1  0  0  0
  6  7  1  0  0  0
  6  9  1  0  0  0
  7  8  2  0  0  0
  9 10  2  0  0  0
  9 14  1  0  0  0
 10 11  1  0  0  0
 11 12  2  0  0  0
 12 13  1  0  0  0
 13 14  2  0  0  0
 15 16  1  0  0  0
 15 20  1  0  0  0
 16 17  1  0  0  0
 17 18  1  0  0  0
 18 19  1  0  0  0
 18 21  1  0  0  0
 19 20  1  0  0  0
 21 22  2  0  0  0
 21 25  1  0  0  0
 22 23  1  0  0  0
 23 24  2  0  0  0
 24 25  1  0  0  0
 24 26  1  0  0  0
M  END
> <minimizedAffinity>
-9.26358

$$$$
1594


 27 30  0  0  0  0  0  0  0  0999 V2000
   56.8138   87.2763   22.1468 C   0  0  0  0  0  0  0  0  0  0  0  0
   57.6463   86.4572   21.6086 O   0  0  0  0  0  0  0  0  0  0  0  0
   56.7221   87.2472   23.5249 N   0  0  0  0  0  0  0  0  0  0  0  0
   55.8476   88.1009   24.2924 C   0  0  0  0  0  0  0  0  0  0  0  0
   54.7306   87.3003   24.9277 C   0  0  0  0  0  0  0  0  0  0  0  0
   55.2615   85.9654   25.3661 C   0  0  0  0  0  0  0  0  0  0  0  0
   56.5242   85.5051   25.1103 C   0  0  0  0  0  0  0  0  0  0  0  0
   56.5825   84.2728   25.6784 N   0  0  0  0  0  0  0  0  0  0  0  0
   55.4418   83.9678   26.2539 N   0  0  0  0  0  0  0  0  0  0  0  0
   54.5789   84.9792   26.0950 C   0  0  0  0  0  0  0  0  0  0  0  0
   53.3774   85.0636   26.5073 O   0  0  0  0  0  0  0  0  0  0  0  0
   57.5230   86.3104   24.3500 C   0  0  0  0  0  0  0  0  0  0  0  0
   57.4486   83.6832   25.6343 H   0  0  0  0  0  0  0  0  0  0  0  0
   51.6695   90.8507   17.8415 Cl  0  0  0  0  0  0  0  0  0  0  0  0
   53.1614   90.3823   18.6356 C   0  0  0  0  0  0  0  0  0  0  0  0
   53.1936   89.3127   19.5012 C   0  0  0  0  0  0  0  0  0  0  0  0
   54.3700   88.9772   20.0999 N   0  0  0  0  0  0  0  0  0  0  0  0
   55.4701   89.6909   19.8365 C   0  0  0  0  0  0  0  0  0  0  0  0
   56.4950   89.1777   20.5355 N   0  0  0  0  0  0  0  0  0  0  0  0
   56.0638   88.1366   21.2479 C   0  0  0  0  0  0  0  0  0  0  0  0
   54.6944   88.0086   20.9665 C   0  0  0  0  0  0  0  0  0  0  0  0
   55.4665   90.7875   18.9570 C   0  0  0  0  0  0  0  0  0  0  0  0
   54.2942   91.1269   18.3560 C   0  0  0  0  0  0  0  0  0  0  0  0
   55.0983   82.7328   26.9737 C   0  0  0  0  0  0  0  0  0  0  0  0
   54.9768   81.5701   26.0160 C   0  0  0  0  0  0  0  0  0  0  0  0
   56.1054   81.4247   25.2183 O   0  0  0  0  0  0  0  0  0  0  0  0
   55.8726   81.1403   24.2846 H   0  0  0  0  0  0  0  0  0  0  0  0
 14 15  1  0  0  0
 15 16  2  0  0  0
 15 23  1  0  0  0
 16 17  1  0  0  0
 17 18  1  0  0  0
 17 21  1  0  0  0
 18 19  2  0  0  0
 18 22  1  0  0  0
 19 20  1  0  0  0
 20 21  2  0  0  0
 20  1  1  0  0  0
  1  2  2  0  0  0
  1  3  1  0  0  0
  3  4  1  0  0  0
  3 12  1  0  0  0
  4  5  1  0  0  0
  5  6  1  0  0  0
  6  7  2  0  0  0
  6 10  1  0  0  0
  7  8  1  0  0  0
  7 12  1  0  0  0
  8  9  1  0  0  0
  9 10  1  0  0  0
  9 24  1  0  0  0
 10 11  2  0  0  0
 24 25  1  0  0  0
 25 26  1  0  0  0
 22 23  2  0  0  0
  8 13  1  0  0  0
 26 27  1  0  0  0
M  END
> <minimizedAffinity>
-8.52774

$$$$
1599


 30 33  0  0  0  0  0  0  0  0999 V2000
   56.0282   89.2827   22.4299 C   0  0  0  0  0  0  0  0  0  0  0  0
   55.5610   89.6069   23.5782 O   0  0  0  0  0  0  0  0  0  0  0  0
   56.0426   90.1922   21.3639 N   0  0  0  0  0  0  0  0  0  0  0  0
   56.5510   89.8650   20.0702 C   0  0  0  0  0  0  0  0  0  0  0  0
   55.7762   90.5165   18.9600 C   0  0  0  0  0  0  0  0  0  0  0  0
   54.3706   90.9379   19.3283 C   0  0  0  0  0  0  0  0  0  0  0  0
   53.9599   91.7831   18.2153 N   0  0  0  0  0  0  0  0  0  0  0  0
   52.5977   92.1567   18.1866 C   0  0  0  0  0  0  0  0  0  0  0  0
   51.6425   91.3687   19.0056 C   0  0  0  0  0  0  0  0  0  0  0  0
   52.1144   89.9635   19.2080 C   0  0  0  0  0  0  0  0  0  0  0  0
   51.4582   88.8057   19.2713 N   0  0  0  0  0  0  0  0  0  0  0  0
   52.4001   87.8596   19.4689 C   0  0  0  0  0  0  0  0  0  0  0  0
   53.6260   88.4243   19.5285 N   0  0  0  0  0  0  0  0  0  0  0  0
   53.4633   89.7691   19.3645 C   0  0  0  0  0  0  0  0  0  0  0  0
   54.2813   91.6984   20.6264 C   0  0  0  0  0  0  0  0  0  0  0  0
   55.5104   91.5430   21.5032 C   0  0  0  0  0  0  0  0  0  0  0  0
   54.5969   92.6276   18.2908 H   0  0  0  0  0  0  0  0  0  0  0  0
   54.5165   87.9197   19.6733 H   0  0  0  0  0  0  0  0  0  0  0  0
   56.5445   87.8693   22.3415 C   0  0  0  0  0  0  0  0  0  0  0  0
   54.6697   86.0751   23.1184 C   0  0  0  0  0  0  0  0  0  0  0  0
   54.2513   85.8181   24.3020 O   0  0  0  0  0  0  0  0  0  0  0  0
   55.5853   86.9512   22.7389 N   0  0  0  0  0  0  0  0  0  0  0  0
   55.7905   87.3270   24.0545 H   0  0  0  0  0  0  0  0  0  0  0  0
   50.8063   82.6359   21.7973 Br  0  0  0  0  0  0  0  0  0  0  0  0
   52.3168   83.6807   21.3643 C   0  0  0  0  0  0  0  0  0  0  0  0
   52.9052   84.4690   22.3414 C   0  0  0  0  0  0  0  0  0  0  0  0
   53.9995   85.2423   22.0580 C   0  0  0  0  0  0  0  0  0  0  0  0
   54.5632   85.2797   20.8180 C   0  0  0  0  0  0  0  0  0  0  0  0
   53.9763   84.4868   19.8269 C   0  0  0  0  0  0  0  0  0  0  0  0
   52.8723   83.7044   20.1090 C   0  0  0  0  0  0  0  0  0  0  0  0
 24 25  1  0  0  0
 25 26  2  0  0  0
 25 30  1  0  0  0
 26 27  1  0  0  0
 27 28  2  0  0  0
 27 20  1  0  0  0
 28 29  1  0  0  0
 29 30  2  0  0  0
 20 21  2  0  0  0
 20 22  1  0  0  0
 22 19  1  0  0  0
 19  1  1  0  0  0
  1  2  2  0  0  0
  1  3  1  0  0  0
  3  4  1  0  0  0
  3 16  1  0  0  0
  4  5  1  0  0  0
  5  6  1  0  0  0
  6  7  1  0  0  0
  6 14  1  0  0  0
  6 15  1  0  0  0
  7  8  1  0  0  0
  8  9  1  0  0  0
  9 10  1  0  0  0
 10 11  1  0  0  0
 10 14  2  0  0  0
 11 12  2  0  0  0
 12 13  1  0  0  0
 13 14  1  0  0  0
 15 16  1  0  0  0
 22 23  1  0  0  0
  7 17  1  0  0  0
 13 18  1  0  0  0
M  END
> <minimizedAffinity>
-9.32726

$$$$
1609


 26 29  0  0  0  0  0  0  0  0999 V2000
   51.0534  100.1907   28.1689 N   0  0  0  0  0  0  0  0  0  0  0  0
   49.9727  100.1073   29.1149 C   0  0  0  0  0  0  0  0  0  0  0  0
   48.8115  100.6293   28.2924 C   0  0  0  0  0  0  0  0  0  0  0  0
   49.4225  101.7402   27.6495 O   0  0  0  0  0  0  0  0  0  0  0  0
   50.6980  101.2556   27.2944 C   0  0  0  0  0  0  0  0  0  0  0  0
   51.3799  101.7334   26.3334 O   0  0  0  0  0  0  0  0  0  0  0  0
   47.8759  100.9916   29.3875 C   0  0  0  0  0  0  0  0  0  0  0  0
   48.7559  101.8142   30.2488 N   0  0  0  0  0  0  0  0  0  0  0  0
   50.0625  101.2409   30.1522 C   0  0  0  0  0  0  0  0  0  0  0  0
   48.2456  102.9093   30.9515 C   0  0  0  0  0  0  0  0  0  0  0  0
   46.9879  103.2153   30.8446 O   0  0  0  0  0  0  0  0  0  0  0  0
   48.9924  103.7904   31.8302 C   0  0  0  0  0  0  0  0  0  0  0  0
   49.4373  103.5099   33.0848 N   0  0  0  0  0  0  0  0  0  0  0  0
   50.0832  104.5745   33.5546 C   0  0  0  0  0  0  0  0  0  0  0  0
   50.0640  105.5356   32.6291 N   0  0  0  0  0  0  0  0  0  0  0  0
   49.3923  105.0646   31.5547 C   0  0  0  0  0  0  0  0  0  0  0  0
   49.2311  102.2610   33.7704 C   0  0  0  0  0  0  0  0  0  0  0  0
   52.2712   99.4235   28.0427 C   0  0  0  0  0  0  0  0  0  0  0  0
   52.0408   97.9444   27.8939 C   0  0  0  0  0  0  0  0  0  0  0  0
   57.0921   98.1327   26.6059 Cl  0  0  0  0  0  0  0  0  0  0  0  0
   55.5603   97.2622   26.7281 C   0  0  0  0  0  0  0  0  0  0  0  0
   54.4527   97.8997   27.2337 C   0  0  0  0  0  0  0  0  0  0  0  0
   53.2259   97.2451   27.3453 C   0  0  0  0  0  0  0  0  0  0  0  0
   53.1885   95.9317   26.9223 C   0  0  0  0  0  0  0  0  0  0  0  0
   54.3084   95.2990   26.4145 C   0  0  0  0  0  0  0  0  0  0  0  0
   55.5188   95.9504   26.3065 C   0  0  0  0  0  0  0  0  0  0  0  0
 20 21  1  0  0  0
 21 22  2  0  0  0
 21 26  1  0  0  0
 22 23  1  0  0  0
 23 24  2  0  0  0
 23 19  1  0  0  0
 24 25  1  0  0  0
 25 26  2  0  0  0
 19 18  1  0  0  0
 18  1  1  0  0  0
  1  2  1  0  0  0
  1  5  1  0  0  0
  2  3  1  0  0  0
  2  9  1  0  0  0
  3  4  1  0  0  0
  3  7  1  0  0  0
  4  5  1  0  0  0
  5  6  2  0  0  0
  7  8  1  0  0  0
  8  9  1  0  0  0
  8 10  1  0  0  0
 10 11  2  0  0  0
 10 12  1  0  0  0
 12 13  1  0  0  0
 12 16  2  0  0  0
 13 14  1  0  0  0
 13 17  1  0  0  0
 14 15  2  0  0  0
 15 16  1  0  0  0
M  END
> <minimizedAffinity>
-9.35706

$$$$
1612


 31 34  0  0  0  0  0  0  0  0999 V2000
   53.7730   84.0175   19.5539 N   0  0  0  0  0  0  0  0  0  0  0  0
   54.1372   83.0741   18.6610 C   0  0  0  0  0  0  0  0  0  0  0  0
   53.8822   83.5858   17.4106 C   0  0  0  0  0  0  0  0  0  0  0  0
   53.3828   84.7947   17.5759 N   0  0  0  0  0  0  0  0  0  0  0  0
   53.3074   85.0849   18.8987 C   0  0  0  0  0  0  0  0  0  0  0  0
   54.1738   82.8058   16.3318 N   0  0  0  0  0  0  0  0  0  0  0  0
   54.6922   81.5800   16.4688 C   0  0  0  0  0  0  0  0  0  0  0  0
   54.9459   80.8970   15.4377 O   0  0  0  0  0  0  0  0  0  0  0  0
   54.9561   81.0442   17.6675 N   0  0  0  0  0  0  0  0  0  0  0  0
   54.6768   81.7960   18.7589 C   0  0  0  0  0  0  0  0  0  0  0  0
   54.9223   81.3013   19.8808 O   0  0  0  0  0  0  0  0  0  0  0  0
   53.9152   83.3334   14.9939 C   0  0  0  0  0  0  0  0  0  0  0  0
   55.3615   80.0837   17.7295 H   0  0  0  0  0  0  0  0  0  0  0  0
   52.8724   86.3470   19.4271 N   0  0  0  0  0  0  0  0  0  0  0  0
   53.5703   86.8705   20.6191 C   0  0  0  0  0  0  0  0  0  0  0  0
   54.1312   88.2352   20.3800 C   0  0  0  0  0  0  0  0  0  0  0  0
   53.4266   88.9126   19.3161 N   0  0  0  0  0  0  0  0  0  0  0  0
   52.0162   88.6228   19.1625 C   0  0  0  0  0  0  0  0  0  0  0  0
   51.8276   87.1412   18.8883 C   0  0  0  0  0  0  0  0  0  0  0  0
   54.0984   89.8311   18.4655 C   0  0  0  0  0  0  0  0  0  0  0  0
   55.3122   90.0787   18.6352 O   0  0  0  0  0  0  0  0  0  0  0  0
   53.3886   90.5177   17.3603 C   0  0  0  0  0  0  0  0  0  0  0  0
   54.4259   90.8353   16.2864 C   0  0  0  0  0  0  0  0  0  0  0  0
   53.9424   83.8566   20.9627 C   0  0  0  0  0  0  0  0  0  0  0  0
   51.3515   83.8071   25.4615 Cl  0  0  0  0  0  0  0  0  0  0  0  0
   51.4457   83.4643   23.7347 C   0  0  0  0  0  0  0  0  0  0  0  0
   52.6167   83.8124   23.0738 C   0  0  0  0  0  0  0  0  0  0  0  0
   52.7125   83.5595   21.7349 C   0  0  0  0  0  0  0  0  0  0  0  0
   51.6238   82.9570   21.0747 C   0  0  0  0  0  0  0  0  0  0  0  0
   50.4846   82.6250   21.7500 C   0  0  0  0  0  0  0  0  0  0  0  0
   50.3708   82.8751   23.1066 C   0  0  0  0  0  0  0  0  0  0  0  0
 25 26  1  0  0  0
 26 27  2  0  0  0
 26 31  1  0  0  0
 27 28  1  0  0  0
 28 29  2  0  0  0
 28 24  1  0  0  0
 29 30  1  0  0  0
 30 31  2  0  0  0
 24  1  1  0  0  0
  1  2  1  0  0  0
  1  5  1  0  0  0
  2  3  2  0  0  0
  2 10  1  0  0  0
  3  4  1  0  0  0
  3  6  1  0  0  0
  4  5  2  0  0  0
  5 14  1  0  0  0
 14 15  1  0  0  0
 14 19  1  0  0  0
 15 16  1  0  0  0
 16 17  1  0  0  0
 17 18  1  0  0  0
 17 20  1  0  0  0
 18 19  1  0  0  0
 20 21  2  0  0  0
 20 22  1  0  0  0
 22 23  1  0  0  0
  6  7  1  0  0  0
  6 12  1  0  0  0
  7  8  2  0  0  0
  7  9  1  0  0  0
  9 10  1  0  0  0
 10 11  2  0  0  0
  9 13  1  0  0  0
M  END
> <minimizedAffinity>
-8.60424

$$$$
1622


 28 31  0  0  0  0  0  0  0  0999 V2000
   53.4878   83.9299   21.0546 C   0  0  0  0  0  0  0  0  0  0  0  0
   54.3087   83.1677   20.4825 O   0  0  0  0  0  0  0  0  0  0  0  0
   52.2804   83.4508   21.6308 N   0  0  0  0  0  0  0  0  0  0  0  0
   51.9886   82.0360   21.5560 C   0  0  0  0  0  0  0  0  0  0  0  0
   51.0921   81.7081   22.7357 C   0  0  0  0  0  0  0  0  0  0  0  0
   51.4471   82.5231   23.9601 C   0  0  0  0  0  0  0  0  0  0  0  0
   50.6940   81.9793   25.0669 N   0  0  0  0  0  0  0  0  0  0  0  0
   51.4381   80.9093   25.6296 C   0  0  0  0  0  0  0  0  0  0  0  0
   51.0149   79.9625   26.3648 O   0  0  0  0  0  0  0  0  0  0  0  0
   52.7892   81.1042   25.2015 N   0  0  0  0  0  0  0  0  0  0  0  0
   52.8471   82.2793   24.3918 C   0  0  0  0  0  0  0  0  0  0  0  0
   53.8887   82.9384   24.1257 O   0  0  0  0  0  0  0  0  0  0  0  0
   53.9529   80.2706   25.5124 C   0  0  0  0  0  0  0  0  0  0  0  0
   51.1992   83.9888   23.7584 C   0  0  0  0  0  0  0  0  0  0  0  0
   51.3128   84.2932   22.2960 C   0  0  0  0  0  0  0  0  0  0  0  0
   49.7679   82.3285   25.3774 H   0  0  0  0  0  0  0  0  0  0  0  0
   52.5216   85.5351   18.7328 Cl  0  0  0  0  0  0  0  0  0  0  0  0
   53.4598   86.1977   20.0783 C   0  0  0  0  0  0  0  0  0  0  0  0
   53.8478   85.3506   21.0934 C   0  0  0  0  0  0  0  0  0  0  0  0
   54.5790   85.8541   22.1467 C   0  0  0  0  0  0  0  0  0  0  0  0
   54.9261   87.1875   22.1992 C   0  0  0  0  0  0  0  0  0  0  0  0
   54.5149   88.0019   21.1564 C   0  0  0  0  0  0  0  0  0  0  0  0
   53.7844   87.5388   20.0874 C   0  0  0  0  0  0  0  0  0  0  0  0
   55.6826   87.7321   23.2795 N   0  0  0  0  0  0  0  0  0  0  0  0
   55.3306   88.6545   24.1410 N   0  0  0  0  0  0  0  0  0  0  0  0
   56.3555   88.8824   25.0134 C   0  0  0  0  0  0  0  0  0  0  0  0
   57.3994   88.0521   24.6698 C   0  0  0  0  0  0  0  0  0  0  0  0
   56.9353   87.3356   23.5630 C   0  0  0  0  0  0  0  0  0  0  0  0
 17 18  1  0  0  0
 18 19  2  0  0  0
 18 23  1  0  0  0
 19 20  1  0  0  0
 19  1  1  0  0  0
 20 21  2  0  0  0
 21 22  1  0  0  0
 21 24  1  0  0  0
 22 23  2  0  0  0
 24 25  1  0  0  0
 24 28  1  0  0  0
 25 26  2  0  0  0
 26 27  1  0  0  0
 27 28  2  0  0  0
  1  2  2  0  0  0
  1  3  1  0  0  0
  3  4  1  0  0  0
  3 15  1  0  0  0
  4  5  1  0  0  0
  5  6  1  0  0  0
  6  7  1  0  0  0
  6 11  1  0  0  0
  6 14  1  0  0  0
  7  8  1  0  0  0
  8  9  2  0  0  0
  8 10  1  0  0  0
 10 11  1  0  0  0
 10 13  1  0  0  0
 11 12  2  0  0  0
 14 15  1  0  0  0
  7 16  1  0  0  0
M  END
> <minimizedAffinity>
-7.56759

$$$$
1624


 32 35  0  0  0  0  0  0  0  0999 V2000
   52.8806   84.7308   20.4979 C   0  0  0  0  0  0  0  0  0  0  0  0
   53.3307   84.7404   21.9019 N   0  0  0  0  0  0  0  0  0  0  0  0
   54.4009   85.6686   22.0186 C   0  0  0  0  0  0  0  0  0  0  0  0
   55.2601   85.7130   22.9014 O   0  0  0  0  0  0  0  0  0  0  0  0
   54.3032   86.5947   20.8734 C   0  0  0  0  0  0  0  0  0  0  0  0
   55.0663   87.5739   20.5919 O   0  0  0  0  0  0  0  0  0  0  0  0
   53.1435   86.1566   20.1141 C   0  0  0  0  0  0  0  0  0  0  0  0
   52.5074   86.9032   19.2459 C   0  0  0  0  0  0  0  0  0  0  0  0
   51.4388   86.3371   18.5572 O   0  0  0  0  0  0  0  0  0  0  0  0
   56.1588   80.7467   17.4372 Cl  0  0  0  0  0  0  0  0  0  0  0  0
   55.2088   81.9241   18.3004 C   0  0  0  0  0  0  0  0  0  0  0  0
   55.0013   83.1772   17.8043 C   0  0  0  0  0  0  0  0  0  0  0  0
   54.2373   84.0772   18.5328 C   0  0  0  0  0  0  0  0  0  0  0  0
   53.6755   83.7788   19.7327 C   0  0  0  0  0  0  0  0  0  0  0  0
   53.8900   82.4960   20.2365 C   0  0  0  0  0  0  0  0  0  0  0  0
   54.6444   81.5855   19.5324 C   0  0  0  0  0  0  0  0  0  0  0  0
   52.8119   88.2943   18.9274 C   0  0  0  0  0  0  0  0  0  0  0  0
   53.6429   88.5049   17.8330 C   0  0  0  0  0  0  0  0  0  0  0  0
   53.9501   89.7831   17.4606 C   0  0  0  0  0  0  0  0  0  0  0  0
   53.4518   90.8709   18.1512 C   0  0  0  0  0  0  0  0  0  0  0  0
   52.6281   90.6565   19.2355 C   0  0  0  0  0  0  0  0  0  0  0  0
   52.3242   89.3609   19.6016 C   0  0  0  0  0  0  0  0  0  0  0  0
   53.8698   92.4738   17.6420 Cl  0  0  0  0  0  0  0  0  0  0  0  0
   52.7022   83.9111   22.8982 C   0  0  0  0  0  0  0  0  0  0  0  0
   51.3309   84.3044   23.2966 C   0  0  0  0  0  0  0  0  0  0  0  0
   50.3907   83.2920   23.6052 N   0  0  0  0  0  0  0  0  0  0  0  0
   50.9348   82.1976   24.3810 C   0  0  0  0  0  0  0  0  0  0  0  0
   50.7378   80.8439   23.7417 C   0  0  0  0  0  0  0  0  0  0  0  0
   49.4621   80.5922   23.3078 O   0  0  0  0  0  0  0  0  0  0  0  0
   48.9076   81.6304   22.5829 C   0  0  0  0  0  0  0  0  0  0  0  0
   49.9524   82.6760   22.3350 C   0  0  0  0  0  0  0  0  0  0  0  0
   49.5147   83.6522   24.0180 H   0  0  0  0  0  0  0  0  0  0  0  0
 10 11  1  0  0  0
 11 12  2  0  0  0
 11 16  1  0  0  0
 12 13  1  0  0  0
 13 14  2  0  0  0
 14 15  1  0  0  0
 14  1  1  0  0  0
 15 16  2  0  0  0
  1  2  1  0  0  0
  1  7  1  0  0  0
  2  3  1  0  0  0
  2 24  1  0  0  0
  3  4  2  0  0  0
  3  5  1  0  0  0
  5  6  2  0  0  0
  5  7  1  0  0  0
  7  8  2  0  0  0
  8  9  1  0  0  0
  8 17  1  0  0  0
 17 18  2  0  0  0
 17 22  1  0  0  0
 18 19  1  0  0  0
 19 20  2  0  0  0
 20 21  1  0  0  0
 20 23  1  0  0  0
 21 22  2  0  0  0
 24 25  1  0  0  0
 25 26  1  0  0  0
 26 27  1  0  0  0
 26 31  1  0  0  0
 27 28  1  0  0  0
 28 29  1  0  0  0
 29 30  1  0  0  0
 30 31  1  0  0  0
 26 32  1  0  0  0
M  CHG 1   9  -1
M  CHG 1  26   1
M  END
> <minimizedAffinity>
-8.36628

$$$$
1630


 39 43  0  0  0  0  0  0  0  0999 V2000
   52.5827   82.2077   18.0388 Cl  0  0  0  0  0  0  0  0  0  0  0  0
   53.2206   83.3354   19.2451 C   0  0  0  0  0  0  0  0  0  0  0  0
   52.6947   83.3555   20.5139 C   0  0  0  0  0  0  0  0  0  0  0  0
   53.1937   84.2386   21.4624 C   0  0  0  0  0  0  0  0  0  0  0  0
   54.2092   85.1194   21.2064 C   0  0  0  0  0  0  0  0  0  0  0  0
   54.7276   85.0764   19.9027 C   0  0  0  0  0  0  0  0  0  0  0  0
   54.2401   84.2045   18.9542 C   0  0  0  0  0  0  0  0  0  0  0  0
   54.4899   85.8971   22.4021 C   0  0  0  0  0  0  0  0  0  0  0  0
   55.8586   85.6024   22.8168 N   0  0  0  0  0  0  0  0  0  0  0  0
   56.5847   86.7699   22.3974 C   0  0  0  0  0  0  0  0  0  0  0  0
   55.6584   87.8852   22.8256 C   0  0  0  0  0  0  0  0  0  0  0  0
   54.3453   87.3736   22.2741 C   0  0  0  0  0  0  0  0  0  0  0  0
   54.2725   87.9237   20.9357 C   0  0  0  0  0  0  0  0  0  0  0  0
   53.5114   87.5545   20.0143 O   0  0  0  0  0  0  0  0  0  0  0  0
   55.2193   88.9761   20.8133 N   0  0  0  0  0  0  0  0  0  0  0  0
   55.9081   89.1299   22.0555 C   0  0  0  0  0  0  0  0  0  0  0  0
   56.5991   90.0881   22.4758 O   0  0  0  0  0  0  0  0  0  0  0  0
   53.5414   85.3904   23.4222 C   0  0  0  0  0  0  0  0  0  0  0  0
   53.4208   85.7668   24.6255 O   0  0  0  0  0  0  0  0  0  0  0  0
   52.7660   84.3837   22.8111 N   0  0  0  0  0  0  0  0  0  0  0  0
   51.5869   82.4159   20.8419 C   0  0  0  0  0  0  0  0  0  0  0  0
   56.1747   84.7126   22.3759 H   0  0  0  0  0  0  0  0  0  0  0  0
   52.0003   83.8389   23.2916 H   0  0  0  0  0  0  0  0  0  0  0  0
   55.5064   89.8117   19.6626 C   0  0  0  0  0  0  0  0  0  0  0  0
   54.2859   90.4020   19.0846 C   0  0  0  0  0  0  0  0  0  0  0  0
   53.5776   91.3004   19.8537 C   0  0  0  0  0  0  0  0  0  0  0  0
   52.4288   91.8524   19.3037 C   0  0  0  0  0  0  0  0  0  0  0  0
   52.0083   91.5233   18.0460 C   0  0  0  0  0  0  0  0  0  0  0  0
   52.7429   90.6241   17.3101 C   0  0  0  0  0  0  0  0  0  0  0  0
   53.8910   90.0412   17.7996 C   0  0  0  0  0  0  0  0  0  0  0  0
   54.0212   91.6174   21.1203 O   0  0  0  0  0  0  0  0  0  0  0  0
   54.5897   92.8356   21.4854 C   0  0  0  0  0  0  0  0  0  0  0  0
   57.9328   86.8576   23.0771 C   0  0  0  0  0  0  0  0  0  0  0  0
   57.6849   86.6868   24.5612 C   0  0  0  0  0  0  0  0  0  0  0  0
   58.2080   87.8351   25.3423 C   0  0  0  0  0  0  0  0  0  0  0  0
   57.4305   88.7835   25.6472 O   0  0  0  0  0  0  0  0  0  0  0  0
   59.5799   87.8026   25.7107 N   0  0  0  0  0  0  0  0  0  0  0  0
   59.9949   86.8920   25.9699 H   0  0  0  0  0  0  0  0  0  0  0  0
   60.0991   88.7166   25.6993 H   0  0  0  0  0  0  0  0  0  0  0  0
  1  2  1  0  0  0
  2  3  2  0  0  0
  2  7  1  0  0  0
  3  4  1  0  0  0
  3 21  1  0  0  0
  4  5  2  0  0  0
  4 20  1  0  0  0
  5  6  1  0  0  0
  5  8  1  0  0  0
  6  7  2  0  0  0
  8  9  1  0  0  0
  8 12  1  0  0  0
  8 18  1  0  0  0
  9 10  1  0  0  0
 10 11  1  0  0  0
 10 33  1  0  0  0
 11 12  1  0  0  0
 11 16  1  0  0  0
 12 13  1  0  0  0
 13 14  2  0  0  0
 13 15  1  0  0  0
 15 16  1  0  0  0
 15 24  1  0  0  0
 16 17  2  0  0  0
 24 25  1  0  0  0
 25 26  2  0  0  0
 25 30  1  0  0  0
 26 27  1  0  0  0
 26 31  1  0  0  0
 27 28  2  0  0  0
 28 29  1  0  0  0
 29 30  2  0  0  0
 31 32  1  0  0  0
 33 34  1  0  0  0
 34 35  1  0  0  0
 35 36  2  0  0  0
 35 37  1  0  0  0
 18 19  2  0  0  0
 18 20  1  0  0  0
  9 22  1  0  0  0
 37 38  1  0  0  0
 37 39  1  0  0  0
 20 23  1  0  0  0
M  END
> <minimizedAffinity>
-8.64997

$$$$
1631


 29 32  0  0  0  0  0  0  0  0999 V2000
   52.8340   85.3663   20.0382 C   0  0  0  0  0  0  0  0  0  0  0  0
   53.3105   85.1642   21.3768 N   0  0  0  0  0  0  0  0  0  0  0  0
   54.3339   86.1027   21.6922 C   0  0  0  0  0  0  0  0  0  0  0  0
   55.1563   86.0493   22.6522 O   0  0  0  0  0  0  0  0  0  0  0  0
   54.2764   87.1817   20.6838 C   0  0  0  0  0  0  0  0  0  0  0  0
   55.0356   88.1763   20.6498 O   0  0  0  0  0  0  0  0  0  0  0  0
   53.1824   86.8095   19.7963 C   0  0  0  0  0  0  0  0  0  0  0  0
   52.6425   87.6252   18.9159 C   0  0  0  0  0  0  0  0  0  0  0  0
   51.6250   87.0973   18.0949 O   0  0  0  0  0  0  0  0  0  0  0  0
   55.4630   80.9464   19.0116 Cl  0  0  0  0  0  0  0  0  0  0  0  0
   54.6867   82.4320   18.5095 C   0  0  0  0  0  0  0  0  0  0  0  0
   54.0909   83.2880   19.4052 C   0  0  0  0  0  0  0  0  0  0  0  0
   53.4652   84.4719   19.0356 C   0  0  0  0  0  0  0  0  0  0  0  0
   53.4588   84.7797   17.6788 C   0  0  0  0  0  0  0  0  0  0  0  0
   54.0476   83.9403   16.7603 C   0  0  0  0  0  0  0  0  0  0  0  0
   54.6571   82.7747   17.1755 C   0  0  0  0  0  0  0  0  0  0  0  0
   52.8442   84.1753   22.2699 C   0  0  0  0  0  0  0  0  0  0  0  0
   51.5633   84.3199   22.7016 N   0  0  0  0  0  0  0  0  0  0  0  0
   51.0058   83.4528   23.5456 C   0  0  0  0  0  0  0  0  0  0  0  0
   51.7639   82.3886   23.9770 C   0  0  0  0  0  0  0  0  0  0  0  0
   53.0603   82.2614   23.5249 C   0  0  0  0  0  0  0  0  0  0  0  0
   53.6157   83.1423   22.6743 N   0  0  0  0  0  0  0  0  0  0  0  0
   50.9725   85.1325   22.3727 H   0  0  0  0  0  0  0  0  0  0  0  0
   53.0226   89.0206   18.7437 C   0  0  0  0  0  0  0  0  0  0  0  0
   53.9687   89.3638   17.7673 C   0  0  0  0  0  0  0  0  0  0  0  0
   54.3260   90.6784   17.5624 C   0  0  0  0  0  0  0  0  0  0  0  0
   53.7806   91.7129   18.2935 C   0  0  0  0  0  0  0  0  0  0  0  0
   52.8490   91.3971   19.2564 C   0  0  0  0  0  0  0  0  0  0  0  0
   52.4889   90.0647   19.4629 C   0  0  0  0  0  0  0  0  0  0  0  0
 10 11  1  0  0  0
 11 12  2  0  0  0
 11 16  1  0  0  0
 12 13  1  0  0  0
 13 14  2  0  0  0
 13  1  1  0  0  0
 14 15  1  0  0  0
 15 16  2  0  0  0
  1  2  1  0  0  0
  1  7  1  0  0  0
  2  3  1  0  0  0
  2 17  1  0  0  0
  3  4  2  0  0  0
  3  5  1  0  0  0
  5  6  2  0  0  0
  5  7  1  0  0  0
  7  8  2  0  0  0
  8  9  1  0  0  0
  8 24  1  0  0  0
 24 25  2  0  0  0
 24 29  1  0  0  0
 25 26  1  0  0  0
 26 27  2  0  0  0
 27 28  1  0  0  0
 28 29  2  0  0  0
 17 18  2  0  0  0
 17 22  1  0  0  0
 18 19  1  0  0  0
 19 20  2  0  0  0
 20 21  1  0  0  0
 21 22  2  0  0  0
 18 23  1  0  0  0
M  CHG 1   9  -1
M  END
> <minimizedAffinity>
-9.33119

$$$$
1637


 29 32  0  0  0  0  0  0  0  0999 V2000
   53.8859   85.7553   24.9107 C   0  0  0  0  0  0  0  0  0  0  0  0
   54.6130   85.5705   23.8031 N   0  0  0  0  0  0  0  0  0  0  0  0
   55.5357   86.4194   23.3604 C   0  0  0  0  0  0  0  0  0  0  0  0
   55.7424   87.5875   24.1119 C   0  0  0  0  0  0  0  0  0  0  0  0
   55.0063   87.7689   25.2285 C   0  0  0  0  0  0  0  0  0  0  0  0
   54.0825   86.8487   25.6244 N   0  0  0  0  0  0  0  0  0  0  0  0
   55.2178   88.9154   25.9797 O   0  0  0  0  0  0  0  0  0  0  0  0
   56.6639   88.5544   23.5099 C   0  0  0  0  0  0  0  0  0  0  0  0
   56.2159   88.7251   22.1622 N   0  0  0  0  0  0  0  0  0  0  0  0
   56.7919   87.4933   21.4614 C   0  0  0  0  0  0  0  0  0  0  0  0
   56.3393   86.2395   22.1226 C   0  0  0  0  0  0  0  0  0  0  0  0
   56.1396   89.3371   26.1315 H   0  0  0  0  0  0  0  0  0  0  0  0
   52.6264   84.5687   25.2987 S   0  0  0  0  0  0  0  0  0  0  0  0
   52.6335   83.4409   24.3937 O   0  0  0  0  0  0  0  0  0  0  0  0
   51.3226   85.3078   25.2659 O   0  0  0  0  0  0  0  0  0  0  0  0
   52.9305   84.0946   27.0188 C   0  0  0  0  0  0  0  0  0  0  0  0
   54.7479   88.5072   21.8963 C   0  0  0  0  0  0  0  0  0  0  0  0
   54.5895   89.4138   20.6727 C   0  0  0  0  0  0  0  0  0  0  0  0
   54.2837   89.0110   19.4316 C   0  0  0  0  0  0  0  0  0  0  0  0
   54.1437   89.8905   18.3240 C   0  0  0  0  0  0  0  0  0  0  0  0
   54.3465   91.2396   18.6290 C   0  0  0  0  0  0  0  0  0  0  0  0
   54.2253   92.1319   17.6046 C   0  0  0  0  0  0  0  0  0  0  0  0
   53.9122   91.7779   16.2735 C   0  0  0  0  0  0  0  0  0  0  0  0
   53.7115   90.4090   16.0177 C   0  0  0  0  0  0  0  0  0  0  0  0
   53.8391   89.5296   17.0556 C   0  0  0  0  0  0  0  0  0  0  0  0
   54.6293   91.6375   19.8215 O   0  0  0  0  0  0  0  0  0  0  0  0
   54.7594   90.7849   20.8496 C   0  0  0  0  0  0  0  0  0  0  0  0
   55.0544   91.1982   22.0360 O   0  0  0  0  0  0  0  0  0  0  0  0
   53.9826   87.3267   19.1683 Cl  0  0  0  0  0  0  0  0  0  0  0  0
 13 14  2  0  0  0
 13 15  2  0  0  0
 13 16  1  0  0  0
 13  1  1  0  0  0
  1  2  2  0  0  0
  1  6  1  0  0  0
  2  3  1  0  0  0
  3  4  2  0  0  0
  3 11  1  0  0  0
  4  5  1  0  0  0
  4  8  1  0  0  0
  5  6  2  0  0  0
  5  7  1  0  0  0
  8  9  1  0  0  0
  9 10  1  0  0  0
  9 17  1  0  0  0
 10 11  1  0  0  0
 17 18  1  0  0  0
 18 19  2  0  0  0
 18 27  1  0  0  0
 19 20  1  0  0  0
 19 29  1  0  0  0
 20 21  2  0  0  0
 20 25  1  0  0  0
 21 22  1  0  0  0
 21 26  1  0  0  0
 22 23  2  0  0  0
 23 24  1  0  0  0
 24 25  2  0  0  0
 26 27  1  0  0  0
 27 28  2  0  0  0
  7 12  1  0  0  0
M  END
> <minimizedAffinity>
-8.85583

$$$$
1638


 38 41  0  0  0  0  0  0  0  0999 V2000
   55.7107   86.2711   24.7586 C   0  0  0  0  0  0  0  0  0  0  0  0
   54.6997   86.9477   25.4281 C   0  0  0  0  0  0  0  0  0  0  0  0
   53.7844   86.2476   26.1511 N   0  0  0  0  0  0  0  0  0  0  0  0
   53.8090   84.9118   26.2519 C   0  0  0  0  0  0  0  0  0  0  0  0
   54.7848   84.2506   25.6053 N   0  0  0  0  0  0  0  0  0  0  0  0
   55.7119   84.8980   24.8792 C   0  0  0  0  0  0  0  0  0  0  0  0
   54.6790   88.3501   25.3198 N   0  0  0  0  0  0  0  0  0  0  0  0
   53.8726   88.8875   24.9400 H   0  0  0  0  0  0  0  0  0  0  0  0
   55.5090   88.8942   25.6332 H   0  0  0  0  0  0  0  0  0  0  0  0
   52.8514   84.1799   27.0137 N   0  0  0  0  0  0  0  0  0  0  0  0
   51.6678   84.7983   27.5596 C   0  0  0  0  0  0  0  0  0  0  0  0
   50.3814   84.1232   27.1724 C   0  0  0  0  0  0  0  0  0  0  0  0
   50.5844   82.6587   26.8206 C   0  0  0  0  0  0  0  0  0  0  0  0
   51.7236   82.2193   27.7563 C   0  0  0  0  0  0  0  0  0  0  0  0
   53.0288   82.7639   27.2806 C   0  0  0  0  0  0  0  0  0  0  0  0
   50.9562   82.4127   25.5102 N   0  0  0  0  0  0  0  0  0  0  0  0
   50.5171   83.2238   24.4424 C   0  0  0  0  0  0  0  0  0  0  0  0
   51.6371   83.2346   23.3882 C   0  0  0  0  0  0  0  0  0  0  0  0
   52.4631   81.9913   23.5779 C   0  0  0  0  0  0  0  0  0  0  0  0
   51.6228   80.7838   23.9072 C   0  0  0  0  0  0  0  0  0  0  0  0
   50.7391   81.0479   25.1151 C   0  0  0  0  0  0  0  0  0  0  0  0
   49.3862   81.9155   27.2725 C   0  0  0  0  0  0  0  0  0  0  0  0
   49.5033   80.8522   27.9704 O   0  0  0  0  0  0  0  0  0  0  0  0
   48.0769   82.3111   26.9776 N   0  0  0  0  0  0  0  0  0  0  0  0
   47.5453   81.7684   26.2433 H   0  0  0  0  0  0  0  0  0  0  0  0
   47.5498   83.0937   27.4138 H   0  0  0  0  0  0  0  0  0  0  0  0
   56.9132   87.1288   23.8174 S   0  0  0  0  0  0  0  0  0  0  0  0
   57.6920   88.0886   24.6566 O   0  0  0  0  0  0  0  0  0  0  0  0
   57.8020   86.0964   23.1715 O   0  0  0  0  0  0  0  0  0  0  0  0
   56.0679   87.9918   22.5237 C   0  0  0  0  0  0  0  0  0  0  0  0
   55.2938   87.2939   21.6192 C   0  0  0  0  0  0  0  0  0  0  0  0
   54.6531   88.0072   20.6281 C   0  0  0  0  0  0  0  0  0  0  0  0
   54.7738   89.3895   20.5290 C   0  0  0  0  0  0  0  0  0  0  0  0
   55.5556   90.0504   21.4516 C   0  0  0  0  0  0  0  0  0  0  0  0
   56.2095   89.3647   22.4549 C   0  0  0  0  0  0  0  0  0  0  0  0
   55.7206   91.8082   21.3409 Cl  0  0  0  0  0  0  0  0  0  0  0  0
   55.1994   85.9360   21.7474 O   0  0  0  0  0  0  0  0  0  0  0  0
   54.2287   85.1286   21.1421 C   0  0  0  0  0  0  0  0  0  0  0  0
 27 28  2  0  0  0
 27 29  2  0  0  0
 27  1  1  0  0  0
 27 30  1  0  0  0
  1  2  2  0  0  0
  1  6  1  0  0  0
  2  3  1  0  0  0
  2  7  1  0  0  0
  3  4  2  0  0  0
  4  5  1  0  0  0
  4 10  1  0  0  0
  5  6  2  0  0  0
 10 11  1  0  0  0
 10 15  1  0  0  0
 11 12  1  0  0  0
 12 13  1  0  0  0
 13 14  1  0  0  0
 13 16  1  0  0  0
 13 22  1  0  0  0
 14 15  1  0  0  0
 16 17  1  0  0  0
 16 21  1  0  0  0
 17 18  1  0  0  0
 18 19  1  0  0  0
 19 20  1  0  0  0
 20 21  1  0  0  0
 22 23  2  0  0  0
 22 24  1  0  0  0
 30 31  2  0  0  0
 30 35  1  0  0  0
 31 32  1  0  0  0
 31 37  1  0  0  0
 32 33  2  0  0  0
 33 34  1  0  0  0
 34 35  2  0  0  0
 34 36  1  0  0  0
 37 38  1  0  0  0
 24 25  1  0  0  0
 24 26  1  0  0  0
  7  8  1  0  0  0
  7  9  1  0  0  0
M  END
> <minimizedAffinity>
-7.71037

$$$$
1651


 23 26  0  0  0  0  0  0  0  0999 V2000
   57.1516   86.4272   22.1680 Cl  0  0  0  0  0  0  0  0  0  0  0  0
   56.3711   87.9936   21.9321 C   0  0  0  0  0  0  0  0  0  0  0  0
   55.7932   88.3392   20.7352 C   0  0  0  0  0  0  0  0  0  0  0  0
   55.1789   89.5906   20.5726 C   0  0  0  0  0  0  0  0  0  0  0  0
   55.1347   90.5002   21.5907 C   0  0  0  0  0  0  0  0  0  0  0  0
   55.7244   90.1537   22.8201 C   0  0  0  0  0  0  0  0  0  0  0  0
   56.3173   88.9214   22.9448 C   0  0  0  0  0  0  0  0  0  0  0  0
   54.4691   91.6948   21.2140 N   0  0  0  0  0  0  0  0  0  0  0  0
   54.0689   91.5220   19.8658 C   0  0  0  0  0  0  0  0  0  0  0  0
   53.4432   92.3976   19.1994 O   0  0  0  0  0  0  0  0  0  0  0  0
   54.4968   90.1854   19.3975 C   0  0  0  0  0  0  0  0  0  0  0  0
   55.4611   90.4126   18.2525 C   0  0  0  0  0  0  0  0  0  0  0  0
   54.6103   90.9060   17.1175 C   0  0  0  0  0  0  0  0  0  0  0  0
   54.8404   91.9627   16.5015 O   0  0  0  0  0  0  0  0  0  0  0  0
   53.4901   90.0852   16.7654 N   0  0  0  0  0  0  0  0  0  0  0  0
   52.8662   89.2881   17.7635 C   0  0  0  0  0  0  0  0  0  0  0  0
   51.8166   88.4228   17.7357 N   0  0  0  0  0  0  0  0  0  0  0  0
   51.6525   87.9394   18.9430 N   0  0  0  0  0  0  0  0  0  0  0  0
   52.5575   88.4483   19.7936 C   0  0  0  0  0  0  0  0  0  0  0  0
   53.3526   89.3257   19.0456 C   0  0  0  0  0  0  0  0  0  0  0  0
   54.2504   92.8667   22.0677 C   0  0  0  0  0  0  0  0  0  0  0  0
   53.1248   90.0626   15.7880 H   0  0  0  0  0  0  0  0  0  0  0  0
   51.2709   88.2178   16.8667 H   0  0  0  0  0  0  0  0  0  0  0  0
  1  2  1  0  0  0
  2  3  2  0  0  0
  2  7  1  0  0  0
  3  4  1  0  0  0
  4  5  2  0  0  0
  4 11  1  0  0  0
  5  6  1  0  0  0
  5  8  1  0  0  0
  6  7  2  0  0  0
  8  9  1  0  0  0
  8 21  1  0  0  0
  9 10  2  0  0  0
  9 11  1  0  0  0
 11 12  1  0  0  0
 11 20  1  0  0  0
 12 13  1  0  0  0
 13 14  2  0  0  0
 13 15  1  0  0  0
 15 16  1  0  0  0
 16 17  1  0  0  0
 16 20  2  0  0  0
 17 18  1  0  0  0
 18 19  2  0  0  0
 19 20  1  0  0  0
 15 22  1  0  0  0
 17 23  1  0  0  0
M  END
> <minimizedAffinity>
-8.26654

$$$$
1657


 33 36  0  0  0  0  0  0  0  0999 V2000
   52.1302   81.0174   23.6801 Cl  0  0  0  0  0  0  0  0  0  0  0  0
   52.7657   82.6675   23.6745 C   0  0  0  0  0  0  0  0  0  0  0  0
   52.9347   83.3495   24.8601 C   0  0  0  0  0  0  0  0  0  0  0  0
   53.4248   84.6150   24.8521 C   0  0  0  0  0  0  0  0  0  0  0  0
   53.7604   85.2383   23.6426 C   0  0  0  0  0  0  0  0  0  0  0  0
   53.5831   84.5394   22.4727 C   0  0  0  0  0  0  0  0  0  0  0  0
   53.0837   83.2435   22.4629 C   0  0  0  0  0  0  0  0  0  0  0  0
   54.2760   86.5653   23.6263 N   0  0  0  0  0  0  0  0  0  0  0  0
   54.9819   87.0605   24.7984 C   0  0  0  0  0  0  0  0  0  0  0  0
   54.1565   86.7356   25.9382 N   0  0  0  0  0  0  0  0  0  0  0  0
   53.6396   85.4198   26.0524 C   0  0  0  0  0  0  0  0  0  0  0  0
   53.3475   84.8895   27.1553 O   0  0  0  0  0  0  0  0  0  0  0  0
   55.1287   88.5399   24.6724 C   0  0  0  0  0  0  0  0  0  0  0  0
   56.3589   88.9575   23.9000 C   0  0  0  0  0  0  0  0  0  0  0  0
   56.5003   88.2182   22.6629 N   0  0  0  0  0  0  0  0  0  0  0  0
   56.6582   86.7784   22.6172 C   0  0  0  0  0  0  0  0  0  0  0  0
   56.6250   86.2750   21.4709 O   0  0  0  0  0  0  0  0  0  0  0  0
   56.8508   85.8113   23.7102 C   0  0  0  0  0  0  0  0  0  0  0  0
   56.2919   86.3265   25.0026 C   0  0  0  0  0  0  0  0  0  0  0  0
   54.1187   87.1235   22.7615 H   0  0  0  0  0  0  0  0  0  0  0  0
   53.9203   87.4193   26.6839 H   0  0  0  0  0  0  0  0  0  0  0  0
   56.4676   88.8715   21.4183 C   0  0  0  0  0  0  0  0  0  0  0  0
   55.6413   90.0323   21.1763 C   0  0  0  0  0  0  0  0  0  0  0  0
   56.2696   91.1518   21.5376 O   0  0  0  0  0  0  0  0  0  0  0  0
   54.3731   90.1480   20.6534 N   0  0  0  0  0  0  0  0  0  0  0  0
   53.7787   91.5041   20.5289 C   0  0  0  0  0  0  0  0  0  0  0  0
   53.1644   91.5129   19.1201 C   0  0  0  0  0  0  0  0  0  0  0  0
   53.7639   90.5271   18.2847 N   0  0  0  0  0  0  0  0  0  0  0  0
   53.4907   89.1641   18.6309 C   0  0  0  0  0  0  0  0  0  0  0  0
   53.5412   89.1108   20.1842 C   0  0  0  0  0  0  0  0  0  0  0  0
   53.7589   90.8007   16.8879 C   0  0  0  0  0  0  0  0  0  0  0  0
   54.2793   92.1787   16.5339 C   0  0  0  0  0  0  0  0  0  0  0  0
   54.4912   89.7721   16.0700 C   0  0  0  0  0  0  0  0  0  0  0  0
  1  2  1  0  0  0
  2  3  2  0  0  0
  2  7  1  0  0  0
  3  4  1  0  0  0
  4  5  2  0  0  0
  4 11  1  0  0  0
  5  6  1  0  0  0
  5  8  1  0  0  0
  6  7  2  0  0  0
  8  9  1  0  0  0
  9 10  1  0  0  0
  9 13  1  0  0  0
  9 19  1  0  0  0
 10 11  1  0  0  0
 11 12  2  0  0  0
 13 14  1  0  0  0
 14 15  1  0  0  0
 15 16  1  0  0  0
 15 22  1  0  0  0
 16 17  2  0  0  0
 16 18  1  0  0  0
 18 19  1  0  0  0
 22 23  1  0  0  0
 23 24  2  0  0  0
 23 25  1  0  0  0
 25 26  1  0  0  0
 25 30  1  0  0  0
 26 27  1  0  0  0
 27 28  1  0  0  0
 28 29  1  0  0  0
 28 31  1  0  0  0
 29 30  1  0  0  0
 31 32  1  0  0  0
 31 33  1  0  0  0
  8 20  1  0  0  0
 10 21  1  0  0  0
M  END
> <minimizedAffinity>
-8.46933

$$$$
1660


 31 34  0  0  0  0  0  0  0  0999 V2000
   55.2719   88.8703   22.1721 N   0  0  0  0  0  0  0  0  0  0  0  0
   55.7355   89.6167   23.1378 N   0  0  0  0  0  0  0  0  0  0  0  0
   55.7631   88.9796   24.3133 C   0  0  0  0  0  0  0  0  0  0  0  0
   55.2711   87.7015   24.0857 C   0  0  0  0  0  0  0  0  0  0  0  0
   54.9734   87.6734   22.7270 C   0  0  0  0  0  0  0  0  0  0  0  0
   54.4706   86.5293   22.2554 N   0  0  0  0  0  0  0  0  0  0  0  0
   54.2652   85.4607   23.0562 C   0  0  0  0  0  0  0  0  0  0  0  0
   54.5423   85.4579   24.3696 N   0  0  0  0  0  0  0  0  0  0  0  0
   55.0548   86.6046   24.8866 C   0  0  0  0  0  0  0  0  0  0  0  0
   55.3286   86.6497   26.1120 O   0  0  0  0  0  0  0  0  0  0  0  0
   54.2739   90.2342   16.4406 Cl  0  0  0  0  0  0  0  0  0  0  0  0
   54.6219   89.8630   18.0986 C   0  0  0  0  0  0  0  0  0  0  0  0
   55.7153   90.3444   18.7820 C   0  0  0  0  0  0  0  0  0  0  0  0
   55.9725   90.0399   20.1045 C   0  0  0  0  0  0  0  0  0  0  0  0
   55.1242   89.2232   20.8061 C   0  0  0  0  0  0  0  0  0  0  0  0
   54.0286   88.7448   20.1073 C   0  0  0  0  0  0  0  0  0  0  0  0
   53.7545   89.0367   18.7889 C   0  0  0  0  0  0  0  0  0  0  0  0
   54.3349   84.2964   25.2400 C   0  0  0  0  0  0  0  0  0  0  0  0
   52.9074   84.0647   25.5230 C   0  0  0  0  0  0  0  0  0  0  0  0
   52.1331   84.2059   24.5117 O   0  0  0  0  0  0  0  0  0  0  0  0
   52.3391   83.7158   26.7457 N   0  0  0  0  0  0  0  0  0  0  0  0
   50.8818   83.5779   26.8939 C   0  0  0  0  0  0  0  0  0  0  0  0
   50.4954   84.7020   27.8643 C   0  0  0  0  0  0  0  0  0  0  0  0
   51.3077   84.6405   29.0507 N   0  0  0  0  0  0  0  0  0  0  0  0
   52.2524   83.5444   29.1585 C   0  0  0  0  0  0  0  0  0  0  0  0
   53.1197   83.4380   27.9308 C   0  0  0  0  0  0  0  0  0  0  0  0
   51.2101   85.6215   30.0616 C   0  0  0  0  0  0  0  0  0  0  0  0
   50.3901   86.5939   29.8662 O   0  0  0  0  0  0  0  0  0  0  0  0
   51.9090   85.6411   31.2474 O   0  0  0  0  0  0  0  0  0  0  0  0
   51.2370   85.4290   32.5038 C   0  0  0  0  0  0  0  0  0  0  0  0
   51.3263   83.9397   32.7850 C   0  0  0  0  0  0  0  0  0  0  0  0
 11 12  1  0  0  0
 12 13  2  0  0  0
 12 17  1  0  0  0
 13 14  1  0  0  0
 14 15  2  0  0  0
 15 16  1  0  0  0
 15  1  1  0  0  0
 16 17  2  0  0  0
  1  2  1  0  0  0
  1  5  1  0  0  0
  2  3  2  0  0  0
  3  4  1  0  0  0
  4  5  2  0  0  0
  4  9  1  0  0  0
  5  6  1  0  0  0
  6  7  2  0  0  0
  7  8  1  0  0  0
  8  9  1  0  0  0
  8 18  1  0  0  0
  9 10  2  0  0  0
 18 19  1  0  0  0
 19 20  2  0  0  0
 19 21  1  0  0  0
 21 22  1  0  0  0
 21 26  1  0  0  0
 22 23  1  0  0  0
 23 24  1  0  0  0
 24 25  1  0  0  0
 24 27  1  0  0  0
 25 26  1  0  0  0
 27 28  2  0  0  0
 27 29  1  0  0  0
 29 30  1  0  0  0
 30 31  1  0  0  0
M  END
> <minimizedAffinity>
-8.62243

$$$$
1666


 30 34  0  0  0  0  0  0  0  0999 V2000
   56.3973   87.4922   23.5995 N   0  0  0  0  0  0  0  0  0  0  0  0
   55.2133   88.0803   24.1685 C   0  0  0  0  0  0  0  0  0  0  0  0
   54.8744   87.4672   25.5078 C   0  0  0  0  0  0  0  0  0  0  0  0
   54.7681   85.9921   25.3783 N   0  0  0  0  0  0  0  0  0  0  0  0
   56.0851   85.4896   25.0140 C   0  0  0  0  0  0  0  0  0  0  0  0
   57.0180   86.5745   24.5048 C   0  0  0  0  0  0  0  0  0  0  0  0
   56.3232   87.0640   21.9775 S   0  0  0  0  0  0  0  0  0  0  0  0
   57.7080   86.5903   21.5547 O   0  0  0  0  0  0  0  0  0  0  0  0
   55.4601   85.8062   21.8698 O   0  0  0  0  0  0  0  0  0  0  0  0
   55.6792   88.2193   20.8822 C   0  0  0  0  0  0  0  0  0  0  0  0
   54.3979   88.0964   20.4023 C   0  0  0  0  0  0  0  0  0  0  0  0
   53.9094   89.0521   19.5294 C   0  0  0  0  0  0  0  0  0  0  0  0
   54.6635   90.1348   19.1153 C   0  0  0  0  0  0  0  0  0  0  0  0
   55.9491   90.2542   19.6000 C   0  0  0  0  0  0  0  0  0  0  0  0
   56.4392   89.2933   20.4773 C   0  0  0  0  0  0  0  0  0  0  0  0
   53.9926   91.4517   17.9108 Br  0  0  0  0  0  0  0  0  0  0  0  0
   54.4365   85.5535   26.7169 C   0  0  0  0  0  0  0  0  0  0  0  0
   53.5232   84.4116   26.8603 C   0  0  0  0  0  0  0  0  0  0  0  0
   52.8916   83.8607   25.7096 N   0  0  0  0  0  0  0  0  0  0  0  0
   53.2338   82.7329   24.9122 C   0  0  0  0  0  0  0  0  0  0  0  0
   54.3735   82.2607   24.7898 O   0  0  0  0  0  0  0  0  0  0  0  0
   52.0065   82.2214   24.2560 C   0  0  0  0  0  0  0  0  0  0  0  0
   51.1942   83.5303   24.1269 C   0  0  0  0  0  0  0  0  0  0  0  0
   51.4050   83.9940   22.7349 C   0  0  0  0  0  0  0  0  0  0  0  0
   52.7388   83.3218   22.3678 C   0  0  0  0  0  0  0  0  0  0  0  0
   52.2727   81.9277   22.8231 C   0  0  0  0  0  0  0  0  0  0  0  0
   50.9390   81.8907   22.1348 C   0  0  0  0  0  0  0  0  0  0  0  0
   50.5231   83.1272   21.8605 C   0  0  0  0  0  0  0  0  0  0  0  0
   51.6652   84.4144   25.1834 C   0  0  0  0  0  0  0  0  0  0  0  0
   51.0825   85.4664   25.5474 O   0  0  0  0  0  0  0  0  0  0  0  0
  7  8  2  0  0  0
  7  9  2  0  0  0
  7  1  1  0  0  0
  7 10  1  0  0  0
  1  2  1  0  0  0
  1  6  1  0  0  0
  2  3  1  0  0  0
  3  4  1  0  0  0
  4  5  1  0  0  0
  4 17  1  0  0  0
  5  6  1  0  0  0
 17 18  1  0  0  0
 18 19  1  0  0  0
 19 20  1  0  0  0
 19 29  1  0  0  0
 20 21  2  0  0  0
 20 22  1  0  0  0
 22 23  1  0  0  0
 22 26  1  0  0  0
 23 24  1  0  0  0
 23 29  1  0  0  0
 24 25  1  0  0  0
 24 28  1  0  0  0
 25 26  1  0  0  0
 26 27  1  0  0  0
 27 28  2  0  0  0
 29 30  2  0  0  0
 10 11  2  0  0  0
 10 15  1  0  0  0
 11 12  1  0  0  0
 12 13  2  0  0  0
 13 14  1  0  0  0
 13 16  1  0  0  0
 14 15  2  0  0  0
M  END
> <minimizedAffinity>
-8.95878

$$$$
1673


 35 38  0  0  0  0  0  0  0  0999 V2000
   52.8996   84.1079   19.8583 C   0  0  0  0  0  0  0  0  0  0  0  0
   53.1096   85.4143   20.5755 C   0  0  0  0  0  0  0  0  0  0  0  0
   54.0365   85.1799   21.5909 N   0  0  0  0  0  0  0  0  0  0  0  0
   53.6097   83.8500   22.0894 C   0  0  0  0  0  0  0  0  0  0  0  0
   53.6818   83.4235   23.2734 O   0  0  0  0  0  0  0  0  0  0  0  0
   53.0899   83.1204   20.9441 C   0  0  0  0  0  0  0  0  0  0  0  0
   52.8527   81.8796   20.9085 O   0  0  0  0  0  0  0  0  0  0  0  0
   53.0016   86.6018   19.7660 C   0  0  0  0  0  0  0  0  0  0  0  0
   53.9522   87.5652   19.6404 C   0  0  0  0  0  0  0  0  0  0  0  0
   53.7581   88.6639   18.8178 C   0  0  0  0  0  0  0  0  0  0  0  0
   52.5552   88.7802   18.1049 C   0  0  0  0  0  0  0  0  0  0  0  0
   51.6014   87.8115   18.2324 C   0  0  0  0  0  0  0  0  0  0  0  0
   51.7937   86.7333   19.0386 C   0  0  0  0  0  0  0  0  0  0  0  0
   52.3109   89.8546   17.2728 O   0  0  0  0  0  0  0  0  0  0  0  0
   54.6893   89.6410   18.6694 O   0  0  0  0  0  0  0  0  0  0  0  0
   55.1646   90.4346   19.7079 C   0  0  0  0  0  0  0  0  0  0  0  0
   56.6030   90.1388   20.0935 C   0  0  0  0  0  0  0  0  0  0  0  0
   53.8196   83.8590   18.7484 C   0  0  0  0  0  0  0  0  0  0  0  0
   55.0521   84.1819   18.8679 O   0  0  0  0  0  0  0  0  0  0  0  0
   52.5045   81.3576   13.2457 Br  0  0  0  0  0  0  0  0  0  0  0  0
   52.9071   82.1444   14.9589 C   0  0  0  0  0  0  0  0  0  0  0  0
   52.4811   81.5652   16.1260 C   0  0  0  0  0  0  0  0  0  0  0  0
   52.7434   82.0910   17.3868 C   0  0  0  0  0  0  0  0  0  0  0  0
   53.4716   83.2561   17.4696 C   0  0  0  0  0  0  0  0  0  0  0  0
   53.8969   83.8323   16.2824 C   0  0  0  0  0  0  0  0  0  0  0  0
   53.6365   83.3121   15.0364 C   0  0  0  0  0  0  0  0  0  0  0  0
   55.0885   85.8142   22.3220 C   0  0  0  0  0  0  0  0  0  0  0  0
   54.7018   86.8501   23.3083 C   0  0  0  0  0  0  0  0  0  0  0  0
   55.0960   86.7937   24.6514 N   0  0  0  0  0  0  0  0  0  0  0  0
   56.4852   86.3483   24.8217 C   0  0  0  0  0  0  0  0  0  0  0  0
   57.4720   87.2904   24.2182 C   0  0  0  0  0  0  0  0  0  0  0  0
   56.8319   88.4402   23.8155 O   0  0  0  0  0  0  0  0  0  0  0  0
   56.1530   88.9640   24.9281 C   0  0  0  0  0  0  0  0  0  0  0  0
   54.9423   88.1221   25.2713 C   0  0  0  0  0  0  0  0  0  0  0  0
   54.5226   86.1620   25.2049 H   0  0  0  0  0  0  0  0  0  0  0  0
 20 21  1  0  0  0
 21 22  2  0  0  0
 21 26  1  0  0  0
 22 23  1  0  0  0
 23 24  2  0  0  0
 24 25  1  0  0  0
 24 18  1  0  0  0
 25 26  2  0  0  0
 18 19  2  0  0  0
 18  1  1  0  0  0
  1  2  1  0  0  0
  1  6  1  0  0  0
  2  3  1  0  0  0
  2  8  1  0  0  0
  3  4  1  0  0  0
  3 27  1  0  0  0
  4  5  2  0  0  0
  4  6  1  0  0  0
  6  7  2  0  0  0
 27 28  1  0  0  0
 28 29  1  0  0  0
 29 30  1  0  0  0
 29 34  1  0  0  0
 30 31  1  0  0  0
 31 32  1  0  0  0
 32 33  1  0  0  0
 33 34  1  0  0  0
  8  9  2  0  0  0
  8 13  1  0  0  0
  9 10  1  0  0  0
 10 11  2  0  0  0
 10 15  1  0  0  0
 11 12  1  0  0  0
 11 14  1  0  0  0
 12 13  2  0  0  0
 15 16  1  0  0  0
 16 17  1  0  0  0
 29 35  1  0  0  0
M  CHG 1  14  -1
M  CHG 1  29   1
M  END
> <minimizedAffinity>
-8.48319

$$$$
1676


 25 28  0  0  0  0  0  0  0  0999 V2000
   47.9460  102.1407   29.8527 C   0  0  0  0  0  0  0  0  0  0  0  0
   47.0880  101.2412   29.7679 O   0  0  0  0  0  0  0  0  0  0  0  0
   48.8358  102.3412   28.7673 N   0  0  0  0  0  0  0  0  0  0  0  0
   49.5522  103.0832   28.8244 H   0  0  0  0  0  0  0  0  0  0  0  0
   50.8605  104.9194   33.3349 Br  0  0  0  0  0  0  0  0  0  0  0  0
   49.2118  104.2097   32.6770 C   0  0  0  0  0  0  0  0  0  0  0  0
   48.0299  104.4485   33.3448 C   0  0  0  0  0  0  0  0  0  0  0  0
   46.8330  103.9475   32.8881 C   0  0  0  0  0  0  0  0  0  0  0  0
   45.5521  104.0179   33.3238 N   0  0  0  0  0  0  0  0  0  0  0  0
   44.8067  103.3346   32.4746 N   0  0  0  0  0  0  0  0  0  0  0  0
   45.5229  102.8231   31.5124 N   0  0  0  0  0  0  0  0  0  0  0  0
   46.8123  103.1907   31.7422 C   0  0  0  0  0  0  0  0  0  0  0  0
   47.9959  102.9466   31.0676 C   0  0  0  0  0  0  0  0  0  0  0  0
   49.1993  103.4555   31.5329 C   0  0  0  0  0  0  0  0  0  0  0  0
   45.2637  102.2400   30.6904 H   0  0  0  0  0  0  0  0  0  0  0  0
   48.7635  101.5281   27.5782 C   0  0  0  0  0  0  0  0  0  0  0  0
   50.1200  100.9353   27.3102 C   0  0  0  0  0  0  0  0  0  0  0  0
   50.6282   99.8082   27.8336 N   0  0  0  0  0  0  0  0  0  0  0  0
   51.8748   99.5846   27.3654 C   0  0  0  0  0  0  0  0  0  0  0  0
   52.1424  100.5980   26.5326 N   0  0  0  0  0  0  0  0  0  0  0  0
   51.0809  101.4181   26.4980 N   0  0  0  0  0  0  0  0  0  0  0  0
   52.5593   98.3613   27.8667 C   0  0  0  0  0  0  0  0  0  0  0  0
   51.5797   97.2172   27.5674 C   0  0  0  0  0  0  0  0  0  0  0  0
   50.2200   97.4628   28.1346 C   0  0  0  0  0  0  0  0  0  0  0  0
   50.1075   98.8335   28.7661 C   0  0  0  0  0  0  0  0  0  0  0  0
  5  6  1  0  0  0
  6  7  2  0  0  0
  6 14  1  0  0  0
  7  8  1  0  0  0
  8  9  1  0  0  0
  8 12  2  0  0  0
  9 10  2  0  0  0
 10 11  1  0  0  0
 11 12  1  0  0  0
 12 13  1  0  0  0
 13 14  2  0  0  0
 13  1  1  0  0  0
  1  2  2  0  0  0
  1  3  1  0  0  0
  3 16  1  0  0  0
 16 17  1  0  0  0
 17 18  1  0  0  0
 17 21  2  0  0  0
 18 19  1  0  0  0
 18 25  1  0  0  0
 19 20  2  0  0  0
 19 22  1  0  0  0
 20 21  1  0  0  0
 22 23  1  0  0  0
 23 24  1  0  0  0
 24 25  1  0  0  0
 11 15  1  0  0  0
  3  4  1  0  0  0
M  END
> <minimizedAffinity>
-8.55759

$$$$
1687


 27 30  0  0  0  0  0  0  0  0999 V2000
   51.8953   98.8913   27.9437 N   0  0  0  0  0  0  0  0  0  0  0  0
   51.0508   97.8496   27.7709 C   0  0  0  0  0  0  0  0  0  0  0  0
   49.7494   97.8782   28.2214 C   0  0  0  0  0  0  0  0  0  0  0  0
   49.2526   99.0642   28.9082 C   0  0  0  0  0  0  0  0  0  0  0  0
   47.9757   98.8072   29.2252 N   0  0  0  0  0  0  0  0  0  0  0  0
   47.6286   97.5809   28.8042 N   0  0  0  0  0  0  0  0  0  0  0  0
   48.6807   97.0083   28.1988 C   0  0  0  0  0  0  0  0  0  0  0  0
   48.6646   95.8596   27.7012 O   0  0  0  0  0  0  0  0  0  0  0  0
   50.1443  100.1117   29.0683 C   0  0  0  0  0  0  0  0  0  0  0  0
   51.4130   99.9694   28.5782 C   0  0  0  0  0  0  0  0  0  0  0  0
   46.6660   97.1859   28.9549 H   0  0  0  0  0  0  0  0  0  0  0  0
   49.6830  101.3154   29.7508 C   0  0  0  0  0  0  0  0  0  0  0  0
   50.1606  101.5988   30.8786 O   0  0  0  0  0  0  0  0  0  0  0  0
   48.7435  102.1432   29.1960 O   0  0  0  0  0  0  0  0  0  0  0  0
   47.5079  102.4042   29.8420 C   0  0  0  0  0  0  0  0  0  0  0  0
   53.2677   98.8269   27.4536 C   0  0  0  0  0  0  0  0  0  0  0  0
   53.9021   97.5707   28.0092 C   0  0  0  0  0  0  0  0  0  0  0  0
   54.9721   92.8509   22.9301 Cl  0  0  0  0  0  0  0  0  0  0  0  0
   54.9125   94.0901   24.1831 C   0  0  0  0  0  0  0  0  0  0  0  0
   56.0179   94.8407   24.5236 C   0  0  0  0  0  0  0  0  0  0  0  0
   55.9131   95.7979   25.5129 C   0  0  0  0  0  0  0  0  0  0  0  0
   56.7995   96.6742   26.0592 N   0  0  0  0  0  0  0  0  0  0  0  0
   56.1736   97.3962   27.0051 C   0  0  0  0  0  0  0  0  0  0  0  0
   54.8818   97.0161   27.0997 N   0  0  0  0  0  0  0  0  0  0  0  0
   54.7323   96.0408   26.1857 C   0  0  0  0  0  0  0  0  0  0  0  0
   53.6238   95.2978   25.8527 C   0  0  0  0  0  0  0  0  0  0  0  0
   53.7365   94.3424   24.8631 C   0  0  0  0  0  0  0  0  0  0  0  0
 18 19  1  0  0  0
 19 20  2  0  0  0
 19 27  1  0  0  0
 20 21  1  0  0  0
 21 22  1  0  0  0
 21 25  2  0  0  0
 22 23  2  0  0  0
 23 24  1  0  0  0
 24 25  1  0  0  0
 24 17  1  0  0  0
 25 26  1  0  0  0
 26 27  2  0  0  0
 17 16  1  0  0  0
 16  1  1  0  0  0
  1  2  1  0  0  0
  1 10  1  0  0  0
  2  3  2  0  0  0
  3  4  1  0  0  0
  3  7  1  0  0  0
  4  5  2  0  0  0
  4  9  1  0  0  0
  5  6  1  0  0  0
  6  7  1  0  0  0
  7  8  2  0  0  0
  9 10  2  0  0  0
  9 12  1  0  0  0
 12 13  2  0  0  0
 12 14  1  0  0  0
 14 15  1  0  0  0
  6 11  1  0  0  0
M  END
> <minimizedAffinity>
-8.42344

$$$$
1689


 32 35  0  0  0  0  0  0  0  0999 V2000
   54.2690   92.0514   20.8118 C   0  0  0  0  0  0  0  0  0  0  0  0
   53.0532   92.2678   20.5860 O   0  0  0  0  0  0  0  0  0  0  0  0
   54.8396   90.8563   20.3253 N   0  0  0  0  0  0  0  0  0  0  0  0
   56.1877   90.3386   20.4368 C   0  0  0  0  0  0  0  0  0  0  0  0
   55.9853   88.9078   20.6654 C   0  0  0  0  0  0  0  0  0  0  0  0
   54.5110   88.6085   20.3848 C   0  0  0  0  0  0  0  0  0  0  0  0
   54.1307   89.8600   19.5656 C   0  0  0  0  0  0  0  0  0  0  0  0
   54.3230   87.4656   19.6487 O   0  0  0  0  0  0  0  0  0  0  0  0
   54.3284   87.7110   18.6896 H   0  0  0  0  0  0  0  0  0  0  0  0
   56.4240   88.2772   21.8489 N   0  0  0  0  0  0  0  0  0  0  0  0
   56.1109   88.8738   23.0309 C   0  0  0  0  0  0  0  0  0  0  0  0
   56.4904   88.3358   24.2400 C   0  0  0  0  0  0  0  0  0  0  0  0
   57.2061   87.1623   24.2821 C   0  0  0  0  0  0  0  0  0  0  0  0
   57.5681   86.6451   25.3814 O   0  0  0  0  0  0  0  0  0  0  0  0
   57.5145   86.5736   23.1164 N   0  0  0  0  0  0  0  0  0  0  0  0
   57.1191   87.1423   21.9749 C   0  0  0  0  0  0  0  0  0  0  0  0
   57.4314   86.5505   20.9218 O   0  0  0  0  0  0  0  0  0  0  0  0
   56.1368   89.0050   25.5347 C   0  0  0  0  0  0  0  0  0  0  0  0
   58.0709   85.6636   23.1206 H   0  0  0  0  0  0  0  0  0  0  0  0
   55.0303   93.0614   21.5759 C   0  0  0  0  0  0  0  0  0  0  0  0
   55.3310   92.5574   22.9547 C   0  0  0  0  0  0  0  0  0  0  0  0
   52.8995   97.5027   28.2835 Cl  0  0  0  0  0  0  0  0  0  0  0  0
   53.9266   96.6710   27.1407 C   0  0  0  0  0  0  0  0  0  0  0  0
   53.4276   95.6024   26.4078 C   0  0  0  0  0  0  0  0  0  0  0  0
   54.2275   94.9340   25.4964 C   0  0  0  0  0  0  0  0  0  0  0  0
   54.0471   93.8971   24.6637 N   0  0  0  0  0  0  0  0  0  0  0  0
   55.1820   93.6237   23.9631 C   0  0  0  0  0  0  0  0  0  0  0  0
   56.0816   94.5440   24.4019 N   0  0  0  0  0  0  0  0  0  0  0  0
   55.5284   95.3414   25.3245 C   0  0  0  0  0  0  0  0  0  0  0  0
   56.0182   96.4029   26.0549 C   0  0  0  0  0  0  0  0  0  0  0  0
   55.2303   97.0838   26.9717 C   0  0  0  0  0  0  0  0  0  0  0  0
   53.1254   93.3975   24.6026 H   0  0  0  0  0  0  0  0  0  0  0  0
 22 23  1  0  0  0
 23 24  2  0  0  0
 23 31  1  0  0  0
 24 25  1  0  0  0
 25 26  1  0  0  0
 25 29  2  0  0  0
 26 27  1  0  0  0
 27 28  2  0  0  0
 27 21  1  0  0  0
 28 29  1  0  0  0
 29 30  1  0  0  0
 30 31  2  0  0  0
 21 20  1  0  0  0
 20  1  1  0  0  0
  1  2  2  0  0  0
  1  3  1  0  0  0
  3  4  1  0  0  0
  3  7  1  0  0  0
  4  5  1  0  0  0
  5  6  1  0  0  0
  5 10  1  0  0  0
  6  7  1  0  0  0
  6  8  1  0  0  0
 10 11  1  0  0  0
 10 16  1  0  0  0
 11 12  2  0  0  0
 12 13  1  0  0  0
 12 18  1  0  0  0
 13 14  2  0  0  0
 13 15  1  0  0  0
 15 16  1  0  0  0
 16 17  2  0  0  0
 26 32  1  0  0  0
  8  9  1  0  0  0
 15 19  1  0  0  0
M  END
> <minimizedAffinity>
-10.10830

$$$$
1690


 34 37  0  0  0  0  0  0  0  0999 V2000
   55.1840   86.4296   24.8947 C   0  0  0  0  0  0  0  0  0  0  0  0
   56.1519   86.5875   25.6820 O   0  0  0  0  0  0  0  0  0  0  0  0
   54.3610   85.2664   24.9700 N   0  0  0  0  0  0  0  0  0  0  0  0
   53.2340   85.0172   24.0992 C   0  0  0  0  0  0  0  0  0  0  0  0
   52.0982   84.3304   24.8770 C   0  0  0  0  0  0  0  0  0  0  0  0
   52.2620   84.7326   26.3026 C   0  0  0  0  0  0  0  0  0  0  0  0
   53.4687   84.0310   26.8824 C   0  0  0  0  0  0  0  0  0  0  0  0
   54.6571   84.2657   25.9729 C   0  0  0  0  0  0  0  0  0  0  0  0
   50.9148   84.8291   24.3125 O   0  0  0  0  0  0  0  0  0  0  0  0
   52.2114   82.8634   24.6066 C   0  0  0  0  0  0  0  0  0  0  0  0
   50.6392   84.2271   23.5494 H   0  0  0  0  0  0  0  0  0  0  0  0
   51.1033   84.6327   27.1179 N   0  0  0  0  0  0  0  0  0  0  0  0
   50.7245   83.5057   27.7386 C   0  0  0  0  0  0  0  0  0  0  0  0
   49.5837   83.4454   28.5290 C   0  0  0  0  0  0  0  0  0  0  0  0
   48.8163   84.5766   28.6817 C   0  0  0  0  0  0  0  0  0  0  0  0
   47.7722   84.5267   29.4040 O   0  0  0  0  0  0  0  0  0  0  0  0
   49.1967   85.7014   28.0597 N   0  0  0  0  0  0  0  0  0  0  0  0
   50.3098   85.7085   27.3062 C   0  0  0  0  0  0  0  0  0  0  0  0
   50.6698   86.7860   26.7134 O   0  0  0  0  0  0  0  0  0  0  0  0
   49.2107   82.1530   29.2008 C   0  0  0  0  0  0  0  0  0  0  0  0
   48.6246   86.5644   28.1679 H   0  0  0  0  0  0  0  0  0  0  0  0
   54.8751   87.4417   23.8699 C   0  0  0  0  0  0  0  0  0  0  0  0
   55.8538   87.3234   22.7374 C   0  0  0  0  0  0  0  0  0  0  0  0
   54.2122   91.8684   16.7741 Cl  0  0  0  0  0  0  0  0  0  0  0  0
   54.1476   90.5675   17.9407 C   0  0  0  0  0  0  0  0  0  0  0  0
   55.0650   90.4491   18.9703 C   0  0  0  0  0  0  0  0  0  0  0  0
   55.0060   89.4228   19.8828 C   0  0  0  0  0  0  0  0  0  0  0  0
   55.7525   89.0906   20.9440 N   0  0  0  0  0  0  0  0  0  0  0  0
   55.2724   87.9605   21.5317 C   0  0  0  0  0  0  0  0  0  0  0  0
   54.2209   87.6186   20.8022 N   0  0  0  0  0  0  0  0  0  0  0  0
   54.0199   88.4714   19.7934 C   0  0  0  0  0  0  0  0  0  0  0  0
   53.0952   88.5670   18.7773 C   0  0  0  0  0  0  0  0  0  0  0  0
   53.1565   89.6058   17.8568 C   0  0  0  0  0  0  0  0  0  0  0  0
   56.6004   89.6093   21.3028 H   0  0  0  0  0  0  0  0  0  0  0  0
 24 25  1  0  0  0
 25 26  2  0  0  0
 25 33  1  0  0  0
 26 27  1  0  0  0
 27 28  1  0  0  0
 27 31  2  0  0  0
 28 29  1  0  0  0
 29 30  2  0  0  0
 29 23  1  0  0  0
 30 31  1  0  0  0
 31 32  1  0  0  0
 32 33  2  0  0  0
 23 22  1  0  0  0
 22  1  1  0  0  0
  1  2  2  0  0  0
  1  3  1  0  0  0
  3  4  1  0  0  0
  3  8  1  0  0  0
  4  5  1  0  0  0
  5  6  1  0  0  0
  5  9  1  0  0  0
  5 10  1  0  0  0
  6  7  1  0  0  0
  6 12  1  0  0  0
  7  8  1  0  0  0
 12 13  1  0  0  0
 12 18  1  0  0  0
 13 14  2  0  0  0
 14 15  1  0  0  0
 14 20  1  0  0  0
 15 16  2  0  0  0
 15 17  1  0  0  0
 17 18  1  0  0  0
 18 19  2  0  0  0
 28 34  1  0  0  0
 17 21  1  0  0  0
  9 11  1  0  0  0
M  END
> <minimizedAffinity>
-9.58344

$$$$
1691


 35 39  0  0  0  0  0  0  0  0999 V2000
   54.9951   87.1537   25.2270 C   0  0  0  0  0  0  0  0  0  0  0  0
   54.2281   88.1051   25.4697 O   0  0  0  0  0  0  0  0  0  0  0  0
   55.9812   87.2781   24.2351 N   0  0  0  0  0  0  0  0  0  0  0  0
   56.3184   88.3553   23.3595 C   0  0  0  0  0  0  0  0  0  0  0  0
   56.6046   87.6728   22.0002 C   0  0  0  0  0  0  0  0  0  0  0  0
   57.2164   86.4043   22.4799 C   0  0  0  0  0  0  0  0  0  0  0  0
   56.9273   86.2219   23.9315 C   0  0  0  0  0  0  0  0  0  0  0  0
   58.6028   86.3705   22.3347 O   0  0  0  0  0  0  0  0  0  0  0  0
   58.9645   87.2574   22.0531 H   0  0  0  0  0  0  0  0  0  0  0  0
   55.3625   87.5068   21.3005 N   0  0  0  0  0  0  0  0  0  0  0  0
   54.6791   88.4245   20.5967 C   0  0  0  0  0  0  0  0  0  0  0  0
   53.5147   87.8202   20.0802 C   0  0  0  0  0  0  0  0  0  0  0  0
   53.5419   86.5451   20.5004 N   0  0  0  0  0  0  0  0  0  0  0  0
   54.6367   86.3413   21.2290 C   0  0  0  0  0  0  0  0  0  0  0  0
   52.6202   88.5322   19.3133 C   0  0  0  0  0  0  0  0  0  0  0  0
   51.5882   87.9642   18.8656 O   0  0  0  0  0  0  0  0  0  0  0  0
   52.8952   89.8194   19.0726 N   0  0  0  0  0  0  0  0  0  0  0  0
   53.9990   90.3834   19.5648 C   0  0  0  0  0  0  0  0  0  0  0  0
   54.2428   91.5964   19.3297 O   0  0  0  0  0  0  0  0  0  0  0  0
   54.9201   89.7240   20.3320 N   0  0  0  0  0  0  0  0  0  0  0  0
   56.0811   90.3929   20.8276 C   0  0  0  0  0  0  0  0  0  0  0  0
   51.9628   90.6034   18.2593 C   0  0  0  0  0  0  0  0  0  0  0  0
   54.8564   85.9026   25.9882 C   0  0  0  0  0  0  0  0  0  0  0  0
   53.4168   85.6905   26.4001 C   0  0  0  0  0  0  0  0  0  0  0  0
   48.6190   81.3080   22.2871 Cl  0  0  0  0  0  0  0  0  0  0  0  0
   49.9716   82.3289   22.7608 C   0  0  0  0  0  0  0  0  0  0  0  0
   50.0982   82.8116   24.0424 C   0  0  0  0  0  0  0  0  0  0  0  0
   51.1859   83.6187   24.3779 C   0  0  0  0  0  0  0  0  0  0  0  0
   51.5713   84.2216   25.5148 N   0  0  0  0  0  0  0  0  0  0  0  0
   52.7156   84.9039   25.3328 C   0  0  0  0  0  0  0  0  0  0  0  0
   53.0500   84.7218   24.0551 N   0  0  0  0  0  0  0  0  0  0  0  0
   52.1401   83.9407   23.4370 C   0  0  0  0  0  0  0  0  0  0  0  0
   52.0118   83.4575   22.1522 C   0  0  0  0  0  0  0  0  0  0  0  0
   50.9196   82.6515   21.8302 C   0  0  0  0  0  0  0  0  0  0  0  0
   51.0236   84.1494   26.4139 H   0  0  0  0  0  0  0  0  0  0  0  0
 25 26  1  0  0  0
 26 27  2  0  0  0
 26 34  1  0  0  0
 27 28  1  0  0  0
 28 29  1  0  0  0
 28 32  2  0  0  0
 29 30  1  0  0  0
 30 31  2  0  0  0
 30 24  1  0  0  0
 31 32  1  0  0  0
 32 33  1  0  0  0
 33 34  2  0  0  0
 24 23  1  0  0  0
 23  1  1  0  0  0
  1  2  2  0  0  0
  1  3  1  0  0  0
  3  4  1  0  0  0
  3  7  1  0  0  0
  4  5  1  0  0  0
  5  6  1  0  0  0
  5 10  1  0  0  0
  6  7  1  0  0  0
  6  8  1  0  0  0
 10 11  1  0  0  0
 10 14  1  0  0  0
 11 12  2  0  0  0
 11 20  1  0  0  0
 12 13  1  0  0  0
 12 15  1  0  0  0
 13 14  2  0  0  0
 15 16  2  0  0  0
 15 17  1  0  0  0
 17 18  1  0  0  0
 17 22  1  0  0  0
 18 19  2  0  0  0
 18 20  1  0  0  0
 20 21  1  0  0  0
 29 35  1  0  0  0
  8  9  1  0  0  0
M  END
> <minimizedAffinity>
-9.67308

$$$$
1699


 31 34  0  0  0  0  0  0  0  0999 V2000
   51.6444   85.4728   31.1301 Cl  0  0  0  0  0  0  0  0  0  0  0  0
   52.2382   84.3553   29.9453 C   0  0  0  0  0  0  0  0  0  0  0  0
   52.6959   84.7996   28.7133 C   0  0  0  0  0  0  0  0  0  0  0  0
   53.1717   83.9221   27.7603 C   0  0  0  0  0  0  0  0  0  0  0  0
   53.1813   82.5891   28.0629 C   0  0  0  0  0  0  0  0  0  0  0  0
   52.7298   82.1017   29.2933 C   0  0  0  0  0  0  0  0  0  0  0  0
   52.2619   83.0052   30.2216 C   0  0  0  0  0  0  0  0  0  0  0  0
   53.6828   81.8494   26.9575 N   0  0  0  0  0  0  0  0  0  0  0  0
   53.9961   82.7653   25.9197 C   0  0  0  0  0  0  0  0  0  0  0  0
   54.4355   82.3639   24.7938 O   0  0  0  0  0  0  0  0  0  0  0  0
   53.7197   84.1063   26.4180 C   0  0  0  0  0  0  0  0  0  0  0  0
   54.9194   84.9476   26.4300 N   0  0  0  0  0  0  0  0  0  0  0  0
   55.0517   85.2640   25.0256 C   0  0  0  0  0  0  0  0  0  0  0  0
   53.6667   85.4965   24.5149 C   0  0  0  0  0  0  0  0  0  0  0  0
   52.7949   84.9344   25.5970 C   0  0  0  0  0  0  0  0  0  0  0  0
   51.6958   84.1783   24.9477 C   0  0  0  0  0  0  0  0  0  0  0  0
   50.7425   83.7041   25.6189 O   0  0  0  0  0  0  0  0  0  0  0  0
   51.9658   84.1366   23.5559 N   0  0  0  0  0  0  0  0  0  0  0  0
   53.3079   84.6006   23.3687 C   0  0  0  0  0  0  0  0  0  0  0  0
   54.0789   84.3390   22.4397 O   0  0  0  0  0  0  0  0  0  0  0  0
   53.8071   80.7948   26.9107 H   0  0  0  0  0  0  0  0  0  0  0  0
   54.6370   85.8227   26.9260 H   0  0  0  0  0  0  0  0  0  0  0  0
   55.9754   86.4297   24.7818 C   0  0  0  0  0  0  0  0  0  0  0  0
   55.6949   87.3991   25.7365 O   0  0  0  0  0  0  0  0  0  0  0  0
   57.4298   86.0405   24.8484 C   0  0  0  0  0  0  0  0  0  0  0  0
   56.3708   87.4291   26.4610 H   0  0  0  0  0  0  0  0  0  0  0  0
   51.0799   83.7226   22.5349 C   0  0  0  0  0  0  0  0  0  0  0  0
   51.2623   82.3931   21.9157 C   0  0  0  0  0  0  0  0  0  0  0  0
   51.7700   81.2953   22.7689 C   0  0  0  0  0  0  0  0  0  0  0  0
   50.8136   80.4468   23.3052 O   0  0  0  0  0  0  0  0  0  0  0  0
   51.3379   79.9316   24.5154 C   0  0  0  0  0  0  0  0  0  0  0  0
  1  2  1  0  0  0
  2  3  2  0  0  0
  2  7  1  0  0  0
  3  4  1  0  0  0
  4  5  2  0  0  0
  4 11  1  0  0  0
  5  6  1  0  0  0
  5  8  1  0  0  0
  6  7  2  0  0  0
  8  9  1  0  0  0
  9 10  2  0  0  0
  9 11  1  0  0  0
 11 12  1  0  0  0
 11 15  1  0  0  0
 12 13  1  0  0  0
 13 14  1  0  0  0
 13 23  1  0  0  0
 14 15  1  0  0  0
 14 19  1  0  0  0
 15 16  1  0  0  0
 16 17  2  0  0  0
 16 18  1  0  0  0
 18 19  1  0  0  0
 18 27  1  0  0  0
 19 20  2  0  0  0
 27 28  1  0  0  0
 28 29  1  0  0  0
 29 30  1  0  0  0
 30 31  1  0  0  0
 23 24  1  0  0  0
 23 25  1  0  0  0
  8 21  1  0  0  0
 12 22  1  0  0  0
 24 26  1  0  0  0
M  END
> <minimizedAffinity>
-6.92318

$$$$
1706


 25 28  0  0  0  0  0  0  0  0999 V2000
   55.4670   85.8003   23.0379 F   0  0  0  0  0  0  0  0  0  0  0  0
   55.3129   86.9717   22.3340 C   0  0  0  0  0  0  0  0  0  0  0  0
   54.3966   87.0016   21.2751 C   0  0  0  0  0  0  0  0  0  0  0  0
   54.2290   88.1519   20.5656 C   0  0  0  0  0  0  0  0  0  0  0  0
   54.9678   89.2974   20.8925 C   0  0  0  0  0  0  0  0  0  0  0  0
   55.8554   89.2403   21.9313 C   0  0  0  0  0  0  0  0  0  0  0  0
   56.0407   88.0901   22.6601 C   0  0  0  0  0  0  0  0  0  0  0  0
   57.1898   88.0223   24.0029 Cl  0  0  0  0  0  0  0  0  0  0  0  0
   53.2093   87.9140   19.5106 C   0  0  0  0  0  0  0  0  0  0  0  0
   53.7878   88.1658   18.2285 N   0  0  0  0  0  0  0  0  0  0  0  0
   53.7931   89.4628   17.6737 C   0  0  0  0  0  0  0  0  0  0  0  0
   54.6061   89.8013   16.6394 N   0  0  0  0  0  0  0  0  0  0  0  0
   54.6505   91.0136   16.0782 C   0  0  0  0  0  0  0  0  0  0  0  0
   53.8179   92.0156   16.5644 C   0  0  0  0  0  0  0  0  0  0  0  0
   52.9692   91.7577   17.6041 C   0  0  0  0  0  0  0  0  0  0  0  0
   52.9762   90.4857   18.1342 C   0  0  0  0  0  0  0  0  0  0  0  0
   52.1039   90.1076   19.2502 C   0  0  0  0  0  0  0  0  0  0  0  0
   51.3337   91.0192   19.7077 O   0  0  0  0  0  0  0  0  0  0  0  0
   52.1040   88.8119   19.7972 N   0  0  0  0  0  0  0  0  0  0  0  0
   52.8155   86.5122   19.6899 C   0  0  0  0  0  0  0  0  0  0  0  0
   51.9527   85.8536   19.0003 O   0  0  0  0  0  0  0  0  0  0  0  0
   53.5412   85.9709   20.7633 N   0  0  0  0  0  0  0  0  0  0  0  0
   54.2229   87.3945   17.6655 H   0  0  0  0  0  0  0  0  0  0  0  0
   51.2931   88.5436   20.4010 H   0  0  0  0  0  0  0  0  0  0  0  0
   53.5099   84.9970   21.1661 H   0  0  0  0  0  0  0  0  0  0  0  0
  1  2  1  0  0  0
  2  3  2  0  0  0
  2  7  1  0  0  0
  3  4  1  0  0  0
  3 22  1  0  0  0
  4  5  2  0  0  0
  4  9  1  0  0  0
  5  6  1  0  0  0
  6  7  2  0  0  0
  7  8  1  0  0  0
  9 10  1  0  0  0
  9 19  1  0  0  0
  9 20  1  0  0  0
 10 11  1  0  0  0
 11 12  2  0  0  0
 11 16  1  0  0  0
 12 13  1  0  0  0
 13 14  2  0  0  0
 14 15  1  0  0  0
 15 16  2  0  0  0
 16 17  1  0  0  0
 17 18  2  0  0  0
 17 19  1  0  0  0
 20 21  2  0  0  0
 20 22  1  0  0  0
 10 23  1  0  0  0
 19 24  1  0  0  0
 22 25  1  0  0  0
M  END
> <minimizedAffinity>
-9.22614

$$$$
1711


 30 33  0  0  0  0  0  0  0  0999 V2000
   56.6479   87.6396   23.4499 N   0  0  0  0  0  0  0  0  0  0  0  0
   55.6207   88.4292   24.0332 C   0  0  0  0  0  0  0  0  0  0  0  0
   55.1038   87.8711   25.3351 C   0  0  0  0  0  0  0  0  0  0  0  0
   55.1410   86.4324   25.3723 N   0  0  0  0  0  0  0  0  0  0  0  0
   56.3573   85.7474   25.0062 C   0  0  0  0  0  0  0  0  0  0  0  0
   57.2714   86.7234   24.3326 C   0  0  0  0  0  0  0  0  0  0  0  0
   54.0202   85.6566   25.7582 C   0  0  0  0  0  0  0  0  0  0  0  0
   52.9657   86.2399   26.0761 O   0  0  0  0  0  0  0  0  0  0  0  0
   56.4173   87.1531   21.8599 S   0  0  0  0  0  0  0  0  0  0  0  0
   57.7402   86.6319   21.3154 O   0  0  0  0  0  0  0  0  0  0  0  0
   55.4897   85.9529   21.8539 O   0  0  0  0  0  0  0  0  0  0  0  0
   55.7459   88.3358   20.8027 C   0  0  0  0  0  0  0  0  0  0  0  0
   54.4383   88.2056   20.3651 C   0  0  0  0  0  0  0  0  0  0  0  0
   53.8512   89.1239   19.5186 C   0  0  0  0  0  0  0  0  0  0  0  0
   54.6117   90.2030   19.1066 C   0  0  0  0  0  0  0  0  0  0  0  0
   55.9132   90.3195   19.5500 C   0  0  0  0  0  0  0  0  0  0  0  0
   56.5125   89.4095   20.3964 C   0  0  0  0  0  0  0  0  0  0  0  0
   53.8543   91.5224   17.9253 Br  0  0  0  0  0  0  0  0  0  0  0  0
   54.0660   84.1778   25.7944 C   0  0  0  0  0  0  0  0  0  0  0  0
   52.8937   83.6068   25.1979 N   0  0  0  0  0  0  0  0  0  0  0  0
   51.6978   83.1418   25.8089 C   0  0  0  0  0  0  0  0  0  0  0  0
   51.4822   83.1669   27.0405 O   0  0  0  0  0  0  0  0  0  0  0  0
   50.8101   82.6529   24.7670 C   0  0  0  0  0  0  0  0  0  0  0  0
   51.4246   82.8047   23.5465 C   0  0  0  0  0  0  0  0  0  0  0  0
   50.7614   82.4031   22.3946 C   0  0  0  0  0  0  0  0  0  0  0  0
   49.5080   81.8584   22.4420 C   0  0  0  0  0  0  0  0  0  0  0  0
   48.8728   81.6989   23.6732 C   0  0  0  0  0  0  0  0  0  0  0  0
   49.5524   82.1067   24.8114 C   0  0  0  0  0  0  0  0  0  0  0  0
   52.7321   83.4006   23.7898 C   0  0  0  0  0  0  0  0  0  0  0  0
   53.5382   83.6647   22.8597 O   0  0  0  0  0  0  0  0  0  0  0  0
  9 10  2  0  0  0
  9 11  2  0  0  0
  9  1  1  0  0  0
  9 12  1  0  0  0
  1  2  1  0  0  0
  1  6  1  0  0  0
  2  3  1  0  0  0
  3  4  1  0  0  0
  4  5  1  0  0  0
  4  7  1  0  0  0
  5  6  1  0  0  0
  7  8  2  0  0  0
  7 19  1  0  0  0
 19 20  1  0  0  0
 20 21  1  0  0  0
 20 29  1  0  0  0
 21 22  2  0  0  0
 21 23  1  0  0  0
 23 24  2  0  0  0
 23 28  1  0  0  0
 24 25  1  0  0  0
 24 29  1  0  0  0
 25 26  2  0  0  0
 26 27  1  0  0  0
 27 28  2  0  0  0
 29 30  2  0  0  0
 12 13  2  0  0  0
 12 17  1  0  0  0
 13 14  1  0  0  0
 14 15  2  0  0  0
 15 16  1  0  0  0
 15 18  1  0  0  0
 16 17  2  0  0  0
M  END
> <minimizedAffinity>
-9.13436

$$$$
1718


 34 38  0  0  0  0  0  0  0  0999 V2000
   51.9295   83.9260   31.9883 Cl  0  0  0  0  0  0  0  0  0  0  0  0
   51.1108   84.5202   30.5617 C   0  0  0  0  0  0  0  0  0  0  0  0
   51.6128   84.1152   29.3243 C   0  0  0  0  0  0  0  0  0  0  0  0
   50.9956   84.5618   28.1772 C   0  0  0  0  0  0  0  0  0  0  0  0
   49.8906   85.4044   28.3127 C   0  0  0  0  0  0  0  0  0  0  0  0
   49.4022   85.7997   29.5393 C   0  0  0  0  0  0  0  0  0  0  0  0
   50.0205   85.3511   30.6875 C   0  0  0  0  0  0  0  0  0  0  0  0
   51.6644   84.0341   26.9881 C   0  0  0  0  0  0  0  0  0  0  0  0
   50.7708   83.2896   26.1210 N   0  0  0  0  0  0  0  0  0  0  0  0
   51.4120   83.3003   24.8130 C   0  0  0  0  0  0  0  0  0  0  0  0
   52.1334   84.6158   24.7082 C   0  0  0  0  0  0  0  0  0  0  0  0
   52.2764   85.1146   26.1249 C   0  0  0  0  0  0  0  0  0  0  0  0
   53.7357   85.2455   26.3640 C   0  0  0  0  0  0  0  0  0  0  0  0
   54.1966   85.5167   27.5076 O   0  0  0  0  0  0  0  0  0  0  0  0
   54.4365   85.0238   25.1518 N   0  0  0  0  0  0  0  0  0  0  0  0
   53.5478   84.3535   24.2707 C   0  0  0  0  0  0  0  0  0  0  0  0
   53.8269   83.6389   23.2668 O   0  0  0  0  0  0  0  0  0  0  0  0
   52.7587   83.2032   27.5148 C   0  0  0  0  0  0  0  0  0  0  0  0
   53.6189   82.5264   26.8412 O   0  0  0  0  0  0  0  0  0  0  0  0
   52.6943   83.2816   28.9282 N   0  0  0  0  0  0  0  0  0  0  0  0
   49.8175   83.7153   26.0830 H   0  0  0  0  0  0  0  0  0  0  0  0
   53.3485   82.7965   29.6006 H   0  0  0  0  0  0  0  0  0  0  0  0
   55.7730   85.4045   24.8708 C   0  0  0  0  0  0  0  0  0  0  0  0
   56.0112   86.8091   24.4806 C   0  0  0  0  0  0  0  0  0  0  0  0
   55.8604   87.7399   25.4970 O   0  0  0  0  0  0  0  0  0  0  0  0
   56.2540   88.9103   24.8474 C   0  0  0  0  0  0  0  0  0  0  0  0
   55.5437   88.8603   23.4888 C   0  0  0  0  0  0  0  0  0  0  0  0
   55.1756   87.3701   23.3899 C   0  0  0  0  0  0  0  0  0  0  0  0
   50.3618   83.1379   23.7538 C   0  0  0  0  0  0  0  0  0  0  0  0
   49.5365   81.9469   24.1323 C   0  0  0  0  0  0  0  0  0  0  0  0
   48.3094   82.1493   24.3205 O   0  0  0  0  0  0  0  0  0  0  0  0
   50.0890   80.6489   24.2766 N   0  0  0  0  0  0  0  0  0  0  0  0
   50.3521   80.1314   23.4152 H   0  0  0  0  0  0  0  0  0  0  0  0
   50.2487   80.1813   25.1905 H   0  0  0  0  0  0  0  0  0  0  0  0
  1  2  1  0  0  0
  2  3  2  0  0  0
  2  7  1  0  0  0
  3  4  1  0  0  0
  3 20  1  0  0  0
  4  5  2  0  0  0
  4  8  1  0  0  0
  5  6  1  0  0  0
  6  7  2  0  0  0
  8  9  1  0  0  0
  8 12  1  0  0  0
  8 18  1  0  0  0
  9 10  1  0  0  0
 10 11  1  0  0  0
 10 29  1  0  0  0
 11 12  1  0  0  0
 11 16  1  0  0  0
 12 13  1  0  0  0
 13 14  2  0  0  0
 13 15  1  0  0  0
 15 16  1  0  0  0
 15 23  1  0  0  0
 16 17  2  0  0  0
 23 24  1  0  0  0
 24 25  1  0  0  0
 24 28  1  0  0  0
 25 26  1  0  0  0
 26 27  1  0  0  0
 27 28  1  0  0  0
 29 30  1  0  0  0
 30 31  2  0  0  0
 30 32  1  0  0  0
 18 19  2  0  0  0
 18 20  1  0  0  0
  9 21  1  0  0  0
 32 33  1  0  0  0
 32 34  1  0  0  0
 20 22  1  0  0  0
M  END
> <minimizedAffinity>
-7.69032

$$$$
1721


 28 31  0  0  0  0  0  0  0  0999 V2000
   52.6480   99.0586   27.6782 C   0  0  0  0  0  0  0  0  0  0  0  0
   51.2805   98.8244   28.1148 C   0  0  0  0  0  0  0  0  0  0  0  0
   51.1647   97.7014   28.8564 O   0  0  0  0  0  0  0  0  0  0  0  0
   50.1204   99.5191   27.9117 N   0  0  0  0  0  0  0  0  0  0  0  0
   49.9057  100.6630   27.0929 C   0  0  0  0  0  0  0  0  0  0  0  0
   49.5068  101.8845   27.9181 C   0  0  0  0  0  0  0  0  0  0  0  0
   48.7894  101.3655   29.0469 N   0  0  0  0  0  0  0  0  0  0  0  0
   47.9641  100.2108   28.8419 C   0  0  0  0  0  0  0  0  0  0  0  0
   48.9132   99.0195   28.6736 C   0  0  0  0  0  0  0  0  0  0  0  0
   48.8651  101.9446   30.3262 C   0  0  0  0  0  0  0  0  0  0  0  0
   47.7605  102.4334   30.9616 N   0  0  0  0  0  0  0  0  0  0  0  0
   47.7631  102.9892   32.1602 C   0  0  0  0  0  0  0  0  0  0  0  0
   48.9140  103.1252   32.8843 C   0  0  0  0  0  0  0  0  0  0  0  0
   50.0765  102.6486   32.2963 C   0  0  0  0  0  0  0  0  0  0  0  0
   50.0490  102.0682   31.0378 C   0  0  0  0  0  0  0  0  0  0  0  0
   53.6041   98.0927   28.0696 N   0  0  0  0  0  0  0  0  0  0  0  0
   53.6695   97.7773   29.0414 H   0  0  0  0  0  0  0  0  0  0  0  0
   57.9715   98.4318   25.4168 Cl  0  0  0  0  0  0  0  0  0  0  0  0
   56.4788   97.6333   25.8365 C   0  0  0  0  0  0  0  0  0  0  0  0
   56.1149   96.4917   25.2678 N   0  0  0  0  0  0  0  0  0  0  0  0
   54.9921   95.8148   25.5305 C   0  0  0  0  0  0  0  0  0  0  0  0
   54.4338   94.6753   25.0914 N   0  0  0  0  0  0  0  0  0  0  0  0
   53.2659   94.4815   25.7271 C   0  0  0  0  0  0  0  0  0  0  0  0
   53.1096   95.5206   26.5687 N   0  0  0  0  0  0  0  0  0  0  0  0
   54.1445   96.3697   26.4855 C   0  0  0  0  0  0  0  0  0  0  0  0
   54.5123   97.5522   27.0814 C   0  0  0  0  0  0  0  0  0  0  0  0
   55.6567   98.1726   26.7646 N   0  0  0  0  0  0  0  0  0  0  0  0
   52.3036   95.6959   27.2261 H   0  0  0  0  0  0  0  0  0  0  0  0
 18 19  1  0  0  0
 19 20  2  0  0  0
 19 27  1  0  0  0
 20 21  1  0  0  0
 21 22  1  0  0  0
 21 25  2  0  0  0
 22 23  2  0  0  0
 23 24  1  0  0  0
 24 25  1  0  0  0
 25 26  1  0  0  0
 26 27  2  0  0  0
 26 16  1  0  0  0
 16  1  1  0  0  0
  1  2  1  0  0  0
  2  3  2  0  0  0
  2  4  1  0  0  0
  4  5  1  0  0  0
  4  9  1  0  0  0
  5  6  1  0  0  0
  6  7  1  0  0  0
  7  8  1  0  0  0
  7 10  1  0  0  0
  8  9  1  0  0  0
 10 11  2  0  0  0
 10 15  1  0  0  0
 11 12  1  0  0  0
 12 13  2  0  0  0
 13 14  1  0  0  0
 14 15  2  0  0  0
 24 28  1  0  0  0
 16 17  1  0  0  0
M  END
> <minimizedAffinity>
-8.56004

$$$$
1726


 30 33  0  0  0  0  0  0  0  0999 V2000
   52.8315   85.0403   18.6909 C   0  0  0  0  0  0  0  0  0  0  0  0
   53.9699   84.5879   17.9152 N   0  0  0  0  0  0  0  0  0  0  0  0
   54.5912   83.5385   18.6516 C   0  0  0  0  0  0  0  0  0  0  0  0
   54.8551   82.2843   17.8800 C   0  0  0  0  0  0  0  0  0  0  0  0
   53.6413   81.4813   17.5722 C   0  0  0  0  0  0  0  0  0  0  0  0
   53.2978   81.4107   16.1796 N   0  0  0  0  0  0  0  0  0  0  0  0
   53.6786   82.3087   15.2517 C   0  0  0  0  0  0  0  0  0  0  0  0
   53.3518   82.2426   13.9278 C   0  0  0  0  0  0  0  0  0  0  0  0
   52.5779   81.1873   13.4898 C   0  0  0  0  0  0  0  0  0  0  0  0
   52.1850   80.2656   14.4308 C   0  0  0  0  0  0  0  0  0  0  0  0
   52.5321   80.3638   15.7569 C   0  0  0  0  0  0  0  0  0  0  0  0
   52.1533   79.5003   16.5905 O   0  0  0  0  0  0  0  0  0  0  0  0
   54.5223   83.4391   15.7967 C   0  0  0  0  0  0  0  0  0  0  0  0
   53.6217   84.3144   16.5742 C   0  0  0  0  0  0  0  0  0  0  0  0
   55.5843   82.7410   16.6106 C   0  0  0  0  0  0  0  0  0  0  0  0
   54.6440   85.4129   17.9108 H   0  0  0  0  0  0  0  0  0  0  0  0
   53.1946   85.9224   19.8420 C   0  0  0  0  0  0  0  0  0  0  0  0
   52.5997   85.4465   21.0091 O   0  0  0  0  0  0  0  0  0  0  0  0
   51.6448   85.7373   20.9676 H   0  0  0  0  0  0  0  0  0  0  0  0
   52.6940   87.3239   19.4946 C   0  0  0  0  0  0  0  0  0  0  0  0
   53.8287   88.1207   19.3143 O   0  0  0  0  0  0  0  0  0  0  0  0
   52.3274   90.4512   18.1413 Br  0  0  0  0  0  0  0  0  0  0  0  0
   53.5764   90.4616   19.5796 C   0  0  0  0  0  0  0  0  0  0  0  0
   54.1501   89.2686   19.9576 C   0  0  0  0  0  0  0  0  0  0  0  0
   55.0511   89.2930   20.9988 C   0  0  0  0  0  0  0  0  0  0  0  0
   55.3696   90.4899   21.6479 C   0  0  0  0  0  0  0  0  0  0  0  0
   54.7762   91.6708   21.2451 C   0  0  0  0  0  0  0  0  0  0  0  0
   53.8817   91.6631   20.2155 C   0  0  0  0  0  0  0  0  0  0  0  0
   55.0996   92.9645   21.9233 C   0  0  0  0  0  0  0  0  0  0  0  0
   55.8627   87.6607   21.5456 Br  0  0  0  0  0  0  0  0  0  0  0  0
 22 23  1  0  0  0
 23 24  2  0  0  0
 23 28  1  0  0  0
 24 25  1  0  0  0
 24 21  1  0  0  0
 25 26  2  0  0  0
 25 30  1  0  0  0
 26 27  1  0  0  0
 27 28  2  0  0  0
 27 29  1  0  0  0
 21 20  1  0  0  0
 20 17  1  0  0  0
 17 18  1  0  0  0
 17  1  1  0  0  0
  1  2  1  0  0  0
  2  3  1  0  0  0
  2 14  1  0  0  0
  3  4  1  0  0  0
  4  5  1  0  0  0
  4 15  1  0  0  0
  5  6  1  0  0  0
  6  7  1  0  0  0
  6 11  1  0  0  0
  7  8  2  0  0  0
  7 13  1  0  0  0
  8  9  1  0  0  0
  9 10  2  0  0  0
 10 11  1  0  0  0
 11 12  2  0  0  0
 13 14  1  0  0  0
 13 15  1  0  0  0
 18 19  1  0  0  0
  2 16  1  0  0  0
M  CHG 1   2   1
M  END
> <minimizedAffinity>
-8.67755

$$$$
1732


 28 31  0  0  0  0  0  0  0  0999 V2000
   53.9672   83.9543   21.2579 N   0  0  0  0  0  0  0  0  0  0  0  0
   53.7573   84.4132   22.4806 N   0  0  0  0  0  0  0  0  0  0  0  0
   53.9658   85.7247   22.5135 N   0  0  0  0  0  0  0  0  0  0  0  0
   54.3213   86.1241   21.2743 C   0  0  0  0  0  0  0  0  0  0  0  0
   54.3099   85.0049   20.5317 N   0  0  0  0  0  0  0  0  0  0  0  0
   54.6441   87.4779   20.8485 C   0  0  0  0  0  0  0  0  0  0  0  0
   55.8441   88.0146   21.2531 C   0  0  0  0  0  0  0  0  0  0  0  0
   56.1502   89.3032   20.8479 C   0  0  0  0  0  0  0  0  0  0  0  0
   55.3006   90.0450   20.0668 C   0  0  0  0  0  0  0  0  0  0  0  0
   54.0956   89.5084   19.6600 C   0  0  0  0  0  0  0  0  0  0  0  0
   53.7919   88.2206   20.0655 C   0  0  0  0  0  0  0  0  0  0  0  0
   56.7790   87.3056   22.0653 N   0  0  0  0  0  0  0  0  0  0  0  0
   57.6111   86.3802   21.6047 N   0  0  0  0  0  0  0  0  0  0  0  0
   58.3331   85.9251   22.6044 N   0  0  0  0  0  0  0  0  0  0  0  0
   57.9566   86.5653   23.7089 N   0  0  0  0  0  0  0  0  0  0  0  0
   56.9801   87.4324   23.3690 C   0  0  0  0  0  0  0  0  0  0  0  0
   53.8441   82.5620   20.7971 C   0  0  0  0  0  0  0  0  0  0  0  0
   54.6326   82.5498   18.4084 N   0  0  0  0  0  0  0  0  0  0  0  0
   53.5889   82.5145   19.3333 C   0  0  0  0  0  0  0  0  0  0  0  0
   52.3990   82.4428   18.9748 O   0  0  0  0  0  0  0  0  0  0  0  0
   55.6105   82.6120   18.8221 H   0  0  0  0  0  0  0  0  0  0  0  0
   55.0448   79.7421   17.3214 Br  0  0  0  0  0  0  0  0  0  0  0  0
   54.7315   81.3123   16.3111 C   0  0  0  0  0  0  0  0  0  0  0  0
   54.5671   82.5150   16.9994 C   0  0  0  0  0  0  0  0  0  0  0  0
   54.3417   83.6185   16.1981 C   0  0  0  0  0  0  0  0  0  0  0  0
   54.2837   83.5410   14.8044 C   0  0  0  0  0  0  0  0  0  0  0  0
   54.4537   82.3285   14.1848 C   0  0  0  0  0  0  0  0  0  0  0  0
   54.6797   81.2015   14.9432 C   0  0  0  0  0  0  0  0  0  0  0  0
 22 23  1  0  0  0
 23 24  2  0  0  0
 23 28  1  0  0  0
 24 25  1  0  0  0
 24 18  1  0  0  0
 25 26  2  0  0  0
 26 27  1  0  0  0
 27 28  2  0  0  0
 18 19  1  0  0  0
 19 20  2  0  0  0
 19 17  1  0  0  0
 17  1  1  0  0  0
  1  2  1  0  0  0
  1  5  1  0  0  0
  2  3  2  0  0  0
  3  4  1  0  0  0
  4  5  2  0  0  0
  4  6  1  0  0  0
  6  7  1  0  0  0
  6 11  2  0  0  0
  7  8  2  0  0  0
  7 12  1  0  0  0
  8  9  1  0  0  0
  9 10  2  0  0  0
 10 11  1  0  0  0
 12 13  1  0  0  0
 12 16  1  0  0  0
 13 14  2  0  0  0
 14 15  1  0  0  0
 15 16  2  0  0  0
 18 21  1  0  0  0
M  END
> <minimizedAffinity>
-8.73777

$$$$
1736


 35 39  0  0  0  0  0  0  0  0999 V2000
   52.0313   82.9483   20.4322 Cl  0  0  0  0  0  0  0  0  0  0  0  0
   51.1625   82.6872   21.9533 C   0  0  0  0  0  0  0  0  0  0  0  0
   51.8416   82.5466   23.1379 C   0  0  0  0  0  0  0  0  0  0  0  0
   51.1620   82.3453   24.3096 C   0  0  0  0  0  0  0  0  0  0  0  0
   49.7914   82.2844   24.2898 C   0  0  0  0  0  0  0  0  0  0  0  0
   49.0740   82.4241   23.1019 C   0  0  0  0  0  0  0  0  0  0  0  0
   49.7863   82.6255   21.9411 C   0  0  0  0  0  0  0  0  0  0  0  0
   49.2699   82.0690   25.5879 N   0  0  0  0  0  0  0  0  0  0  0  0
   50.3848   81.9915   26.4637 C   0  0  0  0  0  0  0  0  0  0  0  0
   50.3293   81.8022   27.6977 O   0  0  0  0  0  0  0  0  0  0  0  0
   51.6354   82.1676   25.7013 C   0  0  0  0  0  0  0  0  0  0  0  0
   52.5298   81.0442   25.8378 N   0  0  0  0  0  0  0  0  0  0  0  0
   53.8659   81.5512   25.8639 C   0  0  0  0  0  0  0  0  0  0  0  0
   53.8083   82.9067   26.5290 C   0  0  0  0  0  0  0  0  0  0  0  0
   52.3934   83.3311   26.2287 C   0  0  0  0  0  0  0  0  0  0  0  0
   52.4884   84.4776   25.2920 C   0  0  0  0  0  0  0  0  0  0  0  0
   51.6183   84.9338   24.5080 O   0  0  0  0  0  0  0  0  0  0  0  0
   53.8224   85.0032   25.4493 N   0  0  0  0  0  0  0  0  0  0  0  0
   54.6743   83.9187   25.8719 C   0  0  0  0  0  0  0  0  0  0  0  0
   55.9204   83.8258   25.7234 O   0  0  0  0  0  0  0  0  0  0  0  0
   48.2572   81.9766   25.8942 H   0  0  0  0  0  0  0  0  0  0  0  0
   52.3770   80.3722   25.0792 H   0  0  0  0  0  0  0  0  0  0  0  0
   54.8107   80.6138   26.5848 C   0  0  0  0  0  0  0  0  0  0  0  0
   55.3661   79.7633   25.6332 O   0  0  0  0  0  0  0  0  0  0  0  0
   53.9475   79.7405   27.4894 C   0  0  0  0  0  0  0  0  0  0  0  0
   54.7090   79.0752   25.3825 H   0  0  0  0  0  0  0  0  0  0  0  0
   54.2506   86.3682   25.2287 C   0  0  0  0  0  0  0  0  0  0  0  0
   55.0401   86.4592   23.9640 C   0  0  0  0  0  0  0  0  0  0  0  0
   56.3419   86.9134   23.9753 C   0  0  0  0  0  0  0  0  0  0  0  0
   57.0528   86.9880   22.7897 C   0  0  0  0  0  0  0  0  0  0  0  0
   56.4985   86.6182   21.5799 C   0  0  0  0  0  0  0  0  0  0  0  0
   55.1986   86.1634   21.5573 C   0  0  0  0  0  0  0  0  0  0  0  0
   54.5029   86.0938   22.7424 C   0  0  0  0  0  0  0  0  0  0  0  0
   56.9016   87.2873   25.2012 O   0  0  0  0  0  0  0  0  0  0  0  0
   58.2819   87.6654   25.2298 C   0  0  0  0  0  0  0  0  0  0  0  0
  1  2  1  0  0  0
  2  3  2  0  0  0
  2  7  1  0  0  0
  3  4  1  0  0  0
  4  5  2  0  0  0
  4 11  1  0  0  0
  5  6  1  0  0  0
  5  8  1  0  0  0
  6  7  2  0  0  0
  8  9  1  0  0  0
  9 10  2  0  0  0
  9 11  1  0  0  0
 11 12  1  0  0  0
 11 15  1  0  0  0
 12 13  1  0  0  0
 13 14  1  0  0  0
 13 23  1  0  0  0
 14 15  1  0  0  0
 14 19  1  0  0  0
 15 16  1  0  0  0
 16 17  2  0  0  0
 16 18  1  0  0  0
 18 19  1  0  0  0
 18 27  1  0  0  0
 19 20  2  0  0  0
 27 28  1  0  0  0
 28 29  2  0  0  0
 28 33  1  0  0  0
 29 30  1  0  0  0
 29 34  1  0  0  0
 30 31  2  0  0  0
 31 32  1  0  0  0
 32 33  2  0  0  0
 34 35  1  0  0  0
 23 24  1  0  0  0
 23 25  1  0  0  0
  8 21  1  0  0  0
 12 22  1  0  0  0
 24 26  1  0  0  0
M  END
> <minimizedAffinity>
-7.55683

$$$$
1741


 28 31  0  0  0  0  0  0  0  0999 V2000
   51.3473   98.8330   29.1784 C   0  0  0  0  0  0  0  0  0  0  0  0
   51.2691   98.4095   30.3485 O   0  0  0  0  0  0  0  0  0  0  0  0
   50.1890   99.2018   28.4791 N   0  0  0  0  0  0  0  0  0  0  0  0
   48.8603   99.1278   29.0458 C   0  0  0  0  0  0  0  0  0  0  0  0
   48.2196  100.4916   28.8483 C   0  0  0  0  0  0  0  0  0  0  0  0
   49.1353  101.4287   28.3457 N   0  0  0  0  0  0  0  0  0  0  0  0
   49.8220  101.1711   27.1473 C   0  0  0  0  0  0  0  0  0  0  0  0
   50.2347   99.7042   27.0977 C   0  0  0  0  0  0  0  0  0  0  0  0
   52.7032   98.9377   28.5393 C   0  0  0  0  0  0  0  0  0  0  0  0
   57.8948   96.0549   24.5945 Br  0  0  0  0  0  0  0  0  0  0  0  0
   56.3902   96.6643   25.6158 C   0  0  0  0  0  0  0  0  0  0  0  0
   55.2475   95.8670   25.7116 C   0  0  0  0  0  0  0  0  0  0  0  0
   54.1692   96.3300   26.4588 C   0  0  0  0  0  0  0  0  0  0  0  0
   54.1973   97.5452   27.1020 C   0  0  0  0  0  0  0  0  0  0  0  0
   53.0222   97.7599   27.7606 N   0  0  0  0  0  0  0  0  0  0  0  0
   52.2734   96.6767   27.5210 C   0  0  0  0  0  0  0  0  0  0  0  0
   52.9390   95.7683   26.7230 C   0  0  0  0  0  0  0  0  0  0  0  0
   55.3197   98.3355   27.0124 C   0  0  0  0  0  0  0  0  0  0  0  0
   56.4016   97.8791   26.2668 C   0  0  0  0  0  0  0  0  0  0  0  0
   49.4921  102.5401   29.1258 C   0  0  0  0  0  0  0  0  0  0  0  0
   49.5344  102.2768   30.5885 C   0  0  0  0  0  0  0  0  0  0  0  0
   50.4574  101.5285   30.9977 O   0  0  0  0  0  0  0  0  0  0  0  0
   48.6162  102.8100   31.5057 N   0  0  0  0  0  0  0  0  0  0  0  0
   48.7229  102.4951   32.9164 C   0  0  0  0  0  0  0  0  0  0  0  0
   48.7641  103.8111   33.6647 C   0  0  0  0  0  0  0  0  0  0  0  0
   47.5069  104.3978   33.4587 O   0  0  0  0  0  0  0  0  0  0  0  0
   47.3267  104.7659   32.1468 C   0  0  0  0  0  0  0  0  0  0  0  0
   47.5219  103.6869   31.1394 C   0  0  0  0  0  0  0  0  0  0  0  0
 10 11  1  0  0  0
 11 12  2  0  0  0
 11 19  1  0  0  0
 12 13  1  0  0  0
 13 14  2  0  0  0
 13 17  1  0  0  0
 14 15  1  0  0  0
 14 18  1  0  0  0
 15 16  1  0  0  0
 15  9  1  0  0  0
 16 17  2  0  0  0
  9  1  1  0  0  0
  1  2  2  0  0  0
  1  3  1  0  0  0
  3  4  1  0  0  0
  3  8  1  0  0  0
  4  5  1  0  0  0
  5  6  1  0  0  0
  6  7  1  0  0  0
  6 20  1  0  0  0
  7  8  1  0  0  0
 20 21  1  0  0  0
 21 22  2  0  0  0
 21 23  1  0  0  0
 23 24  1  0  0  0
 23 28  1  0  0  0
 24 25  1  0  0  0
 25 26  1  0  0  0
 26 27  1  0  0  0
 27 28  1  0  0  0
 18 19  2  0  0  0
M  END
> <minimizedAffinity>
-8.66665

$$$$
1744


 34 37  0  0  0  0  0  0  0  0999 V2000
   56.0751   87.6348   22.4354 N   0  0  0  0  0  0  0  0  0  0  0  0
   57.2256   86.8321   22.1759 C   0  0  0  0  0  0  0  0  0  0  0  0
   57.6072   86.5161   21.0225 O   0  0  0  0  0  0  0  0  0  0  0  0
   57.9858   86.3642   23.2879 N   0  0  0  0  0  0  0  0  0  0  0  0
   57.5737   86.7108   24.6190 C   0  0  0  0  0  0  0  0  0  0  0  0
   58.4197   86.4663   25.5430 O   0  0  0  0  0  0  0  0  0  0  0  0
   56.2596   87.3109   24.9137 C   0  0  0  0  0  0  0  0  0  0  0  0
   55.6532   87.9936   23.7445 C   0  0  0  0  0  0  0  0  0  0  0  0
   54.7796   88.8706   23.9543 O   0  0  0  0  0  0  0  0  0  0  0  0
   58.8449   85.7679   23.1690 H   0  0  0  0  0  0  0  0  0  0  0  0
   52.0667   86.8685   19.2749 Cl  0  0  0  0  0  0  0  0  0  0  0  0
   53.4544   87.7844   19.7986 C   0  0  0  0  0  0  0  0  0  0  0  0
   54.2114   87.3785   20.8694 C   0  0  0  0  0  0  0  0  0  0  0  0
   55.3220   88.0764   21.3116 C   0  0  0  0  0  0  0  0  0  0  0  0
   55.6710   89.2128   20.6475 C   0  0  0  0  0  0  0  0  0  0  0  0
   54.9372   89.6681   19.5563 C   0  0  0  0  0  0  0  0  0  0  0  0
   53.8358   88.9438   19.1474 C   0  0  0  0  0  0  0  0  0  0  0  0
   55.3085   86.2674   25.4507 C   0  0  0  0  0  0  0  0  0  0  0  0
   55.5221   84.9661   25.3826 C   0  0  0  0  0  0  0  0  0  0  0  0
   54.3413   84.3443   26.0221 C   0  0  0  0  0  0  0  0  0  0  0  0
   53.9330   85.3733   26.9615 N   0  0  0  0  0  0  0  0  0  0  0  0
   54.0739   86.5081   26.1250 N   0  0  0  0  0  0  0  0  0  0  0  0
   52.9956   85.2594   27.3557 H   0  0  0  0  0  0  0  0  0  0  0  0
   53.4902   87.3319   25.9803 H   0  0  0  0  0  0  0  0  0  0  0  0
   53.2695   84.0917   25.0188 C   0  0  0  0  0  0  0  0  0  0  0  0
   53.3978   84.2739   23.6715 C   0  0  0  0  0  0  0  0  0  0  0  0
   52.3841   83.9873   22.7786 C   0  0  0  0  0  0  0  0  0  0  0  0
   51.1740   83.4941   23.2314 C   0  0  0  0  0  0  0  0  0  0  0  0
   51.0483   83.3091   24.6178 C   0  0  0  0  0  0  0  0  0  0  0  0
   52.0681   83.6011   25.4927 C   0  0  0  0  0  0  0  0  0  0  0  0
   52.5669   84.1945   21.4000 O   0  0  0  0  0  0  0  0  0  0  0  0
   53.4619   84.5559   21.0869 H   0  0  0  0  0  0  0  0  0  0  0  0
   50.1448   83.1930   22.3725 O   0  0  0  0  0  0  0  0  0  0  0  0
   49.2493   82.1301   22.6246 C   0  0  0  0  0  0  0  0  0  0  0  0
 11 12  1  0  0  0
 12 13  2  0  0  0
 12 17  1  0  0  0
 13 14  1  0  0  0
 14 15  2  0  0  0
 14  1  1  0  0  0
 15 16  1  0  0  0
 16 17  2  0  0  0
  1  2  1  0  0  0
  1  8  1  0  0  0
  2  3  2  0  0  0
  2  4  1  0  0  0
  4  5  1  0  0  0
  5  6  2  0  0  0
  5  7  1  0  0  0
  7  8  1  0  0  0
  7 18  1  0  0  0
  8  9  2  0  0  0
 18 19  2  0  0  0
 18 22  1  0  0  0
 19 20  1  0  0  0
 20 21  1  0  0  0
 20 25  1  0  0  0
 21 22  1  0  0  0
 25 26  2  0  0  0
 25 30  1  0  0  0
 26 27  1  0  0  0
 27 28  2  0  0  0
 27 31  1  0  0  0
 28 29  1  0  0  0
 28 33  1  0  0  0
 29 30  2  0  0  0
 33 34  1  0  0  0
  4 10  1  0  0  0
 21 23  1  0  0  0
 22 24  1  0  0  0
 31 32  1  0  0  0
M  END
> <minimizedAffinity>
-8.97905

$$$$
1745


 34 37  0  0  0  0  0  0  0  0999 V2000
   56.4296   87.8672   22.3953 N   0  0  0  0  0  0  0  0  0  0  0  0
   57.3654   86.8116   22.2474 C   0  0  0  0  0  0  0  0  0  0  0  0
   57.6999   86.3957   21.1299 O   0  0  0  0  0  0  0  0  0  0  0  0
   57.9449   86.1999   23.4088 N   0  0  0  0  0  0  0  0  0  0  0  0
   57.5977   86.6396   24.7205 C   0  0  0  0  0  0  0  0  0  0  0  0
   58.3432   86.4639   25.6997 O   0  0  0  0  0  0  0  0  0  0  0  0
   56.2775   87.3391   24.9106 C   0  0  0  0  0  0  0  0  0  0  0  0
   56.1266   88.2484   23.7549 C   0  0  0  0  0  0  0  0  0  0  0  0
   55.7071   89.4513   23.9122 O   0  0  0  0  0  0  0  0  0  0  0  0
   58.6203   85.4358   23.2793 H   0  0  0  0  0  0  0  0  0  0  0  0
   52.3250   88.1308   19.3894 Cl  0  0  0  0  0  0  0  0  0  0  0  0
   53.8929   88.7373   19.8490 C   0  0  0  0  0  0  0  0  0  0  0  0
   54.5589   88.1362   20.8941 C   0  0  0  0  0  0  0  0  0  0  0  0
   55.8223   88.5657   21.3173 C   0  0  0  0  0  0  0  0  0  0  0  0
   56.3622   89.6217   20.6317 C   0  0  0  0  0  0  0  0  0  0  0  0
   55.7024   90.2296   19.5854 C   0  0  0  0  0  0  0  0  0  0  0  0
   54.4419   89.7922   19.1695 C   0  0  0  0  0  0  0  0  0  0  0  0
   55.1905   86.3188   25.0012 C   0  0  0  0  0  0  0  0  0  0  0  0
   55.2767   85.0380   25.2965 C   0  0  0  0  0  0  0  0  0  0  0  0
   53.9103   84.4482   25.2575 C   0  0  0  0  0  0  0  0  0  0  0  0
   53.2270   85.4033   24.3483 N   0  0  0  0  0  0  0  0  0  0  0  0
   53.8130   86.6153   24.7357 N   0  0  0  0  0  0  0  0  0  0  0  0
   53.4318   85.1555   23.3600 H   0  0  0  0  0  0  0  0  0  0  0  0
   53.3772   87.5275   24.8187 H   0  0  0  0  0  0  0  0  0  0  0  0
   53.2648   84.6321   26.5857 C   0  0  0  0  0  0  0  0  0  0  0  0
   51.8892   84.9256   26.7019 C   0  0  0  0  0  0  0  0  0  0  0  0
   51.2488   85.0681   27.8937 C   0  0  0  0  0  0  0  0  0  0  0  0
   51.9603   84.9215   29.0696 C   0  0  0  0  0  0  0  0  0  0  0  0
   53.3041   84.6358   28.9941 C   0  0  0  0  0  0  0  0  0  0  0  0
   53.9393   84.4945   27.7802 C   0  0  0  0  0  0  0  0  0  0  0  0
   51.3212   85.0622   30.2972 O   0  0  0  0  0  0  0  0  0  0  0  0
   50.3314   85.2703   30.3136 H   0  0  0  0  0  0  0  0  0  0  0  0
   49.8794   85.3643   27.9524 O   0  0  0  0  0  0  0  0  0  0  0  0
   49.4642   86.7103   28.0341 C   0  0  0  0  0  0  0  0  0  0  0  0
 11 12  1  0  0  0
 12 13  2  0  0  0
 12 17  1  0  0  0
 13 14  1  0  0  0
 14 15  2  0  0  0
 14  1  1  0  0  0
 15 16  1  0  0  0
 16 17  2  0  0  0
  1  2  1  0  0  0
  1  8  1  0  0  0
  2  3  2  0  0  0
  2  4  1  0  0  0
  4  5  1  0  0  0
  5  6  2  0  0  0
  5  7  1  0  0  0
  7  8  1  0  0  0
  7 18  1  0  0  0
  8  9  2  0  0  0
 18 19  2  0  0  0
 18 22  1  0  0  0
 19 20  1  0  0  0
 20 21  1  0  0  0
 20 25  1  0  0  0
 21 22  1  0  0  0
 25 26  2  0  0  0
 25 30  1  0  0  0
 26 27  1  0  0  0
 27 28  2  0  0  0
 27 33  1  0  0  0
 28 29  1  0  0  0
 28 31  1  0  0  0
 29 30  2  0  0  0
 33 34  1  0  0  0
  4 10  1  0  0  0
 21 23  1  0  0  0
 22 24  1  0  0  0
 31 32  1  0  0  0
M  END
> <minimizedAffinity>
-10.12590

$$$$
1750


 27 30  0  0  0  0  0  0  0  0999 V2000
   55.5457   86.2196   25.7709 N   0  0  0  0  0  0  0  0  0  0  0  0
   55.2654   87.5940   25.4884 C   0  0  0  0  0  0  0  0  0  0  0  0
   55.1343   87.8687   24.0025 C   0  0  0  0  0  0  0  0  0  0  0  0
   56.2477   87.2696   23.3163 N   0  0  0  0  0  0  0  0  0  0  0  0
   57.2977   86.6684   24.1143 C   0  0  0  0  0  0  0  0  0  0  0  0
   56.6409   85.6725   25.0450 C   0  0  0  0  0  0  0  0  0  0  0  0
   56.3582   87.2439   21.8963 C   0  0  0  0  0  0  0  0  0  0  0  0
   57.3379   86.7145   21.3225 O   0  0  0  0  0  0  0  0  0  0  0  0
   55.3178   87.8430   21.0573 C   0  0  0  0  0  0  0  0  0  0  0  0
   54.2164   87.2129   20.5641 N   0  0  0  0  0  0  0  0  0  0  0  0
   53.5002   88.0881   19.8414 C   0  0  0  0  0  0  0  0  0  0  0  0
   54.1460   89.2531   19.8808 N   0  0  0  0  0  0  0  0  0  0  0  0
   55.2592   89.1305   20.6165 C   0  0  0  0  0  0  0  0  0  0  0  0
   53.6239   90.3065   19.2234 C   0  0  0  0  0  0  0  0  0  0  0  0
   52.4593   90.2616   18.5080 C   0  0  0  0  0  0  0  0  0  0  0  0
   51.7714   89.0546   18.4549 C   0  0  0  0  0  0  0  0  0  0  0  0
   52.3147   87.9850   19.1305 C   0  0  0  0  0  0  0  0  0  0  0  0
   51.8062   91.6593   17.6601 Cl  0  0  0  0  0  0  0  0  0  0  0  0
   54.1964   85.2110   25.9045 S   0  0  0  0  0  0  0  0  0  0  0  0
   54.2444   84.4613   27.1960 O   0  0  0  0  0  0  0  0  0  0  0  0
   52.9582   86.0627   25.8960 O   0  0  0  0  0  0  0  0  0  0  0  0
   54.0459   84.0761   24.6235 N   0  0  0  0  0  0  0  0  0  0  0  0
   53.4337   84.6551   23.4420 C   0  0  0  0  0  0  0  0  0  0  0  0
   52.8345   83.5193   22.6475 C   0  0  0  0  0  0  0  0  0  0  0  0
   53.5881   82.3561   22.7634 O   0  0  0  0  0  0  0  0  0  0  0  0
   53.5479   81.8158   24.0469 C   0  0  0  0  0  0  0  0  0  0  0  0
   53.2182   82.9457   25.0017 C   0  0  0  0  0  0  0  0  0  0  0  0
 19 20  2  0  0  0
 19 21  2  0  0  0
 19  1  1  0  0  0
 19 22  1  0  0  0
  1  2  1  0  0  0
  1  6  1  0  0  0
  2  3  1  0  0  0
  3  4  1  0  0  0
  4  5  1  0  0  0
  4  7  1  0  0  0
  5  6  1  0  0  0
  7  8  2  0  0  0
  7  9  1  0  0  0
  9 10  1  0  0  0
  9 13  2  0  0  0
 10 11  2  0  0  0
 11 12  1  0  0  0
 11 17  1  0  0  0
 12 13  1  0  0  0
 12 14  1  0  0  0
 14 15  2  0  0  0
 15 16  1  0  0  0
 15 18  1  0  0  0
 16 17  2  0  0  0
 22 23  1  0  0  0
 22 27  1  0  0  0
 23 24  1  0  0  0
 24 25  1  0  0  0
 25 26  1  0  0  0
 26 27  1  0  0  0
M  END
> <minimizedAffinity>
-8.54788

$$$$
1758


 28 32  0  0  0  0  0  0  0  0999 V2000
   50.2531   99.0627   28.6124 N   0  0  0  0  0  0  0  0  0  0  0  0
   49.0262   98.5745   28.6250 N   0  0  0  0  0  0  0  0  0  0  0  0
   48.1259   99.4946   29.0265 C   0  0  0  0  0  0  0  0  0  0  0  0
   46.8264   99.3783   29.1627 C   0  0  0  0  0  0  0  0  0  0  0  0
   48.8378  100.6488   29.2869 C   0  0  0  0  0  0  0  0  0  0  0  0
   48.3284  101.8150   29.7115 C   0  0  0  0  0  0  0  0  0  0  0  0
   50.1534  100.3401   29.0175 C   0  0  0  0  0  0  0  0  0  0  0  0
   51.1238  101.1311   29.1321 O   0  0  0  0  0  0  0  0  0  0  0  0
   48.7612   97.5964   28.3600 H   0  0  0  0  0  0  0  0  0  0  0  0
   55.3328   95.7300   26.8410 I   0  0  0  0  0  0  0  0  0  0  0  0
   53.6651   96.8654   27.4434 C   0  0  0  0  0  0  0  0  0  0  0  0
   53.8078   98.0908   28.0619 C   0  0  0  0  0  0  0  0  0  0  0  0
   52.7045   98.8457   28.4627 C   0  0  0  0  0  0  0  0  0  0  0  0
   51.4554   98.3617   28.2377 C   0  0  0  0  0  0  0  0  0  0  0  0
   51.3249   97.1323   27.6172 C   0  0  0  0  0  0  0  0  0  0  0  0
   52.4011   96.3719   27.2140 C   0  0  0  0  0  0  0  0  0  0  0  0
   49.2557  102.8735   29.9141 N   0  0  0  0  0  0  0  0  0  0  0  0
   49.9604  103.1728   29.2118 H   0  0  0  0  0  0  0  0  0  0  0  0
   49.2282  103.5916   31.1780 C   0  0  0  0  0  0  0  0  0  0  0  0
   48.0169  103.1624   31.9920 C   0  0  0  0  0  0  0  0  0  0  0  0
   48.0395  103.8368   33.2605 N   0  0  0  0  0  0  0  0  0  0  0  0
   47.9768  105.2698   32.9931 C   0  0  0  0  0  0  0  0  0  0  0  0
   49.1278  105.7213   32.2627 N   0  0  0  0  0  0  0  0  0  0  0  0
   50.3440  105.3731   32.9630 C   0  0  0  0  0  0  0  0  0  0  0  0
   50.4367  103.9604   33.2182 N   0  0  0  0  0  0  0  0  0  0  0  0
   49.2632  103.4880   33.9458 C   0  0  0  0  0  0  0  0  0  0  0  0
   50.4799  103.2546   31.9583 C   0  0  0  0  0  0  0  0  0  0  0  0
   49.1363  105.0742   30.9750 C   0  0  0  0  0  0  0  0  0  0  0  0
 10 11  1  0  0  0
 11 12  2  0  0  0
 11 16  1  0  0  0
 12 13  1  0  0  0
 13 14  2  0  0  0
 14 15  1  0  0  0
 14  1  1  0  0  0
 15 16  2  0  0  0
  1  2  1  0  0  0
  1  7  1  0  0  0
  2  3  1  0  0  0
  3  4  2  0  0  0
  3  5  1  0  0  0
  5  6  2  0  0  0
  5  7  1  0  0  0
  6 17  1  0  0  0
 17 19  1  0  0  0
 19 20  1  0  0  0
 19 27  1  0  0  0
 19 28  1  0  0  0
 20 21  1  0  0  0
 21 22  1  0  0  0
 21 26  1  0  0  0
 22 23  1  0  0  0
 23 24  1  0  0  0
 23 28  1  0  0  0
 24 25  1  0  0  0
 25 26  1  0  0  0
 25 27  1  0  0  0
  7  8  2  0  0  0
  2  9  1  0  0  0
 17 18  1  0  0  0
M  END
> <minimizedAffinity>
-8.49765

$$$$
1764


 34 37  0  0  0  0  0  0  0  0999 V2000
   52.6379   83.8996   20.6764 N   0  0  0  0  0  0  0  0  0  0  0  0
   53.6487   84.4796   19.9345 C   0  0  0  0  0  0  0  0  0  0  0  0
   54.0990   83.4009   18.9394 C   0  0  0  0  0  0  0  0  0  0  0  0
   52.7857   82.7273   18.6077 C   0  0  0  0  0  0  0  0  0  0  0  0
   51.9507   82.9093   19.8524 C   0  0  0  0  0  0  0  0  0  0  0  0
   53.0631   85.6387   19.1459 C   0  0  0  0  0  0  0  0  0  0  0  0
   53.3968   85.7013   17.9552 O   0  0  0  0  0  0  0  0  0  0  0  0
   52.2020   86.5472   19.7851 N   0  0  0  0  0  0  0  0  0  0  0  0
   51.9525   86.4732   20.7921 H   0  0  0  0  0  0  0  0  0  0  0  0
   51.6292   87.6470   19.0480 C   0  0  0  0  0  0  0  0  0  0  0  0
   51.9120   88.9981   19.5834 C   0  0  0  0  0  0  0  0  0  0  0  0
   52.6706   89.8644   18.7526 N   0  0  0  0  0  0  0  0  0  0  0  0
   51.9246   90.6198   17.7996 C   0  0  0  0  0  0  0  0  0  0  0  0
   52.5309   92.0071   17.7304 C   0  0  0  0  0  0  0  0  0  0  0  0
   54.0220   91.8772   17.4970 C   0  0  0  0  0  0  0  0  0  0  0  0
   54.2435   90.8780   16.3935 C   0  0  0  0  0  0  0  0  0  0  0  0
   54.1553   89.4594   16.8172 C   0  0  0  0  0  0  0  0  0  0  0  0
   53.8387   89.2227   18.2459 C   0  0  0  0  0  0  0  0  0  0  0  0
   52.7257   83.4983   22.2849 S   0  0  0  0  0  0  0  0  0  0  0  0
   53.4601   82.1804   22.5246 O   0  0  0  0  0  0  0  0  0  0  0  0
   51.3092   83.2139   22.7886 O   0  0  0  0  0  0  0  0  0  0  0  0
   53.3996   84.7206   23.3218 C   0  0  0  0  0  0  0  0  0  0  0  0
   54.2975   85.6517   22.7731 C   0  0  0  0  0  0  0  0  0  0  0  0
   54.9333   86.6149   23.5028 C   0  0  0  0  0  0  0  0  0  0  0  0
   54.6642   86.6601   24.8587 C   0  0  0  0  0  0  0  0  0  0  0  0
   53.8037   85.7890   25.4562 C   0  0  0  0  0  0  0  0  0  0  0  0
   53.1830   84.8285   24.6663 C   0  0  0  0  0  0  0  0  0  0  0  0
   52.0149   83.8164   25.4863 Cl  0  0  0  0  0  0  0  0  0  0  0  0
   55.3218   87.6719   25.6371 N   0  0  0  0  0  0  0  0  0  0  0  0
   56.2142   88.5811   24.9973 C   0  0  0  0  0  0  0  0  0  0  0  0
   57.1080   89.1437   25.6541 O   0  0  0  0  0  0  0  0  0  0  0  0
   56.0222   88.8135   23.5440 C   0  0  0  0  0  0  0  0  0  0  0  0
   55.8181   87.5315   22.9559 O   0  0  0  0  0  0  0  0  0  0  0  0
   55.1273   87.7182   26.6677 H   0  0  0  0  0  0  0  0  0  0  0  0
 19 20  2  0  0  0
 19 21  2  0  0  0
 19  1  1  0  0  0
 19 22  1  0  0  0
  1  2  1  0  0  0
  1  5  1  0  0  0
  2  3  1  0  0  0
  2  6  1  0  0  0
  3  4  1  0  0  0
  4  5  1  0  0  0
  6  7  2  0  0  0
  6  8  1  0  0  0
  8 10  1  0  0  0
 10 11  1  0  0  0
 11 12  1  0  0  0
 12 13  1  0  0  0
 12 18  1  0  0  0
 13 14  1  0  0  0
 14 15  1  0  0  0
 15 16  1  0  0  0
 16 17  1  0  0  0
 17 18  1  0  0  0
 22 23  2  0  0  0
 22 27  1  0  0  0
 23 24  1  0  0  0
 24 25  2  0  0  0
 24 33  1  0  0  0
 25 26  1  0  0  0
 25 29  1  0  0  0
 26 27  2  0  0  0
 27 28  1  0  0  0
 29 30  1  0  0  0
 30 31  2  0  0  0
 30 32  1  0  0  0
 32 33  1  0  0  0
  8  9  1  0  0  0
 29 34  1  0  0  0
M  END
> <minimizedAffinity>
-9.65478

$$$$
1781


 24 27  0  0  0  0  0  0  0  0999 V2000
   49.3638   98.6634   28.8262 C   0  0  0  0  0  0  0  0  0  0  0  0
   48.6473   97.8169   29.5228 O   0  0  0  0  0  0  0  0  0  0  0  0
   48.7092   99.8382   28.4883 N   0  0  0  0  0  0  0  0  0  0  0  0
   49.1216  100.9548   27.7052 C   0  0  0  0  0  0  0  0  0  0  0  0
   49.5233  102.0340   28.7309 C   0  0  0  0  0  0  0  0  0  0  0  0
   48.5227  101.9933   29.8134 N   0  0  0  0  0  0  0  0  0  0  0  0
   47.2169  101.4889   29.4994 C   0  0  0  0  0  0  0  0  0  0  0  0
   47.3408  100.0381   29.0729 C   0  0  0  0  0  0  0  0  0  0  0  0
   48.8797  102.4537   31.1142 C   0  0  0  0  0  0  0  0  0  0  0  0
   47.9499  102.5986   32.0841 N   0  0  0  0  0  0  0  0  0  0  0  0
   48.2434  103.0246   33.2996 N   0  0  0  0  0  0  0  0  0  0  0  0
   49.4917  103.3468   33.6663 C   0  0  0  0  0  0  0  0  0  0  0  0
   49.5116  103.7512   34.9602 N   0  0  0  0  0  0  0  0  0  0  0  0
   48.2701  103.6804   35.4037 N   0  0  0  0  0  0  0  0  0  0  0  0
   47.4800  103.2407   34.4079 C   0  0  0  0  0  0  0  0  0  0  0  0
   50.5017  103.2246   32.7274 C   0  0  0  0  0  0  0  0  0  0  0  0
   50.1694  102.7794   31.4694 C   0  0  0  0  0  0  0  0  0  0  0  0
   54.8482   96.4332   27.5716 Cl  0  0  0  0  0  0  0  0  0  0  0  0
   53.2577   97.1108   27.9479 C   0  0  0  0  0  0  0  0  0  0  0  0
   52.1269   96.6478   27.3219 C   0  0  0  0  0  0  0  0  0  0  0  0
   50.8920   97.1778   27.6164 C   0  0  0  0  0  0  0  0  0  0  0  0
   50.6944   98.2013   28.5506 C   0  0  0  0  0  0  0  0  0  0  0  0
   51.8443   98.6454   29.1627 C   0  0  0  0  0  0  0  0  0  0  0  0
   53.1133   98.1131   28.8711 C   0  0  0  0  0  0  0  0  0  0  0  0
 18 19  1  0  0  0
 19 20  2  0  0  0
 19 24  1  0  0  0
 20 21  1  0  0  0
 21 22  2  0  0  0
 22 23  1  0  0  0
 22  1  1  0  0  0
 23 24  2  0  0  0
  1  2  2  0  0  0
  1  3  1  0  0  0
  3  4  1  0  0  0
  3  8  1  0  0  0
  4  5  1  0  0  0
  5  6  1  0  0  0
  6  7  1  0  0  0
  6  9  1  0  0  0
  7  8  1  0  0  0
  9 10  2  0  0  0
  9 17  1  0  0  0
 10 11  1  0  0  0
 11 12  1  0  0  0
 11 15  1  0  0  0
 12 13  2  0  0  0
 12 16  1  0  0  0
 13 14  1  0  0  0
 14 15  2  0  0  0
 16 17  2  0  0  0
M  END
> <minimizedAffinity>
-9.53807

$$$$
1788


 30 33  0  0  0  0  0  0  0  0999 V2000
   55.2322   87.9487   21.5004 N   0  0  0  0  0  0  0  0  0  0  0  0
   55.2048   88.9374   20.6788 N   0  0  0  0  0  0  0  0  0  0  0  0
   54.1591   88.8203   19.7769 C   0  0  0  0  0  0  0  0  0  0  0  0
   53.5375   87.6975   20.0846 N   0  0  0  0  0  0  0  0  0  0  0  0
   54.2089   87.1619   21.1601 C   0  0  0  0  0  0  0  0  0  0  0  0
   53.8761   86.0896   21.7085 O   0  0  0  0  0  0  0  0  0  0  0  0
   59.2028   87.2287   25.9542 Cl  0  0  0  0  0  0  0  0  0  0  0  0
   58.0400   87.4437   24.6596 C   0  0  0  0  0  0  0  0  0  0  0  0
   57.0691   88.4272   24.6829 C   0  0  0  0  0  0  0  0  0  0  0  0
   56.1565   88.5903   23.6548 C   0  0  0  0  0  0  0  0  0  0  0  0
   56.1790   87.7649   22.5480 C   0  0  0  0  0  0  0  0  0  0  0  0
   57.1432   86.7795   22.5129 C   0  0  0  0  0  0  0  0  0  0  0  0
   58.0610   86.6166   23.5473 C   0  0  0  0  0  0  0  0  0  0  0  0
   53.9686   89.8317   18.7394 C   0  0  0  0  0  0  0  0  0  0  0  0
   54.2935   89.4903   17.4203 C   0  0  0  0  0  0  0  0  0  0  0  0
   54.2204   90.3587   16.3664 C   0  0  0  0  0  0  0  0  0  0  0  0
   53.8054   91.6695   16.5606 C   0  0  0  0  0  0  0  0  0  0  0  0
   53.4876   92.0148   17.8441 C   0  0  0  0  0  0  0  0  0  0  0  0
   53.5648   91.1229   18.9177 C   0  0  0  0  0  0  0  0  0  0  0  0
   52.4549   87.0458   19.4172 C   0  0  0  0  0  0  0  0  0  0  0  0
   52.7382   85.6805   18.9354 C   0  0  0  0  0  0  0  0  0  0  0  0
   53.3608   85.6607   17.7932 O   0  0  0  0  0  0  0  0  0  0  0  0
   52.4600   84.4469   19.4803 N   0  0  0  0  0  0  0  0  0  0  0  0
   51.7457   84.2148   20.7071 C   0  0  0  0  0  0  0  0  0  0  0  0
   51.5614   82.7151   20.9994 C   0  0  0  0  0  0  0  0  0  0  0  0
   52.8699   82.0557   20.9513 N   0  0  0  0  0  0  0  0  0  0  0  0
   53.6536   82.4295   19.7972 C   0  0  0  0  0  0  0  0  0  0  0  0
   54.8518   82.0777   19.7062 O   0  0  0  0  0  0  0  0  0  0  0  0
   52.9265   83.2341   18.7861 C   0  0  0  0  0  0  0  0  0  0  0  0
   53.2001   81.3965   21.6612 H   0  0  0  0  0  0  0  0  0  0  0  0
  7  8  1  0  0  0
  8  9  2  0  0  0
  8 13  1  0  0  0
  9 10  1  0  0  0
 10 11  2  0  0  0
 11 12  1  0  0  0
 11  1  1  0  0  0
 12 13  2  0  0  0
  1  2  1  0  0  0
  1  5  1  0  0  0
  2  3  2  0  0  0
  3  4  1  0  0  0
  3 14  1  0  0  0
  4  5  1  0  0  0
  4 20  1  0  0  0
  5  6  2  0  0  0
 20 21  1  0  0  0
 21 22  2  0  0  0
 21 23  1  0  0  0
 23 24  1  0  0  0
 23 29  1  0  0  0
 24 25  1  0  0  0
 25 26  1  0  0  0
 26 27  1  0  0  0
 27 28  2  0  0  0
 27 29  1  0  0  0
 14 15  2  0  0  0
 14 19  1  0  0  0
 15 16  1  0  0  0
 16 17  2  0  0  0
 17 18  1  0  0  0
 18 19  2  0  0  0
 26 30  1  0  0  0
M  END
> <minimizedAffinity>
-9.53726

$$$$
1789


 29 32  0  0  0  0  0  0  0  0999 V2000
   48.9776  101.7613   29.3363 N   0  0  0  0  0  0  0  0  0  0  0  0
   48.2599  102.3230   28.3927 N   0  0  0  0  0  0  0  0  0  0  0  0
   48.6373  101.7679   27.2451 N   0  0  0  0  0  0  0  0  0  0  0  0
   49.5985  100.8473   27.4510 C   0  0  0  0  0  0  0  0  0  0  0  0
   49.7988  100.8569   28.7729 C   0  0  0  0  0  0  0  0  0  0  0  0
   50.7898   99.9099   28.9889 C   0  0  0  0  0  0  0  0  0  0  0  0
   51.2521   99.6287   30.1174 O   0  0  0  0  0  0  0  0  0  0  0  0
   51.1886   99.3334   27.8451 N   0  0  0  0  0  0  0  0  0  0  0  0
   50.4467   99.9171   26.8856 C   0  0  0  0  0  0  0  0  0  0  0  0
   50.5160   99.6527   25.6483 O   0  0  0  0  0  0  0  0  0  0  0  0
   47.5196  103.0762   28.5134 H   0  0  0  0  0  0  0  0  0  0  0  0
   48.2218  102.0333   26.3202 H   0  0  0  0  0  0  0  0  0  0  0  0
   48.7214  103.0142   35.1578 Cl  0  0  0  0  0  0  0  0  0  0  0  0
   48.7770  102.6449   33.4327 C   0  0  0  0  0  0  0  0  0  0  0  0
   47.6551  102.5771   32.6565 C   0  0  0  0  0  0  0  0  0  0  0  0
   47.6585  102.2916   31.3069 C   0  0  0  0  0  0  0  0  0  0  0  0
   48.8954  102.0594   30.7134 C   0  0  0  0  0  0  0  0  0  0  0  0
   50.0504  102.1267   31.5034 C   0  0  0  0  0  0  0  0  0  0  0  0
   49.9929  102.4137   32.8380 C   0  0  0  0  0  0  0  0  0  0  0  0
   52.1732   98.3242   27.6414 C   0  0  0  0  0  0  0  0  0  0  0  0
   53.5290   98.5872   27.6377 C   0  0  0  0  0  0  0  0  0  0  0  0
   54.4762   97.6041   27.4407 C   0  0  0  0  0  0  0  0  0  0  0  0
   54.1038   96.2923   27.2327 C   0  0  0  0  0  0  0  0  0  0  0  0
   52.7531   96.0142   27.2334 C   0  0  0  0  0  0  0  0  0  0  0  0
   51.8108   97.0071   27.4328 C   0  0  0  0  0  0  0  0  0  0  0  0
   55.0674   95.3067   27.0341 O   0  0  0  0  0  0  0  0  0  0  0  0
   54.9930   94.3426   26.0294 C   0  0  0  0  0  0  0  0  0  0  0  0
   55.8420   97.8697   27.4368 O   0  0  0  0  0  0  0  0  0  0  0  0
   56.4345   98.2103   26.1970 C   0  0  0  0  0  0  0  0  0  0  0  0
 13 14  1  0  0  0
 14 15  2  0  0  0
 14 19  1  0  0  0
 15 16  1  0  0  0
 16 17  2  0  0  0
 17 18  1  0  0  0
 17  1  1  0  0  0
 18 19  2  0  0  0
  1  2  1  0  0  0
  1  5  1  0  0  0
  2  3  1  0  0  0
  3  4  1  0  0  0
  4  5  2  0  0  0
  4  9  1  0  0  0
  5  6  1  0  0  0
  6  7  2  0  0  0
  6  8  1  0  0  0
  8  9  1  0  0  0
  8 20  1  0  0  0
  9 10  2  0  0  0
 20 21  2  0  0  0
 20 25  1  0  0  0
 21 22  1  0  0  0
 22 23  2  0  0  0
 22 28  1  0  0  0
 23 24  1  0  0  0
 23 26  1  0  0  0
 24 25  2  0  0  0
 26 27  1  0  0  0
 28 29  1  0  0  0
  2 11  1  0  0  0
  3 12  1  0  0  0
M  END
> <minimizedAffinity>
-8.22950

$$$$
1790


 29 32  0  0  0  0  0  0  0  0999 V2000
   54.6789   89.5478   20.3016 N   0  0  0  0  0  0  0  0  0  0  0  0
   55.8309   90.0239   20.7301 N   0  0  0  0  0  0  0  0  0  0  0  0
   56.4451   89.0114   21.3290 N   0  0  0  0  0  0  0  0  0  0  0  0
   55.7014   87.8924   21.2902 C   0  0  0  0  0  0  0  0  0  0  0  0
   54.5824   88.2454   20.6356 C   0  0  0  0  0  0  0  0  0  0  0  0
   53.8198   87.0935   20.5973 C   0  0  0  0  0  0  0  0  0  0  0  0
   52.6794   87.0533   20.0469 O   0  0  0  0  0  0  0  0  0  0  0  0
   54.4355   86.0638   21.2017 N   0  0  0  0  0  0  0  0  0  0  0  0
   55.6072   86.5598   21.6333 C   0  0  0  0  0  0  0  0  0  0  0  0
   56.4773   85.8848   22.2602 O   0  0  0  0  0  0  0  0  0  0  0  0
   56.1711   91.0079   20.6103 H   0  0  0  0  0  0  0  0  0  0  0  0
   57.3857   89.0722   21.7752 H   0  0  0  0  0  0  0  0  0  0  0  0
   50.4843   92.6106   17.3074 Cl  0  0  0  0  0  0  0  0  0  0  0  0
   51.7185   91.6877   18.1750 C   0  0  0  0  0  0  0  0  0  0  0  0
   52.3693   92.2513   19.2532 C   0  0  0  0  0  0  0  0  0  0  0  0
   53.3309   91.5723   19.9543 C   0  0  0  0  0  0  0  0  0  0  0  0
   53.6887   90.2803   19.6003 C   0  0  0  0  0  0  0  0  0  0  0  0
   53.0251   89.7307   18.5158 C   0  0  0  0  0  0  0  0  0  0  0  0
   52.0564   90.4113   17.8080 C   0  0  0  0  0  0  0  0  0  0  0  0
   53.9094   84.7446   21.3273 C   0  0  0  0  0  0  0  0  0  0  0  0
   53.2636   84.3146   22.4689 C   0  0  0  0  0  0  0  0  0  0  0  0
   52.7458   83.0438   22.6135 C   0  0  0  0  0  0  0  0  0  0  0  0
   52.8819   82.1589   21.5645 C   0  0  0  0  0  0  0  0  0  0  0  0
   53.5188   82.5342   20.3996 C   0  0  0  0  0  0  0  0  0  0  0  0
   54.0249   83.8267   20.3011 C   0  0  0  0  0  0  0  0  0  0  0  0
   53.6368   81.6153   19.3650 O   0  0  0  0  0  0  0  0  0  0  0  0
   53.7486   82.0145   18.0266 C   0  0  0  0  0  0  0  0  0  0  0  0
   52.0950   82.6545   23.8001 O   0  0  0  0  0  0  0  0  0  0  0  0
   51.4746   83.6395   24.5936 C   0  0  0  0  0  0  0  0  0  0  0  0
 13 14  1  0  0  0
 14 15  2  0  0  0
 14 19  1  0  0  0
 15 16  1  0  0  0
 16 17  2  0  0  0
 17 18  1  0  0  0
 17  1  1  0  0  0
 18 19  2  0  0  0
  1  2  1  0  0  0
  1  5  1  0  0  0
  2  3  1  0  0  0
  3  4  1  0  0  0
  4  5  2  0  0  0
  4  9  1  0  0  0
  5  6  1  0  0  0
  6  7  2  0  0  0
  6  8  1  0  0  0
  8  9  1  0  0  0
  8 20  1  0  0  0
  9 10  2  0  0  0
 20 21  2  0  0  0
 20 25  1  0  0  0
 21 22  1  0  0  0
 22 23  2  0  0  0
 22 28  1  0  0  0
 23 24  1  0  0  0
 24 25  2  0  0  0
 24 26  1  0  0  0
 26 27  1  0  0  0
 28 29  1  0  0  0
  2 11  1  0  0  0
  3 12  1  0  0  0
M  END
> <minimizedAffinity>
-7.82429

$$$$
1801


 26 29  0  0  0  0  0  0  0  0999 V2000
   57.2976   87.6874   23.7824 Cl  0  0  0  0  0  0  0  0  0  0  0  0
   56.1550   88.1142   22.5088 C   0  0  0  0  0  0  0  0  0  0  0  0
   55.3926   87.1351   21.8967 C   0  0  0  0  0  0  0  0  0  0  0  0
   54.5026   87.4529   20.9082 C   0  0  0  0  0  0  0  0  0  0  0  0
   54.4064   88.7784   20.5582 C   0  0  0  0  0  0  0  0  0  0  0  0
   55.1487   89.7676   21.1485 C   0  0  0  0  0  0  0  0  0  0  0  0
   56.0462   89.4318   22.1484 C   0  0  0  0  0  0  0  0  0  0  0  0
   53.4558   89.1587   19.4945 C   0  0  0  0  0  0  0  0  0  0  0  0
   53.1449   90.2861   18.9581 N   0  0  0  0  0  0  0  0  0  0  0  0
   52.1446   90.1446   17.9398 C   0  0  0  0  0  0  0  0  0  0  0  0
   51.8436   88.6822   17.9003 C   0  0  0  0  0  0  0  0  0  0  0  0
   52.7051   88.1093   18.9073 N   0  0  0  0  0  0  0  0  0  0  0  0
   52.8458   86.7400   19.3118 C   0  0  0  0  0  0  0  0  0  0  0  0
   52.2544   85.6066   18.9063 N   0  0  0  0  0  0  0  0  0  0  0  0
   52.7247   84.5788   19.5906 N   0  0  0  0  0  0  0  0  0  0  0  0
   53.6307   85.0938   20.4394 C   0  0  0  0  0  0  0  0  0  0  0  0
   54.2912   84.4097   21.2582 O   0  0  0  0  0  0  0  0  0  0  0  0
   53.7251   86.4418   20.2849 N   0  0  0  0  0  0  0  0  0  0  0  0
   52.3575   83.1714   19.4708 C   0  0  0  0  0  0  0  0  0  0  0  0
   53.0544   82.5925   18.2981 C   0  0  0  0  0  0  0  0  0  0  0  0
   53.7860   81.5767   18.4669 O   0  0  0  0  0  0  0  0  0  0  0  0
   52.9347   83.1312   16.9902 N   0  0  0  0  0  0  0  0  0  0  0  0
   52.3279   83.9675   16.8696 H   0  0  0  0  0  0  0  0  0  0  0  0
   53.6350   82.5318   15.8768 C   0  0  0  0  0  0  0  0  0  0  0  0
   52.6422   82.0409   14.8195 C   0  0  0  0  0  0  0  0  0  0  0  0
   54.4310   83.6461   15.2112 C   0  0  0  0  0  0  0  0  0  0  0  0
  1  2  1  0  0  0
  2  3  2  0  0  0
  2  7  1  0  0  0
  3  4  1  0  0  0
  4  5  2  0  0  0
  4 18  1  0  0  0
  5  6  1  0  0  0
  5  8  1  0  0  0
  6  7  2  0  0  0
  8  9  2  0  0  0
  8 12  1  0  0  0
  9 10  1  0  0  0
 10 11  1  0  0  0
 11 12  1  0  0  0
 12 13  1  0  0  0
 13 14  2  0  0  0
 13 18  1  0  0  0
 14 15  1  0  0  0
 15 16  1  0  0  0
 15 19  1  0  0  0
 16 17  2  0  0  0
 16 18  1  0  0  0
 19 20  1  0  0  0
 20 21  2  0  0  0
 20 22  1  0  0  0
 22 24  1  0  0  0
 24 25  1  0  0  0
 24 26  1  0  0  0
 22 23  1  0  0  0
M  END
> <minimizedAffinity>
-8.76341

$$$$
1802


 27 30  0  0  0  0  0  0  0  0999 V2000
   53.3775   92.0138   18.8681 Cl  0  0  0  0  0  0  0  0  0  0  0  0
   53.2396   90.2626   19.0473 C   0  0  0  0  0  0  0  0  0  0  0  0
   54.0964   89.6212   19.9455 C   0  0  0  0  0  0  0  0  0  0  0  0
   54.0372   88.2563   20.1410 C   0  0  0  0  0  0  0  0  0  0  0  0
   53.0943   87.5660   19.4052 C   0  0  0  0  0  0  0  0  0  0  0  0
   52.2450   88.1487   18.5239 C   0  0  0  0  0  0  0  0  0  0  0  0
   52.3126   89.5373   18.3331 C   0  0  0  0  0  0  0  0  0  0  0  0
   53.0423   86.0992   19.6316 C   0  0  0  0  0  0  0  0  0  0  0  0
   52.2901   85.1768   19.1124 N   0  0  0  0  0  0  0  0  0  0  0  0
   52.6229   83.8823   19.6608 C   0  0  0  0  0  0  0  0  0  0  0  0
   53.7322   84.1030   20.6592 C   0  0  0  0  0  0  0  0  0  0  0  0
   53.9383   85.5383   20.5556 N   0  0  0  0  0  0  0  0  0  0  0  0
   54.8860   86.3227   21.2776 C   0  0  0  0  0  0  0  0  0  0  0  0
   55.8138   85.9921   22.1999 N   0  0  0  0  0  0  0  0  0  0  0  0
   56.4516   87.0939   22.5892 N   0  0  0  0  0  0  0  0  0  0  0  0
   55.8981   88.0852   21.8945 C   0  0  0  0  0  0  0  0  0  0  0  0
   56.2279   89.3009   21.9805 O   0  0  0  0  0  0  0  0  0  0  0  0
   54.9169   87.6350   21.0640 N   0  0  0  0  0  0  0  0  0  0  0  0
   57.5220   87.1755   23.5870 C   0  0  0  0  0  0  0  0  0  0  0  0
   56.7610   87.6468   24.8649 C   0  0  0  0  0  0  0  0  0  0  0  0
   57.3844   88.6597   25.3413 O   0  0  0  0  0  0  0  0  0  0  0  0
   55.6616   87.0057   25.2842 N   0  0  0  0  0  0  0  0  0  0  0  0
   55.4951   87.9286   26.2658 H   0  0  0  0  0  0  0  0  0  0  0  0
   54.5315   86.3467   25.7156 C   0  0  0  0  0  0  0  0  0  0  0  0
   54.7110   84.8241   25.7352 C   0  0  0  0  0  0  0  0  0  0  0  0
   54.2610   84.2491   24.5708 O   0  0  0  0  0  0  0  0  0  0  0  0
   52.9844   84.5712   24.2112 C   0  0  0  0  0  0  0  0  0  0  0  0
  1  2  1  0  0  0
  2  3  2  0  0  0
  2  7  1  0  0  0
  3  4  1  0  0  0
  4  5  2  0  0  0
  4 18  1  0  0  0
  5  6  1  0  0  0
  5  8  1  0  0  0
  6  7  2  0  0  0
  8  9  2  0  0  0
  8 12  1  0  0  0
  9 10  1  0  0  0
 10 11  1  0  0  0
 11 12  1  0  0  0
 12 13  1  0  0  0
 13 14  2  0  0  0
 13 18  1  0  0  0
 14 15  1  0  0  0
 15 16  1  0  0  0
 15 19  1  0  0  0
 16 17  2  0  0  0
 16 18  1  0  0  0
 19 20  1  0  0  0
 20 21  2  0  0  0
 20 22  1  0  0  0
 22 24  1  0  0  0
 24 25  1  0  0  0
 25 26  1  0  0  0
 26 27  1  0  0  0
 22 23  1  0  0  0
M  END
> <minimizedAffinity>
-8.17568

$$$$
1804


 26 30  0  0  0  0  0  0  0  0999 V2000
   54.0466   91.2780   17.9047 Cl  0  0  0  0  0  0  0  0  0  0  0  0
   54.5476   90.4047   19.3363 C   0  0  0  0  0  0  0  0  0  0  0  0
   54.2216   89.0777   19.5621 C   0  0  0  0  0  0  0  0  0  0  0  0
   54.6220   88.4025   20.6912 C   0  0  0  0  0  0  0  0  0  0  0  0
   55.3706   89.1105   21.5999 C   0  0  0  0  0  0  0  0  0  0  0  0
   55.7233   90.4283   21.4276 C   0  0  0  0  0  0  0  0  0  0  0  0
   55.3006   91.0856   20.2697 C   0  0  0  0  0  0  0  0  0  0  0  0
   55.8174   88.4189   22.8244 C   0  0  0  0  0  0  0  0  0  0  0  0
   56.5131   88.8224   23.8242 N   0  0  0  0  0  0  0  0  0  0  0  0
   56.7067   87.7861   24.8028 C   0  0  0  0  0  0  0  0  0  0  0  0
   55.9881   86.6027   24.2376 C   0  0  0  0  0  0  0  0  0  0  0  0
   55.4469   87.0655   22.9869 N   0  0  0  0  0  0  0  0  0  0  0  0
   54.6589   86.3720   21.9974 C   0  0  0  0  0  0  0  0  0  0  0  0
   54.1929   85.1097   21.9347 N   0  0  0  0  0  0  0  0  0  0  0  0
   53.5122   84.9493   20.8127 N   0  0  0  0  0  0  0  0  0  0  0  0
   53.5669   86.1360   20.1859 C   0  0  0  0  0  0  0  0  0  0  0  0
   53.0142   86.3453   19.0686 O   0  0  0  0  0  0  0  0  0  0  0  0
   54.2725   87.0404   20.8984 N   0  0  0  0  0  0  0  0  0  0  0  0
   52.8332   83.7336   20.3401 C   0  0  0  0  0  0  0  0  0  0  0  0
   53.8661   82.8034   19.8132 C   0  0  0  0  0  0  0  0  0  0  0  0
   54.4553   82.0802   20.6555 O   0  0  0  0  0  0  0  0  0  0  0  0
   54.1792   82.7305   18.4293 N   0  0  0  0  0  0  0  0  0  0  0  0
   55.1760   81.8457   17.8572 C   0  0  0  0  0  0  0  0  0  0  0  0
   55.3104   82.2373   16.4101 C   0  0  0  0  0  0  0  0  0  0  0  0
   54.7756   83.6545   16.4171 C   0  0  0  0  0  0  0  0  0  0  0  0
   53.5802   83.4985   17.3632 C   0  0  0  0  0  0  0  0  0  0  0  0
  1  2  1  0  0  0
  2  3  2  0  0  0
  2  7  1  0  0  0
  3  4  1  0  0  0
  4  5  2  0  0  0
  4 18  1  0  0  0
  5  6  1  0  0  0
  5  8  1  0  0  0
  6  7  2  0  0  0
  8  9  2  0  0  0
  8 12  1  0  0  0
  9 10  1  0  0  0
 10 11  1  0  0  0
 11 12  1  0  0  0
 12 13  1  0  0  0
 13 14  2  0  0  0
 13 18  1  0  0  0
 14 15  1  0  0  0
 15 16  1  0  0  0
 15 19  1  0  0  0
 16 17  2  0  0  0
 16 18  1  0  0  0
 19 20  1  0  0  0
 20 21  2  0  0  0
 20 22  1  0  0  0
 22 23  1  0  0  0
 22 26  1  0  0  0
 23 24  1  0  0  0
 24 25  1  0  0  0
 25 26  1  0  0  0
M  END
> <minimizedAffinity>
-9.13550

$$$$
1806


 32 35  0  0  0  0  0  0  0  0999 V2000
   55.7587   90.2021   21.9309 N   0  0  0  0  0  0  0  0  0  0  0  0
   56.7730   89.9224   20.9356 C   0  0  0  0  0  0  0  0  0  0  0  0
   56.1617   90.2420   19.5618 C   0  0  0  0  0  0  0  0  0  0  0  0
   54.7731   90.5386   19.6504 N   0  0  0  0  0  0  0  0  0  0  0  0
   54.4579   91.7188   20.4536 C   0  0  0  0  0  0  0  0  0  0  0  0
   55.0393   91.4564   21.8222 C   0  0  0  0  0  0  0  0  0  0  0  0
   52.7623   81.8287   21.3452 Cl  0  0  0  0  0  0  0  0  0  0  0  0
   53.3544   83.4811   21.5069 C   0  0  0  0  0  0  0  0  0  0  0  0
   53.5802   84.0640   22.7158 C   0  0  0  0  0  0  0  0  0  0  0  0
   54.0446   85.3622   22.7940 C   0  0  0  0  0  0  0  0  0  0  0  0
   54.2875   86.0871   21.6554 C   0  0  0  0  0  0  0  0  0  0  0  0
   54.0590   85.4980   20.4388 C   0  0  0  0  0  0  0  0  0  0  0  0
   53.5939   84.1974   20.3566 C   0  0  0  0  0  0  0  0  0  0  0  0
   54.7727   87.4484   21.6986 N   0  0  0  0  0  0  0  0  0  0  0  0
   55.0217   88.0951   22.9314 C   0  0  0  0  0  0  0  0  0  0  0  0
   55.4625   89.3285   23.0119 C   0  0  0  0  0  0  0  0  0  0  0  0
   54.7730   87.3493   24.1441 N   0  0  0  0  0  0  0  0  0  0  0  0
   54.2966   86.0178   24.0693 C   0  0  0  0  0  0  0  0  0  0  0  0
   54.0691   85.3382   25.1283 O   0  0  0  0  0  0  0  0  0  0  0  0
   54.9386   87.9467   20.8070 H   0  0  0  0  0  0  0  0  0  0  0  0
   54.9443   87.7930   25.0680 H   0  0  0  0  0  0  0  0  0  0  0  0
   53.6716   89.8453   19.0899 C   0  0  0  0  0  0  0  0  0  0  0  0
   53.0157   88.9173   19.8807 N   0  0  0  0  0  0  0  0  0  0  0  0
   51.9780   88.1915   19.4691 C   0  0  0  0  0  0  0  0  0  0  0  0
   51.5312   88.3716   18.1897 C   0  0  0  0  0  0  0  0  0  0  0  0
   52.1534   89.2796   17.3803 C   0  0  0  0  0  0  0  0  0  0  0  0
   53.2513   90.0516   17.8100 C   0  0  0  0  0  0  0  0  0  0  0  0
   53.8598   91.0162   16.9453 C   0  0  0  0  0  0  0  0  0  0  0  0
   53.6527   92.2275   16.9622 O   0  0  0  0  0  0  0  0  0  0  0  0
   54.7896   90.5603   15.9706 N   0  0  0  0  0  0  0  0  0  0  0  0
   55.7179   90.1756   16.2569 H   0  0  0  0  0  0  0  0  0  0  0  0
   54.6066   90.5820   14.9431 H   0  0  0  0  0  0  0  0  0  0  0  0
  7  8  1  0  0  0
  8  9  2  0  0  0
  8 13  1  0  0  0
  9 10  1  0  0  0
 10 11  2  0  0  0
 10 18  1  0  0  0
 11 12  1  0  0  0
 11 14  1  0  0  0
 12 13  2  0  0  0
 14 15  1  0  0  0
 15 16  2  0  0  0
 15 17  1  0  0  0
 16  1  1  0  0  0
  1  2  1  0  0  0
  1  6  1  0  0  0
  2  3  1  0  0  0
  3  4  1  0  0  0
  4  5  1  0  0  0
  4 22  1  0  0  0
  5  6  1  0  0  0
 22 23  2  0  0  0
 22 27  1  0  0  0
 23 24  1  0  0  0
 24 25  2  0  0  0
 25 26  1  0  0  0
 26 27  2  0  0  0
 27 28  1  0  0  0
 28 29  2  0  0  0
 28 30  1  0  0  0
 17 18  1  0  0  0
 18 19  2  0  0  0
 14 20  1  0  0  0
 30 31  1  0  0  0
 30 32  1  0  0  0
 17 21  1  0  0  0
M  END
> <minimizedAffinity>
-8.42384

$$$$
1808


 24 28  0  0  0  0  0  0  0  0999 V2000
   54.9525   88.3255   20.5408 N   0  0  0  0  0  0  0  0  0  0  0  0
   54.5463   87.0531   21.0199 C   0  0  0  0  0  0  0  0  0  0  0  0
   53.4836   86.4790   20.6809 O   0  0  0  0  0  0  0  0  0  0  0  0
   55.5736   86.5385   21.9647 C   0  0  0  0  0  0  0  0  0  0  0  0
   55.2432   86.8593   23.3898 C   0  0  0  0  0  0  0  0  0  0  0  0
   56.5420   86.9920   23.9292 O   0  0  0  0  0  0  0  0  0  0  0  0
   56.9675   88.0522   23.0898 C   0  0  0  0  0  0  0  0  0  0  0  0
   56.7886   87.4405   21.7431 C   0  0  0  0  0  0  0  0  0  0  0  0
   56.3552   88.4705   20.7610 C   0  0  0  0  0  0  0  0  0  0  0  0
   57.1017   89.3014   20.2370 O   0  0  0  0  0  0  0  0  0  0  0  0
   55.8542   89.0081   23.3248 C   0  0  0  0  0  0  0  0  0  0  0  0
   54.7683   88.2507   23.4478 C   0  0  0  0  0  0  0  0  0  0  0  0
   51.0580   92.2605   17.9972 Br  0  0  0  0  0  0  0  0  0  0  0  0
   52.2750   91.0432   18.7938 C   0  0  0  0  0  0  0  0  0  0  0  0
   53.1554   91.4929   19.7478 C   0  0  0  0  0  0  0  0  0  0  0  0
   54.0271   90.5867   20.3104 C   0  0  0  0  0  0  0  0  0  0  0  0
   54.0417   89.2586   19.9459 C   0  0  0  0  0  0  0  0  0  0  0  0
   53.1522   88.8026   18.9826 C   0  0  0  0  0  0  0  0  0  0  0  0
   52.2694   89.7240   18.4154 C   0  0  0  0  0  0  0  0  0  0  0  0
   54.4302   85.8600   24.0938 C   0  0  0  0  0  0  0  0  0  0  0  0
   53.7642   86.3505   25.1834 O   0  0  0  0  0  0  0  0  0  0  0  0
   54.3231   85.8192   26.3187 C   0  0  0  0  0  0  0  0  0  0  0  0
   55.4236   84.9172   25.8656 C   0  0  0  0  0  0  0  0  0  0  0  0
   55.1858   84.7760   24.5031 O   0  0  0  0  0  0  0  0  0  0  0  0
 13 14  1  0  0  0
 14 15  2  0  0  0
 14 19  1  0  0  0
 15 16  1  0  0  0
 16 17  2  0  0  0
 17 18  1  0  0  0
 17  1  1  0  0  0
 18 19  2  0  0  0
  1  2  1  0  0  0
  1  9  1  0  0  0
  2  3  2  0  0  0
  2  4  1  0  0  0
  4  5  1  0  0  0
  4  8  1  0  0  0
  5  6  1  0  0  0
  5 12  1  0  0  0
  5 20  1  0  0  0
  6  7  1  0  0  0
  7  8  1  0  0  0
  7 11  1  0  0  0
  8  9  1  0  0  0
  9 10  2  0  0  0
 11 12  2  0  0  0
 20 21  1  0  0  0
 20 24  1  0  0  0
 21 22  1  0  0  0
 22 23  1  0  0  0
 23 24  1  0  0  0
M  END
> <minimizedAffinity>
-8.17967

$$$$
1810


 32 35  0  0  0  0  0  0  0  0999 V2000
   53.1654   85.5183   24.8713 N   0  0  0  0  0  0  0  0  0  0  0  0
   54.0019   84.5978   24.1432 C   0  0  0  0  0  0  0  0  0  0  0  0
   55.1253   85.3913   23.5182 C   0  0  0  0  0  0  0  0  0  0  0  0
   55.1451   86.7170   24.0809 N   0  0  0  0  0  0  0  0  0  0  0  0
   54.9402   86.9463   25.5065 C   0  0  0  0  0  0  0  0  0  0  0  0
   53.9033   85.9549   26.0393 C   0  0  0  0  0  0  0  0  0  0  0  0
   55.3558   87.8282   23.2450 C   0  0  0  0  0  0  0  0  0  0  0  0
   55.4107   88.9953   23.7674 O   0  0  0  0  0  0  0  0  0  0  0  0
   55.5089   87.6518   21.7752 C   0  0  0  0  0  0  0  0  0  0  0  0
   54.1942   87.6549   21.0494 C   0  0  0  0  0  0  0  0  0  0  0  0
   54.0994   88.9681   20.4194 N   0  0  0  0  0  0  0  0  0  0  0  0
   55.2197   89.7537   20.7815 C   0  0  0  0  0  0  0  0  0  0  0  0
   55.2474   91.0076   20.7580 O   0  0  0  0  0  0  0  0  0  0  0  0
   56.2757   88.7924   21.1651 C   0  0  0  0  0  0  0  0  0  0  0  0
   53.0154   89.3903   19.5621 C   0  0  0  0  0  0  0  0  0  0  0  0
   53.5114   89.9994   18.3052 C   0  0  0  0  0  0  0  0  0  0  0  0
   53.2997   91.3515   18.0794 C   0  0  0  0  0  0  0  0  0  0  0  0
   53.7326   91.9894   16.9294 C   0  0  0  0  0  0  0  0  0  0  0  0
   54.3949   91.2214   15.9935 C   0  0  0  0  0  0  0  0  0  0  0  0
   54.6233   89.8700   16.1869 C   0  0  0  0  0  0  0  0  0  0  0  0
   54.1761   89.2540   17.3550 C   0  0  0  0  0  0  0  0  0  0  0  0
   52.4564   92.2666   19.2992 Cl  0  0  0  0  0  0  0  0  0  0  0  0
   51.6596   84.8012   25.2877 S   0  0  0  0  0  0  0  0  0  0  0  0
   50.8513   84.4617   24.0678 O   0  0  0  0  0  0  0  0  0  0  0  0
   50.8657   85.8562   26.0285 O   0  0  0  0  0  0  0  0  0  0  0  0
   51.8699   83.4254   26.3276 C   0  0  0  0  0  0  0  0  0  0  0  0
   52.0732   82.0959   26.0331 C   0  0  0  0  0  0  0  0  0  0  0  0
   52.1669   81.4199   27.2190 N   0  0  0  0  0  0  0  0  0  0  0  0
   52.0313   82.2722   28.1635 O   0  0  0  0  0  0  0  0  0  0  0  0
   51.8504   83.4887   27.7079 C   0  0  0  0  0  0  0  0  0  0  0  0
   51.6665   84.6692   28.5803 C   0  0  0  0  0  0  0  0  0  0  0  0
   52.1764   81.5310   24.6742 C   0  0  0  0  0  0  0  0  0  0  0  0
 23 24  2  0  0  0
 23 25  2  0  0  0
 23  1  1  0  0  0
 23 26  1  0  0  0
  1  2  1  0  0  0
  1  6  1  0  0  0
  2  3  1  0  0  0
  3  4  1  0  0  0
  4  5  1  0  0  0
  4  7  1  0  0  0
  5  6  1  0  0  0
  7  8  2  0  0  0
  7  9  1  0  0  0
  9 10  1  0  0  0
  9 14  1  0  0  0
 10 11  1  0  0  0
 11 12  1  0  0  0
 11 15  1  0  0  0
 12 13  2  0  0  0
 12 14  1  0  0  0
 15 16  1  0  0  0
 16 17  2  0  0  0
 16 21  1  0  0  0
 17 18  1  0  0  0
 17 22  1  0  0  0
 18 19  2  0  0  0
 19 20  1  0  0  0
 20 21  2  0  0  0
 26 27  1  0  0  0
 26 30  2  0  0  0
 27 28  2  0  0  0
 27 32  1  0  0  0
 28 29  1  0  0  0
 29 30  1  0  0  0
 30 31  1  0  0  0
M  END
> <minimizedAffinity>
-8.77194

$$$$
1816


 36 39  0  0  0  0  0  0  0  0999 V2000
   52.0013   99.8353   27.8717 C   0  0  0  0  0  0  0  0  0  0  0  0
   52.4963  100.3449   26.8078 O   0  0  0  0  0  0  0  0  0  0  0  0
   50.7534  100.2766   28.2746 N   0  0  0  0  0  0  0  0  0  0  0  0
   50.0024  101.2651   27.5655 C   0  0  0  0  0  0  0  0  0  0  0  0
   49.7565  102.4389   28.5156 C   0  0  0  0  0  0  0  0  0  0  0  0
   49.1207  101.9662   29.6985 N   0  0  0  0  0  0  0  0  0  0  0  0
   48.8720  100.5109   29.7787 C   0  0  0  0  0  0  0  0  0  0  0  0
   50.1357   99.7409   29.4659 C   0  0  0  0  0  0  0  0  0  0  0  0
   48.7192  102.7628   30.7915 C   0  0  0  0  0  0  0  0  0  0  0  0
   48.1380  102.0690   31.7647 O   0  0  0  0  0  0  0  0  0  0  0  0
   48.8235  104.1692   31.0395 C   0  0  0  0  0  0  0  0  0  0  0  0
   49.7463  104.6375   32.0090 C   0  0  0  0  0  0  0  0  0  0  0  0
   49.8725  105.9739   32.2793 C   0  0  0  0  0  0  0  0  0  0  0  0
   50.6996  106.3633   33.1452 O   0  0  0  0  0  0  0  0  0  0  0  0
   49.1438  106.9095   31.6567 N   0  0  0  0  0  0  0  0  0  0  0  0
   48.2756  106.4696   30.7450 C   0  0  0  0  0  0  0  0  0  0  0  0
   47.5576  107.3203   30.1243 O   0  0  0  0  0  0  0  0  0  0  0  0
   48.1239  105.1314   30.4487 N   0  0  0  0  0  0  0  0  0  0  0  0
   49.2899  108.3150   31.9577 C   0  0  0  0  0  0  0  0  0  0  0  0
   47.4232  104.8938   29.7196 H   0  0  0  0  0  0  0  0  0  0  0  0
   52.8165   98.8108   28.5809 C   0  0  0  0  0  0  0  0  0  0  0  0
   57.7058   94.9519   24.0302 Cl  0  0  0  0  0  0  0  0  0  0  0  0
   56.1550   95.1883   24.8033 C   0  0  0  0  0  0  0  0  0  0  0  0
   55.9019   96.2731   25.6372 C   0  0  0  0  0  0  0  0  0  0  0  0
   54.6832   96.4552   26.2448 C   0  0  0  0  0  0  0  0  0  0  0  0
   53.6887   95.5331   26.0150 C   0  0  0  0  0  0  0  0  0  0  0  0
   53.9473   94.4426   25.1740 C   0  0  0  0  0  0  0  0  0  0  0  0
   55.1682   94.2592   24.5663 C   0  0  0  0  0  0  0  0  0  0  0  0
   52.5205   95.6950   26.5876 O   0  0  0  0  0  0  0  0  0  0  0  0
   52.2509   96.7042   27.3793 C   0  0  0  0  0  0  0  0  0  0  0  0
   51.1005   96.8275   27.9184 O   0  0  0  0  0  0  0  0  0  0  0  0
   53.1841   97.6949   27.6800 C   0  0  0  0  0  0  0  0  0  0  0  0
   54.4159   97.5404   27.0854 C   0  0  0  0  0  0  0  0  0  0  0  0
   55.4762   98.5156   27.3199 C   0  0  0  0  0  0  0  0  0  0  0  0
   55.4188   93.1605   23.7238 O   0  0  0  0  0  0  0  0  0  0  0  0
   54.8056   93.0331   22.4647 C   0  0  0  0  0  0  0  0  0  0  0  0
 22 23  1  0  0  0
 23 24  2  0  0  0
 23 28  1  0  0  0
 24 25  1  0  0  0
 25 26  2  0  0  0
 25 33  1  0  0  0
 26 27  1  0  0  0
 26 29  1  0  0  0
 27 28  2  0  0  0
 28 35  1  0  0  0
 35 36  1  0  0  0
 29 30  1  0  0  0
 30 31  2  0  0  0
 30 32  1  0  0  0
 32 33  2  0  0  0
 32 21  1  0  0  0
 33 34  1  0  0  0
 21  1  1  0  0  0
  1  2  2  0  0  0
  1  3  1  0  0  0
  3  4  1  0  0  0
  3  8  1  0  0  0
  4  5  1  0  0  0
  5  6  1  0  0  0
  6  7  1  0  0  0
  6  9  1  0  0  0
  7  8  1  0  0  0
  9 10  2  0  0  0
  9 11  1  0  0  0
 11 12  2  0  0  0
 11 18  1  0  0  0
 12 13  1  0  0  0
 13 14  2  0  0  0
 13 15  1  0  0  0
 15 16  1  0  0  0
 15 19  1  0  0  0
 16 17  2  0  0  0
 16 18  1  0  0  0
 18 20  1  0  0  0
M  END
> <minimizedAffinity>
-9.78080

$$$$
1822


 24 27  0  0  0  0  0  0  0  0999 V2000
   56.3585   85.0852   25.3087 Cl  0  0  0  0  0  0  0  0  0  0  0  0
   56.2302   86.3804   24.1231 C   0  0  0  0  0  0  0  0  0  0  0  0
   57.1181   87.4297   24.2011 C   0  0  0  0  0  0  0  0  0  0  0  0
   57.0116   88.4116   23.2921 N   0  0  0  0  0  0  0  0  0  0  0  0
   56.0716   88.4049   22.3110 C   0  0  0  0  0  0  0  0  0  0  0  0
   55.2004   87.3856   22.2248 N   0  0  0  0  0  0  0  0  0  0  0  0
   54.3876   87.6044   21.1954 N   0  0  0  0  0  0  0  0  0  0  0  0
   54.7089   88.7650   20.5891 C   0  0  0  0  0  0  0  0  0  0  0  0
   55.7592   89.2405   21.3043 N   0  0  0  0  0  0  0  0  0  0  0  0
   55.2787   86.3771   23.1272 C   0  0  0  0  0  0  0  0  0  0  0  0
   54.4554   85.4111   23.0473 O   0  0  0  0  0  0  0  0  0  0  0  0
   58.1632   87.4524   25.2798 C   0  0  0  0  0  0  0  0  0  0  0  0
   57.6839   89.2131   23.3466 H   0  0  0  0  0  0  0  0  0  0  0  0
   54.0864   89.3613   19.4543 N   0  0  0  0  0  0  0  0  0  0  0  0
   52.7004   89.3164   19.1446 C   0  0  0  0  0  0  0  0  0  0  0  0
   51.7374   89.0695   19.9158 O   0  0  0  0  0  0  0  0  0  0  0  0
   52.5127   89.6210   17.6852 C   0  0  0  0  0  0  0  0  0  0  0  0
   53.8215   90.1474   17.2149 C   0  0  0  0  0  0  0  0  0  0  0  0
   53.7885   91.5946   16.7568 C   0  0  0  0  0  0  0  0  0  0  0  0
   53.1006   92.3670   17.8408 C   0  0  0  0  0  0  0  0  0  0  0  0
   51.9284   91.8887   18.2170 C   0  0  0  0  0  0  0  0  0  0  0  0
   51.4287   90.6674   17.5414 C   0  0  0  0  0  0  0  0  0  0  0  0
   54.6868   90.1100   18.4089 C   0  0  0  0  0  0  0  0  0  0  0  0
   55.8271   90.6699   18.5062 O   0  0  0  0  0  0  0  0  0  0  0  0
  1  2  1  0  0  0
  2  3  2  0  0  0
  2 10  1  0  0  0
  3  4  1  0  0  0
  3 12  1  0  0  0
  4  5  1  0  0  0
  5  6  1  0  0  0
  5  9  2  0  0  0
  6  7  1  0  0  0
  6 10  1  0  0  0
  7  8  2  0  0  0
  8  9  1  0  0  0
  8 14  1  0  0  0
 14 15  1  0  0  0
 14 23  1  0  0  0
 15 16  2  0  0  0
 15 17  1  0  0  0
 17 18  1  0  0  0
 17 22  1  0  0  0
 18 19  1  0  0  0
 18 23  1  0  0  0
 19 20  1  0  0  0
 20 21  2  0  0  0
 21 22  1  0  0  0
 23 24  2  0  0  0
 10 11  2  0  0  0
  4 13  1  0  0  0
M  END
> <minimizedAffinity>
-9.01501

$$$$
1825


 29 32  0  0  0  0  0  0  0  0999 V2000
   53.2593   84.8021   22.1322 N   0  0  0  0  0  0  0  0  0  0  0  0
   52.7123   84.5741   23.3636 C   0  0  0  0  0  0  0  0  0  0  0  0
   53.4923   85.1354   24.3022 N   0  0  0  0  0  0  0  0  0  0  0  0
   54.5461   85.7358   23.7347 C   0  0  0  0  0  0  0  0  0  0  0  0
   54.3690   85.5070   22.3622 C   0  0  0  0  0  0  0  0  0  0  0  0
   52.9029   84.8768   25.6158 C   0  0  0  0  0  0  0  0  0  0  0  0
   51.9043   83.7576   25.3892 C   0  0  0  0  0  0  0  0  0  0  0  0
   51.5230   83.9153   23.9605 C   0  0  0  0  0  0  0  0  0  0  0  0
   55.6722   86.4695   24.2890 C   0  0  0  0  0  0  0  0  0  0  0  0
   55.6279   87.8131   24.5398 C   0  0  0  0  0  0  0  0  0  0  0  0
   56.6837   88.5202   25.0849 C   0  0  0  0  0  0  0  0  0  0  0  0
   57.8711   87.8824   25.4098 C   0  0  0  0  0  0  0  0  0  0  0  0
   57.9172   86.5323   25.1593 C   0  0  0  0  0  0  0  0  0  0  0  0
   56.8628   85.8259   24.6148 C   0  0  0  0  0  0  0  0  0  0  0  0
   58.9494   88.5578   25.9563 O   0  0  0  0  0  0  0  0  0  0  0  0
   60.0818   87.8943   26.4869 C   0  0  0  0  0  0  0  0  0  0  0  0
   52.6973   84.3205   20.8620 C   0  0  0  0  0  0  0  0  0  0  0  0
   52.4698   86.7322   20.1195 N   0  0  0  0  0  0  0  0  0  0  0  0
   52.8298   85.4250   19.8339 C   0  0  0  0  0  0  0  0  0  0  0  0
   53.2745   85.0663   18.7381 O   0  0  0  0  0  0  0  0  0  0  0  0
   52.1026   86.9179   21.1021 H   0  0  0  0  0  0  0  0  0  0  0  0
   55.0705   90.9583   18.7288 Cl  0  0  0  0  0  0  0  0  0  0  0  0
   53.7436   89.8284   18.5602 C   0  0  0  0  0  0  0  0  0  0  0  0
   53.6139   88.7341   19.3847 C   0  0  0  0  0  0  0  0  0  0  0  0
   52.5419   87.8274   19.2363 C   0  0  0  0  0  0  0  0  0  0  0  0
   51.6559   88.1071   18.2372 C   0  0  0  0  0  0  0  0  0  0  0  0
   51.7847   89.2269   17.3911 C   0  0  0  0  0  0  0  0  0  0  0  0
   52.8378   90.0890   17.5585 C   0  0  0  0  0  0  0  0  0  0  0  0
   54.6152   88.5108   20.4423 C   0  0  0  0  0  0  0  0  0  0  0  0
 22 23  1  0  0  0
 23 24  2  0  0  0
 23 28  1  0  0  0
 24 25  1  0  0  0
 24 29  1  0  0  0
 25 26  2  0  0  0
 25 18  1  0  0  0
 26 27  1  0  0  0
 27 28  2  0  0  0
 18 19  1  0  0  0
 19 20  2  0  0  0
 19 17  1  0  0  0
 17  1  1  0  0  0
  1  2  1  0  0  0
  1  5  1  0  0  0
  2  3  2  0  0  0
  2  8  1  0  0  0
  3  4  1  0  0  0
  3  6  1  0  0  0
  4  5  2  0  0  0
  4  9  1  0  0  0
  9 10  2  0  0  0
  9 14  1  0  0  0
 10 11  1  0  0  0
 11 12  2  0  0  0
 12 13  1  0  0  0
 12 15  1  0  0  0
 13 14  2  0  0  0
 15 16  1  0  0  0
  6  7  1  0  0  0
  7  8  1  0  0  0
 18 21  1  0  0  0
M  END
> <minimizedAffinity>
-8.70038

$$$$
1835


 36 39  0  0  0  0  0  0  0  0999 V2000
   54.1723   85.4553   22.5261 C   0  0  0  0  0  0  0  0  0  0  0  0
   54.1645   85.6362   23.8560 N   0  0  0  0  0  0  0  0  0  0  0  0
   53.0915   84.9691   24.3149 C   0  0  0  0  0  0  0  0  0  0  0  0
   52.5765   84.7924   25.5558 N   0  0  0  0  0  0  0  0  0  0  0  0
   51.4637   84.0627   25.7660 C   0  0  0  0  0  0  0  0  0  0  0  0
   50.8280   83.4827   24.7251 N   0  0  0  0  0  0  0  0  0  0  0  0
   51.2775   83.6123   23.4628 C   0  0  0  0  0  0  0  0  0  0  0  0
   52.4203   84.3647   23.2733 C   0  0  0  0  0  0  0  0  0  0  0  0
   53.1197   84.6863   22.1601 N   0  0  0  0  0  0  0  0  0  0  0  0
   50.5897   82.9934   22.3939 N   0  0  0  0  0  0  0  0  0  0  0  0
   50.4775   81.9664   22.3377 H   0  0  0  0  0  0  0  0  0  0  0  0
   50.1876   83.5847   21.6450 H   0  0  0  0  0  0  0  0  0  0  0  0
   55.0664   86.3690   24.6960 C   0  0  0  0  0  0  0  0  0  0  0  0
   56.3996   86.0336   24.4742 O   0  0  0  0  0  0  0  0  0  0  0  0
   57.0573   87.0747   25.1285 C   0  0  0  0  0  0  0  0  0  0  0  0
   56.4214   88.2832   24.4580 C   0  0  0  0  0  0  0  0  0  0  0  0
   54.9663   87.8624   24.4390 C   0  0  0  0  0  0  0  0  0  0  0  0
   54.3368   88.5203   25.4979 O   0  0  0  0  0  0  0  0  0  0  0  0
   56.6160   89.4439   25.1934 O   0  0  0  0  0  0  0  0  0  0  0  0
   54.2350   87.9442   26.2819 H   0  0  0  0  0  0  0  0  0  0  0  0
   56.9898   89.1770   26.0760 H   0  0  0  0  0  0  0  0  0  0  0  0
   58.5476   87.0400   24.9233 C   0  0  0  0  0  0  0  0  0  0  0  0
   59.2273   87.8907   25.7596 O   0  0  0  0  0  0  0  0  0  0  0  0
   58.6442   88.5879   26.1312 H   0  0  0  0  0  0  0  0  0  0  0  0
   55.1349   85.9853   21.6261 N   0  0  0  0  0  0  0  0  0  0  0  0
   56.1600   85.8244   21.7709 H   0  0  0  0  0  0  0  0  0  0  0  0
   54.2631   87.9056   20.6982 C   0  0  0  0  0  0  0  0  0  0  0  0
   54.7743   86.7447   20.5107 N   0  0  0  0  0  0  0  0  0  0  0  0
   51.5771   87.3434   19.5395 Cl  0  0  0  0  0  0  0  0  0  0  0  0
   52.6361   88.6102   18.9647 C   0  0  0  0  0  0  0  0  0  0  0  0
   53.8558   88.7691   19.5860 C   0  0  0  0  0  0  0  0  0  0  0  0
   54.6874   89.7687   19.1292 C   0  0  0  0  0  0  0  0  0  0  0  0
   54.3201   90.5977   18.0783 C   0  0  0  0  0  0  0  0  0  0  0  0
   53.1009   90.4451   17.4504 C   0  0  0  0  0  0  0  0  0  0  0  0
   52.2693   89.4455   17.9071 C   0  0  0  0  0  0  0  0  0  0  0  0
   56.2464   89.9764   19.9190 Cl  0  0  0  0  0  0  0  0  0  0  0  0
 29 30  1  0  0  0
 30 31  2  0  0  0
 30 35  1  0  0  0
 31 32  1  0  0  0
 31 27  1  0  0  0
 32 33  2  0  0  0
 32 36  1  0  0  0
 33 34  1  0  0  0
 34 35  2  0  0  0
 27 28  2  0  0  0
 28 25  1  0  0  0
 25  1  1  0  0  0
  1  2  1  0  0  0
  1  9  2  0  0  0
  2  3  1  0  0  0
  2 13  1  0  0  0
  3  4  2  0  0  0
  3  8  1  0  0  0
  4  5  1  0  0  0
  5  6  2  0  0  0
  6  7  1  0  0  0
  7  8  2  0  0  0
  7 10  1  0  0  0
  8  9  1  0  0  0
 13 14  1  0  0  0
 13 17  1  0  0  0
 14 15  1  0  0  0
 15 16  1  0  0  0
 15 22  1  0  0  0
 16 17  1  0  0  0
 16 19  1  0  0  0
 17 18  1  0  0  0
 22 23  1  0  0  0
 25 26  1  0  0  0
 10 11  1  0  0  0
 10 12  1  0  0  0
 18 20  1  0  0  0
 19 21  1  0  0  0
 23 24  1  0  0  0
M  END
> <minimizedAffinity>
-9.68610

$$$$
1837


 29 32  0  0  0  0  0  0  0  0999 V2000
   52.1450   83.2748   20.9145 N   0  0  0  0  0  0  0  0  0  0  0  0
   50.8256   82.9310   21.4846 C   0  0  0  0  0  0  0  0  0  0  0  0
   50.8953   83.5816   22.8818 C   0  0  0  0  0  0  0  0  0  0  0  0
   52.3020   83.3882   23.2652 N   0  0  0  0  0  0  0  0  0  0  0  0
   52.8623   82.1292   22.8877 C   0  0  0  0  0  0  0  0  0  0  0  0
   53.0468   82.1870   21.3626 C   0  0  0  0  0  0  0  0  0  0  0  0
   52.9672   84.4260   23.9336 C   0  0  0  0  0  0  0  0  0  0  0  0
   52.6351   84.7420   25.2229 N   0  0  0  0  0  0  0  0  0  0  0  0
   53.2110   85.7211   25.9193 C   0  0  0  0  0  0  0  0  0  0  0  0
   54.1729   86.4556   25.3500 N   0  0  0  0  0  0  0  0  0  0  0  0
   54.5833   86.2438   24.1038 C   0  0  0  0  0  0  0  0  0  0  0  0
   55.5046   86.8221   23.3076 N   0  0  0  0  0  0  0  0  0  0  0  0
   55.4634   86.1843   22.1653 N   0  0  0  0  0  0  0  0  0  0  0  0
   54.5528   85.2236   22.2002 N   0  0  0  0  0  0  0  0  0  0  0  0
   53.9698   85.2135   23.3842 C   0  0  0  0  0  0  0  0  0  0  0  0
   56.3892   87.9323   23.6058 C   0  0  0  0  0  0  0  0  0  0  0  0
   55.9720   89.1838   22.8647 C   0  0  0  0  0  0  0  0  0  0  0  0
   52.0925   83.2672   19.4639 C   0  0  0  0  0  0  0  0  0  0  0  0
   51.9776   85.8085   19.5043 N   0  0  0  0  0  0  0  0  0  0  0  0
   52.5552   84.6337   19.0141 C   0  0  0  0  0  0  0  0  0  0  0  0
   53.4861   84.6972   18.1715 O   0  0  0  0  0  0  0  0  0  0  0  0
   51.1647   85.6829   20.1854 H   0  0  0  0  0  0  0  0  0  0  0  0
   53.5047   91.4571   18.2327 Cl  0  0  0  0  0  0  0  0  0  0  0  0
   53.0582   89.8066   18.6096 C   0  0  0  0  0  0  0  0  0  0  0  0
   53.7462   89.0708   19.5638 C   0  0  0  0  0  0  0  0  0  0  0  0
   53.3763   87.7799   19.8391 C   0  0  0  0  0  0  0  0  0  0  0  0
   52.3086   87.1431   19.1889 C   0  0  0  0  0  0  0  0  0  0  0  0
   51.6474   87.8873   18.2524 C   0  0  0  0  0  0  0  0  0  0  0  0
   52.0106   89.1970   17.9637 C   0  0  0  0  0  0  0  0  0  0  0  0
 23 24  1  0  0  0
 24 25  2  0  0  0
 24 29  1  0  0  0
 25 26  1  0  0  0
 26 27  2  0  0  0
 27 28  1  0  0  0
 27 19  1  0  0  0
 28 29  2  0  0  0
 19 20  1  0  0  0
 20 21  2  0  0  0
 20 18  1  0  0  0
 18  1  1  0  0  0
  1  2  1  0  0  0
  1  6  1  0  0  0
  2  3  1  0  0  0
  3  4  1  0  0  0
  4  5  1  0  0  0
  4  7  1  0  0  0
  5  6  1  0  0  0
  7  8  2  0  0  0
  7 15  1  0  0  0
  8  9  1  0  0  0
  9 10  2  0  0  0
 10 11  1  0  0  0
 11 12  1  0  0  0
 11 15  2  0  0  0
 12 13  1  0  0  0
 12 16  1  0  0  0
 13 14  2  0  0  0
 14 15  1  0  0  0
 16 17  1  0  0  0
 19 22  1  0  0  0
M  END
> <minimizedAffinity>
-8.43071

$$$$
1846


 31 34  0  0  0  0  0  0  0  0999 V2000
   48.6986  100.4540   28.4469 N   0  0  0  0  0  0  0  0  0  0  0  0
   48.4857   99.1983   28.8981 C   0  0  0  0  0  0  0  0  0  0  0  0
   49.4078   98.2335   28.6969 N   0  0  0  0  0  0  0  0  0  0  0  0
   50.5614   98.4536   28.0558 C   0  0  0  0  0  0  0  0  0  0  0  0
   51.4854   97.5006   27.8509 N   0  0  0  0  0  0  0  0  0  0  0  0
   52.6506   97.6947   27.2104 C   0  0  0  0  0  0  0  0  0  0  0  0
   52.8844   98.9533   26.7483 N   0  0  0  0  0  0  0  0  0  0  0  0
   51.9881   99.9356   26.9316 C   0  0  0  0  0  0  0  0  0  0  0  0
   50.7951   99.7249   27.5905 C   0  0  0  0  0  0  0  0  0  0  0  0
   49.8610  100.7211   27.7887 C   0  0  0  0  0  0  0  0  0  0  0  0
   50.1321  101.8622   27.3400 O   0  0  0  0  0  0  0  0  0  0  0  0
   53.5982   96.6624   27.0140 N   0  0  0  0  0  0  0  0  0  0  0  0
   53.1412   95.3998   26.4820 C   0  0  0  0  0  0  0  0  0  0  0  0
   54.1803   94.8777   25.4915 C   0  0  0  0  0  0  0  0  0  0  0  0
   55.4671   94.9189   26.0239 O   0  0  0  0  0  0  0  0  0  0  0  0
   55.8077   96.2668   26.1392 C   0  0  0  0  0  0  0  0  0  0  0  0
   55.0023   96.8094   27.3201 C   0  0  0  0  0  0  0  0  0  0  0  0
   47.7752  101.5309   28.6173 C   0  0  0  0  0  0  0  0  0  0  0  0
   49.1978  103.1617   29.9332 N   0  0  0  0  0  0  0  0  0  0  0  0
   48.0604  102.3429   29.8499 C   0  0  0  0  0  0  0  0  0  0  0  0
   47.2360  102.2422   30.7718 O   0  0  0  0  0  0  0  0  0  0  0  0
   49.8635  103.1930   29.0894 H   0  0  0  0  0  0  0  0  0  0  0  0
   48.3982  107.6217   32.2981 Cl  0  0  0  0  0  0  0  0  0  0  0  0
   49.1745  106.0524   32.2575 C   0  0  0  0  0  0  0  0  0  0  0  0
   50.0056  105.6631   33.2802 C   0  0  0  0  0  0  0  0  0  0  0  0
   50.5748  104.4185   33.1700 C   0  0  0  0  0  0  0  0  0  0  0  0
   50.3451  103.5625   32.0908 C   0  0  0  0  0  0  0  0  0  0  0  0
   49.5176  103.9416   31.0658 C   0  0  0  0  0  0  0  0  0  0  0  0
   48.9419  105.2197   31.1920 C   0  0  0  0  0  0  0  0  0  0  0  0
   50.2601  106.4949   34.3793 O   0  0  0  0  0  0  0  0  0  0  0  0
   51.5883  106.8115   34.7273 C   0  0  0  0  0  0  0  0  0  0  0  0
 23 24  1  0  0  0
 24 25  2  0  0  0
 24 29  1  0  0  0
 25 26  1  0  0  0
 25 30  1  0  0  0
 26 27  2  0  0  0
 27 28  1  0  0  0
 28 29  2  0  0  0
 28 19  1  0  0  0
 19 20  1  0  0  0
 20 21  2  0  0  0
 20 18  1  0  0  0
 18  1  1  0  0  0
  1  2  1  0  0  0
  1 10  1  0  0  0
  2  3  2  0  0  0
  3  4  1  0  0  0
  4  5  2  0  0  0
  4  9  1  0  0  0
  5  6  1  0  0  0
  6  7  2  0  0  0
  6 12  1  0  0  0
  7  8  1  0  0  0
  8  9  2  0  0  0
  9 10  1  0  0  0
 10 11  2  0  0  0
 12 13  1  0  0  0
 12 17  1  0  0  0
 13 14  1  0  0  0
 14 15  1  0  0  0
 15 16  1  0  0  0
 16 17  1  0  0  0
 30 31  1  0  0  0
 19 22  1  0  0  0
M  END
> <minimizedAffinity>
-8.86130

$$$$
1850


 24 27  0  0  0  0  0  0  0  0999 V2000
   51.6247   92.5523   18.6472 Cl  0  0  0  0  0  0  0  0  0  0  0  0
   53.0727   91.6837   18.1574 C   0  0  0  0  0  0  0  0  0  0  0  0
   54.0290   91.3348   19.0900 C   0  0  0  0  0  0  0  0  0  0  0  0
   55.1548   90.6597   18.7104 C   0  0  0  0  0  0  0  0  0  0  0  0
   55.3085   90.3396   17.3805 C   0  0  0  0  0  0  0  0  0  0  0  0
   54.3670   90.6786   16.4334 C   0  0  0  0  0  0  0  0  0  0  0  0
   53.2333   91.3601   16.8274 C   0  0  0  0  0  0  0  0  0  0  0  0
   56.2249   90.2502   19.6509 C   0  0  0  0  0  0  0  0  0  0  0  0
   55.7467   90.5213   20.9847 N   0  0  0  0  0  0  0  0  0  0  0  0
   55.1227   91.8052   21.2030 C   0  0  0  0  0  0  0  0  0  0  0  0
   53.7608   91.7320   20.5023 C   0  0  0  0  0  0  0  0  0  0  0  0
   55.8684   89.5935   22.0453 C   0  0  0  0  0  0  0  0  0  0  0  0
   55.4293   89.8923   23.1870 O   0  0  0  0  0  0  0  0  0  0  0  0
   56.4965   88.2601   21.8925 C   0  0  0  0  0  0  0  0  0  0  0  0
   55.6282   87.2255   22.2369 O   0  0  0  0  0  0  0  0  0  0  0  0
   54.7856   86.5837   21.3388 C   0  0  0  0  0  0  0  0  0  0  0  0
   54.8002   85.2387   21.2693 N   0  0  0  0  0  0  0  0  0  0  0  0
   54.0179   84.5649   20.4302 N   0  0  0  0  0  0  0  0  0  0  0  0
   53.1636   85.1770   19.5996 C   0  0  0  0  0  0  0  0  0  0  0  0
   52.5095   84.2482   18.8752 N   0  0  0  0  0  0  0  0  0  0  0  0
   52.9621   83.0801   19.2610 N   0  0  0  0  0  0  0  0  0  0  0  0
   53.8913   83.2425   20.2175 C   0  0  0  0  0  0  0  0  0  0  0  0
   53.1212   86.5661   19.6436 C   0  0  0  0  0  0  0  0  0  0  0  0
   53.9284   87.2634   20.5096 C   0  0  0  0  0  0  0  0  0  0  0  0
  1  2  1  0  0  0
  2  3  2  0  0  0
  2  7  1  0  0  0
  3  4  1  0  0  0
  3 11  1  0  0  0
  4  5  2  0  0  0
  4  8  1  0  0  0
  5  6  1  0  0  0
  6  7  2  0  0  0
  8  9  1  0  0  0
  9 10  1  0  0  0
  9 12  1  0  0  0
 10 11  1  0  0  0
 12 13  2  0  0  0
 12 14  1  0  0  0
 14 15  1  0  0  0
 15 16  1  0  0  0
 16 17  2  0  0  0
 16 24  1  0  0  0
 17 18  1  0  0  0
 18 19  1  0  0  0
 18 22  1  0  0  0
 19 20  2  0  0  0
 19 23  1  0  0  0
 20 21  1  0  0  0
 21 22  2  0  0  0
 23 24  2  0  0  0
M  END
> <minimizedAffinity>
-8.96449

$$$$
1852


 26 29  0  0  0  0  0  0  0  0999 V2000
   52.2285   98.2212   28.2671 S   0  0  0  0  0  0  0  0  0  0  0  0
   50.9487   97.5129   27.9775 O   0  0  0  0  0  0  0  0  0  0  0  0
   52.5234   98.1077   29.7398 O   0  0  0  0  0  0  0  0  0  0  0  0
   53.5329   97.4765   27.3726 C   0  0  0  0  0  0  0  0  0  0  0  0
   54.7078   98.1654   27.1458 C   0  0  0  0  0  0  0  0  0  0  0  0
   55.7699   97.6220   26.4436 C   0  0  0  0  0  0  0  0  0  0  0  0
   55.6750   96.3377   25.9398 C   0  0  0  0  0  0  0  0  0  0  0  0
   54.5055   95.6596   26.1697 C   0  0  0  0  0  0  0  0  0  0  0  0
   53.4460   96.1972   26.8682 C   0  0  0  0  0  0  0  0  0  0  0  0
   56.7621   95.8321   25.2446 O   0  0  0  0  0  0  0  0  0  0  0  0
   57.7138   96.6473   24.5838 C   0  0  0  0  0  0  0  0  0  0  0  0
   57.8983   97.9912   25.2371 C   0  0  0  0  0  0  0  0  0  0  0  0
   56.9450   98.2985   26.2116 O   0  0  0  0  0  0  0  0  0  0  0  0
   52.0755   99.8953   27.8966 N   0  0  0  0  0  0  0  0  0  0  0  0
   51.0936  100.5493   28.7029 C   0  0  0  0  0  0  0  0  0  0  0  0
   50.1884  101.3389   27.7731 C   0  0  0  0  0  0  0  0  0  0  0  0
   50.2938  100.5412   26.4898 C   0  0  0  0  0  0  0  0  0  0  0  0
   51.7734  100.1405   26.5221 C   0  0  0  0  0  0  0  0  0  0  0  0
   48.8628  101.2208   28.2618 O   0  0  0  0  0  0  0  0  0  0  0  0
   48.4213  101.9290   29.3678 C   0  0  0  0  0  0  0  0  0  0  0  0
   47.1740  101.6103   29.8199 N   0  0  0  0  0  0  0  0  0  0  0  0
   46.7192  102.2800   30.8916 C   0  0  0  0  0  0  0  0  0  0  0  0
   47.4610  103.2551   31.5276 C   0  0  0  0  0  0  0  0  0  0  0  0
   48.7174  103.5357   31.0255 C   0  0  0  0  0  0  0  0  0  0  0  0
   49.1744  102.8613   29.9486 N   0  0  0  0  0  0  0  0  0  0  0  0
   46.8544  104.1213   32.9240 Cl  0  0  0  0  0  0  0  0  0  0  0  0
  1  2  2  0  0  0
  1  3  2  0  0  0
  1 14  1  0  0  0
  1  4  1  0  0  0
 14 15  1  0  0  0
 14 18  1  0  0  0
 15 16  1  0  0  0
 16 17  1  0  0  0
 16 19  1  0  0  0
 17 18  1  0  0  0
 19 20  1  0  0  0
 20 21  2  0  0  0
 20 25  1  0  0  0
 21 22  1  0  0  0
 22 23  2  0  0  0
 23 24  1  0  0  0
 23 26  1  0  0  0
 24 25  2  0  0  0
  4  5  2  0  0  0
  4  9  1  0  0  0
  5  6  1  0  0  0
  6  7  2  0  0  0
  6 13  1  0  0  0
  7  8  1  0  0  0
  7 10  1  0  0  0
  8  9  2  0  0  0
 10 11  1  0  0  0
 11 12  1  0  0  0
 12 13  1  0  0  0
M  END
> <minimizedAffinity>
-9.18229

$$$$
1856


 31 34  0  0  0  0  0  0  0  0999 V2000
   52.7589   86.4361   19.2224 C   0  0  0  0  0  0  0  0  0  0  0  0
   52.7105   87.5047   18.4122 N   0  0  0  0  0  0  0  0  0  0  0  0
   53.3695   88.6688   18.6527 C   0  0  0  0  0  0  0  0  0  0  0  0
   54.1029   88.6876   19.7973 N   0  0  0  0  0  0  0  0  0  0  0  0
   54.1889   87.6516   20.6459 C   0  0  0  0  0  0  0  0  0  0  0  0
   53.5167   86.5492   20.3405 N   0  0  0  0  0  0  0  0  0  0  0  0
   54.9720   87.7411   21.8201 N   0  0  0  0  0  0  0  0  0  0  0  0
   55.0377   86.6868   22.8115 C   0  0  0  0  0  0  0  0  0  0  0  0
   56.3913   86.7046   23.4880 C   0  0  0  0  0  0  0  0  0  0  0  0
   56.7041   87.9068   24.0639 O   0  0  0  0  0  0  0  0  0  0  0  0
   55.9021   88.9579   23.6380 C   0  0  0  0  0  0  0  0  0  0  0  0
   55.7826   88.9264   22.1170 C   0  0  0  0  0  0  0  0  0  0  0  0
   53.2979   89.7717   17.7808 N   0  0  0  0  0  0  0  0  0  0  0  0
   52.3750   90.8383   18.0296 C   0  0  0  0  0  0  0  0  0  0  0  0
   53.1738   92.1309   18.0277 C   0  0  0  0  0  0  0  0  0  0  0  0
   53.7939   92.2236   16.7724 O   0  0  0  0  0  0  0  0  0  0  0  0
   54.7836   91.2479   16.6515 C   0  0  0  0  0  0  0  0  0  0  0  0
   54.1417   89.8553   16.6274 C   0  0  0  0  0  0  0  0  0  0  0  0
   52.0514   85.2408   18.9267 N   0  0  0  0  0  0  0  0  0  0  0  0
   51.0150   85.1995   18.9893 H   0  0  0  0  0  0  0  0  0  0  0  0
   53.4728   84.1390   17.4627 C   0  0  0  0  0  0  0  0  0  0  0  0
   52.7218   84.0798   18.5410 N   0  0  0  0  0  0  0  0  0  0  0  0
   54.7513   80.9588   13.4066 Br  0  0  0  0  0  0  0  0  0  0  0  0
   54.8101   81.4699   15.2434 C   0  0  0  0  0  0  0  0  0  0  0  0
   54.1446   82.5794   15.6721 C   0  0  0  0  0  0  0  0  0  0  0  0
   54.1897   82.9518   17.0245 C   0  0  0  0  0  0  0  0  0  0  0  0
   54.9132   82.1810   17.8936 C   0  0  0  0  0  0  0  0  0  0  0  0
   55.5970   81.0394   17.4449 C   0  0  0  0  0  0  0  0  0  0  0  0
   55.5379   80.6950   16.1186 C   0  0  0  0  0  0  0  0  0  0  0  0
   54.9931   82.4995   19.2349 O   0  0  0  0  0  0  0  0  0  0  0  0
   54.5479   83.2867   19.6600 H   0  0  0  0  0  0  0  0  0  0  0  0
 23 24  1  0  0  0
 24 25  2  0  0  0
 24 29  1  0  0  0
 25 26  1  0  0  0
 26 27  2  0  0  0
 26 21  1  0  0  0
 27 28  1  0  0  0
 27 30  1  0  0  0
 28 29  2  0  0  0
 21 22  2  0  0  0
 22 19  1  0  0  0
 19  1  1  0  0  0
  1  2  2  0  0  0
  1  6  1  0  0  0
  2  3  1  0  0  0
  3  4  2  0  0  0
  3 13  1  0  0  0
  4  5  1  0  0  0
  5  6  2  0  0  0
  5  7  1  0  0  0
  7  8  1  0  0  0
  7 12  1  0  0  0
  8  9  1  0  0  0
  9 10  1  0  0  0
 10 11  1  0  0  0
 11 12  1  0  0  0
 13 14  1  0  0  0
 13 18  1  0  0  0
 14 15  1  0  0  0
 15 16  1  0  0  0
 16 17  1  0  0  0
 17 18  1  0  0  0
 30 31  1  0  0  0
 19 20  1  0  0  0
M  END
> <minimizedAffinity>
-8.89044

$$$$
1863


 33 36  0  0  0  0  0  0  0  0999 V2000
   53.3580   87.1126   20.0103 N   0  0  0  0  0  0  0  0  0  0  0  0
   52.9102   88.1049   19.1929 C   0  0  0  0  0  0  0  0  0  0  0  0
   53.7281   89.1893   19.3715 C   0  0  0  0  0  0  0  0  0  0  0  0
   54.6326   88.8244   20.2792 N   0  0  0  0  0  0  0  0  0  0  0  0
   54.4230   87.5451   20.6900 C   0  0  0  0  0  0  0  0  0  0  0  0
   53.4691   90.3084   18.6732 N   0  0  0  0  0  0  0  0  0  0  0  0
   52.4232   90.3832   17.8068 C   0  0  0  0  0  0  0  0  0  0  0  0
   52.1703   91.4372   17.1422 O   0  0  0  0  0  0  0  0  0  0  0  0
   51.6033   89.3366   17.6118 N   0  0  0  0  0  0  0  0  0  0  0  0
   51.8472   88.2122   18.2989 C   0  0  0  0  0  0  0  0  0  0  0  0
   51.0649   87.2569   18.0964 O   0  0  0  0  0  0  0  0  0  0  0  0
   54.2967   91.4757   18.8293 C   0  0  0  0  0  0  0  0  0  0  0  0
   50.7863   89.3991   16.9322 H   0  0  0  0  0  0  0  0  0  0  0  0
   55.2080   86.8741   21.6977 N   0  0  0  0  0  0  0  0  0  0  0  0
   56.6349   86.8785   21.4717 C   0  0  0  0  0  0  0  0  0  0  0  0
   57.4273   86.2449   22.5865 C   0  0  0  0  0  0  0  0  0  0  0  0
   56.9379   86.7559   23.8147 N   0  0  0  0  0  0  0  0  0  0  0  0
   55.5890   86.3689   24.0610 C   0  0  0  0  0  0  0  0  0  0  0  0
   54.7032   86.2249   22.8586 C   0  0  0  0  0  0  0  0  0  0  0  0
   57.1772   88.1611   23.9158 C   0  0  0  0  0  0  0  0  0  0  0  0
   56.9268   88.7243   25.2749 C   0  0  0  0  0  0  0  0  0  0  0  0
   57.7882   88.8134   26.1639 O   0  0  0  0  0  0  0  0  0  0  0  0
   55.5839   89.1725   25.5072 N   0  0  0  0  0  0  0  0  0  0  0  0
   54.8228   88.5105   25.7799 H   0  0  0  0  0  0  0  0  0  0  0  0
   55.3756   90.1630   25.4014 H   0  0  0  0  0  0  0  0  0  0  0  0
   52.7616   85.8200   20.0690 C   0  0  0  0  0  0  0  0  0  0  0  0
   54.2469   84.0054   15.3968 Cl  0  0  0  0  0  0  0  0  0  0  0  0
   54.1611   83.9009   17.1531 C   0  0  0  0  0  0  0  0  0  0  0  0
   53.5360   84.8326   17.9328 C   0  0  0  0  0  0  0  0  0  0  0  0
   53.4784   84.7460   19.3322 C   0  0  0  0  0  0  0  0  0  0  0  0
   54.0789   83.6730   19.9172 C   0  0  0  0  0  0  0  0  0  0  0  0
   54.7140   82.7240   19.1298 C   0  0  0  0  0  0  0  0  0  0  0  0
   54.7657   82.8177   17.7537 C   0  0  0  0  0  0  0  0  0  0  0  0
 27 28  1  0  0  0
 28 29  2  0  0  0
 28 33  1  0  0  0
 29 30  1  0  0  0
 30 31  2  0  0  0
 30 26  1  0  0  0
 31 32  1  0  0  0
 32 33  2  0  0  0
 26  1  1  0  0  0
  1  2  1  0  0  0
  1  5  1  0  0  0
  2  3  2  0  0  0
  2 10  1  0  0  0
  3  4  1  0  0  0
  3  6  1  0  0  0
  4  5  2  0  0  0
  5 14  1  0  0  0
 14 15  1  0  0  0
 14 19  1  0  0  0
 15 16  1  0  0  0
 16 17  1  0  0  0
 17 18  1  0  0  0
 17 20  1  0  0  0
 18 19  1  0  0  0
 20 21  1  0  0  0
 21 22  2  0  0  0
 21 23  1  0  0  0
  6  7  1  0  0  0
  6 12  1  0  0  0
  7  8  2  0  0  0
  7  9  1  0  0  0
  9 10  1  0  0  0
 10 11  2  0  0  0
 23 24  1  0  0  0
 23 25  1  0  0  0
  9 13  1  0  0  0
M  END
> <minimizedAffinity>
-8.72873

$$$$
1865


 29 32  0  0  0  0  0  0  0  0999 V2000
   52.8868   84.9321   25.2851 N   0  0  0  0  0  0  0  0  0  0  0  0
   53.2161   84.9677   26.6820 C   0  0  0  0  0  0  0  0  0  0  0  0
   52.3632   84.9553   27.6300 O   0  0  0  0  0  0  0  0  0  0  0  0
   54.6333   85.0166   26.8244 N   0  0  0  0  0  0  0  0  0  0  0  0
   55.1343   85.5130   25.5621 C   0  0  0  0  0  0  0  0  0  0  0  0
   54.9393   87.0177   25.5705 C   0  0  0  0  0  0  0  0  0  0  0  0
   55.0452   87.4654   24.1172 C   0  0  0  0  0  0  0  0  0  0  0  0
   56.2217   86.8810   23.5020 N   0  0  0  0  0  0  0  0  0  0  0  0
   57.1491   86.1303   24.3066 C   0  0  0  0  0  0  0  0  0  0  0  0
   56.5306   85.1677   25.2665 C   0  0  0  0  0  0  0  0  0  0  0  0
   56.4527   87.0580   22.1131 C   0  0  0  0  0  0  0  0  0  0  0  0
   57.4842   86.5388   21.5784 O   0  0  0  0  0  0  0  0  0  0  0  0
   54.1404   84.9612   24.6080 C   0  0  0  0  0  0  0  0  0  0  0  0
   54.2923   84.5729   23.4185 O   0  0  0  0  0  0  0  0  0  0  0  0
   55.1927   84.7536   27.6572 H   0  0  0  0  0  0  0  0  0  0  0  0
   55.5675   87.8123   21.2422 C   0  0  0  0  0  0  0  0  0  0  0  0
   54.3898   87.3253   20.8043 N   0  0  0  0  0  0  0  0  0  0  0  0
   53.6199   88.0784   19.9996 C   0  0  0  0  0  0  0  0  0  0  0  0
   53.9870   89.3447   19.5972 C   0  0  0  0  0  0  0  0  0  0  0  0
   55.1588   89.8330   20.0309 N   0  0  0  0  0  0  0  0  0  0  0  0
   55.9414   89.0749   20.8457 C   0  0  0  0  0  0  0  0  0  0  0  0
   51.5777   84.8776   24.6775 C   0  0  0  0  0  0  0  0  0  0  0  0
   50.8943   79.7926   25.7416 Cl  0  0  0  0  0  0  0  0  0  0  0  0
   50.8946   81.1644   24.6513 C   0  0  0  0  0  0  0  0  0  0  0  0
   51.2197   82.4425   25.0559 C   0  0  0  0  0  0  0  0  0  0  0  0
   51.2216   83.5232   24.2041 C   0  0  0  0  0  0  0  0  0  0  0  0
   50.8860   83.3450   22.8816 C   0  0  0  0  0  0  0  0  0  0  0  0
   50.5564   82.0694   22.4578 C   0  0  0  0  0  0  0  0  0  0  0  0
   50.5586   80.9947   23.3229 C   0  0  0  0  0  0  0  0  0  0  0  0
 23 24  1  0  0  0
 24 25  2  0  0  0
 24 29  1  0  0  0
 25 26  1  0  0  0
 26 27  2  0  0  0
 26 22  1  0  0  0
 27 28  1  0  0  0
 28 29  2  0  0  0
 22  1  1  0  0  0
  1  2  1  0  0  0
  1 13  1  0  0  0
  2  3  2  0  0  0
  2  4  1  0  0  0
  4  5  1  0  0  0
  5  6  1  0  0  0
  5 10  1  0  0  0
  5 13  1  0  0  0
  6  7  1  0  0  0
  7  8  1  0  0  0
  8  9  1  0  0  0
  8 11  1  0  0  0
  9 10  1  0  0  0
 11 12  2  0  0  0
 11 16  1  0  0  0
 16 17  2  0  0  0
 16 21  1  0  0  0
 17 18  1  0  0  0
 18 19  2  0  0  0
 19 20  1  0  0  0
 20 21  2  0  0  0
 13 14  2  0  0  0
  4 15  1  0  0  0
M  END
> <minimizedAffinity>
-7.83677

$$$$
1871


 28 31  0  0  0  0  0  0  0  0999 V2000
   56.2481   86.8611   22.0300 C   0  0  0  0  0  0  0  0  0  0  0  0
   55.1119   86.0262   21.9857 N   0  0  0  0  0  0  0  0  0  0  0  0
   54.6382   85.7676   23.2793 C   0  0  0  0  0  0  0  0  0  0  0  0
   53.7499   85.0493   23.9211 C   0  0  0  0  0  0  0  0  0  0  0  0
   53.6112   85.1191   25.3802 C   0  0  0  0  0  0  0  0  0  0  0  0
   54.1991   86.2264   26.1237 C   0  0  0  0  0  0  0  0  0  0  0  0
   55.0443   87.1754   25.3109 C   0  0  0  0  0  0  0  0  0  0  0  0
   55.5213   86.5569   24.1257 N   0  0  0  0  0  0  0  0  0  0  0  0
   56.7903   86.4675   23.4149 C   0  0  0  0  0  0  0  0  0  0  0  0
   57.7869   87.3808   23.9952 C   0  0  0  0  0  0  0  0  0  0  0  0
   57.1909   86.4199   21.1302 O   0  0  0  0  0  0  0  0  0  0  0  0
   55.5786   85.0356   21.7584 H   0  0  0  0  0  0  0  0  0  0  0  0
   57.7917   87.0892   20.7546 H   0  0  0  0  0  0  0  0  0  0  0  0
   55.5448   92.8095   21.8259 Cl  0  0  0  0  0  0  0  0  0  0  0  0
   55.7625   91.0696   21.8454 C   0  0  0  0  0  0  0  0  0  0  0  0
   56.3775   90.3974   20.7984 C   0  0  0  0  0  0  0  0  0  0  0  0
   56.5141   89.0136   20.8904 C   0  0  0  0  0  0  0  0  0  0  0  0
   56.0611   88.3091   21.9747 C   0  0  0  0  0  0  0  0  0  0  0  0
   55.4464   88.9748   23.0210 C   0  0  0  0  0  0  0  0  0  0  0  0
   55.3105   90.3454   22.9311 C   0  0  0  0  0  0  0  0  0  0  0  0
   54.2597   86.1399   20.8921 C   0  0  0  0  0  0  0  0  0  0  0  0
   53.7808   87.4050   20.5930 C   0  0  0  0  0  0  0  0  0  0  0  0
   52.9241   87.6507   19.5475 C   0  0  0  0  0  0  0  0  0  0  0  0
   52.4748   86.6280   18.7057 C   0  0  0  0  0  0  0  0  0  0  0  0
   52.9637   85.3857   19.0256 C   0  0  0  0  0  0  0  0  0  0  0  0
   53.8199   85.1480   20.0722 C   0  0  0  0  0  0  0  0  0  0  0  0
   51.6165   86.8875   17.6548 O   0  0  0  0  0  0  0  0  0  0  0  0
   51.3087   88.2179   17.3225 C   0  0  0  0  0  0  0  0  0  0  0  0
 14 15  1  0  0  0
 15 16  2  0  0  0
 15 20  1  0  0  0
 16 17  1  0  0  0
 17 18  2  0  0  0
 18 19  1  0  0  0
 18  1  1  0  0  0
 19 20  2  0  0  0
  1  2  1  0  0  0
  1  9  1  0  0  0
  1 11  1  0  0  0
  2  3  1  0  0  0
  2 21  1  0  0  0
  3  4  2  0  0  0
  3  8  1  0  0  0
  4  5  1  0  0  0
  5  6  1  0  0  0
  6  7  1  0  0  0
  7  8  1  0  0  0
  8  9  1  0  0  0
  9 10  1  0  0  0
 21 22  2  0  0  0
 21 26  1  0  0  0
 22 23  1  0  0  0
 23 24  2  0  0  0
 24 25  1  0  0  0
 24 27  1  0  0  0
 25 26  2  0  0  0
 27 28  1  0  0  0
  2 12  1  0  0  0
 11 13  1  0  0  0
M  CHG 1   2   1
M  END
> <minimizedAffinity>
-8.26608

$$$$
1893


 28 31  0  0  0  0  0  0  0  0999 V2000
   54.5077   86.3037   21.1102 N   0  0  0  0  0  0  0  0  0  0  0  0
   53.8072   87.2952   20.5111 C   0  0  0  0  0  0  0  0  0  0  0  0
   53.9220   88.5138   20.8056 O   0  0  0  0  0  0  0  0  0  0  0  0
   52.9582   86.7869   19.5423 C   0  0  0  0  0  0  0  0  0  0  0  0
   53.1403   85.4760   19.5498 C   0  0  0  0  0  0  0  0  0  0  0  0
   52.3115   84.9840   18.6046 N   0  0  0  0  0  0  0  0  0  0  0  0
   51.6432   86.0012   18.0440 N   0  0  0  0  0  0  0  0  0  0  0  0
   52.0388   87.1245   18.6203 N   0  0  0  0  0  0  0  0  0  0  0  0
   54.0873   85.1783   20.5075 C   0  0  0  0  0  0  0  0  0  0  0  0
   54.4791   84.0168   20.7562 O   0  0  0  0  0  0  0  0  0  0  0  0
   52.2132   83.9815   18.3600 H   0  0  0  0  0  0  0  0  0  0  0  0
   50.9294   85.9631   17.2858 H   0  0  0  0  0  0  0  0  0  0  0  0
   58.5794   86.8982   25.4239 Cl  0  0  0  0  0  0  0  0  0  0  0  0
   57.3488   86.7194   24.1678 C   0  0  0  0  0  0  0  0  0  0  0  0
   56.0177   86.5705   24.4967 C   0  0  0  0  0  0  0  0  0  0  0  0
   55.1010   86.4349   23.4702 C   0  0  0  0  0  0  0  0  0  0  0  0
   55.4632   86.4430   22.1395 C   0  0  0  0  0  0  0  0  0  0  0  0
   56.8046   86.5948   21.8504 C   0  0  0  0  0  0  0  0  0  0  0  0
   57.7620   86.7343   22.8511 C   0  0  0  0  0  0  0  0  0  0  0  0
   51.5773   88.4634   18.3204 C   0  0  0  0  0  0  0  0  0  0  0  0
   52.6855   89.4127   18.0498 C   0  0  0  0  0  0  0  0  0  0  0  0
   53.0355   90.4503   18.8846 C   0  0  0  0  0  0  0  0  0  0  0  0
   54.0681   91.3306   18.6295 C   0  0  0  0  0  0  0  0  0  0  0  0
   54.7992   91.1758   17.4767 C   0  0  0  0  0  0  0  0  0  0  0  0
   54.4844   90.1523   16.6138 C   0  0  0  0  0  0  0  0  0  0  0  0
   53.4430   89.2833   16.8943 C   0  0  0  0  0  0  0  0  0  0  0  0
   54.3403   92.3534   19.5466 O   0  0  0  0  0  0  0  0  0  0  0  0
   54.4808   92.0885   20.9277 C   0  0  0  0  0  0  0  0  0  0  0  0
 13 14  1  0  0  0
 14 15  2  0  0  0
 14 19  1  0  0  0
 15 16  1  0  0  0
 16 17  2  0  0  0
 17 18  1  0  0  0
 17  1  1  0  0  0
 18 19  2  0  0  0
  1  2  1  0  0  0
  1  9  1  0  0  0
  2  3  2  0  0  0
  2  4  1  0  0  0
  4  5  2  0  0  0
  4  8  1  0  0  0
  5  6  1  0  0  0
  5  9  1  0  0  0
  6  7  1  0  0  0
  7  8  1  0  0  0
  8 20  1  0  0  0
 20 21  1  0  0  0
 21 22  2  0  0  0
 21 26  1  0  0  0
 22 23  1  0  0  0
 23 24  2  0  0  0
 23 27  1  0  0  0
 24 25  1  0  0  0
 25 26  2  0  0  0
 27 28  1  0  0  0
  9 10  2  0  0  0
  6 11  1  0  0  0
  7 12  1  0  0  0
M  END
> <minimizedAffinity>
-9.05673

$$$$
1894


 26 29  0  0  0  0  0  0  0  0999 V2000
   54.4820   86.6829   21.0728 N   0  0  0  0  0  0  0  0  0  0  0  0
   53.8314   87.7005   20.4649 C   0  0  0  0  0  0  0  0  0  0  0  0
   54.0130   88.9067   20.7331 O   0  0  0  0  0  0  0  0  0  0  0  0
   52.9448   87.2245   19.5138 C   0  0  0  0  0  0  0  0  0  0  0  0
   53.0593   85.8888   19.5439 C   0  0  0  0  0  0  0  0  0  0  0  0
   52.1969   85.4374   18.6162 N   0  0  0  0  0  0  0  0  0  0  0  0
   51.5836   86.4588   18.0466 N   0  0  0  0  0  0  0  0  0  0  0  0
   52.0336   87.5697   18.5894 N   0  0  0  0  0  0  0  0  0  0  0  0
   54.0012   85.5726   20.4999 C   0  0  0  0  0  0  0  0  0  0  0  0
   54.3587   84.3989   20.7932 O   0  0  0  0  0  0  0  0  0  0  0  0
   52.0151   84.4450   18.3601 H   0  0  0  0  0  0  0  0  0  0  0  0
   50.8500   86.4034   17.2798 H   0  0  0  0  0  0  0  0  0  0  0  0
   58.6501   87.0573   25.3873 Cl  0  0  0  0  0  0  0  0  0  0  0  0
   57.4236   86.9486   24.1274 C   0  0  0  0  0  0  0  0  0  0  0  0
   57.7704   86.7176   22.8130 C   0  0  0  0  0  0  0  0  0  0  0  0
   56.8098   86.6320   21.8230 C   0  0  0  0  0  0  0  0  0  0  0  0
   55.4666   86.7724   22.1008 C   0  0  0  0  0  0  0  0  0  0  0  0
   55.1286   87.0030   23.4219 C   0  0  0  0  0  0  0  0  0  0  0  0
   56.0822   87.0904   24.4177 C   0  0  0  0  0  0  0  0  0  0  0  0
   51.6328   88.9198   18.2702 C   0  0  0  0  0  0  0  0  0  0  0  0
   52.7305   89.7580   17.7419 C   0  0  0  0  0  0  0  0  0  0  0  0
   52.8469   91.0636   18.1517 C   0  0  0  0  0  0  0  0  0  0  0  0
   53.8733   91.8267   17.6449 C   0  0  0  0  0  0  0  0  0  0  0  0
   54.7807   91.3072   16.7394 C   0  0  0  0  0  0  0  0  0  0  0  0
   54.6648   89.9990   16.3274 C   0  0  0  0  0  0  0  0  0  0  0  0
   53.6395   89.2539   16.8407 C   0  0  0  0  0  0  0  0  0  0  0  0
 13 14  1  0  0  0
 14 15  2  0  0  0
 14 19  1  0  0  0
 15 16  1  0  0  0
 16 17  2  0  0  0
 17 18  1  0  0  0
 17  1  1  0  0  0
 18 19  2  0  0  0
  1  2  1  0  0  0
  1  9  1  0  0  0
  2  3  2  0  0  0
  2  4  1  0  0  0
  4  5  2  0  0  0
  4  8  1  0  0  0
  5  6  1  0  0  0
  5  9  1  0  0  0
  6  7  1  0  0  0
  7  8  1  0  0  0
  8 20  1  0  0  0
 20 21  1  0  0  0
 21 22  2  0  0  0
 21 26  1  0  0  0
 22 23  1  0  0  0
 23 24  2  0  0  0
 24 25  1  0  0  0
 25 26  2  0  0  0
  9 10  2  0  0  0
  6 11  1  0  0  0
  7 12  1  0  0  0
M  END
> <minimizedAffinity>
-9.63204

$$$$
1895


 32 35  0  0  0  0  0  0  0  0999 V2000
   53.0310   84.0074   24.9161 N   0  0  0  0  0  0  0  0  0  0  0  0
   53.2272   85.3167   24.4279 C   0  0  0  0  0  0  0  0  0  0  0  0
   54.0212   86.0925   25.4996 C   0  0  0  0  0  0  0  0  0  0  0  0
   55.3240   85.4792   25.4561 N   0  0  0  0  0  0  0  0  0  0  0  0
   55.2976   84.0747   25.9198 C   0  0  0  0  0  0  0  0  0  0  0  0
   54.1102   83.3175   25.4870 C   0  0  0  0  0  0  0  0  0  0  0  0
   56.5439   86.0181   25.0515 C   0  0  0  0  0  0  0  0  0  0  0  0
   57.5394   85.1568   25.1364 O   0  0  0  0  0  0  0  0  0  0  0  0
   51.9545   83.0531   23.9962 S   0  0  0  0  0  0  0  0  0  0  0  0
   51.8553   81.6457   24.4349 O   0  0  0  0  0  0  0  0  0  0  0  0
   50.5844   83.6826   24.0787 O   0  0  0  0  0  0  0  0  0  0  0  0
   52.4998   83.1223   22.3115 C   0  0  0  0  0  0  0  0  0  0  0  0
   52.1488   84.2628   21.0965 S   0  0  0  0  0  0  0  0  0  0  0  0
   53.0544   83.5918   19.8209 C   0  0  0  0  0  0  0  0  0  0  0  0
   53.6153   82.4773   20.3876 C   0  0  0  0  0  0  0  0  0  0  0  0
   53.3240   82.2394   21.6785 C   0  0  0  0  0  0  0  0  0  0  0  0
   53.2294   84.1882   18.1631 Cl  0  0  0  0  0  0  0  0  0  0  0  0
   56.9708   87.3017   24.5575 C   0  0  0  0  0  0  0  0  0  0  0  0
   56.7209   87.6216   23.1851 N   0  0  0  0  0  0  0  0  0  0  0  0
   57.2594   86.9290   22.0575 C   0  0  0  0  0  0  0  0  0  0  0  0
   58.0571   85.9354   22.1536 O   0  0  0  0  0  0  0  0  0  0  0  0
   56.7561   87.5352   20.8863 N   0  0  0  0  0  0  0  0  0  0  0  0
   55.6030   88.3427   21.2529 C   0  0  0  0  0  0  0  0  0  0  0  0
   55.4789   89.6139   20.4885 C   0  0  0  0  0  0  0  0  0  0  0  0
   53.9843   89.9107   20.3250 C   0  0  0  0  0  0  0  0  0  0  0  0
   53.4722   88.9214   19.2957 C   0  0  0  0  0  0  0  0  0  0  0  0
   53.9519   87.5371   19.6575 C   0  0  0  0  0  0  0  0  0  0  0  0
   54.3857   87.4567   21.1140 C   0  0  0  0  0  0  0  0  0  0  0  0
   56.0704   90.8158   21.1879 C   0  0  0  0  0  0  0  0  0  0  0  0
   55.8798   88.6635   22.6851 C   0  0  0  0  0  0  0  0  0  0  0  0
   55.4603   89.6467   23.3257 O   0  0  0  0  0  0  0  0  0  0  0  0
   57.1231   87.4385   19.9272 H   0  0  0  0  0  0  0  0  0  0  0  0
  9 10  2  0  0  0
  9 11  2  0  0  0
  9  1  1  0  0  0
  9 12  1  0  0  0
  1  2  1  0  0  0
  1  6  1  0  0  0
  2  3  1  0  0  0
  3  4  1  0  0  0
  4  5  1  0  0  0
  4  7  1  0  0  0
  5  6  1  0  0  0
  7  8  2  0  0  0
  7 18  1  0  0  0
 18 19  1  0  0  0
 19 20  1  0  0  0
 19 30  1  0  0  0
 20 21  2  0  0  0
 20 22  1  0  0  0
 22 23  1  0  0  0
 23 24  1  0  0  0
 23 28  1  0  0  0
 23 30  1  0  0  0
 24 25  1  0  0  0
 24 29  1  0  0  0
 25 26  1  0  0  0
 26 27  1  0  0  0
 27 28  1  0  0  0
 30 31  2  0  0  0
 12 13  1  0  0  0
 12 16  2  0  0  0
 13 14  1  0  0  0
 14 15  2  0  0  0
 14 17  1  0  0  0
 15 16  1  0  0  0
 22 32  1  0  0  0
M  END
> <minimizedAffinity>
-8.47106

$$$$
1906


 33 36  0  0  0  0  0  0  0  0999 V2000
   53.5313   84.2972   26.1053 C   0  0  0  0  0  0  0  0  0  0  0  0
   53.5151   82.8966   26.0360 O   0  0  0  0  0  0  0  0  0  0  0  0
   53.8770   82.2651   27.1942 C   0  0  0  0  0  0  0  0  0  0  0  0
   52.8575   82.3844   28.3089 C   0  0  0  0  0  0  0  0  0  0  0  0
   52.3548   83.7768   28.1832 N   0  0  0  0  0  0  0  0  0  0  0  0
   53.2575   84.6746   27.5729 C   0  0  0  0  0  0  0  0  0  0  0  0
   51.0914   84.0577   28.6603 C   0  0  0  0  0  0  0  0  0  0  0  0
   50.3732   83.1203   29.2039 O   0  0  0  0  0  0  0  0  0  0  0  0
   50.4619   85.3421   28.6146 C   0  0  0  0  0  0  0  0  0  0  0  0
   50.0898   85.9458   27.4857 N   0  0  0  0  0  0  0  0  0  0  0  0
   49.4961   87.1547   27.4350 C   0  0  0  0  0  0  0  0  0  0  0  0
   49.2432   87.8374   28.6141 C   0  0  0  0  0  0  0  0  0  0  0  0
   49.5981   87.2687   29.7548 N   0  0  0  0  0  0  0  0  0  0  0  0
   50.1891   86.0628   29.7822 C   0  0  0  0  0  0  0  0  0  0  0  0
   48.5880   89.1635   28.4989 C   0  0  0  0  0  0  0  0  0  0  0  0
   54.9526   84.7037   25.8390 C   0  0  0  0  0  0  0  0  0  0  0  0
   55.2699   85.4235   24.7868 O   0  0  0  0  0  0  0  0  0  0  0  0
   54.6651   88.3483   20.6706 Cl  0  0  0  0  0  0  0  0  0  0  0  0
   55.1867   88.0555   22.3298 C   0  0  0  0  0  0  0  0  0  0  0  0
   55.0028   86.8181   22.8844 C   0  0  0  0  0  0  0  0  0  0  0  0
   55.3984   86.5626   24.1724 C   0  0  0  0  0  0  0  0  0  0  0  0
   55.9928   87.6187   24.8907 C   0  0  0  0  0  0  0  0  0  0  0  0
   56.1669   88.8381   24.3249 C   0  0  0  0  0  0  0  0  0  0  0  0
   55.7716   89.0894   23.0370 C   0  0  0  0  0  0  0  0  0  0  0  0
   52.5138   84.8156   25.1957 C   0  0  0  0  0  0  0  0  0  0  0  0
   51.5987   83.8695   24.5546 C   0  0  0  0  0  0  0  0  0  0  0  0
   50.5522   83.5041   25.1227 O   0  0  0  0  0  0  0  0  0  0  0  0
   51.8702   83.3336   23.2631 N   0  0  0  0  0  0  0  0  0  0  0  0
   53.0719   83.7021   22.5225 C   0  0  0  0  0  0  0  0  0  0  0  0
   52.6374   84.0446   21.1132 C   0  0  0  0  0  0  0  0  0  0  0  0
   51.9803   82.9399   20.5627 O   0  0  0  0  0  0  0  0  0  0  0  0
   50.7491   82.7928   21.2005 C   0  0  0  0  0  0  0  0  0  0  0  0
   50.9700   82.3965   22.6242 C   0  0  0  0  0  0  0  0  0  0  0  0
 18 19  1  0  0  0
 19 20  2  0  0  0
 19 24  1  0  0  0
 20 21  1  0  0  0
 21 22  2  0  0  0
 21 17  1  0  0  0
 22 23  1  0  0  0
 23 24  2  0  0  0
 17 16  1  0  0  0
 16  1  1  0  0  0
  1  2  1  0  0  0
  1  6  1  0  0  0
  1 25  1  0  0  0
  2  3  1  0  0  0
  3  4  1  0  0  0
  4  5  1  0  0  0
  5  6  1  0  0  0
  5  7  1  0  0  0
  7  8  2  0  0  0
  7  9  1  0  0  0
  9 10  2  0  0  0
  9 14  1  0  0  0
 10 11  1  0  0  0
 11 12  2  0  0  0
 12 13  1  0  0  0
 12 15  1  0  0  0
 13 14  2  0  0  0
 25 26  1  0  0  0
 26 27  2  0  0  0
 26 28  1  0  0  0
 28 29  1  0  0  0
 28 33  1  0  0  0
 29 30  1  0  0  0
 30 31  1  0  0  0
 31 32  1  0  0  0
 32 33  1  0  0  0
M  END
> <minimizedAffinity>
-8.17620

$$$$
1913


 29 32  0  0  0  0  0  0  0  0999 V2000
   55.5556   88.4439   21.6001 N   0  0  0  0  0  0  0  0  0  0  0  0
   55.2596   89.3255   22.7058 C   0  0  0  0  0  0  0  0  0  0  0  0
   56.1559   89.1131   23.8961 C   0  0  0  0  0  0  0  0  0  0  0  0
   56.2868   87.6543   24.1656 C   0  0  0  0  0  0  0  0  0  0  0  0
   56.9674   86.9874   23.0202 C   0  0  0  0  0  0  0  0  0  0  0  0
   56.5219   87.3910   21.6626 C   0  0  0  0  0  0  0  0  0  0  0  0
   54.8785   91.1806   17.3755 Cl  0  0  0  0  0  0  0  0  0  0  0  0
   54.4645   89.8607   18.4198 C   0  0  0  0  0  0  0  0  0  0  0  0
   53.4636   89.0409   18.0930 N   0  0  0  0  0  0  0  0  0  0  0  0
   53.1026   88.0093   18.8615 C   0  0  0  0  0  0  0  0  0  0  0  0
   52.1653   87.0778   18.7378 N   0  0  0  0  0  0  0  0  0  0  0  0
   52.2883   86.3025   19.8230 C   0  0  0  0  0  0  0  0  0  0  0  0
   53.2768   86.7176   20.6258 N   0  0  0  0  0  0  0  0  0  0  0  0
   53.8187   87.8025   20.0493 C   0  0  0  0  0  0  0  0  0  0  0  0
   54.8480   88.6368   20.3957 C   0  0  0  0  0  0  0  0  0  0  0  0
   55.1486   89.6670   19.5511 N   0  0  0  0  0  0  0  0  0  0  0  0
   53.6030   86.3060   21.5316 H   0  0  0  0  0  0  0  0  0  0  0  0
   55.0248   87.0379   24.5781 C   0  0  0  0  0  0  0  0  0  0  0  0
   54.3197   87.6310   25.4307 O   0  0  0  0  0  0  0  0  0  0  0  0
   54.5617   85.8088   24.0650 N   0  0  0  0  0  0  0  0  0  0  0  0
   55.1570   85.3073   23.3434 H   0  0  0  0  0  0  0  0  0  0  0  0
   53.3190   85.1889   24.4630 C   0  0  0  0  0  0  0  0  0  0  0  0
   53.1064   83.8272   23.8668 C   0  0  0  0  0  0  0  0  0  0  0  0
   52.5969   83.9248   22.5107 N   0  0  0  0  0  0  0  0  0  0  0  0
   51.1758   83.8629   22.4425 C   0  0  0  0  0  0  0  0  0  0  0  0
   50.7310   82.5477   21.8350 C   0  0  0  0  0  0  0  0  0  0  0  0
   51.1909   82.5058   20.5424 O   0  0  0  0  0  0  0  0  0  0  0  0
   52.5351   82.7051   20.3722 C   0  0  0  0  0  0  0  0  0  0  0  0
   53.2986   83.1099   21.5852 C   0  0  0  0  0  0  0  0  0  0  0  0
  7  8  1  0  0  0
  8  9  2  0  0  0
  8 16  1  0  0  0
  9 10  1  0  0  0
 10 11  1  0  0  0
 10 14  2  0  0  0
 11 12  2  0  0  0
 12 13  1  0  0  0
 13 14  1  0  0  0
 14 15  1  0  0  0
 15 16  2  0  0  0
 15  1  1  0  0  0
  1  2  1  0  0  0
  1  6  1  0  0  0
  2  3  1  0  0  0
  3  4  1  0  0  0
  4  5  1  0  0  0
  4 18  1  0  0  0
  5  6  1  0  0  0
 18 19  2  0  0  0
 18 20  1  0  0  0
 20 22  1  0  0  0
 22 23  1  0  0  0
 23 24  1  0  0  0
 24 25  1  0  0  0
 24 29  1  0  0  0
 25 26  1  0  0  0
 26 27  1  0  0  0
 27 28  1  0  0  0
 28 29  1  0  0  0
 13 17  1  0  0  0
 20 21  1  0  0  0
M  END
> <minimizedAffinity>
-7.92390

$$$$
1927


 36 39  0  0  0  0  0  0  0  0999 V2000
   55.4050   90.7931   21.4499 C   0  0  0  0  0  0  0  0  0  0  0  0
   55.8708   86.6428   24.5919 C   0  0  0  0  0  0  0  0  0  0  0  0
   55.0397   87.9225   24.5361 C   0  0  0  0  0  0  0  0  0  0  0  0
   56.0105   88.9615   24.0140 C   0  0  0  0  0  0  0  0  0  0  0  0
   56.3460   88.6871   22.6613 N   0  0  0  0  0  0  0  0  0  0  0  0
   56.9393   87.3496   22.3996 C   0  0  0  0  0  0  0  0  0  0  0  0
   56.3756   86.2626   23.2503 C   0  0  0  0  0  0  0  0  0  0  0  0
   56.1586   89.5369   21.5791 C   0  0  0  0  0  0  0  0  0  0  0  0
   56.7532   89.1867   20.4676 O   0  0  0  0  0  0  0  0  0  0  0  0
   57.0118   87.0299   25.3648 O   0  0  0  0  0  0  0  0  0  0  0  0
   57.7872   86.5607   24.9682 H   0  0  0  0  0  0  0  0  0  0  0  0
   52.7008   82.6298   27.8694 Cl  0  0  0  0  0  0  0  0  0  0  0  0
   53.6457   83.7819   26.8901 C   0  0  0  0  0  0  0  0  0  0  0  0
   53.1375   85.0157   26.5629 C   0  0  0  0  0  0  0  0  0  0  0  0
   53.8820   85.9179   25.8032 C   0  0  0  0  0  0  0  0  0  0  0  0
   55.1705   85.6164   25.3427 C   0  0  0  0  0  0  0  0  0  0  0  0
   55.6453   84.3743   25.6899 C   0  0  0  0  0  0  0  0  0  0  0  0
   54.9186   83.4706   26.4410 C   0  0  0  0  0  0  0  0  0  0  0  0
   55.8094   91.8823   22.2252 N   0  0  0  0  0  0  0  0  0  0  0  0
   54.9939   93.0117   22.5429 C   0  0  0  0  0  0  0  0  0  0  0  0
   53.8376   92.9887   22.0443 O   0  0  0  0  0  0  0  0  0  0  0  0
   56.7525   91.8999   22.6978 H   0  0  0  0  0  0  0  0  0  0  0  0
   55.4851   94.0748   23.3758 C   0  0  0  0  0  0  0  0  0  0  0  0
   54.9687   94.6534   24.4093 C   0  0  0  0  0  0  0  0  0  0  0  0
   53.6906   94.3059   24.9469 N   0  0  0  0  0  0  0  0  0  0  0  0
   53.1608   94.9388   26.0907 N   0  0  0  0  0  0  0  0  0  0  0  0
   53.8792   95.9508   26.7588 C   0  0  0  0  0  0  0  0  0  0  0  0
   53.3682   96.4910   27.7830 O   0  0  0  0  0  0  0  0  0  0  0  0
   55.1807   96.3341   26.2477 C   0  0  0  0  0  0  0  0  0  0  0  0
   55.7042   95.7214   25.1324 C   0  0  0  0  0  0  0  0  0  0  0  0
   56.9469   96.1189   24.7297 C   0  0  0  0  0  0  0  0  0  0  0  0
   57.6847   97.1020   25.3995 C   0  0  0  0  0  0  0  0  0  0  0  0
   57.1206   97.6808   26.5030 C   0  0  0  0  0  0  0  0  0  0  0  0
   55.8556   97.3100   26.9520 C   0  0  0  0  0  0  0  0  0  0  0  0
   53.1026   93.5623   24.4998 H   0  0  0  0  0  0  0  0  0  0  0  0
   52.2238   94.6581   26.4631 H   0  0  0  0  0  0  0  0  0  0  0  0
 12 13  1  0  0  0
 13 14  2  0  0  0
 13 18  1  0  0  0
 14 15  1  0  0  0
 15 16  2  0  0  0
 16 17  1  0  0  0
 16  2  1  0  0  0
 17 18  2  0  0  0
  2  3  1  0  0  0
  2  7  1  0  0  0
  2 10  1  0  0  0
  3  4  1  0  0  0
  4  5  1  0  0  0
  5  6  1  0  0  0
  5  8  1  0  0  0
  6  7  1  0  0  0
  8  9  2  0  0  0
  8  1  1  0  0  0
  1 19  1  0  0  0
 19 20  1  0  0  0
 20 21  2  0  0  0
 20 23  1  0  0  0
 23 24  2  0  0  0
 24 25  1  0  0  0
 24 30  1  0  0  0
 25 26  1  0  0  0
 26 27  1  0  0  0
 27 28  2  0  0  0
 27 29  1  0  0  0
 29 30  2  0  0  0
 29 34  1  0  0  0
 30 31  1  0  0  0
 31 32  2  0  0  0
 32 33  1  0  0  0
 33 34  2  0  0  0
 19 22  1  0  0  0
 25 35  1  0  0  0
 26 36  1  0  0  0
 10 11  1  0  0  0
M  END
> <minimizedAffinity>
-10.48090

$$$$
1928


 28 31  0  0  0  0  0  0  0  0999 V2000
   55.7090   89.2924   20.6453 N   0  0  0  0  0  0  0  0  0  0  0  0
   54.5654   88.7030   20.2391 C   0  0  0  0  0  0  0  0  0  0  0  0
   54.2510   87.4286   20.6374 C   0  0  0  0  0  0  0  0  0  0  0  0
   55.1756   86.7044   21.5167 C   0  0  0  0  0  0  0  0  0  0  0  0
   54.6198   85.4945   21.7434 N   0  0  0  0  0  0  0  0  0  0  0  0
   53.4726   85.4133   21.1008 N   0  0  0  0  0  0  0  0  0  0  0  0
   53.2001   86.5385   20.4239 C   0  0  0  0  0  0  0  0  0  0  0  0
   52.1951   86.7858   19.7151 O   0  0  0  0  0  0  0  0  0  0  0  0
   56.3313   87.3479   21.9059 C   0  0  0  0  0  0  0  0  0  0  0  0
   56.5347   88.6181   21.4431 C   0  0  0  0  0  0  0  0  0  0  0  0
   52.8565   84.5800   21.1194 H   0  0  0  0  0  0  0  0  0  0  0  0
   57.2772   86.6574   22.7821 C   0  0  0  0  0  0  0  0  0  0  0  0
   58.1606   85.9277   22.3111 O   0  0  0  0  0  0  0  0  0  0  0  0
   57.2107   86.7993   24.1580 O   0  0  0  0  0  0  0  0  0  0  0  0
   57.5818   87.9731   24.8409 C   0  0  0  0  0  0  0  0  0  0  0  0
   55.9933   90.6540   20.1885 C   0  0  0  0  0  0  0  0  0  0  0  0
   54.9249   93.0802   22.6676 C   0  0  0  0  0  0  0  0  0  0  0  0
   53.8345   92.8765   21.9131 N   0  0  0  0  0  0  0  0  0  0  0  0
   54.0919   92.0149   20.9753 O   0  0  0  0  0  0  0  0  0  0  0  0
   55.3400   91.6300   21.0824 C   0  0  0  0  0  0  0  0  0  0  0  0
   55.8745   92.2927   22.1427 N   0  0  0  0  0  0  0  0  0  0  0  0
   55.2550   96.8018   27.3953 Cl  0  0  0  0  0  0  0  0  0  0  0  0
   55.1655   95.7175   26.0176 C   0  0  0  0  0  0  0  0  0  0  0  0
   56.3010   95.3532   25.3169 C   0  0  0  0  0  0  0  0  0  0  0  0
   56.2097   94.4986   24.2345 C   0  0  0  0  0  0  0  0  0  0  0  0
   55.0092   93.9797   23.8096 C   0  0  0  0  0  0  0  0  0  0  0  0
   53.8728   94.3404   24.5043 C   0  0  0  0  0  0  0  0  0  0  0  0
   53.9523   95.1962   25.5915 C   0  0  0  0  0  0  0  0  0  0  0  0
 22 23  1  0  0  0
 23 24  2  0  0  0
 23 28  1  0  0  0
 24 25  1  0  0  0
 25 26  2  0  0  0
 26 27  1  0  0  0
 26 17  1  0  0  0
 27 28  2  0  0  0
 17 18  2  0  0  0
 17 21  1  0  0  0
 18 19  1  0  0  0
 19 20  1  0  0  0
 20 21  2  0  0  0
 20 16  1  0  0  0
 16  1  1  0  0  0
  1  2  1  0  0  0
  1 10  1  0  0  0
  2  3  2  0  0  0
  3  4  1  0  0  0
  3  7  1  0  0  0
  4  5  2  0  0  0
  4  9  1  0  0  0
  5  6  1  0  0  0
  6  7  1  0  0  0
  7  8  2  0  0  0
  9 10  2  0  0  0
  9 12  1  0  0  0
 12 13  2  0  0  0
 12 14  1  0  0  0
 14 15  1  0  0  0
  6 11  1  0  0  0
M  END
> <minimizedAffinity>
-9.12872

$$$$
1930


 34 37  0  0  0  0  0  0  0  0999 V2000
   53.1579   85.3859   26.2264 C   0  0  0  0  0  0  0  0  0  0  0  0
   52.2851   85.4278   25.3217 O   0  0  0  0  0  0  0  0  0  0  0  0
   52.9544   84.5657   27.3513 N   0  0  0  0  0  0  0  0  0  0  0  0
   51.7543   83.7454   27.5190 C   0  0  0  0  0  0  0  0  0  0  0  0
   51.0448   84.3152   28.7311 C   0  0  0  0  0  0  0  0  0  0  0  0
   51.9613   84.3381   29.9318 C   0  0  0  0  0  0  0  0  0  0  0  0
   53.3074   83.6894   29.5881 C   0  0  0  0  0  0  0  0  0  0  0  0
   53.9180   84.4661   28.4337 C   0  0  0  0  0  0  0  0  0  0  0  0
   52.3010   85.6584   30.3158 O   0  0  0  0  0  0  0  0  0  0  0  0
   51.3785   83.6893   31.1507 C   0  0  0  0  0  0  0  0  0  0  0  0
   52.7404   85.5768   31.1976 H   0  0  0  0  0  0  0  0  0  0  0  0
   49.7592   83.7635   28.9763 N   0  0  0  0  0  0  0  0  0  0  0  0
   49.5489   82.4143   28.9827 C   0  0  0  0  0  0  0  0  0  0  0  0
   48.3015   81.8769   29.2196 C   0  0  0  0  0  0  0  0  0  0  0  0
   47.2355   82.7159   29.4569 C   0  0  0  0  0  0  0  0  0  0  0  0
   46.0638   82.2576   29.6807 O   0  0  0  0  0  0  0  0  0  0  0  0
   47.4502   84.0429   29.4486 N   0  0  0  0  0  0  0  0  0  0  0  0
   48.7029   84.5281   29.2091 C   0  0  0  0  0  0  0  0  0  0  0  0
   48.8422   85.7717   29.2139 O   0  0  0  0  0  0  0  0  0  0  0  0
   48.0390   80.4162   29.2340 C   0  0  0  0  0  0  0  0  0  0  0  0
   46.6506   84.6783   29.6273 H   0  0  0  0  0  0  0  0  0  0  0  0
   54.3828   86.2090   26.0794 C   0  0  0  0  0  0  0  0  0  0  0  0
   55.2592   85.7806   24.9481 C   0  0  0  0  0  0  0  0  0  0  0  0
   54.2962   89.6731   18.3546 Cl  0  0  0  0  0  0  0  0  0  0  0  0
   54.8033   89.1758   19.9618 C   0  0  0  0  0  0  0  0  0  0  0  0
   54.3908   88.0052   20.5456 C   0  0  0  0  0  0  0  0  0  0  0  0
   54.7957   87.6202   21.8143 C   0  0  0  0  0  0  0  0  0  0  0  0
   54.5651   86.5692   22.6188 N   0  0  0  0  0  0  0  0  0  0  0  0
   55.2263   86.6974   23.7819 C   0  0  0  0  0  0  0  0  0  0  0  0
   55.8916   87.8843   23.6808 N   0  0  0  0  0  0  0  0  0  0  0  0
   55.6473   88.4621   22.4988 C   0  0  0  0  0  0  0  0  0  0  0  0
   56.0864   89.6480   21.9490 C   0  0  0  0  0  0  0  0  0  0  0  0
   55.6542   89.9948   20.6734 C   0  0  0  0  0  0  0  0  0  0  0  0
   56.7385   88.3899   24.7596 C   0  0  0  0  0  0  0  0  0  0  0  0
 24 25  1  0  0  0
 25 26  2  0  0  0
 25 33  1  0  0  0
 26 27  1  0  0  0
 27 28  1  0  0  0
 27 31  2  0  0  0
 28 29  2  0  0  0
 29 30  1  0  0  0
 29 23  1  0  0  0
 30 31  1  0  0  0
 30 34  1  0  0  0
 31 32  1  0  0  0
 32 33  2  0  0  0
 23 22  1  0  0  0
 22  1  1  0  0  0
  1  2  2  0  0  0
  1  3  1  0  0  0
  3  4  1  0  0  0
  3  8  1  0  0  0
  4  5  1  0  0  0
  5  6  1  0  0  0
  5 12  1  0  0  0
  6  7  1  0  0  0
  6  9  1  0  0  0
  6 10  1  0  0  0
  7  8  1  0  0  0
 12 13  1  0  0  0
 12 18  1  0  0  0
 13 14  2  0  0  0
 14 15  1  0  0  0
 14 20  1  0  0  0
 15 16  2  0  0  0
 15 17  1  0  0  0
 17 18  1  0  0  0
 18 19  2  0  0  0
  9 11  1  0  0  0
 17 21  1  0  0  0
M  END
> <minimizedAffinity>
-9.15032

$$$$
1936


 25 28  0  0  0  0  0  0  0  0999 V2000
   54.9680   91.3562   22.5797 N   0  0  0  0  0  0  0  0  0  0  0  0
   55.6478   90.3153   21.9187 C   0  0  0  0  0  0  0  0  0  0  0  0
   56.4149   90.6246   20.9910 O   0  0  0  0  0  0  0  0  0  0  0  0
   54.3165   91.1179   23.3635 H   0  0  0  0  0  0  0  0  0  0  0  0
   55.4855   88.8966   22.2808 C   0  0  0  0  0  0  0  0  0  0  0  0
   54.9881   88.0018   21.2136 C   0  0  0  0  0  0  0  0  0  0  0  0
   56.4338   87.9187   21.5074 C   0  0  0  0  0  0  0  0  0  0  0  0
   55.3721   88.5235   23.6590 N   0  0  0  0  0  0  0  0  0  0  0  0
   56.4509   88.8745   24.4954 C   0  0  0  0  0  0  0  0  0  0  0  0
   57.3507   87.6519   24.6290 C   0  0  0  0  0  0  0  0  0  0  0  0
   56.7138   86.6754   25.3573 O   0  0  0  0  0  0  0  0  0  0  0  0
   55.3461   86.6619   25.2398 C   0  0  0  0  0  0  0  0  0  0  0  0
   54.8657   87.2400   23.9242 C   0  0  0  0  0  0  0  0  0  0  0  0
   55.1289   92.7527   22.2186 C   0  0  0  0  0  0  0  0  0  0  0  0
   52.7961   97.1112   28.1649 Cl  0  0  0  0  0  0  0  0  0  0  0  0
   53.8204   96.2300   27.0337 C   0  0  0  0  0  0  0  0  0  0  0  0
   53.2977   95.5302   25.9591 C   0  0  0  0  0  0  0  0  0  0  0  0
   54.0624   94.8284   25.0529 C   0  0  0  0  0  0  0  0  0  0  0  0
   53.8221   94.0869   23.9571 N   0  0  0  0  0  0  0  0  0  0  0  0
   54.9725   93.6175   23.4385 C   0  0  0  0  0  0  0  0  0  0  0  0
   55.9457   94.0827   24.2380 N   0  0  0  0  0  0  0  0  0  0  0  0
   55.4475   94.8308   25.2422 C   0  0  0  0  0  0  0  0  0  0  0  0
   55.9803   95.5215   26.3056 C   0  0  0  0  0  0  0  0  0  0  0  0
   55.2023   96.2148   27.1974 C   0  0  0  0  0  0  0  0  0  0  0  0
   56.9626   93.8879   24.0949 H   0  0  0  0  0  0  0  0  0  0  0  0
 15 16  1  0  0  0
 16 17  2  0  0  0
 16 24  1  0  0  0
 17 18  1  0  0  0
 18 19  1  0  0  0
 18 22  2  0  0  0
 19 20  2  0  0  0
 20 21  1  0  0  0
 20 14  1  0  0  0
 21 22  1  0  0  0
 22 23  1  0  0  0
 23 24  2  0  0  0
 14  1  1  0  0  0
  1  2  1  0  0  0
  2  3  2  0  0  0
  2  5  1  0  0  0
  5  6  1  0  0  0
  5  7  1  0  0  0
  5  8  1  0  0  0
  6  7  1  0  0  0
  8  9  1  0  0  0
  8 13  1  0  0  0
  9 10  1  0  0  0
 10 11  1  0  0  0
 11 12  1  0  0  0
 12 13  1  0  0  0
 21 25  1  0  0  0
  1  4  1  0  0  0
M  END
> <minimizedAffinity>
-9.02755

$$$$
1937


 31 34  0  0  0  0  0  0  0  0999 V2000
   53.0381   84.2012   19.6461 N   0  0  0  0  0  0  0  0  0  0  0  0
   53.2006   82.8235   19.5801 C   0  0  0  0  0  0  0  0  0  0  0  0
   53.3948   82.3041   21.0677 C   0  0  0  0  0  0  0  0  0  0  0  0
   52.6332   83.2862   21.7928 N   0  0  0  0  0  0  0  0  0  0  0  0
   53.4418   84.5199   22.0171 C   0  0  0  0  0  0  0  0  0  0  0  0
   53.9958   84.7913   20.6467 C   0  0  0  0  0  0  0  0  0  0  0  0
   51.3795   83.1028   22.2945 C   0  0  0  0  0  0  0  0  0  0  0  0
   50.6597   84.1424   22.4846 O   0  0  0  0  0  0  0  0  0  0  0  0
   50.7232   81.8156   22.6853 C   0  0  0  0  0  0  0  0  0  0  0  0
   51.6803   81.1957   23.6056 O   0  0  0  0  0  0  0  0  0  0  0  0
   52.3150   82.1923   24.4025 C   0  0  0  0  0  0  0  0  0  0  0  0
   51.5646   83.2793   24.7654 C   0  0  0  0  0  0  0  0  0  0  0  0
   52.0986   84.3069   25.5354 C   0  0  0  0  0  0  0  0  0  0  0  0
   53.4287   84.1664   25.9143 C   0  0  0  0  0  0  0  0  0  0  0  0
   54.2080   83.0827   25.5741 C   0  0  0  0  0  0  0  0  0  0  0  0
   53.6396   82.0824   24.8108 C   0  0  0  0  0  0  0  0  0  0  0  0
   50.2301   83.3566   24.3512 O   0  0  0  0  0  0  0  0  0  0  0  0
   49.5961   82.2507   23.6605 C   0  0  0  0  0  0  0  0  0  0  0  0
   53.0889   85.0584   18.4861 C   0  0  0  0  0  0  0  0  0  0  0  0
   52.7683   87.5316   18.2569 N   0  0  0  0  0  0  0  0  0  0  0  0
   52.3421   86.3444   18.8559 C   0  0  0  0  0  0  0  0  0  0  0  0
   51.4185   86.2955   19.6258 O   0  0  0  0  0  0  0  0  0  0  0  0
   53.7399   87.4712   17.7854 H   0  0  0  0  0  0  0  0  0  0  0  0
   52.1257   88.7953   18.2934 C   0  0  0  0  0  0  0  0  0  0  0  0
   51.3684   91.5167   19.1011 Cl  0  0  0  0  0  0  0  0  0  0  0  0
   52.7085   91.1784   18.0321 C   0  0  0  0  0  0  0  0  0  0  0  0
   52.9086   89.8655   17.6217 C   0  0  0  0  0  0  0  0  0  0  0  0
   53.9364   89.6507   16.7419 C   0  0  0  0  0  0  0  0  0  0  0  0
   54.7379   90.6967   16.3002 C   0  0  0  0  0  0  0  0  0  0  0  0
   54.5377   92.0296   16.7142 C   0  0  0  0  0  0  0  0  0  0  0  0
   53.4831   92.1999   17.5884 C   0  0  0  0  0  0  0  0  0  0  0  0
 25 26  1  0  0  0
 26 27  2  0  0  0
 26 31  1  0  0  0
 27 28  1  0  0  0
 27 24  1  0  0  0
 28 29  2  0  0  0
 29 30  1  0  0  0
 30 31  2  0  0  0
 24 20  1  0  0  0
 20 21  1  0  0  0
 21 22  2  0  0  0
 21 19  1  0  0  0
 19  1  1  0  0  0
  1  2  1  0  0  0
  1  6  1  0  0  0
  2  3  1  0  0  0
  3  4  1  0  0  0
  4  5  1  0  0  0
  4  7  1  0  0  0
  5  6  1  0  0  0
  7  8  2  0  0  0
  7  9  1  0  0  0
  9 10  1  0  0  0
  9 18  1  0  0  0
 10 11  1  0  0  0
 11 12  2  0  0  0
 11 16  1  0  0  0
 12 13  1  0  0  0
 12 17  1  0  0  0
 13 14  2  0  0  0
 14 15  1  0  0  0
 15 16  2  0  0  0
 17 18  1  0  0  0
 20 23  1  0  0  0
M  END
> <minimizedAffinity>
-8.40337

$$$$
1939


 28 31  0  0  0  0  0  0  0  0999 V2000
   55.0264   86.0324   22.7174 N   0  0  0  0  0  0  0  0  0  0  0  0
   54.7149   85.6853   24.0029 C   0  0  0  0  0  0  0  0  0  0  0  0
   53.5526   84.9647   24.0227 C   0  0  0  0  0  0  0  0  0  0  0  0
   53.1864   84.8925   22.7499 N   0  0  0  0  0  0  0  0  0  0  0  0
   54.0725   85.5397   21.9258 C   0  0  0  0  0  0  0  0  0  0  0  0
   53.0231   84.5077   25.1723 N   0  0  0  0  0  0  0  0  0  0  0  0
   53.6494   84.7631   26.3509 C   0  0  0  0  0  0  0  0  0  0  0  0
   53.1207   84.3179   27.3943 O   0  0  0  0  0  0  0  0  0  0  0  0
   54.7939   85.4668   26.3831 N   0  0  0  0  0  0  0  0  0  0  0  0
   55.3120   85.9179   25.2309 C   0  0  0  0  0  0  0  0  0  0  0  0
   56.3769   86.5688   25.3140 O   0  0  0  0  0  0  0  0  0  0  0  0
   51.7861   83.7502   25.1014 C   0  0  0  0  0  0  0  0  0  0  0  0
   55.2338   85.6347   27.3119 H   0  0  0  0  0  0  0  0  0  0  0  0
   53.8932   85.6123   20.5269 N   0  0  0  0  0  0  0  0  0  0  0  0
   54.1689   84.4142   19.7453 C   0  0  0  0  0  0  0  0  0  0  0  0
   53.1085   84.4643   18.6303 C   0  0  0  0  0  0  0  0  0  0  0  0
   51.8766   85.0625   19.0939 N   0  0  0  0  0  0  0  0  0  0  0  0
   51.9922   86.4674   19.4213 C   0  0  0  0  0  0  0  0  0  0  0  0
   53.4604   86.7083   19.7407 C   0  0  0  0  0  0  0  0  0  0  0  0
   51.1953   84.9772   18.3211 H   0  0  0  0  0  0  0  0  0  0  0  0
   56.1973   86.7992   22.3827 C   0  0  0  0  0  0  0  0  0  0  0  0
   55.3303   92.6774   21.3780 Cl  0  0  0  0  0  0  0  0  0  0  0  0
   55.6065   90.9700   21.6446 C   0  0  0  0  0  0  0  0  0  0  0  0
   55.3415   90.4493   22.8758 C   0  0  0  0  0  0  0  0  0  0  0  0
   55.5488   89.0897   23.1287 C   0  0  0  0  0  0  0  0  0  0  0  0
   56.0143   88.2347   22.1848 C   0  0  0  0  0  0  0  0  0  0  0  0
   56.2763   88.8029   20.9286 C   0  0  0  0  0  0  0  0  0  0  0  0
   56.0803   90.1368   20.6575 C   0  0  0  0  0  0  0  0  0  0  0  0
 22 23  1  0  0  0
 23 24  2  0  0  0
 23 28  1  0  0  0
 24 25  1  0  0  0
 25 26  2  0  0  0
 26 27  1  0  0  0
 26 21  1  0  0  0
 27 28  2  0  0  0
 21  1  1  0  0  0
  1  2  1  0  0  0
  1  5  1  0  0  0
  2  3  2  0  0  0
  2 10  1  0  0  0
  3  4  1  0  0  0
  3  6  1  0  0  0
  4  5  2  0  0  0
  5 14  1  0  0  0
 14 15  1  0  0  0
 14 19  1  0  0  0
 15 16  1  0  0  0
 16 17  1  0  0  0
 17 18  1  0  0  0
 18 19  1  0  0  0
  6  7  1  0  0  0
  6 12  1  0  0  0
  7  8  2  0  0  0
  7  9  1  0  0  0
  9 10  1  0  0  0
 10 11  2  0  0  0
 17 20  1  0  0  0
  9 13  1  0  0  0
M  END
> <minimizedAffinity>
-8.34260

$$$$
1940


 30 33  0  0  0  0  0  0  0  0999 V2000
   52.7717   85.2355   26.6226 C   0  0  0  0  0  0  0  0  0  0  0  0
   53.1900   84.4302   27.7771 N   0  0  0  0  0  0  0  0  0  0  0  0
   54.1196   83.4929   27.2653 C   0  0  0  0  0  0  0  0  0  0  0  0
   54.3527   82.3468   27.7171 O   0  0  0  0  0  0  0  0  0  0  0  0
   54.7632   84.1217   26.0964 C   0  0  0  0  0  0  0  0  0  0  0  0
   55.6446   83.6362   25.3517 O   0  0  0  0  0  0  0  0  0  0  0  0
   54.1423   85.4353   25.9974 C   0  0  0  0  0  0  0  0  0  0  0  0
   54.6559   86.5074   25.5027 C   0  0  0  0  0  0  0  0  0  0  0  0
   53.9444   87.7058   25.4879 O   0  0  0  0  0  0  0  0  0  0  0  0
   49.7342   81.9310   22.5944 Cl  0  0  0  0  0  0  0  0  0  0  0  0
   50.5982   82.8570   23.7960 C   0  0  0  0  0  0  0  0  0  0  0  0
   50.4999   82.5940   25.1453 C   0  0  0  0  0  0  0  0  0  0  0  0
   51.2101   83.3682   26.0421 C   0  0  0  0  0  0  0  0  0  0  0  0
   52.0220   84.4023   25.6499 C   0  0  0  0  0  0  0  0  0  0  0  0
   52.1096   84.6544   24.2805 C   0  0  0  0  0  0  0  0  0  0  0  0
   51.4039   83.8862   23.3809 C   0  0  0  0  0  0  0  0  0  0  0  0
   56.0022   86.4992   24.9390 C   0  0  0  0  0  0  0  0  0  0  0  0
   57.1650   86.4560   25.4853 O   0  0  0  0  0  0  0  0  0  0  0  0
   58.1054   86.4684   24.5846 C   0  0  0  0  0  0  0  0  0  0  0  0
   57.5368   86.5234   23.3377 C   0  0  0  0  0  0  0  0  0  0  0  0
   56.1866   86.5444   23.5506 C   0  0  0  0  0  0  0  0  0  0  0  0
   52.7202   84.5823   29.1468 C   0  0  0  0  0  0  0  0  0  0  0  0
   51.4251   83.8875   29.4340 C   0  0  0  0  0  0  0  0  0  0  0  0
   50.4699   84.6248   30.1876 N   0  0  0  0  0  0  0  0  0  0  0  0
   50.1338   85.9256   29.7051 C   0  0  0  0  0  0  0  0  0  0  0  0
   49.4577   85.9173   28.3531 C   0  0  0  0  0  0  0  0  0  0  0  0
   48.3087   85.1340   28.3787 O   0  0  0  0  0  0  0  0  0  0  0  0
   48.5491   83.8681   28.9029 C   0  0  0  0  0  0  0  0  0  0  0  0
   49.1844   83.9009   30.2683 C   0  0  0  0  0  0  0  0  0  0  0  0
   50.8325   84.7320   31.1603 H   0  0  0  0  0  0  0  0  0  0  0  0
 10 11  1  0  0  0
 11 12  2  0  0  0
 11 16  1  0  0  0
 12 13  1  0  0  0
 13 14  2  0  0  0
 14 15  1  0  0  0
 14  1  1  0  0  0
 15 16  2  0  0  0
  1  2  1  0  0  0
  1  7  1  0  0  0
  2  3  1  0  0  0
  2 22  1  0  0  0
  3  4  2  0  0  0
  3  5  1  0  0  0
  5  6  2  0  0  0
  5  7  1  0  0  0
  7  8  2  0  0  0
  8  9  1  0  0  0
  8 17  1  0  0  0
 17 18  1  0  0  0
 17 21  2  0  0  0
 18 19  1  0  0  0
 19 20  2  0  0  0
 20 21  1  0  0  0
 22 23  1  0  0  0
 23 24  1  0  0  0
 24 25  1  0  0  0
 24 29  1  0  0  0
 25 26  1  0  0  0
 26 27  1  0  0  0
 27 28  1  0  0  0
 28 29  1  0  0  0
 24 30  1  0  0  0
M  CHG 1   9  -1
M  CHG 1  24   1
M  END
> <minimizedAffinity>
-7.46538

$$$$
1941


 22 25  0  0  0  0  0  0  0  0999 V2000
   55.3363   89.0372   20.8728 N   0  0  0  0  0  0  0  0  0  0  0  0
   55.4891   90.3573   20.3312 C   0  0  0  0  0  0  0  0  0  0  0  0
   55.9221   91.3307   21.0397 O   0  0  0  0  0  0  0  0  0  0  0  0
   55.0806   90.3580   18.9172 C   0  0  0  0  0  0  0  0  0  0  0  0
   54.2222   89.1207   18.8122 C   0  0  0  0  0  0  0  0  0  0  0  0
   52.8081   89.5315   18.4629 C   0  0  0  0  0  0  0  0  0  0  0  0
   52.8883   90.0907   17.0348 C   0  0  0  0  0  0  0  0  0  0  0  0
   53.7499   91.3161   17.1382 C   0  0  0  0  0  0  0  0  0  0  0  0
   53.9262   92.0205   16.1810 O   0  0  0  0  0  0  0  0  0  0  0  0
   54.3597   91.5890   18.4858 C   0  0  0  0  0  0  0  0  0  0  0  0
   53.1771   91.8711   19.4193 C   0  0  0  0  0  0  0  0  0  0  0  0
   52.3111   90.6432   19.3451 C   0  0  0  0  0  0  0  0  0  0  0  0
   51.2870   90.5924   19.9688 O   0  0  0  0  0  0  0  0  0  0  0  0
   54.3445   88.4010   20.0789 C   0  0  0  0  0  0  0  0  0  0  0  0
   53.6843   87.3903   20.4093 O   0  0  0  0  0  0  0  0  0  0  0  0
   58.3122   86.5007   25.4274 Cl  0  0  0  0  0  0  0  0  0  0  0  0
   57.4354   87.2507   24.0987 C   0  0  0  0  0  0  0  0  0  0  0  0
   57.5124   86.7537   22.8210 C   0  0  0  0  0  0  0  0  0  0  0  0
   56.8236   87.3464   21.7871 C   0  0  0  0  0  0  0  0  0  0  0  0
   56.0268   88.4604   21.9748 C   0  0  0  0  0  0  0  0  0  0  0  0
   55.9617   88.9436   23.2630 C   0  0  0  0  0  0  0  0  0  0  0  0
   56.6422   88.3666   24.3102 C   0  0  0  0  0  0  0  0  0  0  0  0
 16 17  1  0  0  0
 17 18  2  0  0  0
 17 22  1  0  0  0
 18 19  1  0  0  0
 19 20  2  0  0  0
 20 21  1  0  0  0
 20  1  1  0  0  0
 21 22  2  0  0  0
  1  2  1  0  0  0
  1 14  1  0  0  0
  2  3  2  0  0  0
  2  4  1  0  0  0
  4  5  1  0  0  0
  4 10  1  0  0  0
  5  6  1  0  0  0
  5 14  1  0  0  0
  6  7  1  0  0  0
  6 12  1  0  0  0
  7  8  1  0  0  0
  8  9  2  0  0  0
  8 10  1  0  0  0
 10 11  1  0  0  0
 11 12  1  0  0  0
 12 13  2  0  0  0
 14 15  2  0  0  0
M  END
> <minimizedAffinity>
-9.23238

$$$$
1943


 34 38  0  0  0  0  0  0  0  0999 V2000
   54.1481   85.2711   24.8201 N   0  0  0  0  0  0  0  0  0  0  0  0
   53.6408   84.9513   23.5061 C   0  0  0  0  0  0  0  0  0  0  0  0
   53.1437   83.8748   23.1631 O   0  0  0  0  0  0  0  0  0  0  0  0
   53.8016   86.1131   22.6219 C   0  0  0  0  0  0  0  0  0  0  0  0
   54.3912   85.8230   21.2623 C   0  0  0  0  0  0  0  0  0  0  0  0
   55.8206   85.9981   21.3552 N   0  0  0  0  0  0  0  0  0  0  0  0
   56.1305   86.0634   22.7695 C   0  0  0  0  0  0  0  0  0  0  0  0
   54.9414   86.8436   23.2925 C   0  0  0  0  0  0  0  0  0  0  0  0
   54.6619   86.6097   24.7213 C   0  0  0  0  0  0  0  0  0  0  0  0
   54.8534   87.4469   25.6070 O   0  0  0  0  0  0  0  0  0  0  0  0
   53.7681   86.8413   20.3474 C   0  0  0  0  0  0  0  0  0  0  0  0
   52.9144   86.1780   19.5122 C   0  0  0  0  0  0  0  0  0  0  0  0
   52.1257   86.8574   18.5705 C   0  0  0  0  0  0  0  0  0  0  0  0
   52.2008   88.2307   18.4663 C   0  0  0  0  0  0  0  0  0  0  0  0
   53.0583   88.8962   19.3009 C   0  0  0  0  0  0  0  0  0  0  0  0
   53.8256   88.2139   20.2219 C   0  0  0  0  0  0  0  0  0  0  0  0
   53.0182   84.7743   19.6881 N   0  0  0  0  0  0  0  0  0  0  0  0
   54.0006   84.5514   20.6880 C   0  0  0  0  0  0  0  0  0  0  0  0
   54.4305   83.4172   20.9864 O   0  0  0  0  0  0  0  0  0  0  0  0
   56.2728   85.1700   20.9000 H   0  0  0  0  0  0  0  0  0  0  0  0
   52.4641   84.0276   19.1671 H   0  0  0  0  0  0  0  0  0  0  0  0
   54.1317   81.9800   29.7978 Cl  0  0  0  0  0  0  0  0  0  0  0  0
   54.1277   82.9456   28.3327 C   0  0  0  0  0  0  0  0  0  0  0  0
   54.9707   82.6202   27.2980 C   0  0  0  0  0  0  0  0  0  0  0  0
   54.9644   83.3975   26.1455 C   0  0  0  0  0  0  0  0  0  0  0  0
   54.1530   84.4858   25.9778 C   0  0  0  0  0  0  0  0  0  0  0  0
   53.3203   84.7858   27.0282 C   0  0  0  0  0  0  0  0  0  0  0  0
   53.3054   84.0218   28.1997 C   0  0  0  0  0  0  0  0  0  0  0  0
   57.4223   86.7899   23.0387 C   0  0  0  0  0  0  0  0  0  0  0  0
   57.9063   86.6654   24.4102 C   0  0  0  0  0  0  0  0  0  0  0  0
   57.7429   85.6069   25.0464 O   0  0  0  0  0  0  0  0  0  0  0  0
   58.5669   87.7525   25.0283 N   0  0  0  0  0  0  0  0  0  0  0  0
   58.6944   88.6955   24.5880 H   0  0  0  0  0  0  0  0  0  0  0  0
   58.9875   87.6913   26.0012 H   0  0  0  0  0  0  0  0  0  0  0  0
 22 23  1  0  0  0
 23 24  2  0  0  0
 23 28  1  0  0  0
 24 25  1  0  0  0
 25 26  2  0  0  0
 26 27  1  0  0  0
 26  1  1  0  0  0
 27 28  2  0  0  0
  1  2  1  0  0  0
  1  9  1  0  0  0
  2  3  2  0  0  0
  2  4  1  0  0  0
  4  5  1  0  0  0
  4  8  1  0  0  0
  5  6  1  0  0  0
  5 11  1  0  0  0
  5 18  1  0  0  0
  6  7  1  0  0  0
  7  8  1  0  0  0
  7 29  1  0  0  0
  8  9  1  0  0  0
  9 10  2  0  0  0
 29 30  1  0  0  0
 30 31  2  0  0  0
 30 32  1  0  0  0
 11 12  1  0  0  0
 11 16  2  0  0  0
 12 13  2  0  0  0
 12 17  1  0  0  0
 13 14  1  0  0  0
 14 15  2  0  0  0
 15 16  1  0  0  0
 17 18  1  0  0  0
 18 19  2  0  0  0
  6 20  1  0  0  0
 32 33  1  0  0  0
 32 34  1  0  0  0
 17 21  1  0  0  0
M  END
> <minimizedAffinity>
-8.65684

$$$$
1945


 24 27  0  0  0  0  0  0  0  0999 V2000
   57.4842   88.1095   24.9004 Cl  0  0  0  0  0  0  0  0  0  0  0  0
   56.4016   87.9699   23.5295 C   0  0  0  0  0  0  0  0  0  0  0  0
   56.1862   89.0186   22.6650 C   0  0  0  0  0  0  0  0  0  0  0  0
   55.3194   88.8941   21.5758 C   0  0  0  0  0  0  0  0  0  0  0  0
   54.6774   87.6797   21.3840 C   0  0  0  0  0  0  0  0  0  0  0  0
   54.8826   86.6230   22.2386 C   0  0  0  0  0  0  0  0  0  0  0  0
   55.7345   86.7586   23.3048 C   0  0  0  0  0  0  0  0  0  0  0  0
   53.7552   87.5014   20.2482 C   0  0  0  0  0  0  0  0  0  0  0  0
   53.0456   86.5023   19.8471 N   0  0  0  0  0  0  0  0  0  0  0  0
   52.2867   86.8051   18.6647 C   0  0  0  0  0  0  0  0  0  0  0  0
   52.6401   88.2269   18.3549 C   0  0  0  0  0  0  0  0  0  0  0  0
   53.5671   88.6073   19.3871 N   0  0  0  0  0  0  0  0  0  0  0  0
   54.2404   89.8396   19.6103 C   0  0  0  0  0  0  0  0  0  0  0  0
   54.0871   90.8389   18.8524 O   0  0  0  0  0  0  0  0  0  0  0  0
   55.1414   90.0160   20.7187 N   0  0  0  0  0  0  0  0  0  0  0  0
   55.8204   91.2874   20.9273 C   0  0  0  0  0  0  0  0  0  0  0  0
   55.0176   92.1874   21.7864 C   0  0  0  0  0  0  0  0  0  0  0  0
   53.8051   92.3492   21.5047 O   0  0  0  0  0  0  0  0  0  0  0  0
   55.5520   92.8691   22.9058 N   0  0  0  0  0  0  0  0  0  0  0  0
   56.5578   92.7237   23.1267 H   0  0  0  0  0  0  0  0  0  0  0  0
   54.7472   93.7405   23.7275 C   0  0  0  0  0  0  0  0  0  0  0  0
   55.3625   93.8738   25.0952 C   0  0  0  0  0  0  0  0  0  0  0  0
   54.5266   94.3500   26.2301 C   0  0  0  0  0  0  0  0  0  0  0  0
   55.5289   95.2634   25.6346 C   0  0  0  0  0  0  0  0  0  0  0  0
  1  2  1  0  0  0
  2  3  2  0  0  0
  2  7  1  0  0  0
  3  4  1  0  0  0
  4  5  2  0  0  0
  4 15  1  0  0  0
  5  6  1  0  0  0
  5  8  1  0  0  0
  6  7  2  0  0  0
  8  9  2  0  0  0
  8 12  1  0  0  0
  9 10  1  0  0  0
 10 11  1  0  0  0
 11 12  1  0  0  0
 12 13  1  0  0  0
 13 14  2  0  0  0
 13 15  1  0  0  0
 15 16  1  0  0  0
 16 17  1  0  0  0
 17 18  2  0  0  0
 17 19  1  0  0  0
 19 21  1  0  0  0
 21 22  1  0  0  0
 22 23  1  0  0  0
 22 24  1  0  0  0
 23 24  1  0  0  0
 19 20  1  0  0  0
M  END
> <minimizedAffinity>
-8.20515

$$$$
1956


 35 38  0  0  0  0  0  0  0  0999 V2000
   52.5619   87.1246   19.0715 C   0  0  0  0  0  0  0  0  0  0  0  0
   53.1614   86.4575   20.0435 C   0  0  0  0  0  0  0  0  0  0  0  0
   52.7770   85.0807   20.5236 C   0  0  0  0  0  0  0  0  0  0  0  0
   53.4688   84.9013   21.7673 N   0  0  0  0  0  0  0  0  0  0  0  0
   54.4409   85.9198   21.9524 C   0  0  0  0  0  0  0  0  0  0  0  0
   55.2945   85.9833   22.8491 O   0  0  0  0  0  0  0  0  0  0  0  0
   54.2432   86.9035   20.8624 C   0  0  0  0  0  0  0  0  0  0  0  0
   54.9280   87.9434   20.7170 O   0  0  0  0  0  0  0  0  0  0  0  0
   51.4695   86.4712   18.4532 O   0  0  0  0  0  0  0  0  0  0  0  0
   54.0878   92.6852   17.3167 Cl  0  0  0  0  0  0  0  0  0  0  0  0
   53.6369   91.0829   17.8531 C   0  0  0  0  0  0  0  0  0  0  0  0
   52.7277   90.8592   18.8592 C   0  0  0  0  0  0  0  0  0  0  0  0
   52.4070   89.5743   19.2449 C   0  0  0  0  0  0  0  0  0  0  0  0
   52.9784   88.4426   18.6469 C   0  0  0  0  0  0  0  0  0  0  0  0
   53.8824   88.6969   17.6430 C   0  0  0  0  0  0  0  0  0  0  0  0
   54.2107   90.0010   17.2486 C   0  0  0  0  0  0  0  0  0  0  0  0
   53.2009   84.1300   19.4600 C   0  0  0  0  0  0  0  0  0  0  0  0
   52.3121   83.2213   18.9617 C   0  0  0  0  0  0  0  0  0  0  0  0
   52.7060   82.3614   17.9767 C   0  0  0  0  0  0  0  0  0  0  0  0
   53.9850   82.3811   17.4641 C   0  0  0  0  0  0  0  0  0  0  0  0
   54.8867   83.3003   17.9677 C   0  0  0  0  0  0  0  0  0  0  0  0
   54.4813   84.1718   18.9677 C   0  0  0  0  0  0  0  0  0  0  0  0
   54.3785   81.5014   16.4610 O   0  0  0  0  0  0  0  0  0  0  0  0
   54.7794   82.0519   15.1980 C   0  0  0  0  0  0  0  0  0  0  0  0
   53.5701   82.7214   14.5500 C   0  0  0  0  0  0  0  0  0  0  0  0
   52.6591   81.6069   14.0553 C   0  0  0  0  0  0  0  0  0  0  0  0
   53.2092   83.8334   22.7274 C   0  0  0  0  0  0  0  0  0  0  0  0
   51.8927   84.0589   23.3872 C   0  0  0  0  0  0  0  0  0  0  0  0
   51.0977   82.8210   23.4415 N   0  0  0  0  0  0  0  0  0  0  0  0
   50.0684   82.9136   22.4525 C   0  0  0  0  0  0  0  0  0  0  0  0
   48.9637   81.8849   22.6822 C   0  0  0  0  0  0  0  0  0  0  0  0
   48.4695   82.1253   23.9770 O   0  0  0  0  0  0  0  0  0  0  0  0
   49.4479   81.7337   24.8666 C   0  0  0  0  0  0  0  0  0  0  0  0
   50.6000   82.7157   24.7957 C   0  0  0  0  0  0  0  0  0  0  0  0
   51.7052   81.9861   23.2325 H   0  0  0  0  0  0  0  0  0  0  0  0
 10 11  1  0  0  0
 11 12  2  0  0  0
 11 16  1  0  0  0
 12 13  1  0  0  0
 13 14  2  0  0  0
 14 15  1  0  0  0
 14  1  1  0  0  0
 15 16  2  0  0  0
  1  2  2  0  0  0
  1  9  1  0  0  0
  2  3  1  0  0  0
  2  7  1  0  0  0
  3  4  1  0  0  0
  3 17  1  0  0  0
  4  5  1  0  0  0
  4 27  1  0  0  0
  5  6  2  0  0  0
  5  7  1  0  0  0
  7  8  2  0  0  0
 27 28  1  0  0  0
 28 29  1  0  0  0
 29 30  1  0  0  0
 29 34  1  0  0  0
 30 31  1  0  0  0
 31 32  1  0  0  0
 32 33  1  0  0  0
 33 34  1  0  0  0
 17 18  2  0  0  0
 17 22  1  0  0  0
 18 19  1  0  0  0
 19 20  2  0  0  0
 20 21  1  0  0  0
 20 23  1  0  0  0
 21 22  2  0  0  0
 23 24  1  0  0  0
 24 25  1  0  0  0
 25 26  1  0  0  0
 29 35  1  0  0  0
M  CHG 1   9  -1
M  CHG 1  29   1
M  END
> <minimizedAffinity>
-8.36885

$$$$
1957


 36 40  0  0  0  0  0  0  0  0999 V2000
   54.0553   85.9170   24.6292 C   0  0  0  0  0  0  0  0  0  0  0  0
   53.4613   85.9049   25.9599 N   0  0  0  0  0  0  0  0  0  0  0  0
   52.8472   84.6032   26.1303 C   0  0  0  0  0  0  0  0  0  0  0  0
   53.7611   83.7057   25.3469 C   0  0  0  0  0  0  0  0  0  0  0  0
   54.1898   84.5157   24.1646 C   0  0  0  0  0  0  0  0  0  0  0  0
   53.2479   84.1650   23.0662 C   0  0  0  0  0  0  0  0  0  0  0  0
   53.0861   84.7910   21.9919 O   0  0  0  0  0  0  0  0  0  0  0  0
   52.5625   82.9643   23.4853 N   0  0  0  0  0  0  0  0  0  0  0  0
   53.0927   82.5485   24.7267 C   0  0  0  0  0  0  0  0  0  0  0  0
   53.0212   81.4036   25.2367 O   0  0  0  0  0  0  0  0  0  0  0  0
   52.7772   84.2032   27.5569 C   0  0  0  0  0  0  0  0  0  0  0  0
   51.4441   84.0644   27.8629 C   0  0  0  0  0  0  0  0  0  0  0  0
   51.0877   83.6884   29.1508 C   0  0  0  0  0  0  0  0  0  0  0  0
   52.0736   83.4646   30.0826 C   0  0  0  0  0  0  0  0  0  0  0  0
   53.4187   83.6006   29.7841 C   0  0  0  0  0  0  0  0  0  0  0  0
   53.7585   83.9757   28.5011 C   0  0  0  0  0  0  0  0  0  0  0  0
   50.6188   84.3587   26.7211 N   0  0  0  0  0  0  0  0  0  0  0  0
   51.4801   84.6974   25.6495 C   0  0  0  0  0  0  0  0  0  0  0  0
   51.0829   85.0142   24.5164 O   0  0  0  0  0  0  0  0  0  0  0  0
   52.7820   86.6668   26.0598 H   0  0  0  0  0  0  0  0  0  0  0  0
   49.5747   84.3110   26.7439 H   0  0  0  0  0  0  0  0  0  0  0  0
   55.3585   86.6571   24.7691 C   0  0  0  0  0  0  0  0  0  0  0  0
   55.4539   87.4080   25.9117 O   0  0  0  0  0  0  0  0  0  0  0  0
   55.5114   86.7881   26.6831 H   0  0  0  0  0  0  0  0  0  0  0  0
   56.7201   90.1087   19.9662 Cl  0  0  0  0  0  0  0  0  0  0  0  0
   56.3223   89.1046   21.3504 C   0  0  0  0  0  0  0  0  0  0  0  0
   56.5747   87.7467   21.3692 C   0  0  0  0  0  0  0  0  0  0  0  0
   56.2601   86.9720   22.4549 C   0  0  0  0  0  0  0  0  0  0  0  0
   55.6702   87.5188   23.5935 C   0  0  0  0  0  0  0  0  0  0  0  0
   55.4147   88.8682   23.5872 C   0  0  0  0  0  0  0  0  0  0  0  0
   55.7399   89.6228   22.4853 C   0  0  0  0  0  0  0  0  0  0  0  0
   51.5100   82.3185   22.7576 C   0  0  0  0  0  0  0  0  0  0  0  0
   50.4347   81.7065   23.5746 C   0  0  0  0  0  0  0  0  0  0  0  0
   49.0404   82.1332   23.2763 C   0  0  0  0  0  0  0  0  0  0  0  0
   48.2092   82.1162   24.3885 O   0  0  0  0  0  0  0  0  0  0  0  0
   48.9435   81.6841   25.5129 C   0  0  0  0  0  0  0  0  0  0  0  0
 25 26  1  0  0  0
 26 27  2  0  0  0
 26 31  1  0  0  0
 27 28  1  0  0  0
 28 29  2  0  0  0
 29 30  1  0  0  0
 29 22  1  0  0  0
 30 31  2  0  0  0
 22 23  1  0  0  0
 22  1  1  0  0  0
  1  2  1  0  0  0
  1  5  1  0  0  0
  2  3  1  0  0  0
  3  4  1  0  0  0
  3 11  1  0  0  0
  3 18  1  0  0  0
  4  5  1  0  0  0
  4  9  1  0  0  0
  5  6  1  0  0  0
  6  7  2  0  0  0
  6  8  1  0  0  0
  8  9  1  0  0  0
  8 32  1  0  0  0
  9 10  2  0  0  0
 32 33  1  0  0  0
 33 34  1  0  0  0
 34 35  1  0  0  0
 35 36  1  0  0  0
 11 12  1  0  0  0
 11 16  2  0  0  0
 12 13  2  0  0  0
 12 17  1  0  0  0
 13 14  1  0  0  0
 14 15  2  0  0  0
 15 16  1  0  0  0
 17 18  1  0  0  0
 18 19  2  0  0  0
 23 24  1  0  0  0
  2 20  1  0  0  0
 17 21  1  0  0  0
M  END
> <minimizedAffinity>
-8.31854

$$$$
1958


 28 31  0  0  0  0  0  0  0  0999 V2000
   54.6333   83.2472   18.2707 C   0  0  0  0  0  0  0  0  0  0  0  0
   55.2839   82.4125   18.9901 O   0  0  0  0  0  0  0  0  0  0  0  0
   53.7031   84.1367   18.8271 N   0  0  0  0  0  0  0  0  0  0  0  0
   52.9734   85.0710   18.0300 C   0  0  0  0  0  0  0  0  0  0  0  0
   52.5375   86.3067   18.7659 C   0  0  0  0  0  0  0  0  0  0  0  0
   53.4272   86.5506   19.9268 C   0  0  0  0  0  0  0  0  0  0  0  0
   53.9031   85.4980   20.6863 C   0  0  0  0  0  0  0  0  0  0  0  0
   54.7012   85.7080   21.7391 N   0  0  0  0  0  0  0  0  0  0  0  0
   55.0910   86.9416   22.1252 C   0  0  0  0  0  0  0  0  0  0  0  0
   54.6274   87.9763   21.3837 N   0  0  0  0  0  0  0  0  0  0  0  0
   53.8237   87.8160   20.3184 C   0  0  0  0  0  0  0  0  0  0  0  0
   53.3665   88.8981   19.5802 O   0  0  0  0  0  0  0  0  0  0  0  0
   53.4684   84.1206   20.2442 C   0  0  0  0  0  0  0  0  0  0  0  0
   53.9973   89.4876   19.0308 H   0  0  0  0  0  0  0  0  0  0  0  0
   55.9332   87.1080   23.2378 N   0  0  0  0  0  0  0  0  0  0  0  0
   56.6835   88.3159   23.4130 C   0  0  0  0  0  0  0  0  0  0  0  0
   56.9974   88.4127   24.9130 C   0  0  0  0  0  0  0  0  0  0  0  0
   57.7772   87.3614   25.3256 O   0  0  0  0  0  0  0  0  0  0  0  0
   57.3766   86.1173   24.9201 C   0  0  0  0  0  0  0  0  0  0  0  0
   56.0508   86.0646   24.2125 C   0  0  0  0  0  0  0  0  0  0  0  0
   54.9168   83.2256   16.7997 C   0  0  0  0  0  0  0  0  0  0  0  0
   51.2714   79.4650   13.8078 Cl  0  0  0  0  0  0  0  0  0  0  0  0
   52.3301   80.5486   14.6840 C   0  0  0  0  0  0  0  0  0  0  0  0
   52.8687   80.1755   15.9111 C   0  0  0  0  0  0  0  0  0  0  0  0
   53.7012   81.0378   16.5911 C   0  0  0  0  0  0  0  0  0  0  0  0
   54.0300   82.2828   16.0995 C   0  0  0  0  0  0  0  0  0  0  0  0
   53.5006   82.6595   14.8847 C   0  0  0  0  0  0  0  0  0  0  0  0
   52.6692   81.7991   14.2035 C   0  0  0  0  0  0  0  0  0  0  0  0
 22 23  1  0  0  0
 23 24  2  0  0  0
 23 28  1  0  0  0
 24 25  1  0  0  0
 25 26  2  0  0  0
 26 27  1  0  0  0
 26 21  1  0  0  0
 27 28  2  0  0  0
 21  1  1  0  0  0
  1  2  2  0  0  0
  1  3  1  0  0  0
  3  4  1  0  0  0
  3 13  1  0  0  0
  4  5  1  0  0  0
  5  6  1  0  0  0
  6  7  2  0  0  0
  6 11  1  0  0  0
  7  8  1  0  0  0
  7 13  1  0  0  0
  8  9  2  0  0  0
  9 10  1  0  0  0
  9 15  1  0  0  0
 10 11  2  0  0  0
 11 12  1  0  0  0
 15 16  1  0  0  0
 15 20  1  0  0  0
 16 17  1  0  0  0
 17 18  1  0  0  0
 18 19  1  0  0  0
 19 20  1  0  0  0
 12 14  1  0  0  0
M  END
> <minimizedAffinity>
-8.73750

$$$$
1960


 28 31  0  0  0  0  0  0  0  0999 V2000
   53.3323   83.5325   20.0461 C   0  0  0  0  0  0  0  0  0  0  0  0
   54.5825   83.3862   20.0084 O   0  0  0  0  0  0  0  0  0  0  0  0
   52.5982   82.8066   20.9974 N   0  0  0  0  0  0  0  0  0  0  0  0
   53.2677   81.8886   21.9356 C   0  0  0  0  0  0  0  0  0  0  0  0
   52.5684   81.9968   23.2820 C   0  0  0  0  0  0  0  0  0  0  0  0
   52.0016   83.3287   23.3503 N   0  0  0  0  0  0  0  0  0  0  0  0
   50.8403   83.5544   22.5066 C   0  0  0  0  0  0  0  0  0  0  0  0
   51.1530   82.8804   21.1595 C   0  0  0  0  0  0  0  0  0  0  0  0
   52.5563   84.3422   24.1739 C   0  0  0  0  0  0  0  0  0  0  0  0
   51.9384   84.6846   25.3626 C   0  0  0  0  0  0  0  0  0  0  0  0
   52.4859   85.6720   26.1297 N   0  0  0  0  0  0  0  0  0  0  0  0
   53.5825   86.3204   25.7892 N   0  0  0  0  0  0  0  0  0  0  0  0
   54.2458   86.0328   24.6267 C   0  0  0  0  0  0  0  0  0  0  0  0
   53.6958   85.0468   23.8648 C   0  0  0  0  0  0  0  0  0  0  0  0
   55.4127   86.7680   24.3223 N   0  0  0  0  0  0  0  0  0  0  0  0
   56.7079   86.1174   24.2532 C   0  0  0  0  0  0  0  0  0  0  0  0
   57.7644   86.9510   24.9798 C   0  0  0  0  0  0  0  0  0  0  0  0
   57.6961   88.2829   24.6224 O   0  0  0  0  0  0  0  0  0  0  0  0
   56.4603   88.7706   25.0188 C   0  0  0  0  0  0  0  0  0  0  0  0
   55.3975   88.1860   24.0713 C   0  0  0  0  0  0  0  0  0  0  0  0
   52.7271   84.4668   19.0780 C   0  0  0  0  0  0  0  0  0  0  0  0
   54.2666   90.2054   20.1162 Cl  0  0  0  0  0  0  0  0  0  0  0  0
   53.8279   88.5502   19.8246 C   0  0  0  0  0  0  0  0  0  0  0  0
   53.1166   88.1910   18.6784 C   0  0  0  0  0  0  0  0  0  0  0  0
   52.7704   86.8713   18.4530 C   0  0  0  0  0  0  0  0  0  0  0  0
   53.1211   85.8733   19.3586 C   0  0  0  0  0  0  0  0  0  0  0  0
   53.8175   86.2207   20.4829 C   0  0  0  0  0  0  0  0  0  0  0  0
   54.1665   87.5521   20.7081 C   0  0  0  0  0  0  0  0  0  0  0  0
 22 23  1  0  0  0
 23 24  2  0  0  0
 23 28  1  0  0  0
 24 25  1  0  0  0
 25 26  2  0  0  0
 26 27  1  0  0  0
 26 21  1  0  0  0
 27 28  2  0  0  0
 21  1  1  0  0  0
  1  2  2  0  0  0
  1  3  1  0  0  0
  3  4  1  0  0  0
  3  8  1  0  0  0
  4  5  1  0  0  0
  5  6  1  0  0  0
  6  7  1  0  0  0
  6  9  1  0  0  0
  7  8  1  0  0  0
  9 10  2  0  0  0
  9 14  1  0  0  0
 10 11  1  0  0  0
 11 12  2  0  0  0
 12 13  1  0  0  0
 13 14  2  0  0  0
 13 15  1  0  0  0
 15 16  1  0  0  0
 15 20  1  0  0  0
 16 17  1  0  0  0
 17 18  1  0  0  0
 18 19  1  0  0  0
 19 20  1  0  0  0
M  END
> <minimizedAffinity>
-8.47467

$$$$
1966


 27 30  0  0  0  0  0  0  0  0999 V2000
   56.3555   87.9594   22.7921 C   0  0  0  0  0  0  0  0  0  0  0  0
   57.2510   87.8171   23.7127 O   0  0  0  0  0  0  0  0  0  0  0  0
   56.3544   88.9746   21.8690 N   0  0  0  0  0  0  0  0  0  0  0  0
   57.4923   89.4956   22.4194 H   0  0  0  0  0  0  0  0  0  0  0  0
   54.7791   86.4610   20.5405 F   0  0  0  0  0  0  0  0  0  0  0  0
   54.6710   86.2325   21.8723 C   0  0  0  0  0  0  0  0  0  0  0  0
   53.8252   85.2846   22.3800 N   0  0  0  0  0  0  0  0  0  0  0  0
   53.9829   85.3462   23.7118 C   0  0  0  0  0  0  0  0  0  0  0  0
   54.8875   86.2929   24.0100 N   0  0  0  0  0  0  0  0  0  0  0  0
   55.3437   86.8726   22.8826 C   0  0  0  0  0  0  0  0  0  0  0  0
   53.2336   84.4835   24.4738 C   0  0  0  0  0  0  0  0  0  0  0  0
   52.3392   83.5703   23.9122 C   0  0  0  0  0  0  0  0  0  0  0  0
   52.2059   83.5366   22.5499 C   0  0  0  0  0  0  0  0  0  0  0  0
   52.9749   84.4205   21.8013 C   0  0  0  0  0  0  0  0  0  0  0  0
   51.0989   82.4055   21.7720 Cl  0  0  0  0  0  0  0  0  0  0  0  0
   56.3529   89.9844   20.9522 C   0  0  0  0  0  0  0  0  0  0  0  0
   55.3256   91.0659   21.1744 C   0  0  0  0  0  0  0  0  0  0  0  0
   54.4084   91.4643   20.2895 N   0  0  0  0  0  0  0  0  0  0  0  0
   53.6947   92.4241   20.8528 N   0  0  0  0  0  0  0  0  0  0  0  0
   54.1293   92.6500   22.0738 N   0  0  0  0  0  0  0  0  0  0  0  0
   55.1411   91.8030   22.2652 N   0  0  0  0  0  0  0  0  0  0  0  0
   54.2858   90.8871   18.9882 C   0  0  0  0  0  0  0  0  0  0  0  0
   53.6236   89.6695   18.8720 C   0  0  0  0  0  0  0  0  0  0  0  0
   53.4855   89.0459   17.6380 C   0  0  0  0  0  0  0  0  0  0  0  0
   54.0006   89.6133   16.4900 C   0  0  0  0  0  0  0  0  0  0  0  0
   54.6551   90.8203   16.6128 C   0  0  0  0  0  0  0  0  0  0  0  0
   54.7950   91.4435   17.8400 C   0  0  0  0  0  0  0  0  0  0  0  0
  5  6  1  0  0  0
  6  7  1  0  0  0
  6 10  2  0  0  0
  7  8  1  0  0  0
  7 14  1  0  0  0
  8  9  2  0  0  0
  8 11  1  0  0  0
  9 10  1  0  0  0
 10  1  1  0  0  0
  1  2  2  0  0  0
  1  3  1  0  0  0
  3 16  1  0  0  0
 16 17  1  0  0  0
 17 18  1  0  0  0
 17 21  2  0  0  0
 18 19  1  0  0  0
 18 22  1  0  0  0
 19 20  2  0  0  0
 20 21  1  0  0  0
 22 23  2  0  0  0
 22 27  1  0  0  0
 23 24  1  0  0  0
 24 25  2  0  0  0
 25 26  1  0  0  0
 26 27  2  0  0  0
 11 12  2  0  0  0
 12 13  1  0  0  0
 13 14  2  0  0  0
 13 15  1  0  0  0
  3  4  1  0  0  0
M  END
> <minimizedAffinity>
-9.06703

$$$$
1969


 26 29  0  0  0  0  0  0  0  0999 V2000
   50.0311   98.8313   29.0939 C   0  0  0  0  0  0  0  0  0  0  0  0
   49.4281   97.8253   29.8423 O   0  0  0  0  0  0  0  0  0  0  0  0
   49.1032   99.6183   28.4987 N   0  0  0  0  0  0  0  0  0  0  0  0
   49.2205  100.8171   27.7227 C   0  0  0  0  0  0  0  0  0  0  0  0
   47.9124  101.6268   27.8365 C   0  0  0  0  0  0  0  0  0  0  0  0
   47.4360  101.3336   29.1957 N   0  0  0  0  0  0  0  0  0  0  0  0
   46.9156  100.0365   29.4756 C   0  0  0  0  0  0  0  0  0  0  0  0
   47.6971   99.1114   28.5990 C   0  0  0  0  0  0  0  0  0  0  0  0
   47.6087  102.2785   30.2007 C   0  0  0  0  0  0  0  0  0  0  0  0
   46.6187  102.4913   31.1668 N   0  0  0  0  0  0  0  0  0  0  0  0
   46.6873  103.3179   32.1501 C   0  0  0  0  0  0  0  0  0  0  0  0
   47.8197  104.1178   32.3687 C   0  0  0  0  0  0  0  0  0  0  0  0
   48.8052  103.9187   31.4107 C   0  0  0  0  0  0  0  0  0  0  0  0
   48.6753  103.0824   30.4505 N   0  0  0  0  0  0  0  0  0  0  0  0
   52.8848   97.2547   27.8405 N   0  0  0  0  0  0  0  0  0  0  0  0
   53.4714   97.7442   28.9118 N   0  0  0  0  0  0  0  0  0  0  0  0
   52.6237   98.3436   29.4837 N   0  0  0  0  0  0  0  0  0  0  0  0
   51.4426   98.5648   29.3058 C   0  0  0  0  0  0  0  0  0  0  0  0
   51.6378   97.6382   27.9079 C   0  0  0  0  0  0  0  0  0  0  0  0
   57.1610   96.1391   25.0152 Cl  0  0  0  0  0  0  0  0  0  0  0  0
   55.5399   95.8814   25.5792 C   0  0  0  0  0  0  0  0  0  0  0  0
   54.8938   96.7034   26.4936 C   0  0  0  0  0  0  0  0  0  0  0  0
   53.6248   96.4566   26.8881 C   0  0  0  0  0  0  0  0  0  0  0  0
   53.0101   95.3503   26.3371 C   0  0  0  0  0  0  0  0  0  0  0  0
   53.5877   94.5140   25.4428 C   0  0  0  0  0  0  0  0  0  0  0  0
   54.8547   94.7478   25.0335 C   0  0  0  0  0  0  0  0  0  0  0  0
 20 21  1  0  0  0
 21 22  2  0  0  0
 21 26  1  0  0  0
 22 23  1  0  0  0
 23 24  2  0  0  0
 23 15  1  0  0  0
 24 25  1  0  0  0
 25 26  2  0  0  0
 15 16  1  0  0  0
 15 19  1  0  0  0
 16 17  2  0  0  0
 17 18  1  0  0  0
 18 19  2  0  0  0
 18  1  1  0  0  0
  1  2  2  0  0  0
  1  3  1  0  0  0
  3  4  1  0  0  0
  3  8  1  0  0  0
  4  5  1  0  0  0
  5  6  1  0  0  0
  6  7  1  0  0  0
  6  9  1  0  0  0
  7  8  1  0  0  0
  9 10  2  0  0  0
  9 14  1  0  0  0
 10 11  1  0  0  0
 11 12  2  0  0  0
 12 13  1  0  0  0
 13 14  2  0  0  0
M  END
> <minimizedAffinity>
-9.19422

$$$$
1971


 22 25  0  0  0  0  0  0  0  0999 V2000
   55.5021   88.1968   21.6434 N   0  0  0  0  0  0  0  0  0  0  0  0
   56.0341   86.9393   22.1002 C   0  0  0  0  0  0  0  0  0  0  0  0
   55.8216   85.8337   21.5488 O   0  0  0  0  0  0  0  0  0  0  0  0
   56.8496   87.1535   23.2927 C   0  0  0  0  0  0  0  0  0  0  0  0
   56.2479   86.6743   24.5724 C   0  0  0  0  0  0  0  0  0  0  0  0
   56.8920   87.5417   25.4906 O   0  0  0  0  0  0  0  0  0  0  0  0
   56.3802   88.7521   24.9554 C   0  0  0  0  0  0  0  0  0  0  0  0
   56.8749   88.6718   23.5324 C   0  0  0  0  0  0  0  0  0  0  0  0
   55.8630   89.1819   22.6049 C   0  0  0  0  0  0  0  0  0  0  0  0
   55.3657   90.3341   22.6335 O   0  0  0  0  0  0  0  0  0  0  0  0
   54.9326   88.4543   24.9477 C   0  0  0  0  0  0  0  0  0  0  0  0
   54.8469   87.1205   24.7391 C   0  0  0  0  0  0  0  0  0  0  0  0
   54.8397   90.9549   17.2943 Cl  0  0  0  0  0  0  0  0  0  0  0  0
   54.3761   89.6997   18.4222 C   0  0  0  0  0  0  0  0  0  0  0  0
   55.1064   89.4485   19.5642 C   0  0  0  0  0  0  0  0  0  0  0  0
   54.7491   88.4581   20.4653 C   0  0  0  0  0  0  0  0  0  0  0  0
   53.6187   87.7226   20.1691 C   0  0  0  0  0  0  0  0  0  0  0  0
   52.8825   87.9748   19.0189 C   0  0  0  0  0  0  0  0  0  0  0  0
   53.2457   88.9645   18.1280 C   0  0  0  0  0  0  0  0  0  0  0  0
   56.4933   85.2427   24.8941 C   0  0  0  0  0  0  0  0  0  0  0  0
   55.8049   84.9056   26.0524 O   0  0  0  0  0  0  0  0  0  0  0  0
   55.3372   85.6935   26.4141 H   0  0  0  0  0  0  0  0  0  0  0  0
 13 14  1  0  0  0
 14 15  2  0  0  0
 14 19  1  0  0  0
 15 16  1  0  0  0
 16 17  2  0  0  0
 16  1  1  0  0  0
 17 18  1  0  0  0
 18 19  2  0  0  0
  1  2  1  0  0  0
  1  9  1  0  0  0
  2  3  2  0  0  0
  2  4  1  0  0  0
  4  5  1  0  0  0
  4  8  1  0  0  0
  5  6  1  0  0  0
  5 12  1  0  0  0
  5 20  1  0  0  0
  6  7  1  0  0  0
  7  8  1  0  0  0
  7 11  1  0  0  0
  8  9  1  0  0  0
  9 10  2  0  0  0
 11 12  2  0  0  0
 20 21  1  0  0  0
 21 22  1  0  0  0
M  END
> <minimizedAffinity>
-8.00951

$$$$
1973


 24 27  0  0  0  0  0  0  0  0999 V2000
   56.7944   88.8416   25.2206 Cl  0  0  0  0  0  0  0  0  0  0  0  0
   55.9478   88.5986   23.6932 C   0  0  0  0  0  0  0  0  0  0  0  0
   55.4710   87.3619   23.3103 C   0  0  0  0  0  0  0  0  0  0  0  0
   54.8179   87.1553   22.1414 N   0  0  0  0  0  0  0  0  0  0  0  0
   54.5930   88.1580   21.2720 C   0  0  0  0  0  0  0  0  0  0  0  0
   53.9403   87.9702   20.0949 N   0  0  0  0  0  0  0  0  0  0  0  0
   53.4724   86.7677   19.7140 C   0  0  0  0  0  0  0  0  0  0  0  0
   53.6968   85.7204   20.6016 C   0  0  0  0  0  0  0  0  0  0  0  0
   53.1810   84.3910   20.1822 C   0  0  0  0  0  0  0  0  0  0  0  0
   53.5769   84.2507   18.7761 N   0  0  0  0  0  0  0  0  0  0  0  0
   53.0457   85.1993   17.8386 C   0  0  0  0  0  0  0  0  0  0  0  0
   52.7556   86.5493   18.4315 C   0  0  0  0  0  0  0  0  0  0  0  0
   54.4554   83.2200   18.3756 C   0  0  0  0  0  0  0  0  0  0  0  0
   54.8842   82.4376   19.2899 O   0  0  0  0  0  0  0  0  0  0  0  0
   54.3612   85.9404   21.7879 C   0  0  0  0  0  0  0  0  0  0  0  0
   54.5539   84.9647   22.5833 O   0  0  0  0  0  0  0  0  0  0  0  0
   55.0646   89.4081   21.6374 C   0  0  0  0  0  0  0  0  0  0  0  0
   55.7317   89.6444   22.8214 C   0  0  0  0  0  0  0  0  0  0  0  0
   54.8791   83.0244   16.9714 C   0  0  0  0  0  0  0  0  0  0  0  0
   53.7069   82.7658   16.0506 C   0  0  0  0  0  0  0  0  0  0  0  0
   52.7895   81.8133   16.8065 C   0  0  0  0  0  0  0  0  0  0  0  0
   53.5448   80.8832   17.5186 O   0  0  0  0  0  0  0  0  0  0  0  0
   54.7489   80.5913   16.8632 C   0  0  0  0  0  0  0  0  0  0  0  0
   55.7302   81.7470   16.9163 C   0  0  0  0  0  0  0  0  0  0  0  0
  1  2  1  0  0  0
  2  3  2  0  0  0
  2 18  1  0  0  0
  3  4  1  0  0  0
  4  5  1  0  0  0
  4 15  1  0  0  0
  5  6  2  0  0  0
  5 17  1  0  0  0
  6  7  1  0  0  0
  7  8  2  0  0  0
  7 12  1  0  0  0
  8  9  1  0  0  0
  8 15  1  0  0  0
  9 10  1  0  0  0
 10 11  1  0  0  0
 10 13  1  0  0  0
 11 12  1  0  0  0
 13 14  2  0  0  0
 13 19  1  0  0  0
 19 20  1  0  0  0
 19 24  1  0  0  0
 20 21  1  0  0  0
 21 22  1  0  0  0
 22 23  1  0  0  0
 23 24  1  0  0  0
 15 16  2  0  0  0
 17 18  2  0  0  0
M  END
> <minimizedAffinity>
-8.31676

$$$$
1974


 26 29  0  0  0  0  0  0  0  0999 V2000
   56.2528   90.8929   21.2731 F   0  0  0  0  0  0  0  0  0  0  0  0
   55.1818   90.3788   20.6221 C   0  0  0  0  0  0  0  0  0  0  0  0
   54.9458   89.0156   20.7150 C   0  0  0  0  0  0  0  0  0  0  0  0
   53.8769   88.4227   20.0799 C   0  0  0  0  0  0  0  0  0  0  0  0
   53.0381   89.2372   19.3383 C   0  0  0  0  0  0  0  0  0  0  0  0
   53.2705   90.5894   19.2454 C   0  0  0  0  0  0  0  0  0  0  0  0
   54.3399   91.1753   19.8820 C   0  0  0  0  0  0  0  0  0  0  0  0
   51.6750   88.4868   18.5272 Cl  0  0  0  0  0  0  0  0  0  0  0  0
   53.8436   86.9958   20.3265 C   0  0  0  0  0  0  0  0  0  0  0  0
   53.0185   86.1514   19.9094 O   0  0  0  0  0  0  0  0  0  0  0  0
   54.9922   86.7236   21.1811 C   0  0  0  0  0  0  0  0  0  0  0  0
   55.3208   85.5802   21.6275 O   0  0  0  0  0  0  0  0  0  0  0  0
   55.6487   87.9614   21.4057 N   0  0  0  0  0  0  0  0  0  0  0  0
   56.8424   88.1816   22.1959 C   0  0  0  0  0  0  0  0  0  0  0  0
   56.5817   88.2736   23.6169 N   0  0  0  0  0  0  0  0  0  0  0  0
   55.1877   88.1882   23.8879 C   0  0  0  0  0  0  0  0  0  0  0  0
   54.8068   87.3149   25.0310 C   0  0  0  0  0  0  0  0  0  0  0  0
   55.5912   86.1115   25.1269 N   0  0  0  0  0  0  0  0  0  0  0  0
   56.8451   86.0470   24.4127 C   0  0  0  0  0  0  0  0  0  0  0  0
   57.4209   87.4471   24.4164 C   0  0  0  0  0  0  0  0  0  0  0  0
   55.1797   84.9974   25.8930 C   0  0  0  0  0  0  0  0  0  0  0  0
   55.7189   83.7814   25.7051 N   0  0  0  0  0  0  0  0  0  0  0  0
   55.3432   82.7039   26.4217 C   0  0  0  0  0  0  0  0  0  0  0  0
   54.3693   82.8171   27.3953 C   0  0  0  0  0  0  0  0  0  0  0  0
   53.8272   84.0301   27.5885 N   0  0  0  0  0  0  0  0  0  0  0  0
   54.2012   85.1078   26.8729 C   0  0  0  0  0  0  0  0  0  0  0  0
  1  2  1  0  0  0
  2  3  2  0  0  0
  2  7  1  0  0  0
  3  4  1  0  0  0
  3 13  1  0  0  0
  4  5  2  0  0  0
  4  9  1  0  0  0
  5  6  1  0  0  0
  5  8  1  0  0  0
  6  7  2  0  0  0
  9 10  2  0  0  0
  9 11  1  0  0  0
 11 12  2  0  0  0
 11 13  1  0  0  0
 13 14  1  0  0  0
 14 15  1  0  0  0
 15 16  1  0  0  0
 15 20  1  0  0  0
 16 17  1  0  0  0
 17 18  1  0  0  0
 18 19  1  0  0  0
 18 21  1  0  0  0
 19 20  1  0  0  0
 21 22  2  0  0  0
 21 26  1  0  0  0
 22 23  1  0  0  0
 23 24  2  0  0  0
 24 25  1  0  0  0
 25 26  2  0  0  0
M  END
> <minimizedAffinity>
-8.46071

$$$$
1976


 26 29  0  0  0  0  0  0  0  0999 V2000
   52.8155   97.8170   27.9514 C   0  0  0  0  0  0  0  0  0  0  0  0
   52.9810   98.7671   28.7932 O   0  0  0  0  0  0  0  0  0  0  0  0
   53.8540   97.4062   27.0749 N   0  0  0  0  0  0  0  0  0  0  0  0
   53.6144   96.3427   26.1643 C   0  0  0  0  0  0  0  0  0  0  0  0
   54.7854   95.3572   26.2666 C   0  0  0  0  0  0  0  0  0  0  0  0
   55.9583   96.1861   25.7880 C   0  0  0  0  0  0  0  0  0  0  0  0
   56.0787   97.4943   26.2089 C   0  0  0  0  0  0  0  0  0  0  0  0
   57.1358   98.2268   25.7557 N   0  0  0  0  0  0  0  0  0  0  0  0
   58.0597   97.7269   24.9201 C   0  0  0  0  0  0  0  0  0  0  0  0
   57.9268   96.4500   24.5195 N   0  0  0  0  0  0  0  0  0  0  0  0
   56.8907   95.6643   24.9384 C   0  0  0  0  0  0  0  0  0  0  0  0
   56.7517   94.3509   24.5277 O   0  0  0  0  0  0  0  0  0  0  0  0
   55.1000   98.0926   27.1378 C   0  0  0  0  0  0  0  0  0  0  0  0
   56.8615   93.6213   25.2221 H   0  0  0  0  0  0  0  0  0  0  0  0
   51.4738   97.1500   27.9274 C   0  0  0  0  0  0  0  0  0  0  0  0
   48.6405   96.1394   27.9371 Cl  0  0  0  0  0  0  0  0  0  0  0  0
   49.0678   97.7789   28.3483 C   0  0  0  0  0  0  0  0  0  0  0  0
   48.1069   98.7106   28.7081 C   0  0  0  0  0  0  0  0  0  0  0  0
   48.4288  100.0144   29.0361 C   0  0  0  0  0  0  0  0  0  0  0  0
   49.7628  100.3742   28.9979 C   0  0  0  0  0  0  0  0  0  0  0  0
   50.7076   99.4321   28.6371 C   0  0  0  0  0  0  0  0  0  0  0  0
   50.4046   98.1234   28.3053 C   0  0  0  0  0  0  0  0  0  0  0  0
   50.0833  101.6751   29.3263 O   0  0  0  0  0  0  0  0  0  0  0  0
   49.2493  102.5561   30.0510 C   0  0  0  0  0  0  0  0  0  0  0  0
   47.8213  102.1429   30.1097 C   0  0  0  0  0  0  0  0  0  0  0  0
   47.5168  100.9739   29.3984 O   0  0  0  0  0  0  0  0  0  0  0  0
 16 17  1  0  0  0
 17 18  2  0  0  0
 17 22  1  0  0  0
 18 19  1  0  0  0
 19 20  2  0  0  0
 19 26  1  0  0  0
 20 21  1  0  0  0
 20 23  1  0  0  0
 21 22  2  0  0  0
 22 15  1  0  0  0
 15  1  1  0  0  0
  1  2  2  0  0  0
  1  3  1  0  0  0
  3  4  1  0  0  0
  3 13  1  0  0  0
  4  5  1  0  0  0
  5  6  1  0  0  0
  6  7  2  0  0  0
  6 11  1  0  0  0
  7  8  1  0  0  0
  7 13  1  0  0  0
  8  9  2  0  0  0
  9 10  1  0  0  0
 10 11  2  0  0  0
 11 12  1  0  0  0
 23 24  1  0  0  0
 24 25  1  0  0  0
 25 26  1  0  0  0
 12 14  1  0  0  0
M  END
> <minimizedAffinity>
-10.27045

$$$$
1982


 25 28  0  0  0  0  0  0  0  0999 V2000
   53.0351   91.9009   18.6320 Cl  0  0  0  0  0  0  0  0  0  0  0  0
   52.9797   90.1690   18.8815 C   0  0  0  0  0  0  0  0  0  0  0  0
   53.8344   89.5123   19.7423 C   0  0  0  0  0  0  0  0  0  0  0  0
   53.8025   88.1480   19.9477 C   0  0  0  0  0  0  0  0  0  0  0  0
   52.8603   87.4187   19.2480 C   0  0  0  0  0  0  0  0  0  0  0  0
   51.9995   88.0641   18.3845 C   0  0  0  0  0  0  0  0  0  0  0  0
   52.0324   89.4283   18.1790 C   0  0  0  0  0  0  0  0  0  0  0  0
   52.8063   85.9548   19.4528 C   0  0  0  0  0  0  0  0  0  0  0  0
   52.0540   85.0712   18.9461 N   0  0  0  0  0  0  0  0  0  0  0  0
   52.3330   83.7319   19.4195 C   0  0  0  0  0  0  0  0  0  0  0  0
   53.4640   83.8940   20.3816 C   0  0  0  0  0  0  0  0  0  0  0  0
   53.7086   85.3233   20.3505 N   0  0  0  0  0  0  0  0  0  0  0  0
   54.6509   86.1496   21.0343 C   0  0  0  0  0  0  0  0  0  0  0  0
   55.6081   85.8366   21.9260 N   0  0  0  0  0  0  0  0  0  0  0  0
   56.2635   86.9170   22.3143 N   0  0  0  0  0  0  0  0  0  0  0  0
   55.6887   87.9401   21.6354 C   0  0  0  0  0  0  0  0  0  0  0  0
   56.0556   89.1295   21.7520 O   0  0  0  0  0  0  0  0  0  0  0  0
   54.6984   87.4940   20.8452 N   0  0  0  0  0  0  0  0  0  0  0  0
   57.3597   86.9881   23.2614 C   0  0  0  0  0  0  0  0  0  0  0  0
   56.7916   87.0789   24.6847 C   0  0  0  0  0  0  0  0  0  0  0  0
   56.9471   88.4591   25.2087 C   0  0  0  0  0  0  0  0  0  0  0  0
   57.8841   88.8319   25.9584 O   0  0  0  0  0  0  0  0  0  0  0  0
   55.9732   89.4218   24.8393 N   0  0  0  0  0  0  0  0  0  0  0  0
   54.9632   89.2092   24.7468 H   0  0  0  0  0  0  0  0  0  0  0  0
   56.2979   90.3928   24.6514 H   0  0  0  0  0  0  0  0  0  0  0  0
  1  2  1  0  0  0
  2  3  2  0  0  0
  2  7  1  0  0  0
  3  4  1  0  0  0
  4  5  2  0  0  0
  4 18  1  0  0  0
  5  6  1  0  0  0
  5  8  1  0  0  0
  6  7  2  0  0  0
  8  9  2  0  0  0
  8 12  1  0  0  0
  9 10  1  0  0  0
 10 11  1  0  0  0
 11 12  1  0  0  0
 12 13  1  0  0  0
 13 14  2  0  0  0
 13 18  1  0  0  0
 14 15  1  0  0  0
 15 16  1  0  0  0
 15 19  1  0  0  0
 16 17  2  0  0  0
 16 18  1  0  0  0
 19 20  1  0  0  0
 20 21  1  0  0  0
 21 22  2  0  0  0
 21 23  1  0  0  0
 23 24  1  0  0  0
 23 25  1  0  0  0
M  END
> <minimizedAffinity>
-8.59485

$$$$
1986


 30 33  0  0  0  0  0  0  0  0999 V2000
   55.5266   83.5849   15.9650 Cl  0  0  0  0  0  0  0  0  0  0  0  0
   54.4150   83.3179   17.2965 C   0  0  0  0  0  0  0  0  0  0  0  0
   54.6272   83.9052   18.5277 C   0  0  0  0  0  0  0  0  0  0  0  0
   53.7408   83.6919   19.5913 C   0  0  0  0  0  0  0  0  0  0  0  0
   52.6652   82.8785   19.3435 C   0  0  0  0  0  0  0  0  0  0  0  0
   52.4535   82.2839   18.0919 C   0  0  0  0  0  0  0  0  0  0  0  0
   53.3312   82.4999   17.0520 C   0  0  0  0  0  0  0  0  0  0  0  0
   51.7687   82.6514   20.3838 O   0  0  0  0  0  0  0  0  0  0  0  0
   51.9134   83.2036   21.6449 C   0  0  0  0  0  0  0  0  0  0  0  0
   53.0015   84.0254   21.8939 C   0  0  0  0  0  0  0  0  0  0  0  0
   54.0193   84.3434   20.8862 C   0  0  0  0  0  0  0  0  0  0  0  0
   53.1011   84.5536   23.1656 C   0  0  0  0  0  0  0  0  0  0  0  0
   54.0786   85.3151   23.4529 O   0  0  0  0  0  0  0  0  0  0  0  0
   52.2233   84.3201   24.1539 N   0  0  0  0  0  0  0  0  0  0  0  0
   51.1753   83.5110   23.8642 C   0  0  0  0  0  0  0  0  0  0  0  0
   50.3634   83.3051   24.8062 O   0  0  0  0  0  0  0  0  0  0  0  0
   51.0375   82.9739   22.6381 N   0  0  0  0  0  0  0  0  0  0  0  0
   49.8908   82.1185   22.4075 C   0  0  0  0  0  0  0  0  0  0  0  0
   52.3753   84.9079   25.4852 C   0  0  0  0  0  0  0  0  0  0  0  0
   54.0658   85.8282   20.6815 C   0  0  0  0  0  0  0  0  0  0  0  0
   55.1670   86.5604   21.0672 C   0  0  0  0  0  0  0  0  0  0  0  0
   55.1964   87.9078   20.8779 N   0  0  0  0  0  0  0  0  0  0  0  0
   54.1428   88.5456   20.3093 C   0  0  0  0  0  0  0  0  0  0  0  0
   54.2050   89.7970   20.1501 O   0  0  0  0  0  0  0  0  0  0  0  0
   53.0558   87.8588   19.9237 N   0  0  0  0  0  0  0  0  0  0  0  0
   53.0211   86.5256   20.1084 C   0  0  0  0  0  0  0  0  0  0  0  0
   52.0107   85.9055   19.7470 O   0  0  0  0  0  0  0  0  0  0  0  0
   51.9395   88.5769   19.3161 C   0  0  0  0  0  0  0  0  0  0  0  0
   56.3927   88.6261   21.3056 C   0  0  0  0  0  0  0  0  0  0  0  0
   56.2312   85.9216   21.6401 O   0  0  0  0  0  0  0  0  0  0  0  0
  1  2  1  0  0  0
  2  3  2  0  0  0
  2  7  1  0  0  0
  3  4  1  0  0  0
  4  5  2  0  0  0
  4 11  1  0  0  0
  5  6  1  0  0  0
  5  8  1  0  0  0
  6  7  2  0  0  0
  8  9  1  0  0  0
  9 10  2  0  0  0
  9 17  1  0  0  0
 10 11  1  0  0  0
 10 12  1  0  0  0
 11 20  1  0  0  0
 20 21  2  0  0  0
 20 26  1  0  0  0
 21 22  1  0  0  0
 21 30  1  0  0  0
 22 23  1  0  0  0
 22 29  1  0  0  0
 23 24  2  0  0  0
 23 25  1  0  0  0
 25 26  1  0  0  0
 25 28  1  0  0  0
 26 27  2  0  0  0
 12 13  2  0  0  0
 12 14  1  0  0  0
 14 15  1  0  0  0
 14 19  1  0  0  0
 15 16  2  0  0  0
 15 17  1  0  0  0
 17 18  1  0  0  0
M  CHG 1  30  -1
M  END
> <minimizedAffinity>
-9.10614

$$$$
1991


 31 34  0  0  0  0  0  0  0  0999 V2000
   54.3976   83.3545   14.7355 Cl  0  0  0  0  0  0  0  0  0  0  0  0
   54.2674   83.3602   16.4778 C   0  0  0  0  0  0  0  0  0  0  0  0
   53.5010   84.3013   17.1283 C   0  0  0  0  0  0  0  0  0  0  0  0
   53.4108   84.2912   18.4958 C   0  0  0  0  0  0  0  0  0  0  0  0
   54.1017   83.3176   19.2275 C   0  0  0  0  0  0  0  0  0  0  0  0
   54.8756   82.3671   18.5813 C   0  0  0  0  0  0  0  0  0  0  0  0
   54.9403   82.4116   17.2158 C   0  0  0  0  0  0  0  0  0  0  0  0
   54.1143   83.1729   20.6062 O   0  0  0  0  0  0  0  0  0  0  0  0
   53.1485   83.6170   21.5292 C   0  0  0  0  0  0  0  0  0  0  0  0
   53.0489   85.1070   21.5773 C   0  0  0  0  0  0  0  0  0  0  0  0
   53.1207   85.7681   20.3094 N   0  0  0  0  0  0  0  0  0  0  0  0
   52.5487   85.3656   19.0507 C   0  0  0  0  0  0  0  0  0  0  0  0
   53.8554   87.0010   20.2391 C   0  0  0  0  0  0  0  0  0  0  0  0
   53.9038   87.5689   19.1199 O   0  0  0  0  0  0  0  0  0  0  0  0
   51.8152   82.9496   21.2304 C   0  0  0  0  0  0  0  0  0  0  0  0
   51.6815   81.6633   22.0262 C   0  0  0  0  0  0  0  0  0  0  0  0
   51.5940   81.8896   23.3858 O   0  0  0  0  0  0  0  0  0  0  0  0
   52.2518   83.0626   23.7376 C   0  0  0  0  0  0  0  0  0  0  0  0
   53.5356   83.1526   22.9357 C   0  0  0  0  0  0  0  0  0  0  0  0
   54.5162   87.5700   21.4123 C   0  0  0  0  0  0  0  0  0  0  0  0
   55.7813   88.1801   21.2256 N   0  0  0  0  0  0  0  0  0  0  0  0
   56.8813   87.2588   21.5229 C   0  0  0  0  0  0  0  0  0  0  0  0
   56.7735   86.8487   22.9436 C   0  0  0  0  0  0  0  0  0  0  0  0
   56.5370   87.9370   23.9366 C   0  0  0  0  0  0  0  0  0  0  0  0
   56.1355   89.2580   23.4102 C   0  0  0  0  0  0  0  0  0  0  0  0
   56.0095   89.4106   21.9420 C   0  0  0  0  0  0  0  0  0  0  0  0
   55.6245   87.4978   25.0206 C   0  0  0  0  0  0  0  0  0  0  0  0
   55.8136   86.3935   25.5695 O   0  0  0  0  0  0  0  0  0  0  0  0
   54.5533   88.3251   25.4209 N   0  0  0  0  0  0  0  0  0  0  0  0
   54.6794   88.8212   26.3520 H   0  0  0  0  0  0  0  0  0  0  0  0
   53.6806   88.4885   24.9049 H   0  0  0  0  0  0  0  0  0  0  0  0
  1  2  1  0  0  0
  2  3  2  0  0  0
  2  7  1  0  0  0
  3  4  1  0  0  0
  4  5  2  0  0  0
  4 12  1  0  0  0
  5  6  1  0  0  0
  5  8  1  0  0  0
  6  7  2  0  0  0
  8  9  1  0  0  0
  9 10  1  0  0  0
  9 15  1  0  0  0
  9 19  1  0  0  0
 10 11  1  0  0  0
 11 12  1  0  0  0
 11 13  1  0  0  0
 13 14  2  0  0  0
 13 20  1  0  0  0
 20 21  1  0  0  0
 21 22  1  0  0  0
 21 26  1  0  0  0
 22 23  1  0  0  0
 23 24  1  0  0  0
 24 25  1  0  0  0
 24 27  1  0  0  0
 25 26  1  0  0  0
 27 28  2  0  0  0
 27 29  1  0  0  0
 15 16  1  0  0  0
 16 17  1  0  0  0
 17 18  1  0  0  0
 18 19  1  0  0  0
 29 30  1  0  0  0
 29 31  1  0  0  0
M  END
> <minimizedAffinity>
-8.40162

$$$$
2003


 28 31  0  0  0  0  0  0  0  0999 V2000
   55.3687   86.2232   23.6503 N   0  0  0  0  0  0  0  0  0  0  0  0
   55.5488   85.3384   24.7602 C   0  0  0  0  0  0  0  0  0  0  0  0
   54.2531   84.8927   25.3846 C   0  0  0  0  0  0  0  0  0  0  0  0
   53.2081   84.7008   24.4055 N   0  0  0  0  0  0  0  0  0  0  0  0
   53.4007   84.8819   22.9912 C   0  0  0  0  0  0  0  0  0  0  0  0
   54.5472   85.7348   22.6009 C   0  0  0  0  0  0  0  0  0  0  0  0
   51.9216   84.3099   24.8658 C   0  0  0  0  0  0  0  0  0  0  0  0
   50.9569   84.1237   24.0513 O   0  0  0  0  0  0  0  0  0  0  0  0
   51.6623   84.1092   26.2914 C   0  0  0  0  0  0  0  0  0  0  0  0
   51.9881   82.9479   26.9630 C   0  0  0  0  0  0  0  0  0  0  0  0
   51.7206   82.8342   28.2773 N   0  0  0  0  0  0  0  0  0  0  0  0
   51.1393   83.8079   29.0013 C   0  0  0  0  0  0  0  0  0  0  0  0
   50.8163   84.9466   28.3615 N   0  0  0  0  0  0  0  0  0  0  0  0
   50.2336   85.9345   29.0701 C   0  0  0  0  0  0  0  0  0  0  0  0
   49.9614   85.8109   30.4176 C   0  0  0  0  0  0  0  0  0  0  0  0
   50.2812   84.6548   31.1033 C   0  0  0  0  0  0  0  0  0  0  0  0
   50.8789   83.6542   30.3570 C   0  0  0  0  0  0  0  0  0  0  0  0
   51.0672   85.0993   27.0473 C   0  0  0  0  0  0  0  0  0  0  0  0
   50.7656   86.1615   26.4499 O   0  0  0  0  0  0  0  0  0  0  0  0
   56.7716   87.0329   23.1575 S   0  0  0  0  0  0  0  0  0  0  0  0
   57.6406   87.3520   24.3129 O   0  0  0  0  0  0  0  0  0  0  0  0
   57.5210   86.1547   22.1809 O   0  0  0  0  0  0  0  0  0  0  0  0
   56.3037   88.5252   22.3247 C   0  0  0  0  0  0  0  0  0  0  0  0
   55.5076   89.9030   22.9358 S   0  0  0  0  0  0  0  0  0  0  0  0
   55.4537   90.8380   21.5110 C   0  0  0  0  0  0  0  0  0  0  0  0
   56.0674   90.0346   20.5902 C   0  0  0  0  0  0  0  0  0  0  0  0
   56.5061   88.8426   21.0059 C   0  0  0  0  0  0  0  0  0  0  0  0
   54.7792   92.4583   21.2427 Cl  0  0  0  0  0  0  0  0  0  0  0  0
 20 21  2  0  0  0
 20 22  2  0  0  0
 20  1  1  0  0  0
 20 23  1  0  0  0
  1  2  1  0  0  0
  1  6  1  0  0  0
  2  3  1  0  0  0
  3  4  1  0  0  0
  4  5  1  0  0  0
  4  7  1  0  0  0
  5  6  1  0  0  0
  7  8  2  0  0  0
  7  9  1  0  0  0
  9 10  2  0  0  0
  9 18  1  0  0  0
 10 11  1  0  0  0
 11 12  2  0  0  0
 12 13  1  0  0  0
 12 17  1  0  0  0
 13 14  1  0  0  0
 13 18  1  0  0  0
 14 15  2  0  0  0
 15 16  1  0  0  0
 16 17  2  0  0  0
 18 19  2  0  0  0
 23 24  1  0  0  0
 23 27  2  0  0  0
 24 25  1  0  0  0
 25 26  2  0  0  0
 25 28  1  0  0  0
 26 27  1  0  0  0
M  END
> <minimizedAffinity>
-8.57252

$$$$
2004


 29 32  0  0  0  0  0  0  0  0999 V2000
   56.7519   87.1822   23.2515 S   0  0  0  0  0  0  0  0  0  0  0  0
   57.7720   87.4989   24.3347 O   0  0  0  0  0  0  0  0  0  0  0  0
   57.4636   86.1642   22.3620 O   0  0  0  0  0  0  0  0  0  0  0  0
   55.4100   86.3415   23.9965 C   0  0  0  0  0  0  0  0  0  0  0  0
   55.3677   86.2463   25.4020 C   0  0  0  0  0  0  0  0  0  0  0  0
   54.3704   85.5478   26.0437 C   0  0  0  0  0  0  0  0  0  0  0  0
   53.3624   84.9036   25.3630 C   0  0  0  0  0  0  0  0  0  0  0  0
   53.3979   84.9952   23.9937 C   0  0  0  0  0  0  0  0  0  0  0  0
   54.4046   85.7030   23.3209 C   0  0  0  0  0  0  0  0  0  0  0  0
   54.3358   85.8357   21.5800 Cl  0  0  0  0  0  0  0  0  0  0  0  0
   52.3676   84.1997   26.0831 N   0  0  0  0  0  0  0  0  0  0  0  0
   52.3646   84.1261   27.5032 C   0  0  0  0  0  0  0  0  0  0  0  0
   51.3994   83.7525   28.1969 O   0  0  0  0  0  0  0  0  0  0  0  0
   53.6236   84.5326   28.1814 C   0  0  0  0  0  0  0  0  0  0  0  0
   54.3516   85.4696   27.4366 O   0  0  0  0  0  0  0  0  0  0  0  0
   54.5096   83.3329   28.4299 C   0  0  0  0  0  0  0  0  0  0  0  0
   51.6034   83.7123   25.5600 H   0  0  0  0  0  0  0  0  0  0  0  0
   56.3783   88.5378   22.3436 N   0  0  0  0  0  0  0  0  0  0  0  0
   55.4113   89.4179   22.8348 C   0  0  0  0  0  0  0  0  0  0  0  0
   55.3582   90.7407   22.0566 C   0  0  0  0  0  0  0  0  0  0  0  0
   55.5516   90.5338   20.6524 N   0  0  0  0  0  0  0  0  0  0  0  0
   56.6080   89.6375   20.2361 C   0  0  0  0  0  0  0  0  0  0  0  0
   56.3419   88.3100   20.9182 C   0  0  0  0  0  0  0  0  0  0  0  0
   54.7363   91.1851   19.7194 C   0  0  0  0  0  0  0  0  0  0  0  0
   53.8238   91.9591   20.1050 O   0  0  0  0  0  0  0  0  0  0  0  0
   54.9009   91.0005   18.2430 C   0  0  0  0  0  0  0  0  0  0  0  0
   53.9110   91.7906   17.4198 C   0  0  0  0  0  0  0  0  0  0  0  0
   52.9961   90.5693   17.4693 C   0  0  0  0  0  0  0  0  0  0  0  0
   54.2443   89.7313   17.7617 C   0  0  0  0  0  0  0  0  0  0  0  0
  1  2  2  0  0  0
  1  3  2  0  0  0
  1 18  1  0  0  0
  1  4  1  0  0  0
 18 19  1  0  0  0
 18 23  1  0  0  0
 19 20  1  0  0  0
 20 21  1  0  0  0
 21 22  1  0  0  0
 21 24  1  0  0  0
 22 23  1  0  0  0
 24 25  2  0  0  0
 24 26  1  0  0  0
 26 27  1  0  0  0
 26 29  1  0  0  0
 27 28  1  0  0  0
 28 29  1  0  0  0
  4  5  2  0  0  0
  4  9  1  0  0  0
  5  6  1  0  0  0
  6  7  2  0  0  0
  6 15  1  0  0  0
  7  8  1  0  0  0
  7 11  1  0  0  0
  8  9  2  0  0  0
  9 10  1  0  0  0
 11 12  1  0  0  0
 12 13  2  0  0  0
 12 14  1  0  0  0
 14 15  1  0  0  0
 14 16  1  0  0  0
 11 17  1  0  0  0
M  END
> <minimizedAffinity>
-9.18415

$$$$
2012


 25 28  0  0  0  0  0  0  0  0999 V2000
   54.8055   89.6445   20.3463 N   0  0  0  0  0  0  0  0  0  0  0  0
   55.7279   90.0087   21.3671 C   0  0  0  0  0  0  0  0  0  0  0  0
   55.9579   91.1770   21.7222 O   0  0  0  0  0  0  0  0  0  0  0  0
   56.3496   88.7918   21.9158 C   0  0  0  0  0  0  0  0  0  0  0  0
   56.6321   88.7602   23.2435 O   0  0  0  0  0  0  0  0  0  0  0  0
   56.3852   87.4399   23.5719 N   0  0  0  0  0  0  0  0  0  0  0  0
   55.2316   87.0103   22.8445 C   0  0  0  0  0  0  0  0  0  0  0  0
   55.1902   87.8449   21.8120 C   0  0  0  0  0  0  0  0  0  0  0  0
   54.4596   88.2624   20.6246 C   0  0  0  0  0  0  0  0  0  0  0  0
   53.6771   87.5121   19.9878 O   0  0  0  0  0  0  0  0  0  0  0  0
   56.9655   86.8924   24.2276 H   0  0  0  0  0  0  0  0  0  0  0  0
   50.8927   92.2356   18.1268 Cl  0  0  0  0  0  0  0  0  0  0  0  0
   52.5330   91.5959   18.1724 C   0  0  0  0  0  0  0  0  0  0  0  0
   52.9760   90.8728   19.2766 C   0  0  0  0  0  0  0  0  0  0  0  0
   54.2639   90.3906   19.2632 C   0  0  0  0  0  0  0  0  0  0  0  0
   55.1090   90.6224   18.1665 C   0  0  0  0  0  0  0  0  0  0  0  0
   54.6688   91.3312   17.0892 C   0  0  0  0  0  0  0  0  0  0  0  0
   53.3714   91.8153   17.0995 C   0  0  0  0  0  0  0  0  0  0  0  0
   54.3445   85.8985   23.1232 C   0  0  0  0  0  0  0  0  0  0  0  0
   53.8627   85.0695   22.1060 C   0  0  0  0  0  0  0  0  0  0  0  0
   53.0570   84.1347   22.6308 N   0  0  0  0  0  0  0  0  0  0  0  0
   53.0021   84.3324   23.9492 N   0  0  0  0  0  0  0  0  0  0  0  0
   53.7770   85.3977   24.2588 C   0  0  0  0  0  0  0  0  0  0  0  0
   53.9719   85.9558   25.6206 C   0  0  0  0  0  0  0  0  0  0  0  0
   52.3309   83.0633   21.9577 C   0  0  0  0  0  0  0  0  0  0  0  0
 12 13  1  0  0  0
 13 14  2  0  0  0
 13 18  1  0  0  0
 14 15  1  0  0  0
 15 16  2  0  0  0
 15  1  1  0  0  0
 16 17  1  0  0  0
 17 18  2  0  0  0
  1  2  1  0  0  0
  1  9  1  0  0  0
  2  3  2  0  0  0
  2  4  1  0  0  0
  4  5  1  0  0  0
  4  8  1  0  0  0
  5  6  1  0  0  0
  6  7  1  0  0  0
  7  8  2  0  0  0
  7 19  1  0  0  0
  8  9  1  0  0  0
  9 10  2  0  0  0
 19 20  2  0  0  0
 19 23  1  0  0  0
 20 21  1  0  0  0
 21 22  1  0  0  0
 21 25  1  0  0  0
 22 23  2  0  0  0
 23 24  1  0  0  0
  6 11  1  0  0  0
M  END
> <minimizedAffinity>
-9.13439

$$$$
2014


 26 29  0  0  0  0  0  0  0  0999 V2000
   54.0249   85.0047   21.4532 C   0  0  0  0  0  0  0  0  0  0  0  0
   53.2950   84.6163   22.4948 N   0  0  0  0  0  0  0  0  0  0  0  0
   53.7849   85.1743   23.6404 C   0  0  0  0  0  0  0  0  0  0  0  0
   54.8419   85.9216   23.2452 N   0  0  0  0  0  0  0  0  0  0  0  0
   54.9965   85.8310   21.9523 N   0  0  0  0  0  0  0  0  0  0  0  0
   53.0568   84.7938   24.7012 N   0  0  0  0  0  0  0  0  0  0  0  0
   52.0834   83.9903   24.2890 C   0  0  0  0  0  0  0  0  0  0  0  0
   52.2301   83.8775   22.8965 C   0  0  0  0  0  0  0  0  0  0  0  0
   51.3661   83.1273   22.2007 N   0  0  0  0  0  0  0  0  0  0  0  0
   50.3734   82.4963   22.8839 C   0  0  0  0  0  0  0  0  0  0  0  0
   49.5700   81.7901   22.1986 O   0  0  0  0  0  0  0  0  0  0  0  0
   50.1925   82.5686   24.1999 N   0  0  0  0  0  0  0  0  0  0  0  0
   51.0494   83.3171   24.8966 C   0  0  0  0  0  0  0  0  0  0  0  0
   50.9243   83.4204   26.1441 O   0  0  0  0  0  0  0  0  0  0  0  0
   49.0903   81.8516   24.8645 C   0  0  0  0  0  0  0  0  0  0  0  0
   51.4346   82.9983   20.7741 C   0  0  0  0  0  0  0  0  0  0  0  0
   53.2750   85.1804   26.0802 C   0  0  0  0  0  0  0  0  0  0  0  0
   55.4122   81.8527   17.3746 Br  0  0  0  0  0  0  0  0  0  0  0  0
   54.4862   83.3450   18.1464 C   0  0  0  0  0  0  0  0  0  0  0  0
   54.6268   83.6399   19.4746 C   0  0  0  0  0  0  0  0  0  0  0  0
   53.9494   84.7260   20.0230 C   0  0  0  0  0  0  0  0  0  0  0  0
   53.1542   85.4609   19.1685 C   0  0  0  0  0  0  0  0  0  0  0  0
   53.0215   85.1581   17.8456 C   0  0  0  0  0  0  0  0  0  0  0  0
   53.6894   84.0808   17.2872 C   0  0  0  0  0  0  0  0  0  0  0  0
   52.4784   86.5563   19.7506 O   0  0  0  0  0  0  0  0  0  0  0  0
   51.6213   87.3749   18.9765 C   0  0  0  0  0  0  0  0  0  0  0  0
 18 19  1  0  0  0
 19 20  2  0  0  0
 19 24  1  0  0  0
 20 21  1  0  0  0
 21 22  2  0  0  0
 21  1  1  0  0  0
 22 23  1  0  0  0
 22 25  1  0  0  0
 23 24  2  0  0  0
 25 26  1  0  0  0
  1  2  1  0  0  0
  1  5  2  0  0  0
  2  3  1  0  0  0
  2  8  1  0  0  0
  3  4  2  0  0  0
  3  6  1  0  0  0
  4  5  1  0  0  0
  6  7  1  0  0  0
  6 17  1  0  0  0
  7  8  2  0  0  0
  7 13  1  0  0  0
  8  9  1  0  0  0
  9 10  1  0  0  0
  9 16  1  0  0  0
 10 11  2  0  0  0
 10 12  1  0  0  0
 12 13  1  0  0  0
 12 15  1  0  0  0
 13 14  2  0  0  0
M  END
> <minimizedAffinity>
-7.72145

$$$$
2017


 24 27  0  0  0  0  0  0  0  0999 V2000
   54.3534   97.5082   26.5468 Cl  0  0  0  0  0  0  0  0  0  0  0  0
   53.1037   98.3017   27.4905 C   0  0  0  0  0  0  0  0  0  0  0  0
   52.4270   99.4162   27.0332 C   0  0  0  0  0  0  0  0  0  0  0  0
   51.4616  100.0229   27.7719 N   0  0  0  0  0  0  0  0  0  0  0  0
   51.1003   99.5834   28.9897 C   0  0  0  0  0  0  0  0  0  0  0  0
   50.1455  100.1778   29.7291 N   0  0  0  0  0  0  0  0  0  0  0  0
   49.4824  101.2633   29.2922 C   0  0  0  0  0  0  0  0  0  0  0  0
   49.8499  101.7265   28.0277 C   0  0  0  0  0  0  0  0  0  0  0  0
   50.8297  101.1100   27.2797 C   0  0  0  0  0  0  0  0  0  0  0  0
   51.1617  101.5373   26.1273 O   0  0  0  0  0  0  0  0  0  0  0  0
   51.7648   98.4640   29.4736 C   0  0  0  0  0  0  0  0  0  0  0  0
   52.7484   97.8339   28.7382 C   0  0  0  0  0  0  0  0  0  0  0  0
   48.4213  101.9532   30.0707 C   0  0  0  0  0  0  0  0  0  0  0  0
   48.9906  103.0435   30.7722 N   0  0  0  0  0  0  0  0  0  0  0  0
   50.1995  102.8207   31.4719 C   0  0  0  0  0  0  0  0  0  0  0  0
   50.3905  103.7075   32.6925 C   0  0  0  0  0  0  0  0  0  0  0  0
   49.1285  103.6047   33.4722 C   0  0  0  0  0  0  0  0  0  0  0  0
   47.9632  103.7611   32.7511 C   0  0  0  0  0  0  0  0  0  0  0  0
   46.7986  103.6756   33.4111 N   0  0  0  0  0  0  0  0  0  0  0  0
   46.7808  103.4394   34.7591 C   0  0  0  0  0  0  0  0  0  0  0  0
   47.9456  103.2905   35.4335 N   0  0  0  0  0  0  0  0  0  0  0  0
   49.1510  103.3652   34.8269 C   0  0  0  0  0  0  0  0  0  0  0  0
   45.4971  103.3418   35.5010 C   0  0  0  0  0  0  0  0  0  0  0  0
   48.0909  104.0149   31.2954 C   0  0  0  0  0  0  0  0  0  0  0  0
  1  2  1  0  0  0
  2  3  2  0  0  0
  2 12  1  0  0  0
  3  4  1  0  0  0
  4  5  1  0  0  0
  4  9  1  0  0  0
  5  6  2  0  0  0
  5 11  1  0  0  0
  6  7  1  0  0  0
  7  8  2  0  0  0
  7 13  1  0  0  0
  8  9  1  0  0  0
  9 10  2  0  0  0
 13 14  1  0  0  0
 14 15  1  0  0  0
 14 24  1  0  0  0
 15 16  1  0  0  0
 16 17  1  0  0  0
 17 18  2  0  0  0
 17 22  1  0  0  0
 18 19  1  0  0  0
 18 24  1  0  0  0
 19 20  2  0  0  0
 20 21  1  0  0  0
 20 23  1  0  0  0
 21 22  2  0  0  0
 11 12  2  0  0  0
M  END
> <minimizedAffinity>
-8.40114

$$$$
2020


 22 24  0  0  0  0  0  0  0  0999 V2000
   54.2974   84.4192   20.4899 C   0  0  0  0  0  0  0  0  0  0  0  0
   53.7517   85.1334   19.2223 C   0  0  0  0  0  0  0  0  0  0  0  0
   52.6633   85.9755   19.9156 C   0  0  0  0  0  0  0  0  0  0  0  0
   52.5062   87.1682   19.7276 O   0  0  0  0  0  0  0  0  0  0  0  0
   51.8728   85.1522   20.8033 N   0  0  0  0  0  0  0  0  0  0  0  0
   51.9585   83.7083   20.5160 C   0  0  0  0  0  0  0  0  0  0  0  0
   51.7902   83.6471   19.0574 N   0  0  0  0  0  0  0  0  0  0  0  0
   52.9179   84.2287   18.3730 C   0  0  0  0  0  0  0  0  0  0  0  0
   53.1870   84.0090   17.1779 O   0  0  0  0  0  0  0  0  0  0  0  0
   53.4372   83.3045   20.7635 C   0  0  0  0  0  0  0  0  0  0  0  0
   51.0259   82.8560   21.2574 C   0  0  0  0  0  0  0  0  0  0  0  0
   51.3144   85.5204   21.5778 H   0  0  0  0  0  0  0  0  0  0  0  0
   50.9652   83.2416   18.6011 H   0  0  0  0  0  0  0  0  0  0  0  0
   56.1272   89.3561   20.9836 Br  0  0  0  0  0  0  0  0  0  0  0  0
   55.3614   87.7812   21.7259 C   0  0  0  0  0  0  0  0  0  0  0  0
   55.0510   86.6988   20.8998 C   0  0  0  0  0  0  0  0  0  0  0  0
   54.4942   85.5240   21.4215 C   0  0  0  0  0  0  0  0  0  0  0  0
   54.2757   85.5136   22.7878 C   0  0  0  0  0  0  0  0  0  0  0  0
   54.5911   86.5971   23.5893 C   0  0  0  0  0  0  0  0  0  0  0  0
   55.1329   87.7364   23.0641 C   0  0  0  0  0  0  0  0  0  0  0  0
   53.7227   84.3655   23.2792 O   0  0  0  0  0  0  0  0  0  0  0  0
   52.6597   84.4349   24.1907 C   0  0  0  0  0  0  0  0  0  0  0  0
 14 15  1  0  0  0
 15 16  2  0  0  0
 15 20  1  0  0  0
 16 17  1  0  0  0
 17 18  2  0  0  0
 17  1  1  0  0  0
 18 19  1  0  0  0
 18 21  1  0  0  0
 19 20  2  0  0  0
 21 22  1  0  0  0
  1  2  1  0  0  0
  1 10  1  0  0  0
  2  3  1  0  0  0
  2  8  1  0  0  0
  3  4  2  0  0  0
  3  5  1  0  0  0
  5  6  1  0  0  0
  6  7  1  0  0  0
  6 10  1  0  0  0
  6 11  1  0  0  0
  7  8  1  0  0  0
  8  9  2  0  0  0
  5 12  1  0  0  0
  7 13  1  0  0  0
M  END
> <minimizedAffinity>
-6.43542

$$$$
2028


 31 34  0  0  0  0  0  0  0  0999 V2000
   55.8114   90.5381   20.5015 Cl  0  0  0  0  0  0  0  0  0  0  0  0
   55.6407   88.9207   21.1785 C   0  0  0  0  0  0  0  0  0  0  0  0
   54.5993   88.1077   20.6954 C   0  0  0  0  0  0  0  0  0  0  0  0
   54.4737   86.8549   21.2178 C   0  0  0  0  0  0  0  0  0  0  0  0
   55.3314   86.3808   22.2007 C   0  0  0  0  0  0  0  0  0  0  0  0
   56.3394   87.1999   22.6551 C   0  0  0  0  0  0  0  0  0  0  0  0
   56.5054   88.4705   22.1511 C   0  0  0  0  0  0  0  0  0  0  0  0
   57.2546   86.6609   23.7213 C   0  0  0  0  0  0  0  0  0  0  0  0
   53.3893   86.1660   20.4524 C   0  0  0  0  0  0  0  0  0  0  0  0
   52.5667   85.3142   21.2144 N   0  0  0  0  0  0  0  0  0  0  0  0
   53.1871   84.0198   21.2035 C   0  0  0  0  0  0  0  0  0  0  0  0
   54.2820   84.0141   20.2162 C   0  0  0  0  0  0  0  0  0  0  0  0
   53.9655   85.2704   19.4007 C   0  0  0  0  0  0  0  0  0  0  0  0
   52.9816   84.7523   18.4681 C   0  0  0  0  0  0  0  0  0  0  0  0
   51.9339   85.2223   17.9727 O   0  0  0  0  0  0  0  0  0  0  0  0
   53.4506   83.4175   18.1412 N   0  0  0  0  0  0  0  0  0  0  0  0
   54.2775   82.9658   19.2032 C   0  0  0  0  0  0  0  0  0  0  0  0
   54.8710   81.8789   19.2338 O   0  0  0  0  0  0  0  0  0  0  0  0
   52.6959   87.2663   19.7865 C   0  0  0  0  0  0  0  0  0  0  0  0
   51.5455   87.3281   19.2489 O   0  0  0  0  0  0  0  0  0  0  0  0
   53.5313   88.4001   19.8023 N   0  0  0  0  0  0  0  0  0  0  0  0
   52.4099   85.6588   22.1922 H   0  0  0  0  0  0  0  0  0  0  0  0
   53.4401   89.3095   19.2827 H   0  0  0  0  0  0  0  0  0  0  0  0
   52.1735   82.8991   21.0672 C   0  0  0  0  0  0  0  0  0  0  0  0
   52.6297   81.6598   21.4053 O   0  0  0  0  0  0  0  0  0  0  0  0
   50.8829   83.3232   21.6870 C   0  0  0  0  0  0  0  0  0  0  0  0
   52.0016   81.1227   21.9520 H   0  0  0  0  0  0  0  0  0  0  0  0
   53.1705   82.6445   16.9601 C   0  0  0  0  0  0  0  0  0  0  0  0
   53.6248   83.2380   15.6788 C   0  0  0  0  0  0  0  0  0  0  0  0
   52.9866   82.8550   14.5379 O   0  0  0  0  0  0  0  0  0  0  0  0
   52.3432   81.6365   14.6034 C   0  0  0  0  0  0  0  0  0  0  0  0
  1  2  1  0  0  0
  2  3  2  0  0  0
  2  7  1  0  0  0
  3  4  1  0  0  0
  3 21  1  0  0  0
  4  5  2  0  0  0
  4  9  1  0  0  0
  5  6  1  0  0  0
  6  7  2  0  0  0
  6  8  1  0  0  0
  9 10  1  0  0  0
  9 13  1  0  0  0
  9 19  1  0  0  0
 10 11  1  0  0  0
 11 12  1  0  0  0
 11 24  1  0  0  0
 12 13  1  0  0  0
 12 17  1  0  0  0
 13 14  1  0  0  0
 14 15  2  0  0  0
 14 16  1  0  0  0
 16 17  1  0  0  0
 16 28  1  0  0  0
 17 18  2  0  0  0
 28 29  1  0  0  0
 29 30  1  0  0  0
 30 31  1  0  0  0
 24 25  1  0  0  0
 24 26  1  0  0  0
 19 20  2  0  0  0
 19 21  1  0  0  0
 10 22  1  0  0  0
 25 27  1  0  0  0
 21 23  1  0  0  0
M  END
> <minimizedAffinity>
-7.86191

$$$$
2032


 31 34  0  0  0  0  0  0  0  0999 V2000
   53.3539   83.4706   20.8968 C   0  0  0  0  0  0  0  0  0  0  0  0
   53.7528   84.3548   21.7531 C   0  0  0  0  0  0  0  0  0  0  0  0
   54.5780   85.4163   21.5078 O   0  0  0  0  0  0  0  0  0  0  0  0
   54.7589   86.1343   22.6882 C   0  0  0  0  0  0  0  0  0  0  0  0
   54.0828   85.5859   23.7303 C   0  0  0  0  0  0  0  0  0  0  0  0
   54.1185   86.1669   25.0031 C   0  0  0  0  0  0  0  0  0  0  0  0
   54.8330   87.3067   25.2649 C   0  0  0  0  0  0  0  0  0  0  0  0
   55.5200   87.8333   24.1563 C   0  0  0  0  0  0  0  0  0  0  0  0
   55.5014   87.2993   22.9132 C   0  0  0  0  0  0  0  0  0  0  0  0
   56.2530   88.9940   24.4818 O   0  0  0  0  0  0  0  0  0  0  0  0
   53.4034   84.4109   23.1735 C   0  0  0  0  0  0  0  0  0  0  0  0
   52.6579   83.6069   23.8052 O   0  0  0  0  0  0  0  0  0  0  0  0
   56.0912   81.0719   16.9821 Br  0  0  0  0  0  0  0  0  0  0  0  0
   54.9120   82.3940   17.6626 C   0  0  0  0  0  0  0  0  0  0  0  0
   54.5500   82.4408   19.0209 C   0  0  0  0  0  0  0  0  0  0  0  0
   53.6917   83.4046   19.4822 C   0  0  0  0  0  0  0  0  0  0  0  0
   53.1846   84.3357   18.6057 C   0  0  0  0  0  0  0  0  0  0  0  0
   53.5483   84.2876   17.2515 C   0  0  0  0  0  0  0  0  0  0  0  0
   54.3957   83.3307   16.7951 C   0  0  0  0  0  0  0  0  0  0  0  0
   52.3463   85.2636   19.1197 O   0  0  0  0  0  0  0  0  0  0  0  0
   51.9392   86.4523   18.5350 C   0  0  0  0  0  0  0  0  0  0  0  0
   56.2614   87.8205   21.7614 C   0  0  0  0  0  0  0  0  0  0  0  0
   55.6122   88.9678   21.1727 N   0  0  0  0  0  0  0  0  0  0  0  0
   54.4387   88.5292   20.4388 C   0  0  0  0  0  0  0  0  0  0  0  0
   54.2026   89.2290   19.1680 C   0  0  0  0  0  0  0  0  0  0  0  0
   54.6371   90.5879   19.1043 N   0  0  0  0  0  0  0  0  0  0  0  0
   55.4126   91.0801   20.1502 C   0  0  0  0  0  0  0  0  0  0  0  0
   56.3895   89.9786   20.6402 C   0  0  0  0  0  0  0  0  0  0  0  0
   55.1546   89.4295   22.0860 H   0  0  0  0  0  0  0  0  0  0  0  0
   54.8252   91.1374   17.8158 C   0  0  0  0  0  0  0  0  0  0  0  0
   54.2967   90.3250   16.6866 C   0  0  0  0  0  0  0  0  0  0  0  0
 13 14  1  0  0  0
 14 15  2  0  0  0
 14 19  1  0  0  0
 15 16  1  0  0  0
 16 17  2  0  0  0
 16  1  1  0  0  0
 17 18  1  0  0  0
 17 20  1  0  0  0
 18 19  2  0  0  0
 20 21  1  0  0  0
  1  2  2  0  0  0
  2  3  1  0  0  0
  2 11  1  0  0  0
  3  4  1  0  0  0
  4  5  2  0  0  0
  4  9  1  0  0  0
  5  6  1  0  0  0
  5 11  1  0  0  0
  6  7  2  0  0  0
  7  8  1  0  0  0
  8  9  2  0  0  0
  8 10  1  0  0  0
  9 22  1  0  0  0
 22 23  1  0  0  0
 23 24  1  0  0  0
 23 28  1  0  0  0
 24 25  1  0  0  0
 25 26  1  0  0  0
 26 27  1  0  0  0
 26 30  1  0  0  0
 27 28  1  0  0  0
 30 31  1  0  0  0
 11 12  2  0  0  0
 23 29  1  0  0  0
M  CHG 1  10  -1
M  CHG 1  23   1
M  END
> <minimizedAffinity>
-8.67366

$$$$
2033


 29 32  0  0  0  0  0  0  0  0999 V2000
   52.3555   86.1979   18.6226 C   0  0  0  0  0  0  0  0  0  0  0  0
   52.7647   87.3989   18.9249 C   0  0  0  0  0  0  0  0  0  0  0  0
   53.7680   87.6796   19.8392 O   0  0  0  0  0  0  0  0  0  0  0  0
   53.9896   89.0388   19.9594 C   0  0  0  0  0  0  0  0  0  0  0  0
   53.1440   89.7416   19.1316 C   0  0  0  0  0  0  0  0  0  0  0  0
   53.1969   91.1191   19.0955 C   0  0  0  0  0  0  0  0  0  0  0  0
   54.1017   91.7835   19.8959 C   0  0  0  0  0  0  0  0  0  0  0  0
   54.9557   91.0407   20.7349 C   0  0  0  0  0  0  0  0  0  0  0  0
   54.9225   89.6810   20.7860 C   0  0  0  0  0  0  0  0  0  0  0  0
   55.8198   91.8490   21.4905 O   0  0  0  0  0  0  0  0  0  0  0  0
   52.3420   88.7200   18.4501 C   0  0  0  0  0  0  0  0  0  0  0  0
   51.4442   88.9252   17.6037 O   0  0  0  0  0  0  0  0  0  0  0  0
   52.8115   82.8382   22.8140 Br  0  0  0  0  0  0  0  0  0  0  0  0
   53.1059   83.4043   21.0191 C   0  0  0  0  0  0  0  0  0  0  0  0
   52.6310   84.5635   20.4766 C   0  0  0  0  0  0  0  0  0  0  0  0
   52.8583   84.9513   19.1744 C   0  0  0  0  0  0  0  0  0  0  0  0
   53.6241   84.0900   18.3826 C   0  0  0  0  0  0  0  0  0  0  0  0
   54.1250   82.9152   18.8723 C   0  0  0  0  0  0  0  0  0  0  0  0
   53.8625   82.5767   20.1945 C   0  0  0  0  0  0  0  0  0  0  0  0
   53.8709   84.4578   17.0743 O   0  0  0  0  0  0  0  0  0  0  0  0
   54.1033   83.4806   16.0942 C   0  0  0  0  0  0  0  0  0  0  0  0
   55.7812   88.8717   21.6065 C   0  0  0  0  0  0  0  0  0  0  0  0
   55.2914   87.9231   22.5205 N   0  0  0  0  0  0  0  0  0  0  0  0
   55.9606   86.6507   22.5223 C   0  0  0  0  0  0  0  0  0  0  0  0
   57.2342   86.6252   23.3307 C   0  0  0  0  0  0  0  0  0  0  0  0
   57.6000   87.8678   23.8296 O   0  0  0  0  0  0  0  0  0  0  0  0
   56.5435   88.2962   24.6259 C   0  0  0  0  0  0  0  0  0  0  0  0
   55.2468   88.4424   23.8996 C   0  0  0  0  0  0  0  0  0  0  0  0
   54.2858   87.7442   22.3204 H   0  0  0  0  0  0  0  0  0  0  0  0
 13 14  1  0  0  0
 14 15  2  0  0  0
 14 19  1  0  0  0
 15 16  1  0  0  0
 16 17  2  0  0  0
 16  1  1  0  0  0
 17 18  1  0  0  0
 17 20  1  0  0  0
 18 19  2  0  0  0
 20 21  1  0  0  0
  1  2  2  0  0  0
  2  3  1  0  0  0
  2 11  1  0  0  0
  3  4  1  0  0  0
  4  5  2  0  0  0
  4  9  1  0  0  0
  5  6  1  0  0  0
  5 11  1  0  0  0
  6  7  2  0  0  0
  7  8  1  0  0  0
  8  9  2  0  0  0
  8 10  1  0  0  0
  9 22  1  0  0  0
 22 23  1  0  0  0
 23 24  1  0  0  0
 23 28  1  0  0  0
 24 25  1  0  0  0
 25 26  1  0  0  0
 26 27  1  0  0  0
 27 28  1  0  0  0
 11 12  2  0  0  0
 23 29  1  0  0  0
M  CHG 1  10  -1
M  CHG 1  23   1
M  END
> <minimizedAffinity>
-8.54865

$$$$
2041


 30 33  0  0  0  0  0  0  0  0999 V2000
   55.9394   85.6569   23.7386 N   0  0  0  0  0  0  0  0  0  0  0  0
   54.7618   85.8611   22.9193 C   0  0  0  0  0  0  0  0  0  0  0  0
   53.5905   85.0535   23.4641 C   0  0  0  0  0  0  0  0  0  0  0  0
   53.3237   85.5194   24.8246 N   0  0  0  0  0  0  0  0  0  0  0  0
   54.3281   86.3782   25.3783 C   0  0  0  0  0  0  0  0  0  0  0  0
   55.6681   85.7323   25.1422 C   0  0  0  0  0  0  0  0  0  0  0  0
   52.1450   85.1231   25.4644 C   0  0  0  0  0  0  0  0  0  0  0  0
   51.3167   84.3551   24.8251 O   0  0  0  0  0  0  0  0  0  0  0  0
   57.1708   86.7689   23.2874 S   0  0  0  0  0  0  0  0  0  0  0  0
   57.9404   87.1030   24.5441 O   0  0  0  0  0  0  0  0  0  0  0  0
   58.1420   86.1744   22.3248 O   0  0  0  0  0  0  0  0  0  0  0  0
   56.4410   88.2159   22.6288 C   0  0  0  0  0  0  0  0  0  0  0  0
   55.8669   89.2090   23.3892 C   0  0  0  0  0  0  0  0  0  0  0  0
   55.3006   90.3194   22.8113 C   0  0  0  0  0  0  0  0  0  0  0  0
   55.2993   90.4616   21.4239 C   0  0  0  0  0  0  0  0  0  0  0  0
   55.8790   89.4594   20.6382 C   0  0  0  0  0  0  0  0  0  0  0  0
   56.4410   88.3556   21.2410 C   0  0  0  0  0  0  0  0  0  0  0  0
   54.5777   91.8767   20.7047 Cl  0  0  0  0  0  0  0  0  0  0  0  0
   51.6788   85.4632   26.8124 C   0  0  0  0  0  0  0  0  0  0  0  0
   51.9977   84.2090   28.0462 S   0  0  0  0  0  0  0  0  0  0  0  0
   50.7387   84.0840   29.3039 C   0  0  0  0  0  0  0  0  0  0  0  0
   49.6439   83.3590   29.1138 N   0  0  0  0  0  0  0  0  0  0  0  0
   48.6814   83.2186   30.0293 C   0  0  0  0  0  0  0  0  0  0  0  0
   48.8332   83.8600   31.2294 N   0  0  0  0  0  0  0  0  0  0  0  0
   49.9248   84.5991   31.4525 C   0  0  0  0  0  0  0  0  0  0  0  0
   50.3164   85.3187   32.5441 N   0  0  0  0  0  0  0  0  0  0  0  0
   51.4824   85.8712   32.2794 N   0  0  0  0  0  0  0  0  0  0  0  0
   51.8832   85.5449   31.0486 C   0  0  0  0  0  0  0  0  0  0  0  0
   50.9184   84.7415   30.5016 C   0  0  0  0  0  0  0  0  0  0  0  0
   49.5831   85.4392   33.7699 C   0  0  0  0  0  0  0  0  0  0  0  0
  9 10  2  0  0  0
  9 11  2  0  0  0
  9  1  1  0  0  0
  9 12  1  0  0  0
  1  2  1  0  0  0
  1  6  1  0  0  0
  2  3  1  0  0  0
  3  4  1  0  0  0
  4  5  1  0  0  0
  4  7  1  0  0  0
  5  6  1  0  0  0
  7  8  2  0  0  0
  7 19  1  0  0  0
 19 20  1  0  0  0
 20 21  1  0  0  0
 21 22  2  0  0  0
 21 29  1  0  0  0
 22 23  1  0  0  0
 23 24  2  0  0  0
 24 25  1  0  0  0
 25 26  1  0  0  0
 25 29  2  0  0  0
 26 27  1  0  0  0
 26 30  1  0  0  0
 27 28  2  0  0  0
 28 29  1  0  0  0
 12 13  2  0  0  0
 12 17  1  0  0  0
 13 14  1  0  0  0
 14 15  2  0  0  0
 15 16  1  0  0  0
 15 18  1  0  0  0
 16 17  2  0  0  0
M  END
> <minimizedAffinity>
-8.99963

$$$$
2043


 32 35  0  0  0  0  0  0  0  0999 V2000
   55.8646   86.3838   25.5272 N   0  0  0  0  0  0  0  0  0  0  0  0
   55.3718   87.7126   25.2605 C   0  0  0  0  0  0  0  0  0  0  0  0
   56.2684   88.3383   24.1943 C   0  0  0  0  0  0  0  0  0  0  0  0
   56.5679   87.3755   23.2029 N   0  0  0  0  0  0  0  0  0  0  0  0
   57.5904   86.3702   23.7371 C   0  0  0  0  0  0  0  0  0  0  0  0
   57.2085   86.1380   25.1550 C   0  0  0  0  0  0  0  0  0  0  0  0
   56.0875   87.1708   21.9422 C   0  0  0  0  0  0  0  0  0  0  0  0
   56.8341   86.1972   21.3163 O   0  0  0  0  0  0  0  0  0  0  0  0
   55.0837   87.6222   21.0608 C   0  0  0  0  0  0  0  0  0  0  0  0
   54.6758   88.6908   20.4601 C   0  0  0  0  0  0  0  0  0  0  0  0
   55.2874   89.9462   20.5940 N   0  0  0  0  0  0  0  0  0  0  0  0
   54.8939   91.1122   19.9000 N   0  0  0  0  0  0  0  0  0  0  0  0
   53.8183   91.0390   19.0095 C   0  0  0  0  0  0  0  0  0  0  0  0
   53.4565   92.0701   18.3848 O   0  0  0  0  0  0  0  0  0  0  0  0
   53.1343   89.7465   18.8281 C   0  0  0  0  0  0  0  0  0  0  0  0
   53.5253   88.6092   19.5100 C   0  0  0  0  0  0  0  0  0  0  0  0
   52.8407   87.4588   19.2832 C   0  0  0  0  0  0  0  0  0  0  0  0
   51.7731   87.4476   18.3799 C   0  0  0  0  0  0  0  0  0  0  0  0
   51.3799   88.5731   17.7005 C   0  0  0  0  0  0  0  0  0  0  0  0
   52.0778   89.7382   17.9341 C   0  0  0  0  0  0  0  0  0  0  0  0
   56.0527   90.0885   21.2567 H   0  0  0  0  0  0  0  0  0  0  0  0
   55.4369   92.0075   20.0845 H   0  0  0  0  0  0  0  0  0  0  0  0
   54.7576   85.1419   25.2972 S   0  0  0  0  0  0  0  0  0  0  0  0
   54.1755   85.2918   23.8977 O   0  0  0  0  0  0  0  0  0  0  0  0
   55.5231   83.8244   25.2544 O   0  0  0  0  0  0  0  0  0  0  0  0
   53.5298   85.0014   26.4925 C   0  0  0  0  0  0  0  0  0  0  0  0
   52.2045   85.1745   26.1817 C   0  0  0  0  0  0  0  0  0  0  0  0
   51.2343   85.0562   27.1605 C   0  0  0  0  0  0  0  0  0  0  0  0
   51.5509   84.7663   28.4688 C   0  0  0  0  0  0  0  0  0  0  0  0
   52.8875   84.5911   28.7893 C   0  0  0  0  0  0  0  0  0  0  0  0
   53.8543   84.7121   27.7933 C   0  0  0  0  0  0  0  0  0  0  0  0
   50.2839   84.6284   29.6713 Cl  0  0  0  0  0  0  0  0  0  0  0  0
 23 24  2  0  0  0
 23 25  2  0  0  0
 23  1  1  0  0  0
 23 26  1  0  0  0
  1  2  1  0  0  0
  1  6  1  0  0  0
  2  3  1  0  0  0
  3  4  1  0  0  0
  4  5  1  0  0  0
  4  7  1  0  0  0
  5  6  1  0  0  0
  7  8  2  0  0  0
  7  9  1  0  0  0
  9 10  2  0  0  0
 10 11  1  0  0  0
 10 16  1  0  0  0
 11 12  1  0  0  0
 12 13  1  0  0  0
 13 14  2  0  0  0
 13 15  1  0  0  0
 15 16  2  0  0  0
 15 20  1  0  0  0
 16 17  1  0  0  0
 17 18  2  0  0  0
 18 19  1  0  0  0
 19 20  2  0  0  0
 26 27  2  0  0  0
 26 31  1  0  0  0
 27 28  1  0  0  0
 28 29  2  0  0  0
 29 30  1  0  0  0
 29 32  1  0  0  0
 30 31  2  0  0  0
 11 21  1  0  0  0
 12 22  1  0  0  0
M  END
> <minimizedAffinity>
-9.95864

$$$$
2046


 26 29  0  0  0  0  0  0  0  0999 V2000
   53.7558   88.5381   18.9995 Cl  0  0  0  0  0  0  0  0  0  0  0  0
   54.2702   89.7924   20.0842 C   0  0  0  0  0  0  0  0  0  0  0  0
   53.6854   91.0327   20.0646 C   0  0  0  0  0  0  0  0  0  0  0  0
   54.1386   91.9852   20.9492 C   0  0  0  0  0  0  0  0  0  0  0  0
   55.1510   91.7572   21.8559 C   0  0  0  0  0  0  0  0  0  0  0  0
   55.7267   90.5071   21.8620 C   0  0  0  0  0  0  0  0  0  0  0  0
   55.2802   89.5471   20.9796 C   0  0  0  0  0  0  0  0  0  0  0  0
   52.6523   91.3671   19.1715 N   0  0  0  0  0  0  0  0  0  0  0  0
   51.3689   91.3418   19.4686 N   0  0  0  0  0  0  0  0  0  0  0  0
   50.6538   91.7182   18.4254 N   0  0  0  0  0  0  0  0  0  0  0  0
   51.5131   91.9806   17.4615 N   0  0  0  0  0  0  0  0  0  0  0  0
   52.7849   91.7654   17.9134 C   0  0  0  0  0  0  0  0  0  0  0  0
   53.9625   91.9610   17.0692 C   0  0  0  0  0  0  0  0  0  0  0  0
   55.2735   91.3613   17.2851 C   0  0  0  0  0  0  0  0  0  0  0  0
   54.3674   90.7197   16.2211 C   0  0  0  0  0  0  0  0  0  0  0  0
   55.6071   92.7800   22.7763 N   0  0  0  0  0  0  0  0  0  0  0  0
   56.5351   92.7329   23.2075 H   0  0  0  0  0  0  0  0  0  0  0  0
   54.7005   93.8422   23.0419 C   0  0  0  0  0  0  0  0  0  0  0  0
   54.6248   94.3678   24.4018 C   0  0  0  0  0  0  0  0  0  0  0  0
   53.4525   94.1650   24.9515 O   0  0  0  0  0  0  0  0  0  0  0  0
   55.5383   95.0201   25.1915 N   0  0  0  0  0  0  0  0  0  0  0  0
   56.9069   95.2730   24.8718 C   0  0  0  0  0  0  0  0  0  0  0  0
   57.1372   96.7813   24.9039 C   0  0  0  0  0  0  0  0  0  0  0  0
   56.9076   97.1499   26.2477 O   0  0  0  0  0  0  0  0  0  0  0  0
   55.5576   97.0402   26.5009 C   0  0  0  0  0  0  0  0  0  0  0  0
   55.1190   95.5717   26.4985 C   0  0  0  0  0  0  0  0  0  0  0  0
  1  2  1  0  0  0
  2  3  2  0  0  0
  2  7  1  0  0  0
  3  4  1  0  0  0
  3  8  1  0  0  0
  4  5  2  0  0  0
  5  6  1  0  0  0
  5 16  1  0  0  0
  6  7  2  0  0  0
 16 18  1  0  0  0
 18 19  1  0  0  0
 19 20  2  0  0  0
 19 21  1  0  0  0
 21 22  1  0  0  0
 21 26  1  0  0  0
 22 23  1  0  0  0
 23 24  1  0  0  0
 24 25  1  0  0  0
 25 26  1  0  0  0
  8  9  1  0  0  0
  8 12  1  0  0  0
  9 10  2  0  0  0
 10 11  1  0  0  0
 11 12  2  0  0  0
 12 13  1  0  0  0
 13 14  1  0  0  0
 13 15  1  0  0  0
 14 15  1  0  0  0
 16 17  1  0  0  0
M  END
> <minimizedAffinity>
-9.00243

$$$$
2063


 34 37  0  0  0  0  0  0  0  0999 V2000
   52.3278   98.3381   28.0620 C   0  0  0  0  0  0  0  0  0  0  0  0
   52.1764   98.2994   29.4450 C   0  0  0  0  0  0  0  0  0  0  0  0
   51.4063   99.1398   30.0946 O   0  0  0  0  0  0  0  0  0  0  0  0
   50.7186  100.0834   29.4961 C   0  0  0  0  0  0  0  0  0  0  0  0
   50.8046  100.2002   28.1286 C   0  0  0  0  0  0  0  0  0  0  0  0
   50.0677  101.2012   27.5442 C   0  0  0  0  0  0  0  0  0  0  0  0
   49.2722  102.0652   28.2528 C   0  0  0  0  0  0  0  0  0  0  0  0
   49.1690  101.9623   29.6550 C   0  0  0  0  0  0  0  0  0  0  0  0
   49.9097  100.9585   30.2327 C   0  0  0  0  0  0  0  0  0  0  0  0
   51.6045   99.3334   27.4156 C   0  0  0  0  0  0  0  0  0  0  0  0
   51.6844   99.4391   26.1627 O   0  0  0  0  0  0  0  0  0  0  0  0
   55.8263   94.2125   25.0774 Br  0  0  0  0  0  0  0  0  0  0  0  0
   54.7591   95.5023   26.0028 C   0  0  0  0  0  0  0  0  0  0  0  0
   55.2802   96.7038   26.4238 C   0  0  0  0  0  0  0  0  0  0  0  0
   54.5138   97.6480   27.0969 C   0  0  0  0  0  0  0  0  0  0  0  0
   53.1839   97.4002   27.3660 C   0  0  0  0  0  0  0  0  0  0  0  0
   52.6616   96.1905   26.9409 C   0  0  0  0  0  0  0  0  0  0  0  0
   53.4212   95.2525   26.2724 C   0  0  0  0  0  0  0  0  0  0  0  0
   48.3579  102.8503   30.3309 O   0  0  0  0  0  0  0  0  0  0  0  0
   48.2257  102.9641   31.6836 C   0  0  0  0  0  0  0  0  0  0  0  0
   46.8756  103.0956   32.1057 O   0  0  0  0  0  0  0  0  0  0  0  0
   46.8584  102.6760   33.4180 C   0  0  0  0  0  0  0  0  0  0  0  0
   47.6585  103.5284   34.3532 C   0  0  0  0  0  0  0  0  0  0  0  0
   48.9977  103.9184   33.7754 C   0  0  0  0  0  0  0  0  0  0  0  0
   48.9165  104.1745   32.2848 C   0  0  0  0  0  0  0  0  0  0  0  0
   50.2120  104.3189   31.8030 O   0  0  0  0  0  0  0  0  0  0  0  0
   49.5065  105.0058   34.4735 O   0  0  0  0  0  0  0  0  0  0  0  0
   47.9252  102.7539   35.4938 O   0  0  0  0  0  0  0  0  0  0  0  0
   50.4316  105.2702   31.6648 H   0  0  0  0  0  0  0  0  0  0  0  0
   48.9901  105.1895   35.3173 H   0  0  0  0  0  0  0  0  0  0  0  0
   48.2195  101.8444   35.2376 H   0  0  0  0  0  0  0  0  0  0  0  0
   45.4633  102.4933   33.9603 C   0  0  0  0  0  0  0  0  0  0  0  0
   45.1127  101.1489   34.0598 O   0  0  0  0  0  0  0  0  0  0  0  0
   44.2419  101.1382   34.5674 H   0  0  0  0  0  0  0  0  0  0  0  0
 12 13  1  0  0  0
 13 14  2  0  0  0
 13 18  1  0  0  0
 14 15  1  0  0  0
 15 16  2  0  0  0
 16 17  1  0  0  0
 16  1  1  0  0  0
 17 18  2  0  0  0
  1  2  2  0  0  0
  1 10  1  0  0  0
  2  3  1  0  0  0
  3  4  1  0  0  0
  4  5  2  0  0  0
  4  9  1  0  0  0
  5  6  1  0  0  0
  5 10  1  0  0  0
  6  7  2  0  0  0
  7  8  1  0  0  0
  8  9  2  0  0  0
  8 19  1  0  0  0
 19 20  1  0  0  0
 20 21  1  0  0  0
 20 25  1  0  0  0
 21 22  1  0  0  0
 22 23  1  0  0  0
 22 32  1  0  0  0
 23 24  1  0  0  0
 23 28  1  0  0  0
 24 25  1  0  0  0
 24 27  1  0  0  0
 25 26  1  0  0  0
 32 33  1  0  0  0
 10 11  2  0  0  0
 26 29  1  0  0  0
 27 30  1  0  0  0
 28 31  1  0  0  0
 33 34  1  0  0  0
M  END
> <minimizedAffinity>
-9.85129

$$$$
2072


 27 30  0  0  0  0  0  0  0  0999 V2000
   50.3378  100.6807   28.9550 N   0  0  0  0  0  0  0  0  0  0  0  0
   50.9544  100.7446   27.6805 C   0  0  0  0  0  0  0  0  0  0  0  0
   51.9152   99.6482   27.3180 C   0  0  0  0  0  0  0  0  0  0  0  0
   51.4948   98.4340   27.9359 N   0  0  0  0  0  0  0  0  0  0  0  0
   51.6449   98.6407   29.3759 C   0  0  0  0  0  0  0  0  0  0  0  0
   50.6128   99.6096   29.8175 C   0  0  0  0  0  0  0  0  0  0  0  0
   48.6347  100.8647   28.7715 S   0  0  0  0  0  0  0  0  0  0  0  0
   48.3623  101.4618   27.4091 O   0  0  0  0  0  0  0  0  0  0  0  0
   47.9271   99.5639   28.8469 O   0  0  0  0  0  0  0  0  0  0  0  0
   47.9925  101.9096   30.0476 C   0  0  0  0  0  0  0  0  0  0  0  0
   48.7759  103.1342   30.9379 S   0  0  0  0  0  0  0  0  0  0  0  0
   47.4816  103.6270   31.9277 C   0  0  0  0  0  0  0  0  0  0  0  0
   46.4578  102.8095   31.5297 C   0  0  0  0  0  0  0  0  0  0  0  0
   46.7211  101.9245   30.5608 C   0  0  0  0  0  0  0  0  0  0  0  0
   47.4322  104.9953   33.2843 Br  0  0  0  0  0  0  0  0  0  0  0  0
   52.1834   97.2647   27.5079 C   0  0  0  0  0  0  0  0  0  0  0  0
   53.4938   97.1033   28.1996 C   0  0  0  0  0  0  0  0  0  0  0  0
   54.6022   97.0246   27.2717 N   0  0  0  0  0  0  0  0  0  0  0  0
   55.4260   98.0078   26.9117 N   0  0  0  0  0  0  0  0  0  0  0  0
   56.3408   97.5565   26.0423 C   0  0  0  0  0  0  0  0  0  0  0  0
   56.0910   96.2563   25.8454 N   0  0  0  0  0  0  0  0  0  0  0  0
   56.8534   95.5131   25.0076 C   0  0  0  0  0  0  0  0  0  0  0  0
   57.9185   96.0477   24.3186 C   0  0  0  0  0  0  0  0  0  0  0  0
   58.1992   97.3873   24.5028 C   0  0  0  0  0  0  0  0  0  0  0  0
   57.4059   98.1169   25.3612 C   0  0  0  0  0  0  0  0  0  0  0  0
   55.0086   95.9374   26.6141 C   0  0  0  0  0  0  0  0  0  0  0  0
   54.5386   94.7749   26.6319 O   0  0  0  0  0  0  0  0  0  0  0  0
  7  8  2  0  0  0
  7  9  2  0  0  0
  7  1  1  0  0  0
  7 10  1  0  0  0
  1  2  1  0  0  0
  1  6  1  0  0  0
  2  3  1  0  0  0
  3  4  1  0  0  0
  4  5  1  0  0  0
  4 16  1  0  0  0
  5  6  1  0  0  0
 16 17  1  0  0  0
 17 18  1  0  0  0
 18 19  1  0  0  0
 18 26  1  0  0  0
 19 20  2  0  0  0
 20 21  1  0  0  0
 20 25  1  0  0  0
 21 22  1  0  0  0
 21 26  1  0  0  0
 22 23  2  0  0  0
 23 24  1  0  0  0
 24 25  2  0  0  0
 26 27  2  0  0  0
 10 11  1  0  0  0
 10 14  2  0  0  0
 11 12  1  0  0  0
 12 13  2  0  0  0
 12 15  1  0  0  0
 13 14  1  0  0  0
M  END
> <minimizedAffinity>
-9.05954

$$$$
2079


 31 34  0  0  0  0  0  0  0  0999 V2000
   52.9328   97.1787   27.4455 C   0  0  0  0  0  0  0  0  0  0  0  0
   51.7423   96.5255   27.2238 C   0  0  0  0  0  0  0  0  0  0  0  0
   50.5720   97.0457   27.7943 C   0  0  0  0  0  0  0  0  0  0  0  0
   50.5956   98.1848   28.5686 C   0  0  0  0  0  0  0  0  0  0  0  0
   49.4870   98.7776   29.1740 C   0  0  0  0  0  0  0  0  0  0  0  0
   48.2724   98.0947   28.9128 C   0  0  0  0  0  0  0  0  0  0  0  0
   48.2060   96.9444   28.1322 C   0  0  0  0  0  0  0  0  0  0  0  0
   49.3659   96.4305   27.5747 C   0  0  0  0  0  0  0  0  0  0  0  0
   47.0552   98.5149   29.4120 O   0  0  0  0  0  0  0  0  0  0  0  0
   51.7179   98.7552   28.7475 O   0  0  0  0  0  0  0  0  0  0  0  0
   52.8836   98.3392   28.2451 C   0  0  0  0  0  0  0  0  0  0  0  0
   53.9406   98.9416   28.4665 O   0  0  0  0  0  0  0  0  0  0  0  0
   57.8585   95.2698   24.4442 Cl  0  0  0  0  0  0  0  0  0  0  0  0
   56.4498   95.8015   25.3946 C   0  0  0  0  0  0  0  0  0  0  0  0
   55.3542   94.9811   25.6363 C   0  0  0  0  0  0  0  0  0  0  0  0
   54.2356   95.4308   26.3150 C   0  0  0  0  0  0  0  0  0  0  0  0
   54.1828   96.7581   26.7815 C   0  0  0  0  0  0  0  0  0  0  0  0
   55.2632   97.5285   26.5388 C   0  0  0  0  0  0  0  0  0  0  0  0
   56.3916   97.1028   25.8613 C   0  0  0  0  0  0  0  0  0  0  0  0
   49.4085  100.0278   29.8442 C   0  0  0  0  0  0  0  0  0  0  0  0
   50.0564  101.2374   29.4059 N   0  0  0  0  0  0  0  0  0  0  0  0
   49.2213  101.9803   28.4210 C   0  0  0  0  0  0  0  0  0  0  0  0
   47.7923  101.9311   28.8302 C   0  0  0  0  0  0  0  0  0  0  0  0
   47.4976  102.5174   30.1176 N   0  0  0  0  0  0  0  0  0  0  0  0
   48.5921  102.4490   31.0252 C   0  0  0  0  0  0  0  0  0  0  0  0
   49.9434  102.2128   30.5379 C   0  0  0  0  0  0  0  0  0  0  0  0
   51.0207  101.2360   29.1649 H   0  0  0  0  0  0  0  0  0  0  0  0
   46.3078  101.8825   30.7049 C   0  0  0  0  0  0  0  0  0  0  0  0
   45.8639  102.5707   31.9751 C   0  0  0  0  0  0  0  0  0  0  0  0
   44.6814  103.2777   31.8160 O   0  0  0  0  0  0  0  0  0  0  0  0
   43.9146  102.6583   32.0341 H   0  0  0  0  0  0  0  0  0  0  0  0
 13 14  1  0  0  0
 14 15  2  0  0  0
 14 19  1  0  0  0
 15 16  1  0  0  0
 16 17  2  0  0  0
 17 18  1  0  0  0
 17  1  1  0  0  0
 18 19  2  0  0  0
  1  2  2  0  0  0
  1 11  1  0  0  0
  2  3  1  0  0  0
  3  4  2  0  0  0
  3  8  1  0  0  0
  4  5  1  0  0  0
  4 10  1  0  0  0
  5  6  2  0  0  0
  5 20  1  0  0  0
  6  7  1  0  0  0
  6  9  1  0  0  0
  7  8  2  0  0  0
 20 21  1  0  0  0
 21 22  1  0  0  0
 21 26  1  0  0  0
 22 23  1  0  0  0
 23 24  1  0  0  0
 24 25  1  0  0  0
 24 28  1  0  0  0
 25 26  1  0  0  0
 28 29  1  0  0  0
 29 30  1  0  0  0
 10 11  1  0  0  0
 11 12  2  0  0  0
 21 27  1  0  0  0
 30 31  1  0  0  0
M  CHG 1   9  -1
M  CHG 1  21   1
M  END
> <minimizedAffinity>
-10.28497

$$$$
2087


 32 35  0  0  0  0  0  0  0  0999 V2000
   53.2332   86.0495   20.3649 N   0  0  0  0  0  0  0  0  0  0  0  0
   53.8757   87.2578   20.2546 C   0  0  0  0  0  0  0  0  0  0  0  0
   54.7533   87.4117   21.3095 C   0  0  0  0  0  0  0  0  0  0  0  0
   54.6254   86.2992   22.0388 N   0  0  0  0  0  0  0  0  0  0  0  0
   53.6977   85.4656   21.4697 C   0  0  0  0  0  0  0  0  0  0  0  0
   55.5023   88.5246   21.4328 N   0  0  0  0  0  0  0  0  0  0  0  0
   55.3728   89.4824   20.5038 C   0  0  0  0  0  0  0  0  0  0  0  0
   56.0764   90.5161   20.6293 O   0  0  0  0  0  0  0  0  0  0  0  0
   54.5324   89.3709   19.4695 N   0  0  0  0  0  0  0  0  0  0  0  0
   53.7573   88.2562   19.3110 C   0  0  0  0  0  0  0  0  0  0  0  0
   52.9769   88.1839   18.3314 O   0  0  0  0  0  0  0  0  0  0  0  0
   56.4166   88.6429   22.5537 C   0  0  0  0  0  0  0  0  0  0  0  0
   54.4418   90.1338   18.7510 H   0  0  0  0  0  0  0  0  0  0  0  0
   53.3021   84.2697   22.0898 N   0  0  0  0  0  0  0  0  0  0  0  0
   53.3154   82.9388   21.5974 C   0  0  0  0  0  0  0  0  0  0  0  0
   52.2334   82.0693   22.2471 C   0  0  0  0  0  0  0  0  0  0  0  0
   51.1248   82.7613   22.7623 N   0  0  0  0  0  0  0  0  0  0  0  0
   51.3795   83.8960   23.5593 C   0  0  0  0  0  0  0  0  0  0  0  0
   52.8081   84.3849   23.4894 C   0  0  0  0  0  0  0  0  0  0  0  0
   49.8597   82.6114   22.1714 C   0  0  0  0  0  0  0  0  0  0  0  0
   48.8892   81.7442   22.8562 C   0  0  0  0  0  0  0  0  0  0  0  0
   48.4993   80.6472   22.3748 O   0  0  0  0  0  0  0  0  0  0  0  0
   48.3707   82.1262   24.0748 O   0  0  0  0  0  0  0  0  0  0  0  0
   48.9297   81.7222   25.2946 C   0  0  0  0  0  0  0  0  0  0  0  0
   52.2717   85.5599   19.4104 C   0  0  0  0  0  0  0  0  0  0  0  0
   54.6680   81.3723   15.5554 Br  0  0  0  0  0  0  0  0  0  0  0  0
   53.9364   82.6613   16.7556 C   0  0  0  0  0  0  0  0  0  0  0  0
   53.0612   82.2889   17.7515 C   0  0  0  0  0  0  0  0  0  0  0  0
   52.5346   83.2458   18.6201 C   0  0  0  0  0  0  0  0  0  0  0  0
   52.8998   84.5508   18.4665 C   0  0  0  0  0  0  0  0  0  0  0  0
   53.7661   84.9366   17.4845 C   0  0  0  0  0  0  0  0  0  0  0  0
   54.2853   83.9956   16.6297 C   0  0  0  0  0  0  0  0  0  0  0  0
 26 27  1  0  0  0
 27 28  2  0  0  0
 27 32  1  0  0  0
 28 29  1  0  0  0
 29 30  2  0  0  0
 30 31  1  0  0  0
 30 25  1  0  0  0
 31 32  2  0  0  0
 25  1  1  0  0  0
  1  2  1  0  0  0
  1  5  1  0  0  0
  2  3  2  0  0  0
  2 10  1  0  0  0
  3  4  1  0  0  0
  3  6  1  0  0  0
  4  5  2  0  0  0
  5 14  1  0  0  0
 14 15  1  0  0  0
 14 19  1  0  0  0
 15 16  1  0  0  0
 16 17  1  0  0  0
 17 18  1  0  0  0
 17 20  1  0  0  0
 18 19  1  0  0  0
 20 21  1  0  0  0
 21 22  2  0  0  0
 21 23  1  0  0  0
 23 24  1  0  0  0
  6  7  1  0  0  0
  6 12  1  0  0  0
  7  8  2  0  0  0
  7  9  1  0  0  0
  9 10  1  0  0  0
 10 11  2  0  0  0
  9 13  1  0  0  0
M  END
> <minimizedAffinity>
-8.21366

$$$$
2091


 28 31  0  0  0  0  0  0  0  0999 V2000
   53.4092   87.0837   20.0972 N   0  0  0  0  0  0  0  0  0  0  0  0
   52.9712   88.1210   19.3689 C   0  0  0  0  0  0  0  0  0  0  0  0
   53.7451   89.2242   19.6522 C   0  0  0  0  0  0  0  0  0  0  0  0
   54.6338   88.8225   20.5477 N   0  0  0  0  0  0  0  0  0  0  0  0
   54.4558   87.5260   20.8378 C   0  0  0  0  0  0  0  0  0  0  0  0
   53.5656   90.4369   19.0711 N   0  0  0  0  0  0  0  0  0  0  0  0
   52.5734   90.5377   18.1720 C   0  0  0  0  0  0  0  0  0  0  0  0
   52.4202   91.6683   17.6447 O   0  0  0  0  0  0  0  0  0  0  0  0
   51.7859   89.4968   17.8500 N   0  0  0  0  0  0  0  0  0  0  0  0
   51.9549   88.2898   18.4211 C   0  0  0  0  0  0  0  0  0  0  0  0
   51.2489   87.3104   18.1450 O   0  0  0  0  0  0  0  0  0  0  0  0
   54.4276   91.5414   19.4353 C   0  0  0  0  0  0  0  0  0  0  0  0
   51.0195   89.5841   17.1484 H   0  0  0  0  0  0  0  0  0  0  0  0
   55.2193   86.7378   21.7605 N   0  0  0  0  0  0  0  0  0  0  0  0
   54.5048   86.0618   22.8206 C   0  0  0  0  0  0  0  0  0  0  0  0
   54.9564   86.6642   24.1430 C   0  0  0  0  0  0  0  0  0  0  0  0
   56.2431   87.2712   24.0660 N   0  0  0  0  0  0  0  0  0  0  0  0
   57.1560   86.6909   23.1381 C   0  0  0  0  0  0  0  0  0  0  0  0
   56.6488   86.5785   21.7232 C   0  0  0  0  0  0  0  0  0  0  0  0
   56.3207   88.6694   24.2583 C   0  0  0  0  0  0  0  0  0  0  0  0
   52.8682   85.7464   20.1065 C   0  0  0  0  0  0  0  0  0  0  0  0
   55.5652   81.4333   16.6108 Br  0  0  0  0  0  0  0  0  0  0  0  0
   54.6996   82.7863   17.6368 C   0  0  0  0  0  0  0  0  0  0  0  0
   54.1312   83.9084   17.0423 C   0  0  0  0  0  0  0  0  0  0  0  0
   53.5216   84.8678   17.8488 C   0  0  0  0  0  0  0  0  0  0  0  0
   53.4476   84.7722   19.2037 C   0  0  0  0  0  0  0  0  0  0  0  0
   54.0359   83.6198   19.7599 C   0  0  0  0  0  0  0  0  0  0  0  0
   54.6489   82.6479   19.0042 C   0  0  0  0  0  0  0  0  0  0  0  0
 22 23  1  0  0  0
 23 24  2  0  0  0
 23 28  1  0  0  0
 24 25  1  0  0  0
 25 26  2  0  0  0
 26 27  1  0  0  0
 26 21  1  0  0  0
 27 28  2  0  0  0
 21  1  1  0  0  0
  1  2  1  0  0  0
  1  5  1  0  0  0
  2  3  2  0  0  0
  2 10  1  0  0  0
  3  4  1  0  0  0
  3  6  1  0  0  0
  4  5  2  0  0  0
  5 14  1  0  0  0
 14 15  1  0  0  0
 14 19  1  0  0  0
 15 16  1  0  0  0
 16 17  1  0  0  0
 17 18  1  0  0  0
 17 20  1  0  0  0
 18 19  1  0  0  0
  6  7  1  0  0  0
  6 12  1  0  0  0
  7  8  2  0  0  0
  7  9  1  0  0  0
  9 10  1  0  0  0
 10 11  2  0  0  0
  9 13  1  0  0  0
M  END
> <minimizedAffinity>
-8.49571

$$$$
2103


 29 32  0  0  0  0  0  0  0  0999 V2000
   53.4959   87.0012   20.0019 C   0  0  0  0  0  0  0  0  0  0  0  0
   54.6519   86.9436   20.8588 C   0  0  0  0  0  0  0  0  0  0  0  0
   55.3058   88.0757   21.1812 C   0  0  0  0  0  0  0  0  0  0  0  0
   54.8796   89.3252   20.6948 C   0  0  0  0  0  0  0  0  0  0  0  0
   53.7802   89.3983   19.8746 C   0  0  0  0  0  0  0  0  0  0  0  0
   53.0920   88.2242   19.5293 C   0  0  0  0  0  0  0  0  0  0  0  0
   51.9601   88.2736   18.5685 C   0  0  0  0  0  0  0  0  0  0  0  0
   51.9212   89.5497   17.7345 C   0  0  0  0  0  0  0  0  0  0  0  0
   52.1174   90.7262   18.5486 N   0  0  0  0  0  0  0  0  0  0  0  0
   53.2872   90.6791   19.3773 C   0  0  0  0  0  0  0  0  0  0  0  0
   53.8322   91.7727   19.6332 O   0  0  0  0  0  0  0  0  0  0  0  0
   51.2102   91.8535   18.5290 C   0  0  0  0  0  0  0  0  0  0  0  0
   55.5854   90.4092   21.0636 O   0  0  0  0  0  0  0  0  0  0  0  0
   56.3743   87.7128   22.0156 O   0  0  0  0  0  0  0  0  0  0  0  0
   56.2329   86.3671   22.4187 C   0  0  0  0  0  0  0  0  0  0  0  0
   55.2963   85.8711   21.4827 O   0  0  0  0  0  0  0  0  0  0  0  0
   55.4803   91.3421   20.8554 H   0  0  0  0  0  0  0  0  0  0  0  0
   52.9322   85.6854   19.7880 C   0  0  0  0  0  0  0  0  0  0  0  0
   53.7015   84.0494   18.1613 C   0  0  0  0  0  0  0  0  0  0  0  0
   54.6277   83.7917   18.9483 O   0  0  0  0  0  0  0  0  0  0  0  0
   52.7175   85.0819   18.5465 N   0  0  0  0  0  0  0  0  0  0  0  0
   51.9790   85.1779   17.8345 H   0  0  0  0  0  0  0  0  0  0  0  0
   51.6060   80.1770   15.1537 Br  0  0  0  0  0  0  0  0  0  0  0  0
   52.7374   81.6876   15.4459 C   0  0  0  0  0  0  0  0  0  0  0  0
   53.4997   82.1854   14.4372 C   0  0  0  0  0  0  0  0  0  0  0  0
   54.2935   83.2384   14.6264 N   0  0  0  0  0  0  0  0  0  0  0  0
   54.3461   83.8228   15.8321 C   0  0  0  0  0  0  0  0  0  0  0  0
   53.5880   83.3561   16.9001 C   0  0  0  0  0  0  0  0  0  0  0  0
   52.7653   82.2690   16.7127 C   0  0  0  0  0  0  0  0  0  0  0  0
 23 24  1  0  0  0
 24 25  2  0  0  0
 24 29  1  0  0  0
 25 26  1  0  0  0
 26 27  2  0  0  0
 27 28  1  0  0  0
 28 29  2  0  0  0
 28 19  1  0  0  0
 19 20  2  0  0  0
 19 21  1  0  0  0
 21 18  1  0  0  0
 18  1  1  0  0  0
  1  2  2  0  0  0
  1  6  1  0  0  0
  2  3  1  0  0  0
  2 16  1  0  0  0
  3  4  2  0  0  0
  3 14  1  0  0  0
  4  5  1  0  0  0
  4 13  1  0  0  0
  5  6  2  0  0  0
  5 10  1  0  0  0
  6  7  1  0  0  0
  7  8  1  0  0  0
  8  9  1  0  0  0
  9 10  1  0  0  0
  9 12  1  0  0  0
 10 11  2  0  0  0
 14 15  1  0  0  0
 15 16  1  0  0  0
 21 22  1  0  0  0
 13 17  1  0  0  0
M  END
> <minimizedAffinity>
-9.23112

$$$$
2105


 29 32  0  0  0  0  0  0  0  0999 V2000
   52.8724   85.3268   25.7174 Cl  0  0  0  0  0  0  0  0  0  0  0  0
   52.4509   84.2332   27.0185 C   0  0  0  0  0  0  0  0  0  0  0  0
   51.3768   84.5149   27.8630 C   0  0  0  0  0  0  0  0  0  0  0  0
   51.0168   83.6900   28.8871 C   0  0  0  0  0  0  0  0  0  0  0  0
   51.7770   82.5403   29.0531 C   0  0  0  0  0  0  0  0  0  0  0  0
   52.8407   82.2442   28.2288 C   0  0  0  0  0  0  0  0  0  0  0  0
   53.1890   83.0904   27.2003 C   0  0  0  0  0  0  0  0  0  0  0  0
   49.8507   84.2702   29.5846 C   0  0  0  0  0  0  0  0  0  0  0  0
   50.2070   84.5978   31.0126 C   0  0  0  0  0  0  0  0  0  0  0  0
   49.5521   84.1361   32.0412 C   0  0  0  0  0  0  0  0  0  0  0  0
   48.4299   83.2696   31.8899 N   0  0  0  0  0  0  0  0  0  0  0  0
   48.0269   82.9102   30.5806 C   0  0  0  0  0  0  0  0  0  0  0  0
   48.6787   83.3699   29.5369 C   0  0  0  0  0  0  0  0  0  0  0  0
   46.9101   82.0462   30.3485 N   0  0  0  0  0  0  0  0  0  0  0  0
   50.1715   84.6590   33.2759 C   0  0  0  0  0  0  0  0  0  0  0  0
   51.2200   85.4461   32.8653 O   0  0  0  0  0  0  0  0  0  0  0  0
   51.2903   85.4471   31.4915 C   0  0  0  0  0  0  0  0  0  0  0  0
   52.1308   86.0625   30.7470 O   0  0  0  0  0  0  0  0  0  0  0  0
   50.5738   83.4962   34.1556 C   0  0  0  0  0  0  0  0  0  0  0  0
   49.2070   85.5199   34.0713 C   0  0  0  0  0  0  0  0  0  0  0  0
   49.5711   85.5271   28.8514 C   0  0  0  0  0  0  0  0  0  0  0  0
   48.6373   86.3689   29.1069 O   0  0  0  0  0  0  0  0  0  0  0  0
   50.5187   85.6421   27.8141 N   0  0  0  0  0  0  0  0  0  0  0  0
   47.9024   82.8968   32.7075 H   0  0  0  0  0  0  0  0  0  0  0  0
   46.8348   81.1420   30.8328 H   0  0  0  0  0  0  0  0  0  0  0  0
   46.1861   82.3505   29.6868 H   0  0  0  0  0  0  0  0  0  0  0  0
   50.5490   86.4562   27.1277 H   0  0  0  0  0  0  0  0  0  0  0  0
   48.2308   82.9753   28.2086 C   0  0  0  0  0  0  0  0  0  0  0  0
   47.8588   82.6645   27.1581 N   0  0  0  0  0  0  0  0  0  0  0  0
  1  2  1  0  0  0
  2  3  2  0  0  0
  2  7  1  0  0  0
  3  4  1  0  0  0
  3 23  1  0  0  0
  4  5  2  0  0  0
  4  8  1  0  0  0
  5  6  1  0  0  0
  6  7  2  0  0  0
  8  9  1  0  0  0
  8 13  1  0  0  0
  8 21  1  0  0  0
  9 10  2  0  0  0
  9 17  1  0  0  0
 10 11  1  0  0  0
 10 15  1  0  0  0
 11 12  1  0  0  0
 12 13  2  0  0  0
 12 14  1  0  0  0
 13 28  1  0  0  0
 28 29  3  0  0  0
 15 16  1  0  0  0
 15 19  1  0  0  0
 15 20  1  0  0  0
 16 17  1  0  0  0
 17 18  2  0  0  0
 21 22  2  0  0  0
 21 23  1  0  0  0
 11 24  1  0  0  0
 14 25  1  0  0  0
 14 26  1  0  0  0
 23 27  1  0  0  0
M  END
> <minimizedAffinity>
-7.82376

$$$$
2109


 21 24  0  0  0  0  0  0  0  0999 V2000
   49.5918  100.0467   28.2586 N   0  0  0  0  0  0  0  0  0  0  0  0
   48.2788   99.8040   28.7853 C   0  0  0  0  0  0  0  0  0  0  0  0
   47.8519   98.7139   29.2402 O   0  0  0  0  0  0  0  0  0  0  0  0
   47.4715  101.0435   28.7172 C   0  0  0  0  0  0  0  0  0  0  0  0
   46.8747  101.3604   29.9324 O   0  0  0  0  0  0  0  0  0  0  0  0
   47.8321  101.6663   30.7923 N   0  0  0  0  0  0  0  0  0  0  0  0
   48.9854  102.0995   30.1352 C   0  0  0  0  0  0  0  0  0  0  0  0
   48.5732  102.0966   28.6622 C   0  0  0  0  0  0  0  0  0  0  0  0
   49.5815  101.4057   27.8233 C   0  0  0  0  0  0  0  0  0  0  0  0
   50.3158  101.8645   26.8980 O   0  0  0  0  0  0  0  0  0  0  0  0
   49.6230  103.3574   30.5476 C   0  0  0  0  0  0  0  0  0  0  0  0
   49.0475  104.0847   31.6985 C   0  0  0  0  0  0  0  0  0  0  0  0
   48.4969  103.0782   32.6847 C   0  0  0  0  0  0  0  0  0  0  0  0
   47.4133  102.3214   31.9615 C   0  0  0  0  0  0  0  0  0  0  0  0
   54.2597   96.2726   27.9493 Cl  0  0  0  0  0  0  0  0  0  0  0  0
   52.8959   97.3730   28.0387 C   0  0  0  0  0  0  0  0  0  0  0  0
   51.6520   96.9898   27.5816 C   0  0  0  0  0  0  0  0  0  0  0  0
   50.5815   97.8653   27.6560 C   0  0  0  0  0  0  0  0  0  0  0  0
   50.6899   99.1365   28.1775 C   0  0  0  0  0  0  0  0  0  0  0  0
   51.9449   99.5128   28.6346 C   0  0  0  0  0  0  0  0  0  0  0  0
   53.0164   98.6430   28.5631 C   0  0  0  0  0  0  0  0  0  0  0  0
 15 16  1  0  0  0
 16 17  2  0  0  0
 16 21  1  0  0  0
 17 18  1  0  0  0
 18 19  2  0  0  0
 19 20  1  0  0  0
 19  1  1  0  0  0
 20 21  2  0  0  0
  1  2  1  0  0  0
  1  9  1  0  0  0
  2  3  2  0  0  0
  2  4  1  0  0  0
  4  5  1  0  0  0
  4  8  1  0  0  0
  5  6  1  0  0  0
  6  7  1  0  0  0
  6 14  1  0  0  0
  7  8  1  0  0  0
  7 11  1  0  0  0
  8  9  1  0  0  0
  9 10  2  0  0  0
 11 12  1  0  0  0
 12 13  1  0  0  0
 13 14  1  0  0  0
M  END
> <minimizedAffinity>
-8.26295

$$$$
2116


 33 36  0  0  0  0  0  0  0  0999 V2000
   52.6532   86.4606   19.1891 C   0  0  0  0  0  0  0  0  0  0  0  0
   53.4021   86.5240   20.2785 N   0  0  0  0  0  0  0  0  0  0  0  0
   54.1026   87.6081   20.6546 C   0  0  0  0  0  0  0  0  0  0  0  0
   54.0197   88.6911   19.8514 N   0  0  0  0  0  0  0  0  0  0  0  0
   53.2664   88.6879   18.7192 C   0  0  0  0  0  0  0  0  0  0  0  0
   52.5868   87.5572   18.4046 N   0  0  0  0  0  0  0  0  0  0  0  0
   53.2016   89.8197   17.8820 N   0  0  0  0  0  0  0  0  0  0  0  0
   52.3693   90.9486   18.2102 C   0  0  0  0  0  0  0  0  0  0  0  0
   53.3001   92.1687   18.1508 C   0  0  0  0  0  0  0  0  0  0  0  0
   53.9428   92.1833   16.9297 O   0  0  0  0  0  0  0  0  0  0  0  0
   54.8650   91.1406   16.8505 C   0  0  0  0  0  0  0  0  0  0  0  0
   53.9954   89.8762   16.6808 C   0  0  0  0  0  0  0  0  0  0  0  0
   54.9065   87.6278   21.8458 N   0  0  0  0  0  0  0  0  0  0  0  0
   55.7471   88.7474   22.1615 C   0  0  0  0  0  0  0  0  0  0  0  0
   56.3305   88.7784   23.5202 C   0  0  0  0  0  0  0  0  0  0  0  0
   56.2967   87.5638   24.1911 O   0  0  0  0  0  0  0  0  0  0  0  0
   55.0422   86.9719   24.1380 C   0  0  0  0  0  0  0  0  0  0  0  0
   54.8477   86.4933   22.7200 C   0  0  0  0  0  0  0  0  0  0  0  0
   51.9725   85.2576   18.8545 N   0  0  0  0  0  0  0  0  0  0  0  0
   50.9551   85.2021   18.9817 H   0  0  0  0  0  0  0  0  0  0  0  0
   53.4918   84.2210   17.3714 C   0  0  0  0  0  0  0  0  0  0  0  0
   52.6711   84.1673   18.3636 N   0  0  0  0  0  0  0  0  0  0  0  0
   54.7572   80.8705   13.3762 Br  0  0  0  0  0  0  0  0  0  0  0  0
   54.8606   81.4721   15.1768 C   0  0  0  0  0  0  0  0  0  0  0  0
   55.6598   80.7623   16.0590 C   0  0  0  0  0  0  0  0  0  0  0  0
   55.7143   81.2156   17.3632 C   0  0  0  0  0  0  0  0  0  0  0  0
   55.0056   82.3194   17.7614 C   0  0  0  0  0  0  0  0  0  0  0  0
   54.1971   83.0504   16.8915 C   0  0  0  0  0  0  0  0  0  0  0  0
   54.1545   82.5837   15.5959 C   0  0  0  0  0  0  0  0  0  0  0  0
   55.0643   82.7718   19.0838 O   0  0  0  0  0  0  0  0  0  0  0  0
   56.3836   79.6388   15.6655 O   0  0  0  0  0  0  0  0  0  0  0  0
   55.6439   82.2594   19.7416 H   0  0  0  0  0  0  0  0  0  0  0  0
   56.3819   79.2719   14.7257 H   0  0  0  0  0  0  0  0  0  0  0  0
 23 24  1  0  0  0
 24 25  2  0  0  0
 24 29  1  0  0  0
 25 26  1  0  0  0
 25 31  1  0  0  0
 26 27  2  0  0  0
 27 28  1  0  0  0
 27 30  1  0  0  0
 28 29  2  0  0  0
 28 21  1  0  0  0
 21 22  2  0  0  0
 22 19  1  0  0  0
 19  1  1  0  0  0
  1  2  2  0  0  0
  1  6  1  0  0  0
  2  3  1  0  0  0
  3  4  2  0  0  0
  3 13  1  0  0  0
  4  5  1  0  0  0
  5  6  2  0  0  0
  5  7  1  0  0  0
  7  8  1  0  0  0
  7 12  1  0  0  0
  8  9  1  0  0  0
  9 10  1  0  0  0
 10 11  1  0  0  0
 11 12  1  0  0  0
 13 14  1  0  0  0
 13 18  1  0  0  0
 14 15  1  0  0  0
 15 16  1  0  0  0
 16 17  1  0  0  0
 17 18  1  0  0  0
 19 20  1  0  0  0
 30 32  1  0  0  0
 31 33  1  0  0  0
M  END
> <minimizedAffinity>
-9.36387

$$$$
2121


 31 34  0  0  0  0  0  0  0  0999 V2000
   53.1551   83.8479   20.8673 C   0  0  0  0  0  0  0  0  0  0  0  0
   54.4524   83.5432   21.0054 O   0  0  0  0  0  0  0  0  0  0  0  0
   52.3129   82.8440   21.2955 N   0  0  0  0  0  0  0  0  0  0  0  0
   53.0784   81.6898   21.8451 C   0  0  0  0  0  0  0  0  0  0  0  0
   53.2906   81.9017   23.3316 C   0  0  0  0  0  0  0  0  0  0  0  0
   52.2574   82.8501   23.8070 C   0  0  0  0  0  0  0  0  0  0  0  0
   50.8818   82.3221   23.5587 C   0  0  0  0  0  0  0  0  0  0  0  0
   50.2357   83.2823   22.5448 C   0  0  0  0  0  0  0  0  0  0  0  0
   50.8946   82.8959   21.2072 C   0  0  0  0  0  0  0  0  0  0  0  0
   50.1031   82.2062   24.7084 O   0  0  0  0  0  0  0  0  0  0  0  0
   50.7510   81.9806   25.4519 H   0  0  0  0  0  0  0  0  0  0  0  0
   53.7029   91.1494   18.8321 Cl  0  0  0  0  0  0  0  0  0  0  0  0
   53.1142   89.4896   18.9580 C   0  0  0  0  0  0  0  0  0  0  0  0
   53.7825   88.6263   19.7650 C   0  0  0  0  0  0  0  0  0  0  0  0
   53.2935   87.3176   19.8423 C   0  0  0  0  0  0  0  0  0  0  0  0
   52.2050   86.9097   19.1528 C   0  0  0  0  0  0  0  0  0  0  0  0
   52.0114   85.5890   19.4516 N   0  0  0  0  0  0  0  0  0  0  0  0
   52.9412   85.1533   20.3048 C   0  0  0  0  0  0  0  0  0  0  0  0
   53.7697   86.2430   20.5671 C   0  0  0  0  0  0  0  0  0  0  0  0
   51.5422   87.7922   18.3436 C   0  0  0  0  0  0  0  0  0  0  0  0
   52.0005   89.0972   18.2438 C   0  0  0  0  0  0  0  0  0  0  0  0
   51.2210   85.0716   19.0464 H   0  0  0  0  0  0  0  0  0  0  0  0
   52.3647   83.3510   25.1404 N   0  0  0  0  0  0  0  0  0  0  0  0
   52.2491   84.7822   25.2644 C   0  0  0  0  0  0  0  0  0  0  0  0
   53.3581   85.4886   24.5818 C   0  0  0  0  0  0  0  0  0  0  0  0
   54.6029   84.9583   25.1491 N   0  0  0  0  0  0  0  0  0  0  0  0
   54.4486   83.9709   26.1856 C   0  0  0  0  0  0  0  0  0  0  0  0
   53.5075   82.8509   25.8553 C   0  0  0  0  0  0  0  0  0  0  0  0
   55.8630   85.4405   24.6811 C   0  0  0  0  0  0  0  0  0  0  0  0
   56.9077   84.9766   25.1568 O   0  0  0  0  0  0  0  0  0  0  0  0
   55.8723   86.5002   23.6237 C   0  0  0  0  0  0  0  0  0  0  0  0
 12 13  1  0  0  0
 13 14  2  0  0  0
 13 21  1  0  0  0
 14 15  1  0  0  0
 15 16  2  0  0  0
 15 19  1  0  0  0
 16 17  1  0  0  0
 16 20  1  0  0  0
 17 18  1  0  0  0
 18 19  2  0  0  0
 18  1  1  0  0  0
  1  2  2  0  0  0
  1  3  1  0  0  0
  3  4  1  0  0  0
  3  9  1  0  0  0
  4  5  1  0  0  0
  5  6  1  0  0  0
  6  7  1  0  0  0
  6 23  1  0  0  0
  7  8  1  0  0  0
  7 10  1  0  0  0
  8  9  1  0  0  0
 23 24  1  0  0  0
 23 28  1  0  0  0
 24 25  1  0  0  0
 25 26  1  0  0  0
 26 27  1  0  0  0
 26 29  1  0  0  0
 27 28  1  0  0  0
 29 30  2  0  0  0
 29 31  1  0  0  0
 20 21  2  0  0  0
 17 22  1  0  0  0
 10 11  1  0  0  0
M  END
> <minimizedAffinity>
-8.49206

$$$$
2122


 29 32  0  0  0  0  0  0  0  0999 V2000
   56.2990   88.4033   21.1736 C   0  0  0  0  0  0  0  0  0  0  0  0
   57.1563   87.3711   21.2544 N   0  0  0  0  0  0  0  0  0  0  0  0
   56.5218   86.2736   21.5542 O   0  0  0  0  0  0  0  0  0  0  0  0
   55.2463   86.5829   21.6726 C   0  0  0  0  0  0  0  0  0  0  0  0
   55.0913   87.8897   21.4420 N   0  0  0  0  0  0  0  0  0  0  0  0
   54.2173   85.5437   22.0128 C   0  0  0  0  0  0  0  0  0  0  0  0
   53.7299   85.0281   20.9479 O   0  0  0  0  0  0  0  0  0  0  0  0
   53.9260   85.2679   23.2970 N   0  0  0  0  0  0  0  0  0  0  0  0
   53.0645   84.2846   22.8812 H   0  0  0  0  0  0  0  0  0  0  0  0
   53.6151   84.9719   24.6106 C   0  0  0  0  0  0  0  0  0  0  0  0
   54.8418   84.9110   25.5286 C   0  0  0  0  0  0  0  0  0  0  0  0
   55.6390   86.0730   25.5341 N   0  0  0  0  0  0  0  0  0  0  0  0
   54.8469   87.2393   25.4898 C   0  0  0  0  0  0  0  0  0  0  0  0
   55.5491   88.4072   24.8833 C   0  0  0  0  0  0  0  0  0  0  0  0
   56.8445   88.4321   25.3322 O   0  0  0  0  0  0  0  0  0  0  0  0
   57.6141   87.3741   24.8873 C   0  0  0  0  0  0  0  0  0  0  0  0
   56.8866   86.0623   24.8879 C   0  0  0  0  0  0  0  0  0  0  0  0
   56.6655   89.8021   20.8198 C   0  0  0  0  0  0  0  0  0  0  0  0
   54.0311   90.2885   15.6696 Cl  0  0  0  0  0  0  0  0  0  0  0  0
   53.9009   90.8332   17.3346 C   0  0  0  0  0  0  0  0  0  0  0  0
   54.8544   90.4026   18.2524 C   0  0  0  0  0  0  0  0  0  0  0  0
   54.7480   90.8366   19.5664 C   0  0  0  0  0  0  0  0  0  0  0  0
   53.6888   91.6841   19.8999 C   0  0  0  0  0  0  0  0  0  0  0  0
   52.7615   92.0967   18.9877 C   0  0  0  0  0  0  0  0  0  0  0  0
   52.8633   91.6725   17.6983 C   0  0  0  0  0  0  0  0  0  0  0  0
   53.8494   91.9121   21.1672 O   0  0  0  0  0  0  0  0  0  0  0  0
   54.8967   91.2914   21.6474 C   0  0  0  0  0  0  0  0  0  0  0  0
   55.2579   91.3585   22.8528 O   0  0  0  0  0  0  0  0  0  0  0  0
   55.4866   90.6024   20.6547 N   0  0  0  0  0  0  0  0  0  0  0  0
 19 20  1  0  0  0
 20 21  2  0  0  0
 20 25  1  0  0  0
 21 22  1  0  0  0
 22 23  2  0  0  0
 22 29  1  0  0  0
 23 24  1  0  0  0
 23 26  1  0  0  0
 24 25  2  0  0  0
 26 27  1  0  0  0
 27 28  2  0  0  0
 27 29  1  0  0  0
 29 18  1  0  0  0
 18  1  1  0  0  0
  1  2  2  0  0  0
  1  5  1  0  0  0
  2  3  1  0  0  0
  3  4  1  0  0  0
  4  5  2  0  0  0
  4  6  1  0  0  0
  6  7  2  0  0  0
  6  8  1  0  0  0
  8 10  1  0  0  0
 10 11  1  0  0  0
 11 12  1  0  0  0
 12 13  1  0  0  0
 12 17  1  0  0  0
 13 14  1  0  0  0
 14 15  1  0  0  0
 15 16  1  0  0  0
 16 17  1  0  0  0
  8  9  1  0  0  0
M  END
> <minimizedAffinity>
-8.69664

$$$$
2124


 25 29  0  0  0  0  0  0  0  0999 V2000
   50.0968  100.8918   29.3737 N   0  0  0  0  0  0  0  0  0  0  0  0
   50.9063   99.7579   29.6479 C   0  0  0  0  0  0  0  0  0  0  0  0
   50.7046   98.9270   30.5728 O   0  0  0  0  0  0  0  0  0  0  0  0
   52.0486   99.6812   28.6774 C   0  0  0  0  0  0  0  0  0  0  0  0
   52.0494   98.3793   27.9486 C   0  0  0  0  0  0  0  0  0  0  0  0
   52.1401   98.7359   26.5803 O   0  0  0  0  0  0  0  0  0  0  0  0
   51.0375   99.6283   26.5784 C   0  0  0  0  0  0  0  0  0  0  0  0
   51.5807  100.6452   27.5773 C   0  0  0  0  0  0  0  0  0  0  0  0
   50.5575  101.4935   28.1705 C   0  0  0  0  0  0  0  0  0  0  0  0
   50.1624  102.5804   27.6762 O   0  0  0  0  0  0  0  0  0  0  0  0
   49.9912   98.7637   27.1737 C   0  0  0  0  0  0  0  0  0  0  0  0
   50.6387   97.8757   27.9560 C   0  0  0  0  0  0  0  0  0  0  0  0
   50.7132  100.1862   25.2559 C   0  0  0  0  0  0  0  0  0  0  0  0
   45.5312  103.1877   32.5382 Cl  0  0  0  0  0  0  0  0  0  0  0  0
   46.8551  102.4986   31.5932 C   0  0  0  0  0  0  0  0  0  0  0  0
   46.6197  101.7450   30.4686 C   0  0  0  0  0  0  0  0  0  0  0  0
   47.6808  101.2237   29.7496 C   0  0  0  0  0  0  0  0  0  0  0  0
   48.9917  101.4236   30.1098 C   0  0  0  0  0  0  0  0  0  0  0  0
   49.2311  102.1824   31.2406 C   0  0  0  0  0  0  0  0  0  0  0  0
   48.1639  102.7087   31.9652 C   0  0  0  0  0  0  0  0  0  0  0  0
   53.0495   97.3843   28.3553 C   0  0  0  0  0  0  0  0  0  0  0  0
   52.9382   96.2746   27.5152 O   0  0  0  0  0  0  0  0  0  0  0  0
   53.7327   96.4869   26.4168 C   0  0  0  0  0  0  0  0  0  0  0  0
   54.7983   97.4071   26.9506 C   0  0  0  0  0  0  0  0  0  0  0  0
   54.3304   97.8972   28.1492 O   0  0  0  0  0  0  0  0  0  0  0  0
 14 15  1  0  0  0
 15 16  2  0  0  0
 15 20  1  0  0  0
 16 17  1  0  0  0
 17 18  2  0  0  0
 18 19  1  0  0  0
 18  1  1  0  0  0
 19 20  2  0  0  0
  1  2  1  0  0  0
  1  9  1  0  0  0
  2  3  2  0  0  0
  2  4  1  0  0  0
  4  5  1  0  0  0
  4  8  1  0  0  0
  5  6  1  0  0  0
  5 12  1  0  0  0
  5 21  1  0  0  0
  6  7  1  0  0  0
  7  8  1  0  0  0
  7 11  1  0  0  0
  7 13  1  0  0  0
  8  9  1  0  0  0
  9 10  2  0  0  0
 11 12  2  0  0  0
 21 22  1  0  0  0
 21 25  1  0  0  0
 22 23  1  0  0  0
 23 24  1  0  0  0
 24 25  1  0  0  0
M  END
> <minimizedAffinity>
-7.89975

$$$$
2134


 36 39  0  0  0  0  0  0  0  0999 V2000
   54.2604   89.4016   20.7883 C   0  0  0  0  0  0  0  0  0  0  0  0
   54.4654   88.1099   20.7021 N   0  0  0  0  0  0  0  0  0  0  0  0
   53.7096   87.5203   19.7210 N   0  0  0  0  0  0  0  0  0  0  0  0
   52.9496   88.5754   19.1302 C   0  0  0  0  0  0  0  0  0  0  0  0
   52.0783   88.6032   18.1658 N   0  0  0  0  0  0  0  0  0  0  0  0
   51.4479   89.8089   17.7600 N   0  0  0  0  0  0  0  0  0  0  0  0
   51.7293   91.0410   18.3776 C   0  0  0  0  0  0  0  0  0  0  0  0
   51.1421   92.1737   18.0154 C   0  0  0  0  0  0  0  0  0  0  0  0
   52.7062   91.0321   19.4610 C   0  0  0  0  0  0  0  0  0  0  0  0
   52.9693   92.1032   20.0166 O   0  0  0  0  0  0  0  0  0  0  0  0
   53.2982   89.7799   19.8104 N   0  0  0  0  0  0  0  0  0  0  0  0
   50.7637   89.7197   16.9752 H   0  0  0  0  0  0  0  0  0  0  0  0
   53.6657   86.1312   19.4077 C   0  0  0  0  0  0  0  0  0  0  0  0
   53.3614   85.6912   18.1429 C   0  0  0  0  0  0  0  0  0  0  0  0
   53.3453   84.3529   17.7739 C   0  0  0  0  0  0  0  0  0  0  0  0
   53.6473   83.3799   18.7052 C   0  0  0  0  0  0  0  0  0  0  0  0
   53.9531   83.7971   19.9835 C   0  0  0  0  0  0  0  0  0  0  0  0
   53.9609   85.1488   20.3253 C   0  0  0  0  0  0  0  0  0  0  0  0
   53.6789   81.9303   18.3417 C   0  0  0  0  0  0  0  0  0  0  0  0
   55.1601   91.6285   21.3809 N   0  0  0  0  0  0  0  0  0  0  0  0
   54.9204   90.2793   21.7347 C   0  0  0  0  0  0  0  0  0  0  0  0
   55.2956   89.8597   22.8758 O   0  0  0  0  0  0  0  0  0  0  0  0
   54.8602   92.0318   20.4810 H   0  0  0  0  0  0  0  0  0  0  0  0
   55.9570   94.1394   24.1045 N   0  0  0  0  0  0  0  0  0  0  0  0
   55.2287   93.3393   23.2069 C   0  0  0  0  0  0  0  0  0  0  0  0
   53.9712   93.4289   23.2311 O   0  0  0  0  0  0  0  0  0  0  0  0
   55.8192   92.4467   22.2915 N   0  0  0  0  0  0  0  0  0  0  0  0
   57.0065   94.0928   24.1028 H   0  0  0  0  0  0  0  0  0  0  0  0
   56.8869   92.3633   22.2510 H   0  0  0  0  0  0  0  0  0  0  0  0
   53.5750   97.8554   28.0648 Cl  0  0  0  0  0  0  0  0  0  0  0  0
   54.3297   96.7799   26.8815 C   0  0  0  0  0  0  0  0  0  0  0  0
   55.5309   97.1078   26.3080 C   0  0  0  0  0  0  0  0  0  0  0  0
   56.0507   96.2203   25.3920 C   0  0  0  0  0  0  0  0  0  0  0  0
   55.3953   95.0384   25.0550 C   0  0  0  0  0  0  0  0  0  0  0  0
   54.1817   94.7507   25.6629 C   0  0  0  0  0  0  0  0  0  0  0  0
   53.6511   95.6300   26.5794 C   0  0  0  0  0  0  0  0  0  0  0  0
 30 31  1  0  0  0
 31 32  2  0  0  0
 31 36  1  0  0  0
 32 33  1  0  0  0
 33 34  2  0  0  0
 34 35  1  0  0  0
 34 24  1  0  0  0
 35 36  2  0  0  0
 24 25  1  0  0  0
 25 26  2  0  0  0
 25 27  1  0  0  0
 27 20  1  0  0  0
 20 21  1  0  0  0
 21 22  2  0  0  0
 21  1  1  0  0  0
  1  2  2  0  0  0
  1 11  1  0  0  0
  2  3  1  0  0  0
  3  4  1  0  0  0
  3 13  1  0  0  0
  4  5  2  0  0  0
  4 11  1  0  0  0
  5  6  1  0  0  0
  6  7  1  0  0  0
  7  8  2  0  0  0
  7  9  1  0  0  0
  9 10  2  0  0  0
  9 11  1  0  0  0
 13 14  2  0  0  0
 13 18  1  0  0  0
 14 15  1  0  0  0
 15 16  2  0  0  0
 16 17  1  0  0  0
 16 19  1  0  0  0
 17 18  2  0  0  0
 24 28  1  0  0  0
 27 29  1  0  0  0
 20 23  1  0  0  0
  6 12  1  0  0  0
M  END
> <minimizedAffinity>
-10.84788

$$$$
2136


 33 37  0  0  0  0  0  0  0  0999 V2000
   48.9148   82.3270   22.6535 Cl  0  0  0  0  0  0  0  0  0  0  0  0
   50.5937   82.8066   22.5201 C   0  0  0  0  0  0  0  0  0  0  0  0
   51.2550   83.4921   23.5185 C   0  0  0  0  0  0  0  0  0  0  0  0
   52.5893   83.8583   23.3793 C   0  0  0  0  0  0  0  0  0  0  0  0
   53.2043   83.5044   22.2100 C   0  0  0  0  0  0  0  0  0  0  0  0
   52.5625   82.8211   21.2047 C   0  0  0  0  0  0  0  0  0  0  0  0
   51.2549   82.4642   21.3451 C   0  0  0  0  0  0  0  0  0  0  0  0
   52.9964   84.5656   24.5992 C   0  0  0  0  0  0  0  0  0  0  0  0
   53.4712   85.9109   24.3298 N   0  0  0  0  0  0  0  0  0  0  0  0
   54.1512   86.2485   25.5827 C   0  0  0  0  0  0  0  0  0  0  0  0
   54.7840   85.0030   26.0751 C   0  0  0  0  0  0  0  0  0  0  0  0
   54.2075   83.9207   25.2194 C   0  0  0  0  0  0  0  0  0  0  0  0
   53.8770   82.7767   26.0739 C   0  0  0  0  0  0  0  0  0  0  0  0
   53.6245   81.6257   25.6379 O   0  0  0  0  0  0  0  0  0  0  0  0
   53.9089   83.2447   27.4164 N   0  0  0  0  0  0  0  0  0  0  0  0
   54.2754   84.6176   27.4438 C   0  0  0  0  0  0  0  0  0  0  0  0
   54.2159   85.4333   28.4038 O   0  0  0  0  0  0  0  0  0  0  0  0
   51.8163   84.6039   25.4778 C   0  0  0  0  0  0  0  0  0  0  0  0
   51.7042   85.1041   26.6061 O   0  0  0  0  0  0  0  0  0  0  0  0
   50.7758   83.9353   24.7794 N   0  0  0  0  0  0  0  0  0  0  0  0
   52.6744   86.5789   24.1408 H   0  0  0  0  0  0  0  0  0  0  0  0
   49.7891   83.7772   25.1192 H   0  0  0  0  0  0  0  0  0  0  0  0
   53.6065   82.4235   28.5859 C   0  0  0  0  0  0  0  0  0  0  0  0
   52.0935   82.3698   28.7407 C   0  0  0  0  0  0  0  0  0  0  0  0
   51.6394   83.4182   29.5250 O   0  0  0  0  0  0  0  0  0  0  0  0
   52.3459   83.4449   30.7115 C   0  0  0  0  0  0  0  0  0  0  0  0
   55.1642   87.3340   25.3754 C   0  0  0  0  0  0  0  0  0  0  0  0
   55.8064   87.3287   24.0507 C   0  0  0  0  0  0  0  0  0  0  0  0
   56.9832   86.5968   23.9068 C   0  0  0  0  0  0  0  0  0  0  0  0
   57.5940   86.5549   22.6802 C   0  0  0  0  0  0  0  0  0  0  0  0
   57.0972   87.2054   21.5760 C   0  0  0  0  0  0  0  0  0  0  0  0
   55.9320   87.9180   21.7588 C   0  0  0  0  0  0  0  0  0  0  0  0
   55.2766   87.9930   22.9699 C   0  0  0  0  0  0  0  0  0  0  0  0
  1  2  1  0  0  0
  2  3  2  0  0  0
  2  7  1  0  0  0
  3  4  1  0  0  0
  3 20  1  0  0  0
  4  5  2  0  0  0
  4  8  1  0  0  0
  5  6  1  0  0  0
  6  7  2  0  0  0
  8  9  1  0  0  0
  8 12  1  0  0  0
  8 18  1  0  0  0
  9 10  1  0  0  0
 10 11  1  0  0  0
 10 27  1  0  0  0
 11 12  1  0  0  0
 11 16  1  0  0  0
 12 13  1  0  0  0
 13 14  2  0  0  0
 13 15  1  0  0  0
 15 16  1  0  0  0
 15 23  1  0  0  0
 16 17  2  0  0  0
 23 24  1  0  0  0
 24 25  1  0  0  0
 25 26  1  0  0  0
 27 28  1  0  0  0
 28 29  2  0  0  0
 28 33  1  0  0  0
 29 30  1  0  0  0
 30 31  2  0  0  0
 31 32  1  0  0  0
 32 33  2  0  0  0
 18 19  2  0  0  0
 18 20  1  0  0  0
  9 21  1  0  0  0
 20 22  1  0  0  0
M  END
> <minimizedAffinity>
-7.45176

$$$$
2139


 27 30  0  0  0  0  0  0  0  0999 V2000
   53.2061   98.4732   27.8752 N   0  0  0  0  0  0  0  0  0  0  0  0
   52.7085   98.9901   26.6632 C   0  0  0  0  0  0  0  0  0  0  0  0
   51.2635   99.4095   26.6563 C   0  0  0  0  0  0  0  0  0  0  0  0
   50.9066   99.6687   28.0758 N   0  0  0  0  0  0  0  0  0  0  0  0
   51.9323  100.3008   28.8154 C   0  0  0  0  0  0  0  0  0  0  0  0
   53.0215   99.2767   29.0506 C   0  0  0  0  0  0  0  0  0  0  0  0
   49.6093   99.2875   28.4792 C   0  0  0  0  0  0  0  0  0  0  0  0
   49.2614   97.9659   28.4416 N   0  0  0  0  0  0  0  0  0  0  0  0
   48.0675   97.4813   28.7587 C   0  0  0  0  0  0  0  0  0  0  0  0
   47.1116   98.3403   29.1509 N   0  0  0  0  0  0  0  0  0  0  0  0
   47.3973   99.6607   29.2087 C   0  0  0  0  0  0  0  0  0  0  0  0
   46.6626  100.7294   29.5685 N   0  0  0  0  0  0  0  0  0  0  0  0
   47.4088  101.8295   29.4672 C   0  0  0  0  0  0  0  0  0  0  0  0
   48.6434  101.5083   29.0417 N   0  0  0  0  0  0  0  0  0  0  0  0
   48.6515  100.1760   28.8762 C   0  0  0  0  0  0  0  0  0  0  0  0
   47.7677   96.0711   28.6967 N   0  0  0  0  0  0  0  0  0  0  0  0
   49.4096  102.1998   28.8955 H   0  0  0  0  0  0  0  0  0  0  0  0
   47.0388   95.6941   28.0754 H   0  0  0  0  0  0  0  0  0  0  0  0
   48.2983   95.4054   29.2930 H   0  0  0  0  0  0  0  0  0  0  0  0
   53.1697   97.0744   28.0642 C   0  0  0  0  0  0  0  0  0  0  0  0
   55.6150   93.7067   23.7526 Cl  0  0  0  0  0  0  0  0  0  0  0  0
   54.8905   94.6869   25.0109 C   0  0  0  0  0  0  0  0  0  0  0  0
   53.5604   94.5148   25.3309 C   0  0  0  0  0  0  0  0  0  0  0  0
   53.0422   95.3210   26.3383 C   0  0  0  0  0  0  0  0  0  0  0  0
   53.7792   96.2605   27.0142 C   0  0  0  0  0  0  0  0  0  0  0  0
   55.1011   96.4145   26.6809 C   0  0  0  0  0  0  0  0  0  0  0  0
   55.6326   95.6274   25.6882 C   0  0  0  0  0  0  0  0  0  0  0  0
 21 22  1  0  0  0
 22 23  2  0  0  0
 22 27  1  0  0  0
 23 24  1  0  0  0
 24 25  2  0  0  0
 25 26  1  0  0  0
 25 20  1  0  0  0
 26 27  2  0  0  0
 20  1  1  0  0  0
  1  2  1  0  0  0
  1  6  1  0  0  0
  2  3  1  0  0  0
  3  4  1  0  0  0
  4  5  1  0  0  0
  4  7  1  0  0  0
  5  6  1  0  0  0
  7  8  2  0  0  0
  7 15  1  0  0  0
  8  9  1  0  0  0
  9 10  2  0  0  0
  9 16  1  0  0  0
 10 11  1  0  0  0
 11 12  1  0  0  0
 11 15  2  0  0  0
 12 13  2  0  0  0
 13 14  1  0  0  0
 14 15  1  0  0  0
 14 17  1  0  0  0
 16 18  1  0  0  0
 16 19  1  0  0  0
M  END
> <minimizedAffinity>
-8.84364

$$$$
2149


 24 27  0  0  0  0  0  0  0  0999 V2000
   55.8344   87.7877   21.6464 N   0  0  0  0  0  0  0  0  0  0  0  0
   55.5644   86.5961   21.1476 N   0  0  0  0  0  0  0  0  0  0  0  0
   55.0081   85.8140   22.0542 N   0  0  0  0  0  0  0  0  0  0  0  0
   54.9005   86.4962   23.1940 C   0  0  0  0  0  0  0  0  0  0  0  0
   55.4225   87.7456   22.9385 C   0  0  0  0  0  0  0  0  0  0  0  0
   55.4313   88.6370   23.9401 N   0  0  0  0  0  0  0  0  0  0  0  0
   54.9456   88.3195   25.1526 C   0  0  0  0  0  0  0  0  0  0  0  0
   54.4413   87.0935   25.3783 N   0  0  0  0  0  0  0  0  0  0  0  0
   54.3876   86.1217   24.4300 C   0  0  0  0  0  0  0  0  0  0  0  0
   53.8608   84.8385   24.6610 N   0  0  0  0  0  0  0  0  0  0  0  0
   54.3613   83.8554   25.5844 C   0  0  0  0  0  0  0  0  0  0  0  0
   53.2861   83.5368   26.5556 C   0  0  0  0  0  0  0  0  0  0  0  0
   51.9691   83.8864   26.2258 N   0  0  0  0  0  0  0  0  0  0  0  0
   51.6100   84.1344   24.8949 C   0  0  0  0  0  0  0  0  0  0  0  0
   52.6990   84.4041   23.9256 C   0  0  0  0  0  0  0  0  0  0  0  0
   51.5468   85.0009   27.0552 C   0  0  0  0  0  0  0  0  0  0  0  0
   56.4468   88.9385   20.9852 C   0  0  0  0  0  0  0  0  0  0  0  0
   51.9451   92.3319   18.8892 Cl  0  0  0  0  0  0  0  0  0  0  0  0
   53.2677   91.3540   19.5167 C   0  0  0  0  0  0  0  0  0  0  0  0
   53.5112   90.1107   18.9898 C   0  0  0  0  0  0  0  0  0  0  0  0
   54.5561   89.3545   19.4954 C   0  0  0  0  0  0  0  0  0  0  0  0
   55.3504   89.8194   20.5072 C   0  0  0  0  0  0  0  0  0  0  0  0
   55.1094   91.0647   21.0369 C   0  0  0  0  0  0  0  0  0  0  0  0
   54.0747   91.8142   20.5372 C   0  0  0  0  0  0  0  0  0  0  0  0
 18 19  1  0  0  0
 19 20  2  0  0  0
 19 24  1  0  0  0
 20 21  1  0  0  0
 21 22  2  0  0  0
 22 23  1  0  0  0
 22 17  1  0  0  0
 23 24  2  0  0  0
 17  1  1  0  0  0
  1  2  1  0  0  0
  1  5  1  0  0  0
  2  3  2  0  0  0
  3  4  1  0  0  0
  4  5  2  0  0  0
  4  9  1  0  0  0
  5  6  1  0  0  0
  6  7  2  0  0  0
  7  8  1  0  0  0
  8  9  2  0  0  0
  9 10  1  0  0  0
 10 11  1  0  0  0
 10 15  1  0  0  0
 11 12  1  0  0  0
 12 13  1  0  0  0
 13 14  1  0  0  0
 13 16  1  0  0  0
 14 15  1  0  0  0
M  END
> <minimizedAffinity>
-8.13177

$$$$
2163


 31 34  0  0  0  0  0  0  0  0999 V2000
   52.7359   86.4181   19.1916 C   0  0  0  0  0  0  0  0  0  0  0  0
   53.4994   86.4723   20.3043 N   0  0  0  0  0  0  0  0  0  0  0  0
   54.1883   87.5721   20.6301 C   0  0  0  0  0  0  0  0  0  0  0  0
   54.1085   88.6396   19.8206 N   0  0  0  0  0  0  0  0  0  0  0  0
   53.3595   88.6554   18.6857 C   0  0  0  0  0  0  0  0  0  0  0  0
   52.6867   87.5025   18.4175 N   0  0  0  0  0  0  0  0  0  0  0  0
   54.9924   87.6288   21.8001 N   0  0  0  0  0  0  0  0  0  0  0  0
   54.9119   86.6321   22.8449 C   0  0  0  0  0  0  0  0  0  0  0  0
   54.9536   87.2741   24.2233 C   0  0  0  0  0  0  0  0  0  0  0  0
   55.9579   88.2470   24.2809 O   0  0  0  0  0  0  0  0  0  0  0  0
   55.7367   89.2608   23.3798 C   0  0  0  0  0  0  0  0  0  0  0  0
   55.9360   88.7087   21.9849 C   0  0  0  0  0  0  0  0  0  0  0  0
   53.2802   89.7776   17.8414 N   0  0  0  0  0  0  0  0  0  0  0  0
   54.0739   89.8743   16.6528 C   0  0  0  0  0  0  0  0  0  0  0  0
   54.8160   91.2075   16.7193 C   0  0  0  0  0  0  0  0  0  0  0  0
   53.8593   92.1964   16.8691 O   0  0  0  0  0  0  0  0  0  0  0  0
   53.2152   92.1426   18.0827 C   0  0  0  0  0  0  0  0  0  0  0  0
   52.3930   90.8562   18.1646 C   0  0  0  0  0  0  0  0  0  0  0  0
   51.9908   85.2661   18.8158 N   0  0  0  0  0  0  0  0  0  0  0  0
   50.9395   85.2436   18.9128 H   0  0  0  0  0  0  0  0  0  0  0  0
   53.6501   84.1164   17.5888 C   0  0  0  0  0  0  0  0  0  0  0  0
   52.5897   84.1136   18.3048 N   0  0  0  0  0  0  0  0  0  0  0  0
   54.7114   81.0043   13.3869 Br  0  0  0  0  0  0  0  0  0  0  0  0
   54.7890   81.4383   15.2412 C   0  0  0  0  0  0  0  0  0  0  0  0
   54.2075   82.5886   15.7263 C   0  0  0  0  0  0  0  0  0  0  0  0
   54.2623   82.9015   17.0629 C   0  0  0  0  0  0  0  0  0  0  0  0
   54.9165   82.0304   17.9067 C   0  0  0  0  0  0  0  0  0  0  0  0
   55.5113   80.8605   17.4277 C   0  0  0  0  0  0  0  0  0  0  0  0
   55.4521   80.5502   16.0787 C   0  0  0  0  0  0  0  0  0  0  0  0
   54.9578   82.3714   19.2536 O   0  0  0  0  0  0  0  0  0  0  0  0
   54.3452   81.6162   20.2726 C   0  0  0  0  0  0  0  0  0  0  0  0
 23 24  1  0  0  0
 24 25  2  0  0  0
 24 29  1  0  0  0
 25 26  1  0  0  0
 26 27  2  0  0  0
 26 21  1  0  0  0
 27 28  1  0  0  0
 27 30  1  0  0  0
 28 29  2  0  0  0
 30 31  1  0  0  0
 21 22  2  0  0  0
 22 19  1  0  0  0
 19  1  1  0  0  0
  1  2  2  0  0  0
  1  6  1  0  0  0
  2  3  1  0  0  0
  3  4  2  0  0  0
  3  7  1  0  0  0
  4  5  1  0  0  0
  5  6  2  0  0  0
  5 13  1  0  0  0
 13 14  1  0  0  0
 13 18  1  0  0  0
 14 15  1  0  0  0
 15 16  1  0  0  0
 16 17  1  0  0  0
 17 18  1  0  0  0
  7  8  1  0  0  0
  7 12  1  0  0  0
  8  9  1  0  0  0
  9 10  1  0  0  0
 10 11  1  0  0  0
 11 12  1  0  0  0
 19 20  1  0  0  0
M  END
> <minimizedAffinity>
-8.68459

$$$$
2164


 25 28  0  0  0  0  0  0  0  0999 V2000
   56.5350   88.5659   23.4354 C   0  0  0  0  0  0  0  0  0  0  0  0
   56.9009   87.2679   24.1070 C   0  0  0  0  0  0  0  0  0  0  0  0
   55.5530   87.1524   24.6831 N   0  0  0  0  0  0  0  0  0  0  0  0
   55.4041   88.5722   24.4219 C   0  0  0  0  0  0  0  0  0  0  0  0
   54.8077   86.0734   25.2328 C   0  0  0  0  0  0  0  0  0  0  0  0
   54.6665   85.9018   26.5729 N   0  0  0  0  0  0  0  0  0  0  0  0
   53.9449   84.8573   27.0754 C   0  0  0  0  0  0  0  0  0  0  0  0
   53.3548   83.9710   26.2675 N   0  0  0  0  0  0  0  0  0  0  0  0
   53.4525   84.0789   24.9413 C   0  0  0  0  0  0  0  0  0  0  0  0
   52.9617   83.3312   23.9328 N   0  0  0  0  0  0  0  0  0  0  0  0
   53.3692   83.8983   22.8182 N   0  0  0  0  0  0  0  0  0  0  0  0
   54.1043   84.9835   23.0861 N   0  0  0  0  0  0  0  0  0  0  0  0
   54.1825   85.1352   24.4355 C   0  0  0  0  0  0  0  0  0  0  0  0
   52.1387   82.1277   24.0213 C   0  0  0  0  0  0  0  0  0  0  0  0
   54.9276   89.0288   21.5673 N   0  0  0  0  0  0  0  0  0  0  0  0
   56.1111   88.4111   22.0002 C   0  0  0  0  0  0  0  0  0  0  0  0
   56.8695   87.7258   21.2989 O   0  0  0  0  0  0  0  0  0  0  0  0
   54.3501   89.6039   22.2842 H   0  0  0  0  0  0  0  0  0  0  0  0
   54.8214   91.3536   16.8215 Br  0  0  0  0  0  0  0  0  0  0  0  0
   54.3081   89.9824   18.0409 C   0  0  0  0  0  0  0  0  0  0  0  0
   54.7681   89.9641   19.3369 C   0  0  0  0  0  0  0  0  0  0  0  0
   54.4092   88.9696   20.2591 C   0  0  0  0  0  0  0  0  0  0  0  0
   53.5639   87.9989   19.8000 C   0  0  0  0  0  0  0  0  0  0  0  0
   53.1015   88.0264   18.4821 C   0  0  0  0  0  0  0  0  0  0  0  0
   53.4651   89.0018   17.6096 C   0  0  0  0  0  0  0  0  0  0  0  0
 19 20  1  0  0  0
 20 21  2  0  0  0
 20 25  1  0  0  0
 21 22  1  0  0  0
 22 23  2  0  0  0
 22 15  1  0  0  0
 23 24  1  0  0  0
 24 25  2  0  0  0
 15 16  1  0  0  0
 16 17  2  0  0  0
 16  1  1  0  0  0
  1  2  1  0  0  0
  1  4  1  0  0  0
  2  3  1  0  0  0
  3  4  1  0  0  0
  3  5  1  0  0  0
  5  6  2  0  0  0
  5 13  1  0  0  0
  6  7  1  0  0  0
  7  8  2  0  0  0
  8  9  1  0  0  0
  9 10  1  0  0  0
  9 13  2  0  0  0
 10 11  1  0  0  0
 10 14  1  0  0  0
 11 12  2  0  0  0
 12 13  1  0  0  0
 15 18  1  0  0  0
M  END
> <minimizedAffinity>
-8.29823

$$$$
2170


 32 36  0  0  0  0  0  0  0  0999 V2000
   53.3454   83.8188   20.9689 N   0  0  0  0  0  0  0  0  0  0  0  0
   53.7701   82.8819   20.1481 N   0  0  0  0  0  0  0  0  0  0  0  0
   53.9817   81.7209   20.7843 C   0  0  0  0  0  0  0  0  0  0  0  0
   54.4153   80.7800   19.9307 N   0  0  0  0  0  0  0  0  0  0  0  0
   54.4997   81.3164   18.6939 C   0  0  0  0  0  0  0  0  0  0  0  0
   54.0886   82.6451   18.8472 C   0  0  0  0  0  0  0  0  0  0  0  0
   54.1034   83.3987   17.6927 C   0  0  0  0  0  0  0  0  0  0  0  0
   53.7420   84.6104   17.7828 O   0  0  0  0  0  0  0  0  0  0  0  0
   54.4814   82.9136   16.4800 N   0  0  0  0  0  0  0  0  0  0  0  0
   54.8601   81.6281   16.4171 C   0  0  0  0  0  0  0  0  0  0  0  0
   55.2109   81.1926   15.2711 O   0  0  0  0  0  0  0  0  0  0  0  0
   54.8740   80.8346   17.4972 N   0  0  0  0  0  0  0  0  0  0  0  0
   55.2927   79.4654   17.3620 C   0  0  0  0  0  0  0  0  0  0  0  0
   54.4662   83.7704   15.3163 C   0  0  0  0  0  0  0  0  0  0  0  0
   53.6671   81.9658   22.0815 N   0  0  0  0  0  0  0  0  0  0  0  0
   53.2786   83.2418   22.2079 C   0  0  0  0  0  0  0  0  0  0  0  0
   52.8623   83.9259   23.3861 N   0  0  0  0  0  0  0  0  0  0  0  0
   53.7818   84.7372   24.1656 C   0  0  0  0  0  0  0  0  0  0  0  0
   53.4650   84.5161   25.6242 C   0  0  0  0  0  0  0  0  0  0  0  0
   52.1128   84.8030   25.8709 O   0  0  0  0  0  0  0  0  0  0  0  0
   51.2786   83.8749   25.2878 C   0  0  0  0  0  0  0  0  0  0  0  0
   51.4933   83.8187   23.8164 C   0  0  0  0  0  0  0  0  0  0  0  0
   53.0024   85.1986   20.7136 C   0  0  0  0  0  0  0  0  0  0  0  0
   54.1532   86.1164   20.7799 C   0  0  0  0  0  0  0  0  0  0  0  0
   55.2778   85.7610   21.1976 O   0  0  0  0  0  0  0  0  0  0  0  0
   53.4017   91.8300   18.9923 Cl  0  0  0  0  0  0  0  0  0  0  0  0
   53.6102   90.1641   19.5051 C   0  0  0  0  0  0  0  0  0  0  0  0
   52.7236   89.1690   19.1160 C   0  0  0  0  0  0  0  0  0  0  0  0
   52.9053   87.8647   19.5303 C   0  0  0  0  0  0  0  0  0  0  0  0
   53.9579   87.4915   20.3387 C   0  0  0  0  0  0  0  0  0  0  0  0
   54.8438   88.5054   20.7226 C   0  0  0  0  0  0  0  0  0  0  0  0
   54.6707   89.8106   20.3132 C   0  0  0  0  0  0  0  0  0  0  0  0
 26 27  1  0  0  0
 27 28  2  0  0  0
 27 32  1  0  0  0
 28 29  1  0  0  0
 29 30  2  0  0  0
 30 31  1  0  0  0
 30 24  1  0  0  0
 31 32  2  0  0  0
 24 25  2  0  0  0
 24 23  1  0  0  0
 23  1  1  0  0  0
  1  2  1  0  0  0
  1 16  1  0  0  0
  2  3  1  0  0  0
  2  6  1  0  0  0
  3  4  2  0  0  0
  3 15  1  0  0  0
  4  5  1  0  0  0
  5  6  2  0  0  0
  5 12  1  0  0  0
  6  7  1  0  0  0
  7  8  2  0  0  0
  7  9  1  0  0  0
  9 10  1  0  0  0
  9 14  1  0  0  0
 10 11  2  0  0  0
 10 12  1  0  0  0
 12 13  1  0  0  0
 15 16  2  0  0  0
 16 17  1  0  0  0
 17 18  1  0  0  0
 17 22  1  0  0  0
 18 19  1  0  0  0
 19 20  1  0  0  0
 20 21  1  0  0  0
 21 22  1  0  0  0
M  END
> <minimizedAffinity>
-8.43674

$$$$
2177


 31 35  0  0  0  0  0  0  0  0999 V2000
   55.1945   91.7841   21.8869 N   0  0  0  0  0  0  0  0  0  0  0  0
   54.1934   92.1567   20.9159 C   0  0  0  0  0  0  0  0  0  0  0  0
   54.2586   91.1768   19.7733 C   0  0  0  0  0  0  0  0  0  0  0  0
   54.3628   89.7974   20.2064 N   0  0  0  0  0  0  0  0  0  0  0  0
   55.3498   89.4539   21.2105 C   0  0  0  0  0  0  0  0  0  0  0  0
   55.2148   90.4184   22.3598 C   0  0  0  0  0  0  0  0  0  0  0  0
   53.6364   97.6320   28.3860 Cl  0  0  0  0  0  0  0  0  0  0  0  0
   53.8860   96.4432   27.1034 C   0  0  0  0  0  0  0  0  0  0  0  0
   55.0750   96.4329   26.4086 C   0  0  0  0  0  0  0  0  0  0  0  0
   55.3006   95.5217   25.4055 C   0  0  0  0  0  0  0  0  0  0  0  0
   54.3457   94.5866   25.0611 C   0  0  0  0  0  0  0  0  0  0  0  0
   53.1614   94.6121   25.7669 C   0  0  0  0  0  0  0  0  0  0  0  0
   52.9208   95.5187   26.7738 C   0  0  0  0  0  0  0  0  0  0  0  0
   54.6369   93.6712   24.0164 N   0  0  0  0  0  0  0  0  0  0  0  0
   55.8608   93.6484   23.2889 C   0  0  0  0  0  0  0  0  0  0  0  0
   56.0996   92.7871   22.3275 C   0  0  0  0  0  0  0  0  0  0  0  0
   56.8492   94.6058   23.6373 N   0  0  0  0  0  0  0  0  0  0  0  0
   56.5814   95.5234   24.6706 C   0  0  0  0  0  0  0  0  0  0  0  0
   57.4201   96.4102   25.0363 O   0  0  0  0  0  0  0  0  0  0  0  0
   53.9218   92.9619   23.7493 H   0  0  0  0  0  0  0  0  0  0  0  0
   57.7729   94.6525   23.1503 H   0  0  0  0  0  0  0  0  0  0  0  0
   53.5014   88.8062   19.6429 C   0  0  0  0  0  0  0  0  0  0  0  0
   52.6000   89.1809   18.7139 N   0  0  0  0  0  0  0  0  0  0  0  0
   51.7592   88.2684   18.1507 C   0  0  0  0  0  0  0  0  0  0  0  0
   51.8105   86.9676   18.5126 N   0  0  0  0  0  0  0  0  0  0  0  0
   52.6833   86.5352   19.4286 C   0  0  0  0  0  0  0  0  0  0  0  0
   52.9428   85.3275   19.9618 N   0  0  0  0  0  0  0  0  0  0  0  0
   53.9216   85.4839   20.8353 N   0  0  0  0  0  0  0  0  0  0  0  0
   54.3063   86.7907   20.8778 C   0  0  0  0  0  0  0  0  0  0  0  0
   53.5374   87.4828   19.9954 C   0  0  0  0  0  0  0  0  0  0  0  0
   52.2816   84.0560   19.6529 C   0  0  0  0  0  0  0  0  0  0  0  0
  7  8  1  0  0  0
  8  9  2  0  0  0
  8 13  1  0  0  0
  9 10  1  0  0  0
 10 11  2  0  0  0
 10 18  1  0  0  0
 11 12  1  0  0  0
 11 14  1  0  0  0
 12 13  2  0  0  0
 14 15  1  0  0  0
 15 16  2  0  0  0
 15 17  1  0  0  0
 16  1  1  0  0  0
  1  2  1  0  0  0
  1  6  1  0  0  0
  2  3  1  0  0  0
  3  4  1  0  0  0
  4  5  1  0  0  0
  4 22  1  0  0  0
  5  6  1  0  0  0
 22 23  2  0  0  0
 22 30  1  0  0  0
 23 24  1  0  0  0
 24 25  2  0  0  0
 25 26  1  0  0  0
 26 27  1  0  0  0
 26 30  2  0  0  0
 27 28  1  0  0  0
 27 31  1  0  0  0
 28 29  2  0  0  0
 29 30  1  0  0  0
 17 18  1  0  0  0
 18 19  2  0  0  0
 14 20  1  0  0  0
 17 21  1  0  0  0
M  END
> <minimizedAffinity>
-9.72804

$$$$
2184


 29 32  0  0  0  0  0  0  0  0999 V2000
   55.6170   86.9222   25.0439 N   0  0  0  0  0  0  0  0  0  0  0  0
   54.9940   88.0162   24.4740 C   0  0  0  0  0  0  0  0  0  0  0  0
   56.0394   88.9211   23.7349 C   0  0  0  0  0  0  0  0  0  0  0  0
   56.3277   87.9826   22.5473 N   0  0  0  0  0  0  0  0  0  0  0  0
   57.0085   86.8490   22.9440 C   0  0  0  0  0  0  0  0  0  0  0  0
   57.0002   86.8529   24.4890 C   0  0  0  0  0  0  0  0  0  0  0  0
   55.8198   87.1680   26.0665 H   0  0  0  0  0  0  0  0  0  0  0  0
   55.7717   88.4558   21.3391 C   0  0  0  0  0  0  0  0  0  0  0  0
   54.5695   88.1227   20.8203 C   0  0  0  0  0  0  0  0  0  0  0  0
   53.9969   88.8402   19.7313 C   0  0  0  0  0  0  0  0  0  0  0  0
   54.6395   89.9044   19.1572 C   0  0  0  0  0  0  0  0  0  0  0  0
   55.8822   90.2504   19.6786 C   0  0  0  0  0  0  0  0  0  0  0  0
   56.4333   89.5428   20.7365 C   0  0  0  0  0  0  0  0  0  0  0  0
   54.0413   90.5715   18.0955 O   0  0  0  0  0  0  0  0  0  0  0  0
   54.8341   91.1617   17.0539 C   0  0  0  0  0  0  0  0  0  0  0  0
   55.1176   85.6173   25.0596 C   0  0  0  0  0  0  0  0  0  0  0  0
   54.1459   84.1724   20.1986 Cl  0  0  0  0  0  0  0  0  0  0  0  0
   53.2778   84.2347   21.7365 C   0  0  0  0  0  0  0  0  0  0  0  0
   53.8218   84.7161   22.8971 C   0  0  0  0  0  0  0  0  0  0  0  0
   53.0933   84.7855   24.0328 C   0  0  0  0  0  0  0  0  0  0  0  0
   51.7881   84.3788   24.0612 C   0  0  0  0  0  0  0  0  0  0  0  0
   51.2231   83.8777   22.8639 C   0  0  0  0  0  0  0  0  0  0  0  0
   51.9494   83.7969   21.7092 C   0  0  0  0  0  0  0  0  0  0  0  0
   51.3625   83.2694   20.5371 O   0  0  0  0  0  0  0  0  0  0  0  0
   51.0475   84.4547   25.1301 O   0  0  0  0  0  0  0  0  0  0  0  0
   51.5524   84.9450   26.2565 C   0  0  0  0  0  0  0  0  0  0  0  0
   50.8304   85.0082   27.2594 O   0  0  0  0  0  0  0  0  0  0  0  0
   52.8893   85.3883   26.3114 C   0  0  0  0  0  0  0  0  0  0  0  0
   53.6849   85.3201   25.2210 C   0  0  0  0  0  0  0  0  0  0  0  0
 17 18  1  0  0  0
 18 19  2  0  0  0
 18 23  1  0  0  0
 19 20  1  0  0  0
 20 21  2  0  0  0
 20 29  1  0  0  0
 21 22  1  0  0  0
 21 25  1  0  0  0
 22 23  2  0  0  0
 23 24  1  0  0  0
 25 26  1  0  0  0
 26 27  2  0  0  0
 26 28  1  0  0  0
 28 29  2  0  0  0
 29 16  1  0  0  0
 16  1  1  0  0  0
  1  2  1  0  0  0
  1  6  1  0  0  0
  2  3  1  0  0  0
  3  4  1  0  0  0
  4  5  1  0  0  0
  4  8  1  0  0  0
  5  6  1  0  0  0
  8  9  2  0  0  0
  8 13  1  0  0  0
  9 10  1  0  0  0
 10 11  2  0  0  0
 11 12  1  0  0  0
 11 14  1  0  0  0
 12 13  2  0  0  0
 14 15  1  0  0  0
  1  7  1  0  0  0
M  CHG 1   1   1
M  CHG 1  24  -1
M  END
> <minimizedAffinity>
-8.67274

$$$$
2195


 29 32  0  0  0  0  0  0  0  0999 V2000
   55.7750   88.4708   21.1672 C   0  0  0  0  0  0  0  0  0  0  0  0
   54.8686   87.4989   21.0861 N   0  0  0  0  0  0  0  0  0  0  0  0
   54.7749   86.5357   22.0192 C   0  0  0  0  0  0  0  0  0  0  0  0
   53.9634   85.4541   22.1777 N   0  0  0  0  0  0  0  0  0  0  0  0
   54.3408   84.8666   23.2934 N   0  0  0  0  0  0  0  0  0  0  0  0
   55.3456   85.5071   23.8605 N   0  0  0  0  0  0  0  0  0  0  0  0
   55.6516   86.5608   23.0954 C   0  0  0  0  0  0  0  0  0  0  0  0
   56.5990   87.5656   23.1926 C   0  0  0  0  0  0  0  0  0  0  0  0
   56.6101   88.4769   22.2107 N   0  0  0  0  0  0  0  0  0  0  0  0
   57.4842   87.6079   24.2606 O   0  0  0  0  0  0  0  0  0  0  0  0
   57.1364   87.7040   25.2026 H   0  0  0  0  0  0  0  0  0  0  0  0
   53.9082   90.8625   19.4462 N   0  0  0  0  0  0  0  0  0  0  0  0
   54.7335   89.7502   19.2980 C   0  0  0  0  0  0  0  0  0  0  0  0
   55.9030   89.5570   20.1575 C   0  0  0  0  0  0  0  0  0  0  0  0
   56.2723   90.8319   20.8708 C   0  0  0  0  0  0  0  0  0  0  0  0
   55.0645   91.3561   21.5612 C   0  0  0  0  0  0  0  0  0  0  0  0
   54.0089   91.6981   20.5498 C   0  0  0  0  0  0  0  0  0  0  0  0
   52.3958   90.7268   18.6939 S   0  0  0  0  0  0  0  0  0  0  0  0
   51.4309   89.8890   19.4573 O   0  0  0  0  0  0  0  0  0  0  0  0
   52.6110   90.1593   17.3056 O   0  0  0  0  0  0  0  0  0  0  0  0
   51.6588   92.3472   18.4328 C   0  0  0  0  0  0  0  0  0  0  0  0
   52.9122   85.0468   21.2986 C   0  0  0  0  0  0  0  0  0  0  0  0
   53.3957   84.4548   20.0279 C   0  0  0  0  0  0  0  0  0  0  0  0
   53.1090   85.1030   18.8530 C   0  0  0  0  0  0  0  0  0  0  0  0
   53.5247   84.6160   17.6158 C   0  0  0  0  0  0  0  0  0  0  0  0
   54.2492   83.4456   17.5457 C   0  0  0  0  0  0  0  0  0  0  0  0
   54.5413   82.7896   18.7208 C   0  0  0  0  0  0  0  0  0  0  0  0
   54.1202   83.2862   19.9526 C   0  0  0  0  0  0  0  0  0  0  0  0
   52.1919   86.5948   18.8710 Cl  0  0  0  0  0  0  0  0  0  0  0  0
 18 19  2  0  0  0
 18 20  2  0  0  0
 18 12  1  0  0  0
 18 21  1  0  0  0
 12 13  1  0  0  0
 12 17  1  0  0  0
 13 14  1  0  0  0
 14 15  1  0  0  0
 14  1  1  0  0  0
 15 16  1  0  0  0
 16 17  1  0  0  0
  1  2  2  0  0  0
  1  9  1  0  0  0
  2  3  1  0  0  0
  3  4  1  0  0  0
  3  7  2  0  0  0
  4  5  1  0  0  0
  4 22  1  0  0  0
  5  6  2  0  0  0
  6  7  1  0  0  0
  7  8  1  0  0  0
  8  9  2  0  0  0
  8 10  1  0  0  0
 22 23  1  0  0  0
 23 24  2  0  0  0
 23 28  1  0  0  0
 24 25  1  0  0  0
 24 29  1  0  0  0
 25 26  2  0  0  0
 26 27  1  0  0  0
 27 28  2  0  0  0
 10 11  1  0  0  0
M  END
> <minimizedAffinity>
-9.17029

$$$$
2197


 28 31  0  0  0  0  0  0  0  0999 V2000
   52.7267   83.2095   26.8250 N   0  0  0  0  0  0  0  0  0  0  0  0
   53.9891   83.9746   26.7627 C   0  0  0  0  0  0  0  0  0  0  0  0
   54.3462   84.1168   25.3297 C   0  0  0  0  0  0  0  0  0  0  0  0
   54.3014   83.0302   24.5376 O   0  0  0  0  0  0  0  0  0  0  0  0
   53.6342   81.9343   24.9281 C   0  0  0  0  0  0  0  0  0  0  0  0
   53.0548   81.9353   26.3004 C   0  0  0  0  0  0  0  0  0  0  0  0
   55.7187   84.7007   25.2777 C   0  0  0  0  0  0  0  0  0  0  0  0
   56.6762   83.9461   25.5963 O   0  0  0  0  0  0  0  0  0  0  0  0
   56.0162   86.0234   24.9009 N   0  0  0  0  0  0  0  0  0  0  0  0
   55.0215   87.0046   24.5101 C   0  0  0  0  0  0  0  0  0  0  0  0
   55.7458   88.3200   24.3038 C   0  0  0  0  0  0  0  0  0  0  0  0
   56.7465   88.2494   23.2555 N   0  0  0  0  0  0  0  0  0  0  0  0
   57.5731   87.1035   23.4633 C   0  0  0  0  0  0  0  0  0  0  0  0
   57.3988   86.5241   24.8730 C   0  0  0  0  0  0  0  0  0  0  0  0
   56.0796   88.3004   21.9947 C   0  0  0  0  0  0  0  0  0  0  0  0
   55.9945   89.6819   21.4058 C   0  0  0  0  0  0  0  0  0  0  0  0
   55.1299   89.7460   20.1476 C   0  0  0  0  0  0  0  0  0  0  0  0
   56.5992   90.0306   20.1188 C   0  0  0  0  0  0  0  0  0  0  0  0
   51.4453   84.0739   26.1579 S   0  0  0  0  0  0  0  0  0  0  0  0
   50.3034   84.0626   27.1831 O   0  0  0  0  0  0  0  0  0  0  0  0
   51.7445   85.5402   25.9615 O   0  0  0  0  0  0  0  0  0  0  0  0
   50.7873   83.3581   24.7213 C   0  0  0  0  0  0  0  0  0  0  0  0
   50.0354   82.2045   24.7621 C   0  0  0  0  0  0  0  0  0  0  0  0
   49.5565   81.5956   23.6178 C   0  0  0  0  0  0  0  0  0  0  0  0
   49.8289   82.1494   22.3921 C   0  0  0  0  0  0  0  0  0  0  0  0
   50.5826   83.3124   22.3315 C   0  0  0  0  0  0  0  0  0  0  0  0
   51.0550   83.9089   23.4666 C   0  0  0  0  0  0  0  0  0  0  0  0
   49.5688   81.4838   26.3144 Cl  0  0  0  0  0  0  0  0  0  0  0  0
 19 20  2  0  0  0
 19 21  2  0  0  0
 19  1  1  0  0  0
 19 22  1  0  0  0
  1  2  1  0  0  0
  1  6  1  0  0  0
  2  3  1  0  0  0
  3  4  1  0  0  0
  3  7  1  0  0  0
  4  5  1  0  0  0
  5  6  1  0  0  0
  7  8  2  0  0  0
  7  9  1  0  0  0
  9 10  1  0  0  0
  9 14  1  0  0  0
 10 11  1  0  0  0
 11 12  1  0  0  0
 12 13  1  0  0  0
 12 15  1  0  0  0
 13 14  1  0  0  0
 15 16  1  0  0  0
 16 17  1  0  0  0
 16 18  1  0  0  0
 17 18  1  0  0  0
 22 23  2  0  0  0
 22 27  1  0  0  0
 23 24  1  0  0  0
 23 28  1  0  0  0
 24 25  2  0  0  0
 25 26  1  0  0  0
 26 27  2  0  0  0
M  END
> <minimizedAffinity>
-7.50922

$$$$
2210


 33 36  0  0  0  0  0  0  0  0999 V2000
   53.7512   84.2778   22.3738 C   0  0  0  0  0  0  0  0  0  0  0  0
   54.2348   85.5139   22.5524 C   0  0  0  0  0  0  0  0  0  0  0  0
   54.4062   86.4378   21.5279 O   0  0  0  0  0  0  0  0  0  0  0  0
   54.9004   87.6297   22.0756 C   0  0  0  0  0  0  0  0  0  0  0  0
   55.0748   87.5491   23.4231 C   0  0  0  0  0  0  0  0  0  0  0  0
   55.5296   88.6149   24.1637 C   0  0  0  0  0  0  0  0  0  0  0  0
   55.8247   89.8191   23.5333 C   0  0  0  0  0  0  0  0  0  0  0  0
   55.6458   89.8944   22.1509 C   0  0  0  0  0  0  0  0  0  0  0  0
   55.1995   88.8383   21.4240 C   0  0  0  0  0  0  0  0  0  0  0  0
   55.9644   91.1332   21.5954 O   0  0  0  0  0  0  0  0  0  0  0  0
   54.6509   86.1626   23.7780 C   0  0  0  0  0  0  0  0  0  0  0  0
   54.6577   85.6556   24.9074 O   0  0  0  0  0  0  0  0  0  0  0  0
   55.3451   83.3744   17.3973 Br  0  0  0  0  0  0  0  0  0  0  0  0
   53.9935   83.5804   18.7240 C   0  0  0  0  0  0  0  0  0  0  0  0
   54.3604   83.8037   20.0621 C   0  0  0  0  0  0  0  0  0  0  0  0
   53.3871   83.9457   20.9855 C   0  0  0  0  0  0  0  0  0  0  0  0
   52.0531   83.8818   20.6498 C   0  0  0  0  0  0  0  0  0  0  0  0
   51.7097   83.6617   19.3080 C   0  0  0  0  0  0  0  0  0  0  0  0
   52.6787   83.5066   18.3369 C   0  0  0  0  0  0  0  0  0  0  0  0
   51.0809   84.0394   21.6268 O   0  0  0  0  0  0  0  0  0  0  0  0
   50.2647   83.0474   22.1444 C   0  0  0  0  0  0  0  0  0  0  0  0
   55.1689   88.7848   19.9467 C   0  0  0  0  0  0  0  0  0  0  0  0
   54.2019   89.5979   19.3748 N   0  0  0  0  0  0  0  0  0  0  0  0
   54.5914   90.0611   18.0057 C   0  0  0  0  0  0  0  0  0  0  0  0
   53.3371   89.7743   17.1429 C   0  0  0  0  0  0  0  0  0  0  0  0
   52.2173   89.5448   17.9999 N   0  0  0  0  0  0  0  0  0  0  0  0
   52.0389   90.4843   19.0363 C   0  0  0  0  0  0  0  0  0  0  0  0
   53.3581   90.5520   19.9230 C   0  0  0  0  0  0  0  0  0  0  0  0
   53.4897   88.7653   19.0349 H   0  0  0  0  0  0  0  0  0  0  0  0
   51.4149   88.4474   17.7800 C   0  0  0  0  0  0  0  0  0  0  0  0
   51.6683   87.1640   18.5047 C   0  0  0  0  0  0  0  0  0  0  0  0
   51.0277   87.1562   19.7543 O   0  0  0  0  0  0  0  0  0  0  0  0
   50.6068   86.2459   19.8970 H   0  0  0  0  0  0  0  0  0  0  0  0
 13 14  1  0  0  0
 14 15  2  0  0  0
 14 19  1  0  0  0
 15 16  1  0  0  0
 16 17  2  0  0  0
 16  1  1  0  0  0
 17 18  1  0  0  0
 17 20  1  0  0  0
 18 19  2  0  0  0
 20 21  1  0  0  0
  1  2  2  0  0  0
  2  3  1  0  0  0
  2 11  1  0  0  0
  3  4  1  0  0  0
  4  5  2  0  0  0
  4  9  1  0  0  0
  5  6  1  0  0  0
  5 11  1  0  0  0
  6  7  2  0  0  0
  7  8  1  0  0  0
  8  9  2  0  0  0
  8 10  1  0  0  0
  9 22  1  0  0  0
 22 23  1  0  0  0
 23 24  1  0  0  0
 23 28  1  0  0  0
 24 25  1  0  0  0
 25 26  1  0  0  0
 26 27  1  0  0  0
 26 30  1  0  0  0
 27 28  1  0  0  0
 30 31  1  0  0  0
 31 32  1  0  0  0
 11 12  2  0  0  0
 23 29  1  0  0  0
 32 33  1  0  0  0
M  CHG 1  10  -1
M  CHG 1  23   1
M  END
> <minimizedAffinity>
-7.68526

$$$$
2213


 31 34  0  0  0  0  0  0  0  0999 V2000
   54.9355   86.0594   26.0666 Cl  0  0  0  0  0  0  0  0  0  0  0  0
   54.8139   85.9789   24.3228 C   0  0  0  0  0  0  0  0  0  0  0  0
   53.7879   85.2006   23.7666 C   0  0  0  0  0  0  0  0  0  0  0  0
   53.6670   85.1170   22.4042 C   0  0  0  0  0  0  0  0  0  0  0  0
   54.5940   85.8294   21.6353 C   0  0  0  0  0  0  0  0  0  0  0  0
   55.5975   86.5900   22.1927 C   0  0  0  0  0  0  0  0  0  0  0  0
   55.7235   86.6773   23.5670 C   0  0  0  0  0  0  0  0  0  0  0  0
   56.7514   87.4767   21.2041 Cl  0  0  0  0  0  0  0  0  0  0  0  0
   52.6231   84.3258   21.7354 C   0  0  0  0  0  0  0  0  0  0  0  0
   51.7535   83.6578   22.7185 C   0  0  0  0  0  0  0  0  0  0  0  0
   51.8910   83.7537   24.0675 C   0  0  0  0  0  0  0  0  0  0  0  0
   51.0561   83.1125   24.9365 N   0  0  0  0  0  0  0  0  0  0  0  0
   50.0798   82.3718   24.4180 C   0  0  0  0  0  0  0  0  0  0  0  0
   49.2772   81.7554   25.1879 O   0  0  0  0  0  0  0  0  0  0  0  0
   49.9067   82.2487   23.0865 N   0  0  0  0  0  0  0  0  0  0  0  0
   50.7182   82.8732   22.2259 C   0  0  0  0  0  0  0  0  0  0  0  0
   50.5575   82.7592   20.9839 O   0  0  0  0  0  0  0  0  0  0  0  0
   48.8174   81.4247   22.5815 C   0  0  0  0  0  0  0  0  0  0  0  0
   51.2311   83.2355   26.3676 C   0  0  0  0  0  0  0  0  0  0  0  0
   52.9016   84.5204   24.5806 O   0  0  0  0  0  0  0  0  0  0  0  0
   53.2166   83.3433   20.7686 C   0  0  0  0  0  0  0  0  0  0  0  0
   53.8735   82.2134   21.1913 C   0  0  0  0  0  0  0  0  0  0  0  0
   54.4234   81.3224   20.3514 N   0  0  0  0  0  0  0  0  0  0  0  0
   54.3244   81.5532   19.0281 C   0  0  0  0  0  0  0  0  0  0  0  0
   54.8476   80.7073   18.2450 O   0  0  0  0  0  0  0  0  0  0  0  0
   53.6907   82.6470   18.5700 N   0  0  0  0  0  0  0  0  0  0  0  0
   53.1340   83.5475   19.3921 C   0  0  0  0  0  0  0  0  0  0  0  0
   52.5364   84.5761   18.9945 O   0  0  0  0  0  0  0  0  0  0  0  0
   53.6126   82.8504   17.1417 C   0  0  0  0  0  0  0  0  0  0  0  0
   55.1074   80.1358   20.8290 C   0  0  0  0  0  0  0  0  0  0  0  0
   53.9746   81.9785   22.5473 O   0  0  0  0  0  0  0  0  0  0  0  0
  1  2  1  0  0  0
  2  3  2  0  0  0
  2  7  1  0  0  0
  3  4  1  0  0  0
  3 20  1  0  0  0
  4  5  2  0  0  0
  4  9  1  0  0  0
  5  6  1  0  0  0
  6  7  2  0  0  0
  6  8  1  0  0  0
  9 10  1  0  0  0
  9 21  1  0  0  0
 10 11  2  0  0  0
 10 16  1  0  0  0
 11 12  1  0  0  0
 11 20  1  0  0  0
 12 13  1  0  0  0
 12 19  1  0  0  0
 13 14  2  0  0  0
 13 15  1  0  0  0
 15 16  1  0  0  0
 15 18  1  0  0  0
 16 17  2  0  0  0
 21 22  2  0  0  0
 21 27  1  0  0  0
 22 23  1  0  0  0
 22 31  1  0  0  0
 23 24  1  0  0  0
 23 30  1  0  0  0
 24 25  2  0  0  0
 24 26  1  0  0  0
 26 27  1  0  0  0
 26 29  1  0  0  0
 27 28  2  0  0  0
M  CHG 1  31  -1
M  END
> <minimizedAffinity>
-8.00893

$$$$
2214


 34 38  0  0  0  0  0  0  0  0999 V2000
   52.7653   85.4517   26.2437 Cl  0  0  0  0  0  0  0  0  0  0  0  0
   52.1962   84.5099   24.8821 C   0  0  0  0  0  0  0  0  0  0  0  0
   52.6491   84.7194   23.6080 C   0  0  0  0  0  0  0  0  0  0  0  0
   52.1673   83.9443   22.5498 C   0  0  0  0  0  0  0  0  0  0  0  0
   51.2414   82.9840   22.8299 C   0  0  0  0  0  0  0  0  0  0  0  0
   50.7747   82.7668   24.1369 C   0  0  0  0  0  0  0  0  0  0  0  0
   51.2454   83.5248   25.1712 C   0  0  0  0  0  0  0  0  0  0  0  0
   50.8904   82.3219   21.6189 N   0  0  0  0  0  0  0  0  0  0  0  0
   51.6152   82.8810   20.5501 C   0  0  0  0  0  0  0  0  0  0  0  0
   51.5117   82.4972   19.3423 O   0  0  0  0  0  0  0  0  0  0  0  0
   52.4638   83.9393   21.1074 C   0  0  0  0  0  0  0  0  0  0  0  0
   52.1145   85.2502   20.6066 N   0  0  0  0  0  0  0  0  0  0  0  0
   53.1973   85.7879   19.8459 C   0  0  0  0  0  0  0  0  0  0  0  0
   54.1605   84.6790   19.6877 C   0  0  0  0  0  0  0  0  0  0  0  0
   53.9307   83.7206   20.8232 C   0  0  0  0  0  0  0  0  0  0  0  0
   54.2025   82.4080   20.1975 C   0  0  0  0  0  0  0  0  0  0  0  0
   54.4742   81.3168   20.7582 O   0  0  0  0  0  0  0  0  0  0  0  0
   54.1145   82.5246   18.7613 N   0  0  0  0  0  0  0  0  0  0  0  0
   53.7567   83.8731   18.4827 C   0  0  0  0  0  0  0  0  0  0  0  0
   53.2139   84.2686   17.4246 O   0  0  0  0  0  0  0  0  0  0  0  0
   50.1923   81.5253   21.5138 H   0  0  0  0  0  0  0  0  0  0  0  0
   51.8895   85.9307   21.3657 H   0  0  0  0  0  0  0  0  0  0  0  0
   54.3465   81.4594   17.8087 C   0  0  0  0  0  0  0  0  0  0  0  0
   55.3429   81.8250   16.7424 C   0  0  0  0  0  0  0  0  0  0  0  0
   56.3494   80.8640   16.6958 O   0  0  0  0  0  0  0  0  0  0  0  0
   55.9675   79.9185   15.7716 C   0  0  0  0  0  0  0  0  0  0  0  0
   55.0762   80.5921   14.7513 C   0  0  0  0  0  0  0  0  0  0  0  0
   54.7715   81.9407   15.3733 C   0  0  0  0  0  0  0  0  0  0  0  0
   53.7764   87.0367   20.4551 C   0  0  0  0  0  0  0  0  0  0  0  0
   53.2808   88.2789   19.8926 C   0  0  0  0  0  0  0  0  0  0  0  0
   54.0717   89.2099   19.6311 O   0  0  0  0  0  0  0  0  0  0  0  0
   51.9050   88.4618   19.6309 N   0  0  0  0  0  0  0  0  0  0  0  0
   51.6012   88.7745   18.6793 H   0  0  0  0  0  0  0  0  0  0  0  0
   51.1519   88.3069   20.3270 H   0  0  0  0  0  0  0  0  0  0  0  0
  1  2  1  0  0  0
  2  3  2  0  0  0
  2  7  1  0  0  0
  3  4  1  0  0  0
  4  5  2  0  0  0
  4 11  1  0  0  0
  5  6  1  0  0  0
  5  8  1  0  0  0
  6  7  2  0  0  0
  8  9  1  0  0  0
  9 10  2  0  0  0
  9 11  1  0  0  0
 11 12  1  0  0  0
 11 15  1  0  0  0
 12 13  1  0  0  0
 13 14  1  0  0  0
 13 29  1  0  0  0
 14 15  1  0  0  0
 14 19  1  0  0  0
 15 16  1  0  0  0
 16 17  2  0  0  0
 16 18  1  0  0  0
 18 19  1  0  0  0
 18 23  1  0  0  0
 19 20  2  0  0  0
 23 24  1  0  0  0
 24 25  1  0  0  0
 24 28  1  0  0  0
 25 26  1  0  0  0
 26 27  1  0  0  0
 27 28  1  0  0  0
 29 30  1  0  0  0
 30 31  2  0  0  0
 30 32  1  0  0  0
  8 21  1  0  0  0
 12 22  1  0  0  0
 32 33  1  0  0  0
 32 34  1  0  0  0
M  END
> <minimizedAffinity>
-7.52788

$$$$
2225


 29 32  0  0  0  0  0  0  0  0999 V2000
   54.9009   92.0698   21.4454 C   0  0  0  0  0  0  0  0  0  0  0  0
   53.6465   92.3641   21.6479 O   0  0  0  0  0  0  0  0  0  0  0  0
   55.1478   91.1209   20.4662 N   0  0  0  0  0  0  0  0  0  0  0  0
   53.9686   90.5282   19.7636 C   0  0  0  0  0  0  0  0  0  0  0  0
   54.2712   89.0580   19.6204 C   0  0  0  0  0  0  0  0  0  0  0  0
   55.2745   88.5881   20.5584 N   0  0  0  0  0  0  0  0  0  0  0  0
   56.5867   89.1696   20.4643 C   0  0  0  0  0  0  0  0  0  0  0  0
   56.4033   90.6024   19.9907 C   0  0  0  0  0  0  0  0  0  0  0  0
   54.9456   87.6037   21.5142 C   0  0  0  0  0  0  0  0  0  0  0  0
   54.3716   86.4248   21.1456 N   0  0  0  0  0  0  0  0  0  0  0  0
   54.0476   85.4690   22.0053 C   0  0  0  0  0  0  0  0  0  0  0  0
   54.3091   85.6964   23.3185 N   0  0  0  0  0  0  0  0  0  0  0  0
   54.8632   86.8137   23.7530 C   0  0  0  0  0  0  0  0  0  0  0  0
   55.2004   87.8129   22.8455 C   0  0  0  0  0  0  0  0  0  0  0  0
   53.4500   84.2382   21.6381 N   0  0  0  0  0  0  0  0  0  0  0  0
   53.7952   83.6136   20.3657 C   0  0  0  0  0  0  0  0  0  0  0  0
   52.4548   83.3522   19.6720 C   0  0  0  0  0  0  0  0  0  0  0  0
   51.6862   82.5143   20.4350 O   0  0  0  0  0  0  0  0  0  0  0  0
   51.3238   83.0165   21.6619 C   0  0  0  0  0  0  0  0  0  0  0  0
   52.4932   83.5429   22.4631 C   0  0  0  0  0  0  0  0  0  0  0  0
   55.8355   92.8161   22.3101 C   0  0  0  0  0  0  0  0  0  0  0  0
   55.4833   93.5138   23.3295 O   0  0  0  0  0  0  0  0  0  0  0  0
   53.8728   96.7439   27.9697 Cl  0  0  0  0  0  0  0  0  0  0  0  0
   54.3677   95.7903   26.5936 C   0  0  0  0  0  0  0  0  0  0  0  0
   55.6724   95.7708   26.1579 C   0  0  0  0  0  0  0  0  0  0  0  0
   56.0721   95.0304   25.0870 C   0  0  0  0  0  0  0  0  0  0  0  0
   55.1639   94.2357   24.3544 C   0  0  0  0  0  0  0  0  0  0  0  0
   53.8311   94.2692   24.8162 C   0  0  0  0  0  0  0  0  0  0  0  0
   53.4667   95.0214   25.8929 C   0  0  0  0  0  0  0  0  0  0  0  0
 23 24  1  0  0  0
 24 25  2  0  0  0
 24 29  1  0  0  0
 25 26  1  0  0  0
 26 27  2  0  0  0
 27 28  1  0  0  0
 27 22  1  0  0  0
 28 29  2  0  0  0
 22 21  1  0  0  0
 21  1  1  0  0  0
  1  2  2  0  0  0
  1  3  1  0  0  0
  3  4  1  0  0  0
  3  8  1  0  0  0
  4  5  1  0  0  0
  5  6  1  0  0  0
  6  7  1  0  0  0
  6  9  1  0  0  0
  7  8  1  0  0  0
  9 10  2  0  0  0
  9 14  1  0  0  0
 10 11  1  0  0  0
 11 12  2  0  0  0
 11 15  1  0  0  0
 12 13  1  0  0  0
 13 14  2  0  0  0
 15 16  1  0  0  0
 15 20  1  0  0  0
 16 17  1  0  0  0
 17 18  1  0  0  0
 18 19  1  0  0  0
 19 20  1  0  0  0
M  END
> <minimizedAffinity>
-8.74425

$$$$
2231


 27 31  0  0  0  0  0  0  0  0999 V2000
   52.4202   98.3396   28.1627 N   0  0  0  0  0  0  0  0  0  0  0  0
   52.0918   98.2753   29.4409 N   0  0  0  0  0  0  0  0  0  0  0  0
   51.2373   99.2231   29.7742 N   0  0  0  0  0  0  0  0  0  0  0  0
   50.9628   99.9702   28.6913 C   0  0  0  0  0  0  0  0  0  0  0  0
   51.7174   99.3984   27.6865 C   0  0  0  0  0  0  0  0  0  0  0  0
   51.6441   99.9499   26.4542 N   0  0  0  0  0  0  0  0  0  0  0  0
   50.8507  101.0187   26.2551 C   0  0  0  0  0  0  0  0  0  0  0  0
   50.1124  101.5762   27.2463 N   0  0  0  0  0  0  0  0  0  0  0  0
   50.1485  101.0668   28.4913 C   0  0  0  0  0  0  0  0  0  0  0  0
   49.3772  101.6400   29.5469 N   0  0  0  0  0  0  0  0  0  0  0  0
   50.0736  102.5497   30.4367 C   0  0  0  0  0  0  0  0  0  0  0  0
   49.0963  103.5173   31.1001 C   0  0  0  0  0  0  0  0  0  0  0  0
   47.8581  102.8879   31.3886 N   0  0  0  0  0  0  0  0  0  0  0  0
   47.1419  102.4208   30.1617 C   0  0  0  0  0  0  0  0  0  0  0  0
   47.9974  101.2796   29.6444 C   0  0  0  0  0  0  0  0  0  0  0  0
   47.3067  102.6816   32.6415 C   0  0  0  0  0  0  0  0  0  0  0  0
   46.1351  102.0688   32.6220 O   0  0  0  0  0  0  0  0  0  0  0  0
   47.7571  103.0021   33.9873 C   0  0  0  0  0  0  0  0  0  0  0  0
   49.1212  102.5954   34.3979 C   0  0  0  0  0  0  0  0  0  0  0  0
   48.6955  104.0451   34.3879 C   0  0  0  0  0  0  0  0  0  0  0  0
   55.9829   94.6338   25.1779 Cl  0  0  0  0  0  0  0  0  0  0  0  0
   54.9483   95.7222   26.0503 C   0  0  0  0  0  0  0  0  0  0  0  0
   55.4331   96.9343   26.4727 C   0  0  0  0  0  0  0  0  0  0  0  0
   54.6169   97.8002   27.1657 C   0  0  0  0  0  0  0  0  0  0  0  0
   53.3085   97.4887   27.4541 C   0  0  0  0  0  0  0  0  0  0  0  0
   52.8503   96.2656   27.0178 C   0  0  0  0  0  0  0  0  0  0  0  0
   53.6546   95.3829   26.3214 C   0  0  0  0  0  0  0  0  0  0  0  0
 21 22  1  0  0  0
 22 23  2  0  0  0
 22 27  1  0  0  0
 23 24  1  0  0  0
 24 25  2  0  0  0
 25 26  1  0  0  0
 25  1  1  0  0  0
 26 27  2  0  0  0
  1  2  1  0  0  0
  1  5  1  0  0  0
  2  3  2  0  0  0
  3  4  1  0  0  0
  4  5  2  0  0  0
  4  9  1  0  0  0
  5  6  1  0  0  0
  6  7  2  0  0  0
  7  8  1  0  0  0
  8  9  2  0  0  0
  9 10  1  0  0  0
 10 11  1  0  0  0
 10 15  1  0  0  0
 11 12  1  0  0  0
 12 13  1  0  0  0
 13 14  1  0  0  0
 13 16  1  0  0  0
 14 15  1  0  0  0
 16 17  2  0  0  0
 16 18  1  0  0  0
 18 19  1  0  0  0
 18 20  1  0  0  0
 19 20  1  0  0  0
M  END
> <minimizedAffinity>
-9.38192

$$$$
2242


 32 35  0  0  0  0  0  0  0  0999 V2000
   50.8054   99.4203   29.3033 N   0  0  0  0  0  0  0  0  0  0  0  0
   50.2386  100.6033   28.8230 C   0  0  0  0  0  0  0  0  0  0  0  0
   50.4368  101.0320   27.6771 O   0  0  0  0  0  0  0  0  0  0  0  0
   50.5780   99.1325   30.3071 H   0  0  0  0  0  0  0  0  0  0  0  0
   49.3678   97.1619   28.1140 Cl  0  0  0  0  0  0  0  0  0  0  0  0
   51.0836   97.4649   27.9473 C   0  0  0  0  0  0  0  0  0  0  0  0
   51.8297   96.5933   27.2053 C   0  0  0  0  0  0  0  0  0  0  0  0
   53.1743   96.7645   27.0309 C   0  0  0  0  0  0  0  0  0  0  0  0
   53.7690   97.8455   27.6254 C   0  0  0  0  0  0  0  0  0  0  0  0
   52.9968   98.7388   28.3878 C   0  0  0  0  0  0  0  0  0  0  0  0
   51.6520   98.5789   28.5708 C   0  0  0  0  0  0  0  0  0  0  0  0
   55.1332   98.0933   27.4992 O   0  0  0  0  0  0  0  0  0  0  0  0
   55.9299   97.4853   26.4717 C   0  0  0  0  0  0  0  0  0  0  0  0
   55.3691   96.1468   26.1217 C   0  0  0  0  0  0  0  0  0  0  0  0
   56.1536   95.2614   25.7096 O   0  0  0  0  0  0  0  0  0  0  0  0
   53.9778   95.8722   26.2498 N   0  0  0  0  0  0  0  0  0  0  0  0
   53.5541   95.0434   25.7884 H   0  0  0  0  0  0  0  0  0  0  0  0
   49.3465  101.4204   29.6914 C   0  0  0  0  0  0  0  0  0  0  0  0
   49.8703  102.0696   30.6844 N   0  0  0  0  0  0  0  0  0  0  0  0
   49.1071  102.8565   31.5448 N   0  0  0  0  0  0  0  0  0  0  0  0
   47.7171  102.9527   31.3293 C   0  0  0  0  0  0  0  0  0  0  0  0
   47.0732  103.7542   32.0882 O   0  0  0  0  0  0  0  0  0  0  0  0
   47.0158  102.1771   30.2862 C   0  0  0  0  0  0  0  0  0  0  0  0
   47.9509  101.5023   29.4559 N   0  0  0  0  0  0  0  0  0  0  0  0
   47.5958  101.0156   28.5919 H   0  0  0  0  0  0  0  0  0  0  0  0
   49.7264  103.5632   32.6470 C   0  0  0  0  0  0  0  0  0  0  0  0
   49.4683  103.2255   33.9532 C   0  0  0  0  0  0  0  0  0  0  0  0
   50.0824  103.9205   35.0003 C   0  0  0  0  0  0  0  0  0  0  0  0
   50.9558  104.9581   34.7449 C   0  0  0  0  0  0  0  0  0  0  0  0
   51.2031  105.2849   33.4315 C   0  0  0  0  0  0  0  0  0  0  0  0
   50.6015  104.6026   32.4159 C   0  0  0  0  0  0  0  0  0  0  0  0
   51.6399  105.7288   35.8259 C   0  0  0  0  0  0  0  0  0  0  0  0
  5  6  1  0  0  0
  6  7  2  0  0  0
  6 11  1  0  0  0
  7  8  1  0  0  0
  8  9  2  0  0  0
  8 16  1  0  0  0
  9 10  1  0  0  0
  9 12  1  0  0  0
 10 11  2  0  0  0
 11  1  1  0  0  0
  1  2  1  0  0  0
  2  3  2  0  0  0
  2 18  1  0  0  0
 18 19  2  0  0  0
 18 24  1  0  0  0
 19 20  1  0  0  0
 20 21  1  0  0  0
 20 26  1  0  0  0
 21 22  2  0  0  0
 21 23  1  0  0  0
 23 24  1  0  0  0
 26 27  2  0  0  0
 26 31  1  0  0  0
 27 28  1  0  0  0
 28 29  2  0  0  0
 29 30  1  0  0  0
 29 32  1  0  0  0
 30 31  2  0  0  0
 12 13  1  0  0  0
 13 14  1  0  0  0
 14 15  2  0  0  0
 14 16  1  0  0  0
  1  4  1  0  0  0
 24 25  1  0  0  0
 16 17  1  0  0  0
M  END
> <minimizedAffinity>
-9.69907

$$$$
2266


 27 30  0  0  0  0  0  0  0  0999 V2000
   55.9643   88.5754   21.7629 N   0  0  0  0  0  0  0  0  0  0  0  0
   55.7250   89.6758   22.6077 C   0  0  0  0  0  0  0  0  0  0  0  0
   55.7145   91.0110   21.8897 C   0  0  0  0  0  0  0  0  0  0  0  0
   54.7515   90.8618   20.7577 C   0  0  0  0  0  0  0  0  0  0  0  0
   54.8709   89.7203   19.9923 C   0  0  0  0  0  0  0  0  0  0  0  0
   54.0413   89.5277   18.9667 N   0  0  0  0  0  0  0  0  0  0  0  0
   53.1066   90.4661   18.7142 C   0  0  0  0  0  0  0  0  0  0  0  0
   52.9689   91.5863   19.4449 N   0  0  0  0  0  0  0  0  0  0  0  0
   51.9582   92.3328   18.9616 N   0  0  0  0  0  0  0  0  0  0  0  0
   51.4041   91.7252   17.9024 C   0  0  0  0  0  0  0  0  0  0  0  0
   52.1091   90.5569   17.7336 C   0  0  0  0  0  0  0  0  0  0  0  0
   53.7929   91.8142   20.4916 C   0  0  0  0  0  0  0  0  0  0  0  0
   53.7137   92.8425   21.2113 O   0  0  0  0  0  0  0  0  0  0  0  0
   55.9397   88.7655   20.3717 C   0  0  0  0  0  0  0  0  0  0  0  0
   51.6696   93.2491   19.3739 H   0  0  0  0  0  0  0  0  0  0  0  0
   55.7265   87.0363   22.3863 S   0  0  0  0  0  0  0  0  0  0  0  0
   56.9750   86.1743   22.2645 O   0  0  0  0  0  0  0  0  0  0  0  0
   55.5079   87.1691   23.8902 O   0  0  0  0  0  0  0  0  0  0  0  0
   54.4182   86.1300   21.7303 C   0  0  0  0  0  0  0  0  0  0  0  0
   53.8893   85.0406   22.4186 C   0  0  0  0  0  0  0  0  0  0  0  0
   52.8442   84.3352   21.8636 C   0  0  0  0  0  0  0  0  0  0  0  0
   52.3049   84.6639   20.6628 C   0  0  0  0  0  0  0  0  0  0  0  0
   52.8013   85.7275   19.9629 C   0  0  0  0  0  0  0  0  0  0  0  0
   53.8478   86.4341   20.5172 C   0  0  0  0  0  0  0  0  0  0  0  0
   52.1179   86.1780   18.3969 Cl  0  0  0  0  0  0  0  0  0  0  0  0
   54.3770   84.6411   23.6405 O   0  0  0  0  0  0  0  0  0  0  0  0
   53.4713   84.3829   24.6894 C   0  0  0  0  0  0  0  0  0  0  0  0
 16 17  2  0  0  0
 16 18  2  0  0  0
 16  1  1  0  0  0
 16 19  1  0  0  0
  1  2  1  0  0  0
  1 14  1  0  0  0
  2  3  1  0  0  0
  3  4  1  0  0  0
  4  5  2  0  0  0
  4 12  1  0  0  0
  5  6  1  0  0  0
  5 14  1  0  0  0
  6  7  2  0  0  0
  7  8  1  0  0  0
  7 11  1  0  0  0
  8  9  1  0  0  0
  8 12  1  0  0  0
  9 10  1  0  0  0
 10 11  2  0  0  0
 12 13  2  0  0  0
 19 20  2  0  0  0
 19 24  1  0  0  0
 20 21  1  0  0  0
 20 26  1  0  0  0
 21 22  2  0  0  0
 22 23  1  0  0  0
 23 24  2  0  0  0
 23 25  1  0  0  0
 26 27  1  0  0  0
  9 15  1  0  0  0
M  END
> <minimizedAffinity>
-8.72523

$$$$
2267


 27 30  0  0  0  0  0  0  0  0999 V2000
   51.4444   98.0705   28.5165 N   0  0  0  0  0  0  0  0  0  0  0  0
   50.3363   97.5594   27.8434 C   0  0  0  0  0  0  0  0  0  0  0  0
   49.0144   98.0336   28.4003 C   0  0  0  0  0  0  0  0  0  0  0  0
   49.0895   99.3602   29.0555 C   0  0  0  0  0  0  0  0  0  0  0  0
   50.2344   99.6424   29.7604 C   0  0  0  0  0  0  0  0  0  0  0  0
   50.3903  100.8147   30.3864 N   0  0  0  0  0  0  0  0  0  0  0  0
   49.3875  101.7506   30.3213 C   0  0  0  0  0  0  0  0  0  0  0  0
   48.2707  101.4557   29.6245 N   0  0  0  0  0  0  0  0  0  0  0  0
   47.4624  102.5153   29.7150 N   0  0  0  0  0  0  0  0  0  0  0  0
   48.0313  103.4671   30.4444 C   0  0  0  0  0  0  0  0  0  0  0  0
   49.2827  103.0152   30.8593 C   0  0  0  0  0  0  0  0  0  0  0  0
   48.0621  100.3004   28.9802 C   0  0  0  0  0  0  0  0  0  0  0  0
   47.0228  100.0279   28.3322 O   0  0  0  0  0  0  0  0  0  0  0  0
   51.2953   98.6228   29.8110 C   0  0  0  0  0  0  0  0  0  0  0  0
   46.5155  102.5978   29.2794 H   0  0  0  0  0  0  0  0  0  0  0  0
   52.8215   98.4522   27.6560 S   0  0  0  0  0  0  0  0  0  0  0  0
   52.4830   99.4689   26.5895 O   0  0  0  0  0  0  0  0  0  0  0  0
   53.8609   99.0802   28.5363 O   0  0  0  0  0  0  0  0  0  0  0  0
   53.5648   97.0967   26.8366 C   0  0  0  0  0  0  0  0  0  0  0  0
   54.8492   97.1423   26.3223 C   0  0  0  0  0  0  0  0  0  0  0  0
   55.3877   96.0369   25.6817 C   0  0  0  0  0  0  0  0  0  0  0  0
   54.6880   94.8622   25.5289 C   0  0  0  0  0  0  0  0  0  0  0  0
   53.4092   94.8156   26.0407 C   0  0  0  0  0  0  0  0  0  0  0  0
   52.8741   95.9136   26.6771 C   0  0  0  0  0  0  0  0  0  0  0  0
   57.0153   96.1123   25.0363 Cl  0  0  0  0  0  0  0  0  0  0  0  0
   55.2535   93.7545   24.8770 O   0  0  0  0  0  0  0  0  0  0  0  0
   54.9203   93.4907   23.5273 C   0  0  0  0  0  0  0  0  0  0  0  0
 16 17  2  0  0  0
 16 18  2  0  0  0
 16  1  1  0  0  0
 16 19  1  0  0  0
  1  2  1  0  0  0
  1 14  1  0  0  0
  2  3  1  0  0  0
  3  4  1  0  0  0
  4  5  2  0  0  0
  4 12  1  0  0  0
  5  6  1  0  0  0
  5 14  1  0  0  0
  6  7  2  0  0  0
  7  8  1  0  0  0
  7 11  1  0  0  0
  8  9  1  0  0  0
  8 12  1  0  0  0
  9 10  1  0  0  0
 10 11  2  0  0  0
 12 13  2  0  0  0
 19 20  2  0  0  0
 19 24  1  0  0  0
 20 21  1  0  0  0
 21 22  2  0  0  0
 21 25  1  0  0  0
 22 23  1  0  0  0
 22 26  1  0  0  0
 23 24  2  0  0  0
 26 27  1  0  0  0
  9 15  1  0  0  0
M  END
> <minimizedAffinity>
-8.85204

$$$$
2270


 22 24  0  0  0  0  0  0  0  0999 V2000
   52.1943   97.6125   28.4175 C   0  0  0  0  0  0  0  0  0  0  0  0
   52.6290   98.2682   29.4062 O   0  0  0  0  0  0  0  0  0  0  0  0
   50.7951   97.5177   28.1452 N   0  0  0  0  0  0  0  0  0  0  0  0
   50.4934   96.9769   27.3354 H   0  0  0  0  0  0  0  0  0  0  0  0
   56.3663   95.0771   24.9324 Cl  0  0  0  0  0  0  0  0  0  0  0  0
   55.1184   95.7996   25.9446 C   0  0  0  0  0  0  0  0  0  0  0  0
   55.4477   96.8438   26.7823 C   0  0  0  0  0  0  0  0  0  0  0  0
   54.4591   97.3954   27.5654 C   0  0  0  0  0  0  0  0  0  0  0  0
   53.1341   96.9471   27.5514 C   0  0  0  0  0  0  0  0  0  0  0  0
   52.8176   95.9131   26.7186 C   0  0  0  0  0  0  0  0  0  0  0  0
   53.8099   95.3398   25.9151 C   0  0  0  0  0  0  0  0  0  0  0  0
   56.7545   97.3106   26.8176 O   0  0  0  0  0  0  0  0  0  0  0  0
   57.1878   98.3532   25.9656 C   0  0  0  0  0  0  0  0  0  0  0  0
   49.8931   98.1942   29.0297 C   0  0  0  0  0  0  0  0  0  0  0  0
   49.3568   99.4951   28.5823 C   0  0  0  0  0  0  0  0  0  0  0  0
   50.0935  100.6688   28.9380 N   0  0  0  0  0  0  0  0  0  0  0  0
   49.9744  101.5689   27.7652 C   0  0  0  0  0  0  0  0  0  0  0  0
   48.4801  101.5283   27.4217 C   0  0  0  0  0  0  0  0  0  0  0  0
   47.6689  101.1453   28.5595 N   0  0  0  0  0  0  0  0  0  0  0  0
   47.9084   99.7571   28.9618 C   0  0  0  0  0  0  0  0  0  0  0  0
   48.1171  101.9492   29.6833 C   0  0  0  0  0  0  0  0  0  0  0  0
   49.5178  101.4488   30.0146 C   0  0  0  0  0  0  0  0  0  0  0  0
  5  6  1  0  0  0
  6  7  2  0  0  0
  6 11  1  0  0  0
  7  8  1  0  0  0
  7 12  1  0  0  0
  8  9  2  0  0  0
  9 10  1  0  0  0
  9  1  1  0  0  0
 10 11  2  0  0  0
  1  2  2  0  0  0
  1  3  1  0  0  0
  3 14  1  0  0  0
 14 15  1  0  0  0
 15 16  1  0  0  0
 15 20  1  0  0  0
 16 17  1  0  0  0
 16 22  1  0  0  0
 17 18  1  0  0  0
 18 19  1  0  0  0
 19 20  1  0  0  0
 19 21  1  0  0  0
 21 22  1  0  0  0
 12 13  1  0  0  0
  3  4  1  0  0  0
M  END
> <minimizedAffinity>
-8.18662

$$$$
2271


 27 30  0  0  0  0  0  0  0  0999 V2000
   54.3045   85.2369   20.9673 C   0  0  0  0  0  0  0  0  0  0  0  0
   54.1007   83.9078   20.6698 N   0  0  0  0  0  0  0  0  0  0  0  0
   52.7986   83.5949   21.2209 C   0  0  0  0  0  0  0  0  0  0  0  0
   51.7596   82.9317   20.8290 C   0  0  0  0  0  0  0  0  0  0  0  0
   50.5316   82.7747   21.6292 C   0  0  0  0  0  0  0  0  0  0  0  0
   50.5310   83.4560   22.9512 C   0  0  0  0  0  0  0  0  0  0  0  0
   51.8866   83.7521   23.4981 C   0  0  0  0  0  0  0  0  0  0  0  0
   52.8051   84.2302   22.4870 N   0  0  0  0  0  0  0  0  0  0  0  0
   53.8136   85.2854   22.4428 C   0  0  0  0  0  0  0  0  0  0  0  0
   55.6884   85.5453   21.0957 O   0  0  0  0  0  0  0  0  0  0  0  0
   54.7442   83.3485   21.3414 H   0  0  0  0  0  0  0  0  0  0  0  0
   56.0145   84.9895   21.8495 H   0  0  0  0  0  0  0  0  0  0  0  0
   51.5165   89.8377   18.3142 Cl  0  0  0  0  0  0  0  0  0  0  0  0
   52.3404   88.5056   19.0843 C   0  0  0  0  0  0  0  0  0  0  0  0
   53.5603   88.6450   19.7340 C   0  0  0  0  0  0  0  0  0  0  0  0
   54.1877   87.5907   20.3295 C   0  0  0  0  0  0  0  0  0  0  0  0
   53.6222   86.3304   20.3055 C   0  0  0  0  0  0  0  0  0  0  0  0
   52.4167   86.1857   19.6655 C   0  0  0  0  0  0  0  0  0  0  0  0
   51.7819   87.2572   19.0615 C   0  0  0  0  0  0  0  0  0  0  0  0
   54.3142   83.3415   19.4225 C   0  0  0  0  0  0  0  0  0  0  0  0
   54.2480   83.9615   18.2212 C   0  0  0  0  0  0  0  0  0  0  0  0
   54.5026   83.2554   17.0467 C   0  0  0  0  0  0  0  0  0  0  0  0
   54.8311   81.9104   17.0437 C   0  0  0  0  0  0  0  0  0  0  0  0
   54.8910   81.3061   18.2819 C   0  0  0  0  0  0  0  0  0  0  0  0
   54.6460   81.9718   19.4534 C   0  0  0  0  0  0  0  0  0  0  0  0
   55.0759   81.2460   15.8529 O   0  0  0  0  0  0  0  0  0  0  0  0
   55.8680   80.0864   15.8612 C   0  0  0  0  0  0  0  0  0  0  0  0
 13 14  1  0  0  0
 14 15  2  0  0  0
 14 19  1  0  0  0
 15 16  1  0  0  0
 16 17  2  0  0  0
 17 18  1  0  0  0
 17  1  1  0  0  0
 18 19  2  0  0  0
  1  2  1  0  0  0
  1  9  1  0  0  0
  1 10  1  0  0  0
  2  3  1  0  0  0
  2 20  1  0  0  0
  3  4  2  0  0  0
  3  8  1  0  0  0
  4  5  1  0  0  0
  5  6  1  0  0  0
  6  7  1  0  0  0
  7  8  1  0  0  0
  8  9  1  0  0  0
 20 21  2  0  0  0
 20 25  1  0  0  0
 21 22  1  0  0  0
 22 23  2  0  0  0
 23 24  1  0  0  0
 23 26  1  0  0  0
 24 25  2  0  0  0
 26 27  1  0  0  0
  2 11  1  0  0  0
 10 12  1  0  0  0
M  CHG 1   2   1
M  END
> <minimizedAffinity>
-7.94982

$$$$
2272


 29 32  0  0  0  0  0  0  0  0999 V2000
   52.4520   99.0379   28.6205 C   0  0  0  0  0  0  0  0  0  0  0  0
   52.4275   98.4258   29.7560 O   0  0  0  0  0  0  0  0  0  0  0  0
   51.6803  100.1990   28.5443 N   0  0  0  0  0  0  0  0  0  0  0  0
   51.3924  100.9304   27.2962 C   0  0  0  0  0  0  0  0  0  0  0  0
   49.8756  100.5842   27.1694 C   0  0  0  0  0  0  0  0  0  0  0  0
   49.1826  101.2429   28.2677 N   0  0  0  0  0  0  0  0  0  0  0  0
   49.8345  101.5550   29.4180 C   0  0  0  0  0  0  0  0  0  0  0  0
   51.1233  100.8383   29.7045 C   0  0  0  0  0  0  0  0  0  0  0  0
   53.2966   98.4268   27.6232 C   0  0  0  0  0  0  0  0  0  0  0  0
   54.3552   97.4835   27.9719 C   0  0  0  0  0  0  0  0  0  0  0  0
   54.9288   92.8332   22.7181 Cl  0  0  0  0  0  0  0  0  0  0  0  0
   54.9413   94.0338   23.9861 C   0  0  0  0  0  0  0  0  0  0  0  0
   56.0502   94.8043   24.2029 C   0  0  0  0  0  0  0  0  0  0  0  0
   56.0272   95.7683   25.2190 C   0  0  0  0  0  0  0  0  0  0  0  0
   54.9229   95.9694   26.0130 C   0  0  0  0  0  0  0  0  0  0  0  0
   53.7753   95.1854   25.7997 C   0  0  0  0  0  0  0  0  0  0  0  0
   53.8333   94.2425   24.7868 C   0  0  0  0  0  0  0  0  0  0  0  0
   55.1560   96.9461   26.8856 N   0  0  0  0  0  0  0  0  0  0  0  0
   56.4424   97.3581   26.6243 C   0  0  0  0  0  0  0  0  0  0  0  0
   57.0522   98.2768   27.2437 O   0  0  0  0  0  0  0  0  0  0  0  0
   56.9107   96.6360   25.6366 O   0  0  0  0  0  0  0  0  0  0  0  0
   47.8218  101.0572   28.0853 C   0  0  0  0  0  0  0  0  0  0  0  0
   47.2768   99.9300   28.9633 C   0  0  0  0  0  0  0  0  0  0  0  0
   46.2090  100.2547   29.6105 O   0  0  0  0  0  0  0  0  0  0  0  0
   47.8822   98.7499   29.0286 N   0  0  0  0  0  0  0  0  0  0  0  0
   46.8576   98.2199   29.7455 H   0  0  0  0  0  0  0  0  0  0  0  0
   48.5276   97.4943   29.0982 C   0  0  0  0  0  0  0  0  0  0  0  0
   49.3929   97.1293   27.8320 C   0  0  0  0  0  0  0  0  0  0  0  0
   48.1423   96.4384   28.0833 C   0  0  0  0  0  0  0  0  0  0  0  0
 11 12  1  0  0  0
 12 13  2  0  0  0
 12 17  1  0  0  0
 13 14  1  0  0  0
 14 15  2  0  0  0
 14 21  1  0  0  0
 15 16  1  0  0  0
 15 18  1  0  0  0
 16 17  2  0  0  0
 18 19  1  0  0  0
 18 10  1  0  0  0
 19 20  2  0  0  0
 19 21  1  0  0  0
 10  9  1  0  0  0
  9  1  1  0  0  0
  1  2  2  0  0  0
  1  3  1  0  0  0
  3  4  1  0  0  0
  3  8  1  0  0  0
  4  5  1  0  0  0
  5  6  1  0  0  0
  6  7  1  0  0  0
  6 22  1  0  0  0
  7  8  1  0  0  0
 22 23  1  0  0  0
 23 24  2  0  0  0
 23 25  1  0  0  0
 25 27  1  0  0  0
 27 28  1  0  0  0
 27 29  1  0  0  0
 28 29  1  0  0  0
 25 26  1  0  0  0
M  END
> <minimizedAffinity>
-9.01664

$$$$
2275


 21 23  0  0  0  0  0  0  0  0999 V2000
   54.0501   85.7190   21.5049 Cl  0  0  0  0  0  0  0  0  0  0  0  0
   54.2046   87.3328   20.8464 C   0  0  0  0  0  0  0  0  0  0  0  0
   54.9140   88.2953   21.5347 C   0  0  0  0  0  0  0  0  0  0  0  0
   54.9984   89.5416   20.9546 C   0  0  0  0  0  0  0  0  0  0  0  0
   55.6264   90.4989   21.5019 O   0  0  0  0  0  0  0  0  0  0  0  0
   54.4050   89.7732   19.7741 N   0  0  0  0  0  0  0  0  0  0  0  0
   53.7188   88.8849   19.0826 N   0  0  0  0  0  0  0  0  0  0  0  0
   53.0920   89.1791   17.8048 C   0  0  0  0  0  0  0  0  0  0  0  0
   51.8700   90.0609   17.9515 C   0  0  0  0  0  0  0  0  0  0  0  0
   52.2781   91.5189   18.0725 C   0  0  0  0  0  0  0  0  0  0  0  0
   53.1468   91.7475   19.2881 C   0  0  0  0  0  0  0  0  0  0  0  0
   54.5076   91.1127   19.1743 C   0  0  0  0  0  0  0  0  0  0  0  0
   54.7993   90.8977   17.7320 C   0  0  0  0  0  0  0  0  0  0  0  0
   54.1024   90.0022   17.0412 C   0  0  0  0  0  0  0  0  0  0  0  0
   53.6199   87.6403   19.6367 C   0  0  0  0  0  0  0  0  0  0  0  0
   52.9605   86.7582   18.9894 O   0  0  0  0  0  0  0  0  0  0  0  0
   55.5404   88.0507   22.7904 N   0  0  0  0  0  0  0  0  0  0  0  0
   54.8673   88.0325   23.6150 H   0  0  0  0  0  0  0  0  0  0  0  0
   56.9509   87.8405   22.9717 C   0  0  0  0  0  0  0  0  0  0  0  0
   57.3401   87.8386   24.4400 C   0  0  0  0  0  0  0  0  0  0  0  0
   57.4745   86.5868   22.3545 C   0  0  0  0  0  0  0  0  0  0  0  0
  1  2  1  0  0  0
  2  3  2  0  0  0
  2 15  1  0  0  0
  3  4  1  0  0  0
  3 17  1  0  0  0
  4  5  2  0  0  0
  4  6  1  0  0  0
  6  7  1  0  0  0
  6 12  1  0  0  0
  7  8  1  0  0  0
  7 15  1  0  0  0
  8  9  1  0  0  0
  8 14  1  0  0  0
  9 10  1  0  0  0
 10 11  1  0  0  0
 11 12  1  0  0  0
 12 13  1  0  0  0
 13 14  2  0  0  0
 15 16  2  0  0  0
 17 19  1  0  0  0
 19 20  1  0  0  0
 19 21  1  0  0  0
 17 18  1  0  0  0
M  END
> <minimizedAffinity>
-8.10142

$$$$
2276


 21 24  0  0  0  0  0  0  0  0999 V2000
   54.5411   85.9484   21.5669 Cl  0  0  0  0  0  0  0  0  0  0  0  0
   54.5030   87.5594   20.8782 C   0  0  0  0  0  0  0  0  0  0  0  0
   55.4854   88.4491   21.2594 C   0  0  0  0  0  0  0  0  0  0  0  0
   55.3905   89.7185   20.6750 C   0  0  0  0  0  0  0  0  0  0  0  0
   56.2533   90.5627   20.9844 O   0  0  0  0  0  0  0  0  0  0  0  0
   54.4097   90.0162   19.8142 N   0  0  0  0  0  0  0  0  0  0  0  0
   53.4695   89.1566   19.4528 N   0  0  0  0  0  0  0  0  0  0  0  0
   52.4796   89.6411   18.5012 C   0  0  0  0  0  0  0  0  0  0  0  0
   51.8470   90.8707   19.1265 C   0  0  0  0  0  0  0  0  0  0  0  0
   52.8769   91.8141   19.5768 C   0  0  0  0  0  0  0  0  0  0  0  0
   54.2856   91.3384   19.1962 C   0  0  0  0  0  0  0  0  0  0  0  0
   54.2344   91.0510   17.7215 C   0  0  0  0  0  0  0  0  0  0  0  0
   53.3085   90.1798   17.3582 C   0  0  0  0  0  0  0  0  0  0  0  0
   51.9220   92.1788   18.4318 C   0  0  0  0  0  0  0  0  0  0  0  0
   53.5106   87.9366   19.9780 C   0  0  0  0  0  0  0  0  0  0  0  0
   52.6222   87.1128   19.6409 O   0  0  0  0  0  0  0  0  0  0  0  0
   56.5379   88.1450   22.1704 N   0  0  0  0  0  0  0  0  0  0  0  0
   57.3501   87.6398   21.7572 H   0  0  0  0  0  0  0  0  0  0  0  0
   56.5517   88.4711   23.5497 C   0  0  0  0  0  0  0  0  0  0  0  0
   55.2096   88.3880   24.2294 C   0  0  0  0  0  0  0  0  0  0  0  0
   57.5013   87.6016   24.3619 C   0  0  0  0  0  0  0  0  0  0  0  0
  1  2  1  0  0  0
  2  3  2  0  0  0
  2 15  1  0  0  0
  3  4  1  0  0  0
  3 17  1  0  0  0
  4  5  2  0  0  0
  4  6  1  0  0  0
  6  7  1  0  0  0
  6 11  1  0  0  0
  7  8  1  0  0  0
  7 15  1  0  0  0
  8  9  1  0  0  0
  8 13  1  0  0  0
  9 10  1  0  0  0
  9 14  1  0  0  0
 10 11  1  0  0  0
 10 14  1  0  0  0
 11 12  1  0  0  0
 12 13  2  0  0  0
 15 16  2  0  0  0
 17 19  1  0  0  0
 19 20  1  0  0  0
 19 21  1  0  0  0
 17 18  1  0  0  0
M  END
> <minimizedAffinity>
-8.25867

$$$$
2281


 34 37  0  0  0  0  0  0  0  0999 V2000
   52.3356   83.3347   23.8386 N   0  0  0  0  0  0  0  0  0  0  0  0
   51.3625   83.8857   24.6838 C   0  0  0  0  0  0  0  0  0  0  0  0
   52.0448   85.0738   25.4563 C   0  0  0  0  0  0  0  0  0  0  0  0
   53.2816   85.4885   25.0144 N   0  0  0  0  0  0  0  0  0  0  0  0
   54.1402   84.5548   24.3381 C   0  0  0  0  0  0  0  0  0  0  0  0
   53.6401   83.0948   24.5906 C   0  0  0  0  0  0  0  0  0  0  0  0
   53.1110   80.5519   22.8162 Cl  0  0  0  0  0  0  0  0  0  0  0  0
   52.9650   82.0795   21.8571 C   0  0  0  0  0  0  0  0  0  0  0  0
   52.4483   83.1343   22.4717 C   0  0  0  0  0  0  0  0  0  0  0  0
   52.3060   84.3420   21.6225 C   0  0  0  0  0  0  0  0  0  0  0  0
   52.7098   84.2684   20.4104 N   0  0  0  0  0  0  0  0  0  0  0  0
   53.2514   83.1690   19.8235 N   0  0  0  0  0  0  0  0  0  0  0  0
   53.3817   82.0771   20.5254 C   0  0  0  0  0  0  0  0  0  0  0  0
   53.8884   80.9948   20.0733 O   0  0  0  0  0  0  0  0  0  0  0  0
   53.8960   83.3663   18.5262 C   0  0  0  0  0  0  0  0  0  0  0  0
   55.2112   83.1066   18.3115 C   0  0  0  0  0  0  0  0  0  0  0  0
   55.7619   83.1859   17.0507 C   0  0  0  0  0  0  0  0  0  0  0  0
   54.9776   83.5359   15.9528 C   0  0  0  0  0  0  0  0  0  0  0  0
   53.6326   83.8049   16.2052 C   0  0  0  0  0  0  0  0  0  0  0  0
   53.1172   83.7221   17.4400 C   0  0  0  0  0  0  0  0  0  0  0  0
   54.1892   86.0317   26.0797 C   0  0  0  0  0  0  0  0  0  0  0  0
   55.2080   86.8756   25.4732 C   0  0  0  0  0  0  0  0  0  0  0  0
   56.2924   86.7675   25.2277 O   0  0  0  0  0  0  0  0  0  0  0  0
   54.5300   88.3836   25.0438 N   0  0  0  0  0  0  0  0  0  0  0  0
   55.6882   88.7910   24.1724 C   0  0  0  0  0  0  0  0  0  0  0  0
   56.8357   88.4846   24.3453 O   0  0  0  0  0  0  0  0  0  0  0  0
   55.2216   89.6011   23.0708 N   0  0  0  0  0  0  0  0  0  0  0  0
   53.9386   88.1701   25.4941 H   0  0  0  0  0  0  0  0  0  0  0  0
   54.1694   89.8167   23.0776 H   0  0  0  0  0  0  0  0  0  0  0  0
   55.9893   90.1510   22.0181 C   0  0  0  0  0  0  0  0  0  0  0  0
   56.2183   89.3654   20.7921 C   0  0  0  0  0  0  0  0  0  0  0  0
   55.1027   89.7206   19.8041 C   0  0  0  0  0  0  0  0  0  0  0  0
   54.8698   91.1759   20.1363 C   0  0  0  0  0  0  0  0  0  0  0  0
   55.1913   91.3857   21.5500 C   0  0  0  0  0  0  0  0  0  0  0  0
  7  8  1  0  0  0
  8  9  2  0  0  0
  8 13  1  0  0  0
  9 10  1  0  0  0
  9  1  1  0  0  0
 10 11  2  0  0  0
 11 12  1  0  0  0
 12 13  1  0  0  0
 12 15  1  0  0  0
 13 14  2  0  0  0
 15 16  2  0  0  0
 15 20  1  0  0  0
 16 17  1  0  0  0
 17 18  2  0  0  0
 18 19  1  0  0  0
 19 20  2  0  0  0
  1  2  1  0  0  0
  1  6  1  0  0  0
  2  3  1  0  0  0
  3  4  1  0  0  0
  4  5  1  0  0  0
  4 21  1  0  0  0
  5  6  1  0  0  0
 21 22  1  0  0  0
 22 23  2  0  0  0
 22 24  1  0  0  0
 24 25  1  0  0  0
 25 26  2  0  0  0
 25 27  1  0  0  0
 27 30  1  0  0  0
 30 31  1  0  0  0
 30 34  1  0  0  0
 31 32  1  0  0  0
 32 33  1  0  0  0
 33 34  1  0  0  0
 24 28  1  0  0  0
 27 29  1  0  0  0
M  END
> <minimizedAffinity>
-9.13797

$$$$
2282


 31 34  0  0  0  0  0  0  0  0999 V2000
   55.7235   87.6972   23.8947 N   0  0  0  0  0  0  0  0  0  0  0  0
   56.7673   86.7022   23.9555 C   0  0  0  0  0  0  0  0  0  0  0  0
   56.2897   85.5074   24.7199 C   0  0  0  0  0  0  0  0  0  0  0  0
   54.8657   85.6499   24.8942 N   0  0  0  0  0  0  0  0  0  0  0  0
   54.6195   86.7064   25.8080 C   0  0  0  0  0  0  0  0  0  0  0  0
   54.9847   88.0103   25.0920 C   0  0  0  0  0  0  0  0  0  0  0  0
   54.3179   86.0733   21.8554 Cl  0  0  0  0  0  0  0  0  0  0  0  0
   54.7275   87.7628   21.6485 C   0  0  0  0  0  0  0  0  0  0  0  0
   55.3932   88.3874   22.6994 C   0  0  0  0  0  0  0  0  0  0  0  0
   55.7010   89.7165   22.5027 C   0  0  0  0  0  0  0  0  0  0  0  0
   55.3628   90.3336   21.3570 N   0  0  0  0  0  0  0  0  0  0  0  0
   54.7318   89.7590   20.3481 N   0  0  0  0  0  0  0  0  0  0  0  0
   54.4119   88.4599   20.4987 C   0  0  0  0  0  0  0  0  0  0  0  0
   53.8084   87.8879   19.5479 O   0  0  0  0  0  0  0  0  0  0  0  0
   54.4009   90.4829   19.1557 C   0  0  0  0  0  0  0  0  0  0  0  0
   53.1688   91.0823   19.0316 C   0  0  0  0  0  0  0  0  0  0  0  0
   52.8351   91.7918   17.8725 C   0  0  0  0  0  0  0  0  0  0  0  0
   53.7223   91.9118   16.8273 C   0  0  0  0  0  0  0  0  0  0  0  0
   54.9585   91.3154   16.9435 C   0  0  0  0  0  0  0  0  0  0  0  0
   55.2781   90.6123   18.1002 C   0  0  0  0  0  0  0  0  0  0  0  0
   54.1273   84.4579   25.0232 C   0  0  0  0  0  0  0  0  0  0  0  0
   52.7478   84.6358   25.4884 C   0  0  0  0  0  0  0  0  0  0  0  0
   51.9235   85.1019   24.6308 O   0  0  0  0  0  0  0  0  0  0  0  0
   52.2551   84.3394   26.7822 N   0  0  0  0  0  0  0  0  0  0  0  0
   52.9269   83.9503   27.4742 H   0  0  0  0  0  0  0  0  0  0  0  0
   50.8870   84.5309   27.1927 C   0  0  0  0  0  0  0  0  0  0  0  0
   50.7576   85.8400   27.9081 C   0  0  0  0  0  0  0  0  0  0  0  0
   50.3817   86.8104   27.0179 O   0  0  0  0  0  0  0  0  0  0  0  0
   49.2166   87.4105   27.4100 C   0  0  0  0  0  0  0  0  0  0  0  0
   49.2372   87.2619   28.9166 C   0  0  0  0  0  0  0  0  0  0  0  0
   49.6843   85.7916   28.9861 C   0  0  0  0  0  0  0  0  0  0  0  0
  7  8  1  0  0  0
  8  9  2  0  0  0
  8 13  1  0  0  0
  9 10  1  0  0  0
  9  1  1  0  0  0
 10 11  2  0  0  0
 11 12  1  0  0  0
 12 13  1  0  0  0
 12 15  1  0  0  0
 13 14  2  0  0  0
 15 16  2  0  0  0
 15 20  1  0  0  0
 16 17  1  0  0  0
 17 18  2  0  0  0
 18 19  1  0  0  0
 19 20  2  0  0  0
  1  2  1  0  0  0
  1  6  1  0  0  0
  2  3  1  0  0  0
  3  4  1  0  0  0
  4  5  1  0  0  0
  4 21  1  0  0  0
  5  6  1  0  0  0
 21 22  1  0  0  0
 22 23  2  0  0  0
 22 24  1  0  0  0
 24 26  1  0  0  0
 26 27  1  0  0  0
 27 28  1  0  0  0
 27 31  1  0  0  0
 28 29  1  0  0  0
 29 30  1  0  0  0
 30 31  1  0  0  0
 24 25  1  0  0  0
M  END
> <minimizedAffinity>
-8.65419

$$$$
2284


 33 37  0  0  0  0  0  0  0  0999 V2000
   54.5392   84.7346   25.4695 C   0  0  0  0  0  0  0  0  0  0  0  0
   54.9392   85.9796   25.9127 C   0  0  0  0  0  0  0  0  0  0  0  0
   55.1103   87.0762   25.1068 C   0  0  0  0  0  0  0  0  0  0  0  0
   55.4837   88.1756   25.6330 O   0  0  0  0  0  0  0  0  0  0  0  0
   54.8774   86.9682   23.7650 N   0  0  0  0  0  0  0  0  0  0  0  0
   54.9980   87.9052   22.9112 N   0  0  0  0  0  0  0  0  0  0  0  0
   54.7589   87.7334   21.6448 C   0  0  0  0  0  0  0  0  0  0  0  0
   54.3149   86.0643   21.6582 S   0  0  0  0  0  0  0  0  0  0  0  0
   54.4906   85.7638   23.3397 C   0  0  0  0  0  0  0  0  0  0  0  0
   54.3240   84.6858   24.1371 N   0  0  0  0  0  0  0  0  0  0  0  0
   54.8298   88.6485   20.4994 C   0  0  0  0  0  0  0  0  0  0  0  0
   53.8653   88.5570   19.5190 C   0  0  0  0  0  0  0  0  0  0  0  0
   53.8766   89.3935   18.4113 C   0  0  0  0  0  0  0  0  0  0  0  0
   54.8700   90.3416   18.2796 C   0  0  0  0  0  0  0  0  0  0  0  0
   55.8493   90.4523   19.2517 C   0  0  0  0  0  0  0  0  0  0  0  0
   55.7964   89.6002   20.3310 C   0  0  0  0  0  0  0  0  0  0  0  0
   54.8968   91.3936   16.9015 Cl  0  0  0  0  0  0  0  0  0  0  0  0
   54.3701   83.5803   26.3843 C   0  0  0  0  0  0  0  0  0  0  0  0
   51.0936   83.9674   28.8967 N   0  0  0  0  0  0  0  0  0  0  0  0
   52.1242   84.9037   29.0159 C   0  0  0  0  0  0  0  0  0  0  0  0
   53.4420   84.3315   28.4832 C   0  0  0  0  0  0  0  0  0  0  0  0
   53.2175   83.8033   27.1972 N   0  0  0  0  0  0  0  0  0  0  0  0
   52.2205   82.8034   27.1365 C   0  0  0  0  0  0  0  0  0  0  0  0
   51.5089   82.6982   28.4667 C   0  0  0  0  0  0  0  0  0  0  0  0
   49.5094   84.4380   28.7496 S   0  0  0  0  0  0  0  0  0  0  0  0
   48.7972   84.1688   30.0715 O   0  0  0  0  0  0  0  0  0  0  0  0
   48.7929   83.7222   27.6339 O   0  0  0  0  0  0  0  0  0  0  0  0
   49.3818   86.1646   28.4975 C   0  0  0  0  0  0  0  0  0  0  0  0
   49.3665   86.8150   27.3009 N   0  0  0  0  0  0  0  0  0  0  0  0
   49.2623   88.1313   27.4921 C   0  0  0  0  0  0  0  0  0  0  0  0
   49.2045   88.3893   28.8061 N   0  0  0  0  0  0  0  0  0  0  0  0
   49.2784   87.1770   29.4206 C   0  0  0  0  0  0  0  0  0  0  0  0
   49.1217   89.3168   29.2537 H   0  0  0  0  0  0  0  0  0  0  0  0
 25 26  2  0  0  0
 25 27  2  0  0  0
 25 19  1  0  0  0
 25 28  1  0  0  0
 19 20  1  0  0  0
 19 24  1  0  0  0
 20 21  1  0  0  0
 21 22  1  0  0  0
 22 23  1  0  0  0
 22 18  1  0  0  0
 23 24  1  0  0  0
 18  1  1  0  0  0
  1  2  2  0  0  0
  1 10  1  0  0  0
  2  3  1  0  0  0
  3  4  2  0  0  0
  3  5  1  0  0  0
  5  6  1  0  0  0
  5  9  1  0  0  0
  6  7  2  0  0  0
  7  8  1  0  0  0
  7 11  1  0  0  0
  8  9  1  0  0  0
  9 10  2  0  0  0
 11 12  2  0  0  0
 11 16  1  0  0  0
 12 13  1  0  0  0
 13 14  2  0  0  0
 14 15  1  0  0  0
 14 17  1  0  0  0
 15 16  2  0  0  0
 28 29  1  0  0  0
 28 32  2  0  0  0
 29 30  2  0  0  0
 30 31  1  0  0  0
 31 32  1  0  0  0
 31 33  1  0  0  0
M  END
> <minimizedAffinity>
-9.73099

$$$$
2285


 32 35  0  0  0  0  0  0  0  0999 V2000
   49.2964  100.1391   29.5152 N   0  0  0  0  0  0  0  0  0  0  0  0
   49.0903   98.8492   28.9269 C   0  0  0  0  0  0  0  0  0  0  0  0
   50.3904   98.0778   28.6341 C   0  0  0  0  0  0  0  0  0  0  0  0
   51.1909   98.9289   27.8108 N   0  0  0  0  0  0  0  0  0  0  0  0
   51.6048  100.0505   28.6075 C   0  0  0  0  0  0  0  0  0  0  0  0
   50.3597  100.8816   28.7510 C   0  0  0  0  0  0  0  0  0  0  0  0
   47.8363  101.0783   29.1246 S   0  0  0  0  0  0  0  0  0  0  0  0
   48.0443  101.6622   27.7401 O   0  0  0  0  0  0  0  0  0  0  0  0
   46.6709  100.1545   29.1099 O   0  0  0  0  0  0  0  0  0  0  0  0
   47.5786  102.3637   30.2377 C   0  0  0  0  0  0  0  0  0  0  0  0
   46.4884  102.1930   31.1014 C   0  0  0  0  0  0  0  0  0  0  0  0
   46.1786  103.0817   32.1343 C   0  0  0  0  0  0  0  0  0  0  0  0
   46.9986  104.1921   32.3111 C   0  0  0  0  0  0  0  0  0  0  0  0
   48.0664  104.3498   31.4466 C   0  0  0  0  0  0  0  0  0  0  0  0
   48.3666  103.4574   30.4255 C   0  0  0  0  0  0  0  0  0  0  0  0
   46.6378  105.0252   33.3538 O   0  0  0  0  0  0  0  0  0  0  0  0
   46.1535  104.3975   34.5716 C   0  0  0  0  0  0  0  0  0  0  0  0
   45.2130  103.2678   34.3122 C   0  0  0  0  0  0  0  0  0  0  0  0
   45.0892  102.8822   32.9651 O   0  0  0  0  0  0  0  0  0  0  0  0
   51.9831   98.3702   26.8232 C   0  0  0  0  0  0  0  0  0  0  0  0
   53.3099   97.8858   27.2103 C   0  0  0  0  0  0  0  0  0  0  0  0
   53.2555   96.8325   27.9861 O   0  0  0  0  0  0  0  0  0  0  0  0
   54.5688   98.3190   26.9075 N   0  0  0  0  0  0  0  0  0  0  0  0
   54.7852   99.1901   26.3183 H   0  0  0  0  0  0  0  0  0  0  0  0
   55.8061   97.6379   27.2950 C   0  0  0  0  0  0  0  0  0  0  0  0
   56.5074   97.1853   26.0766 C   0  0  0  0  0  0  0  0  0  0  0  0
   56.3936   95.8502   25.6251 C   0  0  0  0  0  0  0  0  0  0  0  0
   57.1181   95.3608   24.6067 C   0  0  0  0  0  0  0  0  0  0  0  0
   58.0550   96.1946   23.9195 C   0  0  0  0  0  0  0  0  0  0  0  0
   58.1819   97.4571   24.3396 C   0  0  0  0  0  0  0  0  0  0  0  0
   57.4419   97.9916   25.4014 C   0  0  0  0  0  0  0  0  0  0  0  0
   55.2173   94.7923   26.4433 Cl  0  0  0  0  0  0  0  0  0  0  0  0
  7  8  2  0  0  0
  7  9  2  0  0  0
  7  1  1  0  0  0
  7 10  1  0  0  0
  1  2  1  0  0  0
  1  6  1  0  0  0
  2  3  1  0  0  0
  3  4  1  0  0  0
  4  5  1  0  0  0
  4 20  1  0  0  0
  5  6  1  0  0  0
 20 21  1  0  0  0
 21 22  2  0  0  0
 21 23  1  0  0  0
 23 25  1  0  0  0
 25 26  1  0  0  0
 26 27  2  0  0  0
 26 31  1  0  0  0
 27 28  1  0  0  0
 27 32  1  0  0  0
 28 29  2  0  0  0
 29 30  1  0  0  0
 30 31  2  0  0  0
 10 11  2  0  0  0
 10 15  1  0  0  0
 11 12  1  0  0  0
 12 13  2  0  0  0
 12 19  1  0  0  0
 13 14  1  0  0  0
 13 16  1  0  0  0
 14 15  2  0  0  0
 16 17  1  0  0  0
 17 18  1  0  0  0
 18 19  1  0  0  0
 23 24  1  0  0  0
M  END
> <minimizedAffinity>
-9.60636

$$$$
2286


 31 34  0  0  0  0  0  0  0  0999 V2000
   50.0500  103.7886   33.5846 N   0  0  0  0  0  0  0  0  0  0  0  0
   49.1180  102.8722   34.1339 C   0  0  0  0  0  0  0  0  0  0  0  0
   47.9433  102.5753   33.2400 C   0  0  0  0  0  0  0  0  0  0  0  0
   48.3279  102.4711   31.8483 N   0  0  0  0  0  0  0  0  0  0  0  0
   49.7521  102.4008   31.5820 C   0  0  0  0  0  0  0  0  0  0  0  0
   50.5029  103.5159   32.2671 C   0  0  0  0  0  0  0  0  0  0  0  0
   47.3420  102.4443   30.8542 C   0  0  0  0  0  0  0  0  0  0  0  0
   46.1354  102.5100   31.1891 O   0  0  0  0  0  0  0  0  0  0  0  0
   49.6993  105.4369   33.8807 S   0  0  0  0  0  0  0  0  0  0  0  0
   48.8724  105.5503   35.1245 O   0  0  0  0  0  0  0  0  0  0  0  0
   48.9237  106.0429   32.7486 O   0  0  0  0  0  0  0  0  0  0  0  0
   51.1784  106.3975   34.0496 C   0  0  0  0  0  0  0  0  0  0  0  0
   52.3152  106.3836   35.3121 S   0  0  0  0  0  0  0  0  0  0  0  0
   53.3958  107.5579   34.7246 C   0  0  0  0  0  0  0  0  0  0  0  0
   52.8331  107.9393   33.5360 C   0  0  0  0  0  0  0  0  0  0  0  0
   51.6764  107.3331   33.1843 C   0  0  0  0  0  0  0  0  0  0  0  0
   54.8990  108.1685   35.4488 Cl  0  0  0  0  0  0  0  0  0  0  0  0
   47.6708  102.3387   29.4091 C   0  0  0  0  0  0  0  0  0  0  0  0
   48.2825  101.0804   29.0834 N   0  0  0  0  0  0  0  0  0  0  0  0
   47.6516   99.8177   29.2333 C   0  0  0  0  0  0  0  0  0  0  0  0
   46.4661   99.6459   29.6759 O   0  0  0  0  0  0  0  0  0  0  0  0
   48.5046   98.7542   28.8299 N   0  0  0  0  0  0  0  0  0  0  0  0
   49.8192   99.3304   28.6173 C   0  0  0  0  0  0  0  0  0  0  0  0
   50.4172   98.9162   27.3039 C   0  0  0  0  0  0  0  0  0  0  0  0
   51.1319   97.5980   27.3525 C   0  0  0  0  0  0  0  0  0  0  0  0
   52.1152   97.4853   28.4802 C   0  0  0  0  0  0  0  0  0  0  0  0
   52.1008   98.6986   29.3842 C   0  0  0  0  0  0  0  0  0  0  0  0
   50.6687   98.9442   29.8048 C   0  0  0  0  0  0  0  0  0  0  0  0
   49.5752  100.7936   28.5668 C   0  0  0  0  0  0  0  0  0  0  0  0
   50.3620  101.6729   28.1425 O   0  0  0  0  0  0  0  0  0  0  0  0
   48.1065   97.3564   28.6666 C   0  0  0  0  0  0  0  0  0  0  0  0
  9 10  2  0  0  0
  9 11  2  0  0  0
  9  1  1  0  0  0
  9 12  1  0  0  0
  1  2  1  0  0  0
  1  6  1  0  0  0
  2  3  1  0  0  0
  3  4  1  0  0  0
  4  5  1  0  0  0
  4  7  1  0  0  0
  5  6  1  0  0  0
  7  8  2  0  0  0
  7 18  1  0  0  0
 18 19  1  0  0  0
 19 20  1  0  0  0
 19 29  1  0  0  0
 20 21  2  0  0  0
 20 22  1  0  0  0
 22 23  1  0  0  0
 22 31  1  0  0  0
 23 24  1  0  0  0
 23 28  1  0  0  0
 23 29  1  0  0  0
 24 25  1  0  0  0
 25 26  1  0  0  0
 26 27  1  0  0  0
 27 28  1  0  0  0
 29 30  2  0  0  0
 12 13  1  0  0  0
 12 16  2  0  0  0
 13 14  1  0  0  0
 14 15  2  0  0  0
 14 17  1  0  0  0
 15 16  1  0  0  0
M  END
> <minimizedAffinity>
-9.27147

$$$$
2298


 34 37  0  0  0  0  0  0  0  0999 V2000
   48.7722  101.0701   27.5683 C   0  0  0  0  0  0  0  0  0  0  0  0
   51.8759   99.4316   27.6642 N   0  0  0  0  0  0  0  0  0  0  0  0
   52.1079  100.4820   28.5274 C   0  0  0  0  0  0  0  0  0  0  0  0
   50.8571  101.2948   28.7265 C   0  0  0  0  0  0  0  0  0  0  0  0
   50.1126  101.5797   27.5526 N   0  0  0  0  0  0  0  0  0  0  0  0
   50.8243  101.1997   26.3747 C   0  0  0  0  0  0  0  0  0  0  0  0
   51.2368   99.7331   26.4570 C   0  0  0  0  0  0  0  0  0  0  0  0
   52.3091   97.8608   27.9924 S   0  0  0  0  0  0  0  0  0  0  0  0
   52.6695   97.6191   29.4376 O   0  0  0  0  0  0  0  0  0  0  0  0
   51.2390   96.8424   27.6681 O   0  0  0  0  0  0  0  0  0  0  0  0
   53.7426   97.4297   27.0645 C   0  0  0  0  0  0  0  0  0  0  0  0
   54.8837   98.1800   27.1312 C   0  0  0  0  0  0  0  0  0  0  0  0
   56.0015   97.8487   26.4115 C   0  0  0  0  0  0  0  0  0  0  0  0
   55.9674   96.7338   25.6030 C   0  0  0  0  0  0  0  0  0  0  0  0
   54.8155   95.9734   25.5328 C   0  0  0  0  0  0  0  0  0  0  0  0
   53.7025   96.3141   26.2584 C   0  0  0  0  0  0  0  0  0  0  0  0
   57.4147   96.3363   24.6940 Cl  0  0  0  0  0  0  0  0  0  0  0  0
   48.0430  101.5024   28.8080 C   0  0  0  0  0  0  0  0  0  0  0  0
   47.3062  100.6536   29.3557 O   0  0  0  0  0  0  0  0  0  0  0  0
   48.1870  102.8126   29.3295 N   0  0  0  0  0  0  0  0  0  0  0  0
   48.8266  103.4792   28.8199 H   0  0  0  0  0  0  0  0  0  0  0  0
   47.4523  103.1388   30.5171 C   0  0  0  0  0  0  0  0  0  0  0  0
   48.2370  103.6392   31.6681 C   0  0  0  0  0  0  0  0  0  0  0  0
   49.6567  103.1384   31.5645 C   0  0  0  0  0  0  0  0  0  0  0  0
   49.8563  101.8091   32.2996 C   0  0  0  0  0  0  0  0  0  0  0  0
   49.7177  102.0128   33.7952 C   0  0  0  0  0  0  0  0  0  0  0  0
   48.7089  103.1267   34.0079 C   0  0  0  0  0  0  0  0  0  0  0  0
   47.6638  102.9563   32.9255 C   0  0  0  0  0  0  0  0  0  0  0  0
   48.2219  105.0267   31.9308 N   0  0  0  0  0  0  0  0  0  0  0  0
   48.8527  105.8970   31.0032 C   0  0  0  0  0  0  0  0  0  0  0  0
   49.0630  107.2279   31.7484 C   0  0  0  0  0  0  0  0  0  0  0  0
   47.8493  107.7723   32.0930 O   0  0  0  0  0  0  0  0  0  0  0  0
   46.7644  107.0077   31.7455 C   0  0  0  0  0  0  0  0  0  0  0  0
   46.9072  105.5598   32.2160 C   0  0  0  0  0  0  0  0  0  0  0  0
  8  9  2  0  0  0
  8 10  2  0  0  0
  8  2  1  0  0  0
  8 11  1  0  0  0
  2  3  1  0  0  0
  2  7  1  0  0  0
  3  4  1  0  0  0
  4  5  1  0  0  0
  5  6  1  0  0  0
  5  1  1  0  0  0
  6  7  1  0  0  0
  1 18  1  0  0  0
 18 19  2  0  0  0
 18 20  1  0  0  0
 20 22  1  0  0  0
 22 23  1  0  0  0
 23 24  1  0  0  0
 23 28  1  0  0  0
 23 29  1  0  0  0
 24 25  1  0  0  0
 25 26  1  0  0  0
 26 27  1  0  0  0
 27 28  1  0  0  0
 29 30  1  0  0  0
 29 34  1  0  0  0
 30 31  1  0  0  0
 31 32  1  0  0  0
 32 33  1  0  0  0
 33 34  1  0  0  0
 11 12  2  0  0  0
 11 16  1  0  0  0
 12 13  1  0  0  0
 13 14  2  0  0  0
 14 15  1  0  0  0
 14 17  1  0  0  0
 15 16  2  0  0  0
 20 21  1  0  0  0
M  END
> <minimizedAffinity>
-8.48768

$$$$
2301


 24 27  0  0  0  0  0  0  0  0999 V2000
   51.0581  100.8199   27.5157 C   0  0  0  0  0  0  0  0  0  0  0  0
   50.7704   99.7229   26.5448 C   0  0  0  0  0  0  0  0  0  0  0  0
   50.7897   98.3571   27.2533 C   0  0  0  0  0  0  0  0  0  0  0  0
   52.1923   98.2322   27.6758 N   0  0  0  0  0  0  0  0  0  0  0  0
   52.5983   99.1758   28.6687 C   0  0  0  0  0  0  0  0  0  0  0  0
   52.2920  100.6002   28.3081 C   0  0  0  0  0  0  0  0  0  0  0  0
   51.2651  101.9816   26.7285 O   0  0  0  0  0  0  0  0  0  0  0  0
   52.2283  101.9624   26.4365 H   0  0  0  0  0  0  0  0  0  0  0  0
   52.9953   97.2269   27.0854 C   0  0  0  0  0  0  0  0  0  0  0  0
   54.2376   97.5291   26.6707 N   0  0  0  0  0  0  0  0  0  0  0  0
   55.0831   96.6814   26.1182 N   0  0  0  0  0  0  0  0  0  0  0  0
   56.3311   96.7609   25.6490 N   0  0  0  0  0  0  0  0  0  0  0  0
   56.7287   95.5946   25.1920 N   0  0  0  0  0  0  0  0  0  0  0  0
   55.7467   94.7526   25.3631 N   0  0  0  0  0  0  0  0  0  0  0  0
   54.7132   95.4147   25.9389 C   0  0  0  0  0  0  0  0  0  0  0  0
   53.4464   95.0280   26.3417 C   0  0  0  0  0  0  0  0  0  0  0  0
   52.5752   95.9286   26.9173 C   0  0  0  0  0  0  0  0  0  0  0  0
   46.3444  102.1065   31.0520 Cl  0  0  0  0  0  0  0  0  0  0  0  0
   47.7004  101.7352   30.0073 C   0  0  0  0  0  0  0  0  0  0  0  0
   47.5293  101.3284   28.6908 C   0  0  0  0  0  0  0  0  0  0  0  0
   48.5624  101.0222   27.8491 C   0  0  0  0  0  0  0  0  0  0  0  0
   49.8476  101.1137   28.3001 C   0  0  0  0  0  0  0  0  0  0  0  0
   50.0526  101.5218   29.6172 C   0  0  0  0  0  0  0  0  0  0  0  0
   48.9954  101.8259   30.4528 C   0  0  0  0  0  0  0  0  0  0  0  0
 18 19  1  0  0  0
 19 20  2  0  0  0
 19 24  1  0  0  0
 20 21  1  0  0  0
 21 22  2  0  0  0
 22 23  1  0  0  0
 22  1  1  0  0  0
 23 24  2  0  0  0
  1  2  1  0  0  0
  1  6  1  0  0  0
  1  7  1  0  0  0
  2  3  1  0  0  0
  3  4  1  0  0  0
  4  5  1  0  0  0
  4  9  1  0  0  0
  5  6  1  0  0  0
  9 10  2  0  0  0
  9 17  1  0  0  0
 10 11  1  0  0  0
 11 12  1  0  0  0
 11 15  1  0  0  0
 12 13  2  0  0  0
 13 14  1  0  0  0
 14 15  2  0  0  0
 15 16  1  0  0  0
 16 17  2  0  0  0
  7  8  1  0  0  0
M  END
> <minimizedAffinity>
-8.99502

$$$$
2304


 28 31  0  0  0  0  0  0  0  0999 V2000
   55.6486   85.4219   24.3527 N   0  0  0  0  0  0  0  0  0  0  0  0
   54.4845   85.5617   23.5631 C   0  0  0  0  0  0  0  0  0  0  0  0
   53.2300   84.9956   24.1746 C   0  0  0  0  0  0  0  0  0  0  0  0
   53.1002   85.2925   25.5736 N   0  0  0  0  0  0  0  0  0  0  0  0
   54.2628   85.8244   26.2394 C   0  0  0  0  0  0  0  0  0  0  0  0
   55.4651   85.0471   25.7110 C   0  0  0  0  0  0  0  0  0  0  0  0
   51.8832   85.0581   26.2344 C   0  0  0  0  0  0  0  0  0  0  0  0
   50.9369   84.5764   25.5494 O   0  0  0  0  0  0  0  0  0  0  0  0
   51.6444   85.3404   27.6766 C   0  0  0  0  0  0  0  0  0  0  0  0
   52.0054   84.2421   28.4956 N   0  0  0  0  0  0  0  0  0  0  0  0
   50.9850   83.2800   28.7579 C   0  0  0  0  0  0  0  0  0  0  0  0
   49.4813   84.2779   28.7369 S   0  0  0  0  0  0  0  0  0  0  0  0
   50.2310   85.7592   27.9517 C   0  0  0  0  0  0  0  0  0  0  0  0
   51.2481   82.8992   30.2021 C   0  0  0  0  0  0  0  0  0  0  0  0
   52.7657   82.6875   30.1204 C   0  0  0  0  0  0  0  0  0  0  0  0
   53.1682   83.7476   29.1997 C   0  0  0  0  0  0  0  0  0  0  0  0
   54.3649   84.1447   29.0674 O   0  0  0  0  0  0  0  0  0  0  0  0
   50.9434   82.1068   27.8623 C   0  0  0  0  0  0  0  0  0  0  0  0
   56.8793   86.5529   24.0605 S   0  0  0  0  0  0  0  0  0  0  0  0
   57.4781   87.0376   25.3434 O   0  0  0  0  0  0  0  0  0  0  0  0
   57.9856   85.8654   23.2991 O   0  0  0  0  0  0  0  0  0  0  0  0
   56.3493   87.9046   23.0635 C   0  0  0  0  0  0  0  0  0  0  0  0
   56.4976   87.8644   21.6950 C   0  0  0  0  0  0  0  0  0  0  0  0
   56.0959   88.9029   20.8880 C   0  0  0  0  0  0  0  0  0  0  0  0
   55.5201   90.0435   21.4182 C   0  0  0  0  0  0  0  0  0  0  0  0
   55.3846   90.0541   22.7964 C   0  0  0  0  0  0  0  0  0  0  0  0
   55.7803   89.0249   23.6140 C   0  0  0  0  0  0  0  0  0  0  0  0
   54.9977   91.3844   20.4205 Cl  0  0  0  0  0  0  0  0  0  0  0  0
 19 20  2  0  0  0
 19 21  2  0  0  0
 19  1  1  0  0  0
 19 22  1  0  0  0
  1  2  1  0  0  0
  1  6  1  0  0  0
  2  3  1  0  0  0
  3  4  1  0  0  0
  4  5  1  0  0  0
  4  7  1  0  0  0
  5  6  1  0  0  0
  7  8  2  0  0  0
  7  9  1  0  0  0
  9 10  1  0  0  0
  9 13  1  0  0  0
 10 11  1  0  0  0
 10 16  1  0  0  0
 11 12  1  0  0  0
 11 14  1  0  0  0
 11 18  1  0  0  0
 12 13  1  0  0  0
 14 15  1  0  0  0
 15 16  1  0  0  0
 16 17  2  0  0  0
 22 23  2  0  0  0
 22 27  1  0  0  0
 23 24  1  0  0  0
 24 25  2  0  0  0
 25 26  1  0  0  0
 25 28  1  0  0  0
 26 27  2  0  0  0
M  END
> <minimizedAffinity>
-8.22116

$$$$
2319


 33 36  0  0  0  0  0  0  0  0999 V2000
   50.0511  100.6003   28.6427 N   0  0  0  0  0  0  0  0  0  0  0  0
   50.3429   99.2429   28.9027 C   0  0  0  0  0  0  0  0  0  0  0  0
   50.6955   98.8783   30.0436 O   0  0  0  0  0  0  0  0  0  0  0  0
   49.7522  100.9749   27.7172 H   0  0  0  0  0  0  0  0  0  0  0  0
   45.6696  104.9108   32.8586 Br  0  0  0  0  0  0  0  0  0  0  0  0
   47.4788  104.3772   32.5337 C   0  0  0  0  0  0  0  0  0  0  0  0
   47.8000  103.4638   31.5505 C   0  0  0  0  0  0  0  0  0  0  0  0
   49.1050  103.0721   31.3050 C   0  0  0  0  0  0  0  0  0  0  0  0
   50.0771  103.6428   32.0973 C   0  0  0  0  0  0  0  0  0  0  0  0
   49.7957  104.5562   33.0882 C   0  0  0  0  0  0  0  0  0  0  0  0
   48.4846  104.9381   33.3209 C   0  0  0  0  0  0  0  0  0  0  0  0
   51.1928  105.3112   34.1522 Br  0  0  0  0  0  0  0  0  0  0  0  0
   49.1658  102.1062   30.2182 C   0  0  0  0  0  0  0  0  0  0  0  0
   50.1722  101.5116   29.6961 N   0  0  0  0  0  0  0  0  0  0  0  0
   47.7781  101.9110   29.7842 C   0  0  0  0  0  0  0  0  0  0  0  0
   47.4364  101.1352   28.8518 O   0  0  0  0  0  0  0  0  0  0  0  0
   46.9995  102.7484   30.6157 N   0  0  0  0  0  0  0  0  0  0  0  0
   45.9708  102.8329   30.5549 H   0  0  0  0  0  0  0  0  0  0  0  0
   50.2479   98.1869   27.8456 C   0  0  0  0  0  0  0  0  0  0  0  0
   51.3391   97.2546   27.9175 N   0  0  0  0  0  0  0  0  0  0  0  0
   52.6366   97.5445   27.4147 C   0  0  0  0  0  0  0  0  0  0  0  0
   52.8329   98.6613   26.8880 O   0  0  0  0  0  0  0  0  0  0  0  0
   51.2188   96.3095   28.3518 H   0  0  0  0  0  0  0  0  0  0  0  0
   53.7795   96.5850   27.4796 C   0  0  0  0  0  0  0  0  0  0  0  0
   55.0045   97.2411   27.6206 O   0  0  0  0  0  0  0  0  0  0  0  0
   55.9855   97.3170   26.6343 C   0  0  0  0  0  0  0  0  0  0  0  0
   55.9143   96.4035   25.6160 C   0  0  0  0  0  0  0  0  0  0  0  0
   56.8844   96.4552   24.6148 C   0  0  0  0  0  0  0  0  0  0  0  0
   57.9004   97.3835   24.6174 C   0  0  0  0  0  0  0  0  0  0  0  0
   57.9397   98.2883   25.6605 C   0  0  0  0  0  0  0  0  0  0  0  0
   56.9859   98.2423   26.6502 C   0  0  0  0  0  0  0  0  0  0  0  0
   54.9088   95.4767   25.6043 O   0  0  0  0  0  0  0  0  0  0  0  0
   53.7472   95.5821   26.3802 C   0  0  0  0  0  0  0  0  0  0  0  0
  5  6  1  0  0  0
  6  7  2  0  0  0
  6 11  1  0  0  0
  7  8  1  0  0  0
  7 17  1  0  0  0
  8  9  2  0  0  0
  8 13  1  0  0  0
  9 10  1  0  0  0
 10 11  2  0  0  0
 10 12  1  0  0  0
 13 14  2  0  0  0
 13 15  1  0  0  0
 14  1  1  0  0  0
  1  2  1  0  0  0
  2  3  2  0  0  0
  2 19  1  0  0  0
 19 20  1  0  0  0
 20 21  1  0  0  0
 21 22  2  0  0  0
 21 24  1  0  0  0
 24 25  1  0  0  0
 24 33  1  0  0  0
 25 26  1  0  0  0
 26 27  2  0  0  0
 26 31  1  0  0  0
 27 28  1  0  0  0
 27 32  1  0  0  0
 28 29  2  0  0  0
 29 30  1  0  0  0
 30 31  2  0  0  0
 32 33  1  0  0  0
 15 16  2  0  0  0
 15 17  1  0  0  0
  1  4  1  0  0  0
 20 23  1  0  0  0
 17 18  1  0  0  0
M  END
> <minimizedAffinity>
-10.11231

$$$$
2330


 28 31  0  0  0  0  0  0  0  0999 V2000
   53.8789   85.3745   21.1979 C   0  0  0  0  0  0  0  0  0  0  0  0
   54.6285   84.6440   20.5102 O   0  0  0  0  0  0  0  0  0  0  0  0
   52.8134   86.0340   20.5826 N   0  0  0  0  0  0  0  0  0  0  0  0
   52.2234   86.6282   21.2681 H   0  0  0  0  0  0  0  0  0  0  0  0
   51.9901   83.9841   23.0501 Cl  0  0  0  0  0  0  0  0  0  0  0  0
   53.3914   84.8921   23.5978 C   0  0  0  0  0  0  0  0  0  0  0  0
   54.1827   85.4859   22.6365 C   0  0  0  0  0  0  0  0  0  0  0  0
   55.2767   86.1936   23.0868 C   0  0  0  0  0  0  0  0  0  0  0  0
   55.6144   86.3360   24.4073 C   0  0  0  0  0  0  0  0  0  0  0  0
   54.7801   85.7153   25.3437 C   0  0  0  0  0  0  0  0  0  0  0  0
   53.6785   84.9982   24.9567 C   0  0  0  0  0  0  0  0  0  0  0  0
   56.7748   87.0890   24.8612 C   0  0  0  0  0  0  0  0  0  0  0  0
   58.0719   86.7762   24.7900 N   0  0  0  0  0  0  0  0  0  0  0  0
   58.7911   87.7712   25.3342 N   0  0  0  0  0  0  0  0  0  0  0  0
   57.9543   88.7066   25.7471 N   0  0  0  0  0  0  0  0  0  0  0  0
   56.7197   88.2905   25.4569 N   0  0  0  0  0  0  0  0  0  0  0  0
   59.8319   87.8175   25.4260 H   0  0  0  0  0  0  0  0  0  0  0  0
   52.3859   86.0564   19.2437 C   0  0  0  0  0  0  0  0  0  0  0  0
   52.9017   87.0551   18.2986 C   0  0  0  0  0  0  0  0  0  0  0  0
   52.6346   88.4724   18.5281 C   0  0  0  0  0  0  0  0  0  0  0  0
   53.1561   89.5190   17.8793 N   0  0  0  0  0  0  0  0  0  0  0  0
   52.6162   90.6235   18.3694 C   0  0  0  0  0  0  0  0  0  0  0  0
   51.7538   90.2641   19.3292 N   0  0  0  0  0  0  0  0  0  0  0  0
   51.7680   88.9621   19.4219 N   0  0  0  0  0  0  0  0  0  0  0  0
   52.9482   91.8790   17.9068 C   0  0  0  0  0  0  0  0  0  0  0  0
   53.8842   91.9546   16.8917 C   0  0  0  0  0  0  0  0  0  0  0  0
   54.4372   90.8072   16.3916 C   0  0  0  0  0  0  0  0  0  0  0  0
   54.0677   89.5927   16.8896 C   0  0  0  0  0  0  0  0  0  0  0  0
  5  6  1  0  0  0
  6  7  2  0  0  0
  6 11  1  0  0  0
  7  8  1  0  0  0
  7  1  1  0  0  0
  8  9  2  0  0  0
  9 10  1  0  0  0
  9 12  1  0  0  0
 10 11  2  0  0  0
 12 13  2  0  0  0
 12 16  1  0  0  0
 13 14  1  0  0  0
 14 15  1  0  0  0
 15 16  2  0  0  0
  1  2  2  0  0  0
  1  3  1  0  0  0
  3 18  1  0  0  0
 18 19  1  0  0  0
 19 20  1  0  0  0
 20 21  1  0  0  0
 20 24  2  0  0  0
 21 22  1  0  0  0
 21 28  1  0  0  0
 22 23  2  0  0  0
 22 25  1  0  0  0
 23 24  1  0  0  0
 25 26  2  0  0  0
 26 27  1  0  0  0
 27 28  2  0  0  0
 14 17  1  0  0  0
  3  4  1  0  0  0
M  END
> <minimizedAffinity>
-9.69192

$$$$
2334


 30 33  0  0  0  0  0  0  0  0999 V2000
   49.0770  101.5856   28.3709 S   0  0  0  0  0  0  0  0  0  0  0  0
   47.7582  101.8589   27.6438 O   0  0  0  0  0  0  0  0  0  0  0  0
   50.1382  102.2226   27.4660 O   0  0  0  0  0  0  0  0  0  0  0  0
   49.3736   99.8994   28.4264 C   0  0  0  0  0  0  0  0  0  0  0  0
   48.4078   98.9865   28.7726 C   0  0  0  0  0  0  0  0  0  0  0  0
   48.6918   97.6295   28.7353 C   0  0  0  0  0  0  0  0  0  0  0  0
   49.9512   97.1597   28.3526 C   0  0  0  0  0  0  0  0  0  0  0  0
   50.9297   98.0641   28.0059 C   0  0  0  0  0  0  0  0  0  0  0  0
   50.6285   99.4050   28.0488 C   0  0  0  0  0  0  0  0  0  0  0  0
   46.8182   99.4377   29.3510 Cl  0  0  0  0  0  0  0  0  0  0  0  0
   52.2516   97.6019   27.6049 C   0  0  0  0  0  0  0  0  0  0  0  0
   52.5858   96.3415   27.2803 N   0  0  0  0  0  0  0  0  0  0  0  0
   53.8519   96.2832   26.9716 O   0  0  0  0  0  0  0  0  0  0  0  0
   54.3719   97.4766   27.0822 C   0  0  0  0  0  0  0  0  0  0  0  0
   53.3873   98.3067   27.4760 N   0  0  0  0  0  0  0  0  0  0  0  0
   55.8016   97.8656   26.8229 C   0  0  0  0  0  0  0  0  0  0  0  0
   48.9953  102.4158   29.8457 N   0  0  0  0  0  0  0  0  0  0  0  0
   47.7250  102.4726   30.4769 C   0  0  0  0  0  0  0  0  0  0  0  0
   47.7476  103.2013   31.8003 C   0  0  0  0  0  0  0  0  0  0  0  0
   48.7567  102.5931   32.7123 C   0  0  0  0  0  0  0  0  0  0  0  0
   50.1052  102.4321   32.0319 C   0  0  0  0  0  0  0  0  0  0  0  0
   49.9142  101.6963   30.7518 C   0  0  0  0  0  0  0  0  0  0  0  0
   47.8196  104.6714   31.6800 C   0  0  0  0  0  0  0  0  0  0  0  0
   48.6730  105.1064   30.8214 O   0  0  0  0  0  0  0  0  0  0  0  0
   47.0783  105.6152   32.3770 N   0  0  0  0  0  0  0  0  0  0  0  0
   47.2225  107.0164   32.1341 C   0  0  0  0  0  0  0  0  0  0  0  0
   45.9351  107.7850   32.2421 C   0  0  0  0  0  0  0  0  0  0  0  0
   44.9737  107.2134   33.0155 O   0  0  0  0  0  0  0  0  0  0  0  0
   44.8113  105.8486   32.8984 C   0  0  0  0  0  0  0  0  0  0  0  0
   46.1314  105.2380   33.3978 C   0  0  0  0  0  0  0  0  0  0  0  0
  1  2  2  0  0  0
  1  3  2  0  0  0
  1 17  1  0  0  0
  1  4  1  0  0  0
 17 18  1  0  0  0
 17 22  1  0  0  0
 18 19  1  0  0  0
 19 20  1  0  0  0
 19 23  1  0  0  0
 20 21  1  0  0  0
 21 22  1  0  0  0
 23 24  2  0  0  0
 23 25  1  0  0  0
 25 26  1  0  0  0
 25 30  1  0  0  0
 26 27  1  0  0  0
 27 28  1  0  0  0
 28 29  1  0  0  0
 29 30  1  0  0  0
  4  5  2  0  0  0
  4  9  1  0  0  0
  5  6  1  0  0  0
  5 10  1  0  0  0
  6  7  2  0  0  0
  7  8  1  0  0  0
  8  9  2  0  0  0
  8 11  1  0  0  0
 11 12  2  0  0  0
 11 15  1  0  0  0
 12 13  1  0  0  0
 13 14  1  0  0  0
 14 15  2  0  0  0
 14 16  1  0  0  0
M  END
> <minimizedAffinity>
-9.15721

$$$$
2335


 35 38  0  0  0  0  0  0  0  0999 V2000
   53.4926   84.8160   22.7345 N   0  0  0  0  0  0  0  0  0  0  0  0
   53.9558   85.3146   23.9682 C   0  0  0  0  0  0  0  0  0  0  0  0
   54.2764   84.2336   24.9775 C   0  0  0  0  0  0  0  0  0  0  0  0
   53.4998   82.9858   24.7981 C   0  0  0  0  0  0  0  0  0  0  0  0
   52.2846   83.0622   23.9480 C   0  0  0  0  0  0  0  0  0  0  0  0
   52.3860   83.9652   22.7451 C   0  0  0  0  0  0  0  0  0  0  0  0
   54.1179   84.7396   26.3649 C   0  0  0  0  0  0  0  0  0  0  0  0
   54.5339   85.8960   26.6212 O   0  0  0  0  0  0  0  0  0  0  0  0
   53.5000   83.9154   27.3786 N   0  0  0  0  0  0  0  0  0  0  0  0
   53.2048   82.9868   27.0667 H   0  0  0  0  0  0  0  0  0  0  0  0
   53.3796   84.4636   28.6802 C   0  0  0  0  0  0  0  0  0  0  0  0
   52.0284   84.7379   29.2223 C   0  0  0  0  0  0  0  0  0  0  0  0
   50.9209   84.7604   28.3410 N   0  0  0  0  0  0  0  0  0  0  0  0
   50.3322   85.9850   28.0493 C   0  0  0  0  0  0  0  0  0  0  0  0
   48.9252   86.1877   28.5325 C   0  0  0  0  0  0  0  0  0  0  0  0
   48.1456   85.0485   28.3976 O   0  0  0  0  0  0  0  0  0  0  0  0
   48.7164   84.0795   29.2223 C   0  0  0  0  0  0  0  0  0  0  0  0
   50.0142   83.6598   28.5714 C   0  0  0  0  0  0  0  0  0  0  0  0
   54.3014   85.1874   21.3309 S   0  0  0  0  0  0  0  0  0  0  0  0
   54.6381   83.8873   20.6027 O   0  0  0  0  0  0  0  0  0  0  0  0
   55.6681   85.7532   21.6967 O   0  0  0  0  0  0  0  0  0  0  0  0
   53.5292   86.2925   20.2548 C   0  0  0  0  0  0  0  0  0  0  0  0
   53.7338   87.6571   20.3907 C   0  0  0  0  0  0  0  0  0  0  0  0
   53.1538   88.5777   19.5519 C   0  0  0  0  0  0  0  0  0  0  0  0
   52.3233   88.1224   18.5210 C   0  0  0  0  0  0  0  0  0  0  0  0
   52.1291   86.7859   18.3965 C   0  0  0  0  0  0  0  0  0  0  0  0
   52.7153   85.8592   19.2427 C   0  0  0  0  0  0  0  0  0  0  0  0
   52.3611   83.9817   18.9702 Br  0  0  0  0  0  0  0  0  0  0  0  0
   51.7984   89.2710   17.7338 C   0  0  0  0  0  0  0  0  0  0  0  0
   51.9591   90.4125   18.7170 C   0  0  0  0  0  0  0  0  0  0  0  0
   53.1731   89.9926   19.4267 N   0  0  0  0  0  0  0  0  0  0  0  0
   54.1451   90.8851   19.8740 C   0  0  0  0  0  0  0  0  0  0  0  0
   54.0191   92.1344   19.6286 O   0  0  0  0  0  0  0  0  0  0  0  0
   55.3355   90.4906   20.6242 C   0  0  0  0  0  0  0  0  0  0  0  0
   56.5164   90.1869   19.7053 C   0  0  0  0  0  0  0  0  0  0  0  0
 19 20  2  0  0  0
 19 21  2  0  0  0
 19  1  1  0  0  0
 19 22  1  0  0  0
  1  2  1  0  0  0
  1  6  1  0  0  0
  2  3  1  0  0  0
  3  4  1  0  0  0
  3  7  1  0  0  0
  4  5  1  0  0  0
  5  6  1  0  0  0
  7  8  2  0  0  0
  7  9  1  0  0  0
  9 11  1  0  0  0
 11 12  1  0  0  0
 12 13  1  0  0  0
 13 14  1  0  0  0
 13 18  1  0  0  0
 14 15  1  0  0  0
 15 16  1  0  0  0
 16 17  1  0  0  0
 17 18  1  0  0  0
 22 23  2  0  0  0
 22 27  1  0  0  0
 23 24  1  0  0  0
 24 25  2  0  0  0
 24 31  1  0  0  0
 25 26  1  0  0  0
 25 29  1  0  0  0
 26 27  2  0  0  0
 27 28  1  0  0  0
 29 30  1  0  0  0
 30 31  1  0  0  0
 31 32  1  0  0  0
 32 33  2  0  0  0
 32 34  1  0  0  0
 34 35  1  0  0  0
  9 10  1  0  0  0
M  END
> <minimizedAffinity>
-9.39017

$$$$
2345


 27 30  0  0  0  0  0  0  0  0999 V2000
   56.0474   89.0738   22.7603 C   0  0  0  0  0  0  0  0  0  0  0  0
   55.7390   89.5757   23.9052 O   0  0  0  0  0  0  0  0  0  0  0  0
   56.0197   89.9536   21.6731 N   0  0  0  0  0  0  0  0  0  0  0  0
   55.6457   91.3453   21.8661 C   0  0  0  0  0  0  0  0  0  0  0  0
   54.4593   91.7088   20.9788 C   0  0  0  0  0  0  0  0  0  0  0  0
   54.5622   90.9880   19.7444 N   0  0  0  0  0  0  0  0  0  0  0  0
   55.8573   90.5797   19.2922 C   0  0  0  0  0  0  0  0  0  0  0  0
   56.3532   89.5509   20.3274 C   0  0  0  0  0  0  0  0  0  0  0  0
   55.2425   86.0117   24.0154 N   0  0  0  0  0  0  0  0  0  0  0  0
   55.2107   86.7115   22.7368 C   0  0  0  0  0  0  0  0  0  0  0  0
   56.3880   87.6462   22.7346 C   0  0  0  0  0  0  0  0  0  0  0  0
   57.3193   87.1825   23.8044 C   0  0  0  0  0  0  0  0  0  0  0  0
   56.6280   86.0272   24.4227 C   0  0  0  0  0  0  0  0  0  0  0  0
   57.0857   85.1305   25.2036 O   0  0  0  0  0  0  0  0  0  0  0  0
   50.6638   83.5345   26.9939 Cl  0  0  0  0  0  0  0  0  0  0  0  0
   52.0109   84.2667   26.1230 C   0  0  0  0  0  0  0  0  0  0  0  0
   52.9273   85.0467   26.7767 C   0  0  0  0  0  0  0  0  0  0  0  0
   53.9790   85.6148   26.0818 C   0  0  0  0  0  0  0  0  0  0  0  0
   54.1559   85.4287   24.7277 C   0  0  0  0  0  0  0  0  0  0  0  0
   53.2263   84.6405   24.0830 C   0  0  0  0  0  0  0  0  0  0  0  0
   52.1559   84.0607   24.7790 C   0  0  0  0  0  0  0  0  0  0  0  0
   53.4121   90.6761   18.9886 C   0  0  0  0  0  0  0  0  0  0  0  0
   52.7757   89.4734   18.9330 N   0  0  0  0  0  0  0  0  0  0  0  0
   51.7215   89.5762   18.1127 C   0  0  0  0  0  0  0  0  0  0  0  0
   51.6765   90.8626   17.6298 C   0  0  0  0  0  0  0  0  0  0  0  0
   52.7043   91.4868   18.1775 N   0  0  0  0  0  0  0  0  0  0  0  0
   53.1838   88.2608   19.6546 C   0  0  0  0  0  0  0  0  0  0  0  0
 15 16  1  0  0  0
 16 17  2  0  0  0
 16 21  1  0  0  0
 17 18  1  0  0  0
 18 19  2  0  0  0
 19 20  1  0  0  0
 19  9  1  0  0  0
 20 21  2  0  0  0
  9 10  1  0  0  0
  9 13  1  0  0  0
 10 11  1  0  0  0
 11 12  1  0  0  0
 11  1  1  0  0  0
 12 13  1  0  0  0
 13 14  2  0  0  0
  1  2  2  0  0  0
  1  3  1  0  0  0
  3  4  1  0  0  0
  3  8  1  0  0  0
  4  5  1  0  0  0
  5  6  1  0  0  0
  6  7  1  0  0  0
  6 22  1  0  0  0
  7  8  1  0  0  0
 22 23  1  0  0  0
 22 26  2  0  0  0
 23 24  1  0  0  0
 23 27  1  0  0  0
 24 25  2  0  0  0
 25 26  1  0  0  0
M  END
> <minimizedAffinity>
-8.27648

$$$$
2349


 28 31  0  0  0  0  0  0  0  0999 V2000
   54.1243   82.7302   19.3017 N   0  0  0  0  0  0  0  0  0  0  0  0
   53.9151   82.0161   20.5287 C   0  0  0  0  0  0  0  0  0  0  0  0
   54.0281   80.7579   20.5272 O   0  0  0  0  0  0  0  0  0  0  0  0
   53.5924   82.7900   21.6710 N   0  0  0  0  0  0  0  0  0  0  0  0
   53.4672   84.0427   21.6897 C   0  0  0  0  0  0  0  0  0  0  0  0
   53.6276   84.9581   20.5075 C   0  0  0  0  0  0  0  0  0  0  0  0
   52.2564   85.5314   20.2857 C   0  0  0  0  0  0  0  0  0  0  0  0
   52.1707   86.7730   19.6195 N   0  0  0  0  0  0  0  0  0  0  0  0
   53.1454   87.7377   19.9678 C   0  0  0  0  0  0  0  0  0  0  0  0
   54.3088   87.3503   20.5511 C   0  0  0  0  0  0  0  0  0  0  0  0
   55.2445   88.3282   20.8778 C   0  0  0  0  0  0  0  0  0  0  0  0
   54.9770   89.6550   20.6084 C   0  0  0  0  0  0  0  0  0  0  0  0
   53.7881   90.0495   20.0135 C   0  0  0  0  0  0  0  0  0  0  0  0
   52.8605   89.0604   19.6915 C   0  0  0  0  0  0  0  0  0  0  0  0
   55.9583   90.7310   20.9574 C   0  0  0  0  0  0  0  0  0  0  0  0
   54.6664   85.9500   20.8657 C   0  0  0  0  0  0  0  0  0  0  0  0
   52.0494   86.6994   18.1718 C   0  0  0  0  0  0  0  0  0  0  0  0
   54.0041   84.1411   19.3281 C   0  0  0  0  0  0  0  0  0  0  0  0
   54.2584   84.7047   18.2036 O   0  0  0  0  0  0  0  0  0  0  0  0
   53.1496   84.7060   22.8896 O   0  0  0  0  0  0  0  0  0  0  0  0
   51.2460   87.2179   19.9249 H   0  0  0  0  0  0  0  0  0  0  0  0
   55.2268   79.4898   14.3495 Cl  0  0  0  0  0  0  0  0  0  0  0  0
   54.9331   80.4261   15.8029 C   0  0  0  0  0  0  0  0  0  0  0  0
   53.6377   80.8015   16.1602 C   0  0  0  0  0  0  0  0  0  0  0  0
   53.3909   81.5389   17.2865 C   0  0  0  0  0  0  0  0  0  0  0  0
   54.4048   81.9637   18.1475 C   0  0  0  0  0  0  0  0  0  0  0  0
   55.6868   81.5849   17.7845 C   0  0  0  0  0  0  0  0  0  0  0  0
   55.9372   80.8448   16.6540 C   0  0  0  0  0  0  0  0  0  0  0  0
 22 23  1  0  0  0
 23 24  2  0  0  0
 23 28  1  0  0  0
 24 25  1  0  0  0
 25 26  2  0  0  0
 26 27  1  0  0  0
 26  1  1  0  0  0
 27 28  2  0  0  0
  1  2  1  0  0  0
  1 18  1  0  0  0
  2  3  2  0  0  0
  2  4  1  0  0  0
  4  5  2  0  0  0
  5  6  1  0  0  0
  5 20  1  0  0  0
  6  7  1  0  0  0
  6 16  1  0  0  0
  6 18  1  0  0  0
  7  8  1  0  0  0
  8  9  1  0  0  0
  8 17  1  0  0  0
  9 10  2  0  0  0
  9 14  1  0  0  0
 10 11  1  0  0  0
 10 16  1  0  0  0
 11 12  2  0  0  0
 12 13  1  0  0  0
 12 15  1  0  0  0
 13 14  2  0  0  0
 18 19  2  0  0  0
  8 21  1  0  0  0
M  CHG 1   8   1
M  CHG 1  20  -1
M  END
> <minimizedAffinity>
-8.21501

$$$$
2350


 23 26  0  0  0  0  0  0  0  0999 V2000
   54.9182   88.0985   20.8955 N   0  0  0  0  0  0  0  0  0  0  0  0
   56.3179   88.2284   21.1938 C   0  0  0  0  0  0  0  0  0  0  0  0
   57.0342   89.1615   20.7517 O   0  0  0  0  0  0  0  0  0  0  0  0
   56.7719   87.1246   22.0760 C   0  0  0  0  0  0  0  0  0  0  0  0
   57.2315   87.5803   23.4228 C   0  0  0  0  0  0  0  0  0  0  0  0
   56.4447   88.8264   23.7711 C   0  0  0  0  0  0  0  0  0  0  0  0
   55.0276   88.2672   23.8875 C   0  0  0  0  0  0  0  0  0  0  0  0
   55.1572   86.7689   23.7411 C   0  0  0  0  0  0  0  0  0  0  0  0
   55.4845   86.3357   22.3467 C   0  0  0  0  0  0  0  0  0  0  0  0
   54.5215   86.8046   21.3212 C   0  0  0  0  0  0  0  0  0  0  0  0
   53.5341   86.1404   20.9213 O   0  0  0  0  0  0  0  0  0  0  0  0
   56.5503   86.5949   24.3874 C   0  0  0  0  0  0  0  0  0  0  0  0
   54.5087   88.4863   25.1619 O   0  0  0  0  0  0  0  0  0  0  0  0
   56.8353   89.2354   25.0279 O   0  0  0  0  0  0  0  0  0  0  0  0
   54.0086   89.3565   25.1321 H   0  0  0  0  0  0  0  0  0  0  0  0
   57.8079   89.2323   25.1848 H   0  0  0  0  0  0  0  0  0  0  0  0
   51.2506   92.1487   18.4287 Cl  0  0  0  0  0  0  0  0  0  0  0  0
   52.3238   90.9468   19.1425 C   0  0  0  0  0  0  0  0  0  0  0  0
   53.3816   91.3381   19.9410 C   0  0  0  0  0  0  0  0  0  0  0  0
   54.2289   90.4179   20.5103 C   0  0  0  0  0  0  0  0  0  0  0  0
   54.0445   89.0463   20.2977 C   0  0  0  0  0  0  0  0  0  0  0  0
   52.9821   88.6946   19.4982 C   0  0  0  0  0  0  0  0  0  0  0  0
   52.1194   89.5929   18.9168 C   0  0  0  0  0  0  0  0  0  0  0  0
 17 18  1  0  0  0
 18 19  2  0  0  0
 18 23  1  0  0  0
 19 20  1  0  0  0
 20 21  2  0  0  0
 21 22  1  0  0  0
 21  1  1  0  0  0
 22 23  2  0  0  0
  1  2  1  0  0  0
  1 10  1  0  0  0
  2  3  2  0  0  0
  2  4  1  0  0  0
  4  5  1  0  0  0
  4  9  1  0  0  0
  5  6  1  0  0  0
  5 12  1  0  0  0
  6  7  1  0  0  0
  6 14  1  0  0  0
  7  8  1  0  0  0
  7 13  1  0  0  0
  8  9  1  0  0  0
  8 12  1  0  0  0
  9 10  1  0  0  0
 10 11  2  0  0  0
 13 15  1  0  0  0
 14 16  1  0  0  0
M  END
> <minimizedAffinity>
-8.75889

$$$$
2357


 36 39  0  0  0  0  0  0  0  0999 V2000
   55.5161   86.6346   25.3942 C   0  0  0  0  0  0  0  0  0  0  0  0
   54.2193   86.8490   25.2875 C   0  0  0  0  0  0  0  0  0  0  0  0
   53.4672   85.6626   25.7677 C   0  0  0  0  0  0  0  0  0  0  0  0
   54.4427   84.9705   26.5630 N   0  0  0  0  0  0  0  0  0  0  0  0
   55.6512   85.3298   25.9470 N   0  0  0  0  0  0  0  0  0  0  0  0
   54.3004   83.9658   26.6520 H   0  0  0  0  0  0  0  0  0  0  0  0
   56.4975   84.7273   25.9111 H   0  0  0  0  0  0  0  0  0  0  0  0
   56.4415   87.8763   22.5133 N   0  0  0  0  0  0  0  0  0  0  0  0
   57.4067   86.8504   22.3304 C   0  0  0  0  0  0  0  0  0  0  0  0
   57.6017   86.4413   21.1328 O   0  0  0  0  0  0  0  0  0  0  0  0
   58.1059   86.3206   23.4193 N   0  0  0  0  0  0  0  0  0  0  0  0
   57.8686   86.7937   24.7302 C   0  0  0  0  0  0  0  0  0  0  0  0
   58.6847   86.5682   25.6445 O   0  0  0  0  0  0  0  0  0  0  0  0
   56.6394   87.5637   25.0244 C   0  0  0  0  0  0  0  0  0  0  0  0
   56.2141   88.3407   23.8356 C   0  0  0  0  0  0  0  0  0  0  0  0
   55.6426   89.4310   24.0091 O   0  0  0  0  0  0  0  0  0  0  0  0
   58.8165   85.5572   23.2249 H   0  0  0  0  0  0  0  0  0  0  0  0
   53.5446   90.1188   17.7829 Cl  0  0  0  0  0  0  0  0  0  0  0  0
   54.4011   89.4568   19.1816 C   0  0  0  0  0  0  0  0  0  0  0  0
   55.6264   89.9483   19.5560 C   0  0  0  0  0  0  0  0  0  0  0  0
   56.2802   89.4197   20.6505 C   0  0  0  0  0  0  0  0  0  0  0  0
   55.7413   88.4012   21.3936 C   0  0  0  0  0  0  0  0  0  0  0  0
   54.5211   87.9112   21.0201 C   0  0  0  0  0  0  0  0  0  0  0  0
   53.8421   88.4358   19.9124 C   0  0  0  0  0  0  0  0  0  0  0  0
   52.9817   84.9176   24.6120 C   0  0  0  0  0  0  0  0  0  0  0  0
   51.7173   84.3714   24.6666 C   0  0  0  0  0  0  0  0  0  0  0  0
   51.1663   83.6524   23.6253 C   0  0  0  0  0  0  0  0  0  0  0  0
   51.9412   83.4799   22.4707 C   0  0  0  0  0  0  0  0  0  0  0  0
   53.2106   84.0058   22.3693 C   0  0  0  0  0  0  0  0  0  0  0  0
   53.6955   84.7136   23.4510 C   0  0  0  0  0  0  0  0  0  0  0  0
   51.4359   82.7705   21.4047 O   0  0  0  0  0  0  0  0  0  0  0  0
   50.5066   82.3762   21.4577 H   0  0  0  0  0  0  0  0  0  0  0  0
   53.9232   83.8079   21.2244 O   0  0  0  0  0  0  0  0  0  0  0  0
   53.8794   84.5907   20.0670 C   0  0  0  0  0  0  0  0  0  0  0  0
   49.8933   83.0988   23.6700 O   0  0  0  0  0  0  0  0  0  0  0  0
   49.7222   81.9585   24.4866 C   0  0  0  0  0  0  0  0  0  0  0  0
 18 19  1  0  0  0
 19 20  2  0  0  0
 19 24  1  0  0  0
 20 21  1  0  0  0
 21 22  2  0  0  0
 22 23  1  0  0  0
 22  8  1  0  0  0
 23 24  2  0  0  0
  8  9  1  0  0  0
  8 15  1  0  0  0
  9 10  2  0  0  0
  9 11  1  0  0  0
 11 12  1  0  0  0
 12 13  2  0  0  0
 12 14  1  0  0  0
 14 15  1  0  0  0
 14  1  1  0  0  0
 15 16  2  0  0  0
  1  2  2  0  0  0
  1  5  1  0  0  0
  2  3  1  0  0  0
  3  4  1  0  0  0
  3 25  1  0  0  0
  4  5  1  0  0  0
 25 26  2  0  0  0
 25 30  1  0  0  0
 26 27  1  0  0  0
 27 28  2  0  0  0
 27 35  1  0  0  0
 28 29  1  0  0  0
 28 31  1  0  0  0
 29 30  2  0  0  0
 29 33  1  0  0  0
 33 34  1  0  0  0
 35 36  1  0  0  0
 11 17  1  0  0  0
  4  6  1  0  0  0
  5  7  1  0  0  0
 31 32  1  0  0  0
M  END
> <minimizedAffinity>
-9.99461

$$$$
2358


 34 37  0  0  0  0  0  0  0  0999 V2000
   56.0313   87.4393   22.3896 N   0  0  0  0  0  0  0  0  0  0  0  0
   57.2545   86.7422   22.1990 C   0  0  0  0  0  0  0  0  0  0  0  0
   57.6429   86.5292   21.0130 O   0  0  0  0  0  0  0  0  0  0  0  0
   58.0280   86.2920   23.2926 N   0  0  0  0  0  0  0  0  0  0  0  0
   57.6003   86.5262   24.6202 C   0  0  0  0  0  0  0  0  0  0  0  0
   58.3657   86.2893   25.6191 O   0  0  0  0  0  0  0  0  0  0  0  0
   56.2666   87.0498   24.9136 C   0  0  0  0  0  0  0  0  0  0  0  0
   55.6331   87.6559   23.7356 C   0  0  0  0  0  0  0  0  0  0  0  0
   54.6413   88.4478   23.8980 O   0  0  0  0  0  0  0  0  0  0  0  0
   58.9318   85.7765   23.1297 H   0  0  0  0  0  0  0  0  0  0  0  0
   52.6561   89.3537   17.8577 Cl  0  0  0  0  0  0  0  0  0  0  0  0
   53.6583   88.8073   19.1891 C   0  0  0  0  0  0  0  0  0  0  0  0
   54.7109   89.5807   19.6562 C   0  0  0  0  0  0  0  0  0  0  0  0
   55.4717   89.1286   20.6918 C   0  0  0  0  0  0  0  0  0  0  0  0
   55.2339   87.9068   21.3097 C   0  0  0  0  0  0  0  0  0  0  0  0
   54.1880   87.1422   20.8428 C   0  0  0  0  0  0  0  0  0  0  0  0
   53.3935   87.5837   19.7824 C   0  0  0  0  0  0  0  0  0  0  0  0
   55.4170   85.9861   25.5266 C   0  0  0  0  0  0  0  0  0  0  0  0
   54.1786   86.0744   25.9330 C   0  0  0  0  0  0  0  0  0  0  0  0
   53.7949   84.7429   26.4624 C   0  0  0  0  0  0  0  0  0  0  0  0
   55.0612   84.0842   26.7016 N   0  0  0  0  0  0  0  0  0  0  0  0
   55.9033   84.6668   25.7478 N   0  0  0  0  0  0  0  0  0  0  0  0
   55.4048   84.2561   27.6762 H   0  0  0  0  0  0  0  0  0  0  0  0
   56.7246   84.1722   25.3125 H   0  0  0  0  0  0  0  0  0  0  0  0
   53.0015   83.9858   25.4550 C   0  0  0  0  0  0  0  0  0  0  0  0
   52.3073   84.6112   24.4447 C   0  0  0  0  0  0  0  0  0  0  0  0
   51.5668   83.9177   23.5053 C   0  0  0  0  0  0  0  0  0  0  0  0
   51.5037   82.5439   23.5575 C   0  0  0  0  0  0  0  0  0  0  0  0
   52.1902   81.9008   24.5576 C   0  0  0  0  0  0  0  0  0  0  0  0
   52.9248   82.6013   25.4887 C   0  0  0  0  0  0  0  0  0  0  0  0
   50.8905   84.6019   22.5137 O   0  0  0  0  0  0  0  0  0  0  0  0
   50.9218   85.6004   22.4566 H   0  0  0  0  0  0  0  0  0  0  0  0
   50.7704   81.8315   22.6295 O   0  0  0  0  0  0  0  0  0  0  0  0
   49.4162   81.5391   22.8876 C   0  0  0  0  0  0  0  0  0  0  0  0
 11 12  1  0  0  0
 12 13  2  0  0  0
 12 17  1  0  0  0
 13 14  1  0  0  0
 14 15  2  0  0  0
 15 16  1  0  0  0
 15  1  1  0  0  0
 16 17  2  0  0  0
  1  2  1  0  0  0
  1  8  1  0  0  0
  2  3  2  0  0  0
  2  4  1  0  0  0
  4  5  1  0  0  0
  5  6  2  0  0  0
  5  7  1  0  0  0
  7  8  1  0  0  0
  7 18  1  0  0  0
  8  9  2  0  0  0
 18 19  2  0  0  0
 18 22  1  0  0  0
 19 20  1  0  0  0
 20 21  1  0  0  0
 20 25  1  0  0  0
 21 22  1  0  0  0
 25 26  2  0  0  0
 25 30  1  0  0  0
 26 27  1  0  0  0
 27 28  2  0  0  0
 27 31  1  0  0  0
 28 29  1  0  0  0
 28 33  1  0  0  0
 29 30  2  0  0  0
 33 34  1  0  0  0
  4 10  1  0  0  0
 21 23  1  0  0  0
 22 24  1  0  0  0
 31 32  1  0  0  0
M  END
> <minimizedAffinity>
-9.41846

$$$$
2359


 32 35  0  0  0  0  0  0  0  0999 V2000
   53.5625   82.7834   17.6314 N   0  0  0  0  0  0  0  0  0  0  0  0
   54.0702   81.8893   18.6347 C   0  0  0  0  0  0  0  0  0  0  0  0
   54.4000   80.6964   18.3522 O   0  0  0  0  0  0  0  0  0  0  0  0
   54.1839   82.4066   19.9518 N   0  0  0  0  0  0  0  0  0  0  0  0
   53.8008   83.7690   20.2453 C   0  0  0  0  0  0  0  0  0  0  0  0
   54.3203   84.2916   21.2395 O   0  0  0  0  0  0  0  0  0  0  0  0
   52.8500   84.4421   19.3818 C   0  0  0  0  0  0  0  0  0  0  0  0
   53.2008   84.1135   17.9676 C   0  0  0  0  0  0  0  0  0  0  0  0
   53.1971   84.9539   17.0324 O   0  0  0  0  0  0  0  0  0  0  0  0
   54.5481   81.7780   20.6893 H   0  0  0  0  0  0  0  0  0  0  0  0
   52.9878   80.5907   12.0792 Cl  0  0  0  0  0  0  0  0  0  0  0  0
   53.1992   81.2398   13.6793 C   0  0  0  0  0  0  0  0  0  0  0  0
   52.1233   81.1898   14.5547 C   0  0  0  0  0  0  0  0  0  0  0  0
   52.2679   81.6991   15.8316 C   0  0  0  0  0  0  0  0  0  0  0  0
   53.4435   82.2625   16.2882 C   0  0  0  0  0  0  0  0  0  0  0  0
   54.5027   82.3025   15.4024 C   0  0  0  0  0  0  0  0  0  0  0  0
   54.3952   81.8030   14.1172 C   0  0  0  0  0  0  0  0  0  0  0  0
   52.6223   85.8532   19.5943 C   0  0  0  0  0  0  0  0  0  0  0  0
   53.4822   86.8455   19.5763 C   0  0  0  0  0  0  0  0  0  0  0  0
   52.8144   88.1427   19.8457 C   0  0  0  0  0  0  0  0  0  0  0  0
   51.4131   87.8034   19.7557 N   0  0  0  0  0  0  0  0  0  0  0  0
   51.3277   86.4193   19.8878 N   0  0  0  0  0  0  0  0  0  0  0  0
   50.9628   88.1639   18.8869 H   0  0  0  0  0  0  0  0  0  0  0  0
   50.4474   85.9328   20.1584 H   0  0  0  0  0  0  0  0  0  0  0  0
   53.0963   89.1602   18.8265 C   0  0  0  0  0  0  0  0  0  0  0  0
   52.5289   90.4158   18.9816 C   0  0  0  0  0  0  0  0  0  0  0  0
   52.7738   91.3924   18.0450 C   0  0  0  0  0  0  0  0  0  0  0  0
   53.5721   91.1589   16.9497 C   0  0  0  0  0  0  0  0  0  0  0  0
   54.1418   89.9189   16.7808 C   0  0  0  0  0  0  0  0  0  0  0  0
   53.8902   88.9305   17.7330 C   0  0  0  0  0  0  0  0  0  0  0  0
   52.2073   92.6656   18.1909 O   0  0  0  0  0  0  0  0  0  0  0  0
   51.6222   92.8529   18.9862 H   0  0  0  0  0  0  0  0  0  0  0  0
 11 12  1  0  0  0
 12 13  2  0  0  0
 12 17  1  0  0  0
 13 14  1  0  0  0
 14 15  2  0  0  0
 15 16  1  0  0  0
 15  1  1  0  0  0
 16 17  2  0  0  0
  1  2  1  0  0  0
  1  8  1  0  0  0
  2  3  2  0  0  0
  2  4  1  0  0  0
  4  5  1  0  0  0
  5  6  2  0  0  0
  5  7  1  0  0  0
  7  8  1  0  0  0
  7 18  1  0  0  0
  8  9  2  0  0  0
 18 19  2  0  0  0
 18 22  1  0  0  0
 19 20  1  0  0  0
 20 21  1  0  0  0
 20 25  1  0  0  0
 21 22  1  0  0  0
 25 26  2  0  0  0
 25 30  1  0  0  0
 26 27  1  0  0  0
 27 28  2  0  0  0
 27 31  1  0  0  0
 28 29  1  0  0  0
 29 30  2  0  0  0
  4 10  1  0  0  0
 21 23  1  0  0  0
 22 24  1  0  0  0
 31 32  1  0  0  0
M  END
> <minimizedAffinity>
-9.91061

$$$$
2361


 30 33  0  0  0  0  0  0  0  0999 V2000
   55.1048   85.9026   25.4301 N   0  0  0  0  0  0  0  0  0  0  0  0
   56.3513   85.2462   25.2889 C   0  0  0  0  0  0  0  0  0  0  0  0
   56.4327   84.0024   25.4458 O   0  0  0  0  0  0  0  0  0  0  0  0
   57.5145   86.0268   24.9628 N   0  0  0  0  0  0  0  0  0  0  0  0
   57.4250   87.4337   24.7848 C   0  0  0  0  0  0  0  0  0  0  0  0
   58.4688   88.1309   24.8385 O   0  0  0  0  0  0  0  0  0  0  0  0
   56.1107   88.0493   24.5405 C   0  0  0  0  0  0  0  0  0  0  0  0
   55.0523   87.3065   25.2462 C   0  0  0  0  0  0  0  0  0  0  0  0
   54.0417   87.9365   25.7145 O   0  0  0  0  0  0  0  0  0  0  0  0
   58.4521   85.5849   24.8495 H   0  0  0  0  0  0  0  0  0  0  0  0
   50.1186   82.7958   26.7520 Cl  0  0  0  0  0  0  0  0  0  0  0  0
   51.5742   83.7009   26.3740 C   0  0  0  0  0  0  0  0  0  0  0  0
   52.4461   84.0995   27.3649 C   0  0  0  0  0  0  0  0  0  0  0  0
   53.5971   84.8174   27.0614 C   0  0  0  0  0  0  0  0  0  0  0  0
   53.9095   85.1563   25.7626 C   0  0  0  0  0  0  0  0  0  0  0  0
   53.0365   84.7558   24.7755 C   0  0  0  0  0  0  0  0  0  0  0  0
   51.8912   84.0413   25.0764 C   0  0  0  0  0  0  0  0  0  0  0  0
   55.8100   88.1032   23.0705 C   0  0  0  0  0  0  0  0  0  0  0  0
   56.4397   88.7668   22.1362 C   0  0  0  0  0  0  0  0  0  0  0  0
   55.7859   88.5191   20.8417 C   0  0  0  0  0  0  0  0  0  0  0  0
   54.9516   87.3767   21.0868 N   0  0  0  0  0  0  0  0  0  0  0  0
   54.7399   87.3889   22.4745 N   0  0  0  0  0  0  0  0  0  0  0  0
   55.3803   86.5002   20.7750 H   0  0  0  0  0  0  0  0  0  0  0  0
   53.9121   86.9278   22.9165 H   0  0  0  0  0  0  0  0  0  0  0  0
   54.9492   89.7094   20.5419 C   0  0  0  0  0  0  0  0  0  0  0  0
   53.8912   89.6104   19.6703 C   0  0  0  0  0  0  0  0  0  0  0  0
   53.1208   90.6978   19.3908 N   0  0  0  0  0  0  0  0  0  0  0  0
   53.3469   91.9025   19.9389 C   0  0  0  0  0  0  0  0  0  0  0  0
   54.3989   92.0371   20.8163 C   0  0  0  0  0  0  0  0  0  0  0  0
   55.2022   90.9271   21.1152 C   0  0  0  0  0  0  0  0  0  0  0  0
 11 12  1  0  0  0
 12 13  2  0  0  0
 12 17  1  0  0  0
 13 14  1  0  0  0
 14 15  2  0  0  0
 15 16  1  0  0  0
 15  1  1  0  0  0
 16 17  2  0  0  0
  1  2  1  0  0  0
  1  8  1  0  0  0
  2  3  2  0  0  0
  2  4  1  0  0  0
  4  5  1  0  0  0
  5  6  2  0  0  0
  5  7  1  0  0  0
  7  8  1  0  0  0
  7 18  1  0  0  0
  8  9  2  0  0  0
 18 19  2  0  0  0
 18 22  1  0  0  0
 19 20  1  0  0  0
 20 21  1  0  0  0
 20 25  1  0  0  0
 21 22  1  0  0  0
 25 26  2  0  0  0
 25 30  1  0  0  0
 26 27  1  0  0  0
 27 28  2  0  0  0
 28 29  1  0  0  0
 29 30  2  0  0  0
  4 10  1  0  0  0
 21 23  1  0  0  0
 22 24  1  0  0  0
M  END
> <minimizedAffinity>
-8.75030

$$$$
2363


 33 36  0  0  0  0  0  0  0  0999 V2000
   53.5472   82.5675   20.3540 N   0  0  0  0  0  0  0  0  0  0  0  0
   52.9606   83.6056   21.1241 C   0  0  0  0  0  0  0  0  0  0  0  0
   52.8768   83.3310   22.5508 C   0  0  0  0  0  0  0  0  0  0  0  0
   53.2406   82.1363   23.0945 C   0  0  0  0  0  0  0  0  0  0  0  0
   53.1114   81.9329   24.4815 C   0  0  0  0  0  0  0  0  0  0  0  0
   52.6291   82.8948   25.3327 C   0  0  0  0  0  0  0  0  0  0  0  0
   52.2648   84.1035   24.7624 C   0  0  0  0  0  0  0  0  0  0  0  0
   52.3863   84.3061   23.4259 C   0  0  0  0  0  0  0  0  0  0  0  0
   53.7818   81.0688   22.2998 N   0  0  0  0  0  0  0  0  0  0  0  0
   53.9155   81.3369   20.9184 C   0  0  0  0  0  0  0  0  0  0  0  0
   54.3856   80.4406   20.1447 O   0  0  0  0  0  0  0  0  0  0  0  0
   51.6089   83.6880   20.6352 O   0  0  0  0  0  0  0  0  0  0  0  0
   54.0446   80.1730   22.7476 H   0  0  0  0  0  0  0  0  0  0  0  0
   51.2805   84.6199   20.7293 H   0  0  0  0  0  0  0  0  0  0  0  0
   54.4630   83.4058   14.4757 Cl  0  0  0  0  0  0  0  0  0  0  0  0
   54.1852   83.1566   16.2036 C   0  0  0  0  0  0  0  0  0  0  0  0
   55.2083   83.4087   17.0893 C   0  0  0  0  0  0  0  0  0  0  0  0
   54.9962   83.2145   18.4508 C   0  0  0  0  0  0  0  0  0  0  0  0
   53.7860   82.7774   18.9198 C   0  0  0  0  0  0  0  0  0  0  0  0
   52.7814   82.5331   18.0092 C   0  0  0  0  0  0  0  0  0  0  0  0
   52.9580   82.7158   16.6490 C   0  0  0  0  0  0  0  0  0  0  0  0
   53.5597   84.9335   20.8341 C   0  0  0  0  0  0  0  0  0  0  0  0
   54.7240   85.1718   21.1607 O   0  0  0  0  0  0  0  0  0  0  0  0
   52.7587   85.8902   20.1830 N   0  0  0  0  0  0  0  0  0  0  0  0
   51.7588   85.6947   19.8991 H   0  0  0  0  0  0  0  0  0  0  0  0
   53.2466   87.2287   19.8484 C   0  0  0  0  0  0  0  0  0  0  0  0
   52.1693   88.1260   19.3727 C   0  0  0  0  0  0  0  0  0  0  0  0
   52.5534   89.3286   18.7417 N   0  0  0  0  0  0  0  0  0  0  0  0
   52.0925   90.5475   19.2660 C   0  0  0  0  0  0  0  0  0  0  0  0
   52.8571   91.6895   18.5907 C   0  0  0  0  0  0  0  0  0  0  0  0
   53.1459   91.3590   17.2545 O   0  0  0  0  0  0  0  0  0  0  0  0
   54.1255   90.3717   17.1786 C   0  0  0  0  0  0  0  0  0  0  0  0
   53.9069   89.3991   18.3056 C   0  0  0  0  0  0  0  0  0  0  0  0
 15 16  1  0  0  0
 16 17  2  0  0  0
 16 21  1  0  0  0
 17 18  1  0  0  0
 18 19  2  0  0  0
 19 20  1  0  0  0
 19  1  1  0  0  0
 20 21  2  0  0  0
  1  2  1  0  0  0
  1 10  1  0  0  0
  2  3  1  0  0  0
  2 12  1  0  0  0
  2 22  1  0  0  0
  3  4  1  0  0  0
  3  8  2  0  0  0
  4  5  2  0  0  0
  4  9  1  0  0  0
  5  6  1  0  0  0
  6  7  2  0  0  0
  7  8  1  0  0  0
  9 10  1  0  0  0
 10 11  2  0  0  0
 22 23  2  0  0  0
 22 24  1  0  0  0
 24 26  1  0  0  0
 26 27  1  0  0  0
 27 28  1  0  0  0
 28 29  1  0  0  0
 28 33  1  0  0  0
 29 30  1  0  0  0
 30 31  1  0  0  0
 31 32  1  0  0  0
 32 33  1  0  0  0
  9 13  1  0  0  0
 12 14  1  0  0  0
 24 25  1  0  0  0
M  END
> <minimizedAffinity>
-7.92826

$$$$
2364


 33 37  0  0  0  0  0  0  0  0999 V2000
   55.0915   86.2724   25.2342 N   0  0  0  0  0  0  0  0  0  0  0  0
   56.3373   85.6267   25.0025 C   0  0  0  0  0  0  0  0  0  0  0  0
   56.5702   84.5032   25.5538 O   0  0  0  0  0  0  0  0  0  0  0  0
   57.3899   86.1872   24.1492 C   0  0  0  0  0  0  0  0  0  0  0  0
   57.1828   87.5390   23.7470 N   0  0  0  0  0  0  0  0  0  0  0  0
   55.8287   87.9465   23.5573 C   0  0  0  0  0  0  0  0  0  0  0  0
   55.2537   87.7089   22.1823 C   0  0  0  0  0  0  0  0  0  0  0  0
   55.2231   89.1179   21.9569 N   0  0  0  0  0  0  0  0  0  0  0  0
   55.7875   89.4254   23.2111 C   0  0  0  0  0  0  0  0  0  0  0  0
   54.9234   87.5691   24.6736 C   0  0  0  0  0  0  0  0  0  0  0  0
   54.0356   88.3335   25.1300 O   0  0  0  0  0  0  0  0  0  0  0  0
   57.8107   88.3960   24.7111 C   0  0  0  0  0  0  0  0  0  0  0  0
   58.4987   87.5285   25.7272 C   0  0  0  0  0  0  0  0  0  0  0  0
   58.6693   86.2272   24.9970 C   0  0  0  0  0  0  0  0  0  0  0  0
   59.7057   88.0581   26.1628 O   0  0  0  0  0  0  0  0  0  0  0  0
   59.5109   88.6273   26.9464 H   0  0  0  0  0  0  0  0  0  0  0  0
   54.0304   85.6520   26.0075 C   0  0  0  0  0  0  0  0  0  0  0  0
   53.0189   83.7921   21.2299 Cl  0  0  0  0  0  0  0  0  0  0  0  0
   52.5768   84.0332   22.9057 C   0  0  0  0  0  0  0  0  0  0  0  0
   53.4170   84.7078   23.7676 C   0  0  0  0  0  0  0  0  0  0  0  0
   53.0959   84.9120   25.0905 C   0  0  0  0  0  0  0  0  0  0  0  0
   51.8930   84.4200   25.5467 C   0  0  0  0  0  0  0  0  0  0  0  0
   51.0746   83.7575   24.6871 C   0  0  0  0  0  0  0  0  0  0  0  0
   51.3765   83.5425   23.3616 C   0  0  0  0  0  0  0  0  0  0  0  0
   55.7703   89.6431   20.7594 C   0  0  0  0  0  0  0  0  0  0  0  0
   54.8447   89.7739   19.6283 C   0  0  0  0  0  0  0  0  0  0  0  0
   53.6901   89.0315   19.5953 C   0  0  0  0  0  0  0  0  0  0  0  0
   52.7909   89.1364   18.5304 C   0  0  0  0  0  0  0  0  0  0  0  0
   53.0746   90.0015   17.4986 C   0  0  0  0  0  0  0  0  0  0  0  0
   54.2227   90.7568   17.5067 C   0  0  0  0  0  0  0  0  0  0  0  0
   55.0973   90.6280   18.5837 C   0  0  0  0  0  0  0  0  0  0  0  0
   51.6290   88.3913   18.4936 O   0  0  0  0  0  0  0  0  0  0  0  0
   51.5740   87.1881   19.2371 C   0  0  0  0  0  0  0  0  0  0  0  0
 18 19  1  0  0  0
 19 20  2  0  0  0
 19 24  1  0  0  0
 20 21  1  0  0  0
 21 22  2  0  0  0
 21 17  1  0  0  0
 22 23  1  0  0  0
 23 24  2  0  0  0
 17  1  1  0  0  0
  1  2  1  0  0  0
  1 10  1  0  0  0
  2  3  2  0  0  0
  2  4  1  0  0  0
  4  5  1  0  0  0
  4 14  1  0  0  0
  5  6  1  0  0  0
  5 12  1  0  0  0
  6  7  1  0  0  0
  6  9  1  0  0  0
  6 10  1  0  0  0
  7  8  1  0  0  0
  8  9  1  0  0  0
  8 25  1  0  0  0
 25 26  1  0  0  0
 26 27  2  0  0  0
 26 31  1  0  0  0
 27 28  1  0  0  0
 28 29  2  0  0  0
 28 32  1  0  0  0
 29 30  1  0  0  0
 30 31  2  0  0  0
 32 33  1  0  0  0
 10 11  2  0  0  0
 12 13  1  0  0  0
 13 14  1  0  0  0
 13 15  1  0  0  0
 15 16  1  0  0  0
M  END
> <minimizedAffinity>
-7.85696

$$$$
2365


 32 36  0  0  0  0  0  0  0  0999 V2000
   53.0971   87.0595   20.2217 N   0  0  0  0  0  0  0  0  0  0  0  0
   52.6868   87.6787   19.0314 C   0  0  0  0  0  0  0  0  0  0  0  0
   52.0056   86.9993   18.2047 O   0  0  0  0  0  0  0  0  0  0  0  0
   53.6601   87.6085   20.9159 H   0  0  0  0  0  0  0  0  0  0  0  0
   52.9963   89.0814   18.6687 C   0  0  0  0  0  0  0  0  0  0  0  0
   53.5254   89.8400   19.8691 C   0  0  0  0  0  0  0  0  0  0  0  0
   53.8291   91.2668   19.5092 C   0  0  0  0  0  0  0  0  0  0  0  0
   54.9405   91.2371   18.4579 C   0  0  0  0  0  0  0  0  0  0  0  0
   54.4715   90.4835   17.2547 C   0  0  0  0  0  0  0  0  0  0  0  0
   54.0949   89.0683   17.6280 C   0  0  0  0  0  0  0  0  0  0  0  0
   53.2676   91.1856   16.6704 C   0  0  0  0  0  0  0  0  0  0  0  0
   52.1822   91.1975   17.7216 C   0  0  0  0  0  0  0  0  0  0  0  0
   52.6569   91.9846   18.9161 C   0  0  0  0  0  0  0  0  0  0  0  0
   51.7926   89.7903   18.0883 C   0  0  0  0  0  0  0  0  0  0  0  0
   54.3281   91.9154   20.7058 N   0  0  0  0  0  0  0  0  0  0  0  0
   53.7835   92.8625   21.4490 N   0  0  0  0  0  0  0  0  0  0  0  0
   54.5411   93.1905   22.4524 N   0  0  0  0  0  0  0  0  0  0  0  0
   55.6336   92.4497   22.3950 C   0  0  0  0  0  0  0  0  0  0  0  0
   55.5025   91.6487   21.3010 N   0  0  0  0  0  0  0  0  0  0  0  0
   53.7063   84.7480   20.8599 C   0  0  0  0  0  0  0  0  0  0  0  0
   54.9328   85.0057   20.9557 O   0  0  0  0  0  0  0  0  0  0  0  0
   52.7744   85.7500   20.4985 N   0  0  0  0  0  0  0  0  0  0  0  0
   51.7595   85.4553   20.4390 H   0  0  0  0  0  0  0  0  0  0  0  0
   53.2932   83.3440   21.1481 C   0  0  0  0  0  0  0  0  0  0  0  0
   52.7082   83.1905   22.5113 C   0  0  0  0  0  0  0  0  0  0  0  0
   52.3395   82.8774   20.0724 C   0  0  0  0  0  0  0  0  0  0  0  0
   54.2173   83.2568   14.9636 Br  0  0  0  0  0  0  0  0  0  0  0  0
   53.7978   82.6981   16.7369 C   0  0  0  0  0  0  0  0  0  0  0  0
   53.0501   83.3430   17.7016 C   0  0  0  0  0  0  0  0  0  0  0  0
   53.0080   82.5840   18.8267 N   0  0  0  0  0  0  0  0  0  0  0  0
   53.7003   81.5042   18.5857 N   0  0  0  0  0  0  0  0  0  0  0  0
   54.2073   81.5062   17.3394 C   0  0  0  0  0  0  0  0  0  0  0  0
 27 28  1  0  0  0
 28 29  2  0  0  0
 28 32  1  0  0  0
 29 30  1  0  0  0
 30 31  1  0  0  0
 30 26  1  0  0  0
 31 32  2  0  0  0
 26 24  1  0  0  0
 24 25  1  0  0  0
 24 20  1  0  0  0
 20 21  2  0  0  0
 20 22  1  0  0  0
 22  1  1  0  0  0
  1  2  1  0  0  0
  2  3  2  0  0  0
  2  5  1  0  0  0
  5  6  1  0  0  0
  5 10  1  0  0  0
  5 14  1  0  0  0
  6  7  1  0  0  0
  7  8  1  0  0  0
  7 13  1  0  0  0
  7 15  1  0  0  0
  8  9  1  0  0  0
  9 10  1  0  0  0
  9 11  1  0  0  0
 11 12  1  0  0  0
 12 13  1  0  0  0
 12 14  1  0  0  0
 15 16  1  0  0  0
 15 19  1  0  0  0
 16 17  2  0  0  0
 17 18  1  0  0  0
 18 19  2  0  0  0
 22 23  1  0  0  0
  1  4  1  0  0  0
M  END
> <minimizedAffinity>
-9.56215

$$$$
2373


 28 31  0  0  0  0  0  0  0  0999 V2000
   53.6694   87.7852   19.8047 N   0  0  0  0  0  0  0  0  0  0  0  0
   54.2948   88.9257   19.5710 C   0  0  0  0  0  0  0  0  0  0  0  0
   55.2518   89.1569   20.5096 N   0  0  0  0  0  0  0  0  0  0  0  0
   55.2326   88.1516   21.3569 C   0  0  0  0  0  0  0  0  0  0  0  0
   54.2234   87.2764   20.9032 C   0  0  0  0  0  0  0  0  0  0  0  0
   56.1293   90.2931   20.4910 C   0  0  0  0  0  0  0  0  0  0  0  0
   55.3810   91.5507   20.9276 C   0  0  0  0  0  0  0  0  0  0  0  0
   53.9687   91.3811   20.3578 C   0  0  0  0  0  0  0  0  0  0  0  0
   54.0816   91.2871   18.8612 C   0  0  0  0  0  0  0  0  0  0  0  0
   53.9414   89.8200   18.4257 C   0  0  0  0  0  0  0  0  0  0  0  0
   56.0585   87.8799   22.5372 C   0  0  0  0  0  0  0  0  0  0  0  0
   56.0790   88.6048   23.6847 C   0  0  0  0  0  0  0  0  0  0  0  0
   56.9410   88.3336   24.7467 C   0  0  0  0  0  0  0  0  0  0  0  0
   57.8254   87.2928   24.6723 C   0  0  0  0  0  0  0  0  0  0  0  0
   57.8280   86.5378   23.5244 C   0  0  0  0  0  0  0  0  0  0  0  0
   56.9707   86.8201   22.4834 C   0  0  0  0  0  0  0  0  0  0  0  0
   58.7054   86.9969   25.7275 O   0  0  0  0  0  0  0  0  0  0  0  0
   59.6842   87.8969   26.1731 C   0  0  0  0  0  0  0  0  0  0  0  0
   52.5782   87.1157   19.0898 C   0  0  0  0  0  0  0  0  0  0  0  0
   52.6190   85.6773   19.4300 C   0  0  0  0  0  0  0  0  0  0  0  0
   51.9222   85.2962   20.4286 O   0  0  0  0  0  0  0  0  0  0  0  0
   55.8857   81.5283   16.5587 Cl  0  0  0  0  0  0  0  0  0  0  0  0
   54.9423   82.7134   17.4244 C   0  0  0  0  0  0  0  0  0  0  0  0
   54.7218   82.6771   18.7787 C   0  0  0  0  0  0  0  0  0  0  0  0
   53.9712   83.6358   19.4119 C   0  0  0  0  0  0  0  0  0  0  0  0
   53.3947   84.6965   18.7031 C   0  0  0  0  0  0  0  0  0  0  0  0
   53.6134   84.7342   17.3577 C   0  0  0  0  0  0  0  0  0  0  0  0
   54.3675   83.7673   16.7318 C   0  0  0  0  0  0  0  0  0  0  0  0
 22 23  1  0  0  0
 23 24  2  0  0  0
 23 28  1  0  0  0
 24 25  1  0  0  0
 25 26  2  0  0  0
 26 27  1  0  0  0
 26 20  1  0  0  0
 27 28  2  0  0  0
 20 21  2  0  0  0
 20 19  1  0  0  0
 19  1  1  0  0  0
  1  2  2  0  0  0
  1  5  1  0  0  0
  2  3  1  0  0  0
  2 10  1  0  0  0
  3  4  1  0  0  0
  3  6  1  0  0  0
  4  5  2  0  0  0
  4 11  1  0  0  0
 11 12  2  0  0  0
 11 16  1  0  0  0
 12 13  1  0  0  0
 13 14  2  0  0  0
 14 15  1  0  0  0
 14 17  1  0  0  0
 15 16  2  0  0  0
 17 18  1  0  0  0
  6  7  1  0  0  0
  7  8  1  0  0  0
  8  9  1  0  0  0
  9 10  1  0  0  0
M  END
> <minimizedAffinity>
-9.20440

$$$$
2375


 37 40  0  0  0  0  0  0  0  0999 V2000
   53.6855   84.6709   23.2749 C   0  0  0  0  0  0  0  0  0  0  0  0
   54.0341   84.2225   24.5911 C   0  0  0  0  0  0  0  0  0  0  0  0
   53.2573   83.3974   18.6209 C   0  0  0  0  0  0  0  0  0  0  0  0
   51.8434   83.2098   18.9785 C   0  0  0  0  0  0  0  0  0  0  0  0
   51.4993   83.1481   20.4457 C   0  0  0  0  0  0  0  0  0  0  0  0
   52.5659   83.4437   21.3452 N   0  0  0  0  0  0  0  0  0  0  0  0
   53.8333   82.7600   21.0191 C   0  0  0  0  0  0  0  0  0  0  0  0
   54.2749   82.9962   19.6599 C   0  0  0  0  0  0  0  0  0  0  0  0
   52.4555   84.0676   22.6109 C   0  0  0  0  0  0  0  0  0  0  0  0
   51.3776   84.1308   23.1968 O   0  0  0  0  0  0  0  0  0  0  0  0
   53.4406   84.7903   18.3675 O   0  0  0  0  0  0  0  0  0  0  0  0
   53.7720   84.9476   17.4674 H   0  0  0  0  0  0  0  0  0  0  0  0
   55.0711   80.8732   13.4015 Cl  0  0  0  0  0  0  0  0  0  0  0  0
   54.5189   81.5803   14.9387 C   0  0  0  0  0  0  0  0  0  0  0  0
   54.2815   82.9314   15.0405 C   0  0  0  0  0  0  0  0  0  0  0  0
   53.8613   83.4770   16.2626 C   0  0  0  0  0  0  0  0  0  0  0  0
   53.6704   82.6888   17.3879 C   0  0  0  0  0  0  0  0  0  0  0  0
   53.9086   81.3589   17.2592 C   0  0  0  0  0  0  0  0  0  0  0  0
   54.3295   80.7939   16.0618 C   0  0  0  0  0  0  0  0  0  0  0  0
   53.8320   86.0456   22.8584 N   0  0  0  0  0  0  0  0  0  0  0  0
   54.7934   86.5152   21.9650 C   0  0  0  0  0  0  0  0  0  0  0  0
   55.6216   85.4737   21.5958 O   0  0  0  0  0  0  0  0  0  0  0  0
   53.1349   86.6730   23.3845 H   0  0  0  0  0  0  0  0  0  0  0  0
   55.1555   87.6870   21.3184 C   0  0  0  0  0  0  0  0  0  0  0  0
   54.8781   88.6368   20.4755 C   0  0  0  0  0  0  0  0  0  0  0  0
   55.8534   89.7154   20.2670 N   0  0  0  0  0  0  0  0  0  0  0  0
   55.6891   90.7147   19.3283 N   0  0  0  0  0  0  0  0  0  0  0  0
   54.5775   90.7758   18.5034 C   0  0  0  0  0  0  0  0  0  0  0  0
   54.3838   91.6695   17.6408 O   0  0  0  0  0  0  0  0  0  0  0  0
   53.5363   89.7292   18.6395 C   0  0  0  0  0  0  0  0  0  0  0  0
   53.7409   88.7513   19.5837 C   0  0  0  0  0  0  0  0  0  0  0  0
   52.7834   87.7310   19.6059 C   0  0  0  0  0  0  0  0  0  0  0  0
   51.7047   87.7362   18.7333 C   0  0  0  0  0  0  0  0  0  0  0  0
   51.5363   88.7384   17.8141 C   0  0  0  0  0  0  0  0  0  0  0  0
   52.4735   89.7484   17.7693 C   0  0  0  0  0  0  0  0  0  0  0  0
   56.7079   89.6816   20.8871 H   0  0  0  0  0  0  0  0  0  0  0  0
   56.4330   91.4602   19.2335 H   0  0  0  0  0  0  0  0  0  0  0  0
 13 14  1  0  0  0
 14 15  2  0  0  0
 14 19  1  0  0  0
 15 16  1  0  0  0
 16 17  2  0  0  0
 17 18  1  0  0  0
 17  3  1  0  0  0
 18 19  2  0  0  0
  3  4  1  0  0  0
  3  8  1  0  0  0
  3 11  1  0  0  0
  4  5  1  0  0  0
  5  6  1  0  0  0
  6  7  1  0  0  0
  6  9  1  0  0  0
  7  8  1  0  0  0
  9 10  2  0  0  0
  9  1  1  0  0  0
  1 20  1  0  0  0
  1  2  1  0  0  0
 20 21  1  0  0  0
 21 22  2  0  0  0
 21 24  1  0  0  0
 24 25  2  0  0  0
 25 26  1  0  0  0
 25 31  1  0  0  0
 26 27  1  0  0  0
 27 28  1  0  0  0
 28 29  2  0  0  0
 28 30  1  0  0  0
 30 31  2  0  0  0
 30 35  1  0  0  0
 31 32  1  0  0  0
 32 33  2  0  0  0
 33 34  1  0  0  0
 34 35  2  0  0  0
 20 23  1  0  0  0
 26 36  1  0  0  0
 27 37  1  0  0  0
 11 12  1  0  0  0
M  END
> <minimizedAffinity>
-9.71500

$$$$
2377


 33 36  0  0  0  0  0  0  0  0999 V2000
   55.7029   87.6180   23.7845 N   0  0  0  0  0  0  0  0  0  0  0  0
   55.1414   88.0594   25.0573 C   0  0  0  0  0  0  0  0  0  0  0  0
   54.3520   86.9651   25.7394 C   0  0  0  0  0  0  0  0  0  0  0  0
   54.7408   85.7060   25.1519 N   0  0  0  0  0  0  0  0  0  0  0  0
   56.1656   85.5184   24.9456 C   0  0  0  0  0  0  0  0  0  0  0  0
   56.5669   86.4292   23.7861 C   0  0  0  0  0  0  0  0  0  0  0  0
   53.8357   84.6892   24.7842 C   0  0  0  0  0  0  0  0  0  0  0  0
   54.2792   83.6334   24.2819 O   0  0  0  0  0  0  0  0  0  0  0  0
   54.2352   86.0540   21.6799 Cl  0  0  0  0  0  0  0  0  0  0  0  0
   54.6889   87.7347   21.5492 C   0  0  0  0  0  0  0  0  0  0  0  0
   55.3831   88.3015   22.5963 C   0  0  0  0  0  0  0  0  0  0  0  0
   55.7219   89.6478   22.3997 C   0  0  0  0  0  0  0  0  0  0  0  0
   55.3827   90.3013   21.2729 N   0  0  0  0  0  0  0  0  0  0  0  0
   54.7199   89.7667   20.2693 N   0  0  0  0  0  0  0  0  0  0  0  0
   54.3734   88.4814   20.4107 C   0  0  0  0  0  0  0  0  0  0  0  0
   53.7387   87.8960   19.4978 O   0  0  0  0  0  0  0  0  0  0  0  0
   54.4021   90.5331   19.1113 C   0  0  0  0  0  0  0  0  0  0  0  0
   55.2458   90.5928   18.0128 C   0  0  0  0  0  0  0  0  0  0  0  0
   54.9533   91.3299   16.8834 C   0  0  0  0  0  0  0  0  0  0  0  0
   53.7680   92.0350   16.8549 C   0  0  0  0  0  0  0  0  0  0  0  0
   52.9036   91.9983   17.9336 C   0  0  0  0  0  0  0  0  0  0  0  0
   53.2287   91.2410   19.0648 C   0  0  0  0  0  0  0  0  0  0  0  0
   52.3676   84.8009   24.9615 C   0  0  0  0  0  0  0  0  0  0  0  0
   51.9590   84.3589   26.3477 C   0  0  0  0  0  0  0  0  0  0  0  0
   51.2408   85.4358   27.1051 C   0  0  0  0  0  0  0  0  0  0  0  0
   50.8081   85.0358   28.4257 N   0  0  0  0  0  0  0  0  0  0  0  0
   51.6428   84.8220   29.5495 C   0  0  0  0  0  0  0  0  0  0  0  0
   52.9134   84.9439   29.5854 O   0  0  0  0  0  0  0  0  0  0  0  0
   50.8922   84.4432   30.6823 N   0  0  0  0  0  0  0  0  0  0  0  0
   49.4978   84.3866   30.3034 C   0  0  0  0  0  0  0  0  0  0  0  0
   49.4739   84.7780   28.8766 C   0  0  0  0  0  0  0  0  0  0  0  0
   48.4524   84.8720   28.1635 O   0  0  0  0  0  0  0  0  0  0  0  0
   51.4124   84.1569   32.0038 C   0  0  0  0  0  0  0  0  0  0  0  0
  9 10  1  0  0  0
 10 11  2  0  0  0
 10 15  1  0  0  0
 11 12  1  0  0  0
 11  1  1  0  0  0
 12 13  2  0  0  0
 13 14  1  0  0  0
 14 15  1  0  0  0
 14 17  1  0  0  0
 15 16  2  0  0  0
 17 18  2  0  0  0
 17 22  1  0  0  0
 18 19  1  0  0  0
 19 20  2  0  0  0
 20 21  1  0  0  0
 21 22  2  0  0  0
  1  2  1  0  0  0
  1  6  1  0  0  0
  2  3  1  0  0  0
  3  4  1  0  0  0
  4  5  1  0  0  0
  4  7  1  0  0  0
  5  6  1  0  0  0
  7  8  2  0  0  0
  7 23  1  0  0  0
 23 24  1  0  0  0
 24 25  1  0  0  0
 25 26  1  0  0  0
 26 27  1  0  0  0
 26 31  1  0  0  0
 27 28  2  0  0  0
 27 29  1  0  0  0
 29 30  1  0  0  0
 29 33  1  0  0  0
 30 31  1  0  0  0
 31 32  2  0  0  0
M  END
> <minimizedAffinity>
-9.37911

$$$$
2380


 27 30  0  0  0  0  0  0  0  0999 V2000
   50.5539   99.7988   30.8497 Cl  0  0  0  0  0  0  0  0  0  0  0  0
   50.9784   99.4526   29.1764 C   0  0  0  0  0  0  0  0  0  0  0  0
   50.2437  100.0668   28.1904 C   0  0  0  0  0  0  0  0  0  0  0  0
   50.6025   99.7722   26.8848 C   0  0  0  0  0  0  0  0  0  0  0  0
   51.6191   98.9275   26.6387 N   0  0  0  0  0  0  0  0  0  0  0  0
   52.3340   98.3304   27.5779 N   0  0  0  0  0  0  0  0  0  0  0  0
   52.0116   98.5939   28.8565 C   0  0  0  0  0  0  0  0  0  0  0  0
   52.6510   98.0603   29.8074 O   0  0  0  0  0  0  0  0  0  0  0  0
   49.1911  100.9400   28.5382 N   0  0  0  0  0  0  0  0  0  0  0  0
   49.3410  102.3889   28.4649 C   0  0  0  0  0  0  0  0  0  0  0  0
   49.2966  102.8654   29.9298 C   0  0  0  0  0  0  0  0  0  0  0  0
   48.1308  102.3575   30.5828 N   0  0  0  0  0  0  0  0  0  0  0  0
   47.1745  101.5957   29.7520 C   0  0  0  0  0  0  0  0  0  0  0  0
   47.8863  100.4944   28.9923 C   0  0  0  0  0  0  0  0  0  0  0  0
   47.8544  102.5503   31.9615 C   0  0  0  0  0  0  0  0  0  0  0  0
   46.8062  102.0805   32.4971 O   0  0  0  0  0  0  0  0  0  0  0  0
   48.7518  103.2996   32.8584 C   0  0  0  0  0  0  0  0  0  0  0  0
   48.0965  104.3291   33.4613 O   0  0  0  0  0  0  0  0  0  0  0  0
   48.6533  104.5255   34.7187 C   0  0  0  0  0  0  0  0  0  0  0  0
   48.8113  103.0891   35.1968 C   0  0  0  0  0  0  0  0  0  0  0  0
   49.3399  102.4250   33.9427 C   0  0  0  0  0  0  0  0  0  0  0  0
   53.4092   97.4373   27.2507 C   0  0  0  0  0  0  0  0  0  0  0  0
   53.1464   96.1221   26.9272 C   0  0  0  0  0  0  0  0  0  0  0  0
   54.1833   95.2415   26.6061 C   0  0  0  0  0  0  0  0  0  0  0  0
   55.4849   95.6746   26.6082 C   0  0  0  0  0  0  0  0  0  0  0  0
   55.7610   96.9792   26.9288 C   0  0  0  0  0  0  0  0  0  0  0  0
   54.7309   97.8323   27.2412 C   0  0  0  0  0  0  0  0  0  0  0  0
  1  2  1  0  0  0
  2  3  2  0  0  0
  2  7  1  0  0  0
  3  4  1  0  0  0
  3  9  1  0  0  0
  4  5  2  0  0  0
  5  6  1  0  0  0
  6  7  1  0  0  0
  6 22  1  0  0  0
  7  8  2  0  0  0
 22 23  2  0  0  0
 22 27  1  0  0  0
 23 24  1  0  0  0
 24 25  2  0  0  0
 25 26  1  0  0  0
 26 27  2  0  0  0
  9 10  1  0  0  0
  9 14  1  0  0  0
 10 11  1  0  0  0
 11 12  1  0  0  0
 12 13  1  0  0  0
 12 15  1  0  0  0
 13 14  1  0  0  0
 15 16  2  0  0  0
 15 17  1  0  0  0
 17 18  1  0  0  0
 17 21  1  0  0  0
 18 19  1  0  0  0
 19 20  1  0  0  0
 20 21  1  0  0  0
M  END
> <minimizedAffinity>
-8.16985

$$$$
2381


 30 33  0  0  0  0  0  0  0  0999 V2000
   55.5601   87.3739   23.8636 N   0  0  0  0  0  0  0  0  0  0  0  0
   56.9035   86.9048   24.0606 C   0  0  0  0  0  0  0  0  0  0  0  0
   56.9237   85.5095   24.6442 C   0  0  0  0  0  0  0  0  0  0  0  0
   55.8198   85.2855   25.5440 N   0  0  0  0  0  0  0  0  0  0  0  0
   55.0551   86.4211   25.9989 C   0  0  0  0  0  0  0  0  0  0  0  0
   54.4751   87.0994   24.7845 C   0  0  0  0  0  0  0  0  0  0  0  0
   55.5001   83.9704   25.9675 C   0  0  0  0  0  0  0  0  0  0  0  0
   56.1705   82.9643   25.5691 O   0  0  0  0  0  0  0  0  0  0  0  0
   54.2351   85.9200   21.5829 Cl  0  0  0  0  0  0  0  0  0  0  0  0
   54.6728   87.6131   21.5799 C   0  0  0  0  0  0  0  0  0  0  0  0
   55.2756   88.1510   22.6992 C   0  0  0  0  0  0  0  0  0  0  0  0
   55.5938   89.4958   22.6320 C   0  0  0  0  0  0  0  0  0  0  0  0
   55.3307   90.2371   21.5397 N   0  0  0  0  0  0  0  0  0  0  0  0
   54.7540   89.7380   20.4583 N   0  0  0  0  0  0  0  0  0  0  0  0
   54.4305   88.4325   20.4884 C   0  0  0  0  0  0  0  0  0  0  0  0
   53.8865   87.9529   19.4717 O   0  0  0  0  0  0  0  0  0  0  0  0
   54.4794   90.5332   19.3014 C   0  0  0  0  0  0  0  0  0  0  0  0
   53.3603   91.3385   19.2461 C   0  0  0  0  0  0  0  0  0  0  0  0
   53.0876   92.1087   18.1338 C   0  0  0  0  0  0  0  0  0  0  0  0
   53.9151   92.1110   17.0298 C   0  0  0  0  0  0  0  0  0  0  0  0
   55.0358   91.3087   17.0791 C   0  0  0  0  0  0  0  0  0  0  0  0
   55.3025   90.5422   18.1906 C   0  0  0  0  0  0  0  0  0  0  0  0
   54.3736   83.6846   26.8945 C   0  0  0  0  0  0  0  0  0  0  0  0
   53.1410   83.6535   26.2276 O   0  0  0  0  0  0  0  0  0  0  0  0
   52.1213   84.5104   26.5949 C   0  0  0  0  0  0  0  0  0  0  0  0
   51.4864   85.4442   25.8780 N   0  0  0  0  0  0  0  0  0  0  0  0
   50.5882   86.0308   26.5994 O   0  0  0  0  0  0  0  0  0  0  0  0
   50.5589   85.5419   27.8219 C   0  0  0  0  0  0  0  0  0  0  0  0
   51.5317   84.5634   27.8501 C   0  0  0  0  0  0  0  0  0  0  0  0
   49.6357   86.0134   28.8701 C   0  0  0  0  0  0  0  0  0  0  0  0
  9 10  1  0  0  0
 10 11  2  0  0  0
 10 15  1  0  0  0
 11 12  1  0  0  0
 11  1  1  0  0  0
 12 13  2  0  0  0
 13 14  1  0  0  0
 14 15  1  0  0  0
 14 17  1  0  0  0
 15 16  2  0  0  0
 17 18  2  0  0  0
 17 22  1  0  0  0
 18 19  1  0  0  0
 19 20  2  0  0  0
 20 21  1  0  0  0
 21 22  2  0  0  0
  1  2  1  0  0  0
  1  6  1  0  0  0
  2  3  1  0  0  0
  3  4  1  0  0  0
  4  5  1  0  0  0
  4  7  1  0  0  0
  5  6  1  0  0  0
  7  8  2  0  0  0
  7 23  1  0  0  0
 23 24  1  0  0  0
 24 25  1  0  0  0
 25 26  2  0  0  0
 25 29  1  0  0  0
 26 27  1  0  0  0
 27 28  1  0  0  0
 28 29  2  0  0  0
 28 30  1  0  0  0
M  END
> <minimizedAffinity>
-8.99829

$$$$
2386


 30 33  0  0  0  0  0  0  0  0999 V2000
   51.8235   82.0469   22.6392 Cl  0  0  0  0  0  0  0  0  0  0  0  0
   52.7556   83.5088   22.9452 C   0  0  0  0  0  0  0  0  0  0  0  0
   53.3870   84.0994   21.8528 C   0  0  0  0  0  0  0  0  0  0  0  0
   54.1201   85.2431   22.0758 C   0  0  0  0  0  0  0  0  0  0  0  0
   54.2157   85.7768   23.3541 C   0  0  0  0  0  0  0  0  0  0  0  0
   53.5829   85.1814   24.4384 C   0  0  0  0  0  0  0  0  0  0  0  0
   52.8472   84.0318   24.2137 C   0  0  0  0  0  0  0  0  0  0  0  0
   54.9327   86.9218   23.6581 O   0  0  0  0  0  0  0  0  0  0  0  0
   56.0619   87.4674   23.0344 C   0  0  0  0  0  0  0  0  0  0  0  0
   55.9024   87.8455   21.6070 C   0  0  0  0  0  0  0  0  0  0  0  0
   54.8701   87.1826   20.8780 N   0  0  0  0  0  0  0  0  0  0  0  0
   54.7129   85.7241   20.7993 C   0  0  0  0  0  0  0  0  0  0  0  0
   53.9216   87.9655   20.1644 C   0  0  0  0  0  0  0  0  0  0  0  0
   54.0596   89.2091   20.2169 O   0  0  0  0  0  0  0  0  0  0  0  0
   56.4866   88.7161   23.8304 C   0  0  0  0  0  0  0  0  0  0  0  0
   56.5601   88.2950   25.2732 C   0  0  0  0  0  0  0  0  0  0  0  0
   56.3751   86.9340   25.4415 O   0  0  0  0  0  0  0  0  0  0  0  0
   57.2769   86.1775   24.7143 C   0  0  0  0  0  0  0  0  0  0  0  0
   57.2425   86.5043   23.2372 C   0  0  0  0  0  0  0  0  0  0  0  0
   52.8364   87.3729   19.3980 C   0  0  0  0  0  0  0  0  0  0  0  0
   51.6571   88.2041   19.0969 C   0  0  0  0  0  0  0  0  0  0  0  0
   51.6101   88.9863   17.8510 C   0  0  0  0  0  0  0  0  0  0  0  0
   52.3143   90.2093   17.7445 N   0  0  0  0  0  0  0  0  0  0  0  0
   51.8621   91.4654   18.2172 C   0  0  0  0  0  0  0  0  0  0  0  0
   50.7806   91.7404   18.8168 O   0  0  0  0  0  0  0  0  0  0  0  0
   52.8639   92.4155   17.8996 N   0  0  0  0  0  0  0  0  0  0  0  0
   54.0963   91.7039   17.5682 C   0  0  0  0  0  0  0  0  0  0  0  0
   53.5809   90.3860   17.1411 C   0  0  0  0  0  0  0  0  0  0  0  0
   54.1946   89.5712   16.3621 O   0  0  0  0  0  0  0  0  0  0  0  0
   52.7792   93.4511   17.8907 H   0  0  0  0  0  0  0  0  0  0  0  0
  1  2  1  0  0  0
  2  3  2  0  0  0
  2  7  1  0  0  0
  3  4  1  0  0  0
  4  5  2  0  0  0
  4 12  1  0  0  0
  5  6  1  0  0  0
  5  8  1  0  0  0
  6  7  2  0  0  0
  8  9  1  0  0  0
  9 10  1  0  0  0
  9 15  1  0  0  0
  9 19  1  0  0  0
 10 11  1  0  0  0
 11 12  1  0  0  0
 11 13  1  0  0  0
 13 14  2  0  0  0
 13 20  1  0  0  0
 20 21  1  0  0  0
 21 22  1  0  0  0
 22 23  1  0  0  0
 23 24  1  0  0  0
 23 28  1  0  0  0
 24 25  2  0  0  0
 24 26  1  0  0  0
 26 27  1  0  0  0
 27 28  1  0  0  0
 28 29  2  0  0  0
 15 16  1  0  0  0
 16 17  1  0  0  0
 17 18  1  0  0  0
 18 19  1  0  0  0
 26 30  1  0  0  0
M  END
> <minimizedAffinity>
-8.82757

$$$$
2402


 33 36  0  0  0  0  0  0  0  0999 V2000
   54.1360   85.2963   20.8101 C   0  0  0  0  0  0  0  0  0  0  0  0
   53.8669   84.0942   20.0790 N   0  0  0  0  0  0  0  0  0  0  0  0
   53.0054   83.2415   20.8173 C   0  0  0  0  0  0  0  0  0  0  0  0
   52.3959   82.2003   20.4726 O   0  0  0  0  0  0  0  0  0  0  0  0
   52.8942   83.7774   22.1938 C   0  0  0  0  0  0  0  0  0  0  0  0
   52.2203   83.2957   23.1385 O   0  0  0  0  0  0  0  0  0  0  0  0
   53.7260   84.9662   22.2027 C   0  0  0  0  0  0  0  0  0  0  0  0
   54.0253   85.6349   23.3235 C   0  0  0  0  0  0  0  0  0  0  0  0
   54.8141   86.7746   23.1218 O   0  0  0  0  0  0  0  0  0  0  0  0
   53.5806   85.2223   24.6497 C   0  0  0  0  0  0  0  0  0  0  0  0
   52.5068   85.5012   25.3046 O   0  0  0  0  0  0  0  0  0  0  0  0
   52.4328   84.9579   26.4830 C   0  0  0  0  0  0  0  0  0  0  0  0
   53.5866   84.2133   26.6750 C   0  0  0  0  0  0  0  0  0  0  0  0
   54.3022   84.3985   25.4905 C   0  0  0  0  0  0  0  0  0  0  0  0
   53.7679   83.5274   27.8524 C   0  0  0  0  0  0  0  0  0  0  0  0
   52.8177   83.5694   28.8463 C   0  0  0  0  0  0  0  0  0  0  0  0
   51.6586   84.3128   28.6625 C   0  0  0  0  0  0  0  0  0  0  0  0
   51.4888   84.9858   27.4942 C   0  0  0  0  0  0  0  0  0  0  0  0
   50.3490   85.7325   27.2802 O   0  0  0  0  0  0  0  0  0  0  0  0
   49.5738   86.3342   28.3081 C   0  0  0  0  0  0  0  0  0  0  0  0
   51.9368   90.5933   18.5368 Br  0  0  0  0  0  0  0  0  0  0  0  0
   52.5426   88.9157   19.2255 C   0  0  0  0  0  0  0  0  0  0  0  0
   53.8134   88.8481   19.7188 C   0  0  0  0  0  0  0  0  0  0  0  0
   54.2801   87.6680   20.2174 C   0  0  0  0  0  0  0  0  0  0  0  0
   53.5392   86.5023   20.2613 C   0  0  0  0  0  0  0  0  0  0  0  0
   52.2597   86.5983   19.7576 C   0  0  0  0  0  0  0  0  0  0  0  0
   51.7540   87.7898   19.2405 C   0  0  0  0  0  0  0  0  0  0  0  0
   54.3786   83.7633   18.7772 C   0  0  0  0  0  0  0  0  0  0  0  0
   53.3913   84.1233   17.6820 C   0  0  0  0  0  0  0  0  0  0  0  0
   53.1113   83.0501   16.7913 N   0  0  0  0  0  0  0  0  0  0  0  0
   53.4335   83.2780   15.4157 C   0  0  0  0  0  0  0  0  0  0  0  0
   53.7165   81.8113   17.2614 C   0  0  0  0  0  0  0  0  0  0  0  0
   52.0616   82.8814   16.8233 H   0  0  0  0  0  0  0  0  0  0  0  0
 21 22  1  0  0  0
 22 23  2  0  0  0
 22 27  1  0  0  0
 23 24  1  0  0  0
 24 25  2  0  0  0
 25 26  1  0  0  0
 25  1  1  0  0  0
 26 27  2  0  0  0
  1  2  1  0  0  0
  1  7  1  0  0  0
  2  3  1  0  0  0
  2 28  1  0  0  0
  3  4  2  0  0  0
  3  5  1  0  0  0
  5  6  2  0  0  0
  5  7  1  0  0  0
  7  8  2  0  0  0
  8  9  1  0  0  0
  8 10  1  0  0  0
 10 11  1  0  0  0
 10 14  2  0  0  0
 11 12  1  0  0  0
 12 13  2  0  0  0
 12 18  1  0  0  0
 13 14  1  0  0  0
 13 15  1  0  0  0
 15 16  2  0  0  0
 16 17  1  0  0  0
 17 18  2  0  0  0
 18 19  1  0  0  0
 19 20  1  0  0  0
 28 29  1  0  0  0
 29 30  1  0  0  0
 30 31  1  0  0  0
 30 32  1  0  0  0
 30 33  1  0  0  0
M  CHG 1   9  -1
M  CHG 1  30   1
M  END
> <minimizedAffinity>
-8.19387

$$$$
2403


 26 29  0  0  0  0  0  0  0  0999 V2000
   56.5757   87.8300   21.9664 C   0  0  0  0  0  0  0  0  0  0  0  0
   56.0912   87.3685   23.2524 N   0  0  0  0  0  0  0  0  0  0  0  0
   55.1969   86.4151   23.5513 C   0  0  0  0  0  0  0  0  0  0  0  0
   55.0126   86.3219   24.9265 C   0  0  0  0  0  0  0  0  0  0  0  0
   55.8333   87.2603   25.4552 N   0  0  0  0  0  0  0  0  0  0  0  0
   56.4758   87.8835   24.4643 C   0  0  0  0  0  0  0  0  0  0  0  0
   54.1712   85.4425   25.5078 N   0  0  0  0  0  0  0  0  0  0  0  0
   53.4934   84.6280   24.6777 C   0  0  0  0  0  0  0  0  0  0  0  0
   52.7013   83.7988   25.2038 O   0  0  0  0  0  0  0  0  0  0  0  0
   53.6351   84.6759   23.3444 N   0  0  0  0  0  0  0  0  0  0  0  0
   54.4755   85.5553   22.7603 C   0  0  0  0  0  0  0  0  0  0  0  0
   54.6226   85.6134   21.5239 O   0  0  0  0  0  0  0  0  0  0  0  0
   52.9021   83.7950   22.4523 C   0  0  0  0  0  0  0  0  0  0  0  0
   54.0233   85.3972   26.9500 C   0  0  0  0  0  0  0  0  0  0  0  0
   50.9747   92.2951   17.8892 Br  0  0  0  0  0  0  0  0  0  0  0  0
   52.1603   91.0363   18.6896 C   0  0  0  0  0  0  0  0  0  0  0  0
   53.0831   91.5000   19.5872 C   0  0  0  0  0  0  0  0  0  0  0  0
   53.9325   90.6255   20.1660 N   0  0  0  0  0  0  0  0  0  0  0  0
   53.8803   89.3177   19.8723 C   0  0  0  0  0  0  0  0  0  0  0  0
   54.7398   88.4336   20.4584 N   0  0  0  0  0  0  0  0  0  0  0  0
   55.6623   88.8470   21.3455 C   0  0  0  0  0  0  0  0  0  0  0  0
   55.6984   90.1891   21.6319 C   0  0  0  0  0  0  0  0  0  0  0  0
   54.8458   91.1069   21.0584 C   0  0  0  0  0  0  0  0  0  0  0  0
   54.8598   92.3232   21.3017 O   0  0  0  0  0  0  0  0  0  0  0  0
   52.9488   88.8391   18.9649 C   0  0  0  0  0  0  0  0  0  0  0  0
   52.0717   89.7036   18.3589 C   0  0  0  0  0  0  0  0  0  0  0  0
 15 16  1  0  0  0
 16 17  2  0  0  0
 16 26  1  0  0  0
 17 18  1  0  0  0
 18 19  1  0  0  0
 18 23  1  0  0  0
 19 20  2  0  0  0
 19 25  1  0  0  0
 20 21  1  0  0  0
 21 22  2  0  0  0
 21  1  1  0  0  0
 22 23  1  0  0  0
 23 24  2  0  0  0
  1  2  1  0  0  0
  2  3  1  0  0  0
  2  6  1  0  0  0
  3  4  2  0  0  0
  3 11  1  0  0  0
  4  5  1  0  0  0
  4  7  1  0  0  0
  5  6  2  0  0  0
  7  8  1  0  0  0
  7 14  1  0  0  0
  8  9  2  0  0  0
  8 10  1  0  0  0
 10 11  1  0  0  0
 10 13  1  0  0  0
 11 12  2  0  0  0
 25 26  2  0  0  0
M  END
> <minimizedAffinity>
-8.83324

$$$$
2416


 34 37  0  0  0  0  0  0  0  0999 V2000
   52.6934   84.2372   26.3620 N   0  0  0  0  0  0  0  0  0  0  0  0
   53.9387   84.2005   26.9816 C   0  0  0  0  0  0  0  0  0  0  0  0
   55.0318   84.3137   25.9104 C   0  0  0  0  0  0  0  0  0  0  0  0
   54.6299   85.2996   24.9058 N   0  0  0  0  0  0  0  0  0  0  0  0
   53.3720   85.0468   24.2309 C   0  0  0  0  0  0  0  0  0  0  0  0
   52.6943   83.9025   24.9989 C   0  0  0  0  0  0  0  0  0  0  0  0
   55.4442   86.4379   24.6494 C   0  0  0  0  0  0  0  0  0  0  0  0
   56.4999   86.5547   25.3145 O   0  0  0  0  0  0  0  0  0  0  0  0
   51.2796   84.3481   27.2202 S   0  0  0  0  0  0  0  0  0  0  0  0
   50.7418   85.7620   27.0983 O   0  0  0  0  0  0  0  0  0  0  0  0
   50.1729   83.4495   26.7089 O   0  0  0  0  0  0  0  0  0  0  0  0
   51.4640   84.0356   28.9497 C   0  0  0  0  0  0  0  0  0  0  0  0
   51.6506   85.0581   29.8508 C   0  0  0  0  0  0  0  0  0  0  0  0
   51.7944   84.7644   31.1892 C   0  0  0  0  0  0  0  0  0  0  0  0
   51.7605   83.4764   31.6902 C   0  0  0  0  0  0  0  0  0  0  0  0
   51.5716   82.4454   30.7779 C   0  0  0  0  0  0  0  0  0  0  0  0
   51.4290   82.7442   29.4419 C   0  0  0  0  0  0  0  0  0  0  0  0
   51.9383   83.0982   33.3718 Cl  0  0  0  0  0  0  0  0  0  0  0  0
   55.0521   87.4278   23.6467 C   0  0  0  0  0  0  0  0  0  0  0  0
   55.7674   87.2782   22.3120 C   0  0  0  0  0  0  0  0  0  0  0  0
   56.3075   88.5130   21.8073 N   0  0  0  0  0  0  0  0  0  0  0  0
   55.9536   89.3320   20.7020 C   0  0  0  0  0  0  0  0  0  0  0  0
   56.7925   90.1380   20.2196 O   0  0  0  0  0  0  0  0  0  0  0  0
   54.6532   89.3649   19.9982 C   0  0  0  0  0  0  0  0  0  0  0  0
   53.7110   88.3327   19.9292 C   0  0  0  0  0  0  0  0  0  0  0  0
   52.5477   88.5286   19.2407 C   0  0  0  0  0  0  0  0  0  0  0  0
   52.2483   89.7293   18.5943 C   0  0  0  0  0  0  0  0  0  0  0  0
   53.2063   90.7398   18.6828 C   0  0  0  0  0  0  0  0  0  0  0  0
   54.3844   90.5554   19.3727 C   0  0  0  0  0  0  0  0  0  0  0  0
   53.8377   87.0491   20.5224 N   0  0  0  0  0  0  0  0  0  0  0  0
   54.8876   86.5619   21.3638 C   0  0  0  0  0  0  0  0  0  0  0  0
   55.0588   85.2974   21.2448 O   0  0  0  0  0  0  0  0  0  0  0  0
   57.1367   88.9324   22.3342 H   0  0  0  0  0  0  0  0  0  0  0  0
   53.0763   86.4028   20.3172 H   0  0  0  0  0  0  0  0  0  0  0  0
  9 10  2  0  0  0
  9 11  2  0  0  0
  9  1  1  0  0  0
  9 12  1  0  0  0
  1  2  1  0  0  0
  1  6  1  0  0  0
  2  3  1  0  0  0
  3  4  1  0  0  0
  4  5  1  0  0  0
  4  7  1  0  0  0
  5  6  1  0  0  0
  7  8  2  0  0  0
  7 19  1  0  0  0
 19 20  1  0  0  0
 20 21  1  0  0  0
 20 31  1  0  0  0
 21 22  1  0  0  0
 22 23  2  0  0  0
 22 24  1  0  0  0
 24 25  2  0  0  0
 24 29  1  0  0  0
 25 26  1  0  0  0
 25 30  1  0  0  0
 26 27  2  0  0  0
 27 28  1  0  0  0
 28 29  2  0  0  0
 30 31  1  0  0  0
 31 32  2  0  0  0
 12 13  2  0  0  0
 12 17  1  0  0  0
 13 14  1  0  0  0
 14 15  2  0  0  0
 15 16  1  0  0  0
 15 18  1  0  0  0
 16 17  2  0  0  0
 21 33  1  0  0  0
 30 34  1  0  0  0
M  END
> <minimizedAffinity>
-9.52273

$$$$
2417


 27 30  0  0  0  0  0  0  0  0999 V2000
   55.8737   87.6653   22.0372 N   0  0  0  0  0  0  0  0  0  0  0  0
   55.2184   86.4606   22.5972 C   0  0  0  0  0  0  0  0  0  0  0  0
   55.2737   86.7050   24.0353 C   0  0  0  0  0  0  0  0  0  0  0  0
   56.7488   87.0293   24.2103 C   0  0  0  0  0  0  0  0  0  0  0  0
   56.8373   88.0335   22.9838 C   0  0  0  0  0  0  0  0  0  0  0  0
   57.6186   85.8804   23.7884 C   0  0  0  0  0  0  0  0  0  0  0  0
   58.4950   86.3132   22.7588 O   0  0  0  0  0  0  0  0  0  0  0  0
   59.0798   87.0463   23.1926 H   0  0  0  0  0  0  0  0  0  0  0  0
   54.7892   88.6093   21.7274 C   0  0  0  0  0  0  0  0  0  0  0  0
   56.2673   90.9092   20.3794 Cl  0  0  0  0  0  0  0  0  0  0  0  0
   55.2562   90.3549   19.0492 C   0  0  0  0  0  0  0  0  0  0  0  0
   54.3610   89.3447   19.3081 C   0  0  0  0  0  0  0  0  0  0  0  0
   53.5043   88.9820   18.2947 C   0  0  0  0  0  0  0  0  0  0  0  0
   52.8033   87.9381   18.7890 N   0  0  0  0  0  0  0  0  0  0  0  0
   53.2105   87.6699   20.0009 N   0  0  0  0  0  0  0  0  0  0  0  0
   54.2115   88.5317   20.4093 C   0  0  0  0  0  0  0  0  0  0  0  0
   51.6728   87.2995   18.0926 C   0  0  0  0  0  0  0  0  0  0  0  0
   53.5229   89.5707   17.0671 C   0  0  0  0  0  0  0  0  0  0  0  0
   54.4441   90.5929   16.8197 C   0  0  0  0  0  0  0  0  0  0  0  0
   55.3180   90.9774   17.8316 C   0  0  0  0  0  0  0  0  0  0  0  0
   54.8851   85.5437   24.9163 C   0  0  0  0  0  0  0  0  0  0  0  0
   53.4688   85.5739   25.1054 N   0  0  0  0  0  0  0  0  0  0  0  0
   52.7611   84.6651   24.2284 C   0  0  0  0  0  0  0  0  0  0  0  0
   51.9251   83.6428   24.9628 C   0  0  0  0  0  0  0  0  0  0  0  0
   51.0456   84.1863   25.8709 O   0  0  0  0  0  0  0  0  0  0  0  0
   51.5577   85.3102   26.5129 C   0  0  0  0  0  0  0  0  0  0  0  0
   53.0543   85.2750   26.4566 C   0  0  0  0  0  0  0  0  0  0  0  0
 10 11  1  0  0  0
 11 12  2  0  0  0
 11 20  1  0  0  0
 12 13  1  0  0  0
 12 16  1  0  0  0
 13 14  1  0  0  0
 13 18  2  0  0  0
 14 15  1  0  0  0
 14 17  1  0  0  0
 15 16  2  0  0  0
 16  9  1  0  0  0
  9  1  1  0  0  0
  1  2  1  0  0  0
  1  5  1  0  0  0
  2  3  1  0  0  0
  3  4  1  0  0  0
  3 21  1  0  0  0
  4  5  1  0  0  0
  4  6  1  0  0  0
  6  7  1  0  0  0
 21 22  1  0  0  0
 22 23  1  0  0  0
 22 27  1  0  0  0
 23 24  1  0  0  0
 24 25  1  0  0  0
 25 26  1  0  0  0
 26 27  1  0  0  0
 18 19  1  0  0  0
 19 20  2  0  0  0
  7  8  1  0  0  0
M  END
> <minimizedAffinity>
-8.16310

$$$$
2419


 32 36  0  0  0  0  0  0  0  0999 V2000
   53.8207   84.4981   19.7279 C   0  0  0  0  0  0  0  0  0  0  0  0
   54.4658   83.3674   19.2003 C   0  0  0  0  0  0  0  0  0  0  0  0
   54.1195   83.2929   17.9215 N   0  0  0  0  0  0  0  0  0  0  0  0
   54.3418   82.4942   16.8331 C   0  0  0  0  0  0  0  0  0  0  0  0
   53.6131   83.0577   15.8162 C   0  0  0  0  0  0  0  0  0  0  0  0
   53.0065   84.1264   16.3097 N   0  0  0  0  0  0  0  0  0  0  0  0
   53.3151   84.2870   17.6285 C   0  0  0  0  0  0  0  0  0  0  0  0
   53.1128   85.0557   18.7394 N   0  0  0  0  0  0  0  0  0  0  0  0
   53.5998   82.5004   14.5343 C   0  0  0  0  0  0  0  0  0  0  0  0
   54.3330   81.3619   14.2782 C   0  0  0  0  0  0  0  0  0  0  0  0
   55.0558   80.8166   15.3149 C   0  0  0  0  0  0  0  0  0  0  0  0
   55.0734   81.3640   16.5925 C   0  0  0  0  0  0  0  0  0  0  0  0
   52.3795   84.7295   15.7442 H   0  0  0  0  0  0  0  0  0  0  0  0
   54.5176   86.4296   25.5547 Br  0  0  0  0  0  0  0  0  0  0  0  0
   54.2906   85.8116   23.7447 C   0  0  0  0  0  0  0  0  0  0  0  0
   54.9486   86.3925   22.7044 C   0  0  0  0  0  0  0  0  0  0  0  0
   54.7844   85.9504   21.4232 C   0  0  0  0  0  0  0  0  0  0  0  0
   53.9473   84.8978   21.1125 C   0  0  0  0  0  0  0  0  0  0  0  0
   53.2921   84.3191   22.1458 C   0  0  0  0  0  0  0  0  0  0  0  0
   53.4516   84.7658   23.4801 C   0  0  0  0  0  0  0  0  0  0  0  0
   52.2592   86.2036   18.7043 C   0  0  0  0  0  0  0  0  0  0  0  0
   52.9047   87.5299   18.6787 C   0  0  0  0  0  0  0  0  0  0  0  0
   52.1103   88.7220   19.0740 C   0  0  0  0  0  0  0  0  0  0  0  0
   52.8001   89.9571   18.7732 N   0  0  0  0  0  0  0  0  0  0  0  0
   53.1142   90.0796   17.8138 H   0  0  0  0  0  0  0  0  0  0  0  0
   52.0516   90.7329   18.8949 H   0  0  0  0  0  0  0  0  0  0  0  0
   53.8193   90.2832   19.7262 C   0  0  0  0  0  0  0  0  0  0  0  0
   55.2253   90.0067   19.2738 C   0  0  0  0  0  0  0  0  0  0  0  0
   56.0793   89.9475   20.5491 C   0  0  0  0  0  0  0  0  0  0  0  0
   56.0238   91.2769   21.2183 C   0  0  0  0  0  0  0  0  0  0  0  0
   54.6196   91.7780   21.4640 C   0  0  0  0  0  0  0  0  0  0  0  0
   53.8007   91.7407   20.1686 C   0  0  0  0  0  0  0  0  0  0  0  0
 14 15  1  0  0  0
 15 16  2  0  0  0
 15 20  1  0  0  0
 16 17  1  0  0  0
 17 18  2  0  0  0
 18 19  1  0  0  0
 18  1  1  0  0  0
 19 20  2  0  0  0
  1  2  2  0  0  0
  1  8  1  0  0  0
  2  3  1  0  0  0
  3  4  1  0  0  0
  3  7  1  0  0  0
  4  5  2  0  0  0
  4 12  1  0  0  0
  5  6  1  0  0  0
  5  9  1  0  0  0
  6  7  2  0  0  0
  7  8  1  0  0  0
  8 21  1  0  0  0
 21 22  1  0  0  0
 22 23  1  0  0  0
 23 24  1  0  0  0
 24 27  1  0  0  0
 27 28  1  0  0  0
 27 32  1  0  0  0
 28 29  1  0  0  0
 29 30  1  0  0  0
 30 31  1  0  0  0
 31 32  1  0  0  0
  9 10  2  0  0  0
 10 11  1  0  0  0
 11 12  2  0  0  0
  6 13  1  0  0  0
 24 25  1  0  0  0
 24 26  1  0  0  0
M  CHG 1  24   1
M  END
> <minimizedAffinity>
-8.83089

$$$$
2420


 29 32  0  0  0  0  0  0  0  0999 V2000
   56.0990   87.8546   22.5019 N   0  0  0  0  0  0  0  0  0  0  0  0
   56.2157   88.8138   23.5987 C   0  0  0  0  0  0  0  0  0  0  0  0
   56.6129   87.9430   24.7697 C   0  0  0  0  0  0  0  0  0  0  0  0
   57.6432   87.0115   24.1422 C   0  0  0  0  0  0  0  0  0  0  0  0
   57.1864   86.9486   22.7092 C   0  0  0  0  0  0  0  0  0  0  0  0
   57.6838   86.2060   21.8111 O   0  0  0  0  0  0  0  0  0  0  0  0
   54.1873   91.4146   16.7045 Br  0  0  0  0  0  0  0  0  0  0  0  0
   54.5526   90.3387   18.2313 C   0  0  0  0  0  0  0  0  0  0  0  0
   53.7656   89.2496   18.5319 C   0  0  0  0  0  0  0  0  0  0  0  0
   54.0130   88.4680   19.6210 C   0  0  0  0  0  0  0  0  0  0  0  0
   53.4354   87.3601   20.1661 N   0  0  0  0  0  0  0  0  0  0  0  0
   54.1009   87.0052   21.2546 N   0  0  0  0  0  0  0  0  0  0  0  0
   55.1232   87.8428   21.4727 C   0  0  0  0  0  0  0  0  0  0  0  0
   55.0721   88.7719   20.4405 C   0  0  0  0  0  0  0  0  0  0  0  0
   55.8824   89.8652   20.1606 C   0  0  0  0  0  0  0  0  0  0  0  0
   55.6313   90.6532   19.0601 C   0  0  0  0  0  0  0  0  0  0  0  0
   52.5920   86.9303   19.7111 H   0  0  0  0  0  0  0  0  0  0  0  0
   55.4659   87.1632   25.2930 C   0  0  0  0  0  0  0  0  0  0  0  0
   54.3574   87.7429   25.4067 O   0  0  0  0  0  0  0  0  0  0  0  0
   55.5755   85.8042   25.6657 N   0  0  0  0  0  0  0  0  0  0  0  0
   56.5196   85.3530   25.5584 H   0  0  0  0  0  0  0  0  0  0  0  0
   54.4653   85.0405   26.1741 C   0  0  0  0  0  0  0  0  0  0  0  0
   54.5315   83.6290   25.6306 C   0  0  0  0  0  0  0  0  0  0  0  0
   53.6663   83.4226   24.4953 N   0  0  0  0  0  0  0  0  0  0  0  0
   52.8274   82.2665   24.7911 C   0  0  0  0  0  0  0  0  0  0  0  0
   51.6149   82.6891   25.6162 C   0  0  0  0  0  0  0  0  0  0  0  0
   50.7407   83.4791   24.9072 O   0  0  0  0  0  0  0  0  0  0  0  0
   51.4061   84.0777   23.8629 C   0  0  0  0  0  0  0  0  0  0  0  0
   52.7907   84.5481   24.2596 C   0  0  0  0  0  0  0  0  0  0  0  0
  7  8  1  0  0  0
  8  9  2  0  0  0
  8 16  1  0  0  0
  9 10  1  0  0  0
 10 11  1  0  0  0
 10 14  2  0  0  0
 11 12  1  0  0  0
 12 13  2  0  0  0
 13 14  1  0  0  0
 13  1  1  0  0  0
 14 15  1  0  0  0
 15 16  2  0  0  0
  1  2  1  0  0  0
  1  5  1  0  0  0
  2  3  1  0  0  0
  3  4  1  0  0  0
  3 18  1  0  0  0
  4  5  1  0  0  0
  5  6  2  0  0  0
 18 19  2  0  0  0
 18 20  1  0  0  0
 20 22  1  0  0  0
 22 23  1  0  0  0
 23 24  1  0  0  0
 24 25  1  0  0  0
 24 29  1  0  0  0
 25 26  1  0  0  0
 26 27  1  0  0  0
 27 28  1  0  0  0
 28 29  1  0  0  0
 11 17  1  0  0  0
 20 21  1  0  0  0
M  END
> <minimizedAffinity>
-9.14063

$$$$
2432


 26 29  0  0  0  0  0  0  0  0999 V2000
   56.7874   87.9332   22.5993 C   0  0  0  0  0  0  0  0  0  0  0  0
   57.3936   87.0546   21.8224 O   0  0  0  0  0  0  0  0  0  0  0  0
   56.7591   87.6570   23.9570 N   0  0  0  0  0  0  0  0  0  0  0  0
   57.3675   86.3850   24.4167 C   0  0  0  0  0  0  0  0  0  0  0  0
   56.2549   85.6027   25.0617 C   0  0  0  0  0  0  0  0  0  0  0  0
   55.0216   86.3123   25.1900 N   0  0  0  0  0  0  0  0  0  0  0  0
   54.9214   87.7497   25.3953 C   0  0  0  0  0  0  0  0  0  0  0  0
   56.2322   88.4255   25.0228 C   0  0  0  0  0  0  0  0  0  0  0  0
   53.7895   85.6069   25.1162 C   0  0  0  0  0  0  0  0  0  0  0  0
   53.0108   85.4509   26.2032 N   0  0  0  0  0  0  0  0  0  0  0  0
   51.8357   84.7803   26.1516 C   0  0  0  0  0  0  0  0  0  0  0  0
   51.4089   84.2448   24.9950 N   0  0  0  0  0  0  0  0  0  0  0  0
   52.1274   84.3565   23.8662 C   0  0  0  0  0  0  0  0  0  0  0  0
   51.9286   83.9235   22.6074 N   0  0  0  0  0  0  0  0  0  0  0  0
   52.9634   84.3190   21.8936 N   0  0  0  0  0  0  0  0  0  0  0  0
   53.8399   85.0064   22.6627 C   0  0  0  0  0  0  0  0  0  0  0  0
   53.3392   85.0526   23.9371 C   0  0  0  0  0  0  0  0  0  0  0  0
   50.7936   83.1569   22.0921 C   0  0  0  0  0  0  0  0  0  0  0  0
   54.6887   92.6026   21.2433 Cl  0  0  0  0  0  0  0  0  0  0  0  0
   55.3831   90.9962   21.2084 C   0  0  0  0  0  0  0  0  0  0  0  0
   55.7643   90.2169   22.2585 N   0  0  0  0  0  0  0  0  0  0  0  0
   56.2563   89.0448   21.8541 C   0  0  0  0  0  0  0  0  0  0  0  0
   56.1708   89.1086   20.4573 C   0  0  0  0  0  0  0  0  0  0  0  0
   55.6342   90.3079   20.0526 C   0  0  0  0  0  0  0  0  0  0  0  0
   55.3283   90.8589   18.4194 Cl  0  0  0  0  0  0  0  0  0  0  0  0
   55.6323   90.5840   23.2221 H   0  0  0  0  0  0  0  0  0  0  0  0
 19 20  1  0  0  0
 20 21  1  0  0  0
 20 24  2  0  0  0
 21 22  1  0  0  0
 22 23  2  0  0  0
 22  1  1  0  0  0
 23 24  1  0  0  0
 24 25  1  0  0  0
  1  2  2  0  0  0
  1  3  1  0  0  0
  3  4  1  0  0  0
  3  8  1  0  0  0
  4  5  1  0  0  0
  5  6  1  0  0  0
  6  7  1  0  0  0
  6  9  1  0  0  0
  7  8  1  0  0  0
  9 10  2  0  0  0
  9 17  1  0  0  0
 10 11  1  0  0  0
 11 12  2  0  0  0
 12 13  1  0  0  0
 13 14  1  0  0  0
 13 17  2  0  0  0
 14 15  1  0  0  0
 14 18  1  0  0  0
 15 16  2  0  0  0
 16 17  1  0  0  0
 21 26  1  0  0  0
M  END
> <minimizedAffinity>
-8.62209

$$$$
2439


 30 34  0  0  0  0  0  0  0  0999 V2000
   53.8076   84.4828   19.6959 C   0  0  0  0  0  0  0  0  0  0  0  0
   54.4953   83.3750   19.1688 C   0  0  0  0  0  0  0  0  0  0  0  0
   54.1926   83.2507   17.8784 N   0  0  0  0  0  0  0  0  0  0  0  0
   54.4343   82.4840   16.7833 C   0  0  0  0  0  0  0  0  0  0  0  0
   53.7096   83.0129   15.7708 C   0  0  0  0  0  0  0  0  0  0  0  0
   53.0537   84.0731   16.2651 N   0  0  0  0  0  0  0  0  0  0  0  0
   53.3444   84.2350   17.5753 C   0  0  0  0  0  0  0  0  0  0  0  0
   53.0974   85.0045   18.6858 N   0  0  0  0  0  0  0  0  0  0  0  0
   53.7454   82.4472   14.5086 C   0  0  0  0  0  0  0  0  0  0  0  0
   54.5222   81.3279   14.2570 C   0  0  0  0  0  0  0  0  0  0  0  0
   55.2662   80.7855   15.2963 C   0  0  0  0  0  0  0  0  0  0  0  0
   55.2069   81.3751   16.5390 C   0  0  0  0  0  0  0  0  0  0  0  0
   52.3960   84.6915   15.7228 H   0  0  0  0  0  0  0  0  0  0  0  0
   54.5144   86.3796   25.5581 Br  0  0  0  0  0  0  0  0  0  0  0  0
   54.2933   85.7887   23.7694 C   0  0  0  0  0  0  0  0  0  0  0  0
   54.9645   86.3686   22.7327 C   0  0  0  0  0  0  0  0  0  0  0  0
   54.7788   85.9122   21.4424 C   0  0  0  0  0  0  0  0  0  0  0  0
   53.9242   84.8622   21.1084 C   0  0  0  0  0  0  0  0  0  0  0  0
   53.2612   84.2917   22.1503 C   0  0  0  0  0  0  0  0  0  0  0  0
   53.4464   84.7559   23.4752 C   0  0  0  0  0  0  0  0  0  0  0  0
   52.2131   86.1224   18.6966 C   0  0  0  0  0  0  0  0  0  0  0  0
   52.8751   87.4763   18.7091 C   0  0  0  0  0  0  0  0  0  0  0  0
   52.0614   88.6112   19.1462 C   0  0  0  0  0  0  0  0  0  0  0  0
   52.0784   89.8298   18.3917 N   0  0  0  0  0  0  0  0  0  0  0  0
   51.9713   91.0070   19.2348 C   0  0  0  0  0  0  0  0  0  0  0  0
   53.2330   91.5552   19.7516 C   0  0  0  0  0  0  0  0  0  0  0  0
   54.4853   91.0285   19.1560 C   0  0  0  0  0  0  0  0  0  0  0  0
   54.2996   90.6938   17.7184 C   0  0  0  0  0  0  0  0  0  0  0  0
   53.0837   89.9099   17.3924 C   0  0  0  0  0  0  0  0  0  0  0  0
   51.1610   89.8385   17.8919 H   0  0  0  0  0  0  0  0  0  0  0  0
 14 15  1  0  0  0
 15 16  2  0  0  0
 15 20  1  0  0  0
 16 17  1  0  0  0
 17 18  2  0  0  0
 18 19  1  0  0  0
 18  1  1  0  0  0
 19 20  2  0  0  0
  1  2  2  0  0  0
  1  8  1  0  0  0
  2  3  1  0  0  0
  3  4  1  0  0  0
  3  7  1  0  0  0
  4  5  2  0  0  0
  4 12  1  0  0  0
  5  6  1  0  0  0
  5  9  1  0  0  0
  6  7  2  0  0  0
  7  8  1  0  0  0
  8 21  1  0  0  0
 21 22  1  0  0  0
 22 23  1  0  0  0
 23 24  1  0  0  0
 24 25  1  0  0  0
 24 29  1  0  0  0
 25 26  1  0  0  0
 26 27  1  0  0  0
 27 28  1  0  0  0
 28 29  1  0  0  0
  9 10  2  0  0  0
 10 11  1  0  0  0
 11 12  2  0  0  0
  6 13  1  0  0  0
 24 30  1  0  0  0
M  CHG 1  24   1
M  END
> <minimizedAffinity>
-8.70748

$$$$
2440


 33 36  0  0  0  0  0  0  0  0999 V2000
   52.2984   80.1782   29.0761 Cl  0  0  0  0  0  0  0  0  0  0  0  0
   52.7179   81.8846   28.9620 C   0  0  0  0  0  0  0  0  0  0  0  0
   53.1637   82.3531   27.7171 C   0  0  0  0  0  0  0  0  0  0  0  0
   53.4883   83.6795   27.6329 C   0  0  0  0  0  0  0  0  0  0  0  0
   53.3797   84.5361   28.7486 C   0  0  0  0  0  0  0  0  0  0  0  0
   52.9429   84.0662   29.9612 C   0  0  0  0  0  0  0  0  0  0  0  0
   52.6169   82.7298   30.0402 C   0  0  0  0  0  0  0  0  0  0  0  0
   53.9129   83.9523   26.2531 C   0  0  0  0  0  0  0  0  0  0  0  0
   55.1708   84.5988   26.1376 N   0  0  0  0  0  0  0  0  0  0  0  0
   55.2411   85.3883   24.9878 C   0  0  0  0  0  0  0  0  0  0  0  0
   53.8035   85.5855   24.5587 C   0  0  0  0  0  0  0  0  0  0  0  0
   52.9368   84.9078   25.5693 C   0  0  0  0  0  0  0  0  0  0  0  0
   51.8671   84.1854   24.8321 C   0  0  0  0  0  0  0  0  0  0  0  0
   50.9094   83.5969   25.3861 O   0  0  0  0  0  0  0  0  0  0  0  0
   52.1452   84.2960   23.4356 N   0  0  0  0  0  0  0  0  0  0  0  0
   53.4644   84.8501   23.3206 C   0  0  0  0  0  0  0  0  0  0  0  0
   54.1941   84.7209   22.3250 O   0  0  0  0  0  0  0  0  0  0  0  0
   53.8429   82.6617   25.5618 C   0  0  0  0  0  0  0  0  0  0  0  0
   54.1412   82.3837   24.3586 O   0  0  0  0  0  0  0  0  0  0  0  0
   53.3643   81.6920   26.4738 N   0  0  0  0  0  0  0  0  0  0  0  0
   55.9978   84.0313   26.3864 H   0  0  0  0  0  0  0  0  0  0  0  0
   53.1770   80.6743   26.3122 H   0  0  0  0  0  0  0  0  0  0  0  0
   51.2997   83.9426   22.3369 C   0  0  0  0  0  0  0  0  0  0  0  0
   51.3428   82.5191   21.9108 C   0  0  0  0  0  0  0  0  0  0  0  0
   50.5429   81.5582   22.7167 C   0  0  0  0  0  0  0  0  0  0  0  0
   49.0782   81.9722   22.8032 C   0  0  0  0  0  0  0  0  0  0  0  0
   56.0204   86.6453   25.0182 C   0  0  0  0  0  0  0  0  0  0  0  0
   57.2895   86.7027   24.2663 C   0  0  0  0  0  0  0  0  0  0  0  0
   57.2173   86.6055   22.8048 C   0  0  0  0  0  0  0  0  0  0  0  0
   58.1157   86.0300   22.1632 O   0  0  0  0  0  0  0  0  0  0  0  0
   56.1400   87.1484   22.0458 N   0  0  0  0  0  0  0  0  0  0  0  0
   55.1740   86.7772   22.0777 H   0  0  0  0  0  0  0  0  0  0  0  0
   56.3277   87.9570   21.4294 H   0  0  0  0  0  0  0  0  0  0  0  0
  1  2  1  0  0  0
  2  3  2  0  0  0
  2  7  1  0  0  0
  3  4  1  0  0  0
  3 20  1  0  0  0
  4  5  2  0  0  0
  4  8  1  0  0  0
  5  6  1  0  0  0
  6  7  2  0  0  0
  8  9  1  0  0  0
  8 12  1  0  0  0
  8 18  1  0  0  0
  9 10  1  0  0  0
 10 11  1  0  0  0
 10 27  1  0  0  0
 11 12  1  0  0  0
 11 16  1  0  0  0
 12 13  1  0  0  0
 13 14  2  0  0  0
 13 15  1  0  0  0
 15 16  1  0  0  0
 15 23  1  0  0  0
 16 17  2  0  0  0
 23 24  1  0  0  0
 24 25  1  0  0  0
 25 26  1  0  0  0
 27 28  1  0  0  0
 28 29  1  0  0  0
 29 30  2  0  0  0
 29 31  1  0  0  0
 18 19  2  0  0  0
 18 20  1  0  0  0
  9 21  1  0  0  0
 31 32  1  0  0  0
 31 33  1  0  0  0
 20 22  1  0  0  0
M  END
> <minimizedAffinity>
-7.01973

$$$$
2447


 33 36  0  0  0  0  0  0  0  0999 V2000
   54.0261   84.2517   26.5811 C   0  0  0  0  0  0  0  0  0  0  0  0
   55.1169   83.3272   26.1563 C   0  0  0  0  0  0  0  0  0  0  0  0
   54.9952   82.0794   26.1867 O   0  0  0  0  0  0  0  0  0  0  0  0
   56.2706   83.9788   25.7282 O   0  0  0  0  0  0  0  0  0  0  0  0
   56.2974   85.2342   25.1576 C   0  0  0  0  0  0  0  0  0  0  0  0
   55.1214   85.8803   25.0008 C   0  0  0  0  0  0  0  0  0  0  0  0
   53.9078   85.2227   25.4347 C   0  0  0  0  0  0  0  0  0  0  0  0
   52.8063   85.4315   24.8992 O   0  0  0  0  0  0  0  0  0  0  0  0
   52.7376   83.5576   26.8473 C   0  0  0  0  0  0  0  0  0  0  0  0
   51.0110   84.1752   30.5423 N   0  0  0  0  0  0  0  0  0  0  0  0
   52.3111   83.7215   30.1781 C   0  0  0  0  0  0  0  0  0  0  0  0
   52.8228   84.5788   29.0372 C   0  0  0  0  0  0  0  0  0  0  0  0
   52.0394   84.2517   27.8716 N   0  0  0  0  0  0  0  0  0  0  0  0
   50.6991   83.8747   28.1274 C   0  0  0  0  0  0  0  0  0  0  0  0
   50.2460   84.5789   29.4071 C   0  0  0  0  0  0  0  0  0  0  0  0
   50.9756   85.2537   31.8548 S   0  0  0  0  0  0  0  0  0  0  0  0
   52.1638   86.1907   31.8928 O   0  0  0  0  0  0  0  0  0  0  0  0
   49.7498   86.1441   31.6988 O   0  0  0  0  0  0  0  0  0  0  0  0
   50.8482   84.4669   33.4165 C   0  0  0  0  0  0  0  0  0  0  0  0
   55.0652   87.2133   24.3854 C   0  0  0  0  0  0  0  0  0  0  0  0
   55.5928   87.3022   23.0866 N   0  0  0  0  0  0  0  0  0  0  0  0
   56.4470   88.3500   22.7223 C   0  0  0  0  0  0  0  0  0  0  0  0
   56.4505   88.5335   21.1876 C   0  0  0  0  0  0  0  0  0  0  0  0
   55.0594   88.5456   20.8136 N   0  0  0  0  0  0  0  0  0  0  0  0
   54.3909   87.2594   20.9488 C   0  0  0  0  0  0  0  0  0  0  0  0
   55.0466   86.4724   22.0754 C   0  0  0  0  0  0  0  0  0  0  0  0
   54.3995   89.7073   20.3673 C   0  0  0  0  0  0  0  0  0  0  0  0
   53.4158   89.7076   19.4047 C   0  0  0  0  0  0  0  0  0  0  0  0
   52.8014   90.8726   19.0086 C   0  0  0  0  0  0  0  0  0  0  0  0
   53.1303   92.0952   19.5456 C   0  0  0  0  0  0  0  0  0  0  0  0
   54.1071   92.1274   20.5069 C   0  0  0  0  0  0  0  0  0  0  0  0
   54.7292   90.9544   20.9086 C   0  0  0  0  0  0  0  0  0  0  0  0
   51.5630   90.8081   17.7838 Cl  0  0  0  0  0  0  0  0  0  0  0  0
 16 17  2  0  0  0
 16 18  2  0  0  0
 16 10  1  0  0  0
 16 19  1  0  0  0
 10 11  1  0  0  0
 10 15  1  0  0  0
 11 12  1  0  0  0
 12 13  1  0  0  0
 13 14  1  0  0  0
 13  9  1  0  0  0
 14 15  1  0  0  0
  9  1  1  0  0  0
  1  2  1  0  0  0
  1  7  1  0  0  0
  2  3  2  0  0  0
  2  4  1  0  0  0
  4  5  1  0  0  0
  5  6  2  0  0  0
  6  7  1  0  0  0
  6 20  1  0  0  0
  7  8  2  0  0  0
 20 21  1  0  0  0
 21 22  1  0  0  0
 21 26  1  0  0  0
 22 23  1  0  0  0
 23 24  1  0  0  0
 24 25  1  0  0  0
 24 27  1  0  0  0
 25 26  1  0  0  0
 27 28  2  0  0  0
 27 32  1  0  0  0
 28 29  1  0  0  0
 29 30  2  0  0  0
 29 33  1  0  0  0
 30 31  1  0  0  0
 31 32  2  0  0  0
M  END
> <minimizedAffinity>
-9.32969

$$$$
