3


 38 41  0  0  0  0  0  0  0  0999 V2000
   54.5995   90.0094   21.1147 C   0  0  0  0  0  0  0  0  0  0  0  0
   53.8857   89.8928   19.9483 N   0  0  0  0  0  0  0  0  0  0  0  0
   53.7351   88.6305   19.6571 N   0  0  0  0  0  0  0  0  0  0  0  0
   54.3067   87.8546   20.5618 N   0  0  0  0  0  0  0  0  0  0  0  0
   54.8497   88.6802   21.4724 C   0  0  0  0  0  0  0  0  0  0  0  0
   54.2773   86.4388   20.5245 C   0  0  0  0  0  0  0  0  0  0  0  0
   55.2645   85.5537   20.7793 N   0  0  0  0  0  0  0  0  0  0  0  0
   54.8130   84.3353   20.6412 O   0  0  0  0  0  0  0  0  0  0  0  0
   53.5497   84.3529   20.3001 N   0  0  0  0  0  0  0  0  0  0  0  0
   53.1838   85.6430   20.2188 C   0  0  0  0  0  0  0  0  0  0  0  0
   51.8863   86.0803   19.8751 N   0  0  0  0  0  0  0  0  0  0  0  0
   51.1147   85.9381   20.5518 H   0  0  0  0  0  0  0  0  0  0  0  0
   51.6728   86.5391   18.9712 H   0  0  0  0  0  0  0  0  0  0  0  0
   54.1787   92.1276   22.4945 N   0  0  0  0  0  0  0  0  0  0  0  0
   54.9668   91.2611   21.7493 C   0  0  0  0  0  0  0  0  0  0  0  0
   56.1993   91.5995   21.5867 O   0  0  0  0  0  0  0  0  0  0  0  0
   53.1625   92.0220   22.7262 H   0  0  0  0  0  0  0  0  0  0  0  0
   54.4913   93.7310   24.1820 C   0  0  0  0  0  0  0  0  0  0  0  0
   54.8118   93.3091   23.0108 N   0  0  0  0  0  0  0  0  0  0  0  0
   58.7050   96.9138   24.6899 Br  0  0  0  0  0  0  0  0  0  0  0  0
   56.9213   96.4348   25.1115 C   0  0  0  0  0  0  0  0  0  0  0  0
   56.1987   97.1943   25.9846 C   0  0  0  0  0  0  0  0  0  0  0  0
   54.8905   96.8160   26.2756 C   0  0  0  0  0  0  0  0  0  0  0  0
   54.3532   95.6816   25.6756 C   0  0  0  0  0  0  0  0  0  0  0  0
   55.0717   94.9139   24.7986 C   0  0  0  0  0  0  0  0  0  0  0  0
   56.3640   95.2999   24.5204 C   0  0  0  0  0  0  0  0  0  0  0  0
   57.0819   94.5155   23.6308 O   0  0  0  0  0  0  0  0  0  0  0  0
   53.8592   97.8501   27.4840 Br  0  0  0  0  0  0  0  0  0  0  0  0
   56.7154   98.3288   26.5932 O   0  0  0  0  0  0  0  0  0  0  0  0
   58.0360   94.7572   23.3938 H   0  0  0  0  0  0  0  0  0  0  0  0
   56.1615   98.8721   27.2349 H   0  0  0  0  0  0  0  0  0  0  0  0
   55.5670   88.2966   22.6919 C   0  0  0  0  0  0  0  0  0  0  0  0
   54.7000   88.0171   23.8396 N   0  0  0  0  0  0  0  0  0  0  0  0
   55.2681   88.6832   25.0281 C   0  0  0  0  0  0  0  0  0  0  0  0
   56.7289   88.4078   25.1108 C   0  0  0  0  0  0  0  0  0  0  0  0
   56.9463   87.0524   25.0725 O   0  0  0  0  0  0  0  0  0  0  0  0
   55.8102   86.2935   25.1757 C   0  0  0  0  0  0  0  0  0  0  0  0
   54.7681   86.5636   24.1218 C   0  0  0  0  0  0  0  0  0  0  0  0
 20 21  1  0  0  0
 21 22  2  0  0  0
 21 26  1  0  0  0
 22 23  1  0  0  0
 22 29  1  0  0  0
 23 24  2  0  0  0
 23 28  1  0  0  0
 24 25  1  0  0  0
 25 26  2  0  0  0
 25 18  1  0  0  0
 26 27  1  0  0  0
 18 19  2  0  0  0
 19 14  1  0  0  0
 14 15  1  0  0  0
 15 16  2  0  0  0
 15  1  1  0  0  0
  1  2  1  0  0  0
  1  5  2  0  0  0
  2  3  2  0  0  0
  3  4  1  0  0  0
  4  5  1  0  0  0
  4  6  1  0  0  0
  5 32  1  0  0  0
 32 33  1  0  0  0
 33 34  1  0  0  0
 33 38  1  0  0  0
 34 35  1  0  0  0
 35 36  1  0  0  0
 36 37  1  0  0  0
 37 38  1  0  0  0
  6  7  2  0  0  0
  6 10  1  0  0  0
  7  8  1  0  0  0
  8  9  1  0  0  0
  9 10  2  0  0  0
 10 11  1  0  0  0
 27 30  1  0  0  0
 14 17  1  0  0  0
 11 12  1  0  0  0
 11 13  1  0  0  0
 29 31  1  0  0  0
M  END
> <minimizedAffinity>
-8.78459

$$$$
708


 31 34  0  0  0  0  0  0  0  0999 V2000
   53.0825   84.9922   22.1443 C   0  0  0  0  0  0  0  0  0  0  0  0
   54.0983   85.2963   21.0824 C   0  0  0  0  0  0  0  0  0  0  0  0
   56.4842   87.0067   22.4858 Br  0  0  0  0  0  0  0  0  0  0  0  0
   55.1357   87.5601   21.2607 C   0  0  0  0  0  0  0  0  0  0  0  0
   54.1986   86.7031   20.7520 N   0  0  0  0  0  0  0  0  0  0  0  0
   53.4415   87.4673   19.9399 C   0  0  0  0  0  0  0  0  0  0  0  0
   53.8907   88.7780   19.9339 C   0  0  0  0  0  0  0  0  0  0  0  0
   54.9500   88.7948   20.7715 N   0  0  0  0  0  0  0  0  0  0  0  0
   53.3264   89.7674   19.2202 N   0  0  0  0  0  0  0  0  0  0  0  0
   52.2574   89.4359   18.4742 C   0  0  0  0  0  0  0  0  0  0  0  0
   51.6861   90.3403   17.7769 O   0  0  0  0  0  0  0  0  0  0  0  0
   51.7869   88.1753   18.4514 N   0  0  0  0  0  0  0  0  0  0  0  0
   52.3565   87.1704   19.1736 C   0  0  0  0  0  0  0  0  0  0  0  0
   51.9066   86.0065   19.1430 O   0  0  0  0  0  0  0  0  0  0  0  0
   53.8034   91.1339   19.2189 C   0  0  0  0  0  0  0  0  0  0  0  0
   50.9601   87.9021   17.8787 H   0  0  0  0  0  0  0  0  0  0  0  0
   53.2869   83.6823   22.8497 C   0  0  0  0  0  0  0  0  0  0  0  0
   52.6030   83.6961   24.1354 N   0  0  0  0  0  0  0  0  0  0  0  0
   53.0916   84.0602   25.3429 C   0  0  0  0  0  0  0  0  0  0  0  0
   52.1211   83.9301   26.3090 C   0  0  0  0  0  0  0  0  0  0  0  0
   51.0286   83.4781   25.6654 N   0  0  0  0  0  0  0  0  0  0  0  0
   51.3275   83.3392   24.3559 C   0  0  0  0  0  0  0  0  0  0  0  0
   50.1565   82.7337   22.9741 Br  0  0  0  0  0  0  0  0  0  0  0  0
   52.3184   84.2199   27.6086 N   0  0  0  0  0  0  0  0  0  0  0  0
   53.5540   84.6618   27.9488 C   0  0  0  0  0  0  0  0  0  0  0  0
   53.7436   84.9371   29.1729 O   0  0  0  0  0  0  0  0  0  0  0  0
   54.5345   84.8038   27.0324 N   0  0  0  0  0  0  0  0  0  0  0  0
   54.3254   84.5106   25.7326 C   0  0  0  0  0  0  0  0  0  0  0  0
   55.2155   84.6318   24.8562 O   0  0  0  0  0  0  0  0  0  0  0  0
   51.2568   84.0657   28.6003 C   0  0  0  0  0  0  0  0  0  0  0  0
   55.4619   85.1477   27.3517 H   0  0  0  0  0  0  0  0  0  0  0  0
  3  4  1  0  0  0
  4  5  1  0  0  0
  4  8  2  0  0  0
  5  6  1  0  0  0
  5  2  1  0  0  0
  6  7  2  0  0  0
  6 13  1  0  0  0
  7  8  1  0  0  0
  7  9  1  0  0  0
  9 10  1  0  0  0
  9 15  1  0  0  0
 10 11  2  0  0  0
 10 12  1  0  0  0
 12 13  1  0  0  0
 13 14  2  0  0  0
  2  1  1  0  0  0
  1 17  1  0  0  0
 17 18  1  0  0  0
 18 19  1  0  0  0
 18 22  1  0  0  0
 19 20  2  0  0  0
 19 28  1  0  0  0
 20 21  1  0  0  0
 20 24  1  0  0  0
 21 22  2  0  0  0
 22 23  1  0  0  0
 24 25  1  0  0  0
 24 30  1  0  0  0
 25 26  2  0  0  0
 25 27  1  0  0  0
 27 28  1  0  0  0
 28 29  2  0  0  0
 12 16  1  0  0  0
 27 31  1  0  0  0
M  END
> <minimizedAffinity>
-8.04679

$$$$
1808


 24 28  0  0  0  0  0  0  0  0999 V2000
   54.9525   88.3255   20.5408 N   0  0  0  0  0  0  0  0  0  0  0  0
   54.5463   87.0531   21.0199 C   0  0  0  0  0  0  0  0  0  0  0  0
   53.4836   86.4790   20.6809 O   0  0  0  0  0  0  0  0  0  0  0  0
   55.5736   86.5385   21.9647 C   0  0  0  0  0  0  0  0  0  0  0  0
   55.2432   86.8593   23.3898 C   0  0  0  0  0  0  0  0  0  0  0  0
   56.5420   86.9920   23.9292 O   0  0  0  0  0  0  0  0  0  0  0  0
   56.9675   88.0522   23.0898 C   0  0  0  0  0  0  0  0  0  0  0  0
   56.7886   87.4405   21.7431 C   0  0  0  0  0  0  0  0  0  0  0  0
   56.3552   88.4705   20.7610 C   0  0  0  0  0  0  0  0  0  0  0  0
   57.1017   89.3014   20.2370 O   0  0  0  0  0  0  0  0  0  0  0  0
   55.8542   89.0081   23.3248 C   0  0  0  0  0  0  0  0  0  0  0  0
   54.7683   88.2507   23.4478 C   0  0  0  0  0  0  0  0  0  0  0  0
   51.0580   92.2605   17.9972 Br  0  0  0  0  0  0  0  0  0  0  0  0
   52.2750   91.0432   18.7938 C   0  0  0  0  0  0  0  0  0  0  0  0
   53.1554   91.4929   19.7478 C   0  0  0  0  0  0  0  0  0  0  0  0
   54.0271   90.5867   20.3104 C   0  0  0  0  0  0  0  0  0  0  0  0
   54.0417   89.2586   19.9459 C   0  0  0  0  0  0  0  0  0  0  0  0
   53.1522   88.8026   18.9826 C   0  0  0  0  0  0  0  0  0  0  0  0
   52.2694   89.7240   18.4154 C   0  0  0  0  0  0  0  0  0  0  0  0
   54.4302   85.8600   24.0938 C   0  0  0  0  0  0  0  0  0  0  0  0
   53.7642   86.3505   25.1834 O   0  0  0  0  0  0  0  0  0  0  0  0
   54.3231   85.8192   26.3187 C   0  0  0  0  0  0  0  0  0  0  0  0
   55.4236   84.9172   25.8656 C   0  0  0  0  0  0  0  0  0  0  0  0
   55.1858   84.7760   24.5031 O   0  0  0  0  0  0  0  0  0  0  0  0
 13 14  1  0  0  0
 14 15  2  0  0  0
 14 19  1  0  0  0
 15 16  1  0  0  0
 16 17  2  0  0  0
 17 18  1  0  0  0
 17  1  1  0  0  0
 18 19  2  0  0  0
  1  2  1  0  0  0
  1  9  1  0  0  0
  2  3  2  0  0  0
  2  4  1  0  0  0
  4  5  1  0  0  0
  4  8  1  0  0  0
  5  6  1  0  0  0
  5 12  1  0  0  0
  5 20  1  0  0  0
  6  7  1  0  0  0
  7  8  1  0  0  0
  7 11  1  0  0  0
  8  9  1  0  0  0
  9 10  2  0  0  0
 11 12  2  0  0  0
 20 21  1  0  0  0
 20 24  1  0  0  0
 21 22  1  0  0  0
 22 23  1  0  0  0
 23 24  1  0  0  0
M  END
> <minimizedAffinity>
-8.17967

$$$$
