
 OpenBabel03202210193D

 50 53  0  0  0  0  0  0  0  0999 V2000
   14.2050   63.2280  -11.1580 B   0  0  0  0  0  0  0  0  0  0  0  0
   15.9330   62.5910  -10.6170 C   0  0  0  0  0  0  0  0  0  0  0  0
   16.0680   61.2570  -10.2850 C   0  0  0  0  0  0  0  0  0  0  0  0
   17.3170   60.8200   -9.9000 C   0  0  0  0  0  0  0  0  0  0  0  0
   18.3870   61.6980   -9.8510 C   0  0  0  0  0  0  0  0  0  0  0  0
   18.2560   63.0320  -10.1810 C   0  0  0  0  0  0  0  0  0  0  0  0
   17.0030   63.4610  -10.5650 C   0  0  0  0  0  0  0  0  0  0  0  0
   16.8740   64.8210  -10.9010 O   0  0  0  0  0  0  0  0  0  0  0  0
   19.3850   63.9700  -10.1320 C   0  0  0  0  0  0  0  0  0  0  0  0
   20.4030   63.7820   -9.3790 N   0  0  0  0  0  0  0  0  0  0  0  0
   21.4840   64.7290   -9.3650 N   0  0  0  0  0  0  0  0  0  0  0  0
   22.7610   64.2130   -9.1210 C   0  0  0  0  0  0  0  0  0  0  0  0
   23.5490   64.1490  -10.1600 O   0  0  0  0  0  0  0  0  0  0  0  0
   23.3590   63.7360   -7.8960 C   0  0  0  0  0  0  0  0  0  0  0  0
   23.6590   62.4070   -7.6850 N   0  0  0  0  0  0  0  0  0  0  0  0
   24.1710   62.3010   -6.5020 N   0  0  0  0  0  0  0  0  0  0  0  0
   24.2200   63.5300   -5.9180 N   0  0  0  0  0  0  0  0  0  0  0  0
   23.7240   64.4390   -6.7560 C   0  0  0  0  0  0  0  0  0  0  0  0
   23.5680   65.8810   -6.5650 C   0  0  0  0  0  0  0  0  0  0  0  0
   22.3180   66.4050   -6.1590 N   0  0  0  0  0  4  0  0  0  0  0  0
   21.5600   67.0000   -7.2490 C   0  0  0  0  0  0  0  0  0  0  0  0
   22.3730   67.9800   -7.9960 C   0  0  0  0  0  0  0  0  0  0  0  0
   23.3010   68.7100   -7.3740 O   0  0  0  0  0  0  0  0  0  0  0  0
   23.5410   68.5090   -6.0530 C   0  0  0  0  0  0  0  0  0  0  0  0
   22.6200   67.6150   -5.3280 C   0  0  0  0  0  0  0  0  0  0  0  0
   24.7600   63.6640   -4.6010 C   0  0  0  0  0  0  0  0  0  0  0  0
   24.2570   64.1740   -3.4850 N   0  0  0  0  0  0  0  0  0  0  0  0
   25.1390   64.0220   -2.5530 O   0  0  0  0  0  0  0  0  0  0  0  0
   26.2080   63.4350   -2.9930 N   0  0  0  0  0  0  0  0  0  0  0  0
   26.0380   63.1780   -4.2830 C   0  0  0  0  0  0  0  0  0  0  0  0
   26.9190   62.5510   -5.2010 N   0  0  0  0  0  0  0  0  0  0  0  0
   17.5000   58.9720   -9.4420 B   0  0  0  0  0  0  0  0  0  0  0  0
   14.9680   60.3990  -10.3460 O   0  0  0  0  0  0  0  0  0  0  0  0
   19.3680   61.3350   -9.5430 H   0  0  0  0  0  0  0  0  0  0  0  0
   17.7010   65.3620  -11.1000 H   0  0  0  0  0  0  0  0  0  0  0  0
   19.3610   64.8390  -10.7410 H   0  0  0  0  0  0  0  0  0  0  0  0
   21.2660   65.6970   -9.5350 H   0  0  0  0  0  0  0  0  0  0  0  0
   23.9350   66.4540   -7.4830 H   0  0  0  0  0  0  0  0  0  0  0  0
   24.3030   66.1830   -5.7520 H   0  0  0  0  0  0  0  0  0  0  0  0
   21.7760   65.7630   -5.6000 H   0  0  0  0  0  0  0  0  0  0  0  0
   20.7220   67.5660   -6.7440 H   0  0  0  0  0  0  0  0  0  0  0  0
   21.0960   66.2910   -7.9280 H   0  0  0  0  0  0  0  0  0  0  0  0
   21.6510   68.6870   -8.5070 H   0  0  0  0  0  0  0  0  0  0  0  0
   22.8460   67.4420   -8.8690 H   0  0  0  0  0  0  0  0  0  0  0  0
   24.5850   68.1580   -5.9250 H   0  0  0  0  0  0  0  0  0  0  0  0
   23.5110   69.5160   -5.5460 H   0  0  0  0  0  0  0  0  0  0  0  0
   21.6460   68.0620   -5.0900 H   0  0  0  0  0  0  0  0  0  0  0  0
   23.0690   67.2150   -4.4090 H   0  0  0  0  0  0  0  0  0  0  0  0
   27.6320   61.8790   -4.8490 H   0  0  0  0  0  0  0  0  0  0  0  0
   26.8830   62.7380   -6.2440 H   0  0  0  0  0  0  0  0  0  0  0  0
  1  2  1  0  0  0  0
  2  7  2  0  0  0  0
  2  3  1  0  0  0  0
  3  4  2  0  0  0  0
  4  5  1  0  0  0  0
  4 32  1  0  0  0  0
  5 34  1  0  0  0  0
  6  9  1  0  0  0  0
  6  5  2  0  0  0  0
  7  6  1  0  0  0  0
  8  7  1  0  0  0  0
  9 10  2  0  0  0  0
 10 11  1  0  0  0  0
 11 12  1  0  0  0  0
 12 14  1  0  0  0  0
 13 12  2  0  0  0  0
 14 15  1  0  0  0  0
 14 18  2  0  0  0  0
 15 16  2  0  0  0  0
 16 17  1  0  0  0  0
 17 26  1  0  0  0  0
 18 19  1  0  0  0  0
 18 17  1  0  0  0  0
 19 20  1  0  0  0  0
 19 39  1  0  0  0  0
 20 40  1  0  0  0  0
 20 25  1  0  0  0  0
 21 41  1  0  0  0  0
 21 20  1  0  0  0  0
 22 23  1  0  0  0  0
 22 21  1  0  0  0  0
 23 24  1  0  0  0  0
 24 45  1  0  0  0  0
 24 46  1  0  0  0  0
 24 25  1  0  0  0  0
 25 47  1  0  0  0  0
 25 48  1  0  0  0  0
 26 30  1  0  0  0  0
 26 27  2  0  0  0  0
 27 28  1  0  0  0  0
 29 28  1  0  0  0  0
 30 29  2  0  0  0  0
 31 49  1  0  0  0  0
 31 30  1  0  0  0  0
 33  3  1  0  0  0  0
 35  8  1  0  0  0  0
 36  9  1  0  0  0  0
 37 11  1  0  0  0  0
 38 19  1  0  0  0  0
 42 21  1  0  0  0  0
 43 22  1  0  0  0  0
 44 22  1  0  0  0  0
 50 31  1  0  0  0  0
M  END
>  <Pose>
1

>  <Score>
-11.99

$$$$
