
 OpenBabel03162216073D

 50 53  0  0  0  0  0  0  0  0999 V2000
   14.0080   63.3390  -11.0670 B   0  0  0  0  0  0  0  0  0  0  0  0
   15.7310   62.7300  -10.5690 C   0  0  0  0  0  0  0  0  0  0  0  0
   15.9260   61.4170  -10.2540 C   0  0  0  0  0  0  0  0  0  0  0  0
   17.2040   60.9990   -9.8900 C   0  0  0  0  0  0  0  0  0  0  0  0
   18.2450   61.9220   -9.8550 C   0  0  0  0  0  0  0  0  0  0  0  0
   18.0570   63.2410  -10.1690 C   0  0  0  0  0  0  0  0  0  0  0  0
   16.7880   63.6400  -10.5270 C   0  0  0  0  0  0  0  0  0  0  0  0
   16.6100   64.9780  -10.8430 O   0  0  0  0  0  0  0  0  0  0  0  0
   19.1590   64.1900  -10.1260 C   0  0  0  0  0  0  0  0  0  0  0  0
   20.1060   64.1420   -9.2570 N   0  0  0  0  0  0  0  0  0  0  0  0
   21.1490   65.1290   -9.3030 N   0  0  0  0  0  0  0  0  0  0  0  0
   22.4480   64.6860   -9.0980 C   0  0  0  0  0  0  0  0  0  0  0  0
   23.2770   64.8630  -10.0690 O   0  0  0  0  0  0  0  0  0  0  0  0
   23.0200   64.0420   -7.9310 C   0  0  0  0  0  0  0  0  0  0  0  0
   23.4900   62.7530   -7.8900 N   0  0  0  0  0  0  0  0  0  0  0  0
   23.9390   62.4940   -6.6930 N   0  0  0  0  0  0  0  0  0  0  0  0
   23.8070   63.5370   -5.8920 N   0  0  0  0  0  0  0  0  0  0  0  0
   23.2440   64.5070   -6.6310 C   0  0  0  0  0  0  0  0  0  0  0  0
   22.8640   65.8500   -6.1810 C   0  0  0  0  0  0  0  0  0  0  0  0
   22.8150   66.8530   -7.2480 N   0  0  0  0  0  0  0  0  0  0  0  0
   23.9880   67.7390   -7.1120 C   0  0  0  0  0  0  0  0  0  0  0  0
   24.1370   68.1640   -5.6930 C   0  0  0  0  0  0  0  0  0  0  0  0
   22.9620   68.7210   -5.2520 O   0  0  0  0  0  0  0  0  0  0  0  0
   22.0350   68.9400   -6.2370 C   0  0  0  0  0  0  0  0  0  0  0  0
   21.6320   67.7140   -7.0130 C   0  0  0  0  0  0  0  0  0  0  0  0
   24.1790   63.5390   -4.5250 C   0  0  0  0  0  0  0  0  0  0  0  0
   23.4050   63.6640   -3.4260 N   0  0  0  0  0  0  0  0  0  0  0  0
   24.1470   63.6020   -2.3520 O   0  0  0  0  0  0  0  0  0  0  0  0
   25.4050   63.4390   -2.6760 N   0  0  0  0  0  0  0  0  0  0  0  0
   25.4610   63.3950   -4.0170 C   0  0  0  0  0  0  0  0  0  0  0  0
   26.6520   63.2280   -4.7570 N   0  0  0  0  0  0  0  0  0  0  0  0
   17.5090   59.1810   -9.4480 B   0  0  0  0  0  0  0  0  0  0  0  0
   14.9020   60.4810  -10.2830 O   0  0  0  0  0  0  0  0  0  0  0  0
   19.2270   61.6000   -9.5750 H   0  0  0  0  0  0  0  0  0  0  0  0
   17.4030   65.5480  -11.1110 H   0  0  0  0  0  0  0  0  0  0  0  0
   19.2020   64.9920  -10.8590 H   0  0  0  0  0  0  0  0  0  0  0  0
   20.8330   66.1110   -9.4880 H   0  0  0  0  0  0  0  0  0  0  0  0
   23.5530   66.2370   -5.4270 H   0  0  0  0  0  0  0  0  0  0  0  0
   21.8450   65.8260   -5.7730 H   0  0  0  0  0  0  0  0  0  0  0  0
   24.8930   67.2580   -7.5170 H   0  0  0  0  0  0  0  0  0  0  0  0
   23.7700   68.6250   -7.7360 H   0  0  0  0  0  0  0  0  0  0  0  0
   24.4300   67.3460   -5.0140 H   0  0  0  0  0  0  0  0  0  0  0  0
   24.9090   68.9880   -5.6560 H   0  0  0  0  0  0  0  0  0  0  0  0
   21.0970   69.2870   -5.7060 H   0  0  0  0  0  0  0  0  0  0  0  0
   22.3400   69.7830   -6.8910 H   0  0  0  0  0  0  0  0  0  0  0  0
   21.2890   68.0620   -7.9960 H   0  0  0  0  0  0  0  0  0  0  0  0
   20.8400   67.1950   -6.4820 H   0  0  0  0  0  0  0  0  0  0  0  0
   26.9460   63.9780   -5.4080 H   0  0  0  0  0  0  0  0  0  0  0  0
   27.2460   62.3830   -4.6750 H   0  0  0  0  0  0  0  0  0  0  0  0
   14.3750   60.3140  -11.1250 H   0  0  0  0  0  0  0  0  0  0  0  0
  1  2  1  0  0  0  0
  2  7  2  0  0  0  0
  2  3  1  0  0  0  0
  3  4  2  0  0  0  0
  4  5  1  0  0  0  0
  4 32  1  0  0  0  0
  5 34  1  0  0  0  0
  6  9  1  0  0  0  0
  6  5  2  0  0  0  0
  7  6  1  0  0  0  0
  8  7  1  0  0  0  0
  9 10  2  0  0  0  0
 11 10  1  0  0  0  0
 11 12  1  0  0  0  0
 12 14  1  0  0  0  0
 13 12  2  0  0  0  0
 14 15  1  0  0  0  0
 14 18  2  0  0  0  0
 15 16  2  0  0  0  0
 16 17  1  0  0  0  0
 17 26  1  0  0  0  0
 18 19  1  0  0  0  0
 18 17  1  0  0  0  0
 19 39  1  0  0  0  0
 19 38  1  0  0  0  0
 20 21  1  0  0  0  0
 20 25  1  0  0  0  0
 20 19  1  0  0  0  0
 21 22  1  0  0  0  0
 22 43  1  0  0  0  0
 22 23  1  0  0  0  0
 22 42  1  0  0  0  0
 24 44  1  0  0  0  0
 24 23  1  0  0  0  0
 25 47  1  0  0  0  0
 25 24  1  0  0  0  0
 26 30  1  0  0  0  0
 26 27  2  0  0  0  0
 27 28  1  0  0  0  0
 29 28  1  0  0  0  0
 30 29  2  0  0  0  0
 31 49  1  0  0  0  0
 31 30  1  0  0  0  0
 33  3  1  0  0  0  0
 35  8  1  0  0  0  0
 36  9  1  0  0  0  0
 37 11  1  0  0  0  0
 40 21  1  0  0  0  0
 41 21  1  0  0  0  0
 45 24  1  0  0  0  0
 46 25  1  0  0  0  0
 48 31  1  0  0  0  0
 50 33  1  0  0  0  0
M  END
>  <Pose>
1

>  <Score>
-10.68

$$$$
