
 OpenBabel03202210193D

 52 55  0  0  0  0  0  0  0  0999 V2000
   22.3190   67.3920   -6.4270 B   0  0  0  0  0  0  0  0  0  0  0  0
   22.7700   65.5590   -6.7200 C   0  0  0  0  0  0  0  0  0  0  0  0
   23.6960   64.9830   -5.8720 C   0  0  0  0  0  0  0  0  0  0  0  0
   24.0250   63.6610   -6.0780 C   0  0  0  0  0  0  0  0  0  0  0  0
   23.4500   62.9250   -7.0980 C   0  0  0  0  0  0  0  0  0  0  0  0
   22.5270   63.4890   -7.9470 C   0  0  0  0  0  0  0  0  0  0  0  0
   22.1990   64.8130   -7.7390 C   0  0  0  0  0  0  0  0  0  0  0  0
   21.2780   65.3980   -8.5750 O   0  0  0  0  0  0  0  0  0  0  0  0
   21.9390   62.6930   -9.0110 C   0  0  0  0  0  0  0  0  0  0  0  0
   20.6960   62.6760   -9.2900 N   0  0  0  0  0  0  0  0  0  0  0  0
   20.1480   61.8950  -10.3270 N   0  0  0  0  0  0  0  0  0  0  0  0
   18.8350   61.3720  -10.1790 C   0  0  0  0  0  0  0  0  0  0  0  0
   17.7660   62.1280  -10.4180 N   0  0  0  0  0  4  0  0  0  0  0  0
   16.4900   61.6620  -10.2880 C   0  0  0  0  0  0  0  0  0  0  0  0
   16.3660   60.3940   -9.9030 N   0  0  0  0  0  0  0  0  0  0  0  0
   17.3960   59.5580   -9.6390 C   0  0  0  0  0  0  0  0  0  0  0  0
   18.6380   60.1050   -9.7960 N   0  0  0  0  0  0  0  0  0  0  0  0
   17.2160   58.2220   -9.2350 N   0  0  0  0  0  0  0  0  0  0  0  0
   18.0990   57.1940   -9.6900 C   0  0  0  0  0  0  0  0  0  0  0  0
   17.2280   56.0680  -10.2540 C   0  0  0  0  0  0  0  0  0  0  0  0
   15.8890   56.3920  -10.2360 O   0  0  0  0  0  0  0  0  0  0  0  0
   15.3960   56.7060   -8.9940 C   0  0  0  0  0  0  0  0  0  0  0  0
   16.1400   57.8750   -8.3590 C   0  0  0  0  0  0  0  0  0  0  0  0
   15.3710   62.4810  -10.5460 N   0  0  0  0  0  0  0  0  0  0  0  0
   14.2050   61.9360  -11.1840 C   0  0  0  0  0  0  0  0  0  0  0  0
   13.8000   62.9030  -12.2850 C   0  0  0  0  0  0  0  0  0  0  0  0
   13.7890   64.2200  -11.8440 O   0  0  0  0  0  0  0  0  0  0  0  0
   15.0200   64.6680  -11.4220 C   0  0  0  0  0  0  0  0  0  0  0  0
   15.3960   63.8660  -10.1690 C   0  0  0  0  0  0  0  0  0  0  0  0
   25.3080   62.8510   -4.9100 B   0  0  0  0  0  0  0  0  0  0  0  0
   24.2650   65.7400   -4.8500 O   0  0  0  0  0  0  0  0  0  0  0  0
   23.7240   61.8740   -7.2480 H   0  0  0  0  0  0  0  0  0  0  0  0
   21.5740   65.8540   -9.4440 H   0  0  0  0  0  0  0  0  0  0  0  0
   22.5920   62.0740   -9.6050 H   0  0  0  0  0  0  0  0  0  0  0  0
   20.7410   61.7450  -11.1500 H   0  0  0  0  0  0  0  0  0  0  0  0
   18.6100   56.7630   -8.7960 H   0  0  0  0  0  0  0  0  0  0  0  0
   18.8170   57.5700  -10.4400 H   0  0  0  0  0  0  0  0  0  0  0  0
   17.4340   55.1060   -9.7730 H   0  0  0  0  0  0  0  0  0  0  0  0
   17.5200   55.9540  -11.3300 H   0  0  0  0  0  0  0  0  0  0  0  0
   15.3700   55.8320   -8.3110 H   0  0  0  0  0  0  0  0  0  0  0  0
   14.3430   57.0340   -9.1220 H   0  0  0  0  0  0  0  0  0  0  0  0
   15.4740   58.7450   -8.1870 H   0  0  0  0  0  0  0  0  0  0  0  0
   16.4800   57.5470   -7.3550 H   0  0  0  0  0  0  0  0  0  0  0  0
   14.4030   60.9590  -11.6950 H   0  0  0  0  0  0  0  0  0  0  0  0
   13.3460   61.8640  -10.4850 H   0  0  0  0  0  0  0  0  0  0  0  0
   14.4580   62.7660  -13.1600 H   0  0  0  0  0  0  0  0  0  0  0  0
   12.7620   62.6530  -12.5950 H   0  0  0  0  0  0  0  0  0  0  0  0
   15.7800   64.4190  -12.1830 H   0  0  0  0  0  0  0  0  0  0  0  0
   14.9490   65.7400  -11.2060 H   0  0  0  0  0  0  0  0  0  0  0  0
   14.5480   64.0360   -9.4520 H   0  0  0  0  0  0  0  0  0  0  0  0
   16.3660   64.1910   -9.7610 H   0  0  0  0  0  0  0  0  0  0  0  0
   24.7670   66.5820   -5.0770 H   0  0  0  0  0  0  0  0  0  0  0  0
  2  1  1  0  0  0  0
  2  3  1  0  0  0  0
  3 31  1  0  0  0  0
  4  3  2  0  0  0  0
  4 30  1  0  0  0  0
  5  4  1  0  0  0  0
  6  7  1  0  0  0  0
  6  5  2  0  0  0  0
  7  2  2  0  0  0  0
  8  7  1  0  0  0  0
  9  6  1  0  0  0  0
 10  9  2  0  0  0  0
 11 12  1  0  0  0  0
 11 10  1  0  0  0  0
 12 17  1  0  0  0  0
 13 14  2  0  0  0  0
 13 12  2  0  0  0  0
 14 15  1  0  0  0  0
 15 16  2  0  0  0  0
 16 18  1  0  0  0  0
 17 16  1  0  0  0  0
 18 23  1  0  0  0  0
 19 18  1  0  0  0  0
 19 36  1  0  0  0  0
 20 21  1  0  0  0  0
 20 38  1  0  0  0  0
 20 19  1  0  0  0  0
 21 22  1  0  0  0  0
 22 23  1  0  0  0  0
 22 40  1  0  0  0  0
 23 42  1  0  0  0  0
 23 43  1  0  0  0  0
 24 14  1  0  0  0  0
 24 29  1  0  0  0  0
 25 24  1  0  0  0  0
 25 45  1  0  0  0  0
 26 27  1  0  0  0  0
 26 25  1  0  0  0  0
 27 28  1  0  0  0  0
 28 49  1  0  0  0  0
 28 29  1  0  0  0  0
 29 51  1  0  0  0  0
 29 50  1  0  0  0  0
 32  5  1  0  0  0  0
 33  8  1  0  0  0  0
 34  9  1  0  0  0  0
 35 11  1  0  0  0  0
 37 19  1  0  0  0  0
 39 20  1  0  0  0  0
 41 22  1  0  0  0  0
 44 25  1  0  0  0  0
 46 26  1  0  0  0  0
 47 26  1  0  0  0  0
 48 28  1  0  0  0  0
 52 31  1  0  0  0  0
M  END
>  <Pose>
1

>  <Score>
-7.33

$$$$
