
 OpenBabel03202210193D

 60 63  0  0  1  0  0  0  0  0999 V2000
   19.5250   59.3610   -9.1060 B   0  0  0  0  0  0  0  0  0  0  0  0
   18.5170   60.8240   -9.8160 C   0  0  0  0  0  0  0  0  0  0  0  0
   19.1970   62.0290  -10.0530 C   0  0  0  0  0  0  0  0  0  0  0  0
   18.4690   63.0570  -10.5570 C   0  0  0  0  0  0  0  0  0  0  0  0
   17.1010   62.9400  -10.8310 C   0  0  0  0  0  0  0  0  0  0  0  0
   16.4560   61.7490  -10.5900 C   0  0  0  0  0  0  0  0  0  0  0  0
   17.1770   60.6910  -10.0800 C   0  0  0  0  0  0  0  0  0  0  0  0
   14.6010   61.4720  -10.9260 B   0  0  0  0  0  0  0  0  0  0  0  0
   19.2700   64.7180  -10.9370 B   0  0  0  0  0  0  0  0  0  0  0  0
   20.5180   62.1030   -9.7760 O   0  0  0  0  0  0  0  0  0  0  0  0
   21.2340   63.2670   -9.3680 C   0  0  0  0  0  0  0  0  0  0  0  0
   21.8210   63.0700   -8.0360 C   0  0  1  0  0  0  0  0  0  0  0  0
   23.1270   62.5940   -8.2490 O   0  0  0  0  0  0  0  0  0  0  0  0
   21.5610   63.8920   -6.8650 C   0  0  0  0  0  0  0  0  0  0  0  0
   22.2020   65.1400   -6.6490 N   0  0  0  0  0  0  0  0  0  0  0  0
   21.7350   66.3520   -7.0490 C   0  0  0  0  0  0  0  0  0  0  0  0
   22.6160   67.3290   -6.6680 C   0  0  0  0  0  0  0  0  0  0  0  0
   23.5930   66.6960   -6.0530 N   0  0  0  0  0  0  0  0  0  0  0  0
   23.3760   65.3530   -6.0250 C   0  0  0  0  0  0  0  0  0  0  0  0
   24.3540   64.4300   -5.5130 N   0  0  0  0  0  0  0  0  0  0  0  0
   25.0920   63.4670   -6.2360 C   0  0  0  0  0  0  0  0  0  0  0  0
   26.0800   62.7900   -5.2460 C   0  0  0  0  0  0  0  0  0  0  0  0
   25.2300   62.1410   -4.2670 N   0  0  0  0  0  4  0  0  0  0  0  0
   24.8480   63.2490   -3.3700 C   0  0  0  0  0  0  0  0  0  0  0  0
   24.6530   64.5290   -4.0780 C   0  0  0  0  0  0  0  0  0  0  0  0
   25.9510   61.1340   -3.5150 C   0  0  0  0  0  0  0  0  0  0  0  0
   25.3170   59.7850   -3.7760 C   0  0  0  0  0  0  0  0  0  0  0  0
   25.4080   59.0050   -2.6170 O   0  0  0  0  0  0  0  0  0  0  0  0
   22.4510   68.6630   -6.9300 N   0  0  0  0  0  0  0  0  0  0  0  0
   21.3490   69.0070   -7.6080 C   0  0  0  0  0  0  0  0  0  0  0  0
   21.1990   70.2380   -7.8480 O   0  0  0  0  0  0  0  0  0  0  0  0
   20.4540   68.0840   -8.0090 N   0  0  0  0  0  0  0  0  0  0  0  0
   20.6030   66.7730   -7.7590 C   0  0  0  0  0  0  0  0  0  0  0  0
   19.6760   65.8500   -8.1850 O   0  0  0  0  0  0  0  0  0  0  0  0
   23.4500   69.6160   -6.4670 C   0  0  0  0  0  0  0  0  0  0  0  0
   16.5480   63.7680  -11.2280 H   0  0  0  0  0  0  0  0  0  0  0  0
   16.7000   59.7250   -9.8750 H   0  0  0  0  0  0  0  0  0  0  0  0
   20.3860   64.0220   -9.2220 H   0  0  0  0  0  0  0  0  0  0  0  0
   21.8400   63.7220  -10.1390 H   0  0  0  0  0  0  0  0  0  0  0  0
   21.3270   62.0040   -7.7100 H   0  0  0  0  0  0  0  0  0  0  0  0
   23.1390   61.6460   -8.4730 H   0  0  0  0  0  0  0  0  0  0  0  0
   20.4530   63.9360   -6.5980 H   0  0  0  0  0  0  0  0  0  0  0  0
   21.8860   63.1990   -5.9880 H   0  0  0  0  0  0  0  0  0  0  0  0
   25.8040   63.9070   -6.9810 H   0  0  0  0  0  0  0  0  0  0  0  0
   24.5090   62.6180   -6.6060 H   0  0  0  0  0  0  0  0  0  0  0  0
   26.7190   63.5550   -4.7670 H   0  0  0  0  0  0  0  0  0  0  0  0
   26.6840   62.0260   -5.7360 H   0  0  0  0  0  0  0  0  0  0  0  0
   24.3350   61.7800   -4.6600 H   0  0  0  0  0  0  0  0  0  0  0  0
   24.0830   62.9560   -2.6450 H   0  0  0  0  0  0  0  0  0  0  0  0
   25.7860   63.3810   -2.7400 H   0  0  0  0  0  0  0  0  0  0  0  0
   23.8310   65.0850   -3.5880 H   0  0  0  0  0  0  0  0  0  0  0  0
   25.5400   65.2070   -4.0330 H   0  0  0  0  0  0  0  0  0  0  0  0
   25.8770   61.3210   -2.4120 H   0  0  0  0  0  0  0  0  0  0  0  0
   27.0100   61.0560   -3.8270 H   0  0  0  0  0  0  0  0  0  0  0  0
   24.2320   59.8930   -3.9910 H   0  0  0  0  0  0  0  0  0  0  0  0
   25.8390   59.2320   -4.6080 H   0  0  0  0  0  0  0  0  0  0  0  0
   24.5020   58.7980   -2.2580 H   0  0  0  0  0  0  0  0  0  0  0  0
   22.9860   70.1010   -5.5580 H   0  0  0  0  0  0  0  0  0  0  0  0
   24.3100   69.0500   -6.0610 H   0  0  0  0  0  0  0  0  0  0  0  0
   23.7140   70.3810   -7.1920 H   0  0  0  0  0  0  0  0  0  0  0  0
  2  1  1  0  0  0  0
  3  2  1  0  0  0  0
  3 10  1  0  0  0  0
  4  3  2  0  0  0  0
  5  6  2  0  0  0  0
  5  4  1  0  0  0  0
  6  7  1  0  0  0  0
  7 37  1  0  0  0  0
  7  2  2  0  0  0  0
  8  6  1  0  0  0  0
  9  4  1  0  0  0  0
 10 11  1  0  0  0  0
 11 38  1  0  0  0  0
 11 12  1  0  0  0  0
 12 40  1  1  0  0  0
 12 14  1  0  0  0  0
 13 12  1  0  0  0  0
 14 15  1  0  0  0  0
 14 42  1  0  0  0  0
 14 43  1  0  0  0  0
 15 19  1  0  0  0  0
 16 17  2  0  0  0  0
 16 15  1  0  0  0  0
 17 18  1  0  0  0  0
 18 19  2  0  0  0  0
 19 20  1  0  0  0  0
 20 25  1  0  0  0  0
 21 20  1  0  0  0  0
 21 22  1  0  0  0  0
 22 46  1  0  0  0  0
 22 23  1  0  0  0  0
 23 26  1  0  0  0  0
 23 24  1  0  0  0  0
 24 50  1  0  0  0  0
 24 49  1  0  0  0  0
 25 52  1  0  0  0  0
 25 51  1  0  0  0  0
 25 24  1  0  0  0  0
 26 53  1  0  0  0  0
 27 26  1  0  0  0  0
 27 28  1  0  0  0  0
 28 57  1  0  0  0  0
 29 17  1  0  0  0  0
 29 35  1  0  0  0  0
 30 29  1  0  0  0  0
 31 30  2  0  0  0  0
 32 33  1  0  0  0  0
 32 30  1  0  0  0  0
 33 16  1  0  0  0  0
 34 33  2  0  0  0  0
 35 59  1  0  0  0  0
 35 58  1  0  0  0  0
 36  5  1  0  0  0  0
 39 11  1  0  0  0  0
 41 13  1  0  0  0  0
 44 21  1  0  0  0  0
 45 21  1  0  0  0  0
 47 22  1  0  0  0  0
 48 23  1  0  0  0  0
 54 26  1  0  0  0  0
 55 27  1  0  0  0  0
 56 27  1  0  0  0  0
 60 35  1  0  0  0  0
M  END
>  <Pose>
1

>  <Score>
-6.37

$$$$
