
 OpenBabel03202210193D

 53 56  0  0  0  0  0  0  0  0999 V2000
   14.6690   64.2830  -11.2490 B   0  0  0  0  0  0  0  0  0  0  0  0
   15.9110   62.8700  -10.8170 C   0  0  0  0  0  0  0  0  0  0  0  0
   15.4160   61.6130  -10.5420 C   0  0  0  0  0  0  0  0  0  0  0  0
   16.2750   60.5880  -10.2530 C   0  0  0  0  0  0  0  0  0  0  0  0
   17.6230   60.8610  -10.2450 C   0  0  0  0  0  0  0  0  0  0  0  0
   18.1710   62.1030  -10.5110 C   0  0  0  0  0  0  0  0  0  0  0  0
   17.2120   63.1390  -10.8120 C   0  0  0  0  0  0  0  0  0  0  0  0
   19.4840   62.4790  -10.5280 C   0  0  0  0  0  0  0  0  0  0  0  0
   20.3920   63.3140  -11.0690 N   0  0  0  0  0  0  0  0  0  0  0  0
   21.6270   62.7520  -10.2280 N   0  0  0  0  0  0  0  0  0  0  0  0
   22.2470   63.9670   -9.7490 C   0  0  0  0  0  0  0  0  0  0  0  0
   23.4730   64.0530   -9.6870 O   0  0  0  0  0  0  0  0  0  0  0  0
   21.4380   65.1220   -9.4300 C   0  0  0  0  0  0  0  0  0  0  0  0
   21.0030   66.1480  -10.0720 N   0  0  0  0  0  0  0  0  0  0  0  0
   20.7440   67.1330   -9.2290 N   0  0  0  0  0  0  0  0  0  0  0  0
   21.0160   66.7220   -7.9990 N   0  0  0  0  0  0  0  0  0  0  0  0
   21.4460   65.4690   -7.9800 C   0  0  0  0  0  0  0  0  0  0  0  0
   21.9990   64.5970   -6.9850 C   0  0  0  0  0  0  0  0  0  0  0  0
   23.3860   64.8190   -6.5700 N   0  0  0  0  0  0  0  0  0  0  0  0
   24.2980   63.9370   -7.2240 C   0  0  0  0  0  0  0  0  0  0  0  0
   24.1720   62.4930   -6.8300 C   0  0  0  0  0  0  0  0  0  0  0  0
   24.6930   62.3120   -5.5600 O   0  0  0  0  0  0  0  0  0  0  0  0
   24.6560   63.5100   -4.8360 C   0  0  0  0  0  0  0  0  0  0  0  0
   23.4000   64.2490   -5.1540 C   0  0  0  0  0  0  0  0  0  0  0  0
   21.2340   67.6880   -6.9410 C   0  0  0  0  0  0  0  0  0  0  0  0
   20.5080   68.5620   -6.3790 N   0  0  0  0  0  0  0  0  0  0  0  0
   21.1760   69.2690   -5.4670 O   0  0  0  0  0  0  0  0  0  0  0  0
   22.3750   68.8100   -5.4620 N   0  0  0  0  0  0  0  0  0  0  0  0
   22.5250   67.8210   -6.3440 C   0  0  0  0  0  0  0  0  0  0  0  0
   23.6850   67.0870   -6.6410 N   0  0  0  0  0  0  0  0  0  0  0  0
   15.8120   59.2940   -9.9850 O   0  0  0  0  0  0  0  0  0  0  0  0
   16.7550   58.3010   -9.5340 C   0  0  0  0  0  0  0  0  0  0  0  0
   14.0350   61.3960  -10.5600 O   0  0  0  0  0  0  0  0  0  0  0  0
   18.3100   60.0240  -10.0220 H   0  0  0  0  0  0  0  0  0  0  0  0
   17.5930   64.1370  -11.0480 H   0  0  0  0  0  0  0  0  0  0  0  0
   20.1470   61.8250   -9.7820 H   0  0  0  0  0  0  0  0  0  0  0  0
   21.6550   61.8210  -10.2260 H   0  0  0  0  0  0  0  0  0  0  0  0
   21.3980   64.2750   -6.1290 H   0  0  0  0  0  0  0  0  0  0  0  0
   22.1330   63.5380   -7.5090 H   0  0  0  0  0  0  0  0  0  0  0  0
   24.1670   64.0360   -8.3090 H   0  0  0  0  0  0  0  0  0  0  0  0
   25.3740   64.2330   -6.9840 H   0  0  0  0  0  0  0  0  0  0  0  0
   23.1790   62.0700   -6.9810 H   0  0  0  0  0  0  0  0  0  0  0  0
   24.8640   61.9110   -7.5070 H   0  0  0  0  0  0  0  0  0  0  0  0
   25.5620   64.0840   -4.8000 H   0  0  0  0  0  0  0  0  0  0  0  0
   24.5080   63.1480   -3.7520 H   0  0  0  0  0  0  0  0  0  0  0  0
   23.2090   65.0210   -4.4210 H   0  0  0  0  0  0  0  0  0  0  0  0
   22.6200   63.4290   -5.1800 H   0  0  0  0  0  0  0  0  0  0  0  0
   24.3770   66.8110   -5.9210 H   0  0  0  0  0  0  0  0  0  0  0  0
   23.9120   66.7560   -7.6390 H   0  0  0  0  0  0  0  0  0  0  0  0
   16.2640   57.3440   -9.3220 H   0  0  0  0  0  0  0  0  0  0  0  0
   17.5260   58.1800  -10.3760 H   0  0  0  0  0  0  0  0  0  0  0  0
   17.2620   58.6980   -8.6580 H   0  0  0  0  0  0  0  0  0  0  0  0
   13.6890   60.4870  -10.9330 H   0  0  0  0  0  0  0  0  0  0  0  0
  1  2  1  0  0  0  0
  2  7  2  0  0  0  0
  2  3  1  0  0  0  0
  3  4  2  0  0  0  0
  4  5  1  0  0  0  0
  4 31  1  0  0  0  0
  5 34  1  0  0  0  0
  6  5  2  0  0  0  0
  7  6  1  0  0  0  0
  8  6  1  0  0  0  0
  8 36  1  0  0  0  0
  9  8  1  0  0  0  0
  9 10  1  0  0  0  0
 10 37  1  0  0  0  0
 10 11  1  0  0  0  0
 11 12  2  0  0  0  0
 11 13  1  0  0  0  0
 13 17  2  0  0  0  0
 14 13  1  0  0  0  0
 14 15  2  0  0  0  0
 15 16  1  0  0  0  0
 16 17  1  0  0  0  0
 16 25  1  0  0  0  0
 17 18  1  0  0  0  0
 18 19  1  0  0  0  0
 18 38  1  0  0  0  0
 19 24  1  0  0  0  0
 20 41  1  0  0  0  0
 20 21  1  0  0  0  0
 20 19  1  0  0  0  0
 21 22  1  0  0  0  0
 22 23  1  0  0  0  0
 23 44  1  0  0  0  0
 23 45  1  0  0  0  0
 24 23  1  0  0  0  0
 24 46  1  0  0  0  0
 25 26  2  0  0  0  0
 25 29  1  0  0  0  0
 26 27  1  0  0  0  0
 27 28  1  0  0  0  0
 29 28  2  0  0  0  0
 30 29  1  0  0  0  0
 30 48  1  0  0  0  0
 31 32  1  0  0  0  0
 32 50  1  0  0  0  0
 32 52  1  0  0  0  0
 33  3  1  0  0  0  0
 35  7  1  0  0  0  0
 39 18  1  0  0  0  0
 40 20  1  0  0  0  0
 42 21  1  0  0  0  0
 43 21  1  0  0  0  0
 47 24  1  0  0  0  0
 49 30  1  0  0  0  0
 51 32  1  0  0  0  0
 53 33  1  0  0  0  0
M  END
>  <Pose>
1

>  <Score>
-9.05

$$$$
