
 OpenBabel03202210193D

 52 55  0  0  0  0  0  0  0  0999 V2000
   14.7850   60.9650  -10.7000 B   0  0  0  0  0  0  0  0  0  0  0  0
   16.1790   62.2310  -10.4400 C   0  0  0  0  0  0  0  0  0  0  0  0
   15.8890   63.5730  -10.6270 C   0  0  0  0  0  0  0  0  0  0  0  0
   16.9210   64.4730  -10.4370 C   0  0  0  0  0  0  0  0  0  0  0  0
   18.1750   64.0500  -10.0800 C   0  0  0  0  0  0  0  0  0  0  0  0
   18.4900   62.7060   -9.8830 C   0  0  0  0  0  0  0  0  0  0  0  0
   17.4490   61.8230  -10.0770 C   0  0  0  0  0  0  0  0  0  0  0  0
   19.8300   62.3280   -9.4840 C   0  0  0  0  0  0  0  0  0  0  0  0
   20.8640   63.0250   -9.8100 N   0  0  0  0  0  0  0  0  0  0  0  0
   22.1620   62.7020   -9.4550 N   0  0  0  0  0  0  0  0  0  0  0  0
   22.8200   63.4020   -8.4060 C   0  0  0  0  0  0  0  0  0  0  0  0
   22.3850   64.5910   -8.0200 N   0  0  0  0  0  4  0  0  0  0  0  0
   22.9260   65.3080   -7.0200 C   0  0  0  0  0  0  0  0  0  0  0  0
   23.9820   64.7580   -6.3830 N   0  0  0  0  0  0  0  0  0  0  0  0
   24.4760   63.5400   -6.7340 C   0  0  0  0  0  0  0  0  0  0  0  0
   23.8780   62.8750   -7.7530 N   0  0  0  0  0  0  0  0  0  0  0  0
   25.5690   62.9710   -6.0500 N   0  0  0  0  0  0  0  0  0  0  0  0
   25.8210   63.2640   -4.6620 C   0  0  0  0  0  0  0  0  0  0  0  0
   25.9310   61.8970   -3.9730 C   0  0  0  0  0  0  0  0  0  0  0  0
   26.8630   61.1310   -4.6420 O   0  0  0  0  0  0  0  0  0  0  0  0
   26.3800   60.7590   -5.8960 C   0  0  0  0  0  0  0  0  0  0  0  0
   26.4500   62.0560   -6.7300 C   0  0  0  0  0  0  0  0  0  0  0  0
   22.4150   66.5950   -6.6350 N   0  0  0  0  0  0  0  0  0  0  0  0
   23.2910   67.7070   -6.3970 C   0  0  0  0  0  0  0  0  0  0  0  0
   22.6570   69.0350   -6.2560 C   0  0  0  0  0  0  0  0  0  0  0  0
   21.2920   69.0000   -6.0070 O   0  0  0  0  0  0  0  0  0  0  0  0
   20.6230   68.1540   -6.8810 C   0  0  0  0  0  0  0  0  0  0  0  0
   20.9960   66.7440   -6.4920 C   0  0  0  0  0  0  0  0  0  0  0  0
   19.2150   64.9660   -9.8910 O   0  0  0  0  0  0  0  0  0  0  0  0
   14.6190   64.0140  -10.9920 O   0  0  0  0  0  0  0  0  0  0  0  0
   16.6730   65.5280  -10.5920 H   0  0  0  0  0  0  0  0  0  0  0  0
   17.6830   60.7580   -9.9280 H   0  0  0  0  0  0  0  0  0  0  0  0
   19.9790   61.4370   -8.8950 H   0  0  0  0  0  0  0  0  0  0  0  0
   22.6600   61.9530   -9.9500 H   0  0  0  0  0  0  0  0  0  0  0  0
   26.7850   63.8020   -4.5600 H   0  0  0  0  0  0  0  0  0  0  0  0
   24.9780   63.8420   -4.2050 H   0  0  0  0  0  0  0  0  0  0  0  0
   26.1980   62.0740   -2.9160 H   0  0  0  0  0  0  0  0  0  0  0  0
   24.9100   61.4420   -4.0350 H   0  0  0  0  0  0  0  0  0  0  0  0
   25.2760   60.5430   -5.7830 H   0  0  0  0  0  0  0  0  0  0  0  0
   26.9350   59.9390   -6.3440 H   0  0  0  0  0  0  0  0  0  0  0  0
   27.5010   62.4370   -6.5770 H   0  0  0  0  0  0  0  0  0  0  0  0
   26.2070   61.8840   -7.7830 H   0  0  0  0  0  0  0  0  0  0  0  0
   23.9010   67.4460   -5.4880 H   0  0  0  0  0  0  0  0  0  0  0  0
   24.0040   67.7480   -7.2780 H   0  0  0  0  0  0  0  0  0  0  0  0
   22.8650   69.6730   -7.1530 H   0  0  0  0  0  0  0  0  0  0  0  0
   23.1290   69.5640   -5.3890 H   0  0  0  0  0  0  0  0  0  0  0  0
   19.5530   68.3620   -6.7980 H   0  0  0  0  0  0  0  0  0  0  0  0
   20.9680   68.2740   -7.9420 H   0  0  0  0  0  0  0  0  0  0  0  0
   20.4350   66.0870   -7.2080 H   0  0  0  0  0  0  0  0  0  0  0  0
   20.6470   66.4820   -5.4710 H   0  0  0  0  0  0  0  0  0  0  0  0
   18.9770   65.9490   -9.7940 H   0  0  0  0  0  0  0  0  0  0  0  0
   14.1460   64.7880  -10.5510 H   0  0  0  0  0  0  0  0  0  0  0  0
  1  2  1  0  0  0  0
  2  7  1  0  0  0  0
  3  2  2  0  0  0  0
  3  4  1  0  0  0  0
  4  5  2  0  0  0  0
  5 29  1  0  0  0  0
  5  6  1  0  0  0  0
  6  8  1  0  0  0  0
  7 32  1  0  0  0  0
  7  6  2  0  0  0  0
  8 33  1  0  0  0  0
  9  8  2  0  0  0  0
  9 10  1  0  0  0  0
 10 11  1  0  0  0  0
 11 12  2  0  0  0  0
 11 16  1  0  0  0  0
 12 13  2  0  0  0  0
 13 23  1  0  0  0  0
 13 14  1  0  0  0  0
 15 14  2  0  0  0  0
 15 17  1  0  0  0  0
 16 15  1  0  0  0  0
 17 18  1  0  0  0  0
 18 35  1  0  0  0  0
 18 36  1  0  0  0  0
 18 19  1  0  0  0  0
 19 37  1  0  0  0  0
 20 19  1  0  0  0  0
 21 39  1  0  0  0  0
 21 20  1  0  0  0  0
 22 41  1  0  0  0  0
 22 17  1  0  0  0  0
 22 21  1  0  0  0  0
 23 28  1  0  0  0  0
 23 24  1  0  0  0  0
 24 25  1  0  0  0  0
 24 43  1  0  0  0  0
 25 26  1  0  0  0  0
 25 46  1  0  0  0  0
 27 47  1  0  0  0  0
 27 28  1  0  0  0  0
 27 26  1  0  0  0  0
 28 50  1  0  0  0  0
 29 51  1  0  0  0  0
 30  3  1  0  0  0  0
 30 52  1  0  0  0  0
 31  4  1  0  0  0  0
 34 10  1  0  0  0  0
 38 19  1  0  0  0  0
 40 21  1  0  0  0  0
 42 22  1  0  0  0  0
 44 24  1  0  0  0  0
 45 25  1  0  0  0  0
 48 27  1  0  0  0  0
 49 28  1  0  0  0  0
M  END
>  <Pose>
1

>  <Score>
-8.04

$$$$
