
 OpenBabel03202210193D

 33 36  0  0  1  0  0  0  0  0999 V2000
   19.0770   63.1810   -9.4580 B   0  0  0  0  0  0  0  0  0  0  0  0
   20.8670   63.3870  -10.0880 C   0  0  0  0  0  0  0  0  0  0  0  0
   21.7880   64.1470   -9.4130 C   0  0  0  0  0  0  0  0  0  0  0  0
   23.0670   64.2780   -9.9010 C   0  0  0  0  0  0  0  0  0  0  0  0
   23.4620   63.6540  -11.0760 C   0  0  0  0  0  0  0  0  0  0  0  0
   22.5550   62.8890  -11.7690 C   0  0  0  0  0  0  0  0  0  0  0  0
   21.2560   62.7610  -11.2650 C   0  0  0  0  0  0  0  0  0  0  0  0
   21.4590   64.8460   -8.1430 C   0  0  1  0  0  0  0  0  0  0  0  0
   22.1500   64.4450   -6.9990 C   0  0  1  0  0  0  0  0  0  0  0  0
   23.5380   64.5310   -6.4680 C   0  0  0  0  0  0  0  0  0  0  0  0
   23.2750   65.7520   -5.6650 N   0  0  0  0  0  0  0  0  0  0  0  0
   22.5130   66.5310   -6.3660 C   0  0  1  0  0  0  0  0  0  0  0  0
   22.2660   65.8740   -7.6110 C   0  0  2  0  0  0  0  0  0  0  0  0
   23.4370   66.1450   -8.4990 C   0  0  0  0  0  0  0  0  0  0  0  0
   24.3660   66.3840   -9.1920 N   0  0  0  0  0  0  0  0  0  0  0  0
   22.0140   67.8210   -5.9480 N   0  0  0  0  0  0  0  0  0  0  0  0
   23.7400   63.4510   -5.6020 O   0  0  0  0  0  0  0  0  0  0  0  0
   24.9210   62.8440   -5.9810 C   0  0  0  0  0  0  0  0  0  0  0  0
   25.6630   63.9790   -6.6650 C   0  0  0  0  0  0  0  0  0  0  0  0
   24.5700   64.6060   -7.3130 O   0  0  0  0  0  0  0  0  0  0  0  0
   21.2510   64.3460   -5.7940 C   0  0  0  0  0  0  0  0  0  0  0  0
   20.5590   64.2820   -4.8380 N   0  0  0  0  0  0  0  0  0  0  0  0
   23.8460   64.8740   -9.4010 H   0  0  0  0  0  0  0  0  0  0  0  0
   24.4570   63.7460  -11.4710 H   0  0  0  0  0  0  0  0  0  0  0  0
   22.8420   62.4030  -12.6680 H   0  0  0  0  0  0  0  0  0  0  0  0
   20.5060   62.1640  -11.7780 H   0  0  0  0  0  0  0  0  0  0  0  0
   20.3480   65.0350   -8.1170 H   0  0  0  0  0  0  0  0  0  0  0  0
   22.0980   68.6530   -6.5620 H   0  0  0  0  0  0  0  0  0  0  0  0
   21.5610   67.9400   -5.0230 H   0  0  0  0  0  0  0  0  0  0  0  0
   24.6900   62.0540   -6.7280 H   0  0  0  0  0  0  0  0  0  0  0  0
   25.4850   62.4360   -5.1160 H   0  0  0  0  0  0  0  0  0  0  0  0
   26.1000   64.6620   -5.9050 H   0  0  0  0  0  0  0  0  0  0  0  0
   26.4170   63.6320   -7.3840 H   0  0  0  0  0  0  0  0  0  0  0  0
  2  1  1  0  0  0  0
  2  3  1  0  0  0  0
  3  8  1  0  0  0  0
  4  3  2  0  0  0  0
  4 23  1  0  0  0  0
  5  4  1  0  0  0  0
  6  7  1  0  0  0  0
  6  5  2  0  0  0  0
  7  2  2  0  0  0  0
  8 27  1  1  0  0  0
  8 13  1  0  0  0  0
  8  9  1  0  0  0  0
  9 10  1  0  0  0  0
  9 21  1  1  0  0  0
 10 11  1  0  0  0  0
 10 17  1  0  0  0  0
 12 16  1  1  0  0  0
 12 11  1  0  0  0  0
 13 14  1  6  0  0  0
 13  9  1  0  0  0  0
 13 12  1  0  0  0  0
 15 14  3  0  0  0  0
 16 29  1  0  0  0  0
 18 17  1  0  0  0  0
 18 31  1  0  0  0  0
 19 18  1  0  0  0  0
 19 32  1  0  0  0  0
 20 19  1  0  0  0  0
 20 10  1  0  0  0  0
 21 22  3  0  0  0  0
 24  5  1  0  0  0  0
 25  6  1  0  0  0  0
 26  7  1  0  0  0  0
 28 16  1  0  0  0  0
 30 18  1  0  0  0  0
 33 19  1  0  0  0  0
M  END
>  <Pose>
1

>  <Score>
-4.45

$$$$
