
 OpenBabel03202210193D

 33 36  0  0  1  0  0  0  0  0999 V2000
   23.1480   63.4190  -11.4080 B   0  0  0  0  0  0  0  0  0  0  0  0
   21.3840   63.1430  -10.6840 C   0  0  0  0  0  0  0  0  0  0  0  0
   21.2080   63.4180   -9.3470 C   0  0  0  0  0  0  0  0  0  0  0  0
   19.9250   63.2120   -8.8520 C   0  0  0  0  0  0  0  0  0  0  0  0
   18.8890   62.7610   -9.6470 C   0  0  0  0  0  0  0  0  0  0  0  0
   19.1030   62.4930  -10.9940 C   0  0  0  0  0  0  0  0  0  0  0  0
   20.3630   62.6920  -11.4910 C   0  0  0  0  0  0  0  0  0  0  0  0
   22.2430   63.8850   -8.4940 N   0  0  0  0  0  0  0  0  0  0  0  0
   23.1120   63.1460   -7.6520 C   0  0  0  0  0  0  0  0  0  0  0  0
   23.1670   61.9040   -7.6170 O   0  0  0  0  0  0  0  0  0  0  0  0
   23.9450   64.0480   -6.8220 C   0  0  2  0  0  0  0  0  0  0  0  0
   23.6640   63.9320   -5.3640 C   0  0  1  0  0  0  0  0  0  0  0  0
   23.4120   65.2590   -4.9250 O   0  0  0  0  0  0  0  0  0  0  0  0
   22.4250   65.5600   -5.8980 C   0  0  1  0  0  0  0  0  0  0  0  0
   23.3320   65.4260   -7.1280 C   0  0  2  0  0  0  0  0  0  0  0  0
   22.5500   65.2770   -8.3650 C   0  0  0  0  0  0  0  0  0  0  0  0
   22.2040   66.1650   -9.1730 O   0  0  0  0  0  0  0  0  0  0  0  0
   21.5290   64.3940   -5.7450 C   0  0  0  0  0  0  0  0  0  0  0  0
   22.2690   63.4130   -5.2300 C   0  0  0  0  0  0  0  0  0  0  0  0
   24.6530   63.2300   -4.5330 C   0  0  0  0  0  0  0  0  0  0  0  0
   25.1870   64.1530   -3.6150 O   0  0  0  0  0  0  0  0  0  0  0  0
   19.7610   63.4220   -7.8000 H   0  0  0  0  0  0  0  0  0  0  0  0
   17.8820   62.6040   -9.2370 H   0  0  0  0  0  0  0  0  0  0  0  0
   18.2680   62.1410  -11.5910 H   0  0  0  0  0  0  0  0  0  0  0  0
   20.5560   62.4930  -12.5300 H   0  0  0  0  0  0  0  0  0  0  0  0
   25.0080   64.0200   -7.0850 H   0  0  0  0  0  0  0  0  0  0  0  0
   21.9730   66.5230   -5.7810 H   0  0  0  0  0  0  0  0  0  0  0  0
   24.0710   66.2240   -7.1220 H   0  0  0  0  0  0  0  0  0  0  0  0
   20.4650   64.2660   -5.9770 H   0  0  0  0  0  0  0  0  0  0  0  0
   21.9580   62.4660   -4.8140 H   0  0  0  0  0  0  0  0  0  0  0  0
   25.5380   62.8880   -5.1330 H   0  0  0  0  0  0  0  0  0  0  0  0
   24.2440   62.3480   -4.0270 H   0  0  0  0  0  0  0  0  0  0  0  0
   25.6640   64.8780   -4.1140 H   0  0  0  0  0  0  0  0  0  0  0  0
  1  2  1  0  0  0  0
  2  3  1  0  0  0  0
  3  4  2  0  0  0  0
  3  8  1  0  0  0  0
  4 22  1  0  0  0  0
  5 23  1  0  0  0  0
  5  4  1  0  0  0  0
  6  5  2  0  0  0  0
  7  6  1  0  0  0  0
  7  2  2  0  0  0  0
  8 16  1  0  0  0  0
  8  9  1  0  0  0  0
  9 10  2  0  0  0  0
  9 11  1  0  0  0  0
 11 26  1  6  0  0  0
 11 12  1  0  0  0  0
 12 19  1  0  0  0  0
 12 13  1  0  0  0  0
 12 20  1  1  0  0  0
 14 27  1  1  0  0  0
 14 18  1  0  0  0  0
 14 13  1  0  0  0  0
 15 28  1  6  0  0  0
 15 11  1  0  0  0  0
 15 14  1  0  0  0  0
 16 15  1  0  0  0  0
 17 16  2  0  0  0  0
 18 19  2  0  0  0  0
 19 30  1  0  0  0  0
 20 32  1  0  0  0  0
 20 21  1  0  0  0  0
 24  6  1  0  0  0  0
 25  7  1  0  0  0  0
 29 18  1  0  0  0  0
 31 20  1  0  0  0  0
 33 21  1  0  0  0  0
M  END
>  <Pose>
1

>  <Score>
-4.83

$$$$
