
 OpenBabel03202210193D

 36 39  0  0  1  0  0  0  0  0999 V2000
   23.2700   63.0940  -11.9900 B   0  0  0  0  0  0  0  0  0  0  0  0
   21.5540   62.9760  -11.2190 C   0  0  0  0  0  0  0  0  0  0  0  0
   21.3500   63.1680   -9.8640 C   0  0  0  0  0  0  0  0  0  0  0  0
   20.0340   63.0500   -9.4350 C   0  0  0  0  0  0  0  0  0  0  0  0
   18.9860   62.7650  -10.2730 C   0  0  0  0  0  0  0  0  0  0  0  0
   19.2070   62.5790  -11.6010 C   0  0  0  0  0  0  0  0  0  0  0  0
   20.4880   62.6850  -12.0730 C   0  0  0  0  0  0  0  0  0  0  0  0
   22.4090   63.4650   -8.9670 N   0  0  0  0  0  0  0  0  0  0  0  0
   23.3240   62.5060   -8.3180 C   0  0  0  0  0  0  0  0  0  0  0  0
   23.6910   63.2260   -7.1060 C   0  0  2  0  0  0  0  0  0  0  0  0
   22.8100   63.0960   -6.0190 O   0  0  0  0  0  0  0  0  0  0  0  0
   23.4380   64.0760   -5.2050 C   0  0  2  0  0  0  0  0  0  0  0  0
   23.1870   65.2830   -6.1200 C   0  0  1  0  0  0  0  0  0  0  0  0
   23.6780   64.7320   -7.4220 C   0  0  2  0  0  0  0  0  0  0  0  0
   22.7540   64.7790   -8.5440 C   0  0  0  0  0  0  0  0  0  0  0  0
   22.3110   65.8160   -9.0790 O   0  0  0  0  0  0  0  0  0  0  0  0
   21.6980   65.4370   -6.1490 C   0  0  0  0  0  0  0  0  0  0  0  0
   21.1370   66.5360   -6.2700 O   0  0  0  0  0  0  0  0  0  0  0  0
   20.9130   64.2970   -6.0340 O   0  0  0  0  0  0  0  0  0  0  0  0
   20.2210   64.0650   -4.8010 C   0  0  0  0  0  0  0  0  0  0  0  0
   24.8560   63.6150   -5.2700 C   0  0  0  0  0  0  0  0  0  0  0  0
   24.9660   62.9590   -6.4470 C   0  0  0  0  0  0  0  0  0  0  0  0
   19.7910   63.1870   -8.3910 H   0  0  0  0  0  0  0  0  0  0  0  0
   17.9750   62.6820   -9.8950 H   0  0  0  0  0  0  0  0  0  0  0  0
   18.3860   62.3510  -12.2800 H   0  0  0  0  0  0  0  0  0  0  0  0
   20.6600   62.5370  -13.1290 H   0  0  0  0  0  0  0  0  0  0  0  0
   22.7130   61.6140   -8.0800 H   0  0  0  0  0  0  0  0  0  0  0  0
   24.1660   62.2290   -8.9610 H   0  0  0  0  0  0  0  0  0  0  0  0
   23.0200   64.1670   -4.2280 H   0  0  0  0  0  0  0  0  0  0  0  0
   23.6930   66.1760   -5.7730 H   0  0  0  0  0  0  0  0  0  0  0  0
   24.6980   65.0770   -7.6850 H   0  0  0  0  0  0  0  0  0  0  0  0
   19.5360   63.2070   -4.8900 H   0  0  0  0  0  0  0  0  0  0  0  0
   19.6370   64.9540   -4.4900 H   0  0  0  0  0  0  0  0  0  0  0  0
   20.9560   63.7980   -4.0010 H   0  0  0  0  0  0  0  0  0  0  0  0
   25.6210   63.7830   -4.5180 H   0  0  0  0  0  0  0  0  0  0  0  0
   25.8240   62.3880   -6.7640 H   0  0  0  0  0  0  0  0  0  0  0  0
  1  2  1  0  0  0  0
  2  3  1  0  0  0  0
  3  4  2  0  0  0  0
  3  8  1  0  0  0  0
  4 23  1  0  0  0  0
  5 24  1  0  0  0  0
  5  4  1  0  0  0  0
  6  5  2  0  0  0  0
  7  6  1  0  0  0  0
  7  2  2  0  0  0  0
  8 15  1  0  0  0  0
  8  9  1  0  0  0  0
  9 27  1  0  0  0  0
  9 10  1  0  0  0  0
 10 22  1  1  0  0  0
 10 11  1  0  0  0  0
 11 12  1  0  0  0  0
 12 29  1  1  0  0  0
 13 30  1  1  0  0  0
 13 12  1  0  0  0  0
 14 31  1  6  0  0  0
 14 10  1  0  0  0  0
 14 13  1  0  0  0  0
 15 14  1  0  0  0  0
 16 15  2  0  0  0  0
 17 13  1  0  0  0  0
 17 19  1  0  0  0  0
 18 17  2  0  0  0  0
 19 20  1  0  0  0  0
 20 33  1  0  0  0  0
 20 34  1  0  0  0  0
 21 12  1  0  0  0  0
 21 35  1  0  0  0  0
 22 21  2  0  0  0  0
 25  6  1  0  0  0  0
 26  7  1  0  0  0  0
 28  9  1  0  0  0  0
 32 20  1  0  0  0  0
 36 22  1  0  0  0  0
M  END
>  <Pose>
1

>  <Score>
-4.09

$$$$
