
 OpenBabel03202210193D

 45 48  0  0  0  0  0  0  0  0999 V2000
   17.0800   63.7970  -10.0320 B   0  0  0  0  0  0  0  0  0  0  0  0
   18.9300   63.5150  -10.4030 C   0  0  0  0  0  0  0  0  0  0  0  0
   19.8480   63.6470   -9.4020 C   0  0  0  0  0  0  0  0  0  0  0  0
   21.1950   63.4770   -9.5130 C   0  0  0  0  0  0  0  0  0  0  0  0
   21.6000   63.1330  -10.8230 C   0  0  0  0  0  0  0  0  0  0  0  0
   20.7110   62.9880  -11.8610 C   0  0  0  0  0  0  0  0  0  0  0  0
   19.3530   63.1800  -11.6550 C   0  0  0  0  0  0  0  0  0  0  0  0
   22.9460   62.9310  -11.0710 O   0  0  0  0  0  0  0  0  0  0  0  0
   23.6020   63.3300  -12.2350 C   0  0  0  0  0  0  0  0  0  0  0  0
   22.2060   63.5860   -8.5000 C   0  0  0  0  0  0  0  0  0  0  0  0
   22.6200   64.4430   -7.5930 N   0  0  0  0  0  0  0  0  0  0  0  0
   23.6920   63.9360   -6.9060 C   0  0  0  0  0  0  0  0  0  0  0  0
   23.9290   62.7090   -7.4230 N   0  0  0  0  0  0  0  0  0  0  0  0
   23.0670   62.4890   -8.3560 N   0  0  0  0  0  0  0  0  0  0  0  0
   24.0980   64.8180   -5.9900 N   0  0  0  0  0  0  0  0  0  0  0  0
   23.2880   65.8840   -6.0850 C   0  0  0  0  0  0  0  0  0  0  0  0
   22.3450   65.6720   -7.0850 C   0  0  0  0  0  0  0  0  0  0  0  0
   21.4060   66.5510   -7.3780 N   0  0  0  0  0  0  0  0  0  0  0  0
   21.3980   67.7110   -6.6500 C   0  0  0  0  0  0  0  0  0  0  0  0
   20.5500   68.6180   -6.8480 O   0  0  0  0  0  0  0  0  0  0  0  0
   22.3000   67.9540   -5.6760 N   0  0  0  0  0  0  0  0  0  0  0  0
   23.2430   67.0690   -5.3750 C   0  0  0  0  0  0  0  0  0  0  0  0
   24.1100   67.2360   -4.4800 O   0  0  0  0  0  0  0  0  0  0  0  0
   20.3300   66.4410   -8.3160 C   0  0  0  0  0  0  0  0  0  0  0  0
   25.1880   64.6810   -5.0690 C   0  0  0  0  0  0  0  0  0  0  0  0
   24.9600   63.4640   -4.1960 C   0  0  0  0  0  0  0  0  0  0  0  0
   26.1890   63.0040   -3.7650 O   0  0  0  0  0  0  0  0  0  0  0  0
   26.7670   62.1220   -4.6940 C   0  0  0  0  0  0  0  0  0  0  0  0
   19.5110   63.9250   -8.4140 H   0  0  0  0  0  0  0  0  0  0  0  0
   20.9970   62.7260  -12.8640 H   0  0  0  0  0  0  0  0  0  0  0  0
   18.6450   63.0710  -12.4560 H   0  0  0  0  0  0  0  0  0  0  0  0
   23.2580   64.3090  -12.6250 H   0  0  0  0  0  0  0  0  0  0  0  0
   24.7080   63.4380  -12.0870 H   0  0  0  0  0  0  0  0  0  0  0  0
   23.4700   62.5410  -13.0090 H   0  0  0  0  0  0  0  0  0  0  0  0
   22.2820   68.8420   -5.1320 H   0  0  0  0  0  0  0  0  0  0  0  0
   19.8320   65.4610   -8.2970 H   0  0  0  0  0  0  0  0  0  0  0  0
   19.5480   67.2270   -8.0320 H   0  0  0  0  0  0  0  0  0  0  0  0
   20.6400   66.7140   -9.3190 H   0  0  0  0  0  0  0  0  0  0  0  0
   25.3910   65.5970   -4.4860 H   0  0  0  0  0  0  0  0  0  0  0  0
   26.1050   64.4370   -5.6820 H   0  0  0  0  0  0  0  0  0  0  0  0
   24.4910   62.6320   -4.7780 H   0  0  0  0  0  0  0  0  0  0  0  0
   24.3080   63.7770   -3.3570 H   0  0  0  0  0  0  0  0  0  0  0  0
   26.0750   61.2600   -4.8160 H   0  0  0  0  0  0  0  0  0  0  0  0
   27.7050   61.7140   -4.2920 H   0  0  0  0  0  0  0  0  0  0  0  0
   26.9450   62.5930   -5.6620 H   0  0  0  0  0  0  0  0  0  0  0  0
  2  1  1  0  0  0  0
  2  3  1  0  0  0  0
  3 29  1  0  0  0  0
  4  3  2  0  0  0  0
  4 10  1  0  0  0  0
  5  4  1  0  0  0  0
  6  7  1  0  0  0  0
  6  5  2  0  0  0  0
  7  2  2  0  0  0  0
  8  5  1  0  0  0  0
  9 33  1  0  0  0  0
  9  8  1  0  0  0  0
 10 14  2  0  0  0  0
 10 11  1  0  0  0  0
 11 17  1  0  0  0  0
 11 12  1  0  0  0  0
 12 15  1  0  0  0  0
 13 12  2  0  0  0  0
 14 13  1  0  0  0  0
 15 25  1  0  0  0  0
 16 15  1  0  0  0  0
 16 22  1  0  0  0  0
 17 16  2  0  0  0  0
 18 17  1  0  0  0  0
 18 19  1  0  0  0  0
 19 21  1  0  0  0  0
 20 19  2  0  0  0  0
 21 22  1  0  0  0  0
 21 35  1  0  0  0  0
 22 23  2  0  0  0  0
 24 36  1  0  0  0  0
 24 37  1  0  0  0  0
 24 18  1  0  0  0  0
 25 39  1  0  0  0  0
 25 26  1  0  0  0  0
 26 27  1  0  0  0  0
 26 42  1  0  0  0  0
 28 44  1  0  0  0  0
 28 27  1  0  0  0  0
 30  6  1  0  0  0  0
 31  7  1  0  0  0  0
 32  9  1  0  0  0  0
 34  9  1  0  0  0  0
 38 24  1  0  0  0  0
 40 25  1  0  0  0  0
 41 26  1  0  0  0  0
 43 28  1  0  0  0  0
 45 28  1  0  0  0  0
M  END
>  <Pose>
1

>  <Score>
-6.91

$$$$
