
 OpenBabel03202210193D

 49 52  0  0  0  0  0  0  0  0999 V2000
   22.9160   63.6760   -2.1030 B   0  0  0  0  0  0  0  0  0  0  0  0
   23.9240   63.4330   -3.6880 C   0  0  0  0  0  0  0  0  0  0  0  0
   23.4010   63.8640   -4.8940 C   0  0  0  0  0  0  0  0  0  0  0  0
   24.0860   63.7160   -6.0850 C   0  0  0  0  0  0  0  0  0  0  0  0
   25.3360   63.1140   -6.0440 C   0  0  0  0  0  0  0  0  0  0  0  0
   25.8490   62.6870   -4.8420 C   0  0  0  0  0  0  0  0  0  0  0  0
   25.1810   62.8270   -3.6460 C   0  0  0  0  0  0  0  0  0  0  0  0
   23.5620   64.1590   -7.3690 C   0  0  0  0  0  0  0  0  0  0  0  0
   23.3810   65.3870   -7.5730 O   0  0  0  0  0  0  0  0  0  0  0  0
   23.2380   63.2700   -8.4190 N   0  0  0  0  0  0  0  0  0  0  0  0
   21.8720   62.8890   -8.7070 C   0  0  0  0  0  0  0  0  0  0  0  0
   21.3400   63.6130   -9.8920 C   0  0  0  0  0  0  0  0  0  0  0  0
   22.0630   64.5170  -10.3790 O   0  0  0  0  0  0  0  0  0  0  0  0
   20.0940   63.3390  -10.4780 N   0  0  0  0  0  0  0  0  0  0  0  0
   18.9830   64.2540  -10.3980 C   0  0  0  0  0  0  0  0  0  0  0  0
   17.8990   63.5590   -9.6020 C   0  0  0  0  0  0  0  0  0  0  0  0
   17.6510   62.1840  -10.1730 C   0  0  0  0  0  0  0  0  0  0  0  0
   17.9850   61.2100   -9.1560 N   0  0  0  0  0  0  0  0  0  0  0  0
   17.6870   59.8630   -9.4950 C   0  0  0  0  0  0  0  0  0  0  0  0
   16.4200   59.6140  -10.2290 C   0  0  0  0  0  0  0  0  0  0  0  0
   15.5750   60.8100  -10.4260 C   0  0  0  0  0  0  0  0  0  0  0  0
   14.2340   60.9680  -10.6460 N   0  0  0  0  0  0  0  0  0  0  0  0
   14.0160   62.2840  -10.7550 C   0  0  0  0  0  0  0  0  0  0  0  0
   15.1800   62.9380  -10.6080 N   0  0  0  0  0  0  0  0  0  0  0  0
   16.1810   62.0470  -10.4000 C   0  0  0  0  0  0  0  0  0  0  0  0
   18.3890   61.8980  -11.4410 C   0  0  0  0  0  0  0  0  0  0  0  0
   19.8860   62.1070  -11.1930 C   0  0  0  0  0  0  0  0  0  0  0  0
   22.4430   64.3200   -4.8840 H   0  0  0  0  0  0  0  0  0  0  0  0
   25.9410   62.9580   -6.9340 H   0  0  0  0  0  0  0  0  0  0  0  0
   26.8250   62.2140   -4.7890 H   0  0  0  0  0  0  0  0  0  0  0  0
   25.5490   62.5090   -2.6980 H   0  0  0  0  0  0  0  0  0  0  0  0
   24.0060   62.8790   -8.9990 H   0  0  0  0  0  0  0  0  0  0  0  0
   21.2040   63.1440   -7.8600 H   0  0  0  0  0  0  0  0  0  0  0  0
   21.8700   61.7900   -8.8440 H   0  0  0  0  0  0  0  0  0  0  0  0
   18.5860   64.4810  -11.4200 H   0  0  0  0  0  0  0  0  0  0  0  0
   19.2570   65.2320   -9.9650 H   0  0  0  0  0  0  0  0  0  0  0  0
   16.9650   64.1600   -9.5680 H   0  0  0  0  0  0  0  0  0  0  0  0
   18.2970   63.4920   -8.5530 H   0  0  0  0  0  0  0  0  0  0  0  0
   19.0200   61.2770   -8.9640 H   0  0  0  0  0  0  0  0  0  0  0  0
   17.6200   59.2930   -8.5210 H   0  0  0  0  0  0  0  0  0  0  0  0
   18.5350   59.3530  -10.0280 H   0  0  0  0  0  0  0  0  0  0  0  0
   15.7740   58.8360   -9.7230 H   0  0  0  0  0  0  0  0  0  0  0  0
   16.6090   59.1560  -11.2420 H   0  0  0  0  0  0  0  0  0  0  0  0
   13.5410   60.1670  -10.7110 H   0  0  0  0  0  0  0  0  0  0  0  0
   13.0600   62.7480  -10.9310 H   0  0  0  0  0  0  0  0  0  0  0  0
   18.0270   62.4640  -12.2990 H   0  0  0  0  0  0  0  0  0  0  0  0
   18.2710   60.8240  -11.6690 H   0  0  0  0  0  0  0  0  0  0  0  0
   20.4340   62.1590  -12.1570 H   0  0  0  0  0  0  0  0  0  0  0  0
   20.2410   61.2230  -10.6560 H   0  0  0  0  0  0  0  0  0  0  0  0
  2  7  1  0  0  0  0
  2  1  1  0  0  0  0
  3 28  1  0  0  0  0
  3  2  2  0  0  0  0
  4  5  2  0  0  0  0
  4  3  1  0  0  0  0
  5  6  1  0  0  0  0
  6 30  1  0  0  0  0
  6  7  2  0  0  0  0
  7 31  1  0  0  0  0
  8  4  1  0  0  0  0
  9  8  2  0  0  0  0
 10  8  1  0  0  0  0
 11 10  1  0  0  0  0
 11 33  1  0  0  0  0
 12 11  1  0  0  0  0
 13 12  2  0  0  0  0
 14 15  1  0  0  0  0
 14 12  1  0  0  0  0
 15 36  1  0  0  0  0
 15 16  1  0  0  0  0
 16 37  1  0  0  0  0
 16 38  1  0  0  0  0
 17 16  1  0  0  0  0
 17 18  1  0  0  0  0
 18 39  1  0  0  0  0
 19 18  1  0  0  0  0
 19 40  1  0  0  0  0
 20 42  1  0  0  0  0
 20 19  1  0  0  0  0
 21 25  2  0  0  0  0
 21 20  1  0  0  0  0
 22 21  1  0  0  0  0
 23 22  1  0  0  0  0
 23 24  2  0  0  0  0
 24 25  1  0  0  0  0
 25 17  1  0  0  0  0
 26 27  1  0  0  0  0
 26 17  1  0  0  0  0
 27 49  1  0  0  0  0
 27 14  1  0  0  0  0
 29  5  1  0  0  0  0
 32 10  1  0  0  0  0
 34 11  1  0  0  0  0
 35 15  1  0  0  0  0
 41 19  1  0  0  0  0
 43 20  1  0  0  0  0
 44 22  1  0  0  0  0
 45 23  1  0  0  0  0
 46 26  1  0  0  0  0
 47 26  1  0  0  0  0
 48 27  1  0  0  0  0
M  END
>  <Pose>
1

>  <Score>
-7.29

$$$$
