
 OpenBabel03202210193D

 48 51  0  0  1  0  0  0  0  0999 V2000
   27.2600   61.1360   -2.7000 B   0  0  0  0  0  0  0  0  0  0  0  0
   25.7420   62.0680   -3.3990 C   0  0  0  0  0  0  0  0  0  0  0  0
   25.6930   62.4090   -4.7220 C   0  0  0  0  0  0  0  0  0  0  0  0
   24.5950   63.0860   -5.2390 C   0  0  0  0  0  0  0  0  0  0  0  0
   23.5780   63.3970   -4.3910 C   0  0  0  0  0  0  0  0  0  0  0  0
   23.6370   63.0470   -3.0510 C   0  0  0  0  0  0  0  0  0  0  0  0
   24.7230   62.3780   -2.5440 C   0  0  0  0  0  0  0  0  0  0  0  0
   24.5510   63.4510   -6.6440 C   0  0  0  0  0  0  0  0  0  0  0  0
   25.1630   64.5180   -7.0170 O   0  0  0  0  0  0  0  0  0  0  0  0
   23.8640   62.6750   -7.6000 N   0  0  0  0  0  0  0  0  0  0  0  0
   22.4400   62.9120   -7.7570 C   0  0  2  0  0  0  0  0  0  0  0  0
   21.7990   61.8690   -8.6520 C   0  0  0  0  0  0  0  0  0  0  0  0
   20.6270   62.5560   -9.1600 N   0  0  0  0  0  0  0  0  0  0  0  0
   20.6500   63.9590   -8.8000 C   0  0  1  0  0  0  0  0  0  0  0  0
   22.1400   64.1810   -8.5050 C   0  0  0  0  0  0  0  0  0  0  0  0
   20.2040   64.7430   -9.9510 C   0  0  0  0  0  0  0  0  0  0  0  0
   20.8790   65.6810  -10.3980 O   0  0  0  0  0  0  0  0  0  0  0  0
   18.9630   64.3980  -10.5470 N   0  0  0  0  0  0  0  0  0  0  0  0
   18.4780   63.0400  -10.4440 C   0  0  1  0  0  0  0  0  0  0  0  0
   19.4990   62.1030   -9.9230 C   0  0  0  0  0  0  0  0  0  0  0  0
   19.3860   60.8700  -10.1480 O   0  0  0  0  0  0  0  0  0  0  0  0
   17.1750   62.9450   -9.6790 C   0  0  0  0  0  0  0  0  0  0  0  0
   15.9870   63.0920  -10.5360 C   0  0  0  0  0  0  0  0  0  0  0  0
   15.7030   64.3160  -11.1140 C   0  0  0  0  0  0  0  0  0  0  0  0
   14.5940   64.4610  -11.9160 C   0  0  0  0  0  0  0  0  0  0  0  0
   13.7240   63.4210  -12.1810 C   0  0  0  0  0  0  0  0  0  0  0  0
   14.0040   62.2000  -11.6060 C   0  0  0  0  0  0  0  0  0  0  0  0
   15.1130   62.0350  -10.7980 C   0  0  0  0  0  0  0  0  0  0  0  0
   26.4950   62.1730   -5.4270 H   0  0  0  0  0  0  0  0  0  0  0  0
   22.7030   63.9320   -4.7660 H   0  0  0  0  0  0  0  0  0  0  0  0
   22.8320   63.2930   -2.3780 H   0  0  0  0  0  0  0  0  0  0  0  0
   24.7980   62.0900   -1.4940 H   0  0  0  0  0  0  0  0  0  0  0  0
   24.3760   61.9770   -8.1570 H   0  0  0  0  0  0  0  0  0  0  0  0
   21.9010   62.9070   -6.8120 H   0  0  0  0  0  0  0  0  0  0  0  0
   22.4510   61.5850   -9.5060 H   0  0  0  0  0  0  0  0  0  0  0  0
   21.5190   60.9550   -8.0840 H   0  0  0  0  0  0  0  0  0  0  0  0
   20.0470   64.1830   -7.8950 H   0  0  0  0  0  0  0  0  0  0  0  0
   22.1880   65.0870   -7.8820 H   0  0  0  0  0  0  0  0  0  0  0  0
   22.6530   64.2590   -9.4700 H   0  0  0  0  0  0  0  0  0  0  0  0
   18.3770   65.0900  -11.0650 H   0  0  0  0  0  0  0  0  0  0  0  0
   18.2140   62.7430  -11.5040 H   0  0  0  0  0  0  0  0  0  0  0  0
   17.1620   61.9810   -9.1380 H   0  0  0  0  0  0  0  0  0  0  0  0
   17.1690   63.7690   -8.9480 H   0  0  0  0  0  0  0  0  0  0  0  0
   16.3220   65.1930  -10.9680 H   0  0  0  0  0  0  0  0  0  0  0  0
   14.3660   65.4160  -12.3710 H   0  0  0  0  0  0  0  0  0  0  0  0
   12.8540   63.5770  -12.8230 H   0  0  0  0  0  0  0  0  0  0  0  0
   13.3170   61.3780  -11.8160 H   0  0  0  0  0  0  0  0  0  0  0  0
   15.3030   61.0620  -10.3620 H   0  0  0  0  0  0  0  0  0  0  0  0
  2  1  1  0  0  0  0
  2  7  1  0  0  0  0
  3  2  2  0  0  0  0
  4  3  1  0  0  0  0
  4  5  2  0  0  0  0
  5  6  1  0  0  0  0
  6  7  2  0  0  0  0
  6 31  1  0  0  0  0
  7 32  1  0  0  0  0
  8  4  1  0  0  0  0
  9  8  2  0  0  0  0
 10  8  1  0  0  0  0
 11 10  1  0  0  0  0
 11 34  1  1  0  0  0
 12 36  1  0  0  0  0
 12 11  1  0  0  0  0
 13 14  1  0  0  0  0
 13 12  1  0  0  0  0
 14 15  1  0  0  0  0
 14 37  1  1  0  0  0
 15 38  1  0  0  0  0
 15 11  1  0  0  0  0
 16 14  1  0  0  0  0
 17 16  2  0  0  0  0
 18 19  1  0  0  0  0
 18 16  1  0  0  0  0
 19 41  1  6  0  0  0
 19 20  1  0  0  0  0
 19 22  1  0  0  0  0
 20 13  1  0  0  0  0
 21 20  2  0  0  0  0
 22 42  1  0  0  0  0
 22 43  1  0  0  0  0
 23 22  1  0  0  0  0
 24 44  1  0  0  0  0
 24 23  2  0  0  0  0
 25 24  1  0  0  0  0
 26 25  2  0  0  0  0
 26 27  1  0  0  0  0
 27 28  2  0  0  0  0
 28 23  1  0  0  0  0
 28 48  1  0  0  0  0
 29  3  1  0  0  0  0
 30  5  1  0  0  0  0
 33 10  1  0  0  0  0
 35 12  1  0  0  0  0
 39 15  1  0  0  0  0
 40 18  1  0  0  0  0
 45 25  1  0  0  0  0
 46 26  1  0  0  0  0
 47 27  1  0  0  0  0
M  END
>  <Pose>
1

>  <Score>
-7.84

$$$$
