
 OpenBabel03202210193D

 63 66  0  0  1  0  0  0  0  0999 V2000
   27.3090   61.7190   -5.1710 B   0  0  0  0  0  0  0  0  0  0  0  0
   25.6050   62.5600   -5.0080 C   0  0  0  0  0  0  0  0  0  0  0  0
   25.1650   63.4150   -5.9960 C   0  0  0  0  0  0  0  0  0  0  0  0
   23.9330   64.0520   -5.9240 C   0  0  0  0  0  0  0  0  0  0  0  0
   23.1780   63.7710   -4.7950 C   0  0  0  0  0  0  0  0  0  0  0  0
   23.6090   62.9170   -3.8010 C   0  0  0  0  0  0  0  0  0  0  0  0
   24.8350   62.2980   -3.8960 C   0  0  0  0  0  0  0  0  0  0  0  0
   23.4630   64.9620   -6.9950 C   0  0  2  0  0  0  0  0  0  0  0  0
   22.6860   66.0230   -6.3850 N   0  0  0  0  0  0  0  0  0  0  0  0
   21.4200   65.4590   -6.0740 C   0  0  0  0  0  0  0  0  0  0  0  0
   20.6190   65.8310   -5.1890 O   0  0  0  0  0  0  0  0  0  0  0  0
   21.2170   64.3260   -7.0040 C   0  0  0  0  0  0  0  0  0  0  0  0
   20.2260   63.5660   -7.0680 O   0  0  0  0  0  0  0  0  0  0  0  0
   22.4130   64.2840   -7.8340 C   0  0  0  0  0  0  0  0  0  0  0  0
   22.4880   63.8020   -9.0360 C   0  0  0  0  0  0  0  0  0  0  0  0
   23.7200   63.9040   -9.7160 O   0  0  0  0  0  0  0  0  0  0  0  0
   21.4050   63.1520   -9.7600 C   0  0  0  0  0  0  0  0  0  0  0  0
   21.2160   61.8940  -10.2240 C   0  0  0  0  0  0  0  0  0  0  0  0
   19.9890   61.8300  -10.7830 N   0  0  0  0  0  0  0  0  0  0  0  0
   19.3590   63.0090  -10.7050 C   0  0  0  0  0  0  0  0  0  0  0  0
   20.2250   63.8580  -10.0680 C   0  0  0  0  0  0  0  0  0  0  0  0
   19.9540   65.2930   -9.7550 C   0  0  0  0  0  0  0  0  0  0  0  0
   18.0070   63.3300  -11.2040 C   0  0  0  0  0  0  0  0  0  0  0  0
   17.8740   63.7550  -12.3620 O   0  0  0  0  0  0  0  0  0  0  0  0
   16.8980   63.1610  -10.3970 O   0  0  0  0  0  0  0  0  0  0  0  0
   16.0100   64.2020  -10.0580 C   0  0  0  0  0  0  0  0  0  0  0  0
   22.1840   60.7460  -10.1990 C   0  0  0  0  0  0  0  0  0  0  0  0
   23.1070   67.4040   -6.1370 C   0  0  0  0  0  0  0  0  0  0  0  0
   22.0640   68.3880   -6.6190 C   0  0  0  0  0  0  0  0  0  0  0  0
   22.0920   69.6420   -5.9400 N   0  0  0  0  0  4  0  0  0  0  0  0
   20.9250   70.4780   -6.1980 C   0  0  0  0  0  0  0  0  0  0  0  0
   20.8600   71.5130   -5.1080 C   0  0  0  0  0  0  0  0  0  0  0  0
   22.1110   71.6870   -4.5700 O   0  0  0  0  0  0  0  0  0  0  0  0
   23.1320   71.7430   -5.5020 C   0  0  0  0  0  0  0  0  0  0  0  0
   23.2390   70.4560   -6.3200 C   0  0  0  0  0  0  0  0  0  0  0  0
   25.7780   63.6240   -6.8670 H   0  0  0  0  0  0  0  0  0  0  0  0
   22.2080   64.2590   -4.7170 H   0  0  0  0  0  0  0  0  0  0  0  0
   23.0040   62.7080   -2.9220 H   0  0  0  0  0  0  0  0  0  0  0  0
   25.1880   61.6150   -3.1090 H   0  0  0  0  0  0  0  0  0  0  0  0
   24.2900   65.3380   -7.6230 H   0  0  0  0  0  0  0  0  0  0  0  0
   19.5850   60.9550  -11.2260 H   0  0  0  0  0  0  0  0  0  0  0  0
   19.5910   65.8290  -10.6560 H   0  0  0  0  0  0  0  0  0  0  0  0
   20.8980   65.7800   -9.4600 H   0  0  0  0  0  0  0  0  0  0  0  0
   19.1910   65.4150   -8.9720 H   0  0  0  0  0  0  0  0  0  0  0  0
   15.7860   64.8710  -10.9190 H   0  0  0  0  0  0  0  0  0  0  0  0
   16.3800   64.7880   -9.1760 H   0  0  0  0  0  0  0  0  0  0  0  0
   15.0600   63.7070   -9.7290 H   0  0  0  0  0  0  0  0  0  0  0  0
   21.8930   59.9890   -9.4500 H   0  0  0  0  0  0  0  0  0  0  0  0
   23.2030   61.1130  -10.0150 H   0  0  0  0  0  0  0  0  0  0  0  0
   22.1200   60.3020  -11.2420 H   0  0  0  0  0  0  0  0  0  0  0  0
   23.2820   67.5750   -5.0540 H   0  0  0  0  0  0  0  0  0  0  0  0
   24.0330   67.6300   -6.7100 H   0  0  0  0  0  0  0  0  0  0  0  0
   21.0520   67.8920   -6.5250 H   0  0  0  0  0  0  0  0  0  0  0  0
   22.1770   68.5850   -7.7000 H   0  0  0  0  0  0  0  0  0  0  0  0
   22.1920   69.4790   -4.9220 H   0  0  0  0  0  0  0  0  0  0  0  0
   21.1470   71.0330   -7.1550 H   0  0  0  0  0  0  0  0  0  0  0  0
   20.0060   69.9200   -6.3590 H   0  0  0  0  0  0  0  0  0  0  0  0
   20.4580   72.4850   -5.4440 H   0  0  0  0  0  0  0  0  0  0  0  0
   20.1870   71.1620   -4.2810 H   0  0  0  0  0  0  0  0  0  0  0  0
   24.0860   71.8130   -4.9060 H   0  0  0  0  0  0  0  0  0  0  0  0
   23.0910   72.6400   -6.1520 H   0  0  0  0  0  0  0  0  0  0  0  0
   24.1920   69.9480   -6.1680 H   0  0  0  0  0  0  0  0  0  0  0  0
   23.1160   70.7560   -7.3930 H   0  0  0  0  0  0  0  0  0  0  0  0
  1  2  1  0  0  0  0
  2  7  1  0  0  0  0
  3  4  1  0  0  0  0
  3  2  2  0  0  0  0
  4  5  2  0  0  0  0
  5 37  1  0  0  0  0
  5  6  1  0  0  0  0
  6 38  1  0  0  0  0
  7  6  2  0  0  0  0
  7 39  1  0  0  0  0
  8 40  1  6  0  0  0
  8  9  1  0  0  0  0
  8  4  1  0  0  0  0
  9 28  1  0  0  0  0
  9 10  1  0  0  0  0
 10 11  2  0  0  0  0
 12 10  1  0  0  0  0
 13 12  2  0  0  0  0
 14 12  1  0  0  0  0
 14  8  1  0  0  0  0
 15 14  2  0  0  0  0
 16 15  1  0  0  0  0
 17 15  1  0  0  0  0
 18 27  1  0  0  0  0
 18 17  2  0  0  0  0
 19 20  1  0  0  0  0
 19 18  1  0  0  0  0
 20 21  2  0  0  0  0
 21 17  1  0  0  0  0
 21 22  1  0  0  0  0
 22 43  1  0  0  0  0
 22 44  1  0  0  0  0
 23 20  1  0  0  0  0
 23 25  1  0  0  0  0
 24 23  2  0  0  0  0
 25 26  1  0  0  0  0
 26 47  1  0  0  0  0
 26 46  1  0  0  0  0
 27 49  1  0  0  0  0
 27 48  1  0  0  0  0
 28 51  1  0  0  0  0
 29 53  1  0  0  0  0
 29 28  1  0  0  0  0
 29 30  1  0  0  0  0
 30 55  1  0  0  0  0
 31 30  1  0  0  0  0
 31 32  1  0  0  0  0
 32 33  1  0  0  0  0
 32 59  1  0  0  0  0
 34 60  1  0  0  0  0
 34 33  1  0  0  0  0
 35 62  1  0  0  0  0
 35 30  1  0  0  0  0
 35 34  1  0  0  0  0
 36  3  1  0  0  0  0
 41 19  1  0  0  0  0
 42 22  1  0  0  0  0
 45 26  1  0  0  0  0
 50 27  1  0  0  0  0
 52 28  1  0  0  0  0
 54 29  1  0  0  0  0
 56 31  1  0  0  0  0
 57 31  1  0  0  0  0
 58 32  1  0  0  0  0
 61 34  1  0  0  0  0
 63 35  1  0  0  0  0
M  END
>  <Pose>
1

>  <Score>
-5.24

$$$$
