
 OpenBabel03202210193D

 63 66  0  0  1  0  0  0  0  0999 V2000
   23.6940   70.1540   -6.4470 B   0  0  0  0  0  0  0  0  0  0  0  0
   22.3000   68.8560   -6.4870 C   0  0  0  0  0  0  0  0  0  0  0  0
   22.5720   67.5410   -6.8480 C   0  0  0  0  0  0  0  0  0  0  0  0
   21.5770   66.5910   -6.8800 C   0  0  0  0  0  0  0  0  0  0  0  0
   20.2940   66.9630   -6.5470 C   0  0  0  0  0  0  0  0  0  0  0  0
   20.0180   68.2670   -6.1860 C   0  0  0  0  0  0  0  0  0  0  0  0
   21.0080   69.2260   -6.1510 C   0  0  0  0  0  0  0  0  0  0  0  0
   21.8430   65.1920   -7.2610 C   0  0  1  0  0  0  0  0  0  0  0  0
   22.3880   65.0580   -8.5970 N   0  0  0  0  0  0  0  0  0  0  0  0
   23.7980   65.0650   -8.5650 C   0  0  0  0  0  0  0  0  0  0  0  0
   24.6450   65.2760   -9.4710 O   0  0  0  0  0  0  0  0  0  0  0  0
   24.1690   64.7570   -7.1610 C   0  0  0  0  0  0  0  0  0  0  0  0
   25.3480   64.6750   -6.7610 O   0  0  0  0  0  0  0  0  0  0  0  0
   22.9330   64.5840   -6.4210 C   0  0  0  0  0  0  0  0  0  0  0  0
   22.8050   63.9670   -5.2750 C   0  0  0  0  0  0  0  0  0  0  0  0
   21.5240   63.8180   -4.7150 O   0  0  0  0  0  0  0  0  0  0  0  0
   23.9310   63.4360   -4.5550 C   0  0  0  0  0  0  0  0  0  0  0  0
   24.1030   63.8790   -3.2350 C   0  0  0  0  0  0  0  0  0  0  0  0
   25.1690   63.4580   -2.4900 C   0  0  0  0  0  0  0  0  0  0  0  0
   26.1220   62.5840   -2.9990 C   0  0  0  0  0  0  0  0  0  0  0  0
   25.9360   62.1690   -4.2810 C   0  0  0  0  0  0  0  0  0  0  0  0
   24.8660   62.5840   -5.0470 C   0  0  0  0  0  0  0  0  0  0  0  0
   27.1680   62.2070   -2.1820 O   0  0  0  0  0  0  0  0  0  0  0  0
   27.3000   60.8640   -1.7410 C   0  0  0  0  0  0  0  0  0  0  0  0
   25.3370   63.9410   -1.0820 C   0  0  0  0  0  0  0  0  0  0  0  0
   21.6070   64.9220   -9.8370 C   0  0  0  0  0  0  0  0  0  0  0  0
   20.5030   63.9210   -9.6380 C   0  0  0  0  0  0  0  0  0  0  0  0
   20.9520   62.5560   -9.2420 C   0  0  0  0  0  0  0  0  0  0  0  0
   20.1520   61.4930   -9.8110 N   0  0  0  0  0  4  0  0  0  0  0  0
   20.2360   60.2760   -9.0280 C   0  0  0  0  0  0  0  0  0  0  0  0
   18.8980   59.9300   -8.4330 C   0  0  0  0  0  0  0  0  0  0  0  0
   17.9990   59.7150   -9.4970 O   0  0  0  0  0  0  0  0  0  0  0  0
   17.8090   60.8910  -10.2200 C   0  0  0  0  0  0  0  0  0  0  0  0
   18.7710   61.9800   -9.8690 C   0  0  0  0  0  0  0  0  0  0  0  0
   23.5720   67.2610   -7.1060 H   0  0  0  0  0  0  0  0  0  0  0  0
   19.4660   66.2610   -6.5530 H   0  0  0  0  0  0  0  0  0  0  0  0
   19.0070   68.5450   -5.9270 H   0  0  0  0  0  0  0  0  0  0  0  0
   20.7910   70.2460   -5.8710 H   0  0  0  0  0  0  0  0  0  0  0  0
   20.9240   64.5670   -7.2410 H   0  0  0  0  0  0  0  0  0  0  0  0
   23.3660   64.5730   -2.8020 H   0  0  0  0  0  0  0  0  0  0  0  0
   26.6600   61.4840   -4.7150 H   0  0  0  0  0  0  0  0  0  0  0  0
   24.7690   62.2490   -6.0920 H   0  0  0  0  0  0  0  0  0  0  0  0
   28.2850   60.6680   -1.3020 H   0  0  0  0  0  0  0  0  0  0  0  0
   27.0940   60.1320   -2.5600 H   0  0  0  0  0  0  0  0  0  0  0  0
   26.5400   60.6320   -0.9450 H   0  0  0  0  0  0  0  0  0  0  0  0
   25.3730   65.0570   -1.1580 H   0  0  0  0  0  0  0  0  0  0  0  0
   26.2840   63.6020   -0.6720 H   0  0  0  0  0  0  0  0  0  0  0  0
   24.4930   63.6210   -0.4320 H   0  0  0  0  0  0  0  0  0  0  0  0
   22.2610   64.6230  -10.6740 H   0  0  0  0  0  0  0  0  0  0  0  0
   21.1210   65.9160  -10.0330 H   0  0  0  0  0  0  0  0  0  0  0  0
   19.7880   64.2620   -8.8390 H   0  0  0  0  0  0  0  0  0  0  0  0
   19.9040   63.8010  -10.5810 H   0  0  0  0  0  0  0  0  0  0  0  0
   20.9240   62.5190   -8.1210 H   0  0  0  0  0  0  0  0  0  0  0  0
   22.0050   62.3440   -9.5100 H   0  0  0  0  0  0  0  0  0  0  0  0
   20.4010   61.2710  -10.7980 H   0  0  0  0  0  0  0  0  0  0  0  0
   20.9570   60.3850   -8.1910 H   0  0  0  0  0  0  0  0  0  0  0  0
   20.5170   59.4020   -9.6850 H   0  0  0  0  0  0  0  0  0  0  0  0
   18.9410   58.9920   -7.8740 H   0  0  0  0  0  0  0  0  0  0  0  0
   18.5150   60.7320   -7.7690 H   0  0  0  0  0  0  0  0  0  0  0  0
   17.8960   60.6950  -11.3090 H   0  0  0  0  0  0  0  0  0  0  0  0
   16.7810   61.2690   -9.9920 H   0  0  0  0  0  0  0  0  0  0  0  0
   18.7710   62.6920  -10.7470 H   0  0  0  0  0  0  0  0  0  0  0  0
   18.5010   62.5590   -8.9690 H   0  0  0  0  0  0  0  0  0  0  0  0
  2  1  1  0  0  0  0
  2  7  1  0  0  0  0
  3  2  2  0  0  0  0
  4  3  1  0  0  0  0
  4  5  2  0  0  0  0
  5  6  1  0  0  0  0
  6  7  2  0  0  0  0
  6 37  1  0  0  0  0
  7 38  1  0  0  0  0
  8 39  1  1  0  0  0
  8  4  1  0  0  0  0
  8 14  1  0  0  0  0
  9 10  1  0  0  0  0
  9  8  1  0  0  0  0
 10 12  1  0  0  0  0
 11 10  2  0  0  0  0
 12 13  2  0  0  0  0
 12 14  1  0  0  0  0
 14 15  2  0  0  0  0
 15 16  1  0  0  0  0
 15 17  1  0  0  0  0
 17 18  1  0  0  0  0
 18 40  1  0  0  0  0
 18 19  2  0  0  0  0
 19 25  1  0  0  0  0
 20 19  1  0  0  0  0
 20 23  1  0  0  0  0
 21 20  2  0  0  0  0
 22 17  2  0  0  0  0
 22 21  1  0  0  0  0
 23 24  1  0  0  0  0
 24 43  1  0  0  0  0
 24 45  1  0  0  0  0
 25 47  1  0  0  0  0
 25 48  1  0  0  0  0
 26 27  1  0  0  0  0
 26  9  1  0  0  0  0
 27 28  1  0  0  0  0
 27 51  1  0  0  0  0
 28 53  1  0  0  0  0
 29 28  1  0  0  0  0
 29 30  1  0  0  0  0
 30 31  1  0  0  0  0
 30 56  1  0  0  0  0
 31 58  1  0  0  0  0
 31 59  1  0  0  0  0
 32 31  1  0  0  0  0
 33 61  1  0  0  0  0
 33 34  1  0  0  0  0
 33 32  1  0  0  0  0
 34 29  1  0  0  0  0
 34 63  1  0  0  0  0
 35  3  1  0  0  0  0
 36  5  1  0  0  0  0
 41 21  1  0  0  0  0
 42 22  1  0  0  0  0
 44 24  1  0  0  0  0
 46 25  1  0  0  0  0
 49 26  1  0  0  0  0
 50 26  1  0  0  0  0
 52 27  1  0  0  0  0
 54 28  1  0  0  0  0
 55 29  1  0  0  0  0
 57 30  1  0  0  0  0
 60 33  1  0  0  0  0
 62 34  1  0  0  0  0
M  END
>  <Pose>
1

>  <Score>
-4.21

$$$$
