
 OpenBabel03202210193D

 57 60  0  0  1  0  0  0  0  0999 V2000
   22.0070   67.6170   -6.6510 B   0  0  0  0  0  0  0  0  0  0  0  0
   22.5810   65.8360   -6.9770 C   0  0  0  0  0  0  0  0  0  0  0  0
   22.3430   65.2570   -8.2240 C   0  0  0  0  0  0  0  0  0  0  0  0
   22.7410   63.9890   -8.4840 C   0  0  0  0  0  0  0  0  0  0  0  0
   23.3930   63.2820   -7.4680 C   0  0  0  0  0  0  0  0  0  0  0  0
   23.6230   63.8510   -6.2510 C   0  0  0  0  0  0  0  0  0  0  0  0
   23.2270   65.1390   -5.9660 C   0  0  0  0  0  0  0  0  0  0  0  0
   22.5390   63.3060   -9.7670 C   0  0  2  0  0  0  0  0  0  0  0  0
   23.0930   63.9950  -10.9170 N   0  0  0  0  0  0  0  0  0  0  0  0
   22.3960   63.4550  -12.0470 C   0  0  0  0  0  0  0  0  0  0  0  0
   22.7870   63.4020  -13.2270 O   0  0  0  0  0  0  0  0  0  0  0  0
   21.1110   62.9670  -11.5600 C   0  0  0  0  0  0  0  0  0  0  0  0
   20.1560   62.4070  -12.1760 O   0  0  0  0  0  0  0  0  0  0  0  0
   21.0890   63.2400  -10.1310 C   0  0  0  0  0  0  0  0  0  0  0  0
   20.0110   63.3460   -9.3790 C   0  0  0  0  0  0  0  0  0  0  0  0
   20.2340   63.5480   -8.0100 O   0  0  0  0  0  0  0  0  0  0  0  0
   18.6400   63.2750   -9.8630 C   0  0  0  0  0  0  0  0  0  0  0  0
   17.8530   62.1920   -9.9370 N   0  0  0  0  0  0  0  0  0  0  0  0
   16.6200   62.5210  -10.4010 C   0  0  0  0  0  0  0  0  0  0  0  0
   16.6730   63.8650  -10.6160 N   0  0  0  0  0  0  0  0  0  0  0  0
   17.8610   64.3540  -10.3080 C   0  0  0  0  0  0  0  0  0  0  0  0
   18.3970   65.7320  -10.3700 C   0  0  0  0  0  0  0  0  0  0  0  0
   15.6120   61.5880  -10.5870 C   0  0  0  0  0  0  0  0  0  0  0  0
   15.8460   60.2600  -10.2980 C   0  0  0  0  0  0  0  0  0  0  0  0
   17.1110   59.9310   -9.8250 C   0  0  0  0  0  0  0  0  0  0  0  0
   18.0770   60.8740   -9.6540 C   0  0  0  0  0  0  0  0  0  0  0  0
   24.1460   65.0120  -10.9490 C   0  0  0  0  0  0  0  0  0  0  0  0
   25.4560   64.4970  -11.4200 C   0  0  0  0  0  0  0  0  0  0  0  0
   26.0800   65.1280  -12.5960 C   0  0  0  0  0  0  0  0  0  0  0  0
   26.7750   64.2680  -13.4890 N   0  0  0  0  0  4  0  0  0  0  0  0
   25.8490   63.6600  -14.4140 C   0  0  0  0  0  0  0  0  0  0  0  0
   27.3690   63.1540  -12.7270 C   0  0  0  0  0  0  0  0  0  0  0  0
   21.8370   65.8470   -8.9510 H   0  0  0  0  0  0  0  0  0  0  0  0
   23.7140   62.2690   -7.6640 H   0  0  0  0  0  0  0  0  0  0  0  0
   24.1340   63.3020   -5.4500 H   0  0  0  0  0  0  0  0  0  0  0  0
   23.4110   65.6030   -4.9860 H   0  0  0  0  0  0  0  0  0  0  0  0
   22.9390   62.2930   -9.7690 H   0  0  0  0  0  0  0  0  0  0  0  0
   17.7130   66.3100  -11.0320 H   0  0  0  0  0  0  0  0  0  0  0  0
   19.3870   65.7480  -10.8850 H   0  0  0  0  0  0  0  0  0  0  0  0
   18.4440   66.2330   -9.3900 H   0  0  0  0  0  0  0  0  0  0  0  0
   14.6480   61.9040  -10.9590 H   0  0  0  0  0  0  0  0  0  0  0  0
   15.1020   59.4830  -10.4200 H   0  0  0  0  0  0  0  0  0  0  0  0
   17.3220   58.8830   -9.5880 H   0  0  0  0  0  0  0  0  0  0  0  0
   19.0860   60.6350   -9.2910 H   0  0  0  0  0  0  0  0  0  0  0  0
   23.7890   65.9110  -11.4960 H   0  0  0  0  0  0  0  0  0  0  0  0
   24.2940   65.3530   -9.9050 H   0  0  0  0  0  0  0  0  0  0  0  0
   26.2050   64.4240  -10.5900 H   0  0  0  0  0  0  0  0  0  0  0  0
   25.2820   63.4100  -11.6910 H   0  0  0  0  0  0  0  0  0  0  0  0
   25.2550   65.6220  -13.1800 H   0  0  0  0  0  0  0  0  0  0  0  0
   26.7260   65.9960  -12.2730 H   0  0  0  0  0  0  0  0  0  0  0  0
   27.5930   64.7080  -13.9640 H   0  0  0  0  0  0  0  0  0  0  0  0
   25.8160   62.5520  -14.3420 H   0  0  0  0  0  0  0  0  0  0  0  0
   24.8330   64.0290  -14.1710 H   0  0  0  0  0  0  0  0  0  0  0  0
   26.0350   63.9480  -15.4650 H   0  0  0  0  0  0  0  0  0  0  0  0
   28.1360   63.5370  -12.0170 H   0  0  0  0  0  0  0  0  0  0  0  0
   26.5580   62.5890  -12.2050 H   0  0  0  0  0  0  0  0  0  0  0  0
   27.8940   62.4480  -13.3950 H   0  0  0  0  0  0  0  0  0  0  0  0
  2  1  1  0  0  0  0
  2  7  1  0  0  0  0
  3  2  2  0  0  0  0
  4  3  1  0  0  0  0
  4  5  2  0  0  0  0
  5  6  1  0  0  0  0
  6  7  2  0  0  0  0
  6 35  1  0  0  0  0
  7 36  1  0  0  0  0
  8 37  1  1  0  0  0
  8  4  1  0  0  0  0
  9  8  1  0  0  0  0
 10 12  1  0  0  0  0
 10  9  1  0  0  0  0
 11 10  2  0  0  0  0
 12 14  1  0  0  0  0
 13 12  2  0  0  0  0
 14  8  1  0  0  0  0
 14 15  2  0  0  0  0
 15 16  1  0  0  0  0
 17 15  1  0  0  0  0
 18 17  1  0  0  0  0
 18 26  1  0  0  0  0
 19 18  1  0  0  0  0
 20 19  2  0  0  0  0
 20 21  1  0  0  0  0
 21 17  2  0  0  0  0
 22 21  1  0  0  0  0
 22 40  1  0  0  0  0
 23 19  1  0  0  0  0
 23 24  2  0  0  0  0
 24 25  1  0  0  0  0
 25 26  2  0  0  0  0
 25 43  1  0  0  0  0
 26 44  1  0  0  0  0
 27  9  1  0  0  0  0
 27 46  1  0  0  0  0
 28 27  1  0  0  0  0
 28 47  1  0  0  0  0
 29 50  1  0  0  0  0
 29 28  1  0  0  0  0
 30 32  1  0  0  0  0
 30 29  1  0  0  0  0
 31 52  1  0  0  0  0
 31 53  1  0  0  0  0
 31 30  1  0  0  0  0
 32 56  1  0  0  0  0
 32 55  1  0  0  0  0
 33  3  1  0  0  0  0
 34  5  1  0  0  0  0
 38 22  1  0  0  0  0
 39 22  1  0  0  0  0
 41 23  1  0  0  0  0
 42 24  1  0  0  0  0
 45 27  1  0  0  0  0
 48 28  1  0  0  0  0
 49 29  1  0  0  0  0
 51 30  1  0  0  0  0
 54 31  1  0  0  0  0
 57 32  1  0  0  0  0
M  END
>  <Pose>
1

>  <Score>
-7.20

$$$$
