
 OpenBabel03202210193D

 33 36  0  0  1  0  0  0  0  0999 V2000
   15.5990   64.1880  -10.8490 B   0  0  0  0  0  0  0  0  0  0  0  0
   17.1810   63.2170  -10.4030 C   0  0  0  0  0  0  0  0  0  0  0  0
   18.3120   63.8860  -10.0590 C   0  0  0  0  0  0  0  0  0  0  0  0
   19.5120   63.2820   -9.7170 C   0  0  0  0  0  0  0  0  0  0  0  0
   19.5270   61.9060   -9.7390 C   0  0  0  0  0  0  0  0  0  0  0  0
   18.3820   61.1880  -10.0900 C   0  0  0  0  0  0  0  0  0  0  0  0
   17.2100   61.8360  -10.4210 C   0  0  0  0  0  0  0  0  0  0  0  0
   20.6830   64.0530   -9.3600 N   0  0  0  0  0  0  0  0  0  0  0  0
   20.7300   65.1630   -8.4750 C   0  0  0  0  0  0  0  0  0  0  0  0
   19.7380   65.9430   -8.2260 O   0  0  0  0  0  0  0  0  0  0  0  0
   22.0810   65.2630   -7.9050 C   0  0  1  0  0  0  0  0  0  0  0  0
   22.1010   64.5180   -6.6070 C   0  0  1  0  0  0  0  0  0  0  0  0
   22.0040   63.1890   -7.0930 O   0  0  0  0  0  0  0  0  0  0  0  0
   23.2060   63.2120   -7.8480 C   0  0  1  0  0  0  0  0  0  0  0  0
   22.9140   64.3710   -8.7830 C   0  0  1  0  0  0  0  0  0  0  0  0
   22.0070   63.8500   -9.8260 C   0  0  0  0  0  0  0  0  0  0  0  0
   22.3600   63.3280  -10.9150 O   0  0  0  0  0  0  0  0  0  0  0  0
   24.1610   63.6180   -6.7920 C   0  0  0  0  0  0  0  0  0  0  0  0
   23.4520   64.4340   -5.9880 C   0  0  0  0  0  0  0  0  0  0  0  0
   21.0250   64.8730   -5.6520 C   0  0  0  0  0  0  0  0  0  0  0  0
   20.5600   63.7040   -5.0470 O   0  0  0  0  0  0  0  0  0  0  0  0
   18.2870   64.9820  -10.0460 H   0  0  0  0  0  0  0  0  0  0  0  0
   20.4180   61.3630   -9.4880 H   0  0  0  0  0  0  0  0  0  0  0  0
   18.3610   60.1080  -10.1150 H   0  0  0  0  0  0  0  0  0  0  0  0
   16.3040   61.3340  -10.6970 H   0  0  0  0  0  0  0  0  0  0  0  0
   22.4670   66.2960   -7.8310 H   0  0  0  0  0  0  0  0  0  0  0  0
   23.4180   62.2790   -8.3380 H   0  0  0  0  0  0  0  0  0  0  0  0
   23.8190   64.8500   -9.1810 H   0  0  0  0  0  0  0  0  0  0  0  0
   25.1990   63.3440   -6.6600 H   0  0  0  0  0  0  0  0  0  0  0  0
   23.8250   64.9110   -5.0850 H   0  0  0  0  0  0  0  0  0  0  0  0
   21.3750   65.5240   -4.8260 H   0  0  0  0  0  0  0  0  0  0  0  0
   20.1820   65.3700   -6.1390 H   0  0  0  0  0  0  0  0  0  0  0  0
   20.9800   62.9110   -5.4650 H   0  0  0  0  0  0  0  0  0  0  0  0
  1  2  1  0  0  0  0
  2  3  1  0  0  0  0
  3 22  1  0  0  0  0
  3  4  2  0  0  0  0
  4  8  1  0  0  0  0
  5  4  1  0  0  0  0
  5 23  1  0  0  0  0
  6  5  2  0  0  0  0
  7  2  2  0  0  0  0
  7  6  1  0  0  0  0
  8  9  1  0  0  0  0
  9 10  2  0  0  0  0
  9 11  1  0  0  0  0
 11 26  1  1  0  0  0
 11 12  1  0  0  0  0
 12 19  1  0  0  0  0
 12 20  1  1  0  0  0
 13 12  1  0  0  0  0
 14 27  1  6  0  0  0
 14 13  1  0  0  0  0
 14 18  1  0  0  0  0
 15 28  1  6  0  0  0
 15 11  1  0  0  0  0
 15 14  1  0  0  0  0
 16  8  1  0  0  0  0
 16 15  1  0  0  0  0
 17 16  2  0  0  0  0
 18 29  1  0  0  0  0
 18 19  2  0  0  0  0
 19 30  1  0  0  0  0
 20 21  1  0  0  0  0
 20 31  1  0  0  0  0
 24  6  1  0  0  0  0
 25  7  1  0  0  0  0
 32 20  1  0  0  0  0
 33 21  1  0  0  0  0
M  END
>  <Pose>
1

>  <Score>
-5.05

$$$$
