
 OpenBabel03202210193D

 37 40  0  0  1  0  0  0  0  0999 V2000
   14.2000   61.9020  -11.2430 B   0  0  0  0  0  0  0  0  0  0  0  0
   15.8150   61.2110  -10.5120 C   0  0  0  0  0  0  0  0  0  0  0  0
   16.9500   62.0210  -10.4110 C   0  0  0  0  0  0  0  0  0  0  0  0
   18.1280   61.5400   -9.8850 C   0  0  0  0  0  0  0  0  0  0  0  0
   18.1490   60.2340   -9.4630 C   0  0  0  0  0  0  0  0  0  0  0  0
   17.0130   59.4180   -9.5630 C   0  0  0  0  0  0  0  0  0  0  0  0
   15.8340   59.9020  -10.0910 C   0  0  0  0  0  0  0  0  0  0  0  0
   19.2590   62.3820   -9.7880 N   0  0  0  0  0  0  0  0  0  0  0  0
   19.5360   63.5320  -10.6170 C   0  0  0  0  0  0  0  0  0  0  0  0
   18.7320   64.2310  -11.2440 O   0  0  0  0  0  0  0  0  0  0  0  0
   21.0110   63.7550  -10.5970 C   0  0  1  0  0  0  0  0  0  0  0  0
   21.3860   65.0860  -10.6250 O   0  0  0  0  0  0  0  0  0  0  0  0
   22.5620   65.0570   -9.9140 N   0  0  0  0  0  0  0  0  0  0  0  0
   22.2700   64.2240   -8.7770 C   0  0  0  0  0  0  0  0  0  0  0  0
   21.3170   63.4060   -9.1550 C   0  0  0  0  0  0  0  0  0  0  0  0
   20.3790   62.3110   -8.8770 C   0  0  0  0  0  0  0  0  0  0  0  0
   20.5710   61.4810   -7.9830 O   0  0  0  0  0  0  0  0  0  0  0  0
   22.8660   64.2500   -7.4690 C   0  0  0  0  0  0  0  0  0  0  0  0
   23.5840   63.1750   -6.9510 C   0  0  0  0  0  0  0  0  0  0  0  0
   24.0350   63.4850   -5.7220 N   0  0  0  0  0  0  0  0  0  0  0  0
   23.6100   64.7140   -5.4840 N   0  0  0  0  0  0  0  0  0  0  0  0
   22.9060   65.2200   -6.4940 C   0  0  0  0  0  0  0  0  0  0  0  0
   22.2720   66.5780   -6.5950 C   0  0  0  0  0  0  0  0  0  0  0  0
   24.8340   62.6220   -4.8370 C   0  0  0  0  0  0  0  0  0  0  0  0
   16.8850   63.0260  -10.7540 H   0  0  0  0  0  0  0  0  0  0  0  0
   19.0500   59.8340   -9.0510 H   0  0  0  0  0  0  0  0  0  0  0  0
   17.0620   58.3860   -9.2190 H   0  0  0  0  0  0  0  0  0  0  0  0
   14.9600   59.2540  -10.1590 H   0  0  0  0  0  0  0  0  0  0  0  0
   21.5420   63.1030  -11.3000 H   0  0  0  0  0  0  0  0  0  0  0  0
   23.4570   65.5130  -10.1190 H   0  0  0  0  0  0  0  0  0  0  0  0
   23.7630   62.2240   -7.4490 H   0  0  0  0  0  0  0  0  0  0  0  0
   21.3640   66.6490   -5.9940 H   0  0  0  0  0  0  0  0  0  0  0  0
   22.1650   66.8590   -7.6410 H   0  0  0  0  0  0  0  0  0  0  0  0
   23.0180   67.2770   -6.1330 H   0  0  0  0  0  0  0  0  0  0  0  0
   25.9000   62.8650   -5.1120 H   0  0  0  0  0  0  0  0  0  0  0  0
   24.6110   61.5670   -5.0210 H   0  0  0  0  0  0  0  0  0  0  0  0
   24.6900   62.9690   -3.8170 H   0  0  0  0  0  0  0  0  0  0  0  0
  1  2  1  0  0  0  0
  2  3  2  0  0  0  0
  2  7  1  0  0  0  0
  3  4  1  0  0  0  0
  4  8  1  0  0  0  0
  4  5  2  0  0  0  0
  5 26  1  0  0  0  0
  6  5  1  0  0  0  0
  6 27  1  0  0  0  0
  7  6  2  0  0  0  0
  8 16  1  0  0  0  0
  9 11  1  0  0  0  0
  9  8  1  0  0  0  0
 10  9  2  0  0  0  0
 11 29  1  6  0  0  0
 11 15  1  0  0  0  0
 12 11  1  0  0  0  0
 12 13  1  0  0  0  0
 13 14  1  0  0  0  0
 14 18  1  0  0  0  0
 15 16  1  0  0  0  0
 15 14  2  0  0  0  0
 16 17  2  0  0  0  0
 18 19  2  0  0  0  0
 18 22  1  0  0  0  0
 19 20  1  0  0  0  0
 20 21  1  0  0  0  0
 20 24  1  0  0  0  0
 22 21  2  0  0  0  0
 23 22  1  0  0  0  0
 23 34  1  0  0  0  0
 23 32  1  0  0  0  0
 24 37  1  0  0  0  0
 25  3  1  0  0  0  0
 28  7  1  0  0  0  0
 30 13  1  0  0  0  0
 31 19  1  0  0  0  0
 33 23  1  0  0  0  0
 35 24  1  0  0  0  0
 36 24  1  0  0  0  0
M  END
>  <Pose>
1

>  <Score>
-6.77

$$$$
