
 OpenBabel03202210193D

 45 48  0  0  1  0  0  0  0  0999 V2000
   15.8990   64.6280  -10.5730 B   0  0  0  0  0  0  0  0  0  0  0  0
   17.2840   63.3210  -10.4340 C   0  0  0  0  0  0  0  0  0  0  0  0
   18.5970   63.6290  -10.6630 C   0  0  0  0  0  0  0  0  0  0  0  0
   19.6370   62.6860  -10.5680 C   0  0  0  0  0  0  0  0  0  0  0  0
   19.2220   61.3860  -10.2140 C   0  0  0  0  0  0  0  0  0  0  0  0
   17.9050   61.0750   -9.9830 C   0  0  0  0  0  0  0  0  0  0  0  0
   16.9290   62.0440  -10.0930 C   0  0  0  0  0  0  0  0  0  0  0  0
   20.8480   63.0390  -10.7950 O   0  0  0  0  0  0  0  0  0  0  0  0
   22.0390   63.4850  -11.0280 C   0  0  0  0  0  0  0  0  0  0  0  0
   22.6000   64.2730   -9.8330 C   0  0  0  0  0  0  0  0  0  0  0  0
   21.5790   64.4910   -8.8540 N   0  0  0  0  0  0  0  0  0  0  0  0
   21.8630   64.6490   -7.4690 C   0  0  0  0  0  0  0  0  0  0  0  0
   21.0060   64.1210   -6.6780 O   0  0  0  0  0  0  0  0  0  0  0  0
   23.0370   65.3570   -6.9190 C   0  0  0  0  0  0  0  0  0  0  0  0
   23.7910   64.6090   -5.9510 N   0  0  0  0  0  0  0  0  0  0  0  0
   24.5100   63.4150   -6.3020 C   0  0  0  0  0  0  0  0  0  0  0  0
   24.3690   62.7050   -7.3290 O   0  0  0  0  0  0  0  0  0  0  0  0
   25.4700   63.1460   -5.2320 C   0  0  1  0  0  0  0  0  0  0  0  0
   25.3020   64.2660   -4.1860 C   0  0  2  0  0  0  0  0  0  0  0  0
   25.1680   63.5870   -2.8690 C   0  0  2  0  0  0  0  0  0  0  0  0
   25.9720   62.2950   -3.1270 C   0  0  0  0  0  0  0  0  0  0  0  0
   25.1580   61.9410   -4.3870 C   0  0  1  0  0  0  0  0  0  0  0  0
   23.7780   62.1130   -3.8180 C   0  0  0  0  0  0  0  0  0  0  0  0
   23.8130   62.9840   -2.8150 C   0  0  0  0  0  0  0  0  0  0  0  0
   23.9940   64.8670   -4.5550 C   0  0  0  0  0  0  0  0  0  0  0  0
   23.2010   65.4800   -3.8190 O   0  0  0  0  0  0  0  0  0  0  0  0
   18.8830   64.6480  -10.9360 H   0  0  0  0  0  0  0  0  0  0  0  0
   20.0060   60.6600  -10.1370 H   0  0  0  0  0  0  0  0  0  0  0  0
   17.5980   60.0780   -9.7120 H   0  0  0  0  0  0  0  0  0  0  0  0
   15.9000   61.7840   -9.9080 H   0  0  0  0  0  0  0  0  0  0  0  0
   22.7810   62.6190  -11.1530 H   0  0  0  0  0  0  0  0  0  0  0  0
   22.1970   64.1190  -11.9610 H   0  0  0  0  0  0  0  0  0  0  0  0
   23.5000   63.7760   -9.4290 H   0  0  0  0  0  0  0  0  0  0  0  0
   22.9650   65.2380  -10.2940 H   0  0  0  0  0  0  0  0  0  0  0  0
   20.5850   64.5360   -9.1620 H   0  0  0  0  0  0  0  0  0  0  0  0
   22.6260   66.2720   -6.3930 H   0  0  0  0  0  0  0  0  0  0  0  0
   23.7010   65.7400   -7.7520 H   0  0  0  0  0  0  0  0  0  0  0  0
   26.5310   63.0960   -5.5780 H   0  0  0  0  0  0  0  0  0  0  0  0
   26.1300   64.9920   -4.2510 H   0  0  0  0  0  0  0  0  0  0  0  0
   25.4810   64.1190   -2.0010 H   0  0  0  0  0  0  0  0  0  0  0  0
   27.0160   62.5000   -3.3540 H   0  0  0  0  0  0  0  0  0  0  0  0
   25.7970   61.5530   -2.3380 H   0  0  0  0  0  0  0  0  0  0  0  0
   25.3800   60.9850   -4.7960 H   0  0  0  0  0  0  0  0  0  0  0  0
   22.8630   61.6280   -4.1350 H   0  0  0  0  0  0  0  0  0  0  0  0
   23.0800   63.2620   -2.0740 H   0  0  0  0  0  0  0  0  0  0  0  0
  1  2  1  0  0  0  0
  2  7  1  0  0  0  0
  3  4  1  0  0  0  0
  3  2  2  0  0  0  0
  4  5  2  0  0  0  0
  5 28  1  0  0  0  0
  5  6  1  0  0  0  0
  6 29  1  0  0  0  0
  7  6  2  0  0  0  0
  7 30  1  0  0  0  0
  8  4  1  0  0  0  0
  9  8  1  0  0  0  0
  9 10  1  0  0  0  0
 10 33  1  0  0  0  0
 10 11  1  0  0  0  0
 11 12  1  0  0  0  0
 12 14  1  0  0  0  0
 12 13  2  0  0  0  0
 14 36  1  0  0  0  0
 14 15  1  0  0  0  0
 15 25  1  0  0  0  0
 16 15  1  0  0  0  0
 16 18  1  0  0  0  0
 17 16  2  0  0  0  0
 18 38  1  6  0  0  0
 18 22  1  0  0  0  0
 18 19  1  0  0  0  0
 19 39  1  6  0  0  0
 19 20  1  0  0  0  0
 20 24  1  0  0  0  0
 20 40  1  1  0  0  0
 21 20  1  0  0  0  0
 21 42  1  0  0  0  0
 22 43  1  6  0  0  0
 22 23  1  0  0  0  0
 22 21  1  0  0  0  0
 23 24  2  0  0  0  0
 24 45  1  0  0  0  0
 25 19  1  0  0  0  0
 25 26  2  0  0  0  0
 27  3  1  0  0  0  0
 31  9  1  0  0  0  0
 32  9  1  0  0  0  0
 34 10  1  0  0  0  0
 35 11  1  0  0  0  0
 37 14  1  0  0  0  0
 41 21  1  0  0  0  0
 44 23  1  0  0  0  0
M  END
>  <Pose>
1

>  <Score>
-5.74

$$$$
