
 OpenBabel03202210193D

 50 53  0  0  0  0  0  0  0  0999 V2000
   25.1710   71.3120   -5.1900 B   0  0  0  0  0  0  0  0  0  0  0  0
   24.1560   69.7870   -5.6990 C   0  0  0  0  0  0  0  0  0  0  0  0
   22.7810   69.8830   -5.8570 C   0  0  0  0  0  0  0  0  0  0  0  0
   22.0150   68.7900   -6.2260 C   0  0  0  0  0  0  0  0  0  0  0  0
   22.5810   67.5600   -6.4520 C   0  0  0  0  0  0  0  0  0  0  0  0
   23.9530   67.4760   -6.2920 C   0  0  0  0  0  0  0  0  0  0  0  0
   24.7270   68.5540   -5.9260 C   0  0  0  0  0  0  0  0  0  0  0  0
   21.7760   66.4050   -6.8450 C   0  0  0  0  0  0  0  0  0  0  0  0
   21.2280   66.4160   -7.9590 O   0  0  0  0  0  0  0  0  0  0  0  0
   21.6160   65.2360   -5.9250 C   0  0  0  0  0  0  0  0  0  0  0  0
   22.7640   64.3750   -5.9020 N   0  0  0  0  0  0  0  0  0  0  0  0
   23.6010   64.1610   -4.8730 C   0  0  0  0  0  0  0  0  0  0  0  0
   24.5870   63.2700   -5.2510 C   0  0  0  0  0  0  0  0  0  0  0  0
   24.3100   62.9670   -6.5250 N   0  0  0  0  0  0  0  0  0  0  0  0
   23.2120   63.6220   -6.9460 C   0  0  0  0  0  0  0  0  0  0  0  0
   22.5900   63.5880   -8.2170 N   0  0  0  0  0  0  0  0  0  0  0  0
   23.3690   63.8710   -9.3780 C   0  0  0  0  0  0  0  0  0  0  0  0
   22.7940   63.4880  -10.6900 C   0  0  0  0  0  0  0  0  0  0  0  0
   21.3650   63.3980  -10.7430 N   0  0  0  0  0  0  0  0  0  0  0  0
   20.9290   62.5520   -9.6490 C   0  0  0  0  0  0  0  0  0  0  0  0
   21.1990   63.2690   -8.3250 C   0  0  0  0  0  0  0  0  0  0  0  0
   20.7070   64.6740  -10.7590 C   0  0  0  0  0  0  0  0  0  0  0  0
   25.5420   62.9070   -4.3760 N   0  0  0  0  0  0  0  0  0  0  0  0
   25.5520   63.4030   -3.1260 C   0  0  0  0  0  0  0  0  0  0  0  0
   26.4250   63.0920   -2.2780 O   0  0  0  0  0  0  0  0  0  0  0  0
   24.5870   64.2830   -2.7400 N   0  0  0  0  0  0  0  0  0  0  0  0
   23.6100   64.6750   -3.5780 C   0  0  0  0  0  0  0  0  0  0  0  0
   22.7240   65.4980   -3.1790 O   0  0  0  0  0  0  0  0  0  0  0  0
   26.5890   61.9750   -4.7420 C   0  0  0  0  0  0  0  0  0  0  0  0
   22.3290   70.8570   -5.6790 H   0  0  0  0  0  0  0  0  0  0  0  0
   20.9280   68.8990   -6.3430 H   0  0  0  0  0  0  0  0  0  0  0  0
   24.4210   66.5090   -6.4680 H   0  0  0  0  0  0  0  0  0  0  0  0
   25.7920   68.4610   -5.8070 H   0  0  0  0  0  0  0  0  0  0  0  0
   21.3230   65.5930   -4.9140 H   0  0  0  0  0  0  0  0  0  0  0  0
   20.7430   64.6650   -6.2950 H   0  0  0  0  0  0  0  0  0  0  0  0
   23.5430   64.9810   -9.3630 H   0  0  0  0  0  0  0  0  0  0  0  0
   24.3770   63.3970   -9.2900 H   0  0  0  0  0  0  0  0  0  0  0  0
   23.2270   62.5320  -11.0750 H   0  0  0  0  0  0  0  0  0  0  0  0
   23.0630   64.3040  -11.4300 H   0  0  0  0  0  0  0  0  0  0  0  0
   21.6050   61.6640   -9.6500 H   0  0  0  0  0  0  0  0  0  0  0  0
   19.8950   62.2280   -9.6920 H   0  0  0  0  0  0  0  0  0  0  0  0
   20.5410   64.1690   -8.2340 H   0  0  0  0  0  0  0  0  0  0  0  0
   20.8420   62.5650   -7.5450 H   0  0  0  0  0  0  0  0  0  0  0  0
   21.3480   65.4210  -10.2090 H   0  0  0  0  0  0  0  0  0  0  0  0
   19.6990   64.6480  -10.3020 H   0  0  0  0  0  0  0  0  0  0  0  0
   20.6030   65.0870  -11.7810 H   0  0  0  0  0  0  0  0  0  0  0  0
   24.6310   64.6450   -1.7600 H   0  0  0  0  0  0  0  0  0  0  0  0
   26.1320   60.9640   -4.7060 H   0  0  0  0  0  0  0  0  0  0  0  0
   26.8890   62.1630   -5.7910 H   0  0  0  0  0  0  0  0  0  0  0  0
   27.4460   62.0420   -4.0440 H   0  0  0  0  0  0  0  0  0  0  0  0
  2  1  1  0  0  0  0
  3  2  1  0  0  0  0
  3 30  1  0  0  0  0
  4  3  2  0  0  0  0
  5  6  2  0  0  0  0
  5  4  1  0  0  0  0
  6  7  1  0  0  0  0
  7 33  1  0  0  0  0
  7  2  2  0  0  0  0
  8  5  1  0  0  0  0
  8 10  1  0  0  0  0
  9  8  2  0  0  0  0
 10 11  1  0  0  0  0
 10 34  1  0  0  0  0
 11 12  1  0  0  0  0
 12 27  1  0  0  0  0
 13 12  2  0  0  0  0
 13 23  1  0  0  0  0
 14 13  1  0  0  0  0
 15 14  2  0  0  0  0
 15 11  1  0  0  0  0
 16 15  1  0  0  0  0
 17 36  1  0  0  0  0
 17 37  1  0  0  0  0
 17 16  1  0  0  0  0
 18 17  1  0  0  0  0
 19 18  1  0  0  0  0
 19 20  1  0  0  0  0
 20 21  1  0  0  0  0
 21 42  1  0  0  0  0
 21 16  1  0  0  0  0
 21 43  1  0  0  0  0
 22 19  1  0  0  0  0
 22 45  1  0  0  0  0
 22 44  1  0  0  0  0
 23 24  1  0  0  0  0
 24 26  1  0  0  0  0
 24 25  2  0  0  0  0
 26 47  1  0  0  0  0
 27 28  2  0  0  0  0
 27 26  1  0  0  0  0
 29 48  1  0  0  0  0
 29 23  1  0  0  0  0
 29 50  1  0  0  0  0
 31  4  1  0  0  0  0
 32  6  1  0  0  0  0
 35 10  1  0  0  0  0
 38 18  1  0  0  0  0
 39 18  1  0  0  0  0
 40 20  1  0  0  0  0
 41 20  1  0  0  0  0
 46 22  1  0  0  0  0
 49 29  1  0  0  0  0
M  END
>  <Pose>
1

>  <Score>
-6.28

$$$$
