
 OpenBabel03202210193D

 58 61  0  0  1  0  0  0  0  0999 V2000
   27.2420   63.5270  -15.0520 B   0  0  0  0  0  0  0  0  0  0  0  0
   25.8200   63.3690  -13.8050 C   0  0  0  0  0  0  0  0  0  0  0  0
   24.5420   63.6670  -14.2150 C   0  0  0  0  0  0  0  0  0  0  0  0
   23.5060   63.5570  -13.3240 C   0  0  0  0  0  0  0  0  0  0  0  0
   23.7090   63.1460  -12.0020 C   0  0  0  0  0  0  0  0  0  0  0  0
   25.0140   62.8620  -11.6550 C   0  0  0  0  0  0  0  0  0  0  0  0
   26.0840   62.9610  -12.5250 C   0  0  0  0  0  0  0  0  0  0  0  0
   22.5930   63.0310  -11.0810 C   0  0  0  0  0  0  0  0  0  0  0  0
   21.5160   62.5590  -11.4990 O   0  0  0  0  0  0  0  0  0  0  0  0
   22.7420   63.4630   -9.7030 C   0  0  2  0  0  0  0  0  0  0  0  0
   21.8560   62.7530   -8.7080 C   0  0  1  0  0  0  0  0  0  0  0  0
   21.9700   63.5980   -7.5420 N   0  0  0  0  0  0  0  0  0  0  0  0
   22.1000   64.9310   -8.0250 C   0  0  0  0  0  0  0  0  0  0  0  0
   22.0820   65.9840   -7.3150 O   0  0  0  0  0  0  0  0  0  0  0  0
   22.2570   64.8760   -9.4910 C   0  0  0  0  0  0  0  0  0  0  0  0
   22.0360   65.7840  -10.3090 O   0  0  0  0  0  0  0  0  0  0  0  0
   21.9640   63.2510   -6.1430 C   0  0  0  0  0  0  0  0  0  0  0  0
   23.2770   63.4890   -5.4610 C   0  0  0  0  0  0  0  0  0  0  0  0
   23.8190   62.3790   -4.7760 N   0  0  0  0  0  4  0  0  0  0  0  0
   23.6350   62.5990   -3.3380 C   0  0  0  0  0  0  0  0  0  0  0  0
   24.5140   63.6820   -2.8070 C   0  0  0  0  0  0  0  0  0  0  0  0
   25.5330   64.0610   -3.6460 O   0  0  0  0  0  0  0  0  0  0  0  0
   26.1420   62.9710   -4.2170 C   0  0  0  0  0  0  0  0  0  0  0  0
   25.1930   62.1000   -4.9960 C   0  0  0  0  0  0  0  0  0  0  0  0
   20.4910   62.5370   -9.1630 C   0  0  0  0  0  0  0  0  0  0  0  0
   19.7390   63.5540   -9.7680 C   0  0  0  0  0  0  0  0  0  0  0  0
   18.4460   63.3410  -10.2000 C   0  0  0  0  0  0  0  0  0  0  0  0
   17.8400   62.1070  -10.0540 C   0  0  0  0  0  0  0  0  0  0  0  0
   18.5620   61.0920   -9.4630 C   0  0  0  0  0  0  0  0  0  0  0  0
   19.8590   61.3220   -9.0330 C   0  0  0  0  0  0  0  0  0  0  0  0
   16.5400   61.8650  -10.4800 O   0  0  0  0  0  0  0  0  0  0  0  0
   17.6990   64.3400  -10.7980 O   0  0  0  0  0  0  0  0  0  0  0  0
   16.5290   64.8780  -10.2360 C   0  0  0  0  0  0  0  0  0  0  0  0
   24.3900   63.9820  -15.2300 H   0  0  0  0  0  0  0  0  0  0  0  0
   22.4840   63.7790  -13.5940 H   0  0  0  0  0  0  0  0  0  0  0  0
   25.2560   62.5340  -10.6540 H   0  0  0  0  0  0  0  0  0  0  0  0
   27.0900   62.7360  -12.2390 H   0  0  0  0  0  0  0  0  0  0  0  0
   23.7890   63.4520   -9.3330 H   0  0  0  0  0  0  0  0  0  0  0  0
   22.3210   61.7550   -8.5480 H   0  0  0  0  0  0  0  0  0  0  0  0
   21.7720   62.1440   -6.0960 H   0  0  0  0  0  0  0  0  0  0  0  0
   21.1750   63.7310   -5.5650 H   0  0  0  0  0  0  0  0  0  0  0  0
   23.2010   64.3440   -4.7270 H   0  0  0  0  0  0  0  0  0  0  0  0
   23.9910   63.8430   -6.2320 H   0  0  0  0  0  0  0  0  0  0  0  0
   23.2690   61.4990   -4.9820 H   0  0  0  0  0  0  0  0  0  0  0  0
   22.5680   62.7260   -3.0770 H   0  0  0  0  0  0  0  0  0  0  0  0
   23.9620   61.6400   -2.8500 H   0  0  0  0  0  0  0  0  0  0  0  0
   23.8800   64.5850   -2.6280 H   0  0  0  0  0  0  0  0  0  0  0  0
   24.9950   63.3910   -1.8290 H   0  0  0  0  0  0  0  0  0  0  0  0
   26.9970   63.3330   -4.8590 H   0  0  0  0  0  0  0  0  0  0  0  0
   26.6520   62.4100   -3.3860 H   0  0  0  0  0  0  0  0  0  0  0  0
   25.5150   62.1160   -6.0540 H   0  0  0  0  0  0  0  0  0  0  0  0
   25.3790   61.0410   -4.6490 H   0  0  0  0  0  0  0  0  0  0  0  0
   20.2150   64.5270   -9.8840 H   0  0  0  0  0  0  0  0  0  0  0  0
   18.0760   60.1320   -9.3530 H   0  0  0  0  0  0  0  0  0  0  0  0
   20.3740   60.5100   -8.5860 H   0  0  0  0  0  0  0  0  0  0  0  0
   15.8150   64.0770   -9.9090 H   0  0  0  0  0  0  0  0  0  0  0  0
   15.9920   65.4400  -11.0300 H   0  0  0  0  0  0  0  0  0  0  0  0
   16.7040   65.5660   -9.4010 H   0  0  0  0  0  0  0  0  0  0  0  0
  1  2  1  0  0  0  0
  2  7  1  0  0  0  0
  3  2  2  0  0  0  0
  3  4  1  0  0  0  0
  4  5  2  0  0  0  0
  5  6  1  0  0  0  0
  5  8  1  0  0  0  0
  6 36  1  0  0  0  0
  7 37  1  0  0  0  0
  7  6  2  0  0  0  0
  8 10  1  0  0  0  0
  9  8  2  0  0  0  0
 10 15  1  0  0  0  0
 10 38  1  1  0  0  0
 10 11  1  0  0  0  0
 11 39  1  1  0  0  0
 11 12  1  0  0  0  0
 12 17  1  0  0  0  0
 13 12  1  0  0  0  0
 13 14  2  0  0  0  0
 15 13  1  0  0  0  0
 16 15  2  0  0  0  0
 17 40  1  0  0  0  0
 17 41  1  0  0  0  0
 17 18  1  0  0  0  0
 18 19  1  0  0  0  0
 18 42  1  0  0  0  0
 19 20  1  0  0  0  0
 20 45  1  0  0  0  0
 20 46  1  0  0  0  0
 20 21  1  0  0  0  0
 21 47  1  0  0  0  0
 21 48  1  0  0  0  0
 22 21  1  0  0  0  0
 23 22  1  0  0  0  0
 23 50  1  0  0  0  0
 24 19  1  0  0  0  0
 24 52  1  0  0  0  0
 24 23  1  0  0  0  0
 25 30  1  0  0  0  0
 25 11  1  0  0  0  0
 26 25  2  0  0  0  0
 27 28  2  0  0  0  0
 27 26  1  0  0  0  0
 28 29  1  0  0  0  0
 29 54  1  0  0  0  0
 29 30  2  0  0  0  0
 30 55  1  0  0  0  0
 31 28  1  0  0  0  0
 32 33  1  0  0  0  0
 32 27  1  0  0  0  0
 33 56  1  0  0  0  0
 33 58  1  0  0  0  0
 34  3  1  0  0  0  0
 35  4  1  0  0  0  0
 43 18  1  0  0  0  0
 44 19  1  0  0  0  0
 49 23  1  0  0  0  0
 51 24  1  0  0  0  0
 53 26  1  0  0  0  0
 57 33  1  0  0  0  0
M  END
>  <Pose>
1

>  <Score>
-6.61

$$$$
