
 OpenBabel03202210193D

 48 51  0  0  1  0  0  0  0  0999 V2000
   12.7590   64.2040  -10.4940 B   0  0  0  0  0  0  0  0  0  0  0  0
   14.4060   63.2570  -10.4720 C   0  0  0  0  0  0  0  0  0  0  0  0
   14.5210   61.9300  -10.8320 C   0  0  0  0  0  0  0  0  0  0  0  0
   15.7330   61.2710  -10.8050 C   0  0  0  0  0  0  0  0  0  0  0  0
   16.8960   61.9040  -10.4160 C   0  0  0  0  0  0  0  0  0  0  0  0
   16.7810   63.2270  -10.0570 C   0  0  0  0  0  0  0  0  0  0  0  0
   15.5790   63.8930  -10.0810 C   0  0  0  0  0  0  0  0  0  0  0  0
   18.1860   61.2010  -10.3870 C   0  0  0  0  0  0  0  0  0  0  0  0
   18.2750   60.2390   -9.5520 O   0  0  0  0  0  0  0  0  0  0  0  0
   19.2660   61.5390  -11.2060 N   0  0  0  0  0  0  0  0  0  0  0  0
   19.6280   62.9160  -11.4250 C   0  0  2  0  0  0  0  0  0  0  0  0
   21.1000   63.0860  -11.7100 C   0  0  0  0  0  0  0  0  0  0  0  0
   21.6860   63.3550  -10.4140 N   0  0  0  0  0  0  0  0  0  0  0  0
   20.6560   63.7830   -9.4830 C   0  0  1  0  0  0  0  0  0  0  0  0
   19.3360   63.6790  -10.1630 C   0  0  0  0  0  0  0  0  0  0  0  0
   20.7830   62.9030   -8.2990 C   0  0  0  0  0  0  0  0  0  0  0  0
   19.7610   62.3530   -7.8300 O   0  0  0  0  0  0  0  0  0  0  0  0
   22.0710   62.7170   -7.7410 N   0  0  0  0  0  0  0  0  0  0  0  0
   23.2990   63.0010   -8.4460 C   0  0  1  0  0  0  0  0  0  0  0  0
   23.0010   63.2920   -9.8770 C   0  0  0  0  0  0  0  0  0  0  0  0
   23.9660   63.5010  -10.6960 O   0  0  0  0  0  0  0  0  0  0  0  0
   24.0690   64.1160   -7.7790 C   0  0  0  0  0  0  0  0  0  0  0  0
   24.3480   63.8050   -6.3480 C   0  0  0  0  0  0  0  0  0  0  0  0
   23.4340   64.1600   -5.3550 C   0  0  0  0  0  0  0  0  0  0  0  0
   23.7440   63.8470   -4.0500 C   0  0  0  0  0  0  0  0  0  0  0  0
   24.9120   63.2020   -3.6860 C   0  0  0  0  0  0  0  0  0  0  0  0
   25.7810   62.8730   -4.6990 C   0  0  0  0  0  0  0  0  0  0  0  0
   25.5260   63.1590   -6.0220 C   0  0  0  0  0  0  0  0  0  0  0  0
   13.5950   61.4350  -11.1390 H   0  0  0  0  0  0  0  0  0  0  0  0
   15.7390   60.2490  -11.0970 H   0  0  0  0  0  0  0  0  0  0  0  0
   17.6610   63.7630   -9.7470 H   0  0  0  0  0  0  0  0  0  0  0  0
   15.4960   64.9480   -9.7930 H   0  0  0  0  0  0  0  0  0  0  0  0
   19.8250   60.8030  -11.6710 H   0  0  0  0  0  0  0  0  0  0  0  0
   19.0850   63.2940  -12.3000 H   0  0  0  0  0  0  0  0  0  0  0  0
   21.4580   62.1610  -12.1710 H   0  0  0  0  0  0  0  0  0  0  0  0
   21.3290   63.9230  -12.3810 H   0  0  0  0  0  0  0  0  0  0  0  0
   20.8390   64.8440   -9.2130 H   0  0  0  0  0  0  0  0  0  0  0  0
   18.5710   63.2090   -9.5320 H   0  0  0  0  0  0  0  0  0  0  0  0
   18.9710   64.6850  -10.4490 H   0  0  0  0  0  0  0  0  0  0  0  0
   22.0990   62.3490   -6.7540 H   0  0  0  0  0  0  0  0  0  0  0  0
   23.9020   62.0690   -8.4470 H   0  0  0  0  0  0  0  0  0  0  0  0
   23.5290   65.0770   -7.8520 H   0  0  0  0  0  0  0  0  0  0  0  0
   25.0490   64.1750   -8.2920 H   0  0  0  0  0  0  0  0  0  0  0  0
   22.5280   64.6630   -5.6540 H   0  0  0  0  0  0  0  0  0  0  0  0
   23.0360   64.1180   -3.2540 H   0  0  0  0  0  0  0  0  0  0  0  0
   25.1030   62.9810   -2.6430 H   0  0  0  0  0  0  0  0  0  0  0  0
   26.7100   62.3610   -4.4250 H   0  0  0  0  0  0  0  0  0  0  0  0
   26.2140   62.8980   -6.8100 H   0  0  0  0  0  0  0  0  0  0  0  0
  1  2  1  0  0  0  0
  2  7  1  0  0  0  0
  3  4  1  0  0  0  0
  3  2  2  0  0  0  0
  4  5  2  0  0  0  0
  5  8  1  0  0  0  0
  5  6  1  0  0  0  0
  6 31  1  0  0  0  0
  7  6  2  0  0  0  0
  7 32  1  0  0  0  0
  8  9  2  0  0  0  0
 10  8  1  0  0  0  0
 11 34  1  6  0  0  0
 11 10  1  0  0  0  0
 11 15  1  0  0  0  0
 12 11  1  0  0  0  0
 12 13  1  0  0  0  0
 13 20  1  0  0  0  0
 13 14  1  0  0  0  0
 14 37  1  1  0  0  0
 14 16  1  0  0  0  0
 15 38  1  0  0  0  0
 15 14  1  0  0  0  0
 16 17  2  0  0  0  0
 16 18  1  0  0  0  0
 18 40  1  0  0  0  0
 19 41  1  1  0  0  0
 19 22  1  0  0  0  0
 19 18  1  0  0  0  0
 20 19  1  0  0  0  0
 21 20  2  0  0  0  0
 22 23  1  0  0  0  0
 23 28  2  0  0  0  0
 23 24  1  0  0  0  0
 24 25  2  0  0  0  0
 25 26  1  0  0  0  0
 25 45  1  0  0  0  0
 26 46  1  0  0  0  0
 27 47  1  0  0  0  0
 27 26  2  0  0  0  0
 28 27  1  0  0  0  0
 29  3  1  0  0  0  0
 30  4  1  0  0  0  0
 33 10  1  0  0  0  0
 35 12  1  0  0  0  0
 36 12  1  0  0  0  0
 39 15  1  0  0  0  0
 42 22  1  0  0  0  0
 43 22  1  0  0  0  0
 44 24  1  0  0  0  0
 48 28  1  0  0  0  0
M  END
>  <Pose>
1

>  <Score>
-6.93

$$$$
