
 OpenBabel03202210193D

 35 38  0  0  1  0  0  0  0  0999 V2000
   24.8240   63.3450   -3.5950 B   0  0  0  0  0  0  0  0  0  0  0  0
   23.9860   63.4910   -5.3070 C   0  0  0  0  0  0  0  0  0  0  0  0
   24.5540   62.8890   -6.3920 C   0  0  0  0  0  0  0  0  0  0  0  0
   23.9620   62.9810   -7.6350 C   0  0  0  0  0  0  0  0  0  0  0  0
   22.7770   63.6870   -7.8140 C   0  0  0  0  0  0  0  0  0  0  0  0
   22.2180   64.2880   -6.7090 C   0  0  0  0  0  0  0  0  0  0  0  0
   22.7980   64.2030   -5.4690 C   0  0  0  0  0  0  0  0  0  0  0  0
   22.1890   63.7450   -9.1300 C   0  0  0  0  0  0  0  0  0  0  0  0
   21.9030   64.8940   -9.6010 O   0  0  0  0  0  0  0  0  0  0  0  0
   21.9430   62.5620   -9.8600 N   0  0  0  0  0  0  0  0  0  0  0  0
   20.6720   62.2960  -10.4320 N   0  0  0  0  0  0  0  0  0  0  0  0
   19.5500   61.6390   -9.8550 C   0  0  0  0  0  0  0  0  0  0  0  0
   19.6330   61.0410   -8.7280 O   0  0  0  0  0  0  0  0  0  0  0  0
   18.3590   61.7660  -10.7350 C   0  0  2  0  0  0  0  0  0  0  0  0
   18.8640   62.7100  -11.8100 C   0  0  1  0  0  0  0  0  0  0  0  0
   18.2900   64.0230  -11.3230 C   0  0  1  0  0  0  0  0  0  0  0  0
   16.8380   63.5390  -11.1230 C   0  0  0  0  0  0  0  0  0  0  0  0
   17.2510   62.5140  -10.0500 C   0  0  2  0  0  0  0  0  0  0  0  0
   17.9230   63.4730   -9.1040 C   0  0  0  0  0  0  0  0  0  0  0  0
   18.6370   64.2650   -9.8950 C   0  0  0  0  0  0  0  0  0  0  0  0
   20.3360   62.6830  -11.7490 C   0  0  0  0  0  0  0  0  0  0  0  0
   21.1100   62.9540  -12.6920 O   0  0  0  0  0  0  0  0  0  0  0  0
   25.4630   62.3400   -6.2910 H   0  0  0  0  0  0  0  0  0  0  0  0
   24.4520   62.4920   -8.4690 H   0  0  0  0  0  0  0  0  0  0  0  0
   21.2830   64.8490   -6.8300 H   0  0  0  0  0  0  0  0  0  0  0  0
   22.3760   64.6690   -4.5870 H   0  0  0  0  0  0  0  0  0  0  0  0
   22.6970   61.8630   -9.9830 H   0  0  0  0  0  0  0  0  0  0  0  0
   18.0400   60.7860  -11.1370 H   0  0  0  0  0  0  0  0  0  0  0  0
   18.4400   62.4450  -12.7740 H   0  0  0  0  0  0  0  0  0  0  0  0
   18.3760   64.8490  -11.9880 H   0  0  0  0  0  0  0  0  0  0  0  0
   16.2180   64.3410  -10.7110 H   0  0  0  0  0  0  0  0  0  0  0  0
   16.4620   63.0680  -12.0270 H   0  0  0  0  0  0  0  0  0  0  0  0
   16.4440   61.9560   -9.6470 H   0  0  0  0  0  0  0  0  0  0  0  0
   17.7870   63.4380   -8.0420 H   0  0  0  0  0  0  0  0  0  0  0  0
   19.3630   64.9780   -9.5370 H   0  0  0  0  0  0  0  0  0  0  0  0
  2  1  1  0  0  0  0
  3 23  1  0  0  0  0
  3  2  2  0  0  0  0
  4  3  1  0  0  0  0
  5  4  2  0  0  0  0
  5  6  1  0  0  0  0
  6  7  2  0  0  0  0
  7  2  1  0  0  0  0
  7 26  1  0  0  0  0
  8  5  1  0  0  0  0
  9  8  2  0  0  0  0
 10  8  1  0  0  0  0
 11 10  1  0  0  0  0
 11 12  1  0  0  0  0
 12 13  2  0  0  0  0
 14 28  1  6  0  0  0
 14 18  1  0  0  0  0
 14 12  1  0  0  0  0
 15 29  1  6  0  0  0
 15 21  1  0  0  0  0
 15 16  1  0  0  0  0
 15 14  1  0  0  0  0
 16 30  1  6  0  0  0
 16 17  1  0  0  0  0
 16 20  1  0  0  0  0
 17 31  1  0  0  0  0
 17 18  1  0  0  0  0
 18 33  1  1  0  0  0
 18 19  1  0  0  0  0
 19 34  1  0  0  0  0
 20 35  1  0  0  0  0
 20 19  2  0  0  0  0
 21 11  1  0  0  0  0
 22 21  2  0  0  0  0
 24  4  1  0  0  0  0
 25  6  1  0  0  0  0
 27 10  1  0  0  0  0
 32 17  1  0  0  0  0
M  END
>  <Pose>
1

>  <Score>
-5.98

$$$$
