
 OpenBabel03202210193D

 59 62  0  0  1  0  0  0  0  0999 V2000
   26.8560   60.2060   -2.4090 B   0  0  0  0  0  0  0  0  0  0  0  0
   25.7390   61.5050   -3.2590 C   0  0  0  0  0  0  0  0  0  0  0  0
   24.4030   61.5780   -2.9280 C   0  0  0  0  0  0  0  0  0  0  0  0
   23.5830   62.5100   -3.5290 C   0  0  0  0  0  0  0  0  0  0  0  0
   24.0420   63.4190   -4.4900 C   0  0  0  0  0  0  0  0  0  0  0  0
   25.3760   63.3300   -4.8080 C   0  0  0  0  0  0  0  0  0  0  0  0
   26.2140   62.3860   -4.2010 C   0  0  0  0  0  0  0  0  0  0  0  0
   23.1170   64.3540   -5.1150 C   0  0  0  0  0  0  0  0  0  0  0  0
   22.8740   64.3900   -6.4070 C   0  0  0  0  0  0  0  0  0  0  0  0
   21.9240   65.3320   -7.1010 C   0  0  2  0  0  0  0  0  0  0  0  0
   21.9230   64.9520   -8.4710 N   0  0  0  0  0  0  0  0  0  0  0  0
   22.9060   63.9270   -8.7280 C   0  0  0  0  0  0  0  0  0  0  0  0
   23.2220   63.4100   -9.8080 O   0  0  0  0  0  0  0  0  0  0  0  0
   23.5050   63.5760   -7.4200 C   0  0  0  0  0  0  0  0  0  0  0  0
   24.4190   62.7060   -7.2480 O   0  0  0  0  0  0  0  0  0  0  0  0
   21.1010   65.4670   -9.5330 C   0  0  0  0  0  0  0  0  0  0  0  0
   20.4520   64.4390  -10.3930 C   0  0  0  0  0  0  0  0  0  0  0  0
   19.0240   64.3750  -10.3040 N   0  0  0  0  0  4  0  0  0  0  0  0
   18.5350   63.3840   -9.3670 C   0  0  0  0  0  0  0  0  0  0  0  0
   17.0380   63.5810   -9.2500 C   0  0  0  0  0  0  0  0  0  0  0  0
   16.5030   63.2100  -10.5070 O   0  0  0  0  0  0  0  0  0  0  0  0
   16.9240   64.1960  -11.4030 C   0  0  0  0  0  0  0  0  0  0  0  0
   18.4210   64.0240  -11.6050 C   0  0  0  0  0  0  0  0  0  0  0  0
   22.5310   66.6850   -6.9060 C   0  0  0  0  0  0  0  0  0  0  0  0
   21.6990   67.7400   -6.7070 C   0  0  0  0  0  0  0  0  0  0  0  0
   22.2040   69.0110   -6.5270 C   0  0  0  0  0  0  0  0  0  0  0  0
   23.5570   69.2170   -6.5470 C   0  0  0  0  0  0  0  0  0  0  0  0
   24.3950   68.1500   -6.7470 C   0  0  0  0  0  0  0  0  0  0  0  0
   23.8930   66.8720   -6.9280 C   0  0  0  0  0  0  0  0  0  0  0  0
   24.1060   70.5620   -6.3600 C   0  0  0  0  0  0  0  0  0  0  0  0
   24.7210   71.1160   -7.3070 O   0  0  0  0  0  0  0  0  0  0  0  0
   23.9870   71.2620   -5.1910 O   0  0  0  0  0  0  0  0  0  0  0  0
   24.4030   70.7530   -3.9440 C   0  0  0  0  0  0  0  0  0  0  0  0
   22.4140   65.3000   -4.3340 O   0  0  0  0  0  0  0  0  0  0  0  0
   24.0210   60.8770   -2.1780 H   0  0  0  0  0  0  0  0  0  0  0  0
   22.5450   62.5500   -3.2580 H   0  0  0  0  0  0  0  0  0  0  0  0
   25.7890   63.9990   -5.5720 H   0  0  0  0  0  0  0  0  0  0  0  0
   27.2590   62.3400   -4.4710 H   0  0  0  0  0  0  0  0  0  0  0  0
   20.9700   65.2310   -6.5640 H   0  0  0  0  0  0  0  0  0  0  0  0
   20.3060   66.1640   -9.1340 H   0  0  0  0  0  0  0  0  0  0  0  0
   21.7060   66.1230  -10.2230 H   0  0  0  0  0  0  0  0  0  0  0  0
   20.8290   63.4340  -10.0390 H   0  0  0  0  0  0  0  0  0  0  0  0
   20.7720   64.4880  -11.4530 H   0  0  0  0  0  0  0  0  0  0  0  0
   18.5990   65.3180  -10.0980 H   0  0  0  0  0  0  0  0  0  0  0  0
   19.0370   63.4230   -8.3800 H   0  0  0  0  0  0  0  0  0  0  0  0
   18.6850   62.3730   -9.8220 H   0  0  0  0  0  0  0  0  0  0  0  0
   16.6250   62.9020   -8.4730 H   0  0  0  0  0  0  0  0  0  0  0  0
   16.7930   64.6590   -9.0400 H   0  0  0  0  0  0  0  0  0  0  0  0
   16.8000   65.1840  -10.8800 H   0  0  0  0  0  0  0  0  0  0  0  0
   16.3730   64.1440  -12.3610 H   0  0  0  0  0  0  0  0  0  0  0  0
   18.6910   62.9530  -11.7930 H   0  0  0  0  0  0  0  0  0  0  0  0
   18.8050   64.6790  -12.4130 H   0  0  0  0  0  0  0  0  0  0  0  0
   20.6380   67.6240   -6.6850 H   0  0  0  0  0  0  0  0  0  0  0  0
   21.5400   69.8310   -6.3740 H   0  0  0  0  0  0  0  0  0  0  0  0
   25.4760   68.3430   -6.7580 H   0  0  0  0  0  0  0  0  0  0  0  0
   24.5450   66.0470   -7.0830 H   0  0  0  0  0  0  0  0  0  0  0  0
   23.5810   70.3710   -3.3360 H   0  0  0  0  0  0  0  0  0  0  0  0
   25.1590   69.9390   -4.0800 H   0  0  0  0  0  0  0  0  0  0  0  0
   24.9100   71.5620   -3.3470 H   0  0  0  0  0  0  0  0  0  0  0  0
  2  3  1  0  0  0  0
  2  1  1  0  0  0  0
  3 35  1  0  0  0  0
  4 36  1  0  0  0  0
  4  3  2  0  0  0  0
  5  4  1  0  0  0  0
  6  5  2  0  0  0  0
  6  7  1  0  0  0  0
  7  2  2  0  0  0  0
  8  5  1  0  0  0  0
  8 34  1  0  0  0  0
  9  8  2  0  0  0  0
 10 24  1  0  0  0  0
 10 39  1  1  0  0  0
 10  9  1  0  0  0  0
 11 10  1  0  0  0  0
 12 11  1  0  0  0  0
 12 14  1  0  0  0  0
 13 12  2  0  0  0  0
 14 15  2  0  0  0  0
 14  9  1  0  0  0  0
 16 40  1  0  0  0  0
 16 11  1  0  0  0  0
 17 18  1  0  0  0  0
 17 42  1  0  0  0  0
 17 16  1  0  0  0  0
 18 44  1  0  0  0  0
 18 19  1  0  0  0  0
 19 20  1  0  0  0  0
 19 45  1  0  0  0  0
 20 48  1  0  0  0  0
 20 47  1  0  0  0  0
 21 20  1  0  0  0  0
 22 49  1  0  0  0  0
 22 21  1  0  0  0  0
 23 22  1  0  0  0  0
 23 18  1  0  0  0  0
 24 25  1  0  0  0  0
 25 53  1  0  0  0  0
 25 26  2  0  0  0  0
 26 54  1  0  0  0  0
 27 26  1  0  0  0  0
 27 30  1  0  0  0  0
 28 27  2  0  0  0  0
 29 24  2  0  0  0  0
 29 28  1  0  0  0  0
 30 32  1  0  0  0  0
 31 30  2  0  0  0  0
 32 33  1  0  0  0  0
 33 59  1  0  0  0  0
 33 57  1  0  0  0  0
 37  6  1  0  0  0  0
 38  7  1  0  0  0  0
 41 16  1  0  0  0  0
 43 17  1  0  0  0  0
 46 19  1  0  0  0  0
 50 22  1  0  0  0  0
 51 23  1  0  0  0  0
 52 23  1  0  0  0  0
 55 28  1  0  0  0  0
 56 29  1  0  0  0  0
 58 33  1  0  0  0  0
M  END
>  <Pose>
1

>  <Score>
-6.17

$$$$
