
 OpenBabel03202210193D

 55 58  0  0  0  0  0  0  0  0999 V2000
   25.0450   63.1820   -3.3060 B   0  0  0  0  0  0  0  0  0  0  0  0
   24.1800   63.4390   -5.0030 C   0  0  0  0  0  0  0  0  0  0  0  0
   23.0070   64.1600   -5.0930 C   0  0  0  0  0  0  0  0  0  0  0  0
   22.3800   64.3460   -6.3150 C   0  0  0  0  0  0  0  0  0  0  0  0
   22.9210   63.8100   -7.4560 C   0  0  0  0  0  0  0  0  0  0  0  0
   24.0930   63.0880   -7.3850 C   0  0  0  0  0  0  0  0  0  0  0  0
   24.7060   62.9120   -6.1610 C   0  0  0  0  0  0  0  0  0  0  0  0
   22.2090   64.0220   -8.7310 C   0  0  0  0  0  0  0  0  0  0  0  0
   22.4420   63.0190   -9.7160 N   0  0  0  0  0  0  0  0  0  0  0  0
   22.1820   61.6970   -9.3270 C   0  0  0  0  0  0  0  0  0  0  0  0
   21.0080   61.0850  -10.0830 C   0  0  0  0  0  0  0  0  0  0  0  0
   20.4430   62.1130  -10.8850 N   0  0  0  0  0  0  0  0  0  0  0  0
   21.3090   62.7020  -11.8780 C   0  0  0  0  0  0  0  0  0  0  0  0
   22.4060   63.4020  -11.0670 C   0  0  0  0  0  0  0  0  0  0  0  0
   19.1240   62.5780  -10.7420 C   0  0  0  0  0  0  0  0  0  0  0  0
   17.9860   61.8640  -10.7490 N   0  0  0  0  0  0  0  0  0  0  0  0
   16.9320   62.7050  -10.6290 C   0  0  0  0  0  0  0  0  0  0  0  0
   17.4070   63.9950  -10.5410 C   0  0  0  0  0  0  0  0  0  0  0  0
   18.7340   63.8900  -10.6100 N   0  0  0  0  0  0  0  0  0  0  0  0
   16.5370   65.0150  -10.4160 N   0  0  0  0  0  0  0  0  0  0  0  0
   15.2130   64.8140  -10.3750 C   0  0  0  0  0  0  0  0  0  0  0  0
   14.4210   65.8040  -10.2580 O   0  0  0  0  0  0  0  0  0  0  0  0
   14.7290   63.5630  -10.4600 N   0  0  0  0  0  0  0  0  0  0  0  0
   15.5670   62.5250  -10.5850 C   0  0  0  0  0  0  0  0  0  0  0  0
   15.1130   61.3570  -10.6650 O   0  0  0  0  0  0  0  0  0  0  0  0
   17.0790   66.3750  -10.3300 C   0  0  0  0  0  0  0  0  0  0  0  0
   17.8260   60.4360  -10.8190 C   0  0  0  0  0  0  0  0  0  0  0  0
   17.5770   59.8240   -9.4590 C   0  0  0  0  0  0  0  0  0  0  0  0
   16.8390   58.6590   -9.4950 O   0  0  0  0  0  0  0  0  0  0  0  0
   17.7740   57.6170   -9.6950 C   0  0  0  0  0  0  0  0  0  0  0  0
   22.5950   64.5710   -4.1920 H   0  0  0  0  0  0  0  0  0  0  0  0
   21.4630   64.9250   -6.3000 H   0  0  0  0  0  0  0  0  0  0  0  0
   24.5540   62.6480   -8.2830 H   0  0  0  0  0  0  0  0  0  0  0  0
   25.6320   62.3340   -6.1280 H   0  0  0  0  0  0  0  0  0  0  0  0
   22.3780   65.0420   -9.1210 H   0  0  0  0  0  0  0  0  0  0  0  0
   21.1070   63.9650   -8.4800 H   0  0  0  0  0  0  0  0  0  0  0  0
   21.8260   61.7180   -8.2470 H   0  0  0  0  0  0  0  0  0  0  0  0
   23.0620   61.0060   -9.3120 H   0  0  0  0  0  0  0  0  0  0  0  0
   21.4740   60.2670  -10.7210 H   0  0  0  0  0  0  0  0  0  0  0  0
   20.3260   60.5410   -9.4150 H   0  0  0  0  0  0  0  0  0  0  0  0
   20.7580   63.4040  -12.5070 H   0  0  0  0  0  0  0  0  0  0  0  0
   21.8060   61.9180  -12.5200 H   0  0  0  0  0  0  0  0  0  0  0  0
   22.1640   64.4870  -11.1190 H   0  0  0  0  0  0  0  0  0  0  0  0
   23.3770   63.3000  -11.5930 H   0  0  0  0  0  0  0  0  0  0  0  0
   13.6820   63.3970  -10.4280 H   0  0  0  0  0  0  0  0  0  0  0  0
   17.3110   66.6940  -11.3730 H   0  0  0  0  0  0  0  0  0  0  0  0
   16.4120   67.0660   -9.8210 H   0  0  0  0  0  0  0  0  0  0  0  0
   18.0620   66.2900   -9.8070 H   0  0  0  0  0  0  0  0  0  0  0  0
   17.0020   60.1070  -11.4840 H   0  0  0  0  0  0  0  0  0  0  0  0
   18.7540   59.9540  -11.2500 H   0  0  0  0  0  0  0  0  0  0  0  0
   17.1220   60.5930   -8.7840 H   0  0  0  0  0  0  0  0  0  0  0  0
   18.5440   59.5770   -8.9880 H   0  0  0  0  0  0  0  0  0  0  0  0
   18.4880   57.6330   -8.8260 H   0  0  0  0  0  0  0  0  0  0  0  0
   18.3980   57.7800  -10.5830 H   0  0  0  0  0  0  0  0  0  0  0  0
   17.2270   56.6560   -9.7290 H   0  0  0  0  0  0  0  0  0  0  0  0
  2  1  1  0  0  0  0
  3  2  1  0  0  0  0
  3 31  1  0  0  0  0
  4 32  1  0  0  0  0
  4  3  2  0  0  0  0
  5  6  2  0  0  0  0
  5  4  1  0  0  0  0
  6  7  1  0  0  0  0
  7 34  1  0  0  0  0
  7  2  2  0  0  0  0
  8 36  1  0  0  0  0
  8  5  1  0  0  0  0
  9 10  1  0  0  0  0
  9  8  1  0  0  0  0
 10 38  1  0  0  0  0
 10 37  1  0  0  0  0
 11 40  1  0  0  0  0
 11 10  1  0  0  0  0
 12 15  1  0  0  0  0
 12 11  1  0  0  0  0
 13 14  1  0  0  0  0
 13 12  1  0  0  0  0
 14  9  1  0  0  0  0
 15 19  2  0  0  0  0
 16 15  1  0  0  0  0
 16 17  1  0  0  0  0
 17 24  1  0  0  0  0
 17 18  2  0  0  0  0
 18 20  1  0  0  0  0
 19 18  1  0  0  0  0
 20 21  1  0  0  0  0
 20 26  1  0  0  0  0
 21 22  2  0  0  0  0
 23 45  1  0  0  0  0
 23 21  1  0  0  0  0
 24 23  1  0  0  0  0
 25 24  2  0  0  0  0
 26 47  1  0  0  0  0
 26 48  1  0  0  0  0
 27 16  1  0  0  0  0
 27 28  1  0  0  0  0
 28 52  1  0  0  0  0
 28 51  1  0  0  0  0
 29 28  1  0  0  0  0
 30 29  1  0  0  0  0
 30 53  1  0  0  0  0
 33  6  1  0  0  0  0
 35  8  1  0  0  0  0
 39 11  1  0  0  0  0
 41 13  1  0  0  0  0
 42 13  1  0  0  0  0
 43 14  1  0  0  0  0
 44 14  1  0  0  0  0
 46 26  1  0  0  0  0
 49 27  1  0  0  0  0
 50 27  1  0  0  0  0
 54 30  1  0  0  0  0
 55 30  1  0  0  0  0
M  END
>  <Pose>
1

>  <Score>
-5.46

$$$$
