
 OpenBabel03202210193D

 58 62  0  0  1  0  0  0  0  0999 V2000
   25.9890   63.2730  -15.3320 B   0  0  0  0  0  0  0  0  0  0  0  0
   25.4630   63.3150  -13.4790 C   0  0  0  0  0  0  0  0  0  0  0  0
   26.3810   63.2660  -12.4760 C   0  0  0  0  0  0  0  0  0  0  0  0
   26.0030   63.2960  -11.1640 C   0  0  0  0  0  0  0  0  0  0  0  0
   24.6780   63.3760  -10.7850 C   0  0  0  0  0  0  0  0  0  0  0  0
   23.7640   63.4250  -11.7810 C   0  0  0  0  0  0  0  0  0  0  0  0
   24.1400   63.3940  -13.1470 C   0  0  0  0  0  0  0  0  0  0  0  0
   24.3610   63.3920   -9.3730 C   0  0  0  0  0  0  0  0  0  0  0  0
   25.3220   63.1600   -8.3750 C   0  0  0  0  0  0  0  0  0  0  0  0
   24.6940   63.2650   -7.2100 N   0  0  0  0  0  0  0  0  0  0  0  0
   24.9710   63.1790   -5.8730 C   0  0  0  0  0  0  0  0  0  0  0  0
   23.7790   63.4250   -5.2400 C   0  0  0  0  0  0  0  0  0  0  0  0
   22.8700   63.6400   -6.1790 N   0  0  0  0  0  0  0  0  0  0  0  0
   23.4300   63.5430   -7.4200 C   0  0  1  0  0  0  0  0  0  0  0  0
   23.1950   63.6270   -8.7630 N   0  0  0  0  0  0  0  0  0  0  0  0
   21.8940   63.9360   -9.2720 C   0  0  0  0  0  0  0  0  0  0  0  0
   21.0190   62.8040   -9.6350 C   0  0  0  0  0  0  0  0  0  0  0  0
   19.5460   62.9970   -9.6020 C   0  0  0  0  0  0  0  0  0  0  0  0
   18.8340   61.7400   -9.6730 N   0  0  0  0  0  4  0  0  0  0  0  0
   17.4220   61.9000   -9.8590 C   0  0  0  0  0  0  0  0  0  0  0  0
   17.0160   63.1210  -10.6340 C   0  0  0  0  0  0  0  0  0  0  0  0
   15.5360   63.3640  -10.3020 C   0  0  0  0  0  0  0  0  0  0  0  0
   14.7470   62.1920  -10.7710 C   0  0  0  0  0  0  0  0  0  0  0  0
   15.2620   60.8660  -10.2610 C   0  0  0  0  0  0  0  0  0  0  0  0
   16.7590   60.7200  -10.5580 C   0  0  0  0  0  0  0  0  0  0  0  0
   23.6800   63.4200   -3.8460 C   0  0  0  0  0  0  0  0  0  0  0  0
   24.7990   63.1610   -3.0840 C   0  0  0  0  0  0  0  0  0  0  0  0
   25.9820   62.9170   -3.7430 C   0  0  0  0  0  0  0  0  0  0  0  0
   26.0890   62.9210   -5.1290 C   0  0  0  0  0  0  0  0  0  0  0  0
   27.4510   63.2010  -12.7280 H   0  0  0  0  0  0  0  0  0  0  0  0
   26.8020   63.2560  -10.3960 H   0  0  0  0  0  0  0  0  0  0  0  0
   22.7200   63.4820  -11.6530 H   0  0  0  0  0  0  0  0  0  0  0  0
   23.4060   63.4330  -13.9330 H   0  0  0  0  0  0  0  0  0  0  0  0
   26.3750   62.9360   -8.5220 H   0  0  0  0  0  0  0  0  0  0  0  0
   21.8800   63.8620   -5.9640 H   0  0  0  0  0  0  0  0  0  0  0  0
   21.9170   64.7070  -10.0370 H   0  0  0  0  0  0  0  0  0  0  0  0
   21.3260   64.4460   -8.3900 H   0  0  0  0  0  0  0  0  0  0  0  0
   21.2590   62.5870  -10.7310 H   0  0  0  0  0  0  0  0  0  0  0  0
   21.3130   61.8180   -9.1590 H   0  0  0  0  0  0  0  0  0  0  0  0
   19.1600   63.6350  -10.4230 H   0  0  0  0  0  0  0  0  0  0  0  0
   19.3040   63.4300   -8.5900 H   0  0  0  0  0  0  0  0  0  0  0  0
   19.2260   61.0300  -10.2850 H   0  0  0  0  0  0  0  0  0  0  0  0
   18.9330   61.3050   -8.6840 H   0  0  0  0  0  0  0  0  0  0  0  0
   16.8850   61.9630   -8.8640 H   0  0  0  0  0  0  0  0  0  0  0  0
   17.6160   64.0080  -10.4310 H   0  0  0  0  0  0  0  0  0  0  0  0
   17.0200   62.8660  -11.7320 H   0  0  0  0  0  0  0  0  0  0  0  0
   15.4380   63.5100   -9.1960 H   0  0  0  0  0  0  0  0  0  0  0  0
   15.1870   64.2570  -10.8500 H   0  0  0  0  0  0  0  0  0  0  0  0
   13.7090   62.3000  -10.3940 H   0  0  0  0  0  0  0  0  0  0  0  0
   14.7200   62.1900  -11.8760 H   0  0  0  0  0  0  0  0  0  0  0  0
   14.7200   60.0750  -10.8030 H   0  0  0  0  0  0  0  0  0  0  0  0
   15.1090   60.8260   -9.1810 H   0  0  0  0  0  0  0  0  0  0  0  0
   16.9060   60.7970  -11.6650 H   0  0  0  0  0  0  0  0  0  0  0  0
   17.1170   59.7950  -10.1100 H   0  0  0  0  0  0  0  0  0  0  0  0
   22.7500   63.6110   -3.3410 H   0  0  0  0  0  0  0  0  0  0  0  0
   24.7610   63.1480   -1.9850 H   0  0  0  0  0  0  0  0  0  0  0  0
   26.8550   62.7160   -3.1490 H   0  0  0  0  0  0  0  0  0  0  0  0
   27.0120   62.7310   -5.6390 H   0  0  0  0  0  0  0  0  0  0  0  0
  1  2  1  0  0  0  0
  2  7  2  0  0  0  0
  2  3  1  0  0  0  0
  3  4  2  0  0  0  0
  4  5  1  0  0  0  0
  4 31  1  0  0  0  0
  5  8  1  0  0  0  0
  6 32  1  0  0  0  0
  6  5  2  0  0  0  0
  7  6  1  0  0  0  0
  8 15  1  0  0  0  0
  8  9  2  0  0  0  0
  9 10  1  0  0  0  0
 10 11  1  0  0  0  0
 11 12  2  0  0  0  0
 11 29  1  0  0  0  0
 12 26  1  0  0  0  0
 13 35  1  0  0  0  0
 13 12  1  0  0  0  0
 14 15  1  1  0  0  0
 14 10  1  0  0  0  0
 14 13  1  0  0  0  0
 16 15  1  0  0  0  0
 16 37  1  0  0  0  0
 17 18  1  0  0  0  0
 17 16  1  0  0  0  0
 17 39  1  0  0  0  0
 18 41  1  0  0  0  0
 19 18  1  0  0  0  0
 19 43  1  0  0  0  0
 20 19  1  0  0  0  0
 20 44  1  0  0  0  0
 21 45  1  0  0  0  0
 21 22  1  0  0  0  0
 21 20  1  0  0  0  0
 22 47  1  0  0  0  0
 23 49  1  0  0  0  0
 23 22  1  0  0  0  0
 23 24  1  0  0  0  0
 24 52  1  0  0  0  0
 25 24  1  0  0  0  0
 25 54  1  0  0  0  0
 25 20  1  0  0  0  0
 26 55  1  0  0  0  0
 26 27  2  0  0  0  0
 27 56  1  0  0  0  0
 28 57  1  0  0  0  0
 28 27  1  0  0  0  0
 29 28  2  0  0  0  0
 30  3  1  0  0  0  0
 33  7  1  0  0  0  0
 34  9  1  0  0  0  0
 36 16  1  0  0  0  0
 38 17  1  0  0  0  0
 40 18  1  0  0  0  0
 42 19  1  0  0  0  0
 46 21  1  0  0  0  0
 48 22  1  0  0  0  0
 50 23  1  0  0  0  0
 51 24  1  0  0  0  0
 53 25  1  0  0  0  0
 58 29  1  0  0  0  0
M  END
>  <Pose>
1

>  <Score>
-6.05

$$$$
