
 OpenBabel03202210193D

 63 66  0  0  1  0  0  0  0  0999 V2000
   25.2360   63.3510  -14.0500 B   0  0  0  0  0  0  0  0  0  0  0  0
   23.9780   63.8250  -12.6780 C   0  0  0  0  0  0  0  0  0  0  0  0
   23.7720   62.9690  -11.6190 C   0  0  0  0  0  0  0  0  0  0  0  0
   22.8640   63.2910  -10.6060 C   0  0  0  0  0  0  0  0  0  0  0  0
   22.1510   64.4710  -10.6400 C   0  0  0  0  0  0  0  0  0  0  0  0
   22.3860   65.2990  -11.7140 C   0  0  0  0  0  0  0  0  0  0  0  0
   23.2760   64.9970  -12.7180 C   0  0  0  0  0  0  0  0  0  0  0  0
   21.2020   64.8060   -9.5760 C   0  0  2  0  0  0  0  0  0  0  0  0
   21.7610   64.6930   -8.2560 N   0  0  0  0  0  0  0  0  0  0  0  0
   20.9880   63.8270   -7.4480 C   0  0  0  0  0  0  0  0  0  0  0  0
   21.1730   63.5140   -6.2310 O   0  0  0  0  0  0  0  0  0  0  0  0
   19.8650   63.2940   -8.2510 C   0  0  0  0  0  0  0  0  0  0  0  0
   18.9920   62.5010   -7.8330 O   0  0  0  0  0  0  0  0  0  0  0  0
   20.0170   63.8860   -9.5630 C   0  0  0  0  0  0  0  0  0  0  0  0
   19.1800   63.6570  -10.5510 C   0  0  0  0  0  0  0  0  0  0  0  0
   19.3950   64.3440  -11.7640 O   0  0  0  0  0  0  0  0  0  0  0  0
   18.0560   62.7560  -10.5220 C   0  0  0  0  0  0  0  0  0  0  0  0
   18.0800   61.4400  -10.2180 C   0  0  0  0  0  0  0  0  0  0  0  0
   16.9180   60.6970  -10.1940 C   0  0  0  0  0  0  0  0  0  0  0  0
   15.6770   61.2290  -10.4700 C   0  0  0  0  0  0  0  0  0  0  0  0
   15.6790   62.5750  -10.7780 C   0  0  0  0  0  0  0  0  0  0  0  0
   16.8120   63.3400  -10.8120 C   0  0  0  0  0  0  0  0  0  0  0  0
   14.5100   60.4750  -10.4440 O   0  0  0  0  0  0  0  0  0  0  0  0
   13.5680   60.5850  -11.5010 C   0  0  0  0  0  0  0  0  0  0  0  0
   16.9980   59.2390   -9.8500 C   0  0  0  0  0  0  0  0  0  0  0  0
   22.9590   65.3930   -7.8310 C   0  0  0  0  0  0  0  0  0  0  0  0
   23.3650   65.0790   -6.4180 C   0  0  0  0  0  0  0  0  0  0  0  0
   24.1970   63.8360   -6.3420 C   0  0  0  0  0  0  0  0  0  0  0  0
   24.8000   63.6340   -5.0570 N   0  0  0  0  0  4  0  0  0  0  0  0
   25.7120   62.5090   -5.0200 C   0  0  0  0  0  0  0  0  0  0  0  0
   26.4450   62.5800   -3.6770 C   0  0  0  0  0  0  0  0  0  0  0  0
   25.8480   63.5110   -2.8400 O   0  0  0  0  0  0  0  0  0  0  0  0
   24.4660   63.2480   -2.7240 C   0  0  0  0  0  0  0  0  0  0  0  0
   23.7780   63.5370   -4.0530 C   0  0  0  0  0  0  0  0  0  0  0  0
   24.3250   62.0410  -11.5790 H   0  0  0  0  0  0  0  0  0  0  0  0
   22.7000   62.6230   -9.7750 H   0  0  0  0  0  0  0  0  0  0  0  0
   21.8100   66.2390  -11.7300 H   0  0  0  0  0  0  0  0  0  0  0  0
   23.4200   65.6780  -13.5320 H   0  0  0  0  0  0  0  0  0  0  0  0
   20.8890   65.8620   -9.7040 H   0  0  0  0  0  0  0  0  0  0  0  0
   19.0510   60.9780  -10.0140 H   0  0  0  0  0  0  0  0  0  0  0  0
   14.6840   62.9960  -11.0000 H   0  0  0  0  0  0  0  0  0  0  0  0
   16.7350   64.3940  -11.0620 H   0  0  0  0  0  0  0  0  0  0  0  0
   14.1000   60.3210  -12.4530 H   0  0  0  0  0  0  0  0  0  0  0  0
   12.7310   59.8960  -11.3940 H   0  0  0  0  0  0  0  0  0  0  0  0
   13.2570   61.6600  -11.6300 H   0  0  0  0  0  0  0  0  0  0  0  0
   17.9550   58.7930  -10.1880 H   0  0  0  0  0  0  0  0  0  0  0  0
   16.1170   58.7480  -10.2990 H   0  0  0  0  0  0  0  0  0  0  0  0
   16.8660   59.1870   -8.7430 H   0  0  0  0  0  0  0  0  0  0  0  0
   22.7750   66.4940   -7.8970 H   0  0  0  0  0  0  0  0  0  0  0  0
   23.8240   65.1620   -8.4880 H   0  0  0  0  0  0  0  0  0  0  0  0
   22.4380   64.9850   -5.8040 H   0  0  0  0  0  0  0  0  0  0  0  0
   23.9800   65.9280   -6.0640 H   0  0  0  0  0  0  0  0  0  0  0  0
   23.6020   62.9240   -6.5540 H   0  0  0  0  0  0  0  0  0  0  0  0
   24.9860   63.8880   -7.1190 H   0  0  0  0  0  0  0  0  0  0  0  0
   25.3840   64.4910   -4.8220 H   0  0  0  0  0  0  0  0  0  0  0  0
   26.4640   62.6320   -5.8010 H   0  0  0  0  0  0  0  0  0  0  0  0
   25.1700   61.5560   -5.0370 H   0  0  0  0  0  0  0  0  0  0  0  0
   26.5070   61.5940   -3.1970 H   0  0  0  0  0  0  0  0  0  0  0  0
   27.5020   62.9370   -3.8240 H   0  0  0  0  0  0  0  0  0  0  0  0
   24.1020   63.9850   -1.9650 H   0  0  0  0  0  0  0  0  0  0  0  0
   24.2600   62.2440   -2.3440 H   0  0  0  0  0  0  0  0  0  0  0  0
   23.0960   62.7050   -4.3400 H   0  0  0  0  0  0  0  0  0  0  0  0
   23.2630   64.5240   -4.0080 H   0  0  0  0  0  0  0  0  0  0  0  0
  1  2  1  0  0  0  0
  2  3  1  0  0  0  0
  3 35  1  0  0  0  0
  3  4  2  0  0  0  0
  4 36  1  0  0  0  0
  5  4  1  0  0  0  0
  5  8  1  0  0  0  0
  6  5  2  0  0  0  0
  7  2  2  0  0  0  0
  7  6  1  0  0  0  0
  8 39  1  6  0  0  0
  8 14  1  0  0  0  0
  8  9  1  0  0  0  0
  9 26  1  0  0  0  0
  9 10  1  0  0  0  0
 10 11  2  0  0  0  0
 12 13  2  0  0  0  0
 12 10  1  0  0  0  0
 14 12  1  0  0  0  0
 15 17  1  0  0  0  0
 15 14  2  0  0  0  0
 16 15  1  0  0  0  0
 17 18  1  0  0  0  0
 18 19  2  0  0  0  0
 18 40  1  0  0  0  0
 19 25  1  0  0  0  0
 20 23  1  0  0  0  0
 20 19  1  0  0  0  0
 21 20  2  0  0  0  0
 22 21  1  0  0  0  0
 22 17  2  0  0  0  0
 24 44  1  0  0  0  0
 24 23  1  0  0  0  0
 25 48  1  0  0  0  0
 26 27  1  0  0  0  0
 27 28  1  0  0  0  0
 27 52  1  0  0  0  0
 27 51  1  0  0  0  0
 28 29  1  0  0  0  0
 29 30  1  0  0  0  0
 29 55  1  0  0  0  0
 29 34  1  0  0  0  0
 30 31  1  0  0  0  0
 31 58  1  0  0  0  0
 31 32  1  0  0  0  0
 32 33  1  0  0  0  0
 33 61  1  0  0  0  0
 33 60  1  0  0  0  0
 34 63  1  0  0  0  0
 34 33  1  0  0  0  0
 37  6  1  0  0  0  0
 38  7  1  0  0  0  0
 41 21  1  0  0  0  0
 42 22  1  0  0  0  0
 43 24  1  0  0  0  0
 45 24  1  0  0  0  0
 46 25  1  0  0  0  0
 47 25  1  0  0  0  0
 49 26  1  0  0  0  0
 50 26  1  0  0  0  0
 53 28  1  0  0  0  0
 54 28  1  0  0  0  0
 56 30  1  0  0  0  0
 57 30  1  0  0  0  0
 59 31  1  0  0  0  0
 62 34  1  0  0  0  0
M  END
>  <Pose>
1

>  <Score>
-6.09

$$$$
