
 OpenBabel03202210193D

 44 47  0  0  0  0  0  0  0  0999 V2000
   11.8960   62.0180  -15.1000 B   0  0  0  0  0  0  0  0  0  0  0  0
   12.9140   62.7450  -13.6560 C   0  0  0  0  0  0  0  0  0  0  0  0
   13.1400   64.0910  -13.5350 C   0  0  0  0  0  0  0  0  0  0  0  0
   13.8910   64.6110  -12.4730 C   0  0  0  0  0  0  0  0  0  0  0  0
   14.4440   63.8250  -11.4940 C   0  0  0  0  0  0  0  0  0  0  0  0
   14.1910   62.4480  -11.6480 C   0  0  0  0  0  0  0  0  0  0  0  0
   13.4600   61.9320  -12.6820 C   0  0  0  0  0  0  0  0  0  0  0  0
   15.2270   64.2420  -10.4140 N   0  0  0  0  0  0  0  0  0  0  0  0
   16.6180   64.1150  -10.3150 C   0  0  0  0  0  0  0  0  0  0  0  0
   17.3690   65.0540  -10.7980 O   0  0  0  0  0  0  0  0  0  0  0  0
   17.3810   63.0220   -9.7140 C   0  0  0  0  0  0  0  0  0  0  0  0
   18.7520   62.9880  -10.2480 N   0  0  0  0  0  0  0  0  0  0  0  0
   19.7960   63.4390   -9.5580 N   0  0  0  0  0  0  0  0  0  0  0  0
   21.0570   63.4300  -10.0770 C   0  0  0  0  0  0  0  0  0  0  0  0
   21.2530   62.9530  -11.3150 N   0  0  0  0  0  0  0  0  0  0  0  0
   22.6560   63.0100  -11.6630 C   0  0  0  0  0  0  0  0  0  0  0  0
   23.3730   63.6040  -10.4880 C   0  0  0  0  0  0  0  0  0  0  0  0
   22.2990   63.8880   -9.5550 N   0  0  0  0  0  0  0  0  0  0  0  0
   22.5130   64.5330   -8.3140 C   0  0  0  0  0  0  0  0  0  0  0  0
   21.6720   65.4780   -7.7910 C   0  0  0  0  0  0  0  0  0  0  0  0
   21.9180   66.1020   -6.5810 C   0  0  0  0  0  0  0  0  0  0  0  0
   23.0490   65.7720   -5.8600 C   0  0  0  0  0  0  0  0  0  0  0  0
   23.8970   64.8350   -6.3620 C   0  0  0  0  0  0  0  0  0  0  0  0
   23.6450   64.2180   -7.5680 C   0  0  0  0  0  0  0  0  0  0  0  0
   20.2420   62.4840  -12.0590 C   0  0  0  0  0  0  0  0  0  0  0  0
   20.4280   62.0380  -13.2160 O   0  0  0  0  0  0  0  0  0  0  0  0
   18.9860   62.5180  -11.4860 C   0  0  0  0  0  0  0  0  0  0  0  0
   18.0060   62.0880  -12.1440 O   0  0  0  0  0  0  0  0  0  0  0  0
   12.7260   64.7570  -14.2790 H   0  0  0  0  0  0  0  0  0  0  0  0
   14.0350   65.6870  -12.4080 H   0  0  0  0  0  0  0  0  0  0  0  0
   14.6080   61.7860  -10.9000 H   0  0  0  0  0  0  0  0  0  0  0  0
   13.2750   60.8610  -12.7930 H   0  0  0  0  0  0  0  0  0  0  0  0
   14.7360   64.6920   -9.5910 H   0  0  0  0  0  0  0  0  0  0  0  0
   16.9540   62.0160   -9.9470 H   0  0  0  0  0  0  0  0  0  0  0  0
   17.4530   63.1490   -8.6200 H   0  0  0  0  0  0  0  0  0  0  0  0
   23.0040   61.9530  -11.7430 H   0  0  0  0  0  0  0  0  0  0  0  0
   22.8410   63.5630  -12.6130 H   0  0  0  0  0  0  0  0  0  0  0  0
   23.8060   64.5730  -10.8500 H   0  0  0  0  0  0  0  0  0  0  0  0
   24.1520   62.9510  -10.0430 H   0  0  0  0  0  0  0  0  0  0  0  0
   20.8000   65.7330   -8.3450 H   0  0  0  0  0  0  0  0  0  0  0  0
   21.2360   66.8500   -6.1940 H   0  0  0  0  0  0  0  0  0  0  0  0
   23.2390   66.2730   -4.9020 H   0  0  0  0  0  0  0  0  0  0  0  0
   24.7850   64.5610   -5.8210 H   0  0  0  0  0  0  0  0  0  0  0  0
   24.3150   63.4900   -7.9510 H   0  0  0  0  0  0  0  0  0  0  0  0
  1  2  1  0  0  0  0
  2  3  2  0  0  0  0
  2  7  1  0  0  0  0
  3  4  1  0  0  0  0
  4 30  1  0  0  0  0
  4  5  2  0  0  0  0
  5  8  1  0  0  0  0
  6  5  1  0  0  0  0
  6 31  1  0  0  0  0
  7  6  2  0  0  0  0
  8  9  1  0  0  0  0
  8 33  1  0  0  0  0
  9 11  1  0  0  0  0
 10  9  2  0  0  0  0
 11 35  1  0  0  0  0
 12 11  1  0  0  0  0
 12 13  1  0  0  0  0
 14 13  2  0  0  0  0
 14 18  1  0  0  0  0
 15 14  1  0  0  0  0
 16 15  1  0  0  0  0
 16 17  1  0  0  0  0
 17 39  1  0  0  0  0
 17 18  1  0  0  0  0
 18 19  1  0  0  0  0
 19 20  2  0  0  0  0
 19 24  1  0  0  0  0
 20 21  1  0  0  0  0
 21 41  1  0  0  0  0
 21 22  2  0  0  0  0
 22 42  1  0  0  0  0
 23 22  1  0  0  0  0
 23 43  1  0  0  0  0
 24 23  2  0  0  0  0
 25 27  1  0  0  0  0
 25 15  1  0  0  0  0
 26 25  2  0  0  0  0
 27 12  1  0  0  0  0
 28 27  2  0  0  0  0
 29  3  1  0  0  0  0
 32  7  1  0  0  0  0
 34 11  1  0  0  0  0
 36 16  1  0  0  0  0
 37 16  1  0  0  0  0
 38 17  1  0  0  0  0
 40 20  1  0  0  0  0
 44 24  1  0  0  0  0
M  END
>  <Pose>
1

>  <Score>
-6.35

$$$$
