
 OpenBabel03202210193D

 44 47  0  0  0  0  0  0  0  0999 V2000
    9.6430   67.1840  -16.3680 B   0  0  0  0  0  0  0  0  0  0  0  0
   11.0590   66.4050  -15.3680 C   0  0  0  0  0  0  0  0  0  0  0  0
   12.3770   66.5500  -15.7160 C   0  0  0  0  0  0  0  0  0  0  0  0
   13.3750   65.9590  -14.9520 C   0  0  0  0  0  0  0  0  0  0  0  0
   13.1170   65.2090  -13.8250 C   0  0  0  0  0  0  0  0  0  0  0  0
   11.7530   65.0830  -13.4980 C   0  0  0  0  0  0  0  0  0  0  0  0
   10.7760   65.6590  -14.2450 C   0  0  0  0  0  0  0  0  0  0  0  0
   14.0910   64.5660  -13.0280 N   0  0  0  0  0  0  0  0  0  0  0  0
   13.9750   63.2950  -12.4500 C   0  0  0  0  0  0  0  0  0  0  0  0
   13.7470   62.2870  -13.1510 O   0  0  0  0  0  0  0  0  0  0  0  0
   14.1240   63.1280  -10.9470 C   0  0  0  0  0  0  0  0  0  0  0  0
   15.1100   62.0970  -10.6930 N   0  0  0  0  0  0  0  0  0  0  0  0
   14.8480   60.7900  -10.6790 N   0  0  0  0  0  0  0  0  0  0  0  0
   15.9520   60.1260  -10.4230 N   0  0  0  0  0  0  0  0  0  0  0  0
   16.9600   61.0160  -10.2630 C   0  0  0  0  0  0  0  0  0  0  0  0
   16.4230   62.2300  -10.4340 C   0  0  0  0  0  0  0  0  0  0  0  0
   17.4760   63.1030  -10.2650 C   0  0  0  0  0  0  0  0  0  0  0  0
   17.3410   64.3600  -10.3550 O   0  0  0  0  0  0  0  0  0  0  0  0
   18.6250   62.4620   -9.9990 N   0  0  0  0  0  0  0  0  0  0  0  0
   18.3040   61.1370   -9.9980 C   0  0  0  0  0  0  0  0  0  0  0  0
   19.1520   60.2290   -9.7810 O   0  0  0  0  0  0  0  0  0  0  0  0
   19.9290   63.0110   -9.7610 C   0  0  0  0  0  0  0  0  0  0  0  0
   20.7930   63.2650  -10.8050 C   0  0  0  0  0  0  0  0  0  0  0  0
   22.0450   63.8030  -10.5850 C   0  0  0  0  0  0  0  0  0  0  0  0
   22.4980   64.1130   -9.3150 C   0  0  0  0  0  0  0  0  0  0  0  0
   21.6350   63.8600   -8.2690 C   0  0  0  0  0  0  0  0  0  0  0  0
   20.3800   63.3210   -8.4950 C   0  0  0  0  0  0  0  0  0  0  0  0
   23.8510   64.6970   -9.1140 C   0  0  0  0  0  0  0  0  0  0  0  0
   12.6220   67.1280  -16.5870 H   0  0  0  0  0  0  0  0  0  0  0  0
   14.4270   66.0990  -15.2470 H   0  0  0  0  0  0  0  0  0  0  0  0
   11.5360   64.4850  -12.5970 H   0  0  0  0  0  0  0  0  0  0  0  0
    9.7300   65.5340  -13.9550 H   0  0  0  0  0  0  0  0  0  0  0  0
   14.9920   65.1180  -12.8650 H   0  0  0  0  0  0  0  0  0  0  0  0
   13.1680   62.8200  -10.5130 H   0  0  0  0  0  0  0  0  0  0  0  0
   14.5040   64.1010  -10.5460 H   0  0  0  0  0  0  0  0  0  0  0  0
   13.8990   60.3990  -10.8500 H   0  0  0  0  0  0  0  0  0  0  0  0
   16.0880   59.0870  -10.3430 H   0  0  0  0  0  0  0  0  0  0  0  0
   20.4520   63.0270  -11.8070 H   0  0  0  0  0  0  0  0  0  0  0  0
   22.7390   64.0100  -11.4080 H   0  0  0  0  0  0  0  0  0  0  0  0
   21.9700   64.0980   -7.2540 H   0  0  0  0  0  0  0  0  0  0  0  0
   19.6990   63.1200   -7.6730 H   0  0  0  0  0  0  0  0  0  0  0  0
   24.6570   64.0420   -9.5150 H   0  0  0  0  0  0  0  0  0  0  0  0
   24.0250   64.7400   -8.0110 H   0  0  0  0  0  0  0  0  0  0  0  0
   23.9310   65.7240   -9.5020 H   0  0  0  0  0  0  0  0  0  0  0  0
  1  2  1  0  0  0  0
  2  7  1  0  0  0  0
  3  2  2  0  0  0  0
  3  4  1  0  0  0  0
  4  5  2  0  0  0  0
  5  6  1  0  0  0  0
  5  8  1  0  0  0  0
  6 31  1  0  0  0  0
  7 32  1  0  0  0  0
  7  6  2  0  0  0  0
  8 33  1  0  0  0  0
  8  9  1  0  0  0  0
  9 11  1  0  0  0  0
 10  9  2  0  0  0  0
 11 12  1  0  0  0  0
 11 35  1  0  0  0  0
 11 34  1  0  0  0  0
 12 13  1  0  0  0  0
 12 16  1  0  0  0  0
 13 14  1  0  0  0  0
 14 37  1  0  0  0  0
 14 15  1  0  0  0  0
 15 20  1  0  0  0  0
 16 17  1  0  0  0  0
 16 15  2  0  0  0  0
 17 19  1  0  0  0  0
 18 17  2  0  0  0  0
 19 20  1  0  0  0  0
 19 22  1  0  0  0  0
 20 21  2  0  0  0  0
 22 27  1  0  0  0  0
 23 24  1  0  0  0  0
 23 22  2  0  0  0  0
 24 25  2  0  0  0  0
 25 28  1  0  0  0  0
 25 26  1  0  0  0  0
 26 40  1  0  0  0  0
 27 26  2  0  0  0  0
 27 41  1  0  0  0  0
 28 43  1  0  0  0  0
 29  3  1  0  0  0  0
 30  4  1  0  0  0  0
 36 13  1  0  0  0  0
 38 23  1  0  0  0  0
 39 24  1  0  0  0  0
 42 28  1  0  0  0  0
 44 28  1  0  0  0  0
M  END
>  <Pose>
1

>  <Score>
-7.68

$$$$
