
 OpenBabel03202210193D

 52 55  0  0  1  0  0  0  0  0999 V2000
   26.6190   63.3420  -14.7850 B   0  0  0  0  0  0  0  0  0  0  0  0
   25.3710   63.6450  -13.3950 C   0  0  0  0  0  0  0  0  0  0  0  0
   24.0440   63.2960  -13.5740 C   0  0  0  0  0  0  0  0  0  0  0  0
   23.0910   63.4810  -12.6280 C   0  0  0  0  0  0  0  0  0  0  0  0
   23.4940   64.0670  -11.3850 C   0  0  0  0  0  0  0  0  0  0  0  0
   24.8190   64.4020  -11.2400 C   0  0  0  0  0  0  0  0  0  0  0  0
   25.7710   64.2050  -12.2150 C   0  0  0  0  0  0  0  0  0  0  0  0
   22.4890   64.1560  -10.4540 N   0  0  0  0  0  0  0  0  0  0  0  0
   21.5040   64.2440   -9.5400 C   0  0  0  0  0  0  0  0  0  0  0  0
   20.3350   63.6610   -9.5580 O   0  0  0  0  0  0  0  0  0  0  0  0
   21.6320   65.0660   -8.3070 C   0  0  2  0  0  0  0  0  0  0  0  0
   21.6310   66.5630   -8.5570 C   0  0  0  0  0  0  0  0  0  0  0  0
   21.3920   67.2440   -7.2480 C   0  0  0  0  0  0  0  0  0  0  0  0
   20.5500   68.1170   -7.1440 O   0  0  0  0  0  0  0  0  0  0  0  0
   22.1860   66.8240   -6.1710 N   0  0  0  0  0  0  0  0  0  0  0  0
   22.8100   65.5550   -6.1820 C   0  0  0  0  0  0  0  0  0  0  0  0
   23.6530   65.1790   -5.2000 N   0  0  0  0  0  0  0  0  0  0  0  0
   24.3530   64.0440   -5.1760 C   0  0  0  0  0  0  0  0  0  0  0  0
   24.1690   63.2330   -6.2500 N   0  0  0  0  0  0  0  0  0  0  0  0
   23.3340   63.5450   -7.2740 C   0  0  0  0  0  0  0  0  0  0  0  0
   22.6170   64.7020   -7.2950 C   0  0  0  0  0  0  0  0  0  0  0  0
   23.2070   62.6580   -8.3400 O   0  0  0  0  0  0  0  0  0  0  0  0
   25.1920   63.6490   -4.1090 N   0  0  0  0  0  0  0  0  0  0  0  0
   24.9160   63.7860   -2.7020 C   0  0  0  0  0  0  0  0  0  0  0  0
   25.4400   62.5440   -1.9880 C   0  0  0  0  0  0  0  0  0  0  0  0
   25.4160   61.3300   -2.8700 C   0  0  2  0  0  0  0  0  0  0  0  0
   26.2510   61.5200   -4.0870 C   0  0  0  0  0  0  0  0  0  0  0  0
   26.4780   63.0140   -4.4170 C   0  0  0  0  0  0  0  0  0  0  0  0
   24.0330   60.8960   -3.1790 C   0  0  0  0  0  0  0  0  0  0  0  0
   23.8760   60.0740   -4.1060 O   0  0  0  0  0  0  0  0  0  0  0  0
   22.8900   61.3610   -2.4920 N   0  0  0  0  0  0  0  0  0  0  0  0
   23.7370   62.8450  -14.5370 H   0  0  0  0  0  0  0  0  0  0  0  0
   22.0460   63.2060  -12.7790 H   0  0  0  0  0  0  0  0  0  0  0  0
   25.1610   64.8360  -10.2990 H   0  0  0  0  0  0  0  0  0  0  0  0
   26.8110   64.4770  -12.0760 H   0  0  0  0  0  0  0  0  0  0  0  0
   22.6030   65.4980  -10.4740 H   0  0  0  0  0  0  0  0  0  0  0  0
   20.5650   64.9290   -7.8420 H   0  0  0  0  0  0  0  0  0  0  0  0
   20.8130   66.8740   -9.2340 H   0  0  0  0  0  0  0  0  0  0  0  0
   22.5810   66.9100   -8.9710 H   0  0  0  0  0  0  0  0  0  0  0  0
   22.3580   67.4220   -5.3190 H   0  0  0  0  0  0  0  0  0  0  0  0
   22.9710   61.6770   -8.2060 H   0  0  0  0  0  0  0  0  0  0  0  0
   23.8320   63.8590   -2.5040 H   0  0  0  0  0  0  0  0  0  0  0  0
   25.3830   64.6550   -2.2100 H   0  0  0  0  0  0  0  0  0  0  0  0
   26.4230   62.7500   -1.5370 H   0  0  0  0  0  0  0  0  0  0  0  0
   24.7630   62.3520   -1.1210 H   0  0  0  0  0  0  0  0  0  0  0  0
   25.8790   60.4870   -2.2880 H   0  0  0  0  0  0  0  0  0  0  0  0
   25.7390   61.0690   -4.9840 H   0  0  0  0  0  0  0  0  0  0  0  0
   27.2400   61.0330   -4.0370 H   0  0  0  0  0  0  0  0  0  0  0  0
   27.2810   63.3930   -3.7860 H   0  0  0  0  0  0  0  0  0  0  0  0
   26.6870   63.0480   -5.5030 H   0  0  0  0  0  0  0  0  0  0  0  0
   22.9030   61.6070   -1.4850 H   0  0  0  0  0  0  0  0  0  0  0  0
   21.9970   61.4620   -3.0190 H   0  0  0  0  0  0  0  0  0  0  0  0
  1  2  1  0  0  0  0
  2  7  1  0  0  0  0
  3  2  2  0  0  0  0
  3  4  1  0  0  0  0
  4  5  2  0  0  0  0
  5  6  1  0  0  0  0
  5  8  1  0  0  0  0
  6 34  1  0  0  0  0
  7 35  1  0  0  0  0
  7  6  2  0  0  0  0
  8  9  1  0  0  0  0
  9 11  1  0  0  0  0
 10  9  2  0  0  0  0
 11 37  1  1  0  0  0
 11 21  1  0  0  0  0
 12 11  1  0  0  0  0
 12 13  1  0  0  0  0
 13 14  2  0  0  0  0
 13 15  1  0  0  0  0
 15 40  1  0  0  0  0
 16 15  1  0  0  0  0
 16 17  1  0  0  0  0
 17 18  2  0  0  0  0
 18 23  1  0  0  0  0
 19 18  1  0  0  0  0
 20 19  2  0  0  0  0
 21 20  1  0  0  0  0
 21 16  2  0  0  0  0
 22 41  1  0  0  0  0
 22 20  1  0  0  0  0
 23 24  1  0  0  0  0
 24 42  1  0  0  0  0
 24 43  1  0  0  0  0
 24 25  1  0  0  0  0
 25 44  1  0  0  0  0
 25 45  1  0  0  0  0
 26 46  1  1  0  0  0
 26 25  1  0  0  0  0
 27 48  1  0  0  0  0
 27 26  1  0  0  0  0
 28 23  1  0  0  0  0
 28 27  1  0  0  0  0
 28 49  1  0  0  0  0
 29 26  1  0  0  0  0
 29 31  1  0  0  0  0
 30 29  2  0  0  0  0
 31 51  1  0  0  0  0
 32  3  1  0  0  0  0
 33  4  1  0  0  0  0
 36  8  1  0  0  0  0
 38 12  1  0  0  0  0
 39 12  1  0  0  0  0
 47 27  1  0  0  0  0
 50 28  1  0  0  0  0
 52 31  1  0  0  0  0
M  END
>  <Pose>
1

>  <Score>
-7.21

$$$$
