
 OpenBabel03202210193D

 42 45  0  0  0  0  0  0  0  0999 V2000
   26.1300   63.4780   -1.5550 B   0  0  0  0  0  0  0  0  0  0  0  0
   25.2900   63.4620   -3.2730 C   0  0  0  0  0  0  0  0  0  0  0  0
   23.9780   63.8630   -3.4130 C   0  0  0  0  0  0  0  0  0  0  0  0
   23.3870   63.8450   -4.6610 C   0  0  0  0  0  0  0  0  0  0  0  0
   24.0500   63.4390   -5.8040 C   0  0  0  0  0  0  0  0  0  0  0  0
   25.3650   63.0400   -5.6470 C   0  0  0  0  0  0  0  0  0  0  0  0
   25.9690   63.0530   -4.4060 C   0  0  0  0  0  0  0  0  0  0  0  0
   23.4150   63.4300   -7.0850 N   0  0  0  0  0  0  0  0  0  0  0  0
   23.3500   62.4040   -7.8980 N   0  0  0  0  0  0  0  0  0  0  0  0
   22.6890   62.6910   -9.0370 C   0  0  0  0  0  0  0  0  0  0  0  0
   22.3090   64.0010   -8.9290 C   0  0  0  0  0  0  0  0  0  0  0  0
   22.7720   64.4400   -7.7070 C   0  0  0  0  0  0  0  0  0  0  0  0
   22.6050   65.7670   -7.1600 N   0  0  0  0  0  0  0  0  0  0  0  0
   23.4500   66.4600   -6.4100 C   0  0  0  0  0  0  0  0  0  0  0  0
   22.9180   67.6880   -6.0920 C   0  0  0  0  0  0  0  0  0  0  0  0
   21.6820   67.7150   -6.6920 C   0  0  0  0  0  0  0  0  0  0  0  0
   21.5070   66.5170   -7.3490 C   0  0  0  0  0  0  0  0  0  0  0  0
   21.5620   64.7450   -9.9360 C   0  0  0  0  0  0  0  0  0  0  0  0
   22.0150   65.8730  -10.2480 O   0  0  0  0  0  0  0  0  0  0  0  0
   20.3880   64.2610  -10.5520 N   0  0  0  0  0  0  0  0  0  0  0  0
   20.3500   64.1400  -11.9890 C   0  0  0  0  0  0  0  0  0  0  0  0
   20.2730   62.6810  -12.3290 C   0  0  0  0  0  0  0  0  0  0  0  0
   19.7690   61.8820  -11.2180 N   0  0  0  0  0  0  0  0  0  0  0  0
   18.9700   62.4340  -10.1770 C   0  0  0  0  0  0  0  0  0  0  0  0
   18.1320   61.7120   -9.5840 O   0  0  0  0  0  0  0  0  0  0  0  0
   19.1860   63.8640   -9.8550 C   0  0  0  0  0  0  0  0  0  0  0  0
   23.4240   64.1910   -2.5220 H   0  0  0  0  0  0  0  0  0  0  0  0
   22.3570   64.1640   -4.7450 H   0  0  0  0  0  0  0  0  0  0  0  0
   25.8890   62.7200   -6.5460 H   0  0  0  0  0  0  0  0  0  0  0  0
   26.9890   62.7420   -4.2940 H   0  0  0  0  0  0  0  0  0  0  0  0
   22.5190   61.9800   -9.8510 H   0  0  0  0  0  0  0  0  0  0  0  0
   24.4290   66.1170   -6.0870 H   0  0  0  0  0  0  0  0  0  0  0  0
   23.3810   68.4800   -5.4850 H   0  0  0  0  0  0  0  0  0  0  0  0
   20.9730   68.5330   -6.6550 H   0  0  0  0  0  0  0  0  0  0  0  0
   20.6120   66.2320   -7.9280 H   0  0  0  0  0  0  0  0  0  0  0  0
   21.1580   64.6820  -12.4970 H   0  0  0  0  0  0  0  0  0  0  0  0
   19.3850   64.6010  -12.3510 H   0  0  0  0  0  0  0  0  0  0  0  0
   21.2670   62.3110  -12.6450 H   0  0  0  0  0  0  0  0  0  0  0  0
   19.5760   62.4840  -13.1840 H   0  0  0  0  0  0  0  0  0  0  0  0
   20.0220   60.8490  -11.2040 H   0  0  0  0  0  0  0  0  0  0  0  0
   18.3440   64.4630  -10.2560 H   0  0  0  0  0  0  0  0  0  0  0  0
   19.2270   64.0620   -8.7730 H   0  0  0  0  0  0  0  0  0  0  0  0
  2  1  1  0  0  0  0
  3  2  1  0  0  0  0
  3 27  1  0  0  0  0
  4  3  2  0  0  0  0
  5  6  2  0  0  0  0
  5  4  1  0  0  0  0
  6  7  1  0  0  0  0
  7 30  1  0  0  0  0
  7  2  2  0  0  0  0
  8  5  1  0  0  0  0
  9  8  1  0  0  0  0
 10 11  1  0  0  0  0
 10  9  2  0  0  0  0
 11 12  2  0  0  0  0
 12 13  1  0  0  0  0
 12  8  1  0  0  0  0
 13 14  1  0  0  0  0
 14 15  2  0  0  0  0
 14 32  1  0  0  0  0
 15 33  1  0  0  0  0
 16 34  1  0  0  0  0
 16 15  1  0  0  0  0
 17 13  1  0  0  0  0
 17 16  2  0  0  0  0
 18 11  1  0  0  0  0
 19 18  2  0  0  0  0
 20 18  1  0  0  0  0
 20 26  1  0  0  0  0
 21 20  1  0  0  0  0
 22 21  1  0  0  0  0
 22 23  1  0  0  0  0
 23 40  1  0  0  0  0
 23 24  1  0  0  0  0
 24 26  1  0  0  0  0
 24 25  2  0  0  0  0
 26 42  1  0  0  0  0
 28  4  1  0  0  0  0
 29  6  1  0  0  0  0
 31 10  1  0  0  0  0
 35 17  1  0  0  0  0
 36 21  1  0  0  0  0
 37 21  1  0  0  0  0
 38 22  1  0  0  0  0
 39 22  1  0  0  0  0
 41 26  1  0  0  0  0
M  END
>  <Pose>
1

>  <Score>
-6.36

$$$$
