
 OpenBabel03202210193D

 44 47  0  0  0  0  0  0  0  0999 V2000
   12.8630   62.7800  -11.4250 B   0  0  0  0  0  0  0  0  0  0  0  0
   14.7410   62.8580  -11.0320 C   0  0  0  0  0  0  0  0  0  0  0  0
   15.4210   64.0570  -11.0460 C   0  0  0  0  0  0  0  0  0  0  0  0
   16.7730   64.1160  -10.7640 C   0  0  0  0  0  0  0  0  0  0  0  0
   17.4990   62.9780  -10.4570 C   0  0  0  0  0  0  0  0  0  0  0  0
   16.7990   61.7880  -10.4490 C   0  0  0  0  0  0  0  0  0  0  0  0
   15.4530   61.7200  -10.7280 C   0  0  0  0  0  0  0  0  0  0  0  0
   18.8920   63.0640  -10.1690 N   0  0  0  0  0  0  0  0  0  0  0  0
   19.4930   63.8620   -9.2700 C   0  0  0  0  0  0  0  0  0  0  0  0
   18.8690   64.6810   -8.5270 O   0  0  0  0  0  0  0  0  0  0  0  0
   20.8740   63.6660   -9.2710 C   0  0  0  0  0  0  0  0  0  0  0  0
   21.0970   62.7300  -10.1900 C   0  0  0  0  0  0  0  0  0  0  0  0
   22.4310   62.5580  -10.1740 N   0  0  0  0  0  0  0  0  0  0  0  0
   22.9880   63.3580   -9.2790 N   0  0  0  0  0  0  0  0  0  0  0  0
   22.0290   64.0500   -8.7140 N   0  0  0  0  0  0  0  0  0  0  0  0
   22.1630   65.0460   -7.6810 C   0  0  0  0  0  0  0  0  0  0  0  0
   23.2420   64.6920   -6.6990 C   0  0  0  0  0  0  0  0  0  0  0  0
   24.2900   65.3710   -6.8140 O   0  0  0  0  0  0  0  0  0  0  0  0
   23.0860   63.6890   -5.7390 N   0  0  0  0  0  0  0  0  0  0  0  0
   24.0670   63.1750   -4.8830 C   0  0  0  0  0  0  0  0  0  0  0  0
   23.6430   62.7110   -3.6270 C   0  0  0  0  0  0  0  0  0  0  0  0
   24.5700   62.1990   -2.7560 C   0  0  0  0  0  0  0  0  0  0  0  0
   25.9140   62.1150   -3.0560 C   0  0  0  0  0  0  0  0  0  0  0  0
   26.3330   62.5650   -4.2730 C   0  0  0  0  0  0  0  0  0  0  0  0
   25.4090   63.0820   -5.1570 C   0  0  0  0  0  0  0  0  0  0  0  0
   22.2230   62.7620   -3.2270 C   0  0  0  0  0  0  0  0  0  0  0  0
   19.8900   62.3560  -10.7450 C   0  0  0  0  0  0  0  0  0  0  0  0
   19.7020   61.5030  -11.6400 O   0  0  0  0  0  0  0  0  0  0  0  0
   14.8900   64.9760  -11.2820 H   0  0  0  0  0  0  0  0  0  0  0  0
   17.3190   65.0630  -10.7720 H   0  0  0  0  0  0  0  0  0  0  0  0
   17.3360   60.8880  -10.2130 H   0  0  0  0  0  0  0  0  0  0  0  0
   14.8890   60.7850  -10.7240 H   0  0  0  0  0  0  0  0  0  0  0  0
   22.9000   61.8640  -10.8110 H   0  0  0  0  0  0  0  0  0  0  0  0
   24.0180   63.3870   -9.1020 H   0  0  0  0  0  0  0  0  0  0  0  0
   22.4860   66.0290   -8.1200 H   0  0  0  0  0  0  0  0  0  0  0  0
   21.1760   65.1390   -7.1760 H   0  0  0  0  0  0  0  0  0  0  0  0
   22.0910   63.2870   -5.6760 H   0  0  0  0  0  0  0  0  0  0  0  0
   24.2790   61.8240   -1.7640 H   0  0  0  0  0  0  0  0  0  0  0  0
   26.6430   61.7050   -2.3520 H   0  0  0  0  0  0  0  0  0  0  0  0
   27.3970   62.5080   -4.5270 H   0  0  0  0  0  0  0  0  0  0  0  0
   25.7940   63.4190   -6.0950 H   0  0  0  0  0  0  0  0  0  0  0  0
   22.1340   62.5620   -2.1420 H   0  0  0  0  0  0  0  0  0  0  0  0
   21.8140   63.7920   -3.3800 H   0  0  0  0  0  0  0  0  0  0  0  0
   21.5860   62.0310   -3.7500 H   0  0  0  0  0  0  0  0  0  0  0  0
  1  2  1  0  0  0  0
  2  7  1  0  0  0  0
  3  2  2  0  0  0  0
  3  4  1  0  0  0  0
  4  5  2  0  0  0  0
  5  6  1  0  0  0  0
  5  8  1  0  0  0  0
  6 31  1  0  0  0  0
  7 32  1  0  0  0  0
  7  6  2  0  0  0  0
  8  9  1  0  0  0  0
  9 10  2  0  0  0  0
 11  9  1  0  0  0  0
 11 15  1  0  0  0  0
 12 13  1  0  0  0  0
 12 11  2  0  0  0  0
 13 14  1  0  0  0  0
 14 34  1  0  0  0  0
 14 15  1  0  0  0  0
 15 16  1  0  0  0  0
 16 36  1  0  0  0  0
 16 17  1  0  0  0  0
 17 19  1  0  0  0  0
 18 17  2  0  0  0  0
 19 37  1  0  0  0  0
 19 20  1  0  0  0  0
 20 21  1  0  0  0  0
 21 26  1  0  0  0  0
 21 22  2  0  0  0  0
 22 38  1  0  0  0  0
 23 22  1  0  0  0  0
 23 39  1  0  0  0  0
 24 23  2  0  0  0  0
 25 20  2  0  0  0  0
 25 24  1  0  0  0  0
 26 42  1  0  0  0  0
 27 12  1  0  0  0  0
 27  8  1  0  0  0  0
 28 27  2  0  0  0  0
 29  3  1  0  0  0  0
 30  4  1  0  0  0  0
 33 13  1  0  0  0  0
 35 16  1  0  0  0  0
 40 24  1  0  0  0  0
 41 25  1  0  0  0  0
 43 26  1  0  0  0  0
 44 26  1  0  0  0  0
M  END
>  <Pose>
1

>  <Score>
-8.26

$$$$
