
 OpenBabel03202210193D

 56 59  0  0  1  0  0  0  0  0999 V2000
   10.2480   65.8880  -16.0180 B   0  0  0  0  0  0  0  0  0  0  0  0
   11.6390   65.3630  -14.8350 C   0  0  0  0  0  0  0  0  0  0  0  0
   11.6210   64.0970  -14.3130 C   0  0  0  0  0  0  0  0  0  0  0  0
   12.6280   63.7120  -13.4540 C   0  0  0  0  0  0  0  0  0  0  0  0
   13.6590   64.5580  -13.0990 C   0  0  0  0  0  0  0  0  0  0  0  0
   13.6480   65.8570  -13.6540 C   0  0  0  0  0  0  0  0  0  0  0  0
   12.6560   66.2320  -14.4980 C   0  0  0  0  0  0  0  0  0  0  0  0
   14.6420   64.2450  -12.2910 O   0  0  0  0  0  0  0  0  0  0  0  0
   15.1970   63.7680  -11.1960 C   0  0  0  0  0  0  0  0  0  0  0  0
   16.4900   64.4050  -10.7960 C   0  0  1  0  0  0  0  0  0  0  0  0
   16.4640   64.5710   -9.4040 O   0  0  0  0  0  0  0  0  0  0  0  0
   17.7490   63.7350  -11.2630 C   0  0  0  0  0  0  0  0  0  0  0  0
   18.0270   62.4460  -10.6680 N   0  0  0  0  0  0  0  0  0  0  0  0
   17.1210   61.4690  -10.4290 C   0  0  0  0  0  0  0  0  0  0  0  0
   17.7630   60.4290   -9.7970 C   0  0  0  0  0  0  0  0  0  0  0  0
   19.0180   60.8110   -9.6830 N   0  0  0  0  0  0  0  0  0  0  0  0
   19.2280   62.0570  -10.2130 C   0  0  0  0  0  0  0  0  0  0  0  0
   20.5220   62.6860  -10.2850 N   0  0  0  0  0  0  0  0  0  0  0  0
   21.1010   62.9930   -8.9580 C   0  0  0  0  0  0  0  0  0  0  0  0
   22.5320   63.3520   -8.9790 C   0  0  0  0  0  0  0  0  0  0  0  0
   22.9230   64.0880  -10.1550 N   0  0  0  0  0  0  0  0  0  0  0  0
   22.7120   63.2090  -11.2610 C   0  0  0  0  0  0  0  0  0  0  0  0
   21.2250   62.9430  -11.4920 C   0  0  0  0  0  0  0  0  0  0  0  0
   22.2810   65.3580  -10.2490 C   0  0  0  0  0  0  0  0  0  0  0  0
   17.1460   59.2750   -9.4090 N   0  0  0  0  0  0  0  0  0  0  0  0
   15.8410   59.1620   -9.6640 C   0  0  0  0  0  0  0  0  0  0  0  0
   15.2540   58.1030   -9.3110 O   0  0  0  0  0  0  0  0  0  0  0  0
   15.1900   60.1580  -10.2790 N   0  0  0  0  0  0  0  0  0  0  0  0
   15.7750   61.3130  -10.6750 C   0  0  2  0  0  0  0  0  0  0  0  0
   15.1470   62.2170  -11.2440 O   0  0  0  0  0  0  0  0  0  0  0  0
   17.9130   58.2280   -8.7340 C   0  0  0  0  0  0  0  0  0  0  0  0
   10.8230   63.4040  -14.5770 H   0  0  0  0  0  0  0  0  0  0  0  0
   12.5570   62.7130  -13.0670 H   0  0  0  0  0  0  0  0  0  0  0  0
   14.4480   66.5260  -13.3820 H   0  0  0  0  0  0  0  0  0  0  0  0
   12.6740   67.2450  -14.9200 H   0  0  0  0  0  0  0  0  0  0  0  0
   14.4910   63.7850  -10.2740 H   0  0  0  0  0  0  0  0  0  0  0  0
   15.4540   62.6370  -11.2730 H   0  0  0  0  0  0  0  0  0  0  0  0
   16.5200   65.4320  -11.2870 H   0  0  0  0  0  0  0  0  0  0  0  0
   16.3850   65.5570   -9.1960 H   0  0  0  0  0  0  0  0  0  0  0  0
   18.6100   64.4240  -11.2870 H   0  0  0  0  0  0  0  0  0  0  0  0
   17.5620   63.5570  -12.3740 H   0  0  0  0  0  0  0  0  0  0  0  0
   20.4470   63.7420   -8.4540 H   0  0  0  0  0  0  0  0  0  0  0  0
   20.9880   62.0570   -8.3360 H   0  0  0  0  0  0  0  0  0  0  0  0
   22.7790   63.8710   -8.0450 H   0  0  0  0  0  0  0  0  0  0  0  0
   23.1410   62.4010   -9.0100 H   0  0  0  0  0  0  0  0  0  0  0  0
   23.1280   63.6700  -12.1930 H   0  0  0  0  0  0  0  0  0  0  0  0
   23.2510   62.2770  -11.0960 H   0  0  0  0  0  0  0  0  0  0  0  0
   21.2440   61.9590  -12.0590 H   0  0  0  0  0  0  0  0  0  0  0  0
   20.8980   63.7900  -12.1030 H   0  0  0  0  0  0  0  0  0  0  0  0
   23.0310   66.1570   -9.9830 H   0  0  0  0  0  0  0  0  0  0  0  0
   21.8550   65.6000  -11.2390 H   0  0  0  0  0  0  0  0  0  0  0  0
   21.4520   65.5080   -9.5110 H   0  0  0  0  0  0  0  0  0  0  0  0
   14.1730   60.0330  -10.4610 H   0  0  0  0  0  0  0  0  0  0  0  0
   17.2670   57.5370   -8.1860 H   0  0  0  0  0  0  0  0  0  0  0  0
   18.5420   58.7390   -7.9720 H   0  0  0  0  0  0  0  0  0  0  0  0
   18.5300   57.6670   -9.4550 H   0  0  0  0  0  0  0  0  0  0  0  0
  1  2  1  0  0  0  0
  2  7  2  0  0  0  0
  2  3  1  0  0  0  0
  3  4  2  0  0  0  0
  4  5  1  0  0  0  0
  4 33  1  0  0  0  0
  5  8  1  0  0  0  0
  6 34  1  0  0  0  0
  6  5  2  0  0  0  0
  7  6  1  0  0  0  0
  8  9  1  0  0  0  0
  9 10  1  0  0  0  0
  9 36  1  0  0  0  0
 10 38  1  6  0  0  0
 10 11  1  0  0  0  0
 11 39  1  0  0  0  0
 12 10  1  0  0  0  0
 12 13  1  0  0  0  0
 13 14  1  0  0  0  0
 13 17  1  0  0  0  0
 14 15  2  0  0  0  0
 15 16  1  0  0  0  0
 15 25  1  0  0  0  0
 17 16  2  0  0  0  0
 18 17  1  0  0  0  0
 18 19  1  0  0  0  0
 19 42  1  0  0  0  0
 19 43  1  0  0  0  0
 20 19  1  0  0  0  0
 20 44  1  0  0  0  0
 21 20  1  0  0  0  0
 22 47  1  0  0  0  0
 22 21  1  0  0  0  0
 23 22  1  0  0  0  0
 23 18  1  0  0  0  0
 24 21  1  0  0  0  0
 24 50  1  0  0  0  0
 24 52  1  0  0  0  0
 25 31  1  0  0  0  0
 26 25  1  0  0  0  0
 26 27  2  0  0  0  0
 28 26  1  0  0  0  0
 29 30  1  6  0  0  0
 29 14  1  0  0  0  0
 29 28  1  0  0  0  0
 31 54  1  0  0  0  0
 31 55  1  0  0  0  0
 32  3  1  0  0  0  0
 35  7  1  0  0  0  0
 37 30  1  0  0  0  0
 40 12  1  0  0  0  0
 41 12  1  0  0  0  0
 45 20  1  0  0  0  0
 46 22  1  0  0  0  0
 48 23  1  0  0  0  0
 49 23  1  0  0  0  0
 51 24  1  0  0  0  0
 53 28  1  0  0  0  0
 56 31  1  0  0  0  0
M  END
>  <Pose>
1

>  <Score>
-5.57

$$$$
