
 OpenBabel03202210193D

 39 43  0  0  1  0  0  0  0  0999 V2000
   23.1460   66.5600   -6.2770 B   0  0  0  0  0  0  0  0  0  0  0  0
   22.6690   65.0900   -7.4060 C   0  0  0  0  0  0  0  0  0  0  0  0
   21.4490   65.0770   -8.0550 C   0  0  0  0  0  0  0  0  0  0  0  0
   21.0880   64.0210   -8.8680 C   0  0  0  0  0  0  0  0  0  0  0  0
   21.8770   62.9180   -9.0930 C   0  0  0  0  0  0  0  0  0  0  0  0
   23.0820   62.9370   -8.4470 C   0  0  0  0  0  0  0  0  0  0  0  0
   23.5020   63.9770   -7.6150 C   0  0  0  0  0  0  0  0  0  0  0  0
   24.7310   63.8940   -6.8250 C   0  0  0  0  0  0  0  0  0  0  0  0
   24.6810   63.5260   -5.4720 N   0  0  2  0  0  4  0  0  0  0  0  0
   26.1380   63.2480   -5.2030 C   0  0  0  0  0  0  0  0  0  0  0  0
   26.3930   62.5680   -4.0050 N   0  0  2  0  0  0  0  0  0  0  0  0
   25.6320   61.3310   -4.0390 C   0  0  0  0  0  0  0  0  0  0  0  0
   24.2350   61.6900   -4.0430 N   0  0  2  0  0  0  0  0  0  0  0  0
   23.8670   62.3300   -5.2640 C   0  0  0  0  0  0  0  0  0  0  0  0
   23.8490   62.5640   -2.9290 C   0  0  0  0  0  0  0  0  0  0  0  0
   24.5810   63.8090   -3.0930 N   0  0  2  0  0  0  0  0  0  0  0  0
   24.3200   64.4180   -4.4150 C   0  0  0  0  0  0  0  0  0  0  0  0
   25.9740   63.4700   -2.9270 C   0  0  0  0  0  0  0  0  0  0  0  0
   21.1370   62.1120   -9.9440 O   0  0  0  0  0  0  0  0  0  0  0  0
   19.7300   62.3930   -9.7040 C   0  0  0  0  0  0  0  0  0  0  0  0
   19.8780   63.8410   -9.6060 O   0  0  0  0  0  0  0  0  0  0  0  0
   20.8450   65.9280   -7.8510 H   0  0  0  0  0  0  0  0  0  0  0  0
   23.7570   62.0470   -8.6130 H   0  0  0  0  0  0  0  0  0  0  0  0
   25.1710   64.9730   -6.8070 H   0  0  0  0  0  0  0  0  0  0  0  0
   25.4750   63.3630   -7.4710 H   0  0  0  0  0  0  0  0  0  0  0  0
   26.5440   64.3040   -5.1410 H   0  0  0  0  0  0  0  0  0  0  0  0
   26.6140   62.7880   -6.0610 H   0  0  0  0  0  0  0  0  0  0  0  0
   25.8840   60.6080   -3.2570 H   0  0  0  0  0  0  0  0  0  0  0  0
   25.8420   60.8980   -5.0620 H   0  0  0  0  0  0  0  0  0  0  0  0
   23.8830   61.6080   -6.0540 H   0  0  0  0  0  0  0  0  0  0  0  0
   22.8330   62.7640   -5.0810 H   0  0  0  0  0  0  0  0  0  0  0  0
   22.7710   62.6520   -2.9420 H   0  0  0  0  0  0  0  0  0  0  0  0
   24.2600   62.0820   -2.0210 H   0  0  0  0  0  0  0  0  0  0  0  0
   24.8520   65.4010   -4.4070 H   0  0  0  0  0  0  0  0  0  0  0  0
   23.2090   64.5970   -4.4450 H   0  0  0  0  0  0  0  0  0  0  0  0
   26.6410   64.3180   -2.9320 H   0  0  0  0  0  0  0  0  0  0  0  0
   26.0220   62.8600   -1.9980 H   0  0  0  0  0  0  0  0  0  0  0  0
   19.4290   62.1320   -8.6490 H   0  0  0  0  0  0  0  0  0  0  0  0
   19.0840   62.0770  -10.4910 H   0  0  0  0  0  0  0  0  0  0  0  0
  2  1  1  0  0  0  0
  3 22  1  0  0  0  0
  3  2  2  0  0  0  0
  4  3  1  0  0  0  0
  5  4  2  0  0  0  0
  5  6  1  0  0  0  0
  6  7  2  0  0  0  0
  7  2  1  0  0  0  0
  7  8  1  0  0  0  0
  8 24  1  0  0  0  0
  9  8  1  6  0  0  0
  9 14  1  0  0  0  0
  9 10  1  0  0  0  0
  9 17  1  0  0  0  0
 10 26  1  0  0  0  0
 11 10  1  6  0  0  0
 11 18  1  0  0  0  0
 12 11  1  0  0  0  0
 12 28  1  0  0  0  0
 13 14  1  6  0  0  0
 13 12  1  0  0  0  0
 13 15  1  0  0  0  0
 14 31  1  0  0  0  0
 15 33  1  0  0  0  0
 16 17  1  6  0  0  0
 16 15  1  0  0  0  0
 16 18  1  0  0  0  0
 17 34  1  0  0  0  0
 18 37  1  0  0  0  0
 19 20  1  0  0  0  0
 19  5  1  0  0  0  0
 20 21  1  0  0  0  0
 20 38  1  0  0  0  0
 21  4  1  0  0  0  0
 23  6  1  0  0  0  0
 25  8  1  0  0  0  0
 27 10  1  0  0  0  0
 29 12  1  0  0  0  0
 30 14  1  0  0  0  0
 32 15  1  0  0  0  0
 35 17  1  0  0  0  0
 36 18  1  0  0  0  0
 39 20  1  0  0  0  0
M  END
>  <Pose>
1

>  <Score>
-5.21

$$$$
