
 OpenBabel03202210193D

 49 51  0  0  0  0  0  0  0  0999 V2000
   16.1410   65.1920  -10.5800 B   0  0  0  0  0  0  0  0  0  0  0  0
   16.8300   63.4300  -10.3190 C   0  0  0  0  0  0  0  0  0  0  0  0
   15.9780   62.3500  -10.2560 C   0  0  0  0  0  0  0  0  0  0  0  0
   16.4590   61.0780  -10.0690 C   0  0  0  0  0  0  0  0  0  0  0  0
   17.8100   60.9140   -9.9490 C   0  0  0  0  0  0  0  0  0  0  0  0
   18.6690   62.0100  -10.0140 C   0  0  0  0  0  0  0  0  0  0  0  0
   18.2120   63.2980  -10.2010 C   0  0  0  0  0  0  0  0  0  0  0  0
   19.1060   64.4790  -10.2970 C   0  0  0  0  0  0  0  0  0  0  0  0
   20.3390   64.2410   -9.5710 N   0  0  0  0  0  0  0  0  0  0  0  0
   20.4540   62.7930   -9.2590 C   0  0  0  0  0  0  0  0  0  0  0  0
   21.6520   62.7360   -8.3170 C   0  0  0  0  0  0  0  0  0  0  0  0
   22.3960   63.9400   -8.2590 N   0  0  0  0  0  0  0  0  0  0  0  0
   22.7150   64.4700   -9.5590 C   0  0  0  0  0  0  0  0  0  0  0  0
   21.4980   64.4650  -10.4370 C   0  0  0  0  0  0  0  0  0  0  0  0
   22.0480   64.8910   -7.2720 C   0  0  0  0  0  0  0  0  0  0  0  0
   23.1480   65.5650   -6.6070 C   0  0  0  0  0  0  0  0  0  0  0  0
   23.4150   66.7600   -6.8510 O   0  0  0  0  0  0  0  0  0  0  0  0
   23.9500   64.8870   -5.6600 N   0  0  0  0  0  0  0  0  0  0  0  0
   23.4360   63.8030   -4.8310 C   0  0  0  0  0  0  0  0  0  0  0  0
   24.0140   63.5380   -3.5040 C   0  0  0  0  0  0  0  0  0  0  0  0
   24.4010   62.6370   -4.6370 C   0  0  0  0  0  0  0  0  0  0  0  0
   18.3140   59.6380   -9.7610 O   0  0  0  0  0  0  0  0  0  0  0  0
   17.5200   58.5300   -9.4230 C   0  0  0  0  0  0  0  0  0  0  0  0
   16.1410   58.6540   -9.9860 C   0  0  0  0  0  0  0  0  0  0  0  0
   15.6330   59.9640  -10.0010 O   0  0  0  0  0  0  0  0  0  0  0  0
   14.8960   62.4590  -10.3500 H   0  0  0  0  0  0  0  0  0  0  0  0
   19.7030   61.7890   -9.9230 H   0  0  0  0  0  0  0  0  0  0  0  0
   18.6260   65.4080   -9.9690 H   0  0  0  0  0  0  0  0  0  0  0  0
   19.3810   64.5940  -11.3750 H   0  0  0  0  0  0  0  0  0  0  0  0
   19.5410   62.3920   -8.8260 H   0  0  0  0  0  0  0  0  0  0  0  0
   20.6700   62.2930  -10.2260 H   0  0  0  0  0  0  0  0  0  0  0  0
   22.3310   61.9390   -8.7450 H   0  0  0  0  0  0  0  0  0  0  0  0
   21.3620   62.3400   -7.3240 H   0  0  0  0  0  0  0  0  0  0  0  0
   23.5600   63.8890  -10.0030 H   0  0  0  0  0  0  0  0  0  0  0  0
   23.1370   65.5130   -9.4550 H   0  0  0  0  0  0  0  0  0  0  0  0
   21.3980   65.2880  -11.1340 H   0  0  0  0  0  0  0  0  0  0  0  0
   21.6120   63.5480  -11.1000 H   0  0  0  0  0  0  0  0  0  0  0  0
   21.3470   65.6520   -7.6890 H   0  0  0  0  0  0  0  0  0  0  0  0
   21.4380   64.3720   -6.4780 H   0  0  0  0  0  0  0  0  0  0  0  0
   24.9700   65.1290   -5.5010 H   0  0  0  0  0  0  0  0  0  0  0  0
   22.3820   63.5800   -5.0180 H   0  0  0  0  0  0  0  0  0  0  0  0
   24.8450   64.1470   -3.0760 H   0  0  0  0  0  0  0  0  0  0  0  0
   23.3640   63.0850   -2.7290 H   0  0  0  0  0  0  0  0  0  0  0  0
   25.4220   62.7540   -5.0480 H   0  0  0  0  0  0  0  0  0  0  0  0
   23.9060   61.6490   -4.7330 H   0  0  0  0  0  0  0  0  0  0  0  0
   17.5430   58.4030   -8.3290 H   0  0  0  0  0  0  0  0  0  0  0  0
   17.9970   57.6380   -9.9190 H   0  0  0  0  0  0  0  0  0  0  0  0
   16.1380   58.2550  -11.0390 H   0  0  0  0  0  0  0  0  0  0  0  0
   15.4570   58.0540   -9.3410 H   0  0  0  0  0  0  0  0  0  0  0  0
  1  2  1  0  0  0  0
  2  3  2  0  0  0  0
  2  7  1  0  0  0  0
  3  4  1  0  0  0  0
  4 25  1  0  0  0  0
  4  5  2  0  0  0  0
  5 22  1  0  0  0  0
  6  5  1  0  0  0  0
  6 27  1  0  0  0  0
  7  6  2  0  0  0  0
  8  7  1  0  0  0  0
  8 28  1  0  0  0  0
  8  9  1  0  0  0  0
  9 10  1  0  0  0  0
 10 30  1  0  0  0  0
 11 12  1  0  0  0  0
 11 33  1  0  0  0  0
 12 15  1  0  0  0  0
 13 35  1  0  0  0  0
 13 12  1  0  0  0  0
 14  9  1  0  0  0  0
 14 13  1  0  0  0  0
 15 16  1  0  0  0  0
 15 39  1  0  0  0  0
 16 18  1  0  0  0  0
 17 16  2  0  0  0  0
 18 40  1  0  0  0  0
 18 19  1  0  0  0  0
 19 21  1  0  0  0  0
 19 20  1  0  0  0  0
 20 42  1  0  0  0  0
 20 43  1  0  0  0  0
 21 20  1  0  0  0  0
 22 23  1  0  0  0  0
 23 46  1  0  0  0  0
 24 23  1  0  0  0  0
 24 49  1  0  0  0  0
 25 24  1  0  0  0  0
 26  3  1  0  0  0  0
 29  8  1  0  0  0  0
 31 10  1  0  0  0  0
 32 11  1  0  0  0  0
 34 13  1  0  0  0  0
 36 14  1  0  0  0  0
 37 14  1  0  0  0  0
 38 15  1  0  0  0  0
 41 19  1  0  0  0  0
 44 21  1  0  0  0  0
 45 21  1  0  0  0  0
 47 23  1  0  0  0  0
 48 24  1  0  0  0  0
M  END
>  <Pose>
1

>  <Score>
-6.64

$$$$
