
 OpenBabel03202210193D

 41 44  0  0  0  0  0  0  0  0999 V2000
   15.7400   64.3510  -11.4040 B   0  0  0  0  0  0  0  0  0  0  0  0
   16.5650   62.7470  -10.7610 C   0  0  0  0  0  0  0  0  0  0  0  0
   15.8390   61.6030  -10.5400 C   0  0  0  0  0  0  0  0  0  0  0  0
   16.4510   60.4550  -10.0770 C   0  0  0  0  0  0  0  0  0  0  0  0
   17.8090   60.4690   -9.8370 C   0  0  0  0  0  0  0  0  0  0  0  0
   18.5380   61.6350  -10.0640 C   0  0  0  0  0  0  0  0  0  0  0  0
   17.9460   62.7890  -10.5250 C   0  0  0  0  0  0  0  0  0  0  0  0
   18.7120   64.0150  -10.8060 C   0  0  0  0  0  0  0  0  0  0  0  0
   20.0750   63.8020  -11.0210 O   0  0  0  0  0  0  0  0  0  0  0  0
   21.0070   63.6740  -10.0060 C   0  0  0  0  0  0  0  0  0  0  0  0
   22.3640   63.4920  -10.3050 C   0  0  0  0  0  0  0  0  0  0  0  0
   23.3320   63.3630   -9.3360 C   0  0  0  0  0  0  0  0  0  0  0  0
   22.9960   63.4110   -8.0000 C   0  0  0  0  0  0  0  0  0  0  0  0
   21.6650   63.5920   -7.6880 C   0  0  0  0  0  0  0  0  0  0  0  0
   20.6810   63.7220   -8.6690 C   0  0  0  0  0  0  0  0  0  0  0  0
   24.0150   63.2760   -6.9570 C   0  0  0  0  0  0  0  0  0  0  0  0
   24.1100   62.3510   -5.9880 N   0  0  0  0  0  0  0  0  0  0  0  0
   25.2000   62.6070   -5.2570 N   0  0  0  0  0  0  0  0  0  0  0  0
   25.7920   63.6830   -5.7520 N   0  0  0  0  0  0  0  0  0  0  0  0
   25.0710   64.0880   -6.7840 N   0  0  0  0  0  0  0  0  0  0  0  0
   25.7010   61.8770   -4.1110 C   0  0  0  0  0  0  0  0  0  0  0  0
   25.2660   62.5320   -2.8580 C   0  0  0  0  0  0  0  0  0  0  0  0
   26.0350   63.3130   -2.2740 O   0  0  0  0  0  0  0  0  0  0  0  0
   23.9800   62.2570   -2.3450 N   0  0  0  0  0  0  0  0  0  0  0  0
   18.1500   59.2090   -9.3870 O   0  0  0  0  0  0  0  0  0  0  0  0
   17.0920   58.2970   -9.6190 C   0  0  0  0  0  0  0  0  0  0  0  0
   15.9950   59.1730   -9.7650 O   0  0  0  0  0  0  0  0  0  0  0  0
   14.7550   61.5790  -10.7290 H   0  0  0  0  0  0  0  0  0  0  0  0
   19.6040   61.5680   -9.8690 H   0  0  0  0  0  0  0  0  0  0  0  0
   18.2680   64.6170  -11.6280 H   0  0  0  0  0  0  0  0  0  0  0  0
   18.6230   64.6550   -9.8950 H   0  0  0  0  0  0  0  0  0  0  0  0
   22.5940   63.4580  -11.3700 H   0  0  0  0  0  0  0  0  0  0  0  0
   24.3710   63.2240   -9.6000 H   0  0  0  0  0  0  0  0  0  0  0  0
   21.4090   63.6280   -6.6430 H   0  0  0  0  0  0  0  0  0  0  0  0
   19.6470   63.8690   -8.3680 H   0  0  0  0  0  0  0  0  0  0  0  0
   25.3080   60.8410   -4.1430 H   0  0  0  0  0  0  0  0  0  0  0  0
   26.8070   61.8400   -4.1930 H   0  0  0  0  0  0  0  0  0  0  0  0
   23.5690   61.2820   -2.3260 H   0  0  0  0  0  0  0  0  0  0  0  0
   23.3950   63.0310   -1.9640 H   0  0  0  0  0  0  0  0  0  0  0  0
   17.3180   57.7430  -10.5500 H   0  0  0  0  0  0  0  0  0  0  0  0
   16.9940   57.6040   -8.7680 H   0  0  0  0  0  0  0  0  0  0  0  0
  1  2  1  0  0  0  0
  2  3  2  0  0  0  0
  2  7  1  0  0  0  0
  3  4  1  0  0  0  0
  4  5  2  0  0  0  0
  4 27  1  0  0  0  0
  5 25  1  0  0  0  0
  6 29  1  0  0  0  0
  6  5  1  0  0  0  0
  7  6  2  0  0  0  0
  8  7  1  0  0  0  0
  8 31  1  0  0  0  0
  9  8  1  0  0  0  0
  9 10  1  0  0  0  0
 10 15  1  0  0  0  0
 11 10  2  0  0  0  0
 11 12  1  0  0  0  0
 12 13  2  0  0  0  0
 13 14  1  0  0  0  0
 13 16  1  0  0  0  0
 14 34  1  0  0  0  0
 15 35  1  0  0  0  0
 15 14  2  0  0  0  0
 16 20  1  0  0  0  0
 16 17  2  0  0  0  0
 17 18  1  0  0  0  0
 18 21  1  0  0  0  0
 19 18  1  0  0  0  0
 20 19  2  0  0  0  0
 21 22  1  0  0  0  0
 22 24  1  0  0  0  0
 22 23  2  0  0  0  0
 24 38  1  0  0  0  0
 24 39  1  0  0  0  0
 26 25  1  0  0  0  0
 26 41  1  0  0  0  0
 27 26  1  0  0  0  0
 28  3  1  0  0  0  0
 30  8  1  0  0  0  0
 32 11  1  0  0  0  0
 33 12  1  0  0  0  0
 36 21  1  0  0  0  0
 37 21  1  0  0  0  0
 40 26  1  0  0  0  0
M  END
>  <Pose>
1

>  <Score>
-9.26

$$$$
