
 OpenBabel03202210193D

 44 47  0  0  1  0  0  0  0  0999 V2000
   19.2940   65.0760  -10.1650 B   0  0  0  0  0  0  0  0  0  0  0  0
   18.1640   63.5580  -10.2660 C   0  0  0  0  0  0  0  0  0  0  0  0
   16.8220   63.7100  -10.5610 C   0  0  0  0  0  0  0  0  0  0  0  0
   15.9520   62.6220  -10.6440 C   0  0  0  0  0  0  0  0  0  0  0  0
   16.4790   61.3520  -10.4200 C   0  0  0  0  0  0  0  0  0  0  0  0
   17.8210   61.2260  -10.1280 C   0  0  0  0  0  0  0  0  0  0  0  0
   18.6950   62.3070  -10.0420 C   0  0  0  0  0  0  0  0  0  0  0  0
   20.0960   62.1140   -9.7270 C   0  0  0  0  0  0  0  0  0  0  0  0
   20.6500   62.7140   -8.7610 N   0  0  0  0  0  0  0  0  0  0  0  0
   21.9640   62.6340   -8.3430 N   0  0  0  0  0  0  0  0  0  0  0  0
   22.5860   63.6480   -7.5840 C   0  0  1  0  0  0  0  0  0  0  0  0
   23.4660   63.2440   -6.6520 N   0  0  0  0  0  0  0  0  0  0  0  0
   24.1600   64.1140   -5.8710 C   0  0  0  0  0  0  0  0  0  0  0  0
   23.9180   65.4070   -6.0820 N   0  0  0  0  0  0  0  0  0  0  0  0
   23.0600   65.8720   -6.9870 C   0  0  0  0  0  0  0  0  0  0  0  0
   22.3880   64.9560   -7.7460 N   0  0  0  0  0  0  0  0  0  0  0  0
   22.8300   67.2230   -7.1820 O   0  0  0  0  0  0  0  0  0  0  0  0
   21.8380   67.8930   -6.4520 C   0  0  0  0  0  0  0  0  0  0  0  0
   25.0490   63.6100   -4.9180 N   0  0  0  0  0  0  0  0  0  0  0  0
   24.6710   63.4840   -3.5310 C   0  0  0  0  0  0  0  0  0  0  0  0
   25.6160   62.5620   -2.7890 C   0  0  0  0  0  0  0  0  0  0  0  0
   26.1210   61.5300   -3.5100 O   0  0  0  0  0  0  0  0  0  0  0  0
   26.4510   61.7280   -4.8140 C   0  0  0  0  0  0  0  0  0  0  0  0
   26.3730   63.1770   -5.2850 C   0  0  0  0  0  0  0  0  0  0  0  0
   15.4350   60.4660  -10.5570 O   0  0  0  0  0  0  0  0  0  0  0  0
   14.2030   61.1480  -10.6860 C   0  0  0  0  0  0  0  0  0  0  0  0
   14.6000   62.4750  -10.9120 O   0  0  0  0  0  0  0  0  0  0  0  0
   16.4130   64.7140  -10.7370 H   0  0  0  0  0  0  0  0  0  0  0  0
   18.1860   60.1990   -9.9600 H   0  0  0  0  0  0  0  0  0  0  0  0
   20.6840   61.4470  -10.3260 H   0  0  0  0  0  0  0  0  0  0  0  0
   22.5190   61.7890   -8.5990 H   0  0  0  0  0  0  0  0  0  0  0  0
   20.9770   68.0740   -7.1500 H   0  0  0  0  0  0  0  0  0  0  0  0
   22.1700   68.9120   -6.1260 H   0  0  0  0  0  0  0  0  0  0  0  0
   21.5470   67.3320   -5.5400 H   0  0  0  0  0  0  0  0  0  0  0  0
   23.6230   63.2100   -3.3540 H   0  0  0  0  0  0  0  0  0  0  0  0
   24.8130   64.5080   -3.0630 H   0  0  0  0  0  0  0  0  0  0  0  0
   26.4550   63.1240   -2.2870 H   0  0  0  0  0  0  0  0  0  0  0  0
   25.0180   62.1320   -1.9310 H   0  0  0  0  0  0  0  0  0  0  0  0
   27.4190   61.2530   -5.1020 H   0  0  0  0  0  0  0  0  0  0  0  0
   25.6670   61.1970   -5.4330 H   0  0  0  0  0  0  0  0  0  0  0  0
   27.0740   63.7830   -4.6570 H   0  0  0  0  0  0  0  0  0  0  0  0
   26.6060   63.2140   -6.3450 H   0  0  0  0  0  0  0  0  0  0  0  0
   13.5370   61.0290   -9.8070 H   0  0  0  0  0  0  0  0  0  0  0  0
   13.7240   60.7500  -11.6130 H   0  0  0  0  0  0  0  0  0  0  0  0
  2  1  1  0  0  0  0
  2  7  1  0  0  0  0
  3  2  2  0  0  0  0
  4  3  1  0  0  0  0
  4  5  2  0  0  0  0
  5  6  1  0  0  0  0
  6  7  2  0  0  0  0
  6 29  1  0  0  0  0
  7  8  1  0  0  0  0
  8  9  2  0  0  0  0
  9 10  1  0  0  0  0
 11 10  1  6  0  0  0
 11 12  1  0  0  0  0
 12 13  2  0  0  0  0
 13 19  1  0  0  0  0
 14 13  1  0  0  0  0
 15 14  2  0  0  0  0
 16 11  1  0  0  0  0
 16 15  2  0  0  0  0
 17 15  1  0  0  0  0
 17 18  1  0  0  0  0
 18 33  1  0  0  0  0
 18 34  1  0  0  0  0
 19 20  1  0  0  0  0
 20 35  1  0  0  0  0
 20 36  1  0  0  0  0
 20 21  1  0  0  0  0
 21 37  1  0  0  0  0
 21 38  1  0  0  0  0
 22 21  1  0  0  0  0
 23 22  1  0  0  0  0
 24 19  1  0  0  0  0
 24 23  1  0  0  0  0
 24 41  1  0  0  0  0
 25  5  1  0  0  0  0
 26 25  1  0  0  0  0
 26 43  1  0  0  0  0
 27 26  1  0  0  0  0
 27  4  1  0  0  0  0
 28  3  1  0  0  0  0
 30  8  1  0  0  0  0
 31 10  1  0  0  0  0
 32 18  1  0  0  0  0
 39 23  1  0  0  0  0
 40 23  1  0  0  0  0
 42 24  1  0  0  0  0
 44 26  1  0  0  0  0
M  END
>  <Pose>
1

>  <Score>
-8.65

$$$$
