
 OpenBabel03202210193D

 39 42  0  0  1  0  0  0  0  0999 V2000
   20.8860   57.9690   -8.7960 B   0  0  0  0  0  0  0  0  0  0  0  0
   20.0240   59.6230   -9.1770 C   0  0  0  0  0  0  0  0  0  0  0  0
   20.7650   60.7830   -9.2410 C   0  0  0  0  0  0  0  0  0  0  0  0
   20.1560   62.0100   -9.5190 C   0  0  0  0  0  0  0  0  0  0  0  0
   18.8130   62.0160   -9.7230 C   0  0  0  0  0  0  0  0  0  0  0  0
   18.0560   60.8280   -9.6560 C   0  0  0  0  0  0  0  0  0  0  0  0
   18.6640   59.6240   -9.3830 C   0  0  0  0  0  0  0  0  0  0  0  0
   18.3930   63.3480   -9.9880 N   0  0  0  0  0  0  0  0  0  0  0  0
   19.5030   64.2120   -9.9510 C   0  0  0  0  0  0  0  0  0  0  0  0
   19.5140   65.4550  -10.1380 O   0  0  0  0  0  0  0  0  0  0  0  0
   20.7110   63.3910   -9.6440 C   0  0  1  0  0  0  0  0  0  0  0  0
   21.3370   63.8260   -8.3910 C   0  0  0  0  0  0  0  0  0  0  0  0
   22.6450   64.1800   -8.3330 C   0  0  0  0  0  0  0  0  0  0  0  0
   23.4370   64.1390   -9.4850 O   0  0  0  0  0  0  0  0  0  0  0  0
   22.8960   63.7370  -10.6900 C   0  0  0  0  0  0  0  0  0  0  0  0
   21.6470   63.3930  -10.7720 C   0  0  0  0  0  0  0  0  0  0  0  0
   21.1560   62.9800  -12.0950 C   0  0  0  0  0  0  0  0  0  0  0  0
   20.7830   62.6610  -13.1230 N   0  0  0  0  0  0  0  0  0  0  0  0
   23.7710   63.7200  -11.8300 N   0  0  0  0  0  0  0  0  0  0  0  0
   23.1990   64.5870   -7.1160 C   0  0  0  0  0  0  0  0  0  0  0  0
   24.4040   64.9110   -7.0770 O   0  0  0  0  0  0  0  0  0  0  0  0
   22.4070   64.6230   -5.9920 C   0  0  0  0  0  0  0  0  0  0  0  0
   21.0850   64.2510   -6.1100 C   0  0  0  0  0  0  0  0  0  0  0  0
   20.6290   63.8840   -7.2600 O   0  0  0  0  0  0  0  0  0  0  0  0
   20.1930   64.2830   -4.8870 C   0  0  0  0  0  0  0  0  0  0  0  0
   20.6060   63.2910   -3.9980 O   0  0  0  0  0  0  0  0  0  0  0  0
   16.9880   63.7110  -10.2540 C   0  0  0  0  0  0  0  0  0  0  0  0
   21.8380   60.8160   -9.0850 H   0  0  0  0  0  0  0  0  0  0  0  0
   16.9790   60.8420   -9.8210 H   0  0  0  0  0  0  0  0  0  0  0  0
   18.0760   58.7040   -9.3320 H   0  0  0  0  0  0  0  0  0  0  0  0
   23.7200   64.4880  -12.4960 H   0  0  0  0  0  0  0  0  0  0  0  0
   24.4140   62.9370  -11.9350 H   0  0  0  0  0  0  0  0  0  0  0  0
   22.7700   64.9270   -5.0220 H   0  0  0  0  0  0  0  0  0  0  0  0
   20.2230   65.2560   -4.3970 H   0  0  0  0  0  0  0  0  0  0  0  0
   19.1430   64.0020   -5.1830 H   0  0  0  0  0  0  0  0  0  0  0  0
   20.1800   62.4200   -4.2590 H   0  0  0  0  0  0  0  0  0  0  0  0
   16.4070   62.8100  -10.5270 H   0  0  0  0  0  0  0  0  0  0  0  0
   16.5730   64.1540   -9.3340 H   0  0  0  0  0  0  0  0  0  0  0  0
   16.9510   64.4100  -11.1290 H   0  0  0  0  0  0  0  0  0  0  0  0
  2  1  1  0  0  0  0
  3  2  1  0  0  0  0
  3 28  1  0  0  0  0
  4  3  2  0  0  0  0
  5  6  2  0  0  0  0
  5  4  1  0  0  0  0
  6  7  1  0  0  0  0
  7 30  1  0  0  0  0
  7  2  2  0  0  0  0
  8  9  1  0  0  0  0
  8  5  1  0  0  0  0
  9 11  1  0  0  0  0
 10  9  2  0  0  0  0
 11 16  1  6  0  0  0
 11  4  1  0  0  0  0
 11 12  1  0  0  0  0
 12 13  2  0  0  0  0
 12 24  1  0  0  0  0
 13 20  1  0  0  0  0
 14 13  1  0  0  0  0
 15 14  1  0  0  0  0
 16 15  2  0  0  0  0
 17 16  1  0  0  0  0
 18 17  3  0  0  0  0
 19 15  1  0  0  0  0
 20 21  2  0  0  0  0
 20 22  1  0  0  0  0
 22 33  1  0  0  0  0
 23 22  2  0  0  0  0
 23 25  1  0  0  0  0
 24 23  1  0  0  0  0
 25 34  1  0  0  0  0
 25 26  1  0  0  0  0
 27  8  1  0  0  0  0
 27 38  1  0  0  0  0
 29  6  1  0  0  0  0
 31 19  1  0  0  0  0
 32 19  1  0  0  0  0
 35 25  1  0  0  0  0
 36 26  1  0  0  0  0
 37 27  1  0  0  0  0
 39 27  1  0  0  0  0
M  END
>  <Pose>
1

>  <Score>
-5.33

$$$$
