
 OpenBabel03202210193D

 41 44  0  0  0  0  0  0  0  0999 V2000
   14.8830   66.3530  -11.1140 B   0  0  0  0  0  0  0  0  0  0  0  0
   15.4430   64.5640  -10.8170 C   0  0  0  0  0  0  0  0  0  0  0  0
   16.7570   64.2380  -10.6380 C   0  0  0  0  0  0  0  0  0  0  0  0
   17.1520   62.9340  -10.4280 C   0  0  0  0  0  0  0  0  0  0  0  0
   16.2670   61.9040  -10.3840 C   0  0  0  0  0  0  0  0  0  0  0  0
   14.9190   62.2300  -10.5660 C   0  0  0  0  0  0  0  0  0  0  0  0
   14.5210   63.5260  -10.7760 C   0  0  0  0  0  0  0  0  0  0  0  0
   16.9100   60.6690  -10.1580 N   0  0  0  0  0  0  0  0  0  0  0  0
   18.3190   60.8890  -10.0470 C   0  0  0  0  0  0  0  0  0  0  0  0
   19.2470   60.1010   -9.8530 O   0  0  0  0  0  0  0  0  0  0  0  0
   18.4890   62.3620  -10.2220 C   0  0  0  0  0  0  0  0  0  0  0  0
   19.5690   62.8600  -10.1650 N   0  0  0  0  0  0  0  0  0  0  0  0
   20.8740   62.5600   -9.9950 N   0  0  0  0  0  0  0  0  0  0  0  0
   21.8070   63.5740   -9.7090 C   0  0  0  0  0  0  0  0  0  0  0  0
   21.5300   64.7710  -10.0740 O   0  0  0  0  0  0  0  0  0  0  0  0
   23.0930   63.4340   -9.0180 C   0  0  0  0  0  0  0  0  0  0  0  0
   23.0320   63.1060   -7.6220 N   0  0  0  0  0  0  0  0  0  0  0  0
   23.9400   63.6700   -6.6820 C   0  0  0  0  0  0  0  0  0  0  0  0
   24.5890   64.7120   -7.0870 O   0  0  0  0  0  0  0  0  0  0  0  0
   24.1960   63.1960   -5.3570 C   0  0  0  0  0  0  0  0  0  0  0  0
   25.1870   62.2920   -5.0040 C   0  0  0  0  0  0  0  0  0  0  0  0
   25.3820   61.8890   -3.7270 C   0  0  0  0  0  0  0  0  0  0  0  0
   24.5910   62.3660   -2.7010 C   0  0  0  0  0  0  0  0  0  0  0  0
   23.6040   63.2510   -3.0010 C   0  0  0  0  0  0  0  0  0  0  0  0
   23.3890   63.6820   -4.3180 C   0  0  0  0  0  0  0  0  0  0  0  0
   25.0260   61.7850   -1.4980 O   0  0  0  0  0  0  0  0  0  0  0  0
   26.4430   61.6090   -1.7430 C   0  0  0  0  0  0  0  0  0  0  0  0
   26.3090   60.9950   -3.0740 O   0  0  0  0  0  0  0  0  0  0  0  0
   17.4990   65.0030  -10.6610 H   0  0  0  0  0  0  0  0  0  0  0  0
   14.2120   61.4450  -10.5390 H   0  0  0  0  0  0  0  0  0  0  0  0
   13.4940   63.8240  -10.9160 H   0  0  0  0  0  0  0  0  0  0  0  0
   16.4670   59.7220  -10.0830 H   0  0  0  0  0  0  0  0  0  0  0  0
   21.2100   61.5620  -10.0760 H   0  0  0  0  0  0  0  0  0  0  0  0
   23.6410   62.5890   -9.5170 H   0  0  0  0  0  0  0  0  0  0  0  0
   23.7020   64.3530   -9.1640 H   0  0  0  0  0  0  0  0  0  0  0  0
   22.3430   62.4380   -7.2440 H   0  0  0  0  0  0  0  0  0  0  0  0
   25.8350   61.8810   -5.7990 H   0  0  0  0  0  0  0  0  0  0  0  0
   22.9630   63.6350   -2.1860 H   0  0  0  0  0  0  0  0  0  0  0  0
   22.6360   64.3610   -4.5610 H   0  0  0  0  0  0  0  0  0  0  0  0
   26.9580   60.9910   -1.0520 H   0  0  0  0  0  0  0  0  0  0  0  0
   26.9050   62.5910   -1.8640 H   0  0  0  0  0  0  0  0  0  0  0  0
  1  2  1  0  0  0  0
  2  7  2  0  0  0  0
  2  3  1  0  0  0  0
  3  4  2  0  0  0  0
  4  5  1  0  0  0  0
  4 11  1  0  0  0  0
  5  8  1  0  0  0  0
  6 30  1  0  0  0  0
  6  5  2  0  0  0  0
  7  6  1  0  0  0  0
  8 32  1  0  0  0  0
  8  9  1  0  0  0  0
  9 10  2  0  0  0  0
 11 12  2  0  0  0  0
 11  9  1  0  0  0  0
 12 13  1  0  0  0  0
 13 14  1  0  0  0  0
 14 16  1  0  0  0  0
 15 14  2  0  0  0  0
 16 17  1  0  0  0  0
 17 36  1  0  0  0  0
 17 18  1  0  0  0  0
 18 20  1  0  0  0  0
 19 18  2  0  0  0  0
 20 21  2  0  0  0  0
 20 25  1  0  0  0  0
 21 22  1  0  0  0  0
 22 28  1  0  0  0  0
 22 23  2  0  0  0  0
 23 26  1  0  0  0  0
 24 23  1  0  0  0  0
 24 38  1  0  0  0  0
 25 24  2  0  0  0  0
 27 26  1  0  0  0  0
 27 40  1  0  0  0  0
 28 27  1  0  0  0  0
 29  3  1  0  0  0  0
 31  7  1  0  0  0  0
 33 13  1  0  0  0  0
 34 16  1  0  0  0  0
 35 16  1  0  0  0  0
 37 21  1  0  0  0  0
 39 25  1  0  0  0  0
 41 27  1  0  0  0  0
M  END
>  <Pose>
1

>  <Score>
-8.73

$$$$
