
 OpenBabel03202210193D

 41 44  0  0  1  0  0  0  0  0999 V2000
   17.9190   58.7270   -9.9410 B   0  0  0  0  0  0  0  0  0  0  0  0
   18.1420   60.6210   -9.9730 C   0  0  0  0  0  0  0  0  0  0  0  0
   19.4250   61.1020   -9.8830 C   0  0  0  0  0  0  0  0  0  0  0  0
   19.6400   62.4850   -9.9030 C   0  0  0  0  0  0  0  0  0  0  0  0
   18.5760   63.3200  -10.0110 C   0  0  0  0  0  0  0  0  0  0  0  0
   17.2530   62.8470  -10.1050 C   0  0  0  0  0  0  0  0  0  0  0  0
   17.0720   61.4840  -10.0830 C   0  0  0  0  0  0  0  0  0  0  0  0
   18.9970   64.6710  -10.0080 N   0  0  0  0  0  0  0  0  0  0  0  0
   20.3880   64.6790   -9.8910 C   0  0  0  0  0  0  0  0  0  0  0  0
   21.1610   65.7130   -9.8420 O   0  0  0  0  0  0  0  0  0  0  0  0
   20.8650   63.2650   -9.8300 C   0  0  2  0  0  0  0  0  0  0  0  0
   21.8020   63.1140  -10.9120 C   0  0  0  0  0  0  0  0  0  0  0  0
   23.1120   62.9150  -10.6830 C   0  0  0  0  0  0  0  0  0  0  0  0
   23.7210   62.8130  -11.9100 N   0  0  0  0  0  0  0  0  0  0  0  0
   22.8040   62.9460  -12.8430 N   0  0  0  0  0  0  0  0  0  0  0  0
   21.5980   63.1350  -12.3070 C   0  0  0  0  0  0  0  0  0  0  0  0
   20.2910   63.3300  -12.9990 C   0  0  0  0  0  0  0  0  0  0  0  0
   23.6690   62.8390   -9.3930 O   0  0  0  0  0  0  0  0  0  0  0  0
   22.7800   62.9830   -8.3340 C   0  0  0  0  0  0  0  0  0  0  0  0
   21.5070   63.1770   -8.4960 C   0  0  0  0  0  0  0  0  0  0  0  0
   20.6390   63.3170   -7.2900 C   0  0  0  0  0  0  0  0  0  0  0  0
   19.8210   62.4100   -7.0540 O   0  0  0  0  0  0  0  0  0  0  0  0
   20.7050   64.3870   -6.4400 O   0  0  0  0  0  0  0  0  0  0  0  0
   21.8930   65.0350   -6.0540 C   0  0  0  0  0  0  0  0  0  0  0  0
   22.0330   66.2860   -6.9290 C   0  0  0  0  0  0  0  0  0  0  0  0
   23.2770   62.9170   -6.9780 N   0  0  0  0  0  0  0  0  0  0  0  0
   20.2860   60.4290   -9.7950 H   0  0  0  0  0  0  0  0  0  0  0  0
   16.4160   63.5130  -10.1910 H   0  0  0  0  0  0  0  0  0  0  0  0
   16.0750   61.0670  -10.1530 H   0  0  0  0  0  0  0  0  0  0  0  0
   18.3980   65.5420  -10.0780 H   0  0  0  0  0  0  0  0  0  0  0  0
   24.7420   62.6560  -12.0700 H   0  0  0  0  0  0  0  0  0  0  0  0
   20.4110   63.1710  -14.0900 H   0  0  0  0  0  0  0  0  0  0  0  0
   20.0130   64.3940  -12.8600 H   0  0  0  0  0  0  0  0  0  0  0  0
   19.5190   62.6200  -12.6600 H   0  0  0  0  0  0  0  0  0  0  0  0
   22.7770   64.3940   -6.1300 H   0  0  0  0  0  0  0  0  0  0  0  0
   21.7790   65.4010   -5.0110 H   0  0  0  0  0  0  0  0  0  0  0  0
   21.0350   66.7020   -7.1760 H   0  0  0  0  0  0  0  0  0  0  0  0
   22.6160   67.0750   -6.4180 H   0  0  0  0  0  0  0  0  0  0  0  0
   22.6020   66.0120   -7.8490 H   0  0  0  0  0  0  0  0  0  0  0  0
   23.1190   62.0560   -6.4490 H   0  0  0  0  0  0  0  0  0  0  0  0
   23.7670   63.7210   -6.5870 H   0  0  0  0  0  0  0  0  0  0  0  0
  2  1  1  0  0  0  0
  2  3  1  0  0  0  0
  3 27  1  0  0  0  0
  4  3  2  0  0  0  0
  4 11  1  0  0  0  0
  5  8  1  0  0  0  0
  5  4  1  0  0  0  0
  6  7  1  0  0  0  0
  6  5  2  0  0  0  0
  7  2  2  0  0  0  0
  8  9  1  0  0  0  0
  9 10  2  0  0  0  0
  9 11  1  0  0  0  0
 11 12  1  6  0  0  0
 11 20  1  0  0  0  0
 12 13  2  0  0  0  0
 13 18  1  0  0  0  0
 14 13  1  0  0  0  0
 15 16  2  0  0  0  0
 15 14  1  0  0  0  0
 16 12  1  0  0  0  0
 17 33  1  0  0  0  0
 17 34  1  0  0  0  0
 17 16  1  0  0  0  0
 18 19  1  0  0  0  0
 19 26  1  0  0  0  0
 20 19  2  0  0  0  0
 20 21  1  0  0  0  0
 21 22  2  0  0  0  0
 21 23  1  0  0  0  0
 23 24  1  0  0  0  0
 24 36  1  0  0  0  0
 25 38  1  0  0  0  0
 25 24  1  0  0  0  0
 26 41  1  0  0  0  0
 26 40  1  0  0  0  0
 28  6  1  0  0  0  0
 29  7  1  0  0  0  0
 30  8  1  0  0  0  0
 31 14  1  0  0  0  0
 32 17  1  0  0  0  0
 35 24  1  0  0  0  0
 37 25  1  0  0  0  0
 39 25  1  0  0  0  0
M  END
>  <Pose>
1

>  <Score>
-5.10

$$$$
