
 OpenBabel03202210193D

 38 41  0  0  1  0  0  0  0  0999 V2000
   24.3760   63.5940  -12.4570 B   0  0  0  0  0  0  0  0  0  0  0  0
   22.9730   63.5040  -11.1800 C   0  0  0  0  0  0  0  0  0  0  0  0
   23.0990   64.0470   -9.8980 C   0  0  0  0  0  0  0  0  0  0  0  0
   22.0820   63.9790   -8.9830 C   0  0  0  0  0  0  0  0  0  0  0  0
   20.9140   63.3650   -9.3270 C   0  0  0  0  0  0  0  0  0  0  0  0
   20.7390   62.8040  -10.6000 C   0  0  0  0  0  0  0  0  0  0  0  0
   21.7760   62.8890  -11.4970 C   0  0  0  0  0  0  0  0  0  0  0  0
   19.9910   63.3960   -8.2520 N   0  0  0  0  0  0  0  0  0  0  0  0
   20.6140   64.0630   -7.1830 C   0  0  0  0  0  0  0  0  0  0  0  0
   20.1410   64.3060   -6.0410 O   0  0  0  0  0  0  0  0  0  0  0  0
   21.9750   64.4670   -7.5960 C   0  0  1  0  0  0  0  0  0  0  0  0
   22.9850   63.7930   -6.7160 C   0  0  0  0  0  0  0  0  0  0  0  0
   23.9040   64.4010   -6.0140 C   0  0  0  0  0  0  0  0  0  0  0  0
   23.9690   65.8130   -6.0760 N   0  0  0  0  0  0  0  0  0  0  0  0
   23.0540   66.5380   -6.8830 C   0  0  0  0  0  0  0  0  0  0  0  0
   22.1320   65.9310   -7.5880 C   0  0  0  0  0  0  0  0  0  0  0  0
   21.2260   66.7540   -8.3960 C   0  0  0  0  0  0  0  0  0  0  0  0
   20.5040   67.4110   -9.0170 N   0  0  0  0  0  0  0  0  0  0  0  0
   23.1410   67.9880   -6.9320 N   0  0  0  0  0  0  0  0  0  0  0  0
   24.6940   63.3780   -5.2850 C   0  0  0  0  0  0  0  0  0  0  0  0
   24.1560   62.1250   -5.6220 O   0  0  0  0  0  0  0  0  0  0  0  0
   23.1090   62.3410   -6.4960 C   0  0  0  0  0  0  0  0  0  0  0  0
   22.3830   61.4250   -7.0150 O   0  0  0  0  0  0  0  0  0  0  0  0
   24.5130   63.5290   -3.7730 C   0  0  0  0  0  0  0  0  0  0  0  0
   26.1700   63.4690   -5.6430 C   0  0  0  0  0  0  0  0  0  0  0  0
   24.0470   64.5230   -9.6760 H   0  0  0  0  0  0  0  0  0  0  0  0
   19.8340   62.3130  -10.9070 H   0  0  0  0  0  0  0  0  0  0  0  0
   21.6420   62.4540  -12.4870 H   0  0  0  0  0  0  0  0  0  0  0  0
   19.0070   62.9830   -8.2720 H   0  0  0  0  0  0  0  0  0  0  0  0
   24.6890   66.3560   -5.5330 H   0  0  0  0  0  0  0  0  0  0  0  0
   23.0660   68.5900   -6.0950 H   0  0  0  0  0  0  0  0  0  0  0  0
   23.2840   68.4300   -7.8540 H   0  0  0  0  0  0  0  0  0  0  0  0
   24.7670   62.5370   -3.3420 H   0  0  0  0  0  0  0  0  0  0  0  0
   25.2150   64.2550   -3.3520 H   0  0  0  0  0  0  0  0  0  0  0  0
   23.4600   63.7260   -3.5490 H   0  0  0  0  0  0  0  0  0  0  0  0
   26.7730   63.7970   -4.7650 H   0  0  0  0  0  0  0  0  0  0  0  0
   26.4860   62.4380   -5.9560 H   0  0  0  0  0  0  0  0  0  0  0  0
   26.3060   64.1360   -6.5070 H   0  0  0  0  0  0  0  0  0  0  0  0
  1  2  1  0  0  0  0
  2  3  1  0  0  0  0
  3 26  1  0  0  0  0
  3  4  2  0  0  0  0
  5  4  1  0  0  0  0
  5  8  1  0  0  0  0
  6  5  2  0  0  0  0
  7  2  2  0  0  0  0
  7  6  1  0  0  0  0
  8  9  1  0  0  0  0
  9 10  2  0  0  0  0
 11  4  1  6  0  0  0
 11 16  1  0  0  0  0
 11  9  1  0  0  0  0
 11 12  1  0  0  0  0
 12 22  1  0  0  0  0
 12 13  2  0  0  0  0
 13 20  1  0  0  0  0
 14 13  1  0  0  0  0
 14 30  1  0  0  0  0
 15 14  1  0  0  0  0
 16 15  2  0  0  0  0
 17 16  1  0  0  0  0
 18 17  3  0  0  0  0
 19 15  1  0  0  0  0
 19 31  1  0  0  0  0
 20 24  1  0  0  0  0
 21 20  1  0  0  0  0
 22 21  1  0  0  0  0
 23 22  2  0  0  0  0
 24 35  1  0  0  0  0
 24 34  1  0  0  0  0
 24 33  1  0  0  0  0
 25 20  1  0  0  0  0
 25 36  1  0  0  0  0
 27  6  1  0  0  0  0
 28  7  1  0  0  0  0
 29  8  1  0  0  0  0
 32 19  1  0  0  0  0
 37 25  1  0  0  0  0
 38 25  1  0  0  0  0
M  END
>  <Pose>
1

>  <Score>
-5.24

$$$$
