
 OpenBabel03202210193D

 49 52  0  0  1  0  0  0  0  0999 V2000
   21.2780   59.9010   -4.8960 B   0  0  0  0  0  0  0  0  0  0  0  0
   22.4160   61.3490   -5.4380 C   0  0  0  0  0  0  0  0  0  0  0  0
   22.3740   61.8670   -6.7190 C   0  0  0  0  0  0  0  0  0  0  0  0
   23.1880   62.9070   -7.1180 C   0  0  0  0  0  0  0  0  0  0  0  0
   24.0530   63.4080   -6.1680 C   0  0  0  0  0  0  0  0  0  0  0  0
   24.0990   62.8890   -4.8780 C   0  0  0  0  0  0  0  0  0  0  0  0
   23.2850   61.8630   -4.5090 C   0  0  0  0  0  0  0  0  0  0  0  0
   24.8200   64.4700   -6.7560 N   0  0  0  0  0  0  0  0  0  0  0  0
   24.4240   64.6350   -8.1060 C   0  0  0  0  0  0  0  0  0  0  0  0
   24.9200   65.4800   -8.8870 O   0  0  0  0  0  0  0  0  0  0  0  0
   23.3580   63.6510   -8.3870 C   0  0  1  0  0  0  0  0  0  0  0  0
   23.7180   62.7950   -9.4850 N   0  0  0  0  0  0  0  0  0  0  0  0
   23.4150   63.5880  -10.6590 C   0  0  2  0  0  0  0  0  0  0  0  0
   22.0920   64.2240  -10.3250 C   0  0  2  0  0  0  0  0  0  0  0  0
   22.1320   64.3720   -8.8230 C   0  0  1  0  0  0  0  0  0  0  0  0
   20.8600   63.8130   -8.3430 C   0  0  0  0  0  0  0  0  0  0  0  0
   20.4210   63.8420   -7.1650 O   0  0  0  0  0  0  0  0  0  0  0  0
   20.1510   63.1990   -9.4440 N   0  0  0  0  0  0  0  0  0  0  0  0
   20.9380   63.3460  -10.6150 C   0  0  0  0  0  0  0  0  0  0  0  0
   20.6710   62.8020  -11.7130 O   0  0  0  0  0  0  0  0  0  0  0  0
   18.8670   62.5470   -9.3850 C   0  0  0  0  0  0  0  0  0  0  0  0
   18.8310   61.2940  -10.2260 C   0  0  0  0  0  0  0  0  0  0  0  0
   18.5560   62.1960   -7.9270 C   0  0  0  0  0  0  0  0  0  0  0  0
   17.7750   63.4600   -9.8970 C   0  0  0  0  0  0  0  0  0  0  0  0
   23.3760   62.7170  -11.8850 C   0  0  0  0  0  0  0  0  0  0  0  0
   24.1760   63.3010  -12.9740 C   0  0  0  0  0  0  0  0  0  0  0  0
   25.4330   63.2900  -12.8750 O   0  0  0  0  0  0  0  0  0  0  0  0
   23.6360   63.8840  -14.1490 N   0  0  0  0  0  0  0  0  0  0  0  0
   21.6700   61.4130   -7.3920 H   0  0  0  0  0  0  0  0  0  0  0  0
   24.7830   63.2890   -4.1380 H   0  0  0  0  0  0  0  0  0  0  0  0
   23.3460   61.4770   -3.4860 H   0  0  0  0  0  0  0  0  0  0  0  0
   25.5450   65.0060   -6.2310 H   0  0  0  0  0  0  0  0  0  0  0  0
   23.1020   61.9670   -9.4820 H   0  0  0  0  0  0  0  0  0  0  0  0
   24.1940   64.3670  -10.8480 H   0  0  0  0  0  0  0  0  0  0  0  0
   21.9460   65.2170  -10.7750 H   0  0  0  0  0  0  0  0  0  0  0  0
   22.2190   65.4410   -8.5270 H   0  0  0  0  0  0  0  0  0  0  0  0
   19.0410   61.5760  -11.2780 H   0  0  0  0  0  0  0  0  0  0  0  0
   17.7980   60.8660  -10.2400 H   0  0  0  0  0  0  0  0  0  0  0  0
   19.5110   60.5090   -9.8300 H   0  0  0  0  0  0  0  0  0  0  0  0
   19.4130   61.5890   -7.5720 H   0  0  0  0  0  0  0  0  0  0  0  0
   17.6210   61.6330   -7.8480 H   0  0  0  0  0  0  0  0  0  0  0  0
   18.5430   63.1690   -7.3810 H   0  0  0  0  0  0  0  0  0  0  0  0
   16.9640   62.8310  -10.3130 H   0  0  0  0  0  0  0  0  0  0  0  0
   17.3410   64.1010   -9.1160 H   0  0  0  0  0  0  0  0  0  0  0  0
   18.2100   64.1050  -10.6800 H   0  0  0  0  0  0  0  0  0  0  0  0
   23.9110   61.7670  -11.5870 H   0  0  0  0  0  0  0  0  0  0  0  0
   22.3690   62.3940  -12.1760 H   0  0  0  0  0  0  0  0  0  0  0  0
   23.7700   63.5280  -15.1060 H   0  0  0  0  0  0  0  0  0  0  0  0
   23.0510   64.7510  -14.0230 H   0  0  0  0  0  0  0  0  0  0  0  0
  2  1  1  0  0  0  0
  2  7  1  0  0  0  0
  3  2  2  0  0  0  0
  4  3  1  0  0  0  0
  4  5  2  0  0  0  0
  5  6  1  0  0  0  0
  6  7  2  0  0  0  0
  6 30  1  0  0  0  0
  7 31  1  0  0  0  0
  8 32  1  0  0  0  0
  8  5  1  0  0  0  0
  9  8  1  0  0  0  0
 10  9  2  0  0  0  0
 11  9  1  1  0  0  0
 11  4  1  0  0  0  0
 12 33  1  0  0  0  0
 12 11  1  0  0  0  0
 13 34  1  6  0  0  0
 13 14  1  0  0  0  0
 13 12  1  0  0  0  0
 14 35  1  6  0  0  0
 14 15  1  0  0  0  0
 15 36  1  1  0  0  0
 15 11  1  0  0  0  0
 15 16  1  0  0  0  0
 16 17  2  0  0  0  0
 18 21  1  0  0  0  0
 18 16  1  0  0  0  0
 19 14  1  0  0  0  0
 19 18  1  0  0  0  0
 20 19  2  0  0  0  0
 21 23  1  0  0  0  0
 22 39  1  0  0  0  0
 22 21  1  0  0  0  0
 23 41  1  0  0  0  0
 23 40  1  0  0  0  0
 23 42  1  0  0  0  0
 24 21  1  0  0  0  0
 24 44  1  0  0  0  0
 25 46  1  0  0  0  0
 25 13  1  0  0  0  0
 26 27  2  0  0  0  0
 26 25  1  0  0  0  0
 28 49  1  0  0  0  0
 28 26  1  0  0  0  0
 29  3  1  0  0  0  0
 37 22  1  0  0  0  0
 38 22  1  0  0  0  0
 43 24  1  0  0  0  0
 45 24  1  0  0  0  0
 47 25  1  0  0  0  0
 48 28  1  0  0  0  0
M  END
>  <Pose>
1

>  <Score>
-4.38

$$$$
