
 OpenBabel03202210193D

 49 52  0  0  1  0  0  0  0  0999 V2000
   18.1920   61.2150   -9.6580 B   0  0  0  0  0  0  0  0  0  0  0  0
   19.7390   62.2080  -10.1700 C   0  0  0  0  0  0  0  0  0  0  0  0
   20.5790   62.7360   -9.2220 C   0  0  0  0  0  0  0  0  0  0  0  0
   21.7220   63.4700   -9.5880 C   0  0  0  0  0  0  0  0  0  0  0  0
   22.0350   63.6830  -10.9010 C   0  0  0  0  0  0  0  0  0  0  0  0
   21.1770   63.1430  -11.8690 C   0  0  0  0  0  0  0  0  0  0  0  0
   20.0650   62.4290  -11.4900 C   0  0  0  0  0  0  0  0  0  0  0  0
   23.2280   64.4460  -11.0210 N   0  0  0  0  0  0  0  0  0  0  0  0
   23.6830   64.7250   -9.7120 C   0  0  0  0  0  0  0  0  0  0  0  0
   24.7430   65.4000   -9.4930 O   0  0  0  0  0  0  0  0  0  0  0  0
   22.7600   64.1270   -8.7630 C   0  0  2  0  0  0  0  0  0  0  0  0
   23.3920   63.1990   -7.8450 N   0  0  0  0  0  0  0  0  0  0  0  0
   23.8160   63.9970   -6.7090 C   0  0  1  0  0  0  0  0  0  0  0  0
   22.6430   64.9160   -6.5190 C   0  0  2  0  0  0  0  0  0  0  0  0
   22.1570   65.2120   -7.8970 C   0  0  1  0  0  0  0  0  0  0  0  0
   22.6650   66.5550   -8.2200 C   0  0  0  0  0  0  0  0  0  0  0  0
   22.7530   67.1210   -9.3590 O   0  0  0  0  0  0  0  0  0  0  0  0
   23.0820   67.2050   -7.0270 N   0  0  0  0  0  0  0  0  0  0  0  0
   23.0380   66.2410   -5.9940 C   0  0  0  0  0  0  0  0  0  0  0  0
   23.2940   66.4420   -4.7680 O   0  0  0  0  0  0  0  0  0  0  0  0
   23.4790   68.5920   -6.8860 C   0  0  0  0  0  0  0  0  0  0  0  0
   22.8360   69.2540   -5.7110 C   0  0  0  0  0  0  0  0  0  0  0  0
   23.7830   70.3730   -5.2600 C   0  0  0  0  0  0  0  0  0  0  0  0
   24.1180   71.2760   -6.4160 C   0  0  0  0  0  0  0  0  0  0  0  0
   24.0620   63.0980   -5.5390 C   0  0  2  0  0  0  0  0  0  0  0  0
   23.0210   63.2930   -4.6230 O   0  0  0  0  0  0  0  0  0  0  0  0
   25.3440   63.4870   -4.8450 C   0  0  0  0  0  0  0  0  0  0  0  0
   20.3830   62.6010   -8.1510 H   0  0  0  0  0  0  0  0  0  0  0  0
   21.4240   63.3110  -12.9200 H   0  0  0  0  0  0  0  0  0  0  0  0
   19.3920   62.0060  -12.2320 H   0  0  0  0  0  0  0  0  0  0  0  0
   23.6490   64.7240  -11.9440 H   0  0  0  0  0  0  0  0  0  0  0  0
   24.1690   62.6690   -8.2800 H   0  0  0  0  0  0  0  0  0  0  0  0
   24.6960   64.6190   -6.9350 H   0  0  0  0  0  0  0  0  0  0  0  0
   21.8370   64.4600   -5.9090 H   0  0  0  0  0  0  0  0  0  0  0  0
   21.0390   65.1830   -7.9220 H   0  0  0  0  0  0  0  0  0  0  0  0
   24.5750   68.7090   -6.7880 H   0  0  0  0  0  0  0  0  0  0  0  0
   23.1810   69.1360   -7.8120 H   0  0  0  0  0  0  0  0  0  0  0  0
   22.7970   68.5460   -4.8440 H   0  0  0  0  0  0  0  0  0  0  0  0
   21.8250   69.6230   -5.8730 H   0  0  0  0  0  0  0  0  0  0  0  0
   23.1950   70.9620   -4.5090 H   0  0  0  0  0  0  0  0  0  0  0  0
   24.6680   69.9650   -4.7500 H   0  0  0  0  0  0  0  0  0  0  0  0
   24.1570   70.7540   -7.3830 H   0  0  0  0  0  0  0  0  0  0  0  0
   23.3470   72.0860   -6.5220 H   0  0  0  0  0  0  0  0  0  0  0  0
   25.0670   71.8000   -6.1890 H   0  0  0  0  0  0  0  0  0  0  0  0
   24.1210   62.0400   -5.8690 H   0  0  0  0  0  0  0  0  0  0  0  0
   22.1520   63.0120   -5.0090 H   0  0  0  0  0  0  0  0  0  0  0  0
   26.2020   63.0180   -5.3650 H   0  0  0  0  0  0  0  0  0  0  0  0
   25.4030   64.5830   -4.8330 H   0  0  0  0  0  0  0  0  0  0  0  0
   25.3070   63.0390   -3.8180 H   0  0  0  0  0  0  0  0  0  0  0  0
  2  1  1  0  0  0  0
  2  3  1  0  0  0  0
  3 28  1  0  0  0  0
  4  3  2  0  0  0  0
  4 11  1  0  0  0  0
  5  4  1  0  0  0  0
  6  7  1  0  0  0  0
  6  5  2  0  0  0  0
  7  2  2  0  0  0  0
  8  5  1  0  0  0  0
  8  9  1  0  0  0  0
  9 10  2  0  0  0  0
 11  9  1  6  0  0  0
 11 15  1  0  0  0  0
 11 12  1  0  0  0  0
 12 13  1  0  0  0  0
 13 33  1  6  0  0  0
 13 14  1  0  0  0  0
 13 25  1  0  0  0  0
 14 19  1  0  0  0  0
 14 34  1  1  0  0  0
 15 35  1  6  0  0  0
 15 14  1  0  0  0  0
 16 15  1  0  0  0  0
 16 18  1  0  0  0  0
 17 16  2  0  0  0  0
 18 21  1  0  0  0  0
 18 19  1  0  0  0  0
 19 20  2  0  0  0  0
 21 36  1  0  0  0  0
 21 22  1  0  0  0  0
 22 23  1  0  0  0  0
 22 38  1  0  0  0  0
 23 41  1  0  0  0  0
 23 40  1  0  0  0  0
 24 44  1  0  0  0  0
 24 23  1  0  0  0  0
 25 45  1  6  0  0  0
 25 27  1  0  0  0  0
 25 26  1  0  0  0  0
 27 48  1  0  0  0  0
 27 49  1  0  0  0  0
 29  6  1  0  0  0  0
 30  7  1  0  0  0  0
 31  8  1  0  0  0  0
 32 12  1  0  0  0  0
 37 21  1  0  0  0  0
 39 22  1  0  0  0  0
 42 24  1  0  0  0  0
 43 24  1  0  0  0  0
 46 26  1  0  0  0  0
 47 27  1  0  0  0  0
M  END
>  <Pose>
1

>  <Score>
-5.74

$$$$
