
 OpenBabel03202210193D

 45 48  0  0  1  0  0  0  0  0999 V2000
   18.5030   60.4170   -8.0370 B   0  0  0  0  0  0  0  0  0  0  0  0
   18.6730   61.6880   -9.4520 C   0  0  0  0  0  0  0  0  0  0  0  0
   19.8940   62.0960   -9.9280 C   0  0  0  0  0  0  0  0  0  0  0  0
   20.0570   63.0290  -10.9670 C   0  0  0  0  0  0  0  0  0  0  0  0
   18.9190   63.5390  -11.5160 C   0  0  0  0  0  0  0  0  0  0  0  0
   17.6580   63.1330  -11.0410 C   0  0  0  0  0  0  0  0  0  0  0  0
   17.5320   62.2180  -10.0210 C   0  0  0  0  0  0  0  0  0  0  0  0
   19.2290   64.4570  -12.5560 N   0  0  0  0  0  0  0  0  0  0  0  0
   20.6330   64.5160  -12.6570 C   0  0  0  0  0  0  0  0  0  0  0  0
   21.2930   65.2310  -13.4970 O   0  0  0  0  0  0  0  0  0  0  0  0
   21.1990   63.6180  -11.6340 C   0  0  2  0  0  0  0  0  0  0  0  0
   21.9090   62.5990  -12.4270 N   0  0  0  0  0  0  0  0  0  0  0  0
   23.3060   62.9030  -12.4110 C   0  0  2  0  0  0  0  0  0  0  0  0
   23.5160   63.6140  -11.1250 C   0  0  1  0  0  0  0  0  0  0  0  0
   22.2120   64.2770  -10.7730 C   0  0  2  0  0  0  0  0  0  0  0  0
   22.1150   64.1040   -9.3410 C   0  0  0  0  0  0  0  0  0  0  0  0
   21.3150   64.7310   -8.5860 O   0  0  0  0  0  0  0  0  0  0  0  0
   23.0570   63.1250   -8.9260 N   0  0  0  0  0  0  0  0  0  0  0  0
   23.7260   62.5860  -10.0570 C   0  0  0  0  0  0  0  0  0  0  0  0
   24.3320   61.4970  -10.0800 O   0  0  0  0  0  0  0  0  0  0  0  0
   23.2600   62.7680   -7.5280 C   0  0  0  0  0  0  0  0  0  0  0  0
   24.0980   63.7790   -6.8070 C   0  0  0  0  0  0  0  0  0  0  0  0
   24.9620   63.1740   -5.7320 C   0  0  0  0  0  0  0  0  0  0  0  0
   24.2340   63.4160   -4.4050 C   0  0  0  0  0  0  0  0  0  0  0  0
   23.7990   63.6810  -13.6090 C   0  0  0  0  0  0  0  0  0  0  0  0
   20.7630   61.6670   -9.4700 H   0  0  0  0  0  0  0  0  0  0  0  0
   16.7700   63.5700  -11.5110 H   0  0  0  0  0  0  0  0  0  0  0  0
   16.5680   61.8930   -9.6420 H   0  0  0  0  0  0  0  0  0  0  0  0
   18.5460   65.0050  -13.1570 H   0  0  0  0  0  0  0  0  0  0  0  0
   21.7120   61.6410  -12.0620 H   0  0  0  0  0  0  0  0  0  0  0  0
   23.8670   61.9120  -12.3570 H   0  0  0  0  0  0  0  0  0  0  0  0
   24.3620   64.3370  -11.1470 H   0  0  0  0  0  0  0  0  0  0  0  0
   22.2340   65.3670  -11.0840 H   0  0  0  0  0  0  0  0  0  0  0  0
   22.2890   62.7020   -7.0080 H   0  0  0  0  0  0  0  0  0  0  0  0
   23.7460   61.7630   -7.4850 H   0  0  0  0  0  0  0  0  0  0  0  0
   23.4200   64.4980   -6.3230 H   0  0  0  0  0  0  0  0  0  0  0  0
   24.7670   64.2640   -7.5500 H   0  0  0  0  0  0  0  0  0  0  0  0
   25.9710   63.6460   -5.7030 H   0  0  0  0  0  0  0  0  0  0  0  0
   25.0870   62.1020   -5.8890 H   0  0  0  0  0  0  0  0  0  0  0  0
   24.9460   63.3900   -3.5580 H   0  0  0  0  0  0  0  0  0  0  0  0
   23.6570   64.3540   -4.4650 H   0  0  0  0  0  0  0  0  0  0  0  0
   23.4700   62.5890   -4.3330 H   0  0  0  0  0  0  0  0  0  0  0  0
   24.8190   63.2890  -13.9070 H   0  0  0  0  0  0  0  0  0  0  0  0
   23.1520   63.4690  -14.4570 H   0  0  0  0  0  0  0  0  0  0  0  0
   23.9810   64.7430  -13.3800 H   0  0  0  0  0  0  0  0  0  0  0  0
  2  1  1  0  0  0  0
  3 26  1  0  0  0  0
  3  2  1  0  0  0  0
  4  3  2  0  0  0  0
  5  6  2  0  0  0  0
  5  4  1  0  0  0  0
  6  7  1  0  0  0  0
  7 28  1  0  0  0  0
  7  2  2  0  0  0  0
  8  5  1  0  0  0  0
  9  8  1  0  0  0  0
 10  9  2  0  0  0  0
 11  9  1  6  0  0  0
 11  4  1  0  0  0  0
 11 15  1  0  0  0  0
 12 13  1  0  0  0  0
 12 30  1  0  0  0  0
 12 11  1  0  0  0  0
 13 31  1  1  0  0  0
 13 14  1  0  0  0  0
 14 32  1  6  0  0  0
 14 15  1  0  0  0  0
 14 19  1  0  0  0  0
 15 33  1  6  0  0  0
 15 16  1  0  0  0  0
 16 18  1  0  0  0  0
 16 17  2  0  0  0  0
 18 21  1  0  0  0  0
 19 18  1  0  0  0  0
 20 19  2  0  0  0  0
 21 35  1  0  0  0  0
 21 34  1  0  0  0  0
 21 22  1  0  0  0  0
 22 36  1  0  0  0  0
 22 23  1  0  0  0  0
 23 38  1  0  0  0  0
 23 24  1  0  0  0  0
 24 42  1  0  0  0  0
 24 40  1  0  0  0  0
 25 45  1  0  0  0  0
 25 13  1  0  0  0  0
 27  6  1  0  0  0  0
 29  8  1  0  0  0  0
 37 22  1  0  0  0  0
 39 23  1  0  0  0  0
 41 24  1  0  0  0  0
 43 25  1  0  0  0  0
 44 25  1  0  0  0  0
M  END
>  <Pose>
1

>  <Score>
-4.78

$$$$
