
 OpenBabel03202210193D

 47 50  0  0  1  0  0  0  0  0999 V2000
   15.0200   66.1690   -9.7670 B   0  0  0  0  0  0  0  0  0  0  0  0
   16.0860   64.5970   -9.9370 C   0  0  0  0  0  0  0  0  0  0  0  0
   17.4340   64.5740   -9.6580 C   0  0  0  0  0  0  0  0  0  0  0  0
   18.2080   63.4210   -9.7840 C   0  0  0  0  0  0  0  0  0  0  0  0
   17.6130   62.2580  -10.2040 C   0  0  0  0  0  0  0  0  0  0  0  0
   16.2570   62.2500  -10.4920 C   0  0  0  0  0  0  0  0  0  0  0  0
   15.5040   63.4220  -10.3560 C   0  0  0  0  0  0  0  0  0  0  0  0
   18.5780   61.2030  -10.2580 N   0  0  0  0  0  0  0  0  0  0  0  0
   19.8320   61.7290   -9.8560 C   0  0  0  0  0  0  0  0  0  0  0  0
   20.8710   61.0440   -9.7910 O   0  0  0  0  0  0  0  0  0  0  0  0
   19.6550   63.1400   -9.5560 C   0  0  2  0  0  0  0  0  0  0  0  0
   19.9990   63.3300   -8.1480 N   0  0  0  0  0  0  0  0  0  0  0  0
   20.6810   64.5880   -8.0810 C   0  0  2  0  0  0  0  0  0  0  0  0
   21.4740   64.6310   -9.3360 C   0  0  2  0  0  0  0  0  0  0  0  0
   20.5050   64.0810  -10.3570 C   0  0  1  0  0  0  0  0  0  0  0  0
   21.3490   63.4680  -11.3730 C   0  0  0  0  0  0  0  0  0  0  0  0
   20.9970   63.1680  -12.5340 O   0  0  0  0  0  0  0  0  0  0  0  0
   22.6390   63.2730  -10.8080 N   0  0  0  0  0  0  0  0  0  0  0  0
   22.5880   63.6550   -9.4120 C   0  0  0  0  0  0  0  0  0  0  0  0
   23.3670   63.1920   -8.5620 O   0  0  0  0  0  0  0  0  0  0  0  0
   23.7750   62.7820  -11.5330 C   0  0  0  0  0  0  0  0  0  0  0  0
   24.1850   63.6020  -12.7110 C   0  0  0  0  0  0  0  0  0  0  0  0
   24.9590   62.9030  -13.6230 O   0  0  0  0  0  0  0  0  0  0  0  0
   26.2010   63.5050  -13.8120 C   0  0  0  0  0  0  0  0  0  0  0  0
   21.4580   64.7860   -6.8250 C   0  0  0  0  0  0  0  0  0  0  0  0
   22.0250   66.1390   -6.7970 C   0  0  0  0  0  0  0  0  0  0  0  0
   23.2780   66.2900   -6.7410 O   0  0  0  0  0  0  0  0  0  0  0  0
   21.1800   67.2880   -6.8350 N   0  0  0  0  0  0  0  0  0  0  0  0
   17.8730   65.5100   -9.3300 H   0  0  0  0  0  0  0  0  0  0  0  0
   15.8020   61.3270  -10.8210 H   0  0  0  0  0  0  0  0  0  0  0  0
   14.4470   63.3950  -10.5870 H   0  0  0  0  0  0  0  0  0  0  0  0
   18.3620   60.2100  -10.5540 H   0  0  0  0  0  0  0  0  0  0  0  0
   20.6670   62.5860   -7.8330 H   0  0  0  0  0  0  0  0  0  0  0  0
   19.9520   65.4420   -8.1380 H   0  0  0  0  0  0  0  0  0  0  0  0
   21.8150   65.6570   -9.6030 H   0  0  0  0  0  0  0  0  0  0  0  0
   19.9240   64.9570  -10.7290 H   0  0  0  0  0  0  0  0  0  0  0  0
   23.5360   61.7670  -11.9230 H   0  0  0  0  0  0  0  0  0  0  0  0
   24.6730   62.7280  -10.8600 H   0  0  0  0  0  0  0  0  0  0  0  0
   24.6940   64.5510  -12.4240 H   0  0  0  0  0  0  0  0  0  0  0  0
   23.2600   63.9070  -13.2410 H   0  0  0  0  0  0  0  0  0  0  0  0
   26.7430   62.8640  -14.5620 H   0  0  0  0  0  0  0  0  0  0  0  0
   26.1400   64.5020  -14.2570 H   0  0  0  0  0  0  0  0  0  0  0  0
   26.8290   63.4600  -12.8940 H   0  0  0  0  0  0  0  0  0  0  0  0
   20.9160   64.5590   -5.8950 H   0  0  0  0  0  0  0  0  0  0  0  0
   22.3220   64.0720   -6.8540 H   0  0  0  0  0  0  0  0  0  0  0  0
   20.5290   67.4860   -6.0480 H   0  0  0  0  0  0  0  0  0  0  0  0
   21.2200   67.9260   -7.6550 H   0  0  0  0  0  0  0  0  0  0  0  0
  2  1  1  0  0  0  0
  2  3  1  0  0  0  0
  3 29  1  0  0  0  0
  4  3  2  0  0  0  0
  4 11  1  0  0  0  0
  5  4  1  0  0  0  0
  6  7  1  0  0  0  0
  6  5  2  0  0  0  0
  7  2  2  0  0  0  0
  8  5  1  0  0  0  0
  8  9  1  0  0  0  0
  9 10  2  0  0  0  0
 11  9  1  6  0  0  0
 11 12  1  0  0  0  0
 12 13  1  0  0  0  0
 12 33  1  0  0  0  0
 13 34  1  6  0  0  0
 13 25  1  0  0  0  0
 14 35  1  6  0  0  0
 14 13  1  0  0  0  0
 15 36  1  6  0  0  0
 15 11  1  0  0  0  0
 15 14  1  0  0  0  0
 16 18  1  0  0  0  0
 16 15  1  0  0  0  0
 17 16  2  0  0  0  0
 18 19  1  0  0  0  0
 19 14  1  0  0  0  0
 19 20  2  0  0  0  0
 21 38  1  0  0  0  0
 21 18  1  0  0  0  0
 22 39  1  0  0  0  0
 22 21  1  0  0  0  0
 23 22  1  0  0  0  0
 24 23  1  0  0  0  0
 24 43  1  0  0  0  0
 25 26  1  0  0  0  0
 25 44  1  0  0  0  0
 26 27  2  0  0  0  0
 28 26  1  0  0  0  0
 28 46  1  0  0  0  0
 30  6  1  0  0  0  0
 31  7  1  0  0  0  0
 32  8  1  0  0  0  0
 37 21  1  0  0  0  0
 40 22  1  0  0  0  0
 41 24  1  0  0  0  0
 42 24  1  0  0  0  0
 45 25  1  0  0  0  0
 47 28  1  0  0  0  0
M  END
>  <Pose>
1

>  <Score>
-6.18

$$$$
