
 OpenBabel03202210193D

 37 40  0  0  0  0  0  0  0  0999 V2000
   25.7570   62.9570   -3.8940 B   0  0  0  0  0  0  0  0  0  0  0  0
   24.5510   63.6460   -5.2200 C   0  0  0  0  0  0  0  0  0  0  0  0
   24.2630   62.9110   -6.3510 C   0  0  0  0  0  0  0  0  0  0  0  0
   23.3960   63.4100   -7.3000 C   0  0  0  0  0  0  0  0  0  0  0  0
   22.7830   64.6420   -7.1790 C   0  0  0  0  0  0  0  0  0  0  0  0
   23.0860   65.3720   -6.0320 C   0  0  0  0  0  0  0  0  0  0  0  0
   23.9500   64.8790   -5.0780 C   0  0  0  0  0  0  0  0  0  0  0  0
   21.8830   65.2930   -8.0460 N   0  0  0  0  0  0  0  0  0  0  0  0
   21.5700   66.5750   -7.9450 N   0  0  0  0  0  0  0  0  0  0  0  0
   20.7050   66.8550   -8.9070 N   0  0  0  0  0  0  0  0  0  0  0  0
   20.4800   65.7650   -9.6000 N   0  0  0  0  0  0  0  0  0  0  0  0
   21.2130   64.7480   -9.0820 C   0  0  0  0  0  0  0  0  0  0  0  0
   21.1490   63.4080   -9.6690 C   0  0  0  0  0  0  0  0  0  0  0  0
   22.3060   62.5930   -9.5290 N   0  0  0  0  0  0  0  0  0  0  0  0
   23.2030   62.5030   -8.4330 C   0  0  0  0  0  0  0  0  0  0  0  0
   23.9780   61.5120   -8.3700 O   0  0  0  0  0  0  0  0  0  0  0  0
   19.9770   62.5970   -9.0940 C   0  0  0  0  0  0  0  0  0  0  0  0
   19.4420   61.6900  -10.1730 C   0  0  0  0  0  0  0  0  0  0  0  0
   18.6350   62.4990  -11.0600 N   0  0  0  0  0  0  0  0  0  0  0  0
   19.3710   63.6840  -11.4140 C   0  0  0  0  0  0  0  0  0  0  0  0
   20.8530   63.5620  -11.1560 C   0  0  0  0  0  0  0  0  0  0  0  0
   17.3950   62.8220  -10.3570 C   0  0  0  0  0  0  0  0  0  0  0  0
   24.7020   61.9340   -6.5250 H   0  0  0  0  0  0  0  0  0  0  0  0
   22.6090   66.3360   -5.9310 H   0  0  0  0  0  0  0  0  0  0  0  0
   24.1660   65.4650   -4.1990 H   0  0  0  0  0  0  0  0  0  0  0  0
   22.5200   61.9800  -10.3420 H   0  0  0  0  0  0  0  0  0  0  0  0
   20.3450   61.9230   -8.2740 H   0  0  0  0  0  0  0  0  0  0  0  0
   19.2390   63.2620   -8.6540 H   0  0  0  0  0  0  0  0  0  0  0  0
   20.2950   61.2810  -10.7370 H   0  0  0  0  0  0  0  0  0  0  0  0
   18.8820   60.8560   -9.7470 H   0  0  0  0  0  0  0  0  0  0  0  0
   18.9160   64.5440  -10.9140 H   0  0  0  0  0  0  0  0  0  0  0  0
   19.2480   63.8350  -12.5040 H   0  0  0  0  0  0  0  0  0  0  0  0
   21.2760   62.7640  -11.7640 H   0  0  0  0  0  0  0  0  0  0  0  0
   21.3160   64.5180  -11.4800 H   0  0  0  0  0  0  0  0  0  0  0  0
   17.3750   63.9290  -10.2400 H   0  0  0  0  0  0  0  0  0  0  0  0
   16.5010   62.4540  -10.9030 H   0  0  0  0  0  0  0  0  0  0  0  0
   17.3630   62.3420   -9.3490 H   0  0  0  0  0  0  0  0  0  0  0  0
  2  7  1  0  0  0  0
  2  1  1  0  0  0  0
  3  2  2  0  0  0  0
  4  5  2  0  0  0  0
  4  3  1  0  0  0  0
  5  6  1  0  0  0  0
  6 24  1  0  0  0  0
  6  7  2  0  0  0  0
  7 25  1  0  0  0  0
  8  9  1  0  0  0  0
  8  5  1  0  0  0  0
 10  9  2  0  0  0  0
 11 12  2  0  0  0  0
 11 10  1  0  0  0  0
 12  8  1  0  0  0  0
 13 14  1  0  0  0  0
 13 17  1  0  0  0  0
 13 12  1  0  0  0  0
 14 15  1  0  0  0  0
 15 16  2  0  0  0  0
 15  4  1  0  0  0  0
 17 28  1  0  0  0  0
 17 27  1  0  0  0  0
 18 30  1  0  0  0  0
 18 17  1  0  0  0  0
 19 22  1  0  0  0  0
 19 18  1  0  0  0  0
 20 21  1  0  0  0  0
 20 19  1  0  0  0  0
 20 31  1  0  0  0  0
 21 13  1  0  0  0  0
 22 35  1  0  0  0  0
 22 37  1  0  0  0  0
 23  3  1  0  0  0  0
 26 14  1  0  0  0  0
 29 18  1  0  0  0  0
 32 20  1  0  0  0  0
 33 21  1  0  0  0  0
 34 21  1  0  0  0  0
 36 22  1  0  0  0  0
M  END
>  <Pose>
1

>  <Score>
-5.55

$$$$
