
 OpenBabel03202210193D

 33 36  0  0  1  0  0  0  0  0999 V2000
   16.9880   62.4250   -8.2770 B   0  0  0  0  0  0  0  0  0  0  0  0
   18.5030   62.7490   -9.3750 C   0  0  0  0  0  0  0  0  0  0  0  0
   19.6670   63.1650   -8.7920 C   0  0  0  0  0  0  0  0  0  0  0  0
   20.7820   63.4030   -9.6020 C   0  0  0  0  0  0  0  0  0  0  0  0
   20.6730   63.2140  -10.9390 C   0  0  0  0  0  0  0  0  0  0  0  0
   19.4700   62.7850  -11.5380 C   0  0  0  0  0  0  0  0  0  0  0  0
   18.3770   62.5520  -10.7390 C   0  0  0  0  0  0  0  0  0  0  0  0
   21.7470   63.4350  -11.7830 O   0  0  0  0  0  0  0  0  0  0  0  0
   22.9390   63.8560  -11.2350 C   0  0  0  0  0  0  0  0  0  0  0  0
   23.1200   64.0600   -9.9520 C   0  0  0  0  0  0  0  0  0  0  0  0
   22.0490   63.8530   -8.9870 C   0  0  1  0  0  0  0  0  0  0  0  0
   21.8370   65.0240   -8.1040 C   0  0  0  0  0  0  0  0  0  0  0  0
   22.1140   64.6550   -6.8170 C   0  0  0  0  0  0  0  0  0  0  0  0
   21.9180   65.7360   -6.0060 N   0  0  0  0  0  0  0  0  0  0  0  0
   21.5330   66.7270   -6.7900 N   0  0  0  0  0  0  0  0  0  0  0  0
   21.4700   66.3410   -8.0710 C   0  0  0  0  0  0  0  0  0  0  0  0
   21.0650   67.2320   -9.2000 C   0  0  0  0  0  0  0  0  0  0  0  0
   22.5070   63.3010   -6.7490 N   0  0  0  0  0  0  0  0  0  0  0  0
   22.4760   62.7860   -8.0560 C   0  0  0  0  0  0  0  0  0  0  0  0
   22.7590   61.6130   -8.4180 O   0  0  0  0  0  0  0  0  0  0  0  0
   24.4010   64.5000   -9.4540 C   0  0  0  0  0  0  0  0  0  0  0  0
   25.4240   64.8490   -9.0360 N   0  0  0  0  0  0  0  0  0  0  0  0
   24.0450   64.0820  -12.1250 N   0  0  0  0  0  0  0  0  0  0  0  0
   19.8010   63.3280   -7.7340 H   0  0  0  0  0  0  0  0  0  0  0  0
   19.4130   62.6420  -12.6130 H   0  0  0  0  0  0  0  0  0  0  0  0
   17.4250   62.2220  -11.1280 H   0  0  0  0  0  0  0  0  0  0  0  0
   21.3150   67.6830   -6.4030 H   0  0  0  0  0  0  0  0  0  0  0  0
   21.0380   66.6720  -10.1390 H   0  0  0  0  0  0  0  0  0  0  0  0
   21.7730   68.0970   -9.2400 H   0  0  0  0  0  0  0  0  0  0  0  0
   20.0560   67.6830   -9.0240 H   0  0  0  0  0  0  0  0  0  0  0  0
   22.7750   62.7800   -5.8490 H   0  0  0  0  0  0  0  0  0  0  0  0
   24.0790   64.9580  -12.6910 H   0  0  0  0  0  0  0  0  0  0  0  0
   24.8270   63.3980  -12.2300 H   0  0  0  0  0  0  0  0  0  0  0  0
  2  3  1  0  0  0  0
  2  1  1  0  0  0  0
  3 24  1  0  0  0  0
  4 11  1  0  0  0  0
  4  3  2  0  0  0  0
  5  4  1  0  0  0  0
  6  5  2  0  0  0  0
  6  7  1  0  0  0  0
  7  2  2  0  0  0  0
  8  9  1  0  0  0  0
  8  5  1  0  0  0  0
  9 10  2  0  0  0  0
 10 21  1  0  0  0  0
 11 10  1  6  0  0  0
 11 12  1  0  0  0  0
 11 19  1  0  0  0  0
 12 16  2  0  0  0  0
 12 13  1  0  0  0  0
 13 18  1  0  0  0  0
 13 14  2  0  0  0  0
 15 27  1  0  0  0  0
 15 14  1  0  0  0  0
 16 15  1  0  0  0  0
 17 30  1  0  0  0  0
 17 16  1  0  0  0  0
 18 31  1  0  0  0  0
 19 18  1  0  0  0  0
 20 19  2  0  0  0  0
 21 22  3  0  0  0  0
 23  9  1  0  0  0  0
 25  6  1  0  0  0  0
 26  7  1  0  0  0  0
 28 17  1  0  0  0  0
 29 17  1  0  0  0  0
 32 23  1  0  0  0  0
 33 23  1  0  0  0  0
M  END
>  <Pose>
1

>  <Score>
-3.84

$$$$
