
 OpenBabel03202210193D

 50 53  0  0  0  0  0  0  0  0999 V2000
   12.2370   62.5490  -11.5370 B   0  0  0  0  0  0  0  0  0  0  0  0
   14.0370   63.1310  -11.2210 C   0  0  0  0  0  0  0  0  0  0  0  0
   15.0020   62.2780  -10.7500 C   0  0  0  0  0  0  0  0  0  0  0  0
   16.3110   62.7100  -10.5210 C   0  0  0  0  0  0  0  0  0  0  0  0
   16.6500   64.0110  -10.7690 C   0  0  0  0  0  0  0  0  0  0  0  0
   17.9750   64.1770  -10.4670 N   0  0  0  0  0  0  0  0  0  0  0  0
   18.5170   63.0370  -10.0310 C   0  0  0  0  0  0  0  0  0  0  0  0
   17.4490   62.1050  -10.0690 C   0  0  0  0  0  0  0  0  0  0  0  0
   19.8560   62.7050   -9.5860 C   0  0  0  0  0  0  0  0  0  0  0  0
   20.2630   61.4890   -9.7210 O   0  0  0  0  0  0  0  0  0  0  0  0
   20.7700   63.5890   -9.0110 N   0  0  0  0  0  0  0  0  0  0  0  0
   20.6120   64.2930   -7.7670 C   0  0  0  0  0  0  0  0  0  0  0  0
   21.8460   65.1340   -7.4170 C   0  0  0  0  0  0  0  0  0  0  0  0
   23.0320   64.3070   -7.5840 N   0  0  0  0  0  0  0  0  0  0  0  0
   23.1560   63.4420   -8.7580 C   0  0  0  0  0  0  0  0  0  0  0  0
   22.0460   63.8760   -9.7200 C   0  0  0  0  0  0  0  0  0  0  0  0
   24.0720   64.3190   -6.6290 C   0  0  0  0  0  0  0  0  0  0  0  0
   25.1730   64.8010   -6.9880 O   0  0  0  0  0  0  0  0  0  0  0  0
   23.8260   63.7860   -5.2990 C   0  0  0  0  0  0  0  0  0  0  0  0
   24.7000   62.7040   -4.9020 N   0  0  0  0  0  0  0  0  0  0  0  0
   24.3300   62.2630   -3.5550 C   0  0  0  0  0  0  0  0  0  0  0  0
   25.1970   62.8980   -2.5250 C   0  0  0  0  0  0  0  0  0  0  0  0
   25.5260   64.2010   -2.8920 O   0  0  0  0  0  0  0  0  0  0  0  0
   26.3980   64.2140   -3.9830 C   0  0  0  0  0  0  0  0  0  0  0  0
   26.1050   63.0730   -4.9300 C   0  0  0  0  0  0  0  0  0  0  0  0
   15.6830   64.8780  -11.2440 C   0  0  0  0  0  0  0  0  0  0  0  0
   14.3860   64.4400  -11.4680 C   0  0  0  0  0  0  0  0  0  0  0  0
   14.7620   61.2430  -10.5460 H   0  0  0  0  0  0  0  0  0  0  0  0
   18.4340   65.0910  -10.5890 H   0  0  0  0  0  0  0  0  0  0  0  0
   17.5300   61.0770   -9.7830 H   0  0  0  0  0  0  0  0  0  0  0  0
   20.4800   63.5120   -6.9700 H   0  0  0  0  0  0  0  0  0  0  0  0
   19.7820   65.0140   -7.8290 H   0  0  0  0  0  0  0  0  0  0  0  0
   21.9260   66.0130   -8.0810 H   0  0  0  0  0  0  0  0  0  0  0  0
   21.7420   65.4590   -6.3840 H   0  0  0  0  0  0  0  0  0  0  0  0
   24.1340   63.5920   -9.2660 H   0  0  0  0  0  0  0  0  0  0  0  0
   23.0010   62.3810   -8.5310 H   0  0  0  0  0  0  0  0  0  0  0  0
   22.1120   64.9470   -9.9550 H   0  0  0  0  0  0  0  0  0  0  0  0
   22.0970   63.2960  -10.6410 H   0  0  0  0  0  0  0  0  0  0  0  0
   22.7870   63.3530   -5.2970 H   0  0  0  0  0  0  0  0  0  0  0  0
   23.8300   64.5550   -4.4980 H   0  0  0  0  0  0  0  0  0  0  0  0
   23.2720   62.5630   -3.3610 H   0  0  0  0  0  0  0  0  0  0  0  0
   24.3840   61.1570   -3.5330 H   0  0  0  0  0  0  0  0  0  0  0  0
   24.6080   62.9680   -1.5820 H   0  0  0  0  0  0  0  0  0  0  0  0
   26.1400   62.3310   -2.3320 H   0  0  0  0  0  0  0  0  0  0  0  0
   26.3680   65.2050   -4.4420 H   0  0  0  0  0  0  0  0  0  0  0  0
   27.4200   64.0600   -3.5830 H   0  0  0  0  0  0  0  0  0  0  0  0
   26.4450   63.3200   -5.9240 H   0  0  0  0  0  0  0  0  0  0  0  0
   26.6630   62.1870   -4.5620 H   0  0  0  0  0  0  0  0  0  0  0  0
   15.9560   65.9180  -11.4410 H   0  0  0  0  0  0  0  0  0  0  0  0
   13.6170   65.1240  -11.8450 H   0  0  0  0  0  0  0  0  0  0  0  0
  1  2  1  0  0  0  0
  2  3  1  0  0  0  0
  3 28  1  0  0  0  0
  3  4  2  0  0  0  0
  4  8  1  0  0  0  0
  5  4  1  0  0  0  0
  5  6  1  0  0  0  0
  6  7  1  0  0  0  0
  7  9  1  0  0  0  0
  8  7  2  0  0  0  0
  8 30  1  0  0  0  0
  9 11  1  0  0  0  0
 10  9  2  0  0  0  0
 11 12  1  0  0  0  0
 12 13  1  0  0  0  0
 12 31  1  0  0  0  0
 13 34  1  0  0  0  0
 14 13  1  0  0  0  0
 14 17  1  0  0  0  0
 15 36  1  0  0  0  0
 15 14  1  0  0  0  0
 16 11  1  0  0  0  0
 16 15  1  0  0  0  0
 17 19  1  0  0  0  0
 18 17  2  0  0  0  0
 19 39  1  0  0  0  0
 19 20  1  0  0  0  0
 19 40  1  0  0  0  0
 20 21  1  0  0  0  0
 21 42  1  0  0  0  0
 21 41  1  0  0  0  0
 21 22  1  0  0  0  0
 22 44  1  0  0  0  0
 22 43  1  0  0  0  0
 23 22  1  0  0  0  0
 24 46  1  0  0  0  0
 24 23  1  0  0  0  0
 25 20  1  0  0  0  0
 25 48  1  0  0  0  0
 25 24  1  0  0  0  0
 26  5  2  0  0  0  0
 27 26  1  0  0  0  0
 27  2  2  0  0  0  0
 29  6  1  0  0  0  0
 32 12  1  0  0  0  0
 33 13  1  0  0  0  0
 35 15  1  0  0  0  0
 37 16  1  0  0  0  0
 38 16  1  0  0  0  0
 45 24  1  0  0  0  0
 47 25  1  0  0  0  0
 49 26  1  0  0  0  0
 50 27  1  0  0  0  0
M  END
>  <Pose>
1

>  <Score>
-6.90

$$$$
