
 OpenBabel03202210193D

 41 44  0  0  0  0  0  0  0  0999 V2000
   16.3240   64.8720  -10.5700 B   0  0  0  0  0  0  0  0  0  0  0  0
   18.0340   64.0680  -10.3470 C   0  0  0  0  0  0  0  0  0  0  0  0
   18.8490   64.3960   -9.2830 C   0  0  0  0  0  0  0  0  0  0  0  0
   20.0910   63.8220   -9.1070 C   0  0  0  0  0  0  0  0  0  0  0  0
   20.5160   62.8920  -10.0370 C   0  0  0  0  0  0  0  0  0  0  0  0
   21.7370   62.5050   -9.6270 N   0  0  0  0  0  0  0  0  0  0  0  0
   22.0940   63.1460   -8.4870 C   0  0  0  0  0  0  0  0  0  0  0  0
   21.0590   63.9890   -8.1410 C   0  0  0  0  0  0  0  0  0  0  0  0
   21.1880   64.7400   -7.0290 N   0  0  0  0  0  0  0  0  0  0  0  0
   22.2900   64.6890   -6.2560 C   0  0  0  0  0  0  0  0  0  0  0  0
   23.3100   63.8790   -6.5680 N   0  0  0  0  0  0  0  0  0  0  0  0
   23.2030   63.1240   -7.6700 C   0  0  0  0  0  0  0  0  0  0  0  0
   24.1500   62.3580   -7.9790 O   0  0  0  0  0  0  0  0  0  0  0  0
   24.5190   63.8200   -5.7270 C   0  0  0  0  0  0  0  0  0  0  0  0
   24.5170   62.5900   -4.9040 C   0  0  0  0  0  0  0  0  0  0  0  0
   25.6280   62.3920   -4.0470 N   0  0  0  0  0  0  0  0  0  0  0  0
   26.7460   61.7400   -4.6350 C   0  0  0  0  0  0  0  0  0  0  0  0
   26.7870   60.2620   -4.3700 C   0  0  0  0  0  0  0  0  0  0  0  0
   26.3270   59.9230   -3.0400 N   0  0  0  0  0  0  0  0  0  0  0  0
   26.3260   61.0880   -2.1710 C   0  0  0  0  0  0  0  0  0  0  0  0
   25.2820   62.0300   -2.7190 C   0  0  0  0  0  0  0  0  0  0  0  0
   19.6900   62.5730  -11.0990 C   0  0  0  0  0  0  0  0  0  0  0  0
   18.4460   63.1420  -11.2830 C   0  0  0  0  0  0  0  0  0  0  0  0
   18.5260   65.1240   -8.5480 H   0  0  0  0  0  0  0  0  0  0  0  0
   22.3450   61.8100  -10.1000 H   0  0  0  0  0  0  0  0  0  0  0  0
   22.3760   65.3030   -5.3610 H   0  0  0  0  0  0  0  0  0  0  0  0
   24.4630   64.7340   -5.0940 H   0  0  0  0  0  0  0  0  0  0  0  0
   25.3590   63.9460   -6.4030 H   0  0  0  0  0  0  0  0  0  0  0  0
   23.5850   62.5360   -4.3070 H   0  0  0  0  0  0  0  0  0  0  0  0
   24.4750   61.7050   -5.6040 H   0  0  0  0  0  0  0  0  0  0  0  0
   26.7960   61.9260   -5.7260 H   0  0  0  0  0  0  0  0  0  0  0  0
   27.6710   62.1680   -4.1920 H   0  0  0  0  0  0  0  0  0  0  0  0
   27.8010   59.8340   -4.4990 H   0  0  0  0  0  0  0  0  0  0  0  0
   26.1220   59.7430   -5.0870 H   0  0  0  0  0  0  0  0  0  0  0  0
   25.3870   59.4650   -3.0500 H   0  0  0  0  0  0  0  0  0  0  0  0
   27.3150   61.5610   -2.2390 H   0  0  0  0  0  0  0  0  0  0  0  0
   26.0740   60.7130   -1.1580 H   0  0  0  0  0  0  0  0  0  0  0  0
   25.3030   62.9750   -2.1080 H   0  0  0  0  0  0  0  0  0  0  0  0
   24.2770   61.5720   -2.6190 H   0  0  0  0  0  0  0  0  0  0  0  0
   20.0260   61.8400  -11.8310 H   0  0  0  0  0  0  0  0  0  0  0  0
   17.7940   62.8870  -12.1230 H   0  0  0  0  0  0  0  0  0  0  0  0
  1  2  1  0  0  0  0
  2  3  1  0  0  0  0
  3  4  2  0  0  0  0
  3 24  1  0  0  0  0
  4  8  1  0  0  0  0
  5  6  1  0  0  0  0
  5  4  1  0  0  0  0
  6  7  1  0  0  0  0
  7  8  2  0  0  0  0
  7 12  1  0  0  0  0
  8  9  1  0  0  0  0
  9 10  2  0  0  0  0
 10 26  1  0  0  0  0
 11 10  1  0  0  0  0
 11 14  1  0  0  0  0
 12 11  1  0  0  0  0
 13 12  2  0  0  0  0
 14 27  1  0  0  0  0
 14 15  1  0  0  0  0
 15 29  1  0  0  0  0
 15 16  1  0  0  0  0
 16 21  1  0  0  0  0
 17 18  1  0  0  0  0
 17 32  1  0  0  0  0
 17 16  1  0  0  0  0
 18 19  1  0  0  0  0
 19 20  1  0  0  0  0
 20 37  1  0  0  0  0
 21 39  1  0  0  0  0
 21 20  1  0  0  0  0
 21 38  1  0  0  0  0
 22  5  2  0  0  0  0
 23 22  1  0  0  0  0
 23  2  2  0  0  0  0
 25  6  1  0  0  0  0
 28 14  1  0  0  0  0
 30 15  1  0  0  0  0
 31 17  1  0  0  0  0
 33 18  1  0  0  0  0
 34 18  1  0  0  0  0
 35 19  1  0  0  0  0
 36 20  1  0  0  0  0
 40 22  1  0  0  0  0
 41 23  1  0  0  0  0
M  END
>  <Pose>
1

>  <Score>
-6.50

$$$$
