
 OpenBabel03202210193D

 37 40  0  0  0  0  0  0  0  0999 V2000
   24.4180   63.5070  -13.3950 B   0  0  0  0  0  0  0  0  0  0  0  0
   23.1810   63.4090  -11.9510 C   0  0  0  0  0  0  0  0  0  0  0  0
   23.5750   63.8470  -10.7040 C   0  0  0  0  0  0  0  0  0  0  0  0
   22.6880   63.7880   -9.6210 C   0  0  0  0  0  0  0  0  0  0  0  0
   21.4430   63.2910   -9.8390 C   0  0  0  0  0  0  0  0  0  0  0  0
   21.0040   62.8420  -11.0650 C   0  0  0  0  0  0  0  0  0  0  0  0
   21.8900   62.9090  -12.1090 C   0  0  0  0  0  0  0  0  0  0  0  0
   19.7230   62.3650  -11.1420 C   0  0  0  0  0  0  0  0  0  0  0  0
   19.3140   61.9570  -12.2420 O   0  0  0  0  0  0  0  0  0  0  0  0
   18.8720   62.3220  -10.0470 C   0  0  0  0  0  0  0  0  0  0  0  0
   19.3730   62.7870   -8.8500 C   0  0  0  0  0  0  0  0  0  0  0  0
   20.6550   63.2660   -8.7620 N   0  0  0  0  0  0  0  0  0  0  0  0
   21.4190   63.8020   -7.6580 C   0  0  0  0  0  0  0  0  0  0  0  0
   22.7770   64.1580   -8.1990 C   0  0  0  0  0  0  0  0  0  0  0  0
   17.5090   61.8120  -10.1470 C   0  0  0  0  0  0  0  0  0  0  0  0
   17.3240   60.5760  -10.2230 O   0  0  0  0  0  0  0  0  0  0  0  0
   16.3890   62.7080  -10.1590 N   0  0  0  0  0  0  0  0  0  0  0  0
   15.0520   62.2550  -10.4770 C   0  0  0  0  0  0  0  0  0  0  0  0
   14.5560   63.1610  -11.6120 C   0  0  0  0  0  0  0  0  0  0  0  0
   14.6940   64.4760  -11.2380 O   0  0  0  0  0  0  0  0  0  0  0  0
   16.0000   64.8790  -11.0580 C   0  0  0  0  0  0  0  0  0  0  0  0
   16.5540   64.1140   -9.8520 C   0  0  0  0  0  0  0  0  0  0  0  0
   24.5600   64.2450  -10.5120 H   0  0  0  0  0  0  0  0  0  0  0  0
   21.5700   62.5660  -13.0710 H   0  0  0  0  0  0  0  0  0  0  0  0
   18.7890   62.7930   -7.9460 H   0  0  0  0  0  0  0  0  0  0  0  0
   21.5330   63.0110   -6.8620 H   0  0  0  0  0  0  0  0  0  0  0  0
   20.9160   64.6770   -7.1930 H   0  0  0  0  0  0  0  0  0  0  0  0
   22.9900   65.2430   -8.0540 H   0  0  0  0  0  0  0  0  0  0  0  0
   23.5870   63.5410   -7.7150 H   0  0  0  0  0  0  0  0  0  0  0  0
   14.3800   62.5100   -9.6070 H   0  0  0  0  0  0  0  0  0  0  0  0
   14.9990   61.1980  -10.7570 H   0  0  0  0  0  0  0  0  0  0  0  0
   13.5070   62.9580  -11.8500 H   0  0  0  0  0  0  0  0  0  0  0  0
   15.1500   62.9770  -12.5160 H   0  0  0  0  0  0  0  0  0  0  0  0
   15.9850   65.9480  -10.7670 H   0  0  0  0  0  0  0  0  0  0  0  0
   16.6490   64.6880  -11.9500 H   0  0  0  0  0  0  0  0  0  0  0  0
   15.8210   64.3340   -9.0220 H   0  0  0  0  0  0  0  0  0  0  0  0
   17.5750   64.4010   -9.6100 H   0  0  0  0  0  0  0  0  0  0  0  0
  1  2  1  0  0  0  0
  2  3  1  0  0  0  0
  3 23  1  0  0  0  0
  3  4  2  0  0  0  0
  4 14  1  0  0  0  0
  5  4  1  0  0  0  0
  5 12  1  0  0  0  0
  6  5  2  0  0  0  0
  7  2  2  0  0  0  0
  7  6  1  0  0  0  0
  8  6  1  0  0  0  0
  8 10  1  0  0  0  0
  9  8  2  0  0  0  0
 10 11  2  0  0  0  0
 11 12  1  0  0  0  0
 11 25  1  0  0  0  0
 12 13  1  0  0  0  0
 13 27  1  0  0  0  0
 13 26  1  0  0  0  0
 14 28  1  0  0  0  0
 14 29  1  0  0  0  0
 14 13  1  0  0  0  0
 15 10  1  0  0  0  0
 16 15  2  0  0  0  0
 17 15  1  0  0  0  0
 17 22  1  0  0  0  0
 18 17  1  0  0  0  0
 18 30  1  0  0  0  0
 19 20  1  0  0  0  0
 19 18  1  0  0  0  0
 20 21  1  0  0  0  0
 21 34  1  0  0  0  0
 21 22  1  0  0  0  0
 22 37  1  0  0  0  0
 22 36  1  0  0  0  0
 24  7  1  0  0  0  0
 31 18  1  0  0  0  0
 32 19  1  0  0  0  0
 33 19  1  0  0  0  0
 35 21  1  0  0  0  0
M  END
>  <Pose>
1

>  <Score>
-6.23

$$$$
