
 OpenBabel03202210193D

 55 58  0  0  0  0  0  0  0  0999 V2000
   24.9400   63.2290   -2.3530 B   0  0  0  0  0  0  0  0  0  0  0  0
   24.5740   63.1090   -4.1980 C   0  0  0  0  0  0  0  0  0  0  0  0
   23.6210   63.9170   -4.7960 C   0  0  0  0  0  0  0  0  0  0  0  0
   23.3250   63.8390   -6.1260 C   0  0  0  0  0  0  0  0  0  0  0  0
   22.4700   64.5840   -6.8900 N   0  0  0  0  0  0  0  0  0  0  0  0
   22.6010   64.1620   -8.1600 C   0  0  0  0  0  0  0  0  0  0  0  0
   23.5430   63.0990   -8.2010 C   0  0  0  0  0  0  0  0  0  0  0  0
   23.9700   62.9460   -6.9070 C   0  0  0  0  0  0  0  0  0  0  0  0
   24.9370   62.1210   -6.3280 C   0  0  0  0  0  0  0  0  0  0  0  0
   25.2500   62.1910   -4.9780 C   0  0  0  0  0  0  0  0  0  0  0  0
   26.2250   61.3810   -4.3680 O   0  0  0  0  0  0  0  0  0  0  0  0
   23.8590   62.2140   -9.3300 C   0  0  0  0  0  0  0  0  0  0  0  0
   23.8250   60.9720   -9.1160 O   0  0  0  0  0  0  0  0  0  0  0  0
   24.1720   62.6150  -10.5860 O   0  0  0  0  0  0  0  0  0  0  0  0
   23.3990   63.1230  -11.6130 C   0  0  0  0  0  0  0  0  0  0  0  0
   24.1820   63.5280  -12.8550 C   0  0  0  0  0  0  0  0  0  0  0  0
   21.9910   64.6830   -9.3830 C   0  0  0  0  0  0  0  0  0  0  0  0
   20.7370   64.1480   -9.8140 N   0  0  0  0  0  4  0  0  0  0  0  0
   19.6860   63.6760   -9.1010 C   0  0  0  0  0  0  0  0  0  0  0  0
   19.0400   62.5310   -9.9180 C   0  0  0  0  0  0  0  0  0  0  0  0
   19.4550   62.9440  -11.3280 C   0  0  0  0  0  0  0  0  0  0  0  0
   20.8950   63.3390  -11.0340 C   0  0  0  0  0  0  0  0  0  0  0  0
   21.4190   65.4130   -6.2690 C   0  0  0  0  0  0  0  0  0  0  0  0
   21.8310   66.8740   -6.5620 C   0  0  0  0  0  0  0  0  0  0  0  0
   23.1250   67.1870   -6.2650 C   0  0  0  0  0  0  0  0  0  0  0  0
   23.5760   68.4940   -6.5160 C   0  0  0  0  0  0  0  0  0  0  0  0
   22.7770   69.4600   -7.0500 C   0  0  0  0  0  0  0  0  0  0  0  0
   21.4630   69.0900   -7.3400 C   0  0  0  0  0  0  0  0  0  0  0  0
   20.9990   67.7930   -7.0900 C   0  0  0  0  0  0  0  0  0  0  0  0
   23.0880   64.6550   -4.1990 H   0  0  0  0  0  0  0  0  0  0  0  0
   25.4830   61.4070   -6.9510 H   0  0  0  0  0  0  0  0  0  0  0  0
   26.1570   60.3580   -4.4650 H   0  0  0  0  0  0  0  0  0  0  0  0
   22.7050   62.2970  -11.9500 H   0  0  0  0  0  0  0  0  0  0  0  0
   22.7840   63.9740  -11.3040 H   0  0  0  0  0  0  0  0  0  0  0  0
   23.4960   63.6090  -13.7270 H   0  0  0  0  0  0  0  0  0  0  0  0
   24.6710   64.5150  -12.7440 H   0  0  0  0  0  0  0  0  0  0  0  0
   24.9830   62.7840  -13.1040 H   0  0  0  0  0  0  0  0  0  0  0  0
   21.8630   65.7700   -9.3020 H   0  0  0  0  0  0  0  0  0  0  0  0
   22.7150   64.4630  -10.2570 H   0  0  0  0  0  0  0  0  0  0  0  0
   20.3240   65.1090  -10.3590 H   0  0  0  0  0  0  0  0  0  0  0  0
   18.7880   64.4310   -9.0490 H   0  0  0  0  0  0  0  0  0  0  0  0
   19.7810   63.3100   -8.0840 H   0  0  0  0  0  0  0  0  0  0  0  0
   17.9670   62.4970   -9.7600 H   0  0  0  0  0  0  0  0  0  0  0  0
   19.5860   61.6330   -9.6830 H   0  0  0  0  0  0  0  0  0  0  0  0
   18.8320   63.8130  -11.5880 H   0  0  0  0  0  0  0  0  0  0  0  0
   19.3480   62.1330  -12.0310 H   0  0  0  0  0  0  0  0  0  0  0  0
   21.4570   62.4320  -10.7820 H   0  0  0  0  0  0  0  0  0  0  0  0
   21.3600   63.9030  -11.8570 H   0  0  0  0  0  0  0  0  0  0  0  0
   21.2720   65.3370   -5.2280 H   0  0  0  0  0  0  0  0  0  0  0  0
   20.5000   65.2840   -6.8560 H   0  0  0  0  0  0  0  0  0  0  0  0
   23.8160   66.4680   -5.8500 H   0  0  0  0  0  0  0  0  0  0  0  0
   24.6010   68.7760   -6.2850 H   0  0  0  0  0  0  0  0  0  0  0  0
   23.1380   70.4680   -7.2420 H   0  0  0  0  0  0  0  0  0  0  0  0
   20.8220   69.8270   -7.7750 H   0  0  0  0  0  0  0  0  0  0  0  0
   19.9910   67.5620   -7.3230 H   0  0  0  0  0  0  0  0  0  0  0  0
  2  1  1  0  0  0  0
  3 30  1  0  0  0  0
  3  2  1  0  0  0  0
  4  3  2  0  0  0  0
  5 23  1  0  0  0  0
  5  4  1  0  0  0  0
  6  5  1  0  0  0  0
  7  6  2  0  0  0  0
  7  8  1  0  0  0  0
  8  9  2  0  0  0  0
  8  4  1  0  0  0  0
  9 10  1  0  0  0  0
 10 11  1  0  0  0  0
 10  2  2  0  0  0  0
 12 13  2  0  0  0  0
 12  7  1  0  0  0  0
 14 12  1  0  0  0  0
 15 34  1  0  0  0  0
 15 14  1  0  0  0  0
 16 36  1  0  0  0  0
 16 15  1  0  0  0  0
 17 38  1  0  0  0  0
 17  6  1  0  0  0  0
 18 17  1  0  0  0  0
 18 19  1  0  0  0  0
 19 41  1  0  0  0  0
 19 42  1  0  0  0  0
 20 43  1  0  0  0  0
 20 44  1  0  0  0  0
 20 19  1  0  0  0  0
 21 22  1  0  0  0  0
 21 20  1  0  0  0  0
 22 47  1  0  0  0  0
 22 18  1  0  0  0  0
 23 49  1  0  0  0  0
 24 23  1  0  0  0  0
 24 25  1  0  0  0  0
 25 51  1  0  0  0  0
 26 52  1  0  0  0  0
 26 25  2  0  0  0  0
 27 26  1  0  0  0  0
 28 29  1  0  0  0  0
 28 27  2  0  0  0  0
 29 24  2  0  0  0  0
 31  9  1  0  0  0  0
 32 11  1  0  0  0  0
 33 15  1  0  0  0  0
 35 16  1  0  0  0  0
 37 16  1  0  0  0  0
 39 17  1  0  0  0  0
 40 18  1  0  0  0  0
 45 21  1  0  0  0  0
 46 21  1  0  0  0  0
 48 22  1  0  0  0  0
 50 23  1  0  0  0  0
 53 27  1  0  0  0  0
 54 28  1  0  0  0  0
 55 29  1  0  0  0  0
M  END
>  <Pose>
1

>  <Score>
-6.11

$$$$
