
 OpenBabel03202210193D

 58 61  0  0  0  0  0  0  0  0999 V2000
   14.8190   61.0510  -10.7420 B   0  0  0  0  0  0  0  0  0  0  0  0
   14.5350   62.7830  -11.5300 C   0  0  0  0  0  0  0  0  0  0  0  0
   13.5790   63.1260  -12.4470 C   0  0  0  0  0  0  0  0  0  0  0  0
   13.7420   64.4240  -12.7190 N   0  0  0  0  0  0  0  0  0  0  0  0
   14.7440   64.8840  -12.0180 N   0  0  0  0  0  0  0  0  0  0  0  0
   15.3040   63.9140  -11.2380 C   0  0  0  0  0  0  0  0  0  0  0  0
   16.4170   64.0100  -10.3280 C   0  0  0  0  0  0  0  0  0  0  0  0
   16.7360   65.2000   -9.9660 O   0  0  0  0  0  0  0  0  0  0  0  0
   17.1560   62.9740   -9.8220 N   0  0  0  0  0  0  0  0  0  0  0  0
   17.7800   61.9380  -10.5860 C   0  0  0  0  0  0  0  0  0  0  0  0
   19.2580   62.1530  -10.5680 C   0  0  0  0  0  0  0  0  0  0  0  0
   19.6800   62.8610   -9.3690 N   0  0  0  0  0  0  0  0  0  0  0  0
   18.9140   62.8980   -8.1680 C   0  0  0  0  0  0  0  0  0  0  0  0
   17.4040   62.8340   -8.3720 C   0  0  0  0  0  0  0  0  0  0  0  0
   20.9170   63.5740   -9.5290 C   0  0  0  0  0  0  0  0  0  0  0  0
   21.0580   64.2580  -10.6270 O   0  0  0  0  0  0  0  0  0  0  0  0
   21.9800   63.5840   -8.5860 C   0  0  0  0  0  0  0  0  0  0  0  0
   23.0410   62.6890   -8.6290 N   0  0  0  0  0  0  0  0  0  0  0  0
   23.8230   62.8880   -7.6190 N   0  0  0  0  0  0  0  0  0  0  0  0
   23.3800   63.8790   -6.8510 C   0  0  0  0  0  0  0  0  0  0  0  0
   22.1970   64.3220   -7.4760 C   0  0  0  0  0  0  0  0  0  0  0  0
   23.9550   64.4430   -5.6430 C   0  0  0  0  0  0  0  0  0  0  0  0
   23.8230   65.7090   -5.4880 O   0  0  0  0  0  0  0  0  0  0  0  0
   24.6250   63.7310   -4.6610 N   0  0  0  0  0  0  0  0  0  0  0  0
   25.9400   63.1720   -4.9910 C   0  0  0  0  0  0  0  0  0  0  0  0
   25.8620   61.7010   -4.6410 C   0  0  0  0  0  0  0  0  0  0  0  0
   25.7310   61.6590   -3.2400 O   0  0  0  0  0  0  0  0  0  0  0  0
   24.4800   62.0760   -2.8770 C   0  0  0  0  0  0  0  0  0  0  0  0
   24.1220   63.4800   -3.3470 C   0  0  0  0  0  0  0  0  0  0  0  0
   23.2510   61.6850   -9.6450 C   0  0  0  0  0  0  0  0  0  0  0  0
   12.8880   65.1240  -13.6710 C   0  0  0  0  0  0  0  0  0  0  0  0
   13.6610   65.7600  -14.7960 C   0  0  0  0  0  0  0  0  0  0  0  0
   12.8350   62.4480  -12.8640 H   0  0  0  0  0  0  0  0  0  0  0  0
   17.6060   60.9550  -10.0490 H   0  0  0  0  0  0  0  0  0  0  0  0
   17.4620   61.8550  -11.6380 H   0  0  0  0  0  0  0  0  0  0  0  0
   19.5940   62.7840  -11.4390 H   0  0  0  0  0  0  0  0  0  0  0  0
   19.7380   61.1460  -10.6200 H   0  0  0  0  0  0  0  0  0  0  0  0
   19.0430   63.9630   -7.7770 H   0  0  0  0  0  0  0  0  0  0  0  0
   19.2040   62.2190   -7.3710 H   0  0  0  0  0  0  0  0  0  0  0  0
   16.8400   63.5720   -7.8170 H   0  0  0  0  0  0  0  0  0  0  0  0
   17.0830   61.8180   -8.1040 H   0  0  0  0  0  0  0  0  0  0  0  0
   21.5990   65.1040   -7.0580 H   0  0  0  0  0  0  0  0  0  0  0  0
   26.6620   63.7040   -4.3360 H   0  0  0  0  0  0  0  0  0  0  0  0
   26.2010   63.2980   -6.0440 H   0  0  0  0  0  0  0  0  0  0  0  0
   24.9560   61.2730   -5.0910 H   0  0  0  0  0  0  0  0  0  0  0  0
   26.7990   61.1810   -4.9430 H   0  0  0  0  0  0  0  0  0  0  0  0
   23.7250   61.3800   -3.3010 H   0  0  0  0  0  0  0  0  0  0  0  0
   24.3750   62.0080   -1.7800 H   0  0  0  0  0  0  0  0  0  0  0  0
   23.0160   63.5190   -3.3610 H   0  0  0  0  0  0  0  0  0  0  0  0
   24.5360   64.2050   -2.6350 H   0  0  0  0  0  0  0  0  0  0  0  0
   22.5920   60.8240   -9.5250 H   0  0  0  0  0  0  0  0  0  0  0  0
   23.1580   62.1340  -10.6610 H   0  0  0  0  0  0  0  0  0  0  0  0
   24.2940   61.3200   -9.5810 H   0  0  0  0  0  0  0  0  0  0  0  0
   12.1220   64.4370  -14.1000 H   0  0  0  0  0  0  0  0  0  0  0  0
   12.3170   65.9290  -13.1520 H   0  0  0  0  0  0  0  0  0  0  0  0
   14.5060   65.1060  -15.1060 H   0  0  0  0  0  0  0  0  0  0  0  0
   12.9810   65.8410  -15.6700 H   0  0  0  0  0  0  0  0  0  0  0  0
   13.9720   66.7800  -14.5070 H   0  0  0  0  0  0  0  0  0  0  0  0
  2  6  1  0  0  0  0
  2  1  1  0  0  0  0
  3  2  2  0  0  0  0
  4  3  1  0  0  0  0
  4  5  1  0  0  0  0
  5  6  2  0  0  0  0
  6  7  1  0  0  0  0
  7  8  2  0  0  0  0
  7  9  1  0  0  0  0
  9 14  1  0  0  0  0
 10 11  1  0  0  0  0
 10 34  1  0  0  0  0
 10  9  1  0  0  0  0
 11 12  1  0  0  0  0
 12 13  1  0  0  0  0
 13 38  1  0  0  0  0
 13 39  1  0  0  0  0
 14 13  1  0  0  0  0
 14 41  1  0  0  0  0
 14 40  1  0  0  0  0
 15 12  1  0  0  0  0
 15 17  1  0  0  0  0
 16 15  2  0  0  0  0
 17 21  2  0  0  0  0
 18 17  1  0  0  0  0
 18 19  1  0  0  0  0
 19 20  2  0  0  0  0
 20 22  1  0  0  0  0
 21 42  1  0  0  0  0
 21 20  1  0  0  0  0
 22 23  2  0  0  0  0
 22 24  1  0  0  0  0
 24 29  1  0  0  0  0
 25 24  1  0  0  0  0
 25 26  1  0  0  0  0
 25 43  1  0  0  0  0
 26 27  1  0  0  0  0
 27 28  1  0  0  0  0
 28 48  1  0  0  0  0
 29 28  1  0  0  0  0
 29 50  1  0  0  0  0
 30 53  1  0  0  0  0
 30 51  1  0  0  0  0
 30 18  1  0  0  0  0
 31 55  1  0  0  0  0
 31  4  1  0  0  0  0
 32 58  1  0  0  0  0
 32 31  1  0  0  0  0
 33  3  1  0  0  0  0
 35 10  1  0  0  0  0
 36 11  1  0  0  0  0
 37 11  1  0  0  0  0
 44 25  1  0  0  0  0
 45 26  1  0  0  0  0
 46 26  1  0  0  0  0
 47 28  1  0  0  0  0
 49 29  1  0  0  0  0
 52 30  1  0  0  0  0
 54 31  1  0  0  0  0
 56 32  1  0  0  0  0
 57 32  1  0  0  0  0
M  END
>  <Pose>
1

>  <Score>
-7.43

$$$$
