
 OpenBabel03202210193D

 47 50  0  0  0  0  0  0  0  0999 V2000
   24.3990   63.2800   -3.2450 B   0  0  0  0  0  0  0  0  0  0  0  0
   23.9670   63.7220   -5.0520 C   0  0  0  0  0  0  0  0  0  0  0  0
   22.9110   64.4800   -5.5030 C   0  0  0  0  0  0  0  0  0  0  0  0
   22.9850   64.5440   -6.8290 N   0  0  0  0  0  0  0  0  0  0  0  0
   24.0550   63.8470   -7.2040 N   0  0  0  0  0  0  0  0  0  0  0  0
   24.6950   63.3220   -6.1480 C   0  0  0  0  0  0  0  0  0  0  0  0
   22.0650   65.2460   -7.7440 C   0  0  0  0  0  0  0  0  0  0  0  0
   21.0790   64.2370   -8.2160 C   0  0  0  0  0  0  0  0  0  0  0  0
   20.7820   63.2920   -7.4160 O   0  0  0  0  0  0  0  0  0  0  0  0
   20.5140   64.3270   -9.4700 N   0  0  0  0  0  0  0  0  0  0  0  0
   20.0780   63.2680  -10.3620 C   0  0  0  0  0  0  0  0  0  0  0  0
   18.6090   63.1200  -10.4240 C   0  0  0  0  0  0  0  0  0  0  0  0
   17.7750   64.1640  -10.7350 C   0  0  0  0  0  0  0  0  0  0  0  0
   16.4060   63.9860  -10.8270 C   0  0  0  0  0  0  0  0  0  0  0  0
   15.8360   62.7520  -10.6090 C   0  0  0  0  0  0  0  0  0  0  0  0
   16.6800   61.6710  -10.2900 C   0  0  0  0  0  0  0  0  0  0  0  0
   18.0360   61.8480  -10.1980 C   0  0  0  0  0  0  0  0  0  0  0  0
   18.9020   60.7170   -9.8560 C   0  0  0  0  0  0  0  0  0  0  0  0
   18.3750   59.3570  -10.0840 C   0  0  0  0  0  0  0  0  0  0  0  0
   16.9390   59.2350   -9.8660 N   0  0  0  0  0  0  0  0  0  0  0  0
   16.0910   60.3470  -10.1220 C   0  0  0  0  0  0  0  0  0  0  0  0
   14.8390   60.1620  -10.1980 O   0  0  0  0  0  0  0  0  0  0  0  0
   16.4550   57.9530   -9.4100 C   0  0  0  0  0  0  0  0  0  0  0  0
   14.4720   62.5370  -10.6890 O   0  0  0  0  0  0  0  0  0  0  0  0
   13.8230   62.4170  -11.9380 C   0  0  0  0  0  0  0  0  0  0  0  0
   15.8720   65.2190  -11.1480 O   0  0  0  0  0  0  0  0  0  0  0  0
   16.8580   66.2170  -11.0830 C   0  0  0  0  0  0  0  0  0  0  0  0
   18.0960   65.5140  -11.0040 O   0  0  0  0  0  0  0  0  0  0  0  0
   22.1640   64.9290   -4.8450 H   0  0  0  0  0  0  0  0  0  0  0  0
   25.5840   62.7130   -6.1050 H   0  0  0  0  0  0  0  0  0  0  0  0
   22.6790   65.6270   -8.5970 H   0  0  0  0  0  0  0  0  0  0  0  0
   21.5700   66.0890   -7.2650 H   0  0  0  0  0  0  0  0  0  0  0  0
   20.3650   65.3030   -9.8800 H   0  0  0  0  0  0  0  0  0  0  0  0
   20.4660   62.3420   -9.8160 H   0  0  0  0  0  0  0  0  0  0  0  0
   20.5660   63.2770  -11.3390 H   0  0  0  0  0  0  0  0  0  0  0  0
   19.3510   60.7960   -8.8420 H   0  0  0  0  0  0  0  0  0  0  0  0
   19.8070   60.8070  -10.5410 H   0  0  0  0  0  0  0  0  0  0  0  0
   18.5540   59.0420  -11.1540 H   0  0  0  0  0  0  0  0  0  0  0  0
   18.9470   58.6340   -9.4400 H   0  0  0  0  0  0  0  0  0  0  0  0
   17.0760   57.1500   -9.8750 H   0  0  0  0  0  0  0  0  0  0  0  0
   16.6050   57.9090   -8.3160 H   0  0  0  0  0  0  0  0  0  0  0  0
   15.3770   57.8000   -9.6060 H   0  0  0  0  0  0  0  0  0  0  0  0
   14.3830   63.0760  -12.6580 H   0  0  0  0  0  0  0  0  0  0  0  0
   12.7730   62.7710  -11.9040 H   0  0  0  0  0  0  0  0  0  0  0  0
   13.8290   61.3590  -12.3140 H   0  0  0  0  0  0  0  0  0  0  0  0
   16.7830   66.8480  -10.1690 H   0  0  0  0  0  0  0  0  0  0  0  0
   16.9020   66.8080  -12.0240 H   0  0  0  0  0  0  0  0  0  0  0  0
  2  1  1  0  0  0  0
  3  2  2  0  0  0  0
  3 29  1  0  0  0  0
  4  3  1  0  0  0  0
  5  4  1  0  0  0  0
  5  6  2  0  0  0  0
  6 30  1  0  0  0  0
  6  2  1  0  0  0  0
  7 32  1  0  0  0  0
  7  4  1  0  0  0  0
  8  7  1  0  0  0  0
  8  9  2  0  0  0  0
 10  8  1  0  0  0  0
 11 34  1  0  0  0  0
 11 10  1  0  0  0  0
 12 11  1  0  0  0  0
 12 17  1  0  0  0  0
 13 12  2  0  0  0  0
 14 13  1  0  0  0  0
 14 15  2  0  0  0  0
 15 16  1  0  0  0  0
 16 17  2  0  0  0  0
 16 21  1  0  0  0  0
 17 18  1  0  0  0  0
 18 36  1  0  0  0  0
 19 20  1  0  0  0  0
 19 18  1  0  0  0  0
 19 39  1  0  0  0  0
 20 23  1  0  0  0  0
 21 20  1  0  0  0  0
 22 21  2  0  0  0  0
 23 41  1  0  0  0  0
 24 15  1  0  0  0  0
 25 44  1  0  0  0  0
 25 24  1  0  0  0  0
 26 27  1  0  0  0  0
 26 14  1  0  0  0  0
 27 28  1  0  0  0  0
 27 46  1  0  0  0  0
 28 13  1  0  0  0  0
 31  7  1  0  0  0  0
 33 10  1  0  0  0  0
 35 11  1  0  0  0  0
 37 18  1  0  0  0  0
 38 19  1  0  0  0  0
 40 23  1  0  0  0  0
 42 23  1  0  0  0  0
 43 25  1  0  0  0  0
 45 25  1  0  0  0  0
 47 27  1  0  0  0  0
M  END
>  <Pose>
1

>  <Score>
-6.37

$$$$
