
 OpenBabel03202210193D

 33 37  0  0  0  0  0  0  0  0999 V2000
   23.2910   69.6760   -6.3150 B   0  0  0  0  0  0  0  0  0  0  0  0
   22.8360   67.8680   -6.6300 C   0  0  0  0  0  0  0  0  0  0  0  0
   23.6890   66.8620   -7.0380 C   0  0  0  0  0  0  0  0  0  0  0  0
   22.9790   65.7270   -7.1460 N   0  0  0  0  0  0  0  0  0  0  0  0
   21.7250   65.9870   -6.8240 N   0  0  0  0  0  0  0  0  0  0  0  0
   21.5920   67.2940   -6.4990 C   0  0  0  0  0  0  0  0  0  0  0  0
   23.4910   64.4330   -7.5460 C   0  0  0  0  0  0  0  0  0  0  0  0
   22.6440   63.8160   -8.5720 N   0  0  0  0  0  0  0  0  0  0  0  0
   21.4330   63.3270   -8.3700 N   0  0  0  0  0  0  0  0  0  0  0  0
   20.9160   62.8300   -9.5070 C   0  0  0  0  0  0  0  0  0  0  0  0
   21.8840   63.0320  -10.4680 C   0  0  0  0  0  0  0  0  0  0  0  0
   22.9720   63.6550   -9.8650 C   0  0  0  0  0  0  0  0  0  0  0  0
   19.6100   62.2050   -9.7080 C   0  0  0  0  0  0  0  0  0  0  0  0
   19.3220   60.9020   -9.5640 N   0  0  0  0  0  0  0  0  0  0  0  0
   18.0340   60.6840   -9.8270 N   0  0  0  0  0  0  0  0  0  0  0  0
   17.4750   61.8850  -10.1520 C   0  0  0  0  0  0  0  0  0  0  0  0
   18.4620   62.7990  -10.0710 N   0  0  0  0  0  0  0  0  0  0  0  0
   16.1340   61.9200  -10.4690 C   0  0  0  0  0  0  0  0  0  0  0  0
   15.3380   60.7880  -10.4700 C   0  0  0  0  0  0  0  0  0  0  0  0
   14.0860   61.1300  -10.8160 N   0  0  0  0  0  0  0  0  0  0  0  0
   14.0830   62.4360  -11.0280 N   0  0  0  0  0  0  0  0  0  0  0  0
   15.3120   62.9550  -10.8270 C   0  0  0  0  0  0  0  0  0  0  0  0
   15.9320   59.6280  -10.1450 N   0  0  0  0  0  0  0  0  0  0  0  0
   17.2390   59.5990   -9.8370 C   0  0  0  0  0  0  0  0  0  0  0  0
   24.7330   67.0020   -7.2250 H   0  0  0  0  0  0  0  0  0  0  0  0
   20.7030   67.8080   -6.1960 H   0  0  0  0  0  0  0  0  0  0  0  0
   23.5610   63.7260   -6.6890 H   0  0  0  0  0  0  0  0  0  0  0  0
   24.5450   64.5230   -7.9380 H   0  0  0  0  0  0  0  0  0  0  0  0
   21.7880   62.7460  -11.5020 H   0  0  0  0  0  0  0  0  0  0  0  0
   23.9030   63.9610  -10.3210 H   0  0  0  0  0  0  0  0  0  0  0  0
   13.2550   60.5070  -10.9090 H   0  0  0  0  0  0  0  0  0  0  0  0
   15.6330   63.9950  -10.9210 H   0  0  0  0  0  0  0  0  0  0  0  0
   17.6790   58.6460   -9.5800 H   0  0  0  0  0  0  0  0  0  0  0  0
  2  6  1  0  0  0  0
  2  1  1  0  0  0  0
  3  2  2  0  0  0  0
  4  3  1  0  0  0  0
  4  5  1  0  0  0  0
  5  6  2  0  0  0  0
  6 26  1  0  0  0  0
  7  4  1  0  0  0  0
  7 27  1  0  0  0  0
  8  9  1  0  0  0  0
  8  7  1  0  0  0  0
 10  9  2  0  0  0  0
 11 12  2  0  0  0  0
 11 10  1  0  0  0  0
 12  8  1  0  0  0  0
 13 14  2  0  0  0  0
 13 10  1  0  0  0  0
 15 14  1  0  0  0  0
 16 17  2  0  0  0  0
 16 15  1  0  0  0  0
 17 13  1  0  0  0  0
 18 16  1  0  0  0  0
 19 18  2  0  0  0  0
 19 23  1  0  0  0  0
 20 19  1  0  0  0  0
 21 22  2  0  0  0  0
 21 20  1  0  0  0  0
 22 18  1  0  0  0  0
 23 24  2  0  0  0  0
 24 15  1  0  0  0  0
 24 33  1  0  0  0  0
 25  3  1  0  0  0  0
 28  7  1  0  0  0  0
 29 11  1  0  0  0  0
 30 12  1  0  0  0  0
 31 20  1  0  0  0  0
 32 22  1  0  0  0  0
M  END
>  <Pose>
1

>  <Score>
-8.97

$$$$
