
 OpenBabel03202210193D

 42 45  0  0  0  0  0  0  0  0999 V2000
   12.0370   62.7350  -11.3720 B   0  0  0  0  0  0  0  0  0  0  0  0
   13.8220   62.1600  -10.9340 C   0  0  0  0  0  0  0  0  0  0  0  0
   14.9700   62.9210  -10.9370 C   0  0  0  0  0  0  0  0  0  0  0  0
   16.0140   62.1550  -10.5730 N   0  0  0  0  0  0  0  0  0  0  0  0
   15.5350   60.9500  -10.3480 N   0  0  0  0  0  0  0  0  0  0  0  0
   14.2200   60.8980  -10.5510 C   0  0  0  0  0  0  0  0  0  0  0  0
   17.3790   62.5230  -10.4410 C   0  0  0  0  0  0  0  0  0  0  0  0
   17.7340   63.8270  -10.1940 C   0  0  0  0  0  0  0  0  0  0  0  0
   19.0420   64.2090  -10.0620 C   0  0  0  0  0  0  0  0  0  0  0  0
   20.1160   63.3020  -10.1690 C   0  0  0  0  0  0  0  0  0  0  0  0
   19.7480   62.0010  -10.4180 C   0  0  0  0  0  0  0  0  0  0  0  0
   18.4030   61.6210  -10.5500 C   0  0  0  0  0  0  0  0  0  0  0  0
   21.4710   63.7940  -10.0590 C   0  0  0  0  0  0  0  0  0  0  0  0
   22.3410   63.1150  -10.7360 O   0  0  0  0  0  0  0  0  0  0  0  0
   21.9720   64.8700   -9.3460 N   0  0  0  0  0  0  0  0  0  0  0  0
   21.4010   65.6620   -8.2900 C   0  0  0  0  0  0  0  0  0  0  0  0
   21.9900   65.1580   -6.9870 C   0  0  0  0  0  0  0  0  0  0  0  0
   23.4480   64.7880   -7.1740 C   0  0  0  0  0  0  0  0  0  0  0  0
   24.1510   65.2040   -5.9800 N   0  0  0  0  0  0  0  0  0  0  0  0
   24.0290   64.1660   -5.0190 C   0  0  0  0  0  0  0  0  0  0  0  0
   24.1800   64.2430   -3.7560 O   0  0  0  0  0  0  0  0  0  0  0  0
   23.6960   62.9720   -5.7440 N   0  0  0  0  0  0  0  0  0  0  0  0
   23.6230   63.3240   -7.1420 C   0  0  0  0  0  0  0  0  0  0  0  0
   23.7000   62.5020   -8.0800 O   0  0  0  0  0  0  0  0  0  0  0  0
   24.0840   65.4510   -8.3530 C   0  0  0  0  0  0  0  0  0  0  0  0
   23.3730   65.2970   -9.6550 C   0  0  0  0  0  0  0  0  0  0  0  0
   15.0200   63.9710  -11.1950 H   0  0  0  0  0  0  0  0  0  0  0  0
   13.5300   60.0490  -10.4510 H   0  0  0  0  0  0  0  0  0  0  0  0
   16.9050   64.5370  -10.1090 H   0  0  0  0  0  0  0  0  0  0  0  0
   19.2770   65.2390   -9.8670 H   0  0  0  0  0  0  0  0  0  0  0  0
   20.5090   61.2500  -10.5400 H   0  0  0  0  0  0  0  0  0  0  0  0
   18.1560   60.5850  -10.7450 H   0  0  0  0  0  0  0  0  0  0  0  0
   21.8870   66.7160   -8.3780 H   0  0  0  0  0  0  0  0  0  0  0  0
   20.3490   65.8540   -8.3050 H   0  0  0  0  0  0  0  0  0  0  0  0
   21.8750   65.9000   -6.1970 H   0  0  0  0  0  0  0  0  0  0  0  0
   21.4450   64.2440   -6.7030 H   0  0  0  0  0  0  0  0  0  0  0  0
   24.6640   66.0900   -5.8110 H   0  0  0  0  0  0  0  0  0  0  0  0
   23.5260   62.0080   -5.3820 H   0  0  0  0  0  0  0  0  0  0  0  0
   25.0930   64.9580   -8.4770 H   0  0  0  0  0  0  0  0  0  0  0  0
   24.3290   66.5180   -8.1390 H   0  0  0  0  0  0  0  0  0  0  0  0
   23.2510   66.2920  -10.1290 H   0  0  0  0  0  0  0  0  0  0  0  0
   23.8360   64.6200  -10.3740 H   0  0  0  0  0  0  0  0  0  0  0  0
  1  2  1  0  0  0  0
  2  6  1  0  0  0  0
  3  2  2  0  0  0  0
  3  4  1  0  0  0  0
  4  7  1  0  0  0  0
  4  5  1  0  0  0  0
  6 28  1  0  0  0  0
  6  5  2  0  0  0  0
  7  8  1  0  0  0  0
  8 29  1  0  0  0  0
  8  9  2  0  0  0  0
  9 30  1  0  0  0  0
 10  9  1  0  0  0  0
 10 13  1  0  0  0  0
 11 10  2  0  0  0  0
 12  7  2  0  0  0  0
 12 11  1  0  0  0  0
 13 15  1  0  0  0  0
 14 13  2  0  0  0  0
 15 16  1  0  0  0  0
 16 17  1  0  0  0  0
 17 36  1  0  0  0  0
 17 35  1  0  0  0  0
 18 23  1  0  0  0  0
 18 17  1  0  0  0  0
 18 19  1  0  0  0  0
 19 37  1  0  0  0  0
 19 20  1  0  0  0  0
 20 21  2  0  0  0  0
 22 38  1  0  0  0  0
 22 20  1  0  0  0  0
 23 22  1  0  0  0  0
 24 23  2  0  0  0  0
 25 40  1  0  0  0  0
 25 18  1  0  0  0  0
 26 15  1  0  0  0  0
 26 25  1  0  0  0  0
 27  3  1  0  0  0  0
 31 11  1  0  0  0  0
 32 12  1  0  0  0  0
 33 16  1  0  0  0  0
 34 16  1  0  0  0  0
 39 25  1  0  0  0  0
 41 26  1  0  0  0  0
 42 26  1  0  0  0  0
M  END
>  <Pose>
1

>  <Score>
-6.35

$$$$
