
 OpenBabel03202210193D

 41 44  0  0  0  0  0  0  0  0999 V2000
   25.4020   62.9290   -4.1430 B   0  0  0  0  0  0  0  0  0  0  0  0
   24.2050   63.4430   -5.5420 C   0  0  0  0  0  0  0  0  0  0  0  0
   24.2850   62.9080   -6.8010 C   0  0  0  0  0  0  0  0  0  0  0  0
   23.4320   63.2790   -7.7620 N   0  0  0  0  0  0  0  0  0  0  0  0
   22.4400   64.1910   -7.5800 C   0  0  0  0  0  0  0  0  0  0  0  0
   22.3670   64.7340   -6.2910 C   0  0  0  0  0  0  0  0  0  0  0  0
   23.2250   64.3740   -5.2870 C   0  0  0  0  0  0  0  0  0  0  0  0
   21.5530   64.5350   -8.6260 N   0  0  0  0  0  0  0  0  0  0  0  0
   21.8270   64.0380   -9.9230 C   0  0  0  0  0  0  0  0  0  0  0  0
   21.0390   63.4010  -10.7380 C   0  0  0  0  0  0  0  0  0  0  0  0
   21.8230   63.1190  -11.9410 C   0  0  0  0  0  0  0  0  0  0  0  0
   21.3660   62.5050  -12.9560 O   0  0  0  0  0  0  0  0  0  0  0  0
   23.1590   63.6260  -11.8170 N   0  0  0  0  0  0  0  0  0  0  0  0
   23.1720   64.2190  -10.5190 C   0  0  0  0  0  0  0  0  0  0  0  0
   24.1540   64.7940   -9.9790 O   0  0  0  0  0  0  0  0  0  0  0  0
   24.2050   63.5560  -12.7730 C   0  0  0  0  0  0  0  0  0  0  0  0
   23.9890   63.5040  -14.1260 C   0  0  0  0  0  0  0  0  0  0  0  0
   25.0550   63.4520  -15.0490 C   0  0  0  0  0  0  0  0  0  0  0  0
   26.3580   63.4520  -14.6080 C   0  0  0  0  0  0  0  0  0  0  0  0
   26.5800   63.5040  -13.2560 C   0  0  0  0  0  0  0  0  0  0  0  0
   25.5130   63.5550  -12.3570 C   0  0  0  0  0  0  0  0  0  0  0  0
   19.6760   63.0170  -10.5430 N   0  0  0  0  0  0  0  0  0  0  0  0
   19.3830   61.7800  -10.1030 C   0  0  0  0  0  0  0  0  0  0  0  0
   18.0530   61.3680   -9.9090 C   0  0  0  0  0  0  0  0  0  0  0  0
   17.0160   62.2420  -10.1760 C   0  0  0  0  0  0  0  0  0  0  0  0
   17.3420   63.5040  -10.6260 C   0  0  0  0  0  0  0  0  0  0  0  0
   18.6510   63.8660  -10.8000 C   0  0  0  0  0  0  0  0  0  0  0  0
   25.0550   62.1830   -7.0040 H   0  0  0  0  0  0  0  0  0  0  0  0
   21.5830   65.4680   -6.1240 H   0  0  0  0  0  0  0  0  0  0  0  0
   23.1700   64.7950   -4.2810 H   0  0  0  0  0  0  0  0  0  0  0  0
   20.7400   65.1250   -8.4540 H   0  0  0  0  0  0  0  0  0  0  0  0
   22.9750   63.5000  -14.4960 H   0  0  0  0  0  0  0  0  0  0  0  0
   24.8320   63.4100  -16.1130 H   0  0  0  0  0  0  0  0  0  0  0  0
   27.1730   63.4120  -15.3310 H   0  0  0  0  0  0  0  0  0  0  0  0
   27.6030   63.5020  -12.9010 H   0  0  0  0  0  0  0  0  0  0  0  0
   25.7640   63.5990  -11.3100 H   0  0  0  0  0  0  0  0  0  0  0  0
   20.2120   61.1110   -9.8990 H   0  0  0  0  0  0  0  0  0  0  0  0
   17.8650   60.3550   -9.5470 H   0  0  0  0  0  0  0  0  0  0  0  0
   15.9750   61.9350  -10.0310 H   0  0  0  0  0  0  0  0  0  0  0  0
   16.5420   64.1920  -10.8390 H   0  0  0  0  0  0  0  0  0  0  0  0
   18.9210   64.8730  -11.1590 H   0  0  0  0  0  0  0  0  0  0  0  0
  2  7  1  0  0  0  0
  2  1  1  0  0  0  0
  3  2  2  0  0  0  0
  4  5  2  0  0  0  0
  4  3  1  0  0  0  0
  5  6  1  0  0  0  0
  6 29  1  0  0  0  0
  6  7  2  0  0  0  0
  7 30  1  0  0  0  0
  8 31  1  0  0  0  0
  8  5  1  0  0  0  0
  9  8  1  0  0  0  0
 10 22  1  0  0  0  0
 10  9  2  0  0  0  0
 11 13  1  0  0  0  0
 11 10  1  0  0  0  0
 12 11  2  0  0  0  0
 13 14  1  0  0  0  0
 14 15  2  0  0  0  0
 14  9  1  0  0  0  0
 16 21  1  0  0  0  0
 16 13  1  0  0  0  0
 17 16  2  0  0  0  0
 18 19  2  0  0  0  0
 18 17  1  0  0  0  0
 19 20  1  0  0  0  0
 20 35  1  0  0  0  0
 20 21  2  0  0  0  0
 21 36  1  0  0  0  0
 22 23  1  0  0  0  0
 23 24  1  0  0  0  0
 23 37  1  0  0  0  0
 24 38  1  0  0  0  0
 25 39  1  0  0  0  0
 25 24  2  0  0  0  0
 26 25  1  0  0  0  0
 27 26  2  0  0  0  0
 27 22  1  0  0  0  0
 28  3  1  0  0  0  0
 32 17  1  0  0  0  0
 33 18  1  0  0  0  0
 34 19  1  0  0  0  0
 40 26  1  0  0  0  0
 41 27  1  0  0  0  0
M  END
>  <Pose>
1

>  <Score>
-7.10

$$$$
