
 OpenBabel03202210193D

 40 43  0  0  1  0  0  0  0  0999 V2000
   15.2960   63.0480  -10.6810 B   0  0  0  0  0  0  0  0  0  0  0  0
   17.0380   62.3570  -10.3420 C   0  0  0  0  0  0  0  0  0  0  0  0
   17.2200   60.9960  -10.2880 C   0  0  0  0  0  0  0  0  0  0  0  0
   18.4560   60.4860  -10.0490 N   0  0  0  0  0  0  0  0  0  0  0  0
   19.5090   61.2880   -9.8620 C   0  0  0  0  0  0  0  0  0  0  0  0
   19.4150   62.6860   -9.9000 C   0  0  0  0  0  0  0  0  0  0  0  0
   18.1480   63.1630  -10.1450 C   0  0  0  0  0  0  0  0  0  0  0  0
   20.5890   63.5030   -9.7060 C   0  0  0  0  0  0  0  0  0  0  0  0
   20.9530   64.1910  -10.7290 O   0  0  0  0  0  0  0  0  0  0  0  0
   21.3640   63.6250   -8.5370 N   0  0  0  0  0  0  0  0  0  0  0  0
   21.2540   64.1290   -7.2040 C   0  0  0  0  0  0  0  0  0  0  0  0
   22.3180   63.0940   -6.7990 C   0  0  0  0  0  0  0  0  0  0  0  0
   22.7580   63.2650   -8.2030 C   0  0  0  0  0  0  0  0  0  0  0  0
   23.1830   63.5930   -5.7660 N   0  0  0  0  0  0  0  0  0  0  0  0
   24.1730   64.6350   -5.8560 C   0  0  0  0  0  0  0  0  0  0  0  0
   24.1570   65.5610   -6.6850 O   0  0  0  0  0  0  0  0  0  0  0  0
   25.1640   64.3430   -4.7630 C   0  0  1  0  0  0  0  0  0  0  0  0
   24.2270   63.8850   -3.6710 C   0  0  2  0  0  0  0  0  0  0  0  0
   24.9490   63.0620   -2.6410 C   0  0  0  0  0  0  0  0  0  0  0  0
   25.5630   61.8740   -3.2920 C   0  0  0  0  0  0  0  0  0  0  0  0
   26.0650   62.0280   -4.5000 C   0  0  0  0  0  0  0  0  0  0  0  0
   26.0740   63.2780   -5.2730 C   0  0  0  0  0  0  0  0  0  0  0  0
   23.2110   63.1240   -4.4230 C   0  0  0  0  0  0  0  0  0  0  0  0
   22.5110   62.2170   -3.9090 O   0  0  0  0  0  0  0  0  0  0  0  0
   16.3620   60.3530  -10.4410 H   0  0  0  0  0  0  0  0  0  0  0  0
   20.4700   60.8390   -9.6740 H   0  0  0  0  0  0  0  0  0  0  0  0
   17.9800   64.2090  -10.2020 H   0  0  0  0  0  0  0  0  0  0  0  0
   20.3450   63.8750   -6.6180 H   0  0  0  0  0  0  0  0  0  0  0  0
   21.5980   65.1860   -7.0670 H   0  0  0  0  0  0  0  0  0  0  0  0
   21.8630   62.1130   -6.6250 H   0  0  0  0  0  0  0  0  0  0  0  0
   23.3880   64.1510   -8.4210 H   0  0  0  0  0  0  0  0  0  0  0  0
   23.1020   62.3680   -8.7470 H   0  0  0  0  0  0  0  0  0  0  0  0
   25.7100   65.2620   -4.4720 H   0  0  0  0  0  0  0  0  0  0  0  0
   23.8130   64.7840   -3.1700 H   0  0  0  0  0  0  0  0  0  0  0  0
   24.2450   62.8000   -1.8400 H   0  0  0  0  0  0  0  0  0  0  0  0
   25.7730   63.6970   -2.2410 H   0  0  0  0  0  0  0  0  0  0  0  0
   25.5720   60.9290   -2.7430 H   0  0  0  0  0  0  0  0  0  0  0  0
   26.5150   61.1470   -4.9730 H   0  0  0  0  0  0  0  0  0  0  0  0
   25.8570   63.0020   -6.3450 H   0  0  0  0  0  0  0  0  0  0  0  0
   27.1230   63.6440   -5.2930 H   0  0  0  0  0  0  0  0  0  0  0  0
  1  2  1  0  0  0  0
  2  3  2  0  0  0  0
  2  7  1  0  0  0  0
  3  4  1  0  0  0  0
  4  5  2  0  0  0  0
  5 26  1  0  0  0  0
  6  5  1  0  0  0  0
  6  8  1  0  0  0  0
  7  6  2  0  0  0  0
  8 10  1  0  0  0  0
  9  8  2  0  0  0  0
 10 13  1  0  0  0  0
 10 11  1  0  0  0  0
 11 29  1  0  0  0  0
 11 12  1  0  0  0  0
 11 28  1  0  0  0  0
 12 30  1  0  0  0  0
 12 14  1  0  0  0  0
 13 12  1  0  0  0  0
 14 23  1  0  0  0  0
 15 14  1  0  0  0  0
 15 17  1  0  0  0  0
 16 15  2  0  0  0  0
 17 33  1  1  0  0  0
 17 18  1  0  0  0  0
 18 34  1  1  0  0  0
 18 19  1  0  0  0  0
 19 36  1  0  0  0  0
 19 35  1  0  0  0  0
 20 37  1  0  0  0  0
 20 19  1  0  0  0  0
 21 20  2  0  0  0  0
 22 17  1  0  0  0  0
 22 21  1  0  0  0  0
 23 24  2  0  0  0  0
 23 18  1  0  0  0  0
 25  3  1  0  0  0  0
 27  7  1  0  0  0  0
 31 13  1  0  0  0  0
 32 13  1  0  0  0  0
 38 21  1  0  0  0  0
 39 22  1  0  0  0  0
 40 22  1  0  0  0  0
M  END
>  <Pose>
1

>  <Score>
-6.38

$$$$
