
 OpenBabel03202210193D

 37 40  0  0  1  0  0  0  0  0999 V2000
   16.5890   64.4440  -10.6430 B   0  0  0  0  0  0  0  0  0  0  0  0
   18.1650   63.4010  -10.2960 C   0  0  0  0  0  0  0  0  0  0  0  0
   18.0720   62.0290  -10.3570 C   0  0  0  0  0  0  0  0  0  0  0  0
   19.1830   61.3260  -10.1120 N   0  0  0  0  0  0  0  0  0  0  0  0
   20.3730   61.9210   -9.8100 C   0  0  0  0  0  0  0  0  0  0  0  0
   20.5290   63.2820   -9.7350 C   0  0  0  0  0  0  0  0  0  0  0  0
   19.3560   64.0130   -9.9950 C   0  0  0  0  0  0  0  0  0  0  0  0
   21.7430   63.9910   -9.4150 C   0  0  0  0  0  0  0  0  0  0  0  0
   22.5130   64.3170  -10.3720 O   0  0  0  0  0  0  0  0  0  0  0  0
   22.1140   64.3360   -8.1100 N   0  0  0  0  0  0  0  0  0  0  0  0
   21.9530   63.8920   -6.7510 C   0  0  0  0  0  0  0  0  0  0  0  0
   22.5930   65.1540   -6.1940 C   0  0  0  0  0  0  0  0  0  0  0  0
   22.9500   65.4500   -7.6190 C   0  0  0  0  0  0  0  0  0  0  0  0
   23.6600   64.9860   -5.3140 O   0  0  0  0  0  0  0  0  0  0  0  0
   23.9040   63.8730   -4.5350 C   0  0  2  0  0  0  0  0  0  0  0  0
   22.9940   63.4730   -3.6510 C   0  0  0  0  0  0  0  0  0  0  0  0
   23.1930   62.3060   -2.8010 C   0  0  0  0  0  0  0  0  0  0  0  0
   22.2670   61.9370   -1.9330 C   0  0  0  0  0  0  0  0  0  0  0  0
   24.4130   61.5920   -2.9420 N   0  0  0  0  0  0  0  0  0  0  0  0
   25.3770   62.0480   -3.9030 C   0  0  0  0  0  0  0  0  0  0  0  0
   25.1330   63.1300   -4.6560 N   0  0  0  0  0  0  0  0  0  0  0  0
   26.1820   63.3400   -5.4590 N   0  0  0  0  0  0  0  0  0  0  0  0
   27.0760   62.3810   -5.1960 C   0  0  0  0  0  0  0  0  0  0  0  0
   26.5840   61.5850   -4.2410 N   0  0  0  0  0  0  0  0  0  0  0  0
   17.1220   61.5280  -10.5970 H   0  0  0  0  0  0  0  0  0  0  0  0
   21.2510   61.3050   -9.6270 H   0  0  0  0  0  0  0  0  0  0  0  0
   19.4120   65.0910   -9.9510 H   0  0  0  0  0  0  0  0  0  0  0  0
   20.8880   63.8420   -6.4040 H   0  0  0  0  0  0  0  0  0  0  0  0
   22.5260   62.9730   -6.5730 H   0  0  0  0  0  0  0  0  0  0  0  0
   21.8330   65.8520   -5.7560 H   0  0  0  0  0  0  0  0  0  0  0  0
   23.9810   65.2410   -7.8970 H   0  0  0  0  0  0  0  0  0  0  0  0
   22.6100   66.4330   -7.9660 H   0  0  0  0  0  0  0  0  0  0  0  0
   22.0680   64.0640   -3.5710 H   0  0  0  0  0  0  0  0  0  0  0  0
   22.4470   61.0750   -1.3260 H   0  0  0  0  0  0  0  0  0  0  0  0
   21.3570   62.4740   -1.8320 H   0  0  0  0  0  0  0  0  0  0  0  0
   24.5650   60.7620   -2.3440 H   0  0  0  0  0  0  0  0  0  0  0  0
   28.0590   62.2360   -5.6630 H   0  0  0  0  0  0  0  0  0  0  0  0
  1  2  1  0  0  0  0
  2  7  1  0  0  0  0
  3  2  2  0  0  0  0
  3  4  1  0  0  0  0
  4  5  2  0  0  0  0
  5  6  1  0  0  0  0
  5 26  1  0  0  0  0
  6  8  1  0  0  0  0
  7 27  1  0  0  0  0
  7  6  2  0  0  0  0
  8 10  1  0  0  0  0
  9  8  2  0  0  0  0
 10 13  1  0  0  0  0
 10 11  1  0  0  0  0
 11 29  1  0  0  0  0
 11 28  1  0  0  0  0
 11 12  1  0  0  0  0
 12 30  1  0  0  0  0
 12 14  1  0  0  0  0
 13 12  1  0  0  0  0
 15 14  1  1  0  0  0
 15 16  1  0  0  0  0
 16 33  1  0  0  0  0
 16 17  2  0  0  0  0
 17 18  1  0  0  0  0
 18 35  1  0  0  0  0
 18 34  1  0  0  0  0
 19 17  1  0  0  0  0
 19 36  1  0  0  0  0
 20 19  1  0  0  0  0
 21 15  1  0  0  0  0
 21 20  1  0  0  0  0
 22 23  2  0  0  0  0
 22 21  1  0  0  0  0
 23 24  1  0  0  0  0
 24 20  2  0  0  0  0
 25  3  1  0  0  0  0
 31 13  1  0  0  0  0
 32 13  1  0  0  0  0
 37 23  1  0  0  0  0
M  END
>  <Pose>
1

>  <Score>
-7.98

$$$$
