
 OpenBabel03202210193D

 48 43  0  0  1  0  0  0  0  0999 V2000
   19.7400   63.2280   -7.3490 B   0  0  0  0  0  0  0  0  0  0  0  0
   19.7560   63.2150   -9.2380 C   0  0  0  0  0  0  0  0  0  0  0  0
   18.5760   63.4130   -9.9370 C   0  0  0  0  0  0  0  0  0  0  0  0
   18.6390   63.3950  -11.2770 N   0  0  0  0  0  0  0  0  0  0  0  0
   19.7700   63.1990  -11.9720 C   0  0  0  0  0  0  0  0  0  0  0  0
   20.9340   63.0030  -11.2720 C   0  0  0  0  0  0  0  0  0  0  0  0
   20.9540   63.0070   -9.8870 C   0  0  0  0  0  0  0  0  0  0  0  0
   22.1800   62.7870  -11.9890 C   0  0  0  0  0  0  0  0  0  0  0  0
   22.1830   62.6590  -13.2460 O   0  0  0  0  0  0  0  0  0  0  0  0
   23.3910   62.7130  -11.3250 O   0  0  0  0  0  0  0  0  0  0  0  0
   19.2690   64.6300   -9.7120 N   0  0  0  0  0  0  0  0  0  0  0  0
   18.5580   63.6060  -10.4590 C   0  0  0  0  0  0  0  0  0  0  0  0
   19.3270   62.3050  -10.5140 C   0  0  0  0  0  0  0  0  0  0  0  0
   20.2420   62.2920  -11.7260 C   0  0  0  0  0  0  0  0  0  0  0  0
   21.4430   63.1820  -11.5020 C   0  0  0  0  0  0  0  0  0  0  0  0
   21.5340   63.5320  -10.0760 C   0  0  0  0  0  0  0  0  0  0  0  0
   20.5770   64.1620   -9.3170 C   0  0  1  0  0  0  0  0  0  0  0  0
   20.8190   64.4080   -8.0270 N   0  0  0  0  0  0  0  0  0  0  0  0
   21.9690   64.0630   -7.4400 C   0  0  0  0  0  0  0  0  0  0  0  0
   22.9380   63.4330   -8.1780 C   0  0  0  0  0  0  0  0  0  0  0  0
   22.7150   63.1670   -9.5130 C   0  0  0  0  0  0  0  0  0  0  0  0
   23.7450   62.5070  -10.2680 N   0  0  0  0  0  4  0  0  0  0  0  0
   24.1540   63.0520   -7.6170 C   0  0  0  0  0  0  0  0  0  0  0  0
   24.3620   63.3240   -6.2880 C   0  0  0  0  0  0  0  0  0  0  0  0
   23.3900   63.9540   -5.5500 C   0  0  0  0  0  0  0  0  0  0  0  0
   22.1760   64.3320   -6.1210 C   0  0  0  0  0  0  0  0  0  0  0  0
   18.5140   64.8920   -8.4920 C   0  0  0  0  0  0  0  0  0  0  0  0
   17.6630   63.5730   -9.3890 H   0  0  0  0  0  0  0  0  0  0  0  0
   19.7410   63.1970  -13.0450 H   0  0  0  0  0  0  0  0  0  0  0  0
   21.8420   62.8580   -9.3150 H   0  0  0  0  0  0  0  0  0  0  0  0
   19.3510   65.5050  -10.2790 H   0  0  0  0  0  0  0  0  0  0  0  0
   18.3230   63.9130  -11.4900 H   0  0  0  0  0  0  0  0  0  0  0  0
   17.5740   63.3670   -9.9790 H   0  0  0  0  0  0  0  0  0  0  0  0
   18.6010   61.4770  -10.6650 H   0  0  0  0  0  0  0  0  0  0  0  0
   19.8940   62.2170   -9.5730 H   0  0  0  0  0  0  0  0  0  0  0  0
   20.5380   61.2610  -11.9270 H   0  0  0  0  0  0  0  0  0  0  0  0
   19.6700   62.6900  -12.5800 H   0  0  0  0  0  0  0  0  0  0  0  0
   22.3530   62.6570  -11.8590 H   0  0  0  0  0  0  0  0  0  0  0  0
   21.3780   64.1110  -12.1390 H   0  0  0  0  0  0  0  0  0  0  0  0
   23.7520   61.4770  -10.3330 H   0  0  0  0  0  0  0  0  0  0  0  0
   24.4920   63.0540  -10.7540 H   0  0  0  0  0  0  0  0  0  0  0  0
   24.8960   62.5590   -8.2240 H   0  0  0  0  0  0  0  0  0  0  0  0
   25.2940   63.0450   -5.8080 H   0  0  0  0  0  0  0  0  0  0  0  0
   23.5470   64.1700   -4.5100 H   0  0  0  0  0  0  0  0  0  0  0  0
   21.3980   64.8290   -5.5610 H   0  0  0  0  0  0  0  0  0  0  0  0
   17.4460   64.9170   -8.7660 H   0  0  0  0  0  0  0  0  0  0  0  0
   18.8750   65.8030   -7.9910 H   0  0  0  0  0  0  0  0  0  0  0  0
   18.6560   64.0120   -7.8150 H   0  0  0  0  0  0  0  0  0  0  0  0
  4 13  1  0  0  0  0
  4 12  1  0  0  0  0
  5 14  1  0  0  0  0
  8 15  1  0  0  0  0
  9  8  2  0  0  0  0
 10 22  1  0  0  0  0
 11 17  1  0  0  0  0
 11 27  1  0  0  0  0
 12  3  1  0  0  0  0
 14  6  1  0  0  0  0
 15  6  1  0  0  0  0
 16  7  1  0  0  0  0
 17  7  1  6  0  0  0
 17  2  1  0  0  0  0
 17 18  1  0  0  0  0
 18 19  1  0  0  0  0
 18  1  1  0  0  0  0
 19 26  1  0  0  0  0
 20 23  1  0  0  0  0
 20 19  2  0  0  0  0
 21 30  1  0  0  0  0
 21 20  1  0  0  0  0
 22 21  1  0  0  0  0
 23 24  2  0  0  0  0
 24 43  1  0  0  0  0
 24 25  1  0  0  0  0
 25 44  1  0  0  0  0
 26 45  1  0  0  0  0
 26 25  2  0  0  0  0
 27 47  1  0  0  0  0
 27 48  1  0  0  0  0
 31 11  1  0  0  0  0
 32  4  1  0  0  0  0
 33  3  1  0  0  0  0
 34 13  1  0  0  0  0
 35  2  1  0  0  0  0
 36 14  1  0  0  0  0
 37  5  1  0  0  0  0
 38 10  1  0  0  0  0
 40 22  1  0  0  0  0
 41 22  1  0  0  0  0
 42 23  1  0  0  0  0
 46 27  1  0  0  0  0
M  END
>  <Pose>
1

>  <Score>
-5.88

$$$$
