
 OpenBabel03202210193D

 57 60  0  0  0  0  0  0  0  0999 V2000
   23.4640   63.2520  -11.7150 B   0  0  0  0  0  0  0  0  0  0  0  0
   22.0650   63.4150  -10.4410 C   0  0  0  0  0  0  0  0  0  0  0  0
   22.3780   63.5980   -9.1080 C   0  0  0  0  0  0  0  0  0  0  0  0
   21.3930   63.7240   -8.1160 C   0  0  0  0  0  0  0  0  0  0  0  0
   20.0700   63.6650   -8.4780 C   0  0  0  0  0  0  0  0  0  0  0  0
   19.7510   63.4830   -9.8100 C   0  0  0  0  0  0  0  0  0  0  0  0
   20.7170   63.3590  -10.7840 C   0  0  0  0  0  0  0  0  0  0  0  0
   17.9270   63.3970  -10.3470 B   0  0  0  0  0  0  0  0  0  0  0  0
   21.7730   63.9010   -6.7200 C   0  0  0  0  0  0  0  0  0  0  0  0
   20.9050   63.5670   -5.8670 O   0  0  0  0  0  0  0  0  0  0  0  0
   23.0720   64.4310   -6.3220 C   0  0  0  0  0  0  0  0  0  0  0  0
   23.9550   64.5790   -7.5900 C   0  0  0  0  0  0  0  0  0  0  0  0
   23.6600   63.6780   -8.5940 O   0  0  0  0  0  0  0  0  0  0  0  0
   23.1100   65.7560   -5.7110 C   0  0  0  0  0  0  0  0  0  0  0  0
   22.4050   66.8810   -6.1170 N   0  0  0  0  0  4  0  0  0  0  0  0
   21.7180   66.9040   -7.3700 C   0  0  0  0  0  0  0  0  0  0  0  0
   20.5930   67.9610   -7.2230 C   0  0  0  0  0  0  0  0  0  0  0  0
   21.3030   69.2980   -7.2510 C   0  0  0  0  0  0  0  0  0  0  0  0
   22.7830   69.1550   -6.9740 C   0  0  0  0  0  0  0  0  0  0  0  0
   23.0540   68.1600   -5.8660 C   0  0  0  0  0  0  0  0  0  0  0  0
   23.7250   63.4170   -5.3970 C   0  0  0  0  0  0  0  0  0  0  0  0
   24.7000   64.0080   -4.5130 N   0  0  0  0  0  4  0  0  0  0  0  0
   25.9450   63.2680   -4.6640 C   0  0  0  0  0  0  0  0  0  0  0  0
   25.6790   61.8150   -4.4480 C   0  0  0  0  0  0  0  0  0  0  0  0
   24.9930   61.4810   -3.1740 C   0  0  0  0  0  0  0  0  0  0  0  0
   23.9910   62.4770   -2.7040 C   0  0  0  0  0  0  0  0  0  0  0  0
   24.3790   63.8840   -3.1030 C   0  0  0  0  0  0  0  0  0  0  0  0
   19.2820   63.7620   -7.7180 H   0  0  0  0  0  0  0  0  0  0  0  0
   20.4720   63.2160  -11.8280 H   0  0  0  0  0  0  0  0  0  0  0  0
   25.0270   64.5870   -7.2850 H   0  0  0  0  0  0  0  0  0  0  0  0
   23.7740   65.6100   -7.9550 H   0  0  0  0  0  0  0  0  0  0  0  0
   24.1990   66.0930   -5.6330 H   0  0  0  0  0  0  0  0  0  0  0  0
   22.8810   65.5850   -4.6020 H   0  0  0  0  0  0  0  0  0  0  0  0
   21.5750   66.9210   -5.4170 H   0  0  0  0  0  0  0  0  0  0  0  0
   21.2240   65.9520   -7.5960 H   0  0  0  0  0  0  0  0  0  0  0  0
   22.2930   67.3410   -8.2160 H   0  0  0  0  0  0  0  0  0  0  0  0
   20.0540   67.8060   -6.2700 H   0  0  0  0  0  0  0  0  0  0  0  0
   19.9130   67.8360   -8.0890 H   0  0  0  0  0  0  0  0  0  0  0  0
   21.2260   69.6660   -8.3130 H   0  0  0  0  0  0  0  0  0  0  0  0
   20.8140   70.0590   -6.6270 H   0  0  0  0  0  0  0  0  0  0  0  0
   23.1010   70.1570   -6.5570 H   0  0  0  0  0  0  0  0  0  0  0  0
   23.3980   69.0100   -7.8640 H   0  0  0  0  0  0  0  0  0  0  0  0
   22.6680   68.6640   -4.9280 H   0  0  0  0  0  0  0  0  0  0  0  0
   24.1300   68.0980   -5.7030 H   0  0  0  0  0  0  0  0  0  0  0  0
   22.9770   62.8130   -4.8770 H   0  0  0  0  0  0  0  0  0  0  0  0
   24.2930   62.7510   -6.0750 H   0  0  0  0  0  0  0  0  0  0  0  0
   24.8220   65.0190   -4.6980 H   0  0  0  0  0  0  0  0  0  0  0  0
   26.4090   63.4200   -5.6430 H   0  0  0  0  0  0  0  0  0  0  0  0
   26.6190   63.6030   -3.8330 H   0  0  0  0  0  0  0  0  0  0  0  0
   26.6870   61.3040   -4.4440 H   0  0  0  0  0  0  0  0  0  0  0  0
   25.1300   61.3260   -5.2770 H   0  0  0  0  0  0  0  0  0  0  0  0
   24.4480   60.4980   -3.2930 H   0  0  0  0  0  0  0  0  0  0  0  0
   25.7700   61.2570   -2.3890 H   0  0  0  0  0  0  0  0  0  0  0  0
   24.0410   62.4710   -1.5730 H   0  0  0  0  0  0  0  0  0  0  0  0
   22.9410   62.2290   -2.9330 H   0  0  0  0  0  0  0  0  0  0  0  0
   23.6930   64.6290   -2.7120 H   0  0  0  0  0  0  0  0  0  0  0  0
   25.3570   64.0760   -2.5660 H   0  0  0  0  0  0  0  0  0  0  0  0
  1  2  1  0  0  0  0
  2  3  1  0  0  0  0
  3 13  1  0  0  0  0
  3  4  2  0  0  0  0
  4  9  1  0  0  0  0
  5  4  1  0  0  0  0
  5 28  1  0  0  0  0
  6  5  2  0  0  0  0
  7  2  2  0  0  0  0
  7  6  1  0  0  0  0
  8  6  1  0  0  0  0
  9 11  1  0  0  0  0
  9 10  2  0  0  0  0
 11 14  1  0  0  0  0
 11 21  1  0  0  0  0
 12 30  1  0  0  0  0
 12 11  1  0  0  0  0
 13 12  1  0  0  0  0
 14 32  1  0  0  0  0
 14 33  1  0  0  0  0
 15 20  1  0  0  0  0
 15 14  1  0  0  0  0
 15 34  1  0  0  0  0
 16 17  1  0  0  0  0
 16 15  1  0  0  0  0
 17 37  1  0  0  0  0
 18 17  1  0  0  0  0
 18 19  1  0  0  0  0
 18 40  1  0  0  0  0
 19 41  1  0  0  0  0
 19 20  1  0  0  0  0
 20 44  1  0  0  0  0
 20 43  1  0  0  0  0
 21 45  1  0  0  0  0
 21 22  1  0  0  0  0
 22 27  1  0  0  0  0
 23 22  1  0  0  0  0
 23 24  1  0  0  0  0
 23 49  1  0  0  0  0
 24 50  1  0  0  0  0
 24 25  1  0  0  0  0
 25 26  1  0  0  0  0
 25 53  1  0  0  0  0
 26 54  1  0  0  0  0
 27 56  1  0  0  0  0
 27 26  1  0  0  0  0
 27 57  1  0  0  0  0
 29  7  1  0  0  0  0
 31 12  1  0  0  0  0
 35 16  1  0  0  0  0
 36 16  1  0  0  0  0
 38 17  1  0  0  0  0
 39 18  1  0  0  0  0
 42 19  1  0  0  0  0
 46 21  1  0  0  0  0
 47 22  1  0  0  0  0
 48 23  1  0  0  0  0
 51 24  1  0  0  0  0
 52 25  1  0  0  0  0
 55 26  1  0  0  0  0
M  END
>  <Pose>
1

>  <Score>
-8.27

$$$$
