
 OpenBabel03202210193D

 56 59  0  0  1  0  0  0  0  0999 V2000
   18.8220   62.7680   -9.3130 B   0  0  0  0  0  0  0  0  0  0  0  0
   20.5720   63.4140   -9.6640 C   0  0  0  0  0  0  0  0  0  0  0  0
   21.4340   63.6730   -8.5900 C   0  0  0  0  0  0  0  0  0  0  0  0
   22.7020   64.1290   -8.7810 C   0  0  0  0  0  0  0  0  0  0  0  0
   23.1420   64.3410  -10.0760 C   0  0  0  0  0  0  0  0  0  0  0  0
   22.2930   64.0860  -11.1480 C   0  0  0  0  0  0  0  0  0  0  0  0
   21.0120   63.6250  -10.9520 C   0  0  0  0  0  0  0  0  0  0  0  0
   22.7280   64.3020  -12.5580 C   0  0  0  0  0  0  0  0  0  0  0  0
   23.6140   64.3560   -7.6270 C   0  0  1  0  0  0  0  0  0  0  0  0
   22.9790   64.7620   -6.3450 C   0  0  0  0  0  0  0  0  0  0  0  0
   21.4460   64.5550   -6.3930 C   0  0  0  0  0  0  0  0  0  0  0  0
   21.0800   63.4950   -7.2600 O   0  0  0  0  0  0  0  0  0  0  0  0
   23.1040   66.2480   -6.0670 C   0  0  0  0  0  0  0  0  0  0  0  0
   22.7170   67.1030   -7.1690 N   0  0  0  0  0  4  0  0  0  0  0  0
   23.3550   68.4110   -7.0200 C   0  0  0  0  0  0  0  0  0  0  0  0
   22.5360   69.4000   -7.7630 C   0  0  0  0  0  0  0  0  0  0  0  0
   21.3040   68.6470   -8.1350 C   0  0  0  0  0  0  0  0  0  0  0  0
   21.3220   67.5060   -7.1090 C   0  0  0  0  0  0  0  0  0  0  0  0
   23.4080   63.9190   -5.2050 C   0  0  0  0  0  0  0  0  0  0  0  0
   24.5480   63.9770   -4.4470 N   0  0  0  0  0  4  0  0  0  0  0  0
   24.2420   63.6380   -3.0380 C   0  0  0  0  0  0  0  0  0  0  0  0
   25.4270   62.9300   -2.5070 C   0  0  0  0  0  0  0  0  0  0  0  0
   26.1320   62.3480   -3.6720 C   0  0  0  0  0  0  0  0  0  0  0  0
   25.6730   63.2300   -4.8310 C   0  0  0  0  0  0  0  0  0  0  0  0
   24.3160   63.1210   -7.5460 O   0  0  0  0  0  0  0  0  0  0  0  0
   24.1230   64.6980  -10.3020 H   0  0  0  0  0  0  0  0  0  0  0  0
   20.3270   63.4160  -11.7560 H   0  0  0  0  0  0  0  0  0  0  0  0
   23.5460   65.0410  -12.6240 H   0  0  0  0  0  0  0  0  0  0  0  0
   23.0310   63.3050  -12.9750 H   0  0  0  0  0  0  0  0  0  0  0  0
   21.8460   64.6120  -13.1870 H   0  0  0  0  0  0  0  0  0  0  0  0
   24.4120   65.0800   -7.9640 H   0  0  0  0  0  0  0  0  0  0  0  0
   20.9070   65.4860   -6.5640 H   0  0  0  0  0  0  0  0  0  0  0  0
   21.1300   64.2220   -5.3670 H   0  0  0  0  0  0  0  0  0  0  0  0
   22.3600   66.5020   -5.2430 H   0  0  0  0  0  0  0  0  0  0  0  0
   24.0420   66.6000   -5.6800 H   0  0  0  0  0  0  0  0  0  0  0  0
   22.8710   66.7110   -8.1090 H   0  0  0  0  0  0  0  0  0  0  0  0
   24.3870   68.4320   -7.3490 H   0  0  0  0  0  0  0  0  0  0  0  0
   23.3460   68.6230   -5.9210 H   0  0  0  0  0  0  0  0  0  0  0  0
   23.0840   69.8360   -8.6110 H   0  0  0  0  0  0  0  0  0  0  0  0
   22.2720   70.2690   -7.0920 H   0  0  0  0  0  0  0  0  0  0  0  0
   21.4540   68.1940   -9.1520 H   0  0  0  0  0  0  0  0  0  0  0  0
   20.3710   69.2200   -8.0670 H   0  0  0  0  0  0  0  0  0  0  0  0
   21.0760   67.9440   -6.1160 H   0  0  0  0  0  0  0  0  0  0  0  0
   20.6060   66.7430   -7.3940 H   0  0  0  0  0  0  0  0  0  0  0  0
   22.5260   63.8880   -4.4260 H   0  0  0  0  0  0  0  0  0  0  0  0
   23.3120   62.7970   -5.5210 H   0  0  0  0  0  0  0  0  0  0  0  0
   24.8710   65.0300   -4.2880 H   0  0  0  0  0  0  0  0  0  0  0  0
   24.1090   64.5600   -2.4120 H   0  0  0  0  0  0  0  0  0  0  0  0
   23.3140   63.0820   -2.9230 H   0  0  0  0  0  0  0  0  0  0  0  0
   26.1240   63.6120   -1.9680 H   0  0  0  0  0  0  0  0  0  0  0  0
   25.1430   62.0940   -1.8140 H   0  0  0  0  0  0  0  0  0  0  0  0
   27.2290   62.4280   -3.6030 H   0  0  0  0  0  0  0  0  0  0  0  0
   25.8870   61.2750   -3.8580 H   0  0  0  0  0  0  0  0  0  0  0  0
   25.5870   62.5520   -5.6730 H   0  0  0  0  0  0  0  0  0  0  0  0
   26.5490   63.9140   -5.1120 H   0  0  0  0  0  0  0  0  0  0  0  0
   25.2570   63.2630   -7.3450 H   0  0  0  0  0  0  0  0  0  0  0  0
  2  1  1  0  0  0  0
  2  3  1  0  0  0  0
  3 12  1  0  0  0  0
  4  3  2  0  0  0  0
  4  9  1  0  0  0  0
  5  4  1  0  0  0  0
  6  7  1  0  0  0  0
  6  5  2  0  0  0  0
  7  2  2  0  0  0  0
  8  6  1  0  0  0  0
  9 31  1  6  0  0  0
  9 25  1  0  0  0  0
  9 10  1  0  0  0  0
 10 13  1  0  0  0  0
 10 19  1  0  0  0  0
 11 10  1  0  0  0  0
 11 33  1  0  0  0  0
 12 11  1  0  0  0  0
 13 35  1  0  0  0  0
 13 34  1  0  0  0  0
 14 18  1  0  0  0  0
 14 15  1  0  0  0  0
 14 13  1  0  0  0  0
 15 38  1  0  0  0  0
 16 40  1  0  0  0  0
 16 15  1  0  0  0  0
 17 42  1  0  0  0  0
 17 16  1  0  0  0  0
 17 18  1  0  0  0  0
 18 43  1  0  0  0  0
 19 20  1  0  0  0  0
 19 45  1  0  0  0  0
 20 47  1  0  0  0  0
 20 21  1  0  0  0  0
 21 49  1  0  0  0  0
 21 22  1  0  0  0  0
 21 48  1  0  0  0  0
 22 50  1  0  0  0  0
 22 51  1  0  0  0  0
 23 52  1  0  0  0  0
 23 22  1  0  0  0  0
 24 20  1  0  0  0  0
 24 23  1  0  0  0  0
 25 56  1  0  0  0  0
 26  5  1  0  0  0  0
 27  7  1  0  0  0  0
 28  8  1  0  0  0  0
 29  8  1  0  0  0  0
 30  8  1  0  0  0  0
 32 11  1  0  0  0  0
 36 14  1  0  0  0  0
 37 15  1  0  0  0  0
 39 16  1  0  0  0  0
 41 17  1  0  0  0  0
 44 18  1  0  0  0  0
 46 19  1  0  0  0  0
 53 23  1  0  0  0  0
 54 24  1  0  0  0  0
 55 24  1  0  0  0  0
M  END
>  <Pose>
1

>  <Score>
-6.53

$$$$
