
 OpenBabel03202210193D

 56 59  0  0  1  0  0  0  0  0999 V2000
   14.0360   62.8690  -10.7460 B   0  0  0  0  0  0  0  0  0  0  0  0
   14.7670   64.0620  -12.0350 C   0  0  0  0  0  0  0  0  0  0  0  0
   13.9380   64.6150  -12.9910 C   0  0  0  0  0  0  0  0  0  0  0  0
   14.4400   65.4840  -13.9370 C   0  0  0  0  0  0  0  0  0  0  0  0
   15.7900   65.7660  -13.8780 C   0  0  0  0  0  0  0  0  0  0  0  0
   16.6120   65.2090  -12.9190 C   0  0  0  0  0  0  0  0  0  0  0  0
   16.1190   64.3380  -11.9680 C   0  0  0  0  0  0  0  0  0  0  0  0
   16.9380   63.7690  -10.9950 O   0  0  0  0  0  0  0  0  0  0  0  0
   18.2520   63.4080  -11.3730 C   0  0  0  0  0  0  0  0  0  0  0  0
   18.9210   62.5380  -10.3390 C   0  0  2  0  0  0  0  0  0  0  0  0
   18.4990   62.7980   -9.0610 O   0  0  0  0  0  0  0  0  0  0  0  0
   20.4030   62.6000  -10.4710 C   0  0  0  0  0  0  0  0  0  0  0  0
   21.1060   62.5800   -9.2070 N   0  0  0  0  0  4  0  0  0  0  0  0
   20.4900   63.5910   -8.3670 C   0  0  0  0  0  0  0  0  0  0  0  0
   21.3030   63.8490   -7.0890 C   0  0  0  0  0  0  0  0  0  0  0  0
   22.6180   64.2360   -7.4550 N   0  0  0  0  0  0  0  0  0  0  0  0
   22.8840   64.2300   -8.9080 C   0  0  0  0  0  0  0  0  0  0  0  0
   22.5060   62.8920   -9.4500 C   0  0  0  0  0  0  0  0  0  0  0  0
   23.6300   64.6070   -6.5610 C   0  0  0  0  0  0  0  0  0  0  0  0
   23.9770   65.8790   -6.6660 O   0  0  0  0  0  0  0  0  0  0  0  0
   24.3510   63.8770   -5.5700 C   0  0  0  0  0  0  0  0  0  0  0  0
   25.5350   63.2170   -5.7380 C   0  0  0  0  0  0  0  0  0  0  0  0
   26.1860   62.5230   -4.7270 C   0  0  0  0  0  0  0  0  0  0  0  0
   25.6490   62.4720   -3.4810 C   0  0  0  0  0  0  0  0  0  0  0  0
   24.4530   63.1290   -3.2780 C   0  0  0  0  0  0  0  0  0  0  0  0
   23.8090   63.8140   -4.2770 C   0  0  0  0  0  0  0  0  0  0  0  0
   13.6090   66.0390  -14.8950 C   0  0  0  0  0  0  0  0  0  0  0  0
   12.2590   65.7580  -14.9540 C   0  0  0  0  0  0  0  0  0  0  0  0
   11.7550   64.8880  -14.0080 C   0  0  0  0  0  0  0  0  0  0  0  0
   12.5840   64.3350  -13.0520 C   0  0  0  0  0  0  0  0  0  0  0  0
   16.1920   66.4470  -14.6180 H   0  0  0  0  0  0  0  0  0  0  0  0
   17.6760   65.4340  -12.8760 H   0  0  0  0  0  0  0  0  0  0  0  0
   18.1760   62.8440  -12.3240 H   0  0  0  0  0  0  0  0  0  0  0  0
   18.8200   64.3490  -11.5440 H   0  0  0  0  0  0  0  0  0  0  0  0
   18.6240   61.4790  -10.5920 H   0  0  0  0  0  0  0  0  0  0  0  0
   18.4590   63.7420   -8.8220 H   0  0  0  0  0  0  0  0  0  0  0  0
   20.6660   63.5770  -10.9600 H   0  0  0  0  0  0  0  0  0  0  0  0
   20.7860   61.7550  -11.0690 H   0  0  0  0  0  0  0  0  0  0  0  0
   21.0410   61.6700   -8.7040 H   0  0  0  0  0  0  0  0  0  0  0  0
   20.2960   64.5120   -8.9380 H   0  0  0  0  0  0  0  0  0  0  0  0
   19.5190   63.1770   -8.0250 H   0  0  0  0  0  0  0  0  0  0  0  0
   20.7910   64.6970   -6.5980 H   0  0  0  0  0  0  0  0  0  0  0  0
   21.2180   62.9490   -6.4540 H   0  0  0  0  0  0  0  0  0  0  0  0
   22.2190   64.9990   -9.3390 H   0  0  0  0  0  0  0  0  0  0  0  0
   23.9320   64.4380   -9.1120 H   0  0  0  0  0  0  0  0  0  0  0  0
   23.1760   62.1220   -9.0170 H   0  0  0  0  0  0  0  0  0  0  0  0
   22.7200   62.9070  -10.5490 H   0  0  0  0  0  0  0  0  0  0  0  0
   26.0280   63.2030   -6.6780 H   0  0  0  0  0  0  0  0  0  0  0  0
   27.1280   62.0180   -4.9270 H   0  0  0  0  0  0  0  0  0  0  0  0
   26.1270   61.9410   -2.6710 H   0  0  0  0  0  0  0  0  0  0  0  0
   24.0260   63.0850   -2.2840 H   0  0  0  0  0  0  0  0  0  0  0  0
   22.8790   64.2900   -4.0060 H   0  0  0  0  0  0  0  0  0  0  0  0
   14.0010   66.7200  -15.6380 H   0  0  0  0  0  0  0  0  0  0  0  0
   11.6340   66.2090  -15.7180 H   0  0  0  0  0  0  0  0  0  0  0  0
   10.6910   64.6720  -14.0610 H   0  0  0  0  0  0  0  0  0  0  0  0
   12.1870   63.6520  -12.3090 H   0  0  0  0  0  0  0  0  0  0  0  0
  2  7  1  0  0  0  0
  2  1  1  0  0  0  0
  3  2  2  0  0  0  0
  4  5  2  0  0  0  0
  4  3  1  0  0  0  0
  5  6  1  0  0  0  0
  6 32  1  0  0  0  0
  6  7  2  0  0  0  0
  7  8  1  0  0  0  0
  9  8  1  0  0  0  0
  9 10  1  0  0  0  0
 10 35  1  6  0  0  0
 10 11  1  0  0  0  0
 11 36  1  0  0  0  0
 12 10  1  0  0  0  0
 12 13  1  0  0  0  0
 13 39  1  0  0  0  0
 13 14  1  0  0  0  0
 14 41  1  0  0  0  0
 14 15  1  0  0  0  0
 15 42  1  0  0  0  0
 15 43  1  0  0  0  0
 16 15  1  0  0  0  0
 16 19  1  0  0  0  0
 17 16  1  0  0  0  0
 18 13  1  0  0  0  0
 18 46  1  0  0  0  0
 18 17  1  0  0  0  0
 19 21  1  0  0  0  0
 20 19  2  0  0  0  0
 21 26  1  0  0  0  0
 22 21  2  0  0  0  0
 22 23  1  0  0  0  0
 23 24  2  0  0  0  0
 24 25  1  0  0  0  0
 24 50  1  0  0  0  0
 25 51  1  0  0  0  0
 26 52  1  0  0  0  0
 26 25  2  0  0  0  0
 27  4  1  0  0  0  0
 28 27  2  0  0  0  0
 28 29  1  0  0  0  0
 29 30  2  0  0  0  0
 30  3  1  0  0  0  0
 30 56  1  0  0  0  0
 31  5  1  0  0  0  0
 33  9  1  0  0  0  0
 34  9  1  0  0  0  0
 37 12  1  0  0  0  0
 38 12  1  0  0  0  0
 40 14  1  0  0  0  0
 44 17  1  0  0  0  0
 45 17  1  0  0  0  0
 47 18  1  0  0  0  0
 48 22  1  0  0  0  0
 49 23  1  0  0  0  0
 53 27  1  0  0  0  0
 54 28  1  0  0  0  0
 55 29  1  0  0  0  0
M  END
>  <Pose>
1

>  <Score>
-6.37

$$$$
