
 OpenBabel03162216073D

 43 46  0  0  0  0  0  0  0  0999 V2000
   22.9680   63.8870   -9.6180 B   0  0  0  0  0  0  0  0  0  0  0  0
   23.1980   63.6500   -7.7430 C   0  0  0  0  0  0  0  0  0  0  0  0
   22.1630   63.7320   -6.8520 N   0  0  0  0  0  0  0  0  0  0  0  0
   22.7290   63.5080   -5.6500 C   0  0  0  0  0  0  0  0  0  0  0  0
   24.0910   63.2900   -5.7770 C   0  0  0  0  0  0  0  0  0  0  0  0
   24.3450   63.3870   -7.0990 N   0  0  0  0  0  0  0  0  0  0  0  0
   24.9150   63.0340   -4.7460 N   0  0  0  0  0  0  0  0  0  0  0  0
   24.3540   62.9910   -3.5240 C   0  0  0  0  0  0  0  0  0  0  0  0
   25.0950   62.7520   -2.5120 O   0  0  0  0  0  0  0  0  0  0  0  0
   23.0350   63.1960   -3.3550 N   0  0  0  0  0  0  0  0  0  0  0  0
   22.1970   63.4550   -4.3980 C   0  0  0  0  0  0  0  0  0  0  0  0
   20.9750   63.6410   -4.2240 O   0  0  0  0  0  0  0  0  0  0  0  0
   26.3380   62.8090   -4.8880 C   0  0  0  0  0  0  0  0  0  0  0  0
   20.7830   63.9880   -7.2090 C   0  0  0  0  0  0  0  0  0  0  0  0
   20.0950   62.8210   -7.8540 C   0  0  0  0  0  0  0  0  0  0  0  0
   20.0330   62.8800   -9.3530 C   0  0  0  0  0  0  0  0  0  0  0  0
   18.6590   63.0900   -9.7880 N   0  0  0  0  0  0  0  0  0  0  0  0
   17.6950   62.1660  -10.0010 C   0  0  0  0  0  0  0  0  0  0  0  0
   16.5300   62.7770  -10.4050 C   0  0  0  0  0  0  0  0  0  0  0  0
   16.8040   64.0950  -10.4330 N   0  0  0  0  0  0  0  0  0  0  0  0
   18.0890   64.2750  -10.0610 C   0  0  0  0  0  0  0  0  0  0  0  0
   19.0160   65.9390   -9.9200 B   0  0  0  0  0  0  0  0  0  0  0  0
   15.3970   62.1090  -10.6910 N   0  0  0  0  0  0  0  0  0  0  0  0
   15.4430   60.7600  -10.5640 C   0  0  0  0  0  0  0  0  0  0  0  0
   14.3760   60.1260  -10.8320 O   0  0  0  0  0  0  0  0  0  0  0  0
   16.5650   60.1210  -10.1710 N   0  0  0  0  0  0  0  0  0  0  0  0
   17.6940   60.8010   -9.8860 C   0  0  0  0  0  0  0  0  0  0  0  0
   18.7530   60.2380   -9.5180 O   0  0  0  0  0  0  0  0  0  0  0  0
   14.1830   62.8010  -11.1170 C   0  0  0  0  0  0  0  0  0  0  0  0
   22.5850   63.1660   -2.4160 H   0  0  0  0  0  0  0  0  0  0  0  0
   26.7070   63.1480   -5.8780 H   0  0  0  0  0  0  0  0  0  0  0  0
   26.8660   63.4710   -4.1440 H   0  0  0  0  0  0  0  0  0  0  0  0
   26.6190   61.7450   -4.7640 H   0  0  0  0  0  0  0  0  0  0  0  0
   20.7140   64.9140   -7.8220 H   0  0  0  0  0  0  0  0  0  0  0  0
   20.2350   64.1680   -6.2390 H   0  0  0  0  0  0  0  0  0  0  0  0
   19.0910   62.6350   -7.4110 H   0  0  0  0  0  0  0  0  0  0  0  0
   20.6920   61.8920   -7.6040 H   0  0  0  0  0  0  0  0  0  0  0  0
   20.5870   63.8040   -9.6970 H   0  0  0  0  0  0  0  0  0  0  0  0
   20.4510   61.9910   -9.8230 H   0  0  0  0  0  0  0  0  0  0  0  0
   16.5400   59.0850  -10.0910 H   0  0  0  0  0  0  0  0  0  0  0  0
   13.7810   63.4400  -10.3030 H   0  0  0  0  0  0  0  0  0  0  0  0
   14.3730   63.4520  -11.9920 H   0  0  0  0  0  0  0  0  0  0  0  0
   13.4310   62.0250  -11.3300 H   0  0  0  0  0  0  0  0  0  0  0  0
  1  2  1  0  0  0  0
  2  6  2  0  0  0  0
  2  3  1  0  0  0  0
  3  4  1  0  0  0  0
  4 11  1  0  0  0  0
  5  4  2  0  0  0  0
  5  7  1  0  0  0  0
  6  5  1  0  0  0  0
  7  8  1  0  0  0  0
  8 10  1  0  0  0  0
  8  9  2  0  0  0  0
 10 30  1  0  0  0  0
 11 12  2  0  0  0  0
 11 10  1  0  0  0  0
 13 33  1  0  0  0  0
 13  7  1  0  0  0  0
 13 32  1  0  0  0  0
 14  3  1  0  0  0  0
 14 35  1  0  0  0  0
 15 37  1  0  0  0  0
 15 36  1  0  0  0  0
 15 14  1  0  0  0  0
 16 15  1  0  0  0  0
 17 16  1  0  0  0  0
 18 27  1  0  0  0  0
 18 17  1  0  0  0  0
 19 18  2  0  0  0  0
 20 19  1  0  0  0  0
 20 21  2  0  0  0  0
 21 22  1  0  0  0  0
 21 17  1  0  0  0  0
 23 24  1  0  0  0  0
 23 19  1  0  0  0  0
 24 26  1  0  0  0  0
 25 24  2  0  0  0  0
 26 40  1  0  0  0  0
 26 27  1  0  0  0  0
 27 28  2  0  0  0  0
 29 23  1  0  0  0  0
 29 41  1  0  0  0  0
 31 13  1  0  0  0  0
 34 14  1  0  0  0  0
 38 16  1  0  0  0  0
 39 16  1  0  0  0  0
 42 29  1  0  0  0  0
 43 29  1  0  0  0  0
M  END
>  <Pose>
1

>  <Score>
-7.58

$$$$
