
 OpenBabel03202210193D

 40 43  0  0  0  0  0  0  0  0999 V2000
   26.4340   65.5660   -7.2960 B   0  0  0  0  0  0  0  0  0  0  0  0
   26.0450   64.1680   -6.0560 C   0  0  0  0  0  0  0  0  0  0  0  0
   24.8300   64.0120   -5.4770 N   0  0  0  0  0  0  0  0  0  0  0  0
   24.9350   62.9300   -4.6710 C   0  0  0  0  0  0  0  0  0  0  0  0
   26.2220   62.4040   -4.7420 C   0  0  0  0  0  0  0  0  0  0  0  0
   26.8720   63.2070   -5.6150 N   0  0  0  0  0  0  0  0  0  0  0  0
   26.5680   61.3170   -4.0300 N   0  0  0  0  0  0  0  0  0  0  0  0
   25.6750   60.7100   -3.2300 C   0  0  0  0  0  0  0  0  0  0  0  0
   25.9940   59.6820   -2.5530 O   0  0  0  0  0  0  0  0  0  0  0  0
   24.4160   61.1730   -3.1230 N   0  0  0  0  0  0  0  0  0  0  0  0
   24.0610   62.2710   -3.8400 C   0  0  0  0  0  0  0  0  0  0  0  0
   22.8860   62.7360   -3.7680 O   0  0  0  0  0  0  0  0  0  0  0  0
   27.9020   60.7660   -4.0990 C   0  0  0  0  0  0  0  0  0  0  0  0
   23.6960   64.8380   -5.7160 C   0  0  0  0  0  0  0  0  0  0  0  0
   23.3900   65.1760   -7.1320 C   0  0  0  0  0  0  0  0  0  0  0  0
   22.3430   64.4720   -7.7820 N   0  0  0  0  0  0  0  0  0  0  0  0
   22.2700   64.1150   -9.0760 C   0  0  0  0  0  0  0  0  0  0  0  0
   21.0790   63.4550   -9.2940 C   0  0  0  0  0  0  0  0  0  0  0  0
   20.4690   63.4380   -8.0920 N   0  0  0  0  0  0  0  0  0  0  0  0
   21.2040   64.0410   -7.1640 C   0  0  0  0  0  0  0  0  0  0  0  0
   20.7770   64.2800   -5.3000 B   0  0  0  0  0  0  0  0  0  0  0  0
   20.7800   62.9950  -10.5080 N   0  0  0  0  0  0  0  0  0  0  0  0
   21.6260   63.1680  -11.5270 C   0  0  0  0  0  0  0  0  0  0  0  0
   21.3660   62.7400  -12.7010 O   0  0  0  0  0  0  0  0  0  0  0  0
   22.8050   63.8000  -11.3950 N   0  0  0  0  0  0  0  0  0  0  0  0
   23.1040   64.2600  -10.1730 C   0  0  0  0  0  0  0  0  0  0  0  0
   24.2000   64.8480  -10.0400 O   0  0  0  0  0  0  0  0  0  0  0  0
   19.5360   62.3030  -10.7520 C   0  0  0  0  0  0  0  0  0  0  0  0
   23.7070   60.7180   -2.5090 H   0  0  0  0  0  0  0  0  0  0  0  0
   27.8360   59.7290   -4.5190 H   0  0  0  0  0  0  0  0  0  0  0  0
   28.3210   60.7810   -3.0820 H   0  0  0  0  0  0  0  0  0  0  0  0
   28.5390   61.4170   -4.7470 H   0  0  0  0  0  0  0  0  0  0  0  0
   23.7060   65.7410   -5.0600 H   0  0  0  0  0  0  0  0  0  0  0  0
   22.7810   64.2770   -5.3380 H   0  0  0  0  0  0  0  0  0  0  0  0
   24.3550   65.1510   -7.7070 H   0  0  0  0  0  0  0  0  0  0  0  0
   23.0950   66.2720   -7.1310 H   0  0  0  0  0  0  0  0  0  0  0  0
   23.4490   63.9190  -12.2190 H   0  0  0  0  0  0  0  0  0  0  0  0
   19.2330   61.8360   -9.7950 H   0  0  0  0  0  0  0  0  0  0  0  0
   18.7370   62.9410  -11.1330 H   0  0  0  0  0  0  0  0  0  0  0  0
   19.6730   61.4550  -11.4700 H   0  0  0  0  0  0  0  0  0  0  0  0
  1  2  1  0  0  0  0
  2  6  2  0  0  0  0
  2  3  1  0  0  0  0
  3  4  1  0  0  0  0
  4 11  1  0  0  0  0
  5  4  2  0  0  0  0
  5  7  1  0  0  0  0
  6  5  1  0  0  0  0
  7  8  1  0  0  0  0
  8 10  1  0  0  0  0
  8  9  2  0  0  0  0
 10 29  1  0  0  0  0
 11 12  2  0  0  0  0
 11 10  1  0  0  0  0
 13  7  1  0  0  0  0
 13 31  1  0  0  0  0
 14  3  1  0  0  0  0
 14 34  1  0  0  0  0
 14 33  1  0  0  0  0
 15 36  1  0  0  0  0
 15 14  1  0  0  0  0
 16 20  1  0  0  0  0
 16 15  1  0  0  0  0
 17 16  1  0  0  0  0
 18 17  2  0  0  0  0
 18 19  1  0  0  0  0
 19 20  2  0  0  0  0
 20 21  1  0  0  0  0
 22 18  1  0  0  0  0
 23 25  1  0  0  0  0
 23 22  1  0  0  0  0
 24 23  2  0  0  0  0
 25 26  1  0  0  0  0
 26 27  2  0  0  0  0
 26 17  1  0  0  0  0
 28 22  1  0  0  0  0
 28 38  1  0  0  0  0
 30 13  1  0  0  0  0
 32 13  1  0  0  0  0
 35 15  1  0  0  0  0
 37 25  1  0  0  0  0
 39 28  1  0  0  0  0
 40 28  1  0  0  0  0
M  END
>  <Pose>
1

>  <Score>
-6.97

$$$$
