
 OpenBabel03202210193D

 37 40  0  0  1  0  0  0  0  0999 V2000
   21.3050   60.0000  -10.3860 B   0  0  0  0  0  0  0  0  0  0  0  0
   19.5580   60.7120  -10.1330 C   0  0  0  0  0  0  0  0  0  0  0  0
   18.4320   60.0300   -9.8290 N   0  0  0  0  0  0  0  0  0  0  0  0
   17.4030   60.8350   -9.6960 N   0  0  0  0  0  0  0  0  0  0  0  0
   17.8690   62.0780   -9.9200 C   0  0  0  0  0  0  0  0  0  0  0  0
   17.2650   63.2700   -9.8990 N   0  0  0  0  0  0  0  0  0  0  0  0
   17.9440   64.4060  -10.1420 C   0  0  0  0  0  0  0  0  0  0  0  0
   19.2610   64.3730  -10.4150 N   0  0  0  0  0  0  0  0  0  0  0  0
   19.9470   63.1900  -10.4550 C   0  0  0  0  0  0  0  0  0  0  0  0
   19.2400   62.0470  -10.2040 C   0  0  0  0  0  0  0  0  0  0  0  0
   21.3380   63.2110  -10.8090 N   0  0  0  0  0  0  0  0  0  0  0  0
   22.3660   63.3950   -9.8330 C   0  0  1  0  0  0  0  0  0  0  0  0
   23.5650   64.0820  -10.3630 C   0  0  0  0  0  0  0  0  0  0  0  0
   23.6350   64.2680  -11.7170 O   0  0  0  0  0  0  0  0  0  0  0  0
   23.1070   63.2040  -12.4410 C   0  0  0  0  0  0  0  0  0  0  0  0
   21.6450   63.0180  -12.1930 C   0  0  0  0  0  0  0  0  0  0  0  0
   21.8380   63.9980   -8.5890 C   0  0  0  0  0  0  0  0  0  0  0  0
   21.4320   63.3330   -7.5060 N   0  0  0  0  0  0  0  0  0  0  0  0
   21.0260   64.2740   -6.6070 C   0  0  0  0  0  0  0  0  0  0  0  0
   21.2080   65.4690   -7.1970 N   0  0  0  0  0  0  0  0  0  0  0  0
   21.6960   65.2760   -8.3870 O   0  0  0  0  0  0  0  0  0  0  0  0
   20.4900   64.0430   -5.2460 C   0  0  0  0  0  0  0  0  0  0  0  0
   16.0440   60.4420   -9.3740 C   0  0  0  0  0  0  0  0  0  0  0  0
   17.3780   65.3430  -10.1060 H   0  0  0  0  0  0  0  0  0  0  0  0
   22.7270   62.3220   -9.5920 H   0  0  0  0  0  0  0  0  0  0  0  0
   24.5290   63.6330   -9.9690 H   0  0  0  0  0  0  0  0  0  0  0  0
   23.5810   65.1160   -9.9000 H   0  0  0  0  0  0  0  0  0  0  0  0
   23.2430   63.4530  -13.5160 H   0  0  0  0  0  0  0  0  0  0  0  0
   23.6920   62.2650  -12.2770 H   0  0  0  0  0  0  0  0  0  0  0  0
   21.0120   63.6440  -12.8670 H   0  0  0  0  0  0  0  0  0  0  0  0
   21.3280   61.9550  -12.4300 H   0  0  0  0  0  0  0  0  0  0  0  0
   19.9340   63.0620   -5.2480 H   0  0  0  0  0  0  0  0  0  0  0  0
   19.7660   64.8200   -4.9430 H   0  0  0  0  0  0  0  0  0  0  0  0
   21.3010   63.9620   -4.4820 H   0  0  0  0  0  0  0  0  0  0  0  0
   15.9230   59.3580   -9.5620 H   0  0  0  0  0  0  0  0  0  0  0  0
   15.3370   61.0020  -10.0350 H   0  0  0  0  0  0  0  0  0  0  0  0
   15.8110   60.6010   -8.2900 H   0  0  0  0  0  0  0  0  0  0  0  0
  1  2  1  0  0  0  0
  2  3  2  0  0  0  0
  3  4  1  0  0  0  0
  4 23  1  0  0  0  0
  5  6  1  0  0  0  0
  5  4  1  0  0  0  0
  7 24  1  0  0  0  0
  7  6  2  0  0  0  0
  8  7  1  0  0  0  0
  9  8  2  0  0  0  0
  9 10  1  0  0  0  0
 10  2  1  0  0  0  0
 10  5  2  0  0  0  0
 11  9  1  0  0  0  0
 11 12  1  0  0  0  0
 12 25  1  1  0  0  0
 12 17  1  0  0  0  0
 13 26  1  0  0  0  0
 13 27  1  0  0  0  0
 13 12  1  0  0  0  0
 14 13  1  0  0  0  0
 15 29  1  0  0  0  0
 15 16  1  0  0  0  0
 15 14  1  0  0  0  0
 16 11  1  0  0  0  0
 17 21  1  0  0  0  0
 17 18  2  0  0  0  0
 18 19  1  0  0  0  0
 19 22  1  0  0  0  0
 20 19  2  0  0  0  0
 21 20  1  0  0  0  0
 22 33  1  0  0  0  0
 22 34  1  0  0  0  0
 23 37  1  0  0  0  0
 28 15  1  0  0  0  0
 30 16  1  0  0  0  0
 31 16  1  0  0  0  0
 32 22  1  0  0  0  0
 35 23  1  0  0  0  0
 36 23  1  0  0  0  0
M  END
>  <Pose>
1

>  <Score>
-4.65

$$$$
