
 OpenBabel03202210193D

 35 38  0  0  0  0  0  0  0  0999 V2000
   15.9250   64.3540  -10.9850 B   0  0  0  0  0  0  0  0  0  0  0  0
   15.4730   62.5320  -10.6710 C   0  0  0  0  0  0  0  0  0  0  0  0
   14.2180   61.9970  -10.7220 N   0  0  0  0  0  0  0  0  0  0  0  0
   14.2980   60.7120  -10.4730 N   0  0  0  0  0  0  0  0  0  0  0  0
   15.5780   60.3670  -10.2560 C   0  0  0  0  0  0  0  0  0  0  0  0
   16.1930   59.2060   -9.9770 N   0  0  0  0  0  0  0  0  0  0  0  0
   17.5120   59.1310   -9.8160 C   0  0  0  0  0  0  0  0  0  0  0  0
   18.2540   60.2280   -9.9290 N   0  0  0  0  0  0  0  0  0  0  0  0
   17.7270   61.4660  -10.2110 C   0  0  0  0  0  0  0  0  0  0  0  0
   16.3660   61.5240  -10.3760 C   0  0  0  0  0  0  0  0  0  0  0  0
   18.5430   62.5950  -10.2800 N   0  0  0  0  0  0  0  0  0  0  0  0
   19.0400   63.2360   -9.0820 C   0  0  0  0  0  0  0  0  0  0  0  0
   20.5480   62.9240   -8.9900 C   0  0  0  0  0  0  0  0  0  0  0  0
   21.1340   62.9440  -10.3480 C   0  0  0  0  0  0  0  0  0  0  0  0
   22.4450   62.8480  -10.6690 N   0  0  0  0  0  0  0  0  0  0  0  0
   22.5450   62.9090  -12.0070 C   0  0  0  0  0  0  0  0  0  0  0  0
   21.3380   63.0410  -12.5540 N   0  0  0  0  0  0  0  0  0  0  0  0
   20.4600   63.0630  -11.5270 C   0  0  0  0  0  0  0  0  0  0  0  0
   18.9830   63.1880  -11.5170 C   0  0  0  0  0  0  0  0  0  0  0  0
   23.5710   62.7060   -9.7830 C   0  0  0  0  0  0  0  0  0  0  0  0
   13.2060   59.7290  -10.4210 C   0  0  0  0  0  0  0  0  0  0  0  0
   17.9700   58.1930   -9.5960 H   0  0  0  0  0  0  0  0  0  0  0  0
   18.5930   62.8680   -8.1510 H   0  0  0  0  0  0  0  0  0  0  0  0
   18.9140   64.3450   -9.1090 H   0  0  0  0  0  0  0  0  0  0  0  0
   20.7170   61.9340   -8.5270 H   0  0  0  0  0  0  0  0  0  0  0  0
   20.9740   63.6880   -8.3150 H   0  0  0  0  0  0  0  0  0  0  0  0
   23.4680   62.8610  -12.6050 H   0  0  0  0  0  0  0  0  0  0  0  0
   18.5060   62.7370  -12.4080 H   0  0  0  0  0  0  0  0  0  0  0  0
   18.7740   64.2980  -11.4690 H   0  0  0  0  0  0  0  0  0  0  0  0
   24.3000   61.9590  -10.1650 H   0  0  0  0  0  0  0  0  0  0  0  0
   24.1300   63.6710   -9.7250 H   0  0  0  0  0  0  0  0  0  0  0  0
   23.2460   62.3600   -8.7730 H   0  0  0  0  0  0  0  0  0  0  0  0
   13.4220   58.8940  -11.1160 H   0  0  0  0  0  0  0  0  0  0  0  0
   12.2550   60.2350  -10.6640 H   0  0  0  0  0  0  0  0  0  0  0  0
   13.1110   59.3420   -9.3810 H   0  0  0  0  0  0  0  0  0  0  0  0
  1  2  1  0  0  0  0
  2 10  1  0  0  0  0
  3  2  2  0  0  0  0
  3  4  1  0  0  0  0
  4 21  1  0  0  0  0
  4  5  1  0  0  0  0
  5  6  1  0  0  0  0
  6  7  2  0  0  0  0
  7 22  1  0  0  0  0
  8  7  1  0  0  0  0
  9  8  2  0  0  0  0
 10  5  2  0  0  0  0
 10  9  1  0  0  0  0
 11  9  1  0  0  0  0
 11 12  1  0  0  0  0
 12 13  1  0  0  0  0
 12 23  1  0  0  0  0
 13 25  1  0  0  0  0
 13 26  1  0  0  0  0
 14 13  1  0  0  0  0
 15 14  1  0  0  0  0
 15 20  1  0  0  0  0
 16 15  1  0  0  0  0
 17 16  2  0  0  0  0
 17 18  1  0  0  0  0
 18 19  1  0  0  0  0
 18 14  2  0  0  0  0
 19 29  1  0  0  0  0
 19 11  1  0  0  0  0
 20 31  1  0  0  0  0
 20 32  1  0  0  0  0
 21 35  1  0  0  0  0
 24 12  1  0  0  0  0
 27 16  1  0  0  0  0
 28 19  1  0  0  0  0
 30 20  1  0  0  0  0
 33 21  1  0  0  0  0
 34 21  1  0  0  0  0
M  END
>  <Pose>
1

>  <Score>
-7.12

$$$$
