
 OpenBabel03202210193D

 32 35  0  0  1  0  0  0  0  0999 V2000
   22.9760   65.6160   -6.9510 B   0  0  0  0  0  0  0  0  0  0  0  0
   22.3040   64.6240   -8.4480 C   0  0  0  0  0  0  0  0  0  0  0  0
   21.2380   63.8170   -8.4950 N   0  0  0  0  0  0  0  0  0  0  0  0
   21.1110   63.3190   -9.7240 C   0  0  0  0  0  0  0  0  0  0  0  0
   22.1280   63.8300  -10.4680 N   0  0  0  0  0  0  0  0  0  0  0  0
   22.8790   64.6410   -9.7020 C   0  0  0  0  0  0  0  0  0  0  0  0
   19.9980   62.3810  -10.0550 C   0  0  0  0  0  0  0  0  0  0  0  0
   18.8440   62.6660   -9.2390 N   0  0  2  0  0  0  0  0  0  0  0  0
   18.9080   63.3060   -7.9450 C   0  0  0  0  0  0  0  0  0  0  0  0
   20.3100   63.4730   -7.4370 C   0  0  0  0  0  0  0  0  0  0  0  0
   17.5780   62.2940   -9.7330 C   0  0  1  0  0  0  0  0  0  0  0  0
   16.7410   63.2270  -10.1260 C   0  0  0  0  0  0  0  0  0  0  0  0
   15.4070   62.8990  -10.6510 C   0  0  0  0  0  0  0  0  0  0  0  0
   14.5550   63.8260  -11.0500 C   0  0  0  0  0  0  0  0  0  0  0  0
   15.0980   61.5140  -10.6990 N   0  0  0  0  0  0  0  0  0  0  0  0
   16.0250   60.5100  -10.2650 C   0  0  0  0  0  0  0  0  0  0  0  0
   17.2320   60.9250   -9.7970 N   0  0  0  0  0  0  0  0  0  0  0  0
   17.8930   59.8100   -9.4650 N   0  0  0  0  0  0  0  0  0  0  0  0
   17.1520   58.7190   -9.7060 C   0  0  0  0  0  0  0  0  0  0  0  0
   15.9880   59.1670  -10.2050 N   0  0  0  0  0  0  0  0  0  0  0  0
   23.7710   65.2030  -10.0070 H   0  0  0  0  0  0  0  0  0  0  0  0
   19.7800   62.4420  -11.1400 H   0  0  0  0  0  0  0  0  0  0  0  0
   20.3130   61.3300   -9.8190 H   0  0  0  0  0  0  0  0  0  0  0  0
   18.3660   62.6360   -7.2240 H   0  0  0  0  0  0  0  0  0  0  0  0
   18.3520   64.2440   -7.9940 H   0  0  0  0  0  0  0  0  0  0  0  0
   20.2860   64.2650   -6.6590 H   0  0  0  0  0  0  0  0  0  0  0  0
   20.7020   62.5640   -6.9370 H   0  0  0  0  0  0  0  0  0  0  0  0
   16.9850   64.2930  -10.0860 H   0  0  0  0  0  0  0  0  0  0  0  0
   14.7830   64.8850  -11.0150 H   0  0  0  0  0  0  0  0  0  0  0  0
   13.5750   63.5820  -11.4340 H   0  0  0  0  0  0  0  0  0  0  0  0
   14.1670   61.2160  -11.0610 H   0  0  0  0  0  0  0  0  0  0  0  0
   17.4440   57.6720   -9.5280 H   0  0  0  0  0  0  0  0  0  0  0  0
  2  1  1  0  0  0  0
  3  2  1  0  0  0  0
  3 10  1  0  0  0  0
  4  3  1  0  0  0  0
  5  4  2  0  0  0  0
  5  6  1  0  0  0  0
  6  2  2  0  0  0  0
  7 23  1  0  0  0  0
  7  4  1  0  0  0  0
  8  7  1  1  0  0  0
  8  9  1  0  0  0  0
  9 10  1  0  0  0  0
  9 24  1  0  0  0  0
 10 27  1  0  0  0  0
 10 26  1  0  0  0  0
 11 12  1  6  0  0  0
 11  8  1  0  0  0  0
 12 28  1  0  0  0  0
 13 12  2  0  0  0  0
 14 29  1  0  0  0  0
 14 13  1  0  0  0  0
 15 13  1  0  0  0  0
 15 16  1  0  0  0  0
 16 20  2  0  0  0  0
 16 17  1  0  0  0  0
 17 11  1  0  0  0  0
 17 18  1  0  0  0  0
 19 32  1  0  0  0  0
 19 18  2  0  0  0  0
 20 19  1  0  0  0  0
 21  6  1  0  0  0  0
 22  7  1  0  0  0  0
 25  9  1  0  0  0  0
 30 14  1  0  0  0  0
 31 15  1  0  0  0  0
M  END
>  <Pose>
1

>  <Score>
-6.38

$$$$
