
 OpenBabel03202210193D

 49 52  0  0  1  0  0  0  0  0999 V2000
   24.6990   71.2230   -2.8070 B   0  0  0  0  0  0  0  0  0  0  0  0
   24.1100   70.5210   -4.5000 C   0  0  0  0  0  0  0  0  0  0  0  0
   23.2450   69.5530   -4.6640 O   0  0  0  0  0  0  0  0  0  0  0  0
   23.0590   69.3090   -5.9620 C   0  0  0  0  0  0  0  0  0  0  0  0
   23.8660   70.1880   -6.6490 C   0  0  0  0  0  0  0  0  0  0  0  0
   24.5400   70.9640   -5.7400 C   0  0  0  0  0  0  0  0  0  0  0  0
   22.1630   68.2960   -6.4980 C   0  0  0  0  0  0  0  0  0  0  0  0
   20.9520   68.5590   -6.6480 O   0  0  0  0  0  0  0  0  0  0  0  0
   22.6460   67.0230   -6.8500 N   0  0  0  0  0  0  0  0  0  0  0  0
   22.5530   65.8670   -5.9820 C   0  0  1  0  0  0  0  0  0  0  0  0
   21.2010   65.2670   -6.1240 C   0  0  0  0  0  0  0  0  0  0  0  0
   23.6790   64.9360   -6.1710 C   0  0  0  0  0  0  0  0  0  0  0  0
   24.5530   65.2850   -7.0390 O   0  0  0  0  0  0  0  0  0  0  0  0
   23.8950   63.7240   -5.5060 N   0  0  0  0  0  0  0  0  0  0  0  0
   24.7720   62.6910   -6.0190 C   0  0  0  0  0  0  0  0  0  0  0  0
   25.8780   62.4930   -5.0290 C   0  0  0  0  0  0  0  0  0  0  0  0
   25.3610   62.2580   -3.6450 C   0  0  1  0  0  0  0  0  0  0  0  0
   25.8930   60.9940   -3.1640 N   0  0  0  0  0  0  0  0  0  0  0  0
   27.3320   61.1340   -3.0400 C   0  0  0  0  0  0  0  0  0  0  0  0
   27.5770   61.8380   -1.7010 C   0  0  0  0  0  0  0  0  0  0  0  0
   26.8250   63.1130   -1.7730 C   0  0  0  0  0  0  0  0  0  0  0  0
   26.9730   64.2380   -1.0470 N   0  0  0  0  0  0  0  0  0  0  0  0
   26.0580   65.1180   -1.4840 C   0  0  0  0  0  0  0  0  0  0  0  0
   25.3560   64.5350   -2.4720 N   0  0  0  0  0  0  0  0  0  0  0  0
   25.8070   63.2860   -2.6780 C   0  0  0  0  0  0  0  0  0  0  0  0
   23.8360   62.1650   -3.6730 C   0  0  0  0  0  0  0  0  0  0  0  0
   23.2420   63.4100   -4.2480 C   0  0  0  0  0  0  0  0  0  0  0  0
   23.9340   70.2320   -7.7190 H   0  0  0  0  0  0  0  0  0  0  0  0
   25.2600   71.7600   -5.9330 H   0  0  0  0  0  0  0  0  0  0  0  0
   23.0960   66.8940   -7.7790 H   0  0  0  0  0  0  0  0  0  0  0  0
   22.6310   66.2550   -4.9240 H   0  0  0  0  0  0  0  0  0  0  0  0
   20.6180   65.8680   -6.8520 H   0  0  0  0  0  0  0  0  0  0  0  0
   20.5830   65.2710   -5.2020 H   0  0  0  0  0  0  0  0  0  0  0  0
   21.2280   64.2450   -6.5690 H   0  0  0  0  0  0  0  0  0  0  0  0
   25.1130   62.8820   -7.0390 H   0  0  0  0  0  0  0  0  0  0  0  0
   24.1920   61.7230   -6.0930 H   0  0  0  0  0  0  0  0  0  0  0  0
   26.4530   61.5850   -5.3730 H   0  0  0  0  0  0  0  0  0  0  0  0
   26.5850   63.3450   -5.0870 H   0  0  0  0  0  0  0  0  0  0  0  0
   25.7360   60.2210   -3.8700 H   0  0  0  0  0  0  0  0  0  0  0  0
   27.8730   60.1880   -3.1180 H   0  0  0  0  0  0  0  0  0  0  0  0
   27.7350   61.8490   -3.8100 H   0  0  0  0  0  0  0  0  0  0  0  0
   27.0780   61.2180   -0.9140 H   0  0  0  0  0  0  0  0  0  0  0  0
   28.6460   61.9760   -1.5100 H   0  0  0  0  0  0  0  0  0  0  0  0
   27.6550   64.4460   -0.2750 H   0  0  0  0  0  0  0  0  0  0  0  0
   25.8950   66.1170   -1.1280 H   0  0  0  0  0  0  0  0  0  0  0  0
   23.5170   62.0420   -2.6120 H   0  0  0  0  0  0  0  0  0  0  0  0
   23.5790   61.2500   -4.2180 H   0  0  0  0  0  0  0  0  0  0  0  0
   22.1760   63.1590   -4.5280 H   0  0  0  0  0  0  0  0  0  0  0  0
   23.2220   64.2580   -3.5570 H   0  0  0  0  0  0  0  0  0  0  0  0
  2  1  1  0  0  0  0
  3  2  1  0  0  0  0
  4  3  1  0  0  0  0
  5  4  2  0  0  0  0
  5  6  1  0  0  0  0
  6  2  2  0  0  0  0
  7  4  1  0  0  0  0
  8  7  2  0  0  0  0
  9  7  1  0  0  0  0
  9 10  1  0  0  0  0
 10 31  1  1  0  0  0
 11 10  1  0  0  0  0
 11 33  1  0  0  0  0
 12 10  1  0  0  0  0
 12 14  1  0  0  0  0
 13 12  2  0  0  0  0
 14 27  1  0  0  0  0
 15 14  1  0  0  0  0
 15 16  1  0  0  0  0
 16 17  1  0  0  0  0
 17 18  1  0  0  0  0
 17 25  1  1  0  0  0
 18 19  1  0  0  0  0
 19 20  1  0  0  0  0
 20 43  1  0  0  0  0
 20 42  1  0  0  0  0
 21 20  1  0  0  0  0
 21 22  1  0  0  0  0
 22 44  1  0  0  0  0
 23 45  1  0  0  0  0
 23 22  1  0  0  0  0
 24 23  2  0  0  0  0
 25 24  1  0  0  0  0
 25 21  2  0  0  0  0
 26 17  1  0  0  0  0
 26 46  1  0  0  0  0
 27 26  1  0  0  0  0
 27 49  1  0  0  0  0
 28  5  1  0  0  0  0
 29  6  1  0  0  0  0
 30  9  1  0  0  0  0
 32 11  1  0  0  0  0
 34 11  1  0  0  0  0
 35 15  1  0  0  0  0
 36 15  1  0  0  0  0
 37 16  1  0  0  0  0
 38 16  1  0  0  0  0
 39 18  1  0  0  0  0
 40 19  1  0  0  0  0
 41 19  1  0  0  0  0
 47 26  1  0  0  0  0
 48 27  1  0  0  0  0
M  END
>  <Pose>
1

>  <Score>
-6.42

$$$$
