
 OpenBabel03202210193D

 53 56  0  0  0  0  0  0  0  0999 V2000
   13.8920   62.2790  -11.5090 B   0  0  0  0  0  0  0  0  0  0  0  0
   15.4610   61.4380  -10.8140 C   0  0  0  0  0  0  0  0  0  0  0  0
   16.6110   62.0240  -10.5940 O   0  0  0  0  0  0  0  0  0  0  0  0
   17.5060   61.1960  -10.1140 C   0  0  0  0  0  0  0  0  0  0  0  0
   16.8860   59.9740  -10.0140 C   0  0  0  0  0  0  0  0  0  0  0  0
   15.5950   60.1150  -10.4530 C   0  0  0  0  0  0  0  0  0  0  0  0
   18.9060   61.5170   -9.7520 C   0  0  0  0  0  0  0  0  0  0  0  0
   19.7430   60.6060   -9.6690 O   0  0  0  0  0  0  0  0  0  0  0  0
   19.2680   62.8680   -9.5050 N   0  0  0  0  0  0  0  0  0  0  0  0
   20.4450   63.4510  -10.1430 C   0  0  0  0  0  0  0  0  0  0  0  0
   20.6450   64.8850   -9.6580 C   0  0  0  0  0  0  0  0  0  0  0  0
   20.5860   64.8610   -8.2100 N   0  0  0  0  0  0  0  0  0  0  0  0
   19.4050   64.3380   -7.5770 C   0  0  0  0  0  0  0  0  0  0  0  0
   18.5070   63.7280   -8.6220 C   0  0  0  0  0  0  0  0  0  0  0  0
   21.6720   65.3440   -7.4090 C   0  0  0  0  0  0  0  0  0  0  0  0
   22.0190   66.6380   -7.4020 N   0  0  0  0  0  0  0  0  0  0  0  0
   23.0390   67.0600   -6.6460 C   0  0  0  0  0  0  0  0  0  0  0  0
   23.7470   66.2130   -5.8740 N   0  0  0  0  0  0  0  0  0  0  0  0
   23.4510   64.9020   -5.8350 C   0  0  0  0  0  0  0  0  0  0  0  0
   22.3970   64.4870   -6.6210 C   0  0  0  0  0  0  0  0  0  0  0  0
   24.1650   63.9720   -5.0400 N   0  0  0  0  0  0  0  0  0  0  0  0
   25.3160   63.2780   -5.5810 C   0  0  0  0  0  0  0  0  0  0  0  0
   26.0280   62.6150   -4.4200 C   0  0  0  0  0  0  0  0  0  0  0  0
   25.1350   61.6660   -3.8110 N   0  0  0  0  0  0  0  0  0  0  0  0
   23.8190   62.1560   -3.5470 C   0  0  0  0  0  0  0  0  0  0  0  0
   23.8000   63.6650   -3.6700 C   0  0  0  0  0  0  0  0  0  0  0  0
   25.1770   60.4190   -4.5310 C   0  0  0  0  0  0  0  0  0  0  0  0
   23.4150   68.4960   -6.6440 C   0  0  0  0  0  0  0  0  0  0  0  0
   17.3250   59.0570   -9.6550 H   0  0  0  0  0  0  0  0  0  0  0  0
   14.8080   59.3450  -10.5140 H   0  0  0  0  0  0  0  0  0  0  0  0
   20.3520   63.4270  -11.2410 H   0  0  0  0  0  0  0  0  0  0  0  0
   21.3350   62.8450   -9.8670 H   0  0  0  0  0  0  0  0  0  0  0  0
   21.6120   65.2660   -9.9910 H   0  0  0  0  0  0  0  0  0  0  0  0
   19.7930   65.4770  -10.0600 H   0  0  0  0  0  0  0  0  0  0  0  0
   19.6820   63.5940   -6.7910 H   0  0  0  0  0  0  0  0  0  0  0  0
   18.8400   65.1950   -7.1130 H   0  0  0  0  0  0  0  0  0  0  0  0
   17.6530   63.2120   -8.1650 H   0  0  0  0  0  0  0  0  0  0  0  0
   18.1150   64.5670   -9.2480 H   0  0  0  0  0  0  0  0  0  0  0  0
   22.1200   63.4420   -6.6230 H   0  0  0  0  0  0  0  0  0  0  0  0
   24.9870   62.5190   -6.3030 H   0  0  0  0  0  0  0  0  0  0  0  0
   25.9560   64.0350   -6.0790 H   0  0  0  0  0  0  0  0  0  0  0  0
   26.8970   62.0810   -4.8420 H   0  0  0  0  0  0  0  0  0  0  0  0
   26.3790   63.3840   -3.7120 H   0  0  0  0  0  0  0  0  0  0  0  0
   23.4910   61.8790   -2.5250 H   0  0  0  0  0  0  0  0  0  0  0  0
   23.0840   61.7450   -4.2560 H   0  0  0  0  0  0  0  0  0  0  0  0
   24.5970   64.0880   -3.0100 H   0  0  0  0  0  0  0  0  0  0  0  0
   22.8040   64.0880   -3.4360 H   0  0  0  0  0  0  0  0  0  0  0  0
   25.9890   60.3850   -5.2610 H   0  0  0  0  0  0  0  0  0  0  0  0
   25.3380   59.5970   -3.7850 H   0  0  0  0  0  0  0  0  0  0  0  0
   24.2020   60.2480   -5.0360 H   0  0  0  0  0  0  0  0  0  0  0  0
   23.7340   68.7770   -5.6200 H   0  0  0  0  0  0  0  0  0  0  0  0
   24.2460   68.6710   -7.3580 H   0  0  0  0  0  0  0  0  0  0  0  0
   22.5300   69.1140   -6.8770 H   0  0  0  0  0  0  0  0  0  0  0  0
  1  2  1  0  0  0  0
  2  3  1  0  0  0  0
  2  6  2  0  0  0  0
  3  4  1  0  0  0  0
  4  5  2  0  0  0  0
  4  7  1  0  0  0  0
  5 29  1  0  0  0  0
  6  5  1  0  0  0  0
  7  8  2  0  0  0  0
  7  9  1  0  0  0  0
  9 14  1  0  0  0  0
 10 32  1  0  0  0  0
 10 11  1  0  0  0  0
 10  9  1  0  0  0  0
 11 12  1  0  0  0  0
 12 13  1  0  0  0  0
 12 15  1  0  0  0  0
 13 36  1  0  0  0  0
 13 35  1  0  0  0  0
 14 37  1  0  0  0  0
 14 13  1  0  0  0  0
 15 16  1  0  0  0  0
 15 20  2  0  0  0  0
 16 17  2  0  0  0  0
 17 28  1  0  0  0  0
 17 18  1  0  0  0  0
 18 19  2  0  0  0  0
 19 21  1  0  0  0  0
 20 19  1  0  0  0  0
 21 26  1  0  0  0  0
 22 21  1  0  0  0  0
 22 23  1  0  0  0  0
 23 24  1  0  0  0  0
 23 43  1  0  0  0  0
 24 25  1  0  0  0  0
 25 44  1  0  0  0  0
 26 25  1  0  0  0  0
 26 47  1  0  0  0  0
 26 46  1  0  0  0  0
 27 24  1  0  0  0  0
 27 49  1  0  0  0  0
 28 51  1  0  0  0  0
 30  6  1  0  0  0  0
 31 10  1  0  0  0  0
 33 11  1  0  0  0  0
 34 11  1  0  0  0  0
 38 14  1  0  0  0  0
 39 20  1  0  0  0  0
 40 22  1  0  0  0  0
 41 22  1  0  0  0  0
 42 23  1  0  0  0  0
 45 25  1  0  0  0  0
 48 27  1  0  0  0  0
 50 27  1  0  0  0  0
 52 28  1  0  0  0  0
 53 28  1  0  0  0  0
M  END
>  <Pose>
1

>  <Score>
-6.01

$$$$
