
 OpenBabel03202210193D

 43 46  0  0  0  0  0  0  0  0999 V2000
   27.8490   70.6260   -1.1000 B   0  0  0  0  0  0  0  0  0  0  0  0
   26.7210   70.7440   -2.6200 C   0  0  0  0  0  0  0  0  0  0  0  0
   25.5520   70.2120   -2.8120 O   0  0  0  0  0  0  0  0  0  0  0  0
   25.0580   70.5040   -3.9880 C   0  0  0  0  0  0  0  0  0  0  0  0
   25.9950   71.3010   -4.6210 C   0  0  0  0  0  0  0  0  0  0  0  0
   27.0710   71.4680   -3.7620 C   0  0  0  0  0  0  0  0  0  0  0  0
   23.7790   70.0880   -4.5490 C   0  0  0  0  0  0  0  0  0  0  0  0
   22.5490   70.5570   -4.2420 N   0  0  0  0  0  0  0  0  0  0  0  0
   21.6540   69.9360   -4.9560 O   0  0  0  0  0  0  0  0  0  0  0  0
   22.2280   69.0590   -5.7400 C   0  0  0  0  0  0  0  0  0  0  0  0
   23.5390   69.1540   -5.4870 N   0  0  0  0  0  0  0  0  0  0  0  0
   21.4980   68.2010   -6.6640 C   0  0  0  0  0  0  0  0  0  0  0  0
   20.2350   68.3420   -6.8000 O   0  0  0  0  0  0  0  0  0  0  0  0
   22.1470   67.1960   -7.4340 N   0  0  0  0  0  0  0  0  0  0  0  0
   21.6510   65.8640   -7.5030 C   0  0  0  0  0  0  0  0  0  0  0  0
   21.9620   65.1850   -8.8200 C   0  0  0  0  0  0  0  0  0  0  0  0
   20.7510   64.9520   -9.5940 N   0  0  0  0  0  0  0  0  0  0  0  0
   20.4320   63.6400   -9.9830 C   0  0  0  0  0  0  0  0  0  0  0  0
   21.4380   62.8840  -10.2370 O   0  0  0  0  0  0  0  0  0  0  0  0
   19.1260   63.0500  -10.1290 C   0  0  0  0  0  0  0  0  0  0  0  0
   18.0460   63.8850  -10.4110 C   0  0  0  0  0  0  0  0  0  0  0  0
   16.7920   63.3490  -10.5640 C   0  0  0  0  0  0  0  0  0  0  0  0
   16.5990   62.0080  -10.4400 C   0  0  0  0  0  0  0  0  0  0  0  0
   15.3210   61.4670  -10.5970 C   0  0  0  0  0  0  0  0  0  0  0  0
   14.2320   62.2560  -10.8770 C   0  0  0  0  0  0  0  0  0  0  0  0
   14.4320   63.6080  -10.9990 C   0  0  0  0  0  0  0  0  0  0  0  0
   15.6860   64.1560  -10.8470 C   0  0  0  0  0  0  0  0  0  0  0  0
   17.6280   61.2550  -10.1770 O   0  0  0  0  0  0  0  0  0  0  0  0
   18.8660   61.7080  -10.0170 C   0  0  0  0  0  0  0  0  0  0  0  0
   19.7670   60.8740   -9.7650 O   0  0  0  0  0  0  0  0  0  0  0  0
   25.8670   71.6940   -5.5990 H   0  0  0  0  0  0  0  0  0  0  0  0
   27.9770   72.0390   -3.9480 H   0  0  0  0  0  0  0  0  0  0  0  0
   23.0060   67.4500   -7.9570 H   0  0  0  0  0  0  0  0  0  0  0  0
   20.5300   65.9200   -7.4380 H   0  0  0  0  0  0  0  0  0  0  0  0
   21.9720   65.2520   -6.6380 H   0  0  0  0  0  0  0  0  0  0  0  0
   22.5820   65.8910   -9.4100 H   0  0  0  0  0  0  0  0  0  0  0  0
   22.5530   64.2620   -8.6700 H   0  0  0  0  0  0  0  0  0  0  0  0
   20.1190   65.7280   -9.8610 H   0  0  0  0  0  0  0  0  0  0  0  0
   18.1810   64.9650  -10.5130 H   0  0  0  0  0  0  0  0  0  0  0  0
   15.2030   60.4010  -10.4940 H   0  0  0  0  0  0  0  0  0  0  0  0
   13.2630   61.7990  -10.9900 H   0  0  0  0  0  0  0  0  0  0  0  0
   13.5850   64.2360  -11.2180 H   0  0  0  0  0  0  0  0  0  0  0  0
   15.8540   65.2170  -10.9420 H   0  0  0  0  0  0  0  0  0  0  0  0
  2  1  1  0  0  0  0
  3  2  1  0  0  0  0
  4  3  1  0  0  0  0
  5  4  2  0  0  0  0
  5  6  1  0  0  0  0
  6  2  2  0  0  0  0
  7  8  2  0  0  0  0
  7  4  1  0  0  0  0
  9  8  1  0  0  0  0
 10 11  2  0  0  0  0
 10  9  1  0  0  0  0
 11  7  1  0  0  0  0
 12 10  1  0  0  0  0
 13 12  2  0  0  0  0
 14 12  1  0  0  0  0
 15 34  1  0  0  0  0
 15 14  1  0  0  0  0
 15 35  1  0  0  0  0
 16 37  1  0  0  0  0
 16 15  1  0  0  0  0
 17 16  1  0  0  0  0
 18 17  1  0  0  0  0
 19 18  2  0  0  0  0
 20 29  1  0  0  0  0
 20 18  1  0  0  0  0
 21 20  2  0  0  0  0
 22 23  1  0  0  0  0
 22 21  1  0  0  0  0
 23 28  1  0  0  0  0
 24 40  1  0  0  0  0
 24 23  2  0  0  0  0
 25 24  1  0  0  0  0
 26 25  2  0  0  0  0
 26 27  1  0  0  0  0
 27 22  2  0  0  0  0
 28 29  1  0  0  0  0
 29 30  2  0  0  0  0
 31  5  1  0  0  0  0
 32  6  1  0  0  0  0
 33 14  1  0  0  0  0
 36 16  1  0  0  0  0
 38 17  1  0  0  0  0
 39 21  1  0  0  0  0
 41 25  1  0  0  0  0
 42 26  1  0  0  0  0
 43 27  1  0  0  0  0
M  END
>  <Pose>
1

>  <Score>
-7.15

$$$$
