
 OpenBabel03202210193D

 63 66  0  0  1  0  0  0  0  0999 V2000
   13.5980   64.2720  -12.4810 B   0  0  0  0  0  0  0  0  0  0  0  0
   15.0230   63.4640  -11.5120 C   0  0  0  0  0  0  0  0  0  0  0  0
   16.2800   64.0020  -11.6300 C   0  0  0  0  0  0  0  0  0  0  0  0
   17.3520   63.5060  -10.9870 N   0  0  0  0  0  0  0  0  0  0  0  0
   17.0980   62.4160  -10.2010 C   0  0  0  0  0  0  0  0  0  0  0  0
   18.0560   61.8910   -9.5630 O   0  0  0  0  0  0  0  0  0  0  0  0
   15.8990   61.8720  -10.0660 N   0  0  0  0  0  0  0  0  0  0  0  0
   14.8280   62.3690  -10.7080 C   0  0  0  0  0  0  0  0  0  0  0  0
   13.6750   61.8830  -10.6050 O   0  0  0  0  0  0  0  0  0  0  0  0
   18.6710   64.0420  -11.0880 C   0  0  2  0  0  0  0  0  0  0  0  0
   19.7110   62.9790  -11.4620 C   0  0  2  0  0  0  0  0  0  0  0  0
   20.1740   62.2910  -10.2240 C   0  0  0  0  0  0  0  0  0  0  0  0
   20.8590   63.3060   -9.3360 C   0  0  0  0  0  0  0  0  0  0  0  0
   20.5190   64.6080   -9.6530 O   0  0  0  0  0  0  0  0  0  0  0  0
   19.1630   64.7860   -9.8920 C   0  0  0  0  0  0  0  0  0  0  0  0
   20.5820   62.9330   -7.9250 C   0  0  0  0  0  0  0  0  0  0  0  0
   21.3050   63.9340   -7.0100 C   0  0  0  0  0  0  0  0  0  0  0  0
   22.7070   63.7340   -7.1700 N   0  0  0  0  0  0  0  0  0  0  0  0
   23.0790   62.8110   -8.2950 C   0  0  0  0  0  0  0  0  0  0  0  0
   22.3510   63.1640   -9.5490 C   0  0  0  0  0  0  0  0  0  0  0  0
   23.7100   64.3010   -6.4090 C   0  0  0  0  0  0  0  0  0  0  0  0
   24.0180   65.5430   -6.7210 O   0  0  0  0  0  0  0  0  0  0  0  0
   24.4760   63.7740   -5.3370 C   0  0  0  0  0  0  0  0  0  0  0  0
   25.7170   63.1620   -5.5890 C   0  0  0  0  0  0  0  0  0  0  0  0
   26.5480   62.6370   -4.6500 C   0  0  0  0  0  0  0  0  0  0  0  0
   26.1160   62.7220   -3.3110 C   0  0  0  0  0  0  0  0  0  0  0  0
   24.9250   63.3060   -3.0430 C   0  0  0  0  0  0  0  0  0  0  0  0
   24.0880   63.8390   -4.0380 C   0  0  0  0  0  0  0  0  0  0  0  0
   27.7430   62.0470   -4.9350 O   0  0  0  0  0  0  0  0  0  0  0  0
   28.7830   62.4240   -5.7330 C   0  0  0  0  0  0  0  0  0  0  0  0
   29.2510   61.3330   -6.6340 C   0  0  0  0  0  0  0  0  0  0  0  0
   30.7080   61.2180   -6.5470 N   0  0  0  0  0  0  0  0  0  0  0  0
   20.8000   63.6680  -12.0010 O   0  0  0  0  0  0  0  0  0  0  0  0
   19.1880   62.0560  -12.5150 C   0  0  0  0  0  0  0  0  0  0  0  0
   16.4230   64.8480  -12.2520 H   0  0  0  0  0  0  0  0  0  0  0  0
   15.7360   61.0420   -9.4590 H   0  0  0  0  0  0  0  0  0  0  0  0
   18.6730   64.7360  -11.9830 H   0  0  0  0  0  0  0  0  0  0  0  0
   19.3860   61.7280   -9.6900 H   0  0  0  0  0  0  0  0  0  0  0  0
   20.9120   61.5010  -10.5510 H   0  0  0  0  0  0  0  0  0  0  0  0
   18.6330   64.5990   -8.9590 H   0  0  0  0  0  0  0  0  0  0  0  0
   19.0430   65.8940  -10.0880 H   0  0  0  0  0  0  0  0  0  0  0  0
   20.9940   61.9410   -7.7110 H   0  0  0  0  0  0  0  0  0  0  0  0
   19.5040   62.8970   -7.6690 H   0  0  0  0  0  0  0  0  0  0  0  0
   20.9490   63.6510   -5.9740 H   0  0  0  0  0  0  0  0  0  0  0  0
   20.9200   64.9240   -7.2970 H   0  0  0  0  0  0  0  0  0  0  0  0
   22.9510   61.7700   -8.0000 H   0  0  0  0  0  0  0  0  0  0  0  0
   24.1750   62.9560   -8.4370 H   0  0  0  0  0  0  0  0  0  0  0  0
   22.8060   64.1310   -9.9140 H   0  0  0  0  0  0  0  0  0  0  0  0
   22.5800   62.3940  -10.3220 H   0  0  0  0  0  0  0  0  0  0  0  0
   26.0300   63.1340   -6.6110 H   0  0  0  0  0  0  0  0  0  0  0  0
   26.7840   62.3020   -2.5780 H   0  0  0  0  0  0  0  0  0  0  0  0
   24.6060   63.3630   -1.9990 H   0  0  0  0  0  0  0  0  0  0  0  0
   23.1940   64.2740   -3.6680 H   0  0  0  0  0  0  0  0  0  0  0  0
   29.6760   62.6930   -5.0780 H   0  0  0  0  0  0  0  0  0  0  0  0
   28.5190   63.3390   -6.3420 H   0  0  0  0  0  0  0  0  0  0  0  0
   28.8540   60.3410   -6.4810 H   0  0  0  0  0  0  0  0  0  0  0  0
   29.0780   61.6580   -7.7030 H   0  0  0  0  0  0  0  0  0  0  0  0
   31.0730   61.5760   -5.6530 H   0  0  0  0  0  0  0  0  0  0  0  0
   31.1860   61.5620   -7.3850 H   0  0  0  0  0  0  0  0  0  0  0  0
   20.7930   63.6880  -12.9910 H   0  0  0  0  0  0  0  0  0  0  0  0
   18.1720   61.6810  -12.3300 H   0  0  0  0  0  0  0  0  0  0  0  0
   19.2670   62.5810  -13.4940 H   0  0  0  0  0  0  0  0  0  0  0  0
   19.8860   61.1910  -12.5790 H   0  0  0  0  0  0  0  0  0  0  0  0
  1  2  1  0  0  0  0
  2  8  1  0  0  0  0
  3  2  2  0  0  0  0
  3  4  1  0  0  0  0
  4  5  1  0  0  0  0
  5  7  1  0  0  0  0
  5  6  2  0  0  0  0
  7 36  1  0  0  0  0
  8  9  2  0  0  0  0
  8  7  1  0  0  0  0
 10 37  1  6  0  0  0
 10  4  1  0  0  0  0
 10 15  1  0  0  0  0
 11 33  1  6  0  0  0
 11 10  1  0  0  0  0
 11 12  1  0  0  0  0
 12 38  1  0  0  0  0
 12 13  1  0  0  0  0
 13 16  1  0  0  0  0
 14 13  1  0  0  0  0
 15 14  1  0  0  0  0
 15 40  1  0  0  0  0
 16 42  1  0  0  0  0
 16 43  1  0  0  0  0
 16 17  1  0  0  0  0
 17 44  1  0  0  0  0
 18 17  1  0  0  0  0
 18 21  1  0  0  0  0
 19 46  1  0  0  0  0
 19 18  1  0  0  0  0
 20 13  1  0  0  0  0
 20 19  1  0  0  0  0
 21 23  1  0  0  0  0
 22 21  2  0  0  0  0
 23 28  1  0  0  0  0
 24 23  2  0  0  0  0
 24 25  1  0  0  0  0
 25 26  2  0  0  0  0
 26 27  1  0  0  0  0
 26 51  1  0  0  0  0
 27 52  1  0  0  0  0
 28 53  1  0  0  0  0
 28 27  2  0  0  0  0
 29 25  1  0  0  0  0
 30 54  1  0  0  0  0
 30 29  1  0  0  0  0
 31 32  1  0  0  0  0
 31 56  1  0  0  0  0
 31 30  1  0  0  0  0
 32 58  1  0  0  0  0
 34 61  1  0  0  0  0
 34 11  1  0  0  0  0
 35  3  1  0  0  0  0
 39 12  1  0  0  0  0
 41 15  1  0  0  0  0
 45 17  1  0  0  0  0
 47 19  1  0  0  0  0
 48 20  1  0  0  0  0
 49 20  1  0  0  0  0
 50 24  1  0  0  0  0
 55 30  1  0  0  0  0
 57 31  1  0  0  0  0
 59 32  1  0  0  0  0
 60 33  1  0  0  0  0
 62 34  1  0  0  0  0
 63 34  1  0  0  0  0
M  END
>  <Pose>
1

>  <Score>
-6.47

$$$$
