
 OpenBabel03202210193D

 63 66  0  0  1  0  0  0  0  0999 V2000
   27.2870   62.4690   -4.8790 B   0  0  0  0  0  0  0  0  0  0  0  0
   25.4990   62.7270   -4.2270 C   0  0  0  0  0  0  0  0  0  0  0  0
   24.4280   62.6350   -5.0850 C   0  0  0  0  0  0  0  0  0  0  0  0
   23.1850   62.8120   -4.6500 N   0  0  0  0  0  0  0  0  0  0  0  0
   22.9490   63.0830   -3.3690 C   0  0  0  0  0  0  0  0  0  0  0  0
   21.7710   63.2590   -2.9130 O   0  0  0  0  0  0  0  0  0  0  0  0
   23.9810   63.1780   -2.5160 N   0  0  0  0  0  0  0  0  0  0  0  0
   25.2600   63.0090   -2.8980 C   0  0  0  0  0  0  0  0  0  0  0  0
   26.2130   63.1050   -2.0690 O   0  0  0  0  0  0  0  0  0  0  0  0
   22.0770   62.7000   -5.5780 C   0  0  1  0  0  0  0  0  0  0  0  0
   21.7260   63.9550   -6.2710 C   0  0  1  0  0  0  0  0  0  0  0  0
   21.0980   63.7510   -7.6550 C   0  0  0  0  0  0  0  0  0  0  0  0
   21.9850   62.8870   -8.5170 C   0  0  2  0  0  0  0  0  0  0  0  0
   22.8440   62.1150   -7.7590 O   0  0  0  0  0  0  0  0  0  0  0  0
   22.3280   61.6250   -6.6000 C   0  0  0  0  0  0  0  0  0  0  0  0
   22.7410   63.8090   -9.4570 C   0  0  0  0  0  0  0  0  0  0  0  0
   22.0380   63.8990  -10.7850 C   0  0  0  0  0  0  0  0  0  0  0  0
   20.6170   63.9500  -10.5530 N   0  0  0  0  0  0  0  0  0  0  0  0
   20.0160   62.7290  -10.0370 C   0  0  0  0  0  0  0  0  0  0  0  0
   21.1000   61.9610   -9.3170 C   0  0  0  0  0  0  0  0  0  0  0  0
   19.8800   65.1030  -10.8330 C   0  0  0  0  0  0  0  0  0  0  0  0
   20.3730   66.1970  -10.3740 O   0  0  0  0  0  0  0  0  0  0  0  0
   18.6270   65.2460  -11.5680 C   0  0  1  0  0  0  0  0  0  0  0  0
   18.2270   63.9970  -12.2170 N   0  0  0  0  0  0  0  0  0  0  0  0
   17.4390   65.6810  -10.7410 C   0  0  0  0  0  0  0  0  0  0  0  0
   16.4390   64.5520  -10.8270 C   0  0  0  0  0  0  0  0  0  0  0  0
   15.1840   64.7780  -11.3290 C   0  0  0  0  0  0  0  0  0  0  0  0
   14.2940   63.7090  -11.3900 C   0  0  0  0  0  0  0  0  0  0  0  0
   14.6450   62.4490  -10.9630 C   0  0  0  0  0  0  0  0  0  0  0  0
   15.9180   62.2610  -10.4640 C   0  0  0  0  0  0  0  0  0  0  0  0
   16.8220   63.3010  -10.3890 C   0  0  0  0  0  0  0  0  0  0  0  0
   13.7200   61.4250  -11.0480 O   0  0  0  0  0  0  0  0  0  0  0  0
   20.6880   64.5660   -5.5210 O   0  0  0  0  0  0  0  0  0  0  0  0
   22.8150   64.9740   -6.3570 C   0  0  0  0  0  0  0  0  0  0  0  0
   24.6710   62.4110   -6.1270 H   0  0  0  0  0  0  0  0  0  0  0  0
   23.7920   63.3950   -1.4920 H   0  0  0  0  0  0  0  0  0  0  0  0
   21.2080   62.3380   -4.9410 H   0  0  0  0  0  0  0  0  0  0  0  0
   20.1120   63.2790   -7.5730 H   0  0  0  0  0  0  0  0  0  0  0  0
   20.9810   64.7290   -8.1290 H   0  0  0  0  0  0  0  0  0  0  0  0
   22.9930   60.8220   -6.2030 H   0  0  0  0  0  0  0  0  0  0  0  0
   21.3310   61.1460   -6.8350 H   0  0  0  0  0  0  0  0  0  0  0  0
   22.8500   64.8210   -9.0420 H   0  0  0  0  0  0  0  0  0  0  0  0
   23.7580   63.4160   -9.6780 H   0  0  0  0  0  0  0  0  0  0  0  0
   22.4340   64.7410  -11.3910 H   0  0  0  0  0  0  0  0  0  0  0  0
   22.3250   62.9870  -11.3700 H   0  0  0  0  0  0  0  0  0  0  0  0
   19.1900   62.8930   -9.3490 H   0  0  0  0  0  0  0  0  0  0  0  0
   19.6570   62.1060  -10.8740 H   0  0  0  0  0  0  0  0  0  0  0  0
   21.7030   61.3400  -10.0130 H   0  0  0  0  0  0  0  0  0  0  0  0
   20.5750   61.2450   -8.6600 H   0  0  0  0  0  0  0  0  0  0  0  0
   18.7650   65.9990  -12.3710 H   0  0  0  0  0  0  0  0  0  0  0  0
   17.9410   64.1620  -13.2070 H   0  0  0  0  0  0  0  0  0  0  0  0
   17.3780   63.6250  -11.7250 H   0  0  0  0  0  0  0  0  0  0  0  0
   17.6660   65.8220   -9.6860 H   0  0  0  0  0  0  0  0  0  0  0  0
   16.9560   66.5810  -11.1180 H   0  0  0  0  0  0  0  0  0  0  0  0
   14.9270   65.7670  -11.6590 H   0  0  0  0  0  0  0  0  0  0  0  0
   13.3070   63.8840  -11.7850 H   0  0  0  0  0  0  0  0  0  0  0  0
   16.2020   61.2880  -10.1270 H   0  0  0  0  0  0  0  0  0  0  0  0
   17.8230   63.1640  -10.0000 H   0  0  0  0  0  0  0  0  0  0  0  0
   13.9530   60.4660  -11.3020 H   0  0  0  0  0  0  0  0  0  0  0  0
   20.8420   65.5330   -5.4080 H   0  0  0  0  0  0  0  0  0  0  0  0
   23.7360   64.6460   -6.8430 H   0  0  0  0  0  0  0  0  0  0  0  0
   22.4300   65.8490   -6.9170 H   0  0  0  0  0  0  0  0  0  0  0  0
   23.0080   65.3750   -5.3170 H   0  0  0  0  0  0  0  0  0  0  0  0
  1  2  1  0  0  0  0
  2  8  1  0  0  0  0
  3  4  1  0  0  0  0
  3  2  2  0  0  0  0
  4  5  1  0  0  0  0
  5  6  2  0  0  0  0
  5  7  1  0  0  0  0
  7 36  1  0  0  0  0
  8  7  1  0  0  0  0
  8  9  2  0  0  0  0
 10 37  1  1  0  0  0
 10  4  1  0  0  0  0
 11 10  1  0  0  0  0
 11 33  1  1  0  0  0
 12 38  1  0  0  0  0
 12 11  1  0  0  0  0
 13 14  1  1  0  0  0
 13 12  1  0  0  0  0
 14 15  1  0  0  0  0
 15 40  1  0  0  0  0
 15 10  1  0  0  0  0
 16 42  1  0  0  0  0
 16 13  1  0  0  0  0
 17 18  1  0  0  0  0
 17 16  1  0  0  0  0
 18 19  1  0  0  0  0
 19 46  1  0  0  0  0
 19 20  1  0  0  0  0
 20 49  1  0  0  0  0
 20 13  1  0  0  0  0
 21 18  1  0  0  0  0
 21 22  2  0  0  0  0
 23 50  1  6  0  0  0
 23 21  1  0  0  0  0
 23 25  1  0  0  0  0
 24 52  1  0  0  0  0
 24 23  1  0  0  0  0
 25 53  1  0  0  0  0
 26 25  1  0  0  0  0
 26 31  1  0  0  0  0
 27 26  2  0  0  0  0
 28 27  1  0  0  0  0
 28 29  2  0  0  0  0
 29 30  1  0  0  0  0
 30 31  2  0  0  0  0
 30 57  1  0  0  0  0
 31 58  1  0  0  0  0
 32 29  1  0  0  0  0
 33 60  1  0  0  0  0
 34 11  1  0  0  0  0
 34 63  1  0  0  0  0
 35  3  1  0  0  0  0
 39 12  1  0  0  0  0
 41 15  1  0  0  0  0
 43 16  1  0  0  0  0
 44 17  1  0  0  0  0
 45 17  1  0  0  0  0
 47 19  1  0  0  0  0
 48 20  1  0  0  0  0
 51 24  1  0  0  0  0
 54 25  1  0  0  0  0
 55 27  1  0  0  0  0
 56 28  1  0  0  0  0
 59 32  1  0  0  0  0
 61 34  1  0  0  0  0
 62 34  1  0  0  0  0
M  END
>  <Pose>
1

>  <Score>
-5.91

$$$$
