
 OpenBabel03202210193D

 41 44  0  0  1  0  0  0  0  0999 V2000
   24.4780   62.9540   -0.8020 B   0  0  0  0  0  0  0  0  0  0  0  0
   24.6360   62.8950   -2.7100 C   0  0  0  0  0  0  0  0  0  0  0  0
   23.6990   63.4680   -3.5400 C   0  0  0  0  0  0  0  0  0  0  0  0
   23.8080   63.4280   -4.8980 N   0  0  0  0  0  0  0  0  0  0  0  0
   24.8710   62.8060   -5.4410 C   0  0  0  0  0  0  0  0  0  0  0  0
   24.7740   62.8900   -6.7800 N   0  0  0  0  0  0  0  0  0  0  0  0
   23.6540   63.5610   -7.1070 C   0  0  0  0  0  0  0  0  0  0  0  0
   23.0550   63.8950   -5.9110 C   0  0  0  0  0  0  0  0  0  0  0  0
   23.1550   63.8820   -8.4680 C   0  0  0  0  0  0  0  0  0  0  0  0
   22.2030   62.8930   -8.9230 N   0  0  0  0  0  0  0  0  0  0  0  0
   21.0580   63.3020   -9.6230 C   0  0  0  0  0  0  0  0  0  0  0  0
   20.1220   63.8640   -9.0170 O   0  0  0  0  0  0  0  0  0  0  0  0
   20.9460   63.0740  -11.0760 C   0  0  1  0  0  0  0  0  0  0  0  0
   19.8160   62.1220  -11.3780 C   0  0  0  0  0  0  0  0  0  0  0  0
   18.6010   62.7380  -10.8790 N   0  0  0  0  0  0  0  0  0  0  0  0
   18.4360   64.0680  -10.9650 C   0  0  0  0  0  0  0  0  0  0  0  0
   17.2300   64.3460  -10.4290 N   0  0  0  0  0  0  0  0  0  0  0  0
   16.6670   63.2450  -10.0290 N   0  0  0  0  0  0  0  0  0  0  0  0
   17.5080   62.2390  -10.3020 C   0  0  0  0  0  0  0  0  0  0  0  0
   17.1920   60.8130   -9.9770 C   0  0  0  0  0  0  0  0  0  0  0  0
   19.4170   64.9990  -11.5430 C   0  0  0  0  0  0  0  0  0  0  0  0
   20.7550   64.3930  -11.7790 C   0  0  0  0  0  0  0  0  0  0  0  0
   25.8360   62.2180   -4.6300 C   0  0  0  0  0  0  0  0  0  0  0  0
   25.7270   62.2570   -3.2620 C   0  0  0  0  0  0  0  0  0  0  0  0
   22.8580   63.9580   -3.1010 H   0  0  0  0  0  0  0  0  0  0  0  0
   22.1370   64.4370   -5.7310 H   0  0  0  0  0  0  0  0  0  0  0  0
   22.7210   64.9120   -8.4630 H   0  0  0  0  0  0  0  0  0  0  0  0
   24.0210   63.9190   -9.1830 H   0  0  0  0  0  0  0  0  0  0  0  0
   22.3540   61.8820   -8.7400 H   0  0  0  0  0  0  0  0  0  0  0  0
   21.9200   62.6650  -11.4330 H   0  0  0  0  0  0  0  0  0  0  0  0
   19.7440   61.9970  -12.4840 H   0  0  0  0  0  0  0  0  0  0  0  0
   20.0330   61.1510  -10.8920 H   0  0  0  0  0  0  0  0  0  0  0  0
   18.1110   60.2210   -9.9570 H   0  0  0  0  0  0  0  0  0  0  0  0
   16.7190   60.7440   -8.9600 H   0  0  0  0  0  0  0  0  0  0  0  0
   16.4510   60.4410  -10.7130 H   0  0  0  0  0  0  0  0  0  0  0  0
   19.0380   65.3810  -12.5320 H   0  0  0  0  0  0  0  0  0  0  0  0
   19.4700   65.8920  -10.8860 H   0  0  0  0  0  0  0  0  0  0  0  0
   21.5480   65.0910  -11.3970 H   0  0  0  0  0  0  0  0  0  0  0  0
   20.9670   64.2440  -12.8610 H   0  0  0  0  0  0  0  0  0  0  0  0
   26.6660   61.7350   -5.1280 H   0  0  0  0  0  0  0  0  0  0  0  0
   26.5040   61.7840   -2.6710 H   0  0  0  0  0  0  0  0  0  0  0  0
  2  1  1  0  0  0  0
  3 25  1  0  0  0  0
  3  2  2  0  0  0  0
  4  3  1  0  0  0  0
  5  4  1  0  0  0  0
  5 23  1  0  0  0  0
  6  5  2  0  0  0  0
  7  6  1  0  0  0  0
  7  8  2  0  0  0  0
  8 26  1  0  0  0  0
  8  4  1  0  0  0  0
  9 27  1  0  0  0  0
  9  7  1  0  0  0  0
 10 29  1  0  0  0  0
 10  9  1  0  0  0  0
 11 12  2  0  0  0  0
 11 10  1  0  0  0  0
 13 30  1  6  0  0  0
 13 11  1  0  0  0  0
 14 13  1  0  0  0  0
 14 32  1  0  0  0  0
 14 15  1  0  0  0  0
 15 19  1  0  0  0  0
 16 15  1  0  0  0  0
 16 17  2  0  0  0  0
 17 18  1  0  0  0  0
 19 18  2  0  0  0  0
 19 20  1  0  0  0  0
 20 33  1  0  0  0  0
 20 34  1  0  0  0  0
 21 16  1  0  0  0  0
 21 37  1  0  0  0  0
 22 21  1  0  0  0  0
 22 38  1  0  0  0  0
 22 13  1  0  0  0  0
 23 24  2  0  0  0  0
 24  2  1  0  0  0  0
 24 41  1  0  0  0  0
 28  9  1  0  0  0  0
 31 14  1  0  0  0  0
 35 20  1  0  0  0  0
 36 21  1  0  0  0  0
 39 22  1  0  0  0  0
 40 23  1  0  0  0  0
M  END
>  <Pose>
1

>  <Score>
-5.26

$$$$
