
 OpenBabel03202210193D

 39 42  0  0  0  0  0  0  0  0999 V2000
   12.7000   64.5750  -11.1740 B   0  0  0  0  0  0  0  0  0  0  0  0
   14.2680   63.5400  -10.8630 C   0  0  0  0  0  0  0  0  0  0  0  0
   14.1930   62.1920  -10.7010 C   0  0  0  0  0  0  0  0  0  0  0  0
   15.2820   61.4650  -10.4840 N   0  0  0  0  0  0  0  0  0  0  0  0
   15.4520   60.1550  -10.2990 N   0  0  0  0  0  0  0  0  0  0  0  0
   16.7640   59.9260  -10.1200 C   0  0  0  0  0  0  0  0  0  0  0  0
   17.4470   61.1170  -10.1920 C   0  0  0  0  0  0  0  0  0  0  0  0
   16.4740   62.0830  -10.4250 C   0  0  0  0  0  0  0  0  0  0  0  0
   16.5650   63.4130  -10.5830 N   0  0  0  0  0  0  0  0  0  0  0  0
   15.4840   64.1640  -10.8020 C   0  0  0  0  0  0  0  0  0  0  0  0
   18.8620   61.3660  -10.0600 C   0  0  0  0  0  0  0  0  0  0  0  0
   19.5670   60.4860   -9.4870 O   0  0  0  0  0  0  0  0  0  0  0  0
   19.4460   62.5580  -10.5590 N   0  0  0  0  0  0  0  0  0  0  0  0
   19.4590   63.7290   -9.6680 C   0  0  0  0  0  0  0  0  0  0  0  0
   20.6510   64.5510  -10.1580 C   0  0  0  0  0  0  0  0  0  0  0  0
   21.6680   63.6000  -10.4990 N   0  0  0  0  0  0  0  0  0  0  0  0
   21.4890   63.0510  -11.8750 C   0  0  0  0  0  0  0  0  0  0  0  0
   20.0150   62.6360  -11.8960 C   0  0  0  0  0  0  0  0  0  0  0  0
   22.7110   63.1310   -9.7180 C   0  0  0  0  0  0  0  0  0  0  0  0
   23.5920   62.3750  -10.3020 O   0  0  0  0  0  0  0  0  0  0  0  0
   22.9880   63.3510   -8.3080 C   0  0  0  0  0  0  0  0  0  0  0  0
   23.9460   62.7180   -7.6150 O   0  0  0  0  0  0  0  0  0  0  0  0
   23.9800   63.0960   -6.3830 C   0  0  0  0  0  0  0  0  0  0  0  0
   23.0090   64.0410   -6.1680 C   0  0  0  0  0  0  0  0  0  0  0  0
   22.3910   64.1900   -7.3990 C   0  0  0  0  0  0  0  0  0  0  0  0
   13.2210   61.6920  -10.7500 H   0  0  0  0  0  0  0  0  0  0  0  0
   17.1860   58.9430   -9.9470 H   0  0  0  0  0  0  0  0  0  0  0  0
   15.5240   65.2360  -10.9330 H   0  0  0  0  0  0  0  0  0  0  0  0
   19.6910   63.4050   -8.6510 H   0  0  0  0  0  0  0  0  0  0  0  0
   18.5340   64.2950   -9.7940 H   0  0  0  0  0  0  0  0  0  0  0  0
   20.9200   65.3890   -9.5430 H   0  0  0  0  0  0  0  0  0  0  0  0
   20.2790   65.0500  -11.1300 H   0  0  0  0  0  0  0  0  0  0  0  0
   22.1670   62.2130  -12.0530 H   0  0  0  0  0  0  0  0  0  0  0  0
   21.6740   63.9180  -12.5410 H   0  0  0  0  0  0  0  0  0  0  0  0
   19.4150   63.3220  -12.5150 H   0  0  0  0  0  0  0  0  0  0  0  0
   19.9800   61.6180  -12.3250 H   0  0  0  0  0  0  0  0  0  0  0  0
   24.6640   62.7380   -5.5980 H   0  0  0  0  0  0  0  0  0  0  0  0
   22.7630   64.5690   -5.2430 H   0  0  0  0  0  0  0  0  0  0  0  0
   21.5630   64.8680   -7.5490 H   0  0  0  0  0  0  0  0  0  0  0  0
  1  2  1  0  0  0  0
  2 10  1  0  0  0  0
  2  3  2  0  0  0  0
  3  4  1  0  0  0  0
  4  8  1  0  0  0  0
  4  5  1  0  0  0  0
  5  6  2  0  0  0  0
  6 27  1  0  0  0  0
  7  6  1  0  0  0  0
  7 11  1  0  0  0  0
  8  7  2  0  0  0  0
  9  8  1  0  0  0  0
 10  9  2  0  0  0  0
 11 12  2  0  0  0  0
 13 11  1  0  0  0  0
 13 14  1  0  0  0  0
 14 29  1  0  0  0  0
 15 14  1  0  0  0  0
 15 31  1  0  0  0  0
 16 15  1  0  0  0  0
 16 19  1  0  0  0  0
 17 16  1  0  0  0  0
 18 17  1  0  0  0  0
 18 13  1  0  0  0  0
 19 21  1  0  0  0  0
 20 19  2  0  0  0  0
 21 22  1  0  0  0  0
 21 25  2  0  0  0  0
 22 23  1  0  0  0  0
 23 24  2  0  0  0  0
 23 37  1  0  0  0  0
 24 38  1  0  0  0  0
 25 24  1  0  0  0  0
 26  3  1  0  0  0  0
 28 10  1  0  0  0  0
 30 14  1  0  0  0  0
 32 15  1  0  0  0  0
 33 17  1  0  0  0  0
 34 17  1  0  0  0  0
 35 18  1  0  0  0  0
 36 18  1  0  0  0  0
 39 25  1  0  0  0  0
M  END
>  <Pose>
1

>  <Score>
-6.92

$$$$
