
 OpenBabel03202210193D

 47 50  0  0  0  0  0  0  0  0999 V2000
   23.3720   63.1920  -10.8180 B   0  0  0  0  0  0  0  0  0  0  0  0
   21.5610   63.3690  -10.2700 C   0  0  0  0  0  0  0  0  0  0  0  0
   20.5440   63.6030  -11.1280 C   0  0  0  0  0  0  0  0  0  0  0  0
   19.2600   63.6430  -10.7610 N   0  0  0  0  0  0  0  0  0  0  0  0
   18.9610   63.4410   -9.4780 C   0  0  0  0  0  0  0  0  0  0  0  0
   17.6590   63.4840   -9.0790 N   0  0  0  0  0  0  0  0  0  0  0  0
   16.6540   63.7230   -9.9110 C   0  0  0  0  0  0  0  0  0  0  0  0
   16.9360   63.9340  -11.2410 C   0  0  0  0  0  0  0  0  0  0  0  0
   15.9340   64.1950  -12.1550 C   0  0  0  0  0  0  0  0  0  0  0  0
   14.5900   64.2560  -11.7860 C   0  0  0  0  0  0  0  0  0  0  0  0
   14.3190   64.0430  -10.4520 C   0  0  0  0  0  0  0  0  0  0  0  0
   15.3210   63.7810   -9.5330 C   0  0  0  0  0  0  0  0  0  0  0  0
   18.2700   63.8850  -11.6280 C   0  0  0  0  0  0  0  0  0  0  0  0
   18.5400   64.0770  -12.8340 O   0  0  0  0  0  0  0  0  0  0  0  0
   19.9630   63.2050   -8.5990 N   0  0  0  0  0  0  0  0  0  0  0  0
   21.2560   63.1530   -8.8850 C   0  0  0  0  0  0  0  0  0  0  0  0
   22.3170   63.0270   -8.0450 N   0  0  0  0  0  0  0  0  0  0  0  0
   23.3620   62.9030   -7.2180 C   0  0  0  0  0  0  0  0  0  0  0  0
   23.5330   63.8260   -6.1780 C   0  0  0  0  0  0  0  0  0  0  0  0
   24.6920   63.8730   -5.4750 C   0  0  0  0  0  0  0  0  0  0  0  0
   25.7200   63.0110   -5.7680 C   0  0  0  0  0  0  0  0  0  0  0  0
   25.6130   62.0750   -6.7730 C   0  0  0  0  0  0  0  0  0  0  0  0
   24.4290   62.0490   -7.4730 C   0  0  0  0  0  0  0  0  0  0  0  0
   22.4290   64.6710   -5.7060 C   0  0  0  0  0  0  0  0  0  0  0  0
   21.3870   64.0970   -5.3000 O   0  0  0  0  0  0  0  0  0  0  0  0
   22.4330   66.0360   -5.6740 O   0  0  0  0  0  0  0  0  0  0  0  0
   22.0670   66.8300   -6.7860 C   0  0  0  0  0  0  0  0  0  0  0  0
   21.9790   68.3040   -6.3780 C   0  0  0  0  0  0  0  0  0  0  0  0
   23.3660   68.9000   -6.4220 C   0  0  0  0  0  0  0  0  0  0  0  0
   20.7640   63.7730  -12.1820 H   0  0  0  0  0  0  0  0  0  0  0  0
   16.2190   64.3480  -13.1730 H   0  0  0  0  0  0  0  0  0  0  0  0
   13.8170   64.4620  -12.5200 H   0  0  0  0  0  0  0  0  0  0  0  0
   13.2810   64.0840  -10.1280 H   0  0  0  0  0  0  0  0  0  0  0  0
   15.1230   63.6150   -8.4850 H   0  0  0  0  0  0  0  0  0  0  0  0
   19.5910   63.0590   -7.6040 H   0  0  0  0  0  0  0  0  0  0  0  0
   22.5480   61.7430   -8.4520 H   0  0  0  0  0  0  0  0  0  0  0  0
   24.8640   64.5880   -4.6530 H   0  0  0  0  0  0  0  0  0  0  0  0
   26.6330   63.0800   -5.1940 H   0  0  0  0  0  0  0  0  0  0  0  0
   26.4550   61.4270   -6.9530 H   0  0  0  0  0  0  0  0  0  0  0  0
   24.3710   61.3080   -8.2600 H   0  0  0  0  0  0  0  0  0  0  0  0
   22.7850   66.7940   -7.6230 H   0  0  0  0  0  0  0  0  0  0  0  0
   21.0680   66.5470   -7.1840 H   0  0  0  0  0  0  0  0  0  0  0  0
   21.3320   68.8710   -7.0750 H   0  0  0  0  0  0  0  0  0  0  0  0
   21.6060   68.3930   -5.3300 H   0  0  0  0  0  0  0  0  0  0  0  0
   23.8050   68.9150   -5.4090 H   0  0  0  0  0  0  0  0  0  0  0  0
   24.0400   68.2970   -7.0870 H   0  0  0  0  0  0  0  0  0  0  0  0
   23.3290   69.9510   -6.7770 H   0  0  0  0  0  0  0  0  0  0  0  0
  1  2  1  0  0  0  0
  2 16  2  0  0  0  0
  3  4  1  0  0  0  0
  3  2  1  0  0  0  0
  4  5  1  0  0  0  0
  5  6  2  0  0  0  0
  5 15  1  0  0  0  0
  7 12  1  0  0  0  0
  7  6  1  0  0  0  0
  8  7  2  0  0  0  0
  9 10  2  0  0  0  0
  9  8  1  0  0  0  0
 10 11  1  0  0  0  0
 11 33  1  0  0  0  0
 11 12  2  0  0  0  0
 12 34  1  0  0  0  0
 13  8  1  0  0  0  0
 13  4  1  0  0  0  0
 14 13  2  0  0  0  0
 15 35  1  0  0  0  0
 16 15  1  0  0  0  0
 16 17  1  0  0  0  0
 17 18  1  0  0  0  0
 18 19  1  0  0  0  0
 19 24  1  0  0  0  0
 19 20  2  0  0  0  0
 20 37  1  0  0  0  0
 21 20  1  0  0  0  0
 21 38  1  0  0  0  0
 22 21  2  0  0  0  0
 23 18  2  0  0  0  0
 23 22  1  0  0  0  0
 24 26  1  0  0  0  0
 24 25  2  0  0  0  0
 27 28  1  0  0  0  0
 27 26  1  0  0  0  0
 28 44  1  0  0  0  0
 29 28  1  0  0  0  0
 29 45  1  0  0  0  0
 30  3  1  0  0  0  0
 31  9  1  0  0  0  0
 32 10  1  0  0  0  0
 36 17  1  0  0  0  0
 39 22  1  0  0  0  0
 40 23  1  0  0  0  0
 41 27  1  0  0  0  0
 42 27  1  0  0  0  0
 43 28  1  0  0  0  0
 46 29  1  0  0  0  0
 47 29  1  0  0  0  0
M  END
>  <Pose>
1

>  <Score>
-5.88

$$$$
