
 OpenBabel03202210193D

 50 53  0  0  1  0  0  0  0  0999 V2000
   21.6070   63.0680  -13.9750 B   0  0  0  0  0  0  0  0  0  0  0  0
   21.9900   63.1880  -12.1050 C   0  0  0  0  0  0  0  0  0  0  0  0
   20.9960   63.4650  -11.1910 C   0  0  0  0  0  0  0  0  0  0  0  0
   21.2960   63.5510   -9.8370 C   0  0  0  0  0  0  0  0  0  0  0  0
   22.5510   63.3690   -9.3610 C   0  0  0  0  0  0  0  0  0  0  0  0
   23.5730   63.0860  -10.2930 C   0  0  0  0  0  0  0  0  0  0  0  0
   23.2650   63.0030  -11.6260 C   0  0  0  0  0  0  0  0  0  0  0  0
   23.0090   63.4320   -7.9750 C   0  0  2  0  0  0  0  0  0  0  0  0
   22.4360   64.4260   -7.1260 N   0  0  0  0  0  0  0  0  0  0  0  0
   21.0610   64.5950   -6.7710 C   0  0  0  0  0  0  0  0  0  0  0  0
   20.5030   65.9640   -6.8320 C   0  0  0  0  0  0  0  0  0  0  0  0
   21.4310   67.0610   -7.2110 C   0  0  0  0  0  0  0  0  0  0  0  0
   22.4180   67.3940   -6.0920 C   0  0  0  0  0  0  0  0  0  0  0  0
   23.5740   66.4580   -6.2510 C   0  0  0  0  0  0  0  0  0  0  0  0
   23.5790   65.2100   -6.6860 C   0  0  0  0  0  0  0  0  0  0  0  0
   24.7510   64.4140   -6.8130 N   0  0  0  0  0  4  0  0  0  0  0  0
   24.4990   63.7800   -8.0730 C   0  0  0  0  0  0  0  0  0  0  0  0
   24.8170   63.5180   -5.7340 C   0  0  0  0  0  0  0  0  0  0  0  0
   25.9570   62.7180   -5.5310 C   0  0  0  0  0  0  0  0  0  0  0  0
   26.0500   61.8320   -4.4920 C   0  0  0  0  0  0  0  0  0  0  0  0
   25.0180   61.6870   -3.5900 C   0  0  0  0  0  0  0  0  0  0  0  0
   23.8970   62.4560   -3.7660 C   0  0  0  0  0  0  0  0  0  0  0  0
   23.8030   63.3490   -4.8140 C   0  0  0  0  0  0  0  0  0  0  0  0
   25.1240   60.7740   -2.5230 O   0  0  0  0  0  0  0  0  0  0  0  0
   24.9110   59.4050   -2.7480 C   0  0  0  0  0  0  0  0  0  0  0  0
   22.8530   62.1310   -7.4590 O   0  0  0  0  0  0  0  0  0  0  0  0
   19.9820   63.6230  -11.4940 H   0  0  0  0  0  0  0  0  0  0  0  0
   20.5190   63.7750   -9.1240 H   0  0  0  0  0  0  0  0  0  0  0  0
   24.6040   62.9280   -9.9740 H   0  0  0  0  0  0  0  0  0  0  0  0
   24.0350   62.7860  -12.3550 H   0  0  0  0  0  0  0  0  0  0  0  0
   20.4660   63.8560   -7.3850 H   0  0  0  0  0  0  0  0  0  0  0  0
   20.8500   64.2250   -5.7140 H   0  0  0  0  0  0  0  0  0  0  0  0
   19.9630   66.2870   -5.9080 H   0  0  0  0  0  0  0  0  0  0  0  0
   19.6890   65.9650   -7.6200 H   0  0  0  0  0  0  0  0  0  0  0  0
   21.9710   66.8700   -8.1650 H   0  0  0  0  0  0  0  0  0  0  0  0
   20.8330   67.9840   -7.3690 H   0  0  0  0  0  0  0  0  0  0  0  0
   22.7990   68.4290   -6.3360 H   0  0  0  0  0  0  0  0  0  0  0  0
   21.9330   67.3220   -5.1240 H   0  0  0  0  0  0  0  0  0  0  0  0
   24.5380   66.8660   -5.9670 H   0  0  0  0  0  0  0  0  0  0  0  0
   25.5770   65.0630   -6.8460 H   0  0  0  0  0  0  0  0  0  0  0  0
   25.1320   62.9440   -8.3300 H   0  0  0  0  0  0  0  0  0  0  0  0
   24.6070   64.5610   -8.8670 H   0  0  0  0  0  0  0  0  0  0  0  0
   26.7350   62.8560   -6.2490 H   0  0  0  0  0  0  0  0  0  0  0  0
   26.9330   61.2230   -4.3470 H   0  0  0  0  0  0  0  0  0  0  0  0
   23.0720   62.3450   -3.0450 H   0  0  0  0  0  0  0  0  0  0  0  0
   22.8860   63.9430   -4.9080 H   0  0  0  0  0  0  0  0  0  0  0  0
   25.4520   59.0180   -3.6350 H   0  0  0  0  0  0  0  0  0  0  0  0
   23.8160   59.2310   -2.8480 H   0  0  0  0  0  0  0  0  0  0  0  0
   25.2620   58.8180   -1.8830 H   0  0  0  0  0  0  0  0  0  0  0  0
   22.2800   61.6620   -8.1180 H   0  0  0  0  0  0  0  0  0  0  0  0
  1  2  1  0  0  0  0
  2  7  2  0  0  0  0
  2  3  1  0  0  0  0
  3  4  2  0  0  0  0
  4  5  1  0  0  0  0
  4 28  1  0  0  0  0
  5  8  1  0  0  0  0
  6 29  1  0  0  0  0
  6  5  2  0  0  0  0
  7  6  1  0  0  0  0
  8 26  1  1  0  0  0
  8  9  1  0  0  0  0
  9 10  1  0  0  0  0
  9 15  1  0  0  0  0
 10 32  1  0  0  0  0
 11 10  1  0  0  0  0
 11 33  1  0  0  0  0
 12 11  1  0  0  0  0
 12 13  1  0  0  0  0
 13 38  1  0  0  0  0
 14 13  1  0  0  0  0
 14 39  1  0  0  0  0
 15 14  2  0  0  0  0
 16 15  1  0  0  0  0
 16 18  1  0  0  0  0
 17  8  1  0  0  0  0
 17 16  1  0  0  0  0
 18 19  2  0  0  0  0
 18 23  1  0  0  0  0
 19 20  1  0  0  0  0
 20 44  1  0  0  0  0
 20 21  2  0  0  0  0
 21 24  1  0  0  0  0
 22 21  1  0  0  0  0
 22 45  1  0  0  0  0
 23 22  2  0  0  0  0
 25 24  1  0  0  0  0
 25 49  1  0  0  0  0
 27  3  1  0  0  0  0
 30  7  1  0  0  0  0
 31 10  1  0  0  0  0
 34 11  1  0  0  0  0
 35 12  1  0  0  0  0
 36 12  1  0  0  0  0
 37 13  1  0  0  0  0
 40 16  1  0  0  0  0
 41 17  1  0  0  0  0
 42 17  1  0  0  0  0
 43 19  1  0  0  0  0
 46 23  1  0  0  0  0
 47 25  1  0  0  0  0
 48 25  1  0  0  0  0
 50 26  1  0  0  0  0
M  END
>  <Pose>
1

>  <Score>
-5.13

$$$$
