
 OpenBabel03202210193D

 47 50  0  0  1  0  0  0  0  0999 V2000
   25.7480   62.8800   -3.8760 B   0  0  0  0  0  0  0  0  0  0  0  0
   24.3510   63.2180   -5.1320 C   0  0  0  0  0  0  0  0  0  0  0  0
   23.1900   63.8730   -4.7680 C   0  0  0  0  0  0  0  0  0  0  0  0
   22.1910   64.1110   -5.6890 C   0  0  0  0  0  0  0  0  0  0  0  0
   22.2820   63.7200   -7.0080 C   0  0  0  0  0  0  0  0  0  0  0  0
   23.4520   63.0610   -7.3640 C   0  0  0  0  0  0  0  0  0  0  0  0
   24.4580   62.8190   -6.4460 C   0  0  0  0  0  0  0  0  0  0  0  0
   21.1900   64.0000   -7.9380 C   0  0  2  0  0  0  0  0  0  0  0  0
   20.7900   62.8840   -8.7580 N   0  0  0  0  0  0  0  0  0  0  0  0
   20.7690   61.4350   -8.6090 C   0  0  0  0  0  0  0  0  0  0  0  0
   19.6970   60.7460   -9.3610 C   0  0  0  0  0  0  0  0  0  0  0  0
   18.7150   61.6430  -10.0720 C   0  0  0  0  0  0  0  0  0  0  0  0
   19.3250   62.8550  -10.6110 C   0  0  0  0  0  0  0  0  0  0  0  0
   20.3210   63.4450   -9.9750 C   0  0  0  0  0  0  0  0  0  0  0  0
   21.0970   64.6070  -10.2500 N   0  0  0  0  0  4  0  0  0  0  0  0
   21.5420   65.0520   -8.9660 C   0  0  0  0  0  0  0  0  0  0  0  0
   22.0990   64.2800  -11.1530 C   0  0  0  0  0  0  0  0  0  0  0  0
   22.9620   63.2390  -10.9000 C   0  0  0  0  0  0  0  0  0  0  0  0
   23.9760   62.9110  -11.8140 C   0  0  0  0  0  0  0  0  0  0  0  0
   24.1420   63.6050  -12.9800 C   0  0  0  0  0  0  0  0  0  0  0  0
   23.2580   64.6690  -13.2360 C   0  0  0  0  0  0  0  0  0  0  0  0
   22.2720   64.9670  -12.3180 C   0  0  0  0  0  0  0  0  0  0  0  0
   25.1250   63.3340  -13.9310 O   0  0  0  0  0  0  0  0  0  0  0  0
   26.4690   63.6790  -13.8500 C   0  0  0  0  0  0  0  0  0  0  0  0
   20.0610   64.3880   -7.1890 O   0  0  0  0  0  0  0  0  0  0  0  0
   23.1130   64.1840   -3.7320 H   0  0  0  0  0  0  0  0  0  0  0  0
   21.2810   64.6320   -5.3780 H   0  0  0  0  0  0  0  0  0  0  0  0
   23.5550   62.7400   -8.3850 H   0  0  0  0  0  0  0  0  0  0  0  0
   25.3780   62.3040   -6.7210 H   0  0  0  0  0  0  0  0  0  0  0  0
   20.6770   61.1610   -7.5210 H   0  0  0  0  0  0  0  0  0  0  0  0
   21.7670   60.9960   -8.8990 H   0  0  0  0  0  0  0  0  0  0  0  0
   19.1600   60.0030   -8.7140 H   0  0  0  0  0  0  0  0  0  0  0  0
   20.1530   60.1090  -10.1750 H   0  0  0  0  0  0  0  0  0  0  0  0
   18.1830   61.1070  -10.8850 H   0  0  0  0  0  0  0  0  0  0  0  0
   17.9250   61.9100   -9.3170 H   0  0  0  0  0  0  0  0  0  0  0  0
   18.9610   63.2680  -11.5300 H   0  0  0  0  0  0  0  0  0  0  0  0
   20.4400   65.3130  -10.6790 H   0  0  0  0  0  0  0  0  0  0  0  0
   20.9780   65.9690   -8.6830 H   0  0  0  0  0  0  0  0  0  0  0  0
   22.6090   65.3340   -8.9330 H   0  0  0  0  0  0  0  0  0  0  0  0
   22.9060   62.6360  -10.0090 H   0  0  0  0  0  0  0  0  0  0  0  0
   24.6490   62.0860  -11.6020 H   0  0  0  0  0  0  0  0  0  0  0  0
   23.3890   65.2180  -14.1620 H   0  0  0  0  0  0  0  0  0  0  0  0
   21.6140   65.7780  -12.5360 H   0  0  0  0  0  0  0  0  0  0  0  0
   26.7620   64.1870  -12.9400 H   0  0  0  0  0  0  0  0  0  0  0  0
   26.7860   64.2100  -14.7800 H   0  0  0  0  0  0  0  0  0  0  0  0
   27.0700   62.7210  -13.8660 H   0  0  0  0  0  0  0  0  0  0  0  0
   19.8160   63.6000   -6.6450 H   0  0  0  0  0  0  0  0  0  0  0  0
  2  3  1  0  0  0  0
  2  1  1  0  0  0  0
  3 26  1  0  0  0  0
  4 27  1  0  0  0  0
  4  3  2  0  0  0  0
  5  4  1  0  0  0  0
  6  5  2  0  0  0  0
  6  7  1  0  0  0  0
  7  2  2  0  0  0  0
  8 25  1  1  0  0  0
  8  5  1  0  0  0  0
  9 10  1  0  0  0  0
  9  8  1  0  0  0  0
 10 30  1  0  0  0  0
 11 32  1  0  0  0  0
 11 10  1  0  0  0  0
 12 11  1  0  0  0  0
 12 35  1  0  0  0  0
 13 12  1  0  0  0  0
 13 14  2  0  0  0  0
 14  9  1  0  0  0  0
 15 14  1  0  0  0  0
 15 16  1  0  0  0  0
 16 39  1  0  0  0  0
 16 38  1  0  0  0  0
 16  8  1  0  0  0  0
 17 18  1  0  0  0  0
 17 15  1  0  0  0  0
 18 40  1  0  0  0  0
 19 41  1  0  0  0  0
 19 18  2  0  0  0  0
 20 19  1  0  0  0  0
 21 20  2  0  0  0  0
 21 22  1  0  0  0  0
 22 17  2  0  0  0  0
 23 24  1  0  0  0  0
 23 20  1  0  0  0  0
 24 44  1  0  0  0  0
 25 47  1  0  0  0  0
 28  6  1  0  0  0  0
 29  7  1  0  0  0  0
 31 10  1  0  0  0  0
 33 11  1  0  0  0  0
 34 12  1  0  0  0  0
 36 13  1  0  0  0  0
 37 15  1  0  0  0  0
 42 21  1  0  0  0  0
 43 22  1  0  0  0  0
 45 24  1  0  0  0  0
 46 24  1  0  0  0  0
M  END
>  <Pose>
1

>  <Score>
-4.51

$$$$
