
 OpenBabel03202210193D

 56 59  0  0  1  0  0  0  0  0999 V2000
   26.4410   61.7940   -1.2210 B   0  0  0  0  0  0  0  0  0  0  0  0
   25.3590   62.3410   -2.6850 C   0  0  0  0  0  0  0  0  0  0  0  0
   25.9120   62.4670   -3.9560 C   0  0  0  0  0  0  0  0  0  0  0  0
   25.1330   62.8630   -5.0100 C   0  0  0  0  0  0  0  0  0  0  0  0
   23.7960   63.1390   -4.8190 C   0  0  0  0  0  0  0  0  0  0  0  0
   23.2650   63.0090   -3.5540 C   0  0  0  0  0  0  0  0  0  0  0  0
   24.0190   62.6140   -2.4730 C   0  0  0  0  0  0  0  0  0  0  0  0
   22.9780   63.5570   -5.9190 N   0  0  0  0  0  0  0  0  0  0  0  0
   23.4950   64.3270   -7.0320 C   0  0  0  0  0  0  0  0  0  0  0  0
   22.5550   64.3580   -8.1980 C   0  0  0  0  0  0  0  0  0  0  0  0
   22.7970   64.1560   -9.5030 N   0  0  0  0  0  0  0  0  0  0  0  0
   21.6330   64.2870  -10.1670 C   0  0  1  0  0  0  0  0  0  0  0  0
   20.6490   64.5760   -9.2530 N   0  0  0  0  0  0  0  0  0  0  0  0
   21.2460   64.6100   -8.0740 N   0  0  0  0  0  0  0  0  0  0  0  0
   19.2840   64.8440   -9.4770 C   0  0  0  0  0  0  0  0  0  0  0  0
   18.4090   63.7440   -9.7870 C   0  0  1  0  0  0  0  0  0  0  0  0
   18.9320   62.5650   -9.4490 O   0  0  0  0  0  0  0  0  0  0  0  0
   17.1040   63.6310  -10.3740 C   0  0  0  0  0  0  0  0  0  0  0  0
   16.4020   62.4070  -10.3280 C   0  0  0  0  0  0  0  0  0  0  0  0
   15.1570   62.2410  -10.8760 C   0  0  0  0  0  0  0  0  0  0  0  0
   14.5240   63.2800  -11.5090 C   0  0  0  0  0  0  0  0  0  0  0  0
   15.1690   64.4850  -11.5760 C   0  0  0  0  0  0  0  0  0  0  0  0
   16.4470   64.6400  -11.0080 C   0  0  0  0  0  0  0  0  0  0  0  0
   13.2570   63.1110  -12.0660 O   0  0  0  0  0  0  0  0  0  0  0  0
   12.8660   63.7430  -13.2600 C   0  0  0  0  0  0  0  0  0  0  0  0
   21.2830   64.1840  -11.5870 C   0  0  0  0  0  0  0  0  0  0  0  0
   22.0900   63.1830  -12.3700 C   0  0  0  0  0  0  0  0  0  0  0  0
   23.5530   63.4830  -12.4020 C   0  0  0  0  0  0  0  0  0  0  0  0
   24.1550   62.8960  -11.1470 C   0  0  0  0  0  0  0  0  0  0  0  0
   24.1040   63.8650   -9.9920 C   0  0  0  0  0  0  0  0  0  0  0  0
   26.9760   62.2390   -4.0600 H   0  0  0  0  0  0  0  0  0  0  0  0
   25.5640   62.9550   -5.9830 H   0  0  0  0  0  0  0  0  0  0  0  0
   22.2250   63.2220   -3.4020 H   0  0  0  0  0  0  0  0  0  0  0  0
   23.6270   62.5030   -1.4710 H   0  0  0  0  0  0  0  0  0  0  0  0
   21.9730   63.2780   -5.8790 H   0  0  0  0  0  0  0  0  0  0  0  0
   23.7580   65.3740   -6.7160 H   0  0  0  0  0  0  0  0  0  0  0  0
   24.4620   63.8760   -7.3440 H   0  0  0  0  0  0  0  0  0  0  0  0
   19.1560   65.7000  -10.2340 H   0  0  0  0  0  0  0  0  0  0  0  0
   18.8110   65.3570   -8.5520 H   0  0  0  0  0  0  0  0  0  0  0  0
   16.8960   61.5830   -9.8300 H   0  0  0  0  0  0  0  0  0  0  0  0
   14.6710   61.2710  -10.8040 H   0  0  0  0  0  0  0  0  0  0  0  0
   14.6800   65.3160  -12.0740 H   0  0  0  0  0  0  0  0  0  0  0  0
   16.8560   65.6010  -11.1190 H   0  0  0  0  0  0  0  0  0  0  0  0
   13.0920   64.8330  -13.1880 H   0  0  0  0  0  0  0  0  0  0  0  0
   11.7650   63.6450  -13.3560 H   0  0  0  0  0  0  0  0  0  0  0  0
   13.3500   63.2980  -14.1510 H   0  0  0  0  0  0  0  0  0  0  0  0
   21.3840   65.1630  -12.0990 H   0  0  0  0  0  0  0  0  0  0  0  0
   20.2270   63.8540  -11.6660 H   0  0  0  0  0  0  0  0  0  0  0  0
   21.7160   63.2280  -13.4180 H   0  0  0  0  0  0  0  0  0  0  0  0
   21.9220   62.1420  -12.0300 H   0  0  0  0  0  0  0  0  0  0  0  0
   24.0140   62.9540  -13.2750 H   0  0  0  0  0  0  0  0  0  0  0  0
   23.7730   64.5540  -12.4230 H   0  0  0  0  0  0  0  0  0  0  0  0
   25.2270   62.7070  -11.3590 H   0  0  0  0  0  0  0  0  0  0  0  0
   23.7090   61.9070  -10.8830 H   0  0  0  0  0  0  0  0  0  0  0  0
   24.5750   64.8050  -10.3480 H   0  0  0  0  0  0  0  0  0  0  0  0
   24.6850   63.3880   -9.1750 H   0  0  0  0  0  0  0  0  0  0  0  0
  2  7  1  0  0  0  0
  2  1  1  0  0  0  0
  3  2  2  0  0  0  0
  4  5  2  0  0  0  0
  4  3  1  0  0  0  0
  5  6  1  0  0  0  0
  6 33  1  0  0  0  0
  6  7  2  0  0  0  0
  7 34  1  0  0  0  0
  8 35  1  0  0  0  0
  8  5  1  0  0  0  0
  9 36  1  0  0  0  0
  9  8  1  0  0  0  0
 10 14  2  0  0  0  0
 10  9  1  0  0  0  0
 11 10  1  0  0  0  0
 12 26  1  6  0  0  0
 12 11  1  0  0  0  0
 12 13  1  0  0  0  0
 13 14  1  0  0  0  0
 15 13  1  0  0  0  0
 15 39  1  0  0  0  0
 16 15  1  0  0  0  0
 16 17  1  1  0  0  0
 18 19  1  0  0  0  0
 18 16  1  0  0  0  0
 19 40  1  0  0  0  0
 20 41  1  0  0  0  0
 20 19  2  0  0  0  0
 21 20  1  0  0  0  0
 22 21  2  0  0  0  0
 22 23  1  0  0  0  0
 23 18  2  0  0  0  0
 24 21  1  0  0  0  0
 25 44  1  0  0  0  0
 25 24  1  0  0  0  0
 27 50  1  0  0  0  0
 27 26  1  0  0  0  0
 28 27  1  0  0  0  0
 28 29  1  0  0  0  0
 29 54  1  0  0  0  0
 29 30  1  0  0  0  0
 30 11  1  0  0  0  0
 30 56  1  0  0  0  0
 31  3  1  0  0  0  0
 32  4  1  0  0  0  0
 37  9  1  0  0  0  0
 38 15  1  0  0  0  0
 42 22  1  0  0  0  0
 43 23  1  0  0  0  0
 45 25  1  0  0  0  0
 46 25  1  0  0  0  0
 47 26  1  0  0  0  0
 48 26  1  0  0  0  0
 49 27  1  0  0  0  0
 51 28  1  0  0  0  0
 52 28  1  0  0  0  0
 53 29  1  0  0  0  0
 55 30  1  0  0  0  0
M  END
>  <Pose>
1

>  <Score>
-5.84

$$$$
