
 OpenBabel03202210193D

 53 56  0  0  1  0  0  0  0  0999 V2000
   24.7050   62.3060   -8.6810 F   0  0  0  0  0  0  0  0  0  0  0  0
   23.7270   62.9370   -8.0490 C   0  0  0  0  0  0  0  0  0  0  0  0
   22.4560   63.0310   -8.5790 C   0  0  0  0  0  0  0  0  0  0  0  0
   21.5510   63.7150   -7.8060 C   0  0  0  0  0  0  0  0  0  0  0  0
   21.8410   64.2880   -6.5780 C   0  0  0  0  0  0  0  0  0  0  0  0
   23.1100   64.1730   -6.0860 C   0  0  0  0  0  0  0  0  0  0  0  0
   24.0420   63.5050   -6.8110 C   0  0  0  0  0  0  0  0  0  0  0  0
   22.0750   62.4210   -9.8630 C   0  0  2  0  0  0  0  0  0  0  0  0
   22.6410   63.0690  -11.0360 N   0  0  0  0  0  0  0  0  0  0  0  0
   21.9880   64.3560  -10.9950 C   0  0  0  0  0  0  0  0  0  0  0  0
   22.4240   65.4710  -11.3860 O   0  0  0  0  0  0  0  0  0  0  0  0
   20.6370   64.1840  -10.3890 C   0  0  0  0  0  0  0  0  0  0  0  0
   19.7300   64.9790  -10.1510 O   0  0  0  0  0  0  0  0  0  0  0  0
   20.6110   62.7190  -10.1070 C   0  0  0  0  0  0  0  0  0  0  0  0
   19.5590   61.9390  -10.0830 C   0  0  0  0  0  0  0  0  0  0  0  0
   19.7230   60.5710   -9.7850 O   0  0  0  0  0  0  0  0  0  0  0  0
   18.2210   62.4430  -10.3570 C   0  0  0  0  0  0  0  0  0  0  0  0
   17.1620   61.5610  -10.3600 C   0  0  0  0  0  0  0  0  0  0  0  0
   15.8680   61.9670  -10.6400 C   0  0  0  0  0  0  0  0  0  0  0  0
   15.6120   63.2910  -10.9250 C   0  0  0  0  0  0  0  0  0  0  0  0
   16.6430   64.1800  -10.9280 C   0  0  0  0  0  0  0  0  0  0  0  0
   17.9530   63.7550  -10.6430 C   0  0  0  0  0  0  0  0  0  0  0  0
   13.8210   63.8850  -11.3190 B   0  0  0  0  0  0  0  0  0  0  0  0
   23.5610   62.6910  -12.0200 C   0  0  0  0  0  0  0  0  0  0  0  0
   24.5640   63.6630  -12.5300 C   0  0  0  0  0  0  0  0  0  0  0  0
   25.3710   63.1670  -13.6080 N   0  0  0  0  0  4  0  0  0  0  0  0
   26.6370   63.8710  -13.6080 C   0  0  0  0  0  0  0  0  0  0  0  0
   27.5710   63.2970  -14.6580 C   0  0  0  0  0  0  0  0  0  0  0  0
   26.9780   63.4130  -15.9010 O   0  0  0  0  0  0  0  0  0  0  0  0
   25.7390   62.7780  -15.9120 C   0  0  0  0  0  0  0  0  0  0  0  0
   24.7840   63.4710  -14.9300 C   0  0  0  0  0  0  0  0  0  0  0  0
   20.5530   63.8180   -8.1430 H   0  0  0  0  0  0  0  0  0  0  0  0
   21.1080   64.8200   -5.9900 H   0  0  0  0  0  0  0  0  0  0  0  0
   23.3580   64.6140   -5.1270 H   0  0  0  0  0  0  0  0  0  0  0  0
   25.0450   63.4250   -6.4060 H   0  0  0  0  0  0  0  0  0  0  0  0
   22.1960   61.3490   -9.8160 H   0  0  0  0  0  0  0  0  0  0  0  0
   17.2880   60.5000  -10.1440 H   0  0  0  0  0  0  0  0  0  0  0  0
   15.0200   61.2990  -10.6510 H   0  0  0  0  0  0  0  0  0  0  0  0
   16.4470   65.2210  -11.1510 H   0  0  0  0  0  0  0  0  0  0  0  0
   18.7520   64.4600  -10.6630 H   0  0  0  0  0  0  0  0  0  0  0  0
   23.0150   62.3150  -12.9320 H   0  0  0  0  0  0  0  0  0  0  0  0
   24.1840   61.7780  -11.7430 H   0  0  0  0  0  0  0  0  0  0  0  0
   23.9670   64.5140  -12.9680 H   0  0  0  0  0  0  0  0  0  0  0  0
   25.1530   64.1620  -11.7240 H   0  0  0  0  0  0  0  0  0  0  0  0
   25.4700   62.1320  -13.6270 H   0  0  0  0  0  0  0  0  0  0  0  0
   26.4010   64.9200  -13.9540 H   0  0  0  0  0  0  0  0  0  0  0  0
   27.0900   63.9800  -12.6240 H   0  0  0  0  0  0  0  0  0  0  0  0
   27.7990   62.2500  -14.3660 H   0  0  0  0  0  0  0  0  0  0  0  0
   28.4870   63.9140  -14.6460 H   0  0  0  0  0  0  0  0  0  0  0  0
   25.9150   61.7430  -15.5120 H   0  0  0  0  0  0  0  0  0  0  0  0
   25.2930   62.7160  -16.9100 H   0  0  0  0  0  0  0  0  0  0  0  0
   24.7740   64.5520  -15.0800 H   0  0  0  0  0  0  0  0  0  0  0  0
   23.8100   62.9640  -14.9850 H   0  0  0  0  0  0  0  0  0  0  0  0
  1  2  1  0  0  0  0
  2  7  1  0  0  0  0
  3  2  2  0  0  0  0
  3  4  1  0  0  0  0
  4  5  2  0  0  0  0
  5  6  1  0  0  0  0
  5 33  1  0  0  0  0
  6 34  1  0  0  0  0
  7 35  1  0  0  0  0
  7  6  2  0  0  0  0
  8 36  1  6  0  0  0
  8  3  1  0  0  0  0
  9 10  1  0  0  0  0
  9  8  1  0  0  0  0
 10 12  1  0  0  0  0
 11 10  2  0  0  0  0
 12 13  2  0  0  0  0
 12 14  1  0  0  0  0
 14 15  2  0  0  0  0
 14  8  1  0  0  0  0
 15 16  1  0  0  0  0
 17 15  1  0  0  0  0
 18 17  1  0  0  0  0
 18 37  1  0  0  0  0
 19 18  2  0  0  0  0
 20 19  1  0  0  0  0
 21 20  2  0  0  0  0
 21 22  1  0  0  0  0
 22 17  2  0  0  0  0
 23 20  1  0  0  0  0
 24 42  1  0  0  0  0
 24  9  1  0  0  0  0
 25 24  1  0  0  0  0
 25 44  1  0  0  0  0
 26 25  1  0  0  0  0
 27 26  1  0  0  0  0
 27 47  1  0  0  0  0
 28 49  1  0  0  0  0
 28 48  1  0  0  0  0
 28 27  1  0  0  0  0
 29 28  1  0  0  0  0
 30 29  1  0  0  0  0
 30 50  1  0  0  0  0
 30 31  1  0  0  0  0
 31 26  1  0  0  0  0
 32  4  1  0  0  0  0
 38 19  1  0  0  0  0
 39 21  1  0  0  0  0
 40 22  1  0  0  0  0
 41 24  1  0  0  0  0
 43 25  1  0  0  0  0
 45 26  1  0  0  0  0
 46 27  1  0  0  0  0
 51 30  1  0  0  0  0
 52 31  1  0  0  0  0
 53 31  1  0  0  0  0
M  END
>  <Pose>
1

>  <Score>
-5.35

$$$$
