
 OpenBabel03202210193D

 41 44  0  0  0  0  0  0  0  0999 V2000
   15.6890   59.9040  -10.6160 F   0  0  0  0  0  0  0  0  0  0  0  0
   15.5640   61.2620  -10.6490 C   0  0  0  0  0  0  0  0  0  0  0  0
   16.7100   62.0400  -10.4180 C   0  0  0  0  0  0  0  0  0  0  0  0
   16.5340   63.3990  -10.4610 C   0  0  0  0  0  0  0  0  0  0  0  0
   15.2880   63.9470  -10.7200 C   0  0  0  0  0  0  0  0  0  0  0  0
   14.1780   63.1880  -10.9420 C   0  0  0  0  0  0  0  0  0  0  0  0
   14.3380   61.8220  -10.9020 C   0  0  0  0  0  0  0  0  0  0  0  0
   17.9530   61.3940  -10.1620 N   0  0  0  0  0  0  0  0  0  0  0  0
   19.0450   61.8880   -9.4560 C   0  0  0  0  0  0  0  0  0  0  0  0
   20.1510   61.3230   -9.4560 O   0  0  0  0  0  0  0  0  0  0  0  0
   18.9470   63.1380   -8.6510 C   0  0  0  0  0  0  0  0  0  0  0  0
   20.1870   63.8840   -8.7590 N   0  0  0  0  0  0  0  0  0  0  0  0
   20.5600   64.7320   -9.6930 N   0  0  0  0  0  0  0  0  0  0  0  0
   21.7690   65.2050   -9.4290 N   0  0  0  0  0  0  0  0  0  0  0  0
   22.1960   64.6430   -8.2770 C   0  0  0  0  0  0  0  0  0  0  0  0
   21.2260   63.8440   -7.8820 C   0  0  0  0  0  0  0  0  0  0  0  0
   21.6620   63.2670   -6.7000 C   0  0  0  0  0  0  0  0  0  0  0  0
   20.9980   62.4450   -6.0320 O   0  0  0  0  0  0  0  0  0  0  0  0
   22.8900   63.7080   -6.3730 N   0  0  0  0  0  0  0  0  0  0  0  0
   23.2240   64.5660   -7.3550 C   0  0  0  0  0  0  0  0  0  0  0  0
   24.2970   65.2030   -7.4350 O   0  0  0  0  0  0  0  0  0  0  0  0
   23.6550   63.3330   -5.2280 C   0  0  0  0  0  0  0  0  0  0  0  0
   23.0730   63.2390   -3.9790 C   0  0  0  0  0  0  0  0  0  0  0  0
   23.7980   62.8780   -2.8610 C   0  0  0  0  0  0  0  0  0  0  0  0
   25.1460   62.5950   -2.9480 C   0  0  0  0  0  0  0  0  0  0  0  0
   25.7480   62.6830   -4.1850 C   0  0  0  0  0  0  0  0  0  0  0  0
   25.0050   63.0460   -5.2910 C   0  0  0  0  0  0  0  0  0  0  0  0
   26.1750   62.0910   -1.4160 B   0  0  0  0  0  0  0  0  0  0  0  0
   17.3560   64.0610  -10.2980 H   0  0  0  0  0  0  0  0  0  0  0  0
   15.1630   65.0340  -10.7500 H   0  0  0  0  0  0  0  0  0  0  0  0
   13.2280   63.6650  -11.1390 H   0  0  0  0  0  0  0  0  0  0  0  0
   13.4460   61.2210  -11.0810 H   0  0  0  0  0  0  0  0  0  0  0  0
   18.0680   60.4030  -10.5580 H   0  0  0  0  0  0  0  0  0  0  0  0
   18.8090   62.8350   -7.5790 H   0  0  0  0  0  0  0  0  0  0  0  0
   18.0740   63.7450   -8.9580 H   0  0  0  0  0  0  0  0  0  0  0  0
   19.9600   64.9770  -10.5230 H   0  0  0  0  0  0  0  0  0  0  0  0
   22.3040   65.8960  -10.0100 H   0  0  0  0  0  0  0  0  0  0  0  0
   22.0040   63.4660   -3.9210 H   0  0  0  0  0  0  0  0  0  0  0  0
   23.3310   62.8080   -1.8940 H   0  0  0  0  0  0  0  0  0  0  0  0
   26.8190   62.4570   -4.2490 H   0  0  0  0  0  0  0  0  0  0  0  0
   25.4690   63.1180   -6.2620 H   0  0  0  0  0  0  0  0  0  0  0  0
  2  1  1  0  0  0  0
  2  3  1  0  0  0  0
  3  8  1  0  0  0  0
  4  3  2  0  0  0  0
  4 29  1  0  0  0  0
  5  4  1  0  0  0  0
  6  7  1  0  0  0  0
  6  5  2  0  0  0  0
  7  2  2  0  0  0  0
  8  9  1  0  0  0  0
  9 10  2  0  0  0  0
  9 11  1  0  0  0  0
 11 34  1  0  0  0  0
 12 11  1  0  0  0  0
 12 16  1  0  0  0  0
 13 14  1  0  0  0  0
 13 12  1  0  0  0  0
 14 15  1  0  0  0  0
 15 16  2  0  0  0  0
 15 20  1  0  0  0  0
 16 17  1  0  0  0  0
 17 19  1  0  0  0  0
 17 18  2  0  0  0  0
 19 22  1  0  0  0  0
 20 19  1  0  0  0  0
 21 20  2  0  0  0  0
 22 23  1  0  0  0  0
 23 38  1  0  0  0  0
 23 24  2  0  0  0  0
 24 39  1  0  0  0  0
 25 24  1  0  0  0  0
 25 28  1  0  0  0  0
 26 25  2  0  0  0  0
 27 22  2  0  0  0  0
 27 26  1  0  0  0  0
 30  5  1  0  0  0  0
 31  6  1  0  0  0  0
 32  7  1  0  0  0  0
 33  8  1  0  0  0  0
 35 11  1  0  0  0  0
 36 13  1  0  0  0  0
 37 14  1  0  0  0  0
 40 26  1  0  0  0  0
 41 27  1  0  0  0  0
M  END
>  <Pose>
1

>  <Score>
-7.28

$$$$
