
 OpenBabel03202210193D

 41 44  0  0  0  0  0  0  0  0999 V2000
   26.0670   62.3580   -2.2960 F   0  0  0  0  0  0  0  0  0  0  0  0
   25.3820   62.7850   -3.3980 C   0  0  0  0  0  0  0  0  0  0  0  0
   26.0010   62.8120   -4.6150 C   0  0  0  0  0  0  0  0  0  0  0  0
   25.3090   63.2460   -5.7490 C   0  0  0  0  0  0  0  0  0  0  0  0
   23.9970   63.6570   -5.6830 C   0  0  0  0  0  0  0  0  0  0  0  0
   23.3980   63.6170   -4.4330 C   0  0  0  0  0  0  0  0  0  0  0  0
   24.0700   63.1910   -3.3100 C   0  0  0  0  0  0  0  0  0  0  0  0
   23.2390   64.1020   -6.8070 N   0  0  0  0  0  0  0  0  0  0  0  0
   23.0640   63.4960   -7.9930 C   0  0  0  0  0  0  0  0  0  0  0  0
   23.5910   62.3790   -8.2460 O   0  0  0  0  0  0  0  0  0  0  0  0
   22.2660   64.2360   -8.8450 C   0  0  0  0  0  0  0  0  0  0  0  0
   21.9480   65.3270   -8.1520 C   0  0  0  0  0  0  0  0  0  0  0  0
   21.1760   66.0770   -8.9430 N   0  0  0  0  0  0  0  0  0  0  0  0
   21.0280   65.4530  -10.0960 N   0  0  0  0  0  0  0  0  0  0  0  0
   21.6930   64.3020  -10.0730 N   0  0  0  0  0  0  0  0  0  0  0  0
   21.8130   63.3020  -11.0930 C   0  0  0  0  0  0  0  0  0  0  0  0
   23.1770   63.0320  -11.5590 C   0  0  0  0  0  0  0  0  0  0  0  0
   23.6890   61.9490  -11.2360 O   0  0  0  0  0  0  0  0  0  0  0  0
   23.8620   63.9680  -12.3400 N   0  0  0  0  0  0  0  0  0  0  0  0
   24.6050   63.7690  -13.5270 C   0  0  0  0  0  0  0  0  0  0  0  0
   24.0010   63.6520  -14.7560 C   0  0  0  0  0  0  0  0  0  0  0  0
   24.7010   63.4540  -15.9490 C   0  0  0  0  0  0  0  0  0  0  0  0
   26.0670   63.3760  -15.8510 C   0  0  0  0  0  0  0  0  0  0  0  0
   26.6960   63.4890  -14.6370 C   0  0  0  0  0  0  0  0  0  0  0  0
   25.9860   63.6830  -13.4810 C   0  0  0  0  0  0  0  0  0  0  0  0
   27.0970   63.1040  -17.4580 B   0  0  0  0  0  0  0  0  0  0  0  0
   22.5350   65.2580   -6.9060 C   0  0  0  0  0  0  0  0  0  0  0  0
   22.4790   66.0880   -5.9540 O   0  0  0  0  0  0  0  0  0  0  0  0
   27.0300   62.4900   -4.6710 H   0  0  0  0  0  0  0  0  0  0  0  0
   25.8090   63.2610   -6.6920 H   0  0  0  0  0  0  0  0  0  0  0  0
   22.3510   63.9460   -4.3850 H   0  0  0  0  0  0  0  0  0  0  0  0
   23.5880   63.1660   -2.3450 H   0  0  0  0  0  0  0  0  0  0  0  0
   20.7700   67.0090   -8.6530 H   0  0  0  0  0  0  0  0  0  0  0  0
   20.4840   65.7880  -10.9040 H   0  0  0  0  0  0  0  0  0  0  0  0
   21.2260   63.6670  -11.9880 H   0  0  0  0  0  0  0  0  0  0  0  0
   21.2760   62.3520  -10.8070 H   0  0  0  0  0  0  0  0  0  0  0  0
   23.8430   65.0030  -12.0200 H   0  0  0  0  0  0  0  0  0  0  0  0
   22.9260   63.7060  -14.9040 H   0  0  0  0  0  0  0  0  0  0  0  0
   24.1990   63.3650  -16.9050 H   0  0  0  0  0  0  0  0  0  0  0  0
   27.7830   63.4250  -14.5740 H   0  0  0  0  0  0  0  0  0  0  0  0
   26.5180   63.7720  -12.5110 H   0  0  0  0  0  0  0  0  0  0  0  0
  2  7  1  0  0  0  0
  2  1  1  0  0  0  0
  3  2  2  0  0  0  0
  4  5  2  0  0  0  0
  4  3  1  0  0  0  0
  5  6  1  0  0  0  0
  6 31  1  0  0  0  0
  6  7  2  0  0  0  0
  7 32  1  0  0  0  0
  8  5  1  0  0  0  0
  9  8  1  0  0  0  0
 10  9  2  0  0  0  0
 11 12  2  0  0  0  0
 11  9  1  0  0  0  0
 12 27  1  0  0  0  0
 13 33  1  0  0  0  0
 13 12  1  0  0  0  0
 14 15  1  0  0  0  0
 14 13  1  0  0  0  0
 15 11  1  0  0  0  0
 16 36  1  0  0  0  0
 16 15  1  0  0  0  0
 17 18  2  0  0  0  0
 17 16  1  0  0  0  0
 19 37  1  0  0  0  0
 19 17  1  0  0  0  0
 20 25  1  0  0  0  0
 20 19  1  0  0  0  0
 21 20  2  0  0  0  0
 22 23  2  0  0  0  0
 22 21  1  0  0  0  0
 23 24  1  0  0  0  0
 24 40  1  0  0  0  0
 24 25  2  0  0  0  0
 25 41  1  0  0  0  0
 26 23  1  0  0  0  0
 27  8  1  0  0  0  0
 27 28  2  0  0  0  0
 29  3  1  0  0  0  0
 30  4  1  0  0  0  0
 34 14  1  0  0  0  0
 35 16  1  0  0  0  0
 38 21  1  0  0  0  0
 39 22  1  0  0  0  0
M  END
>  <Pose>
1

>  <Score>
-8.64

$$$$
