
 OpenBabel03202210193D

 39 42  0  0  1  0  0  0  0  0999 V2000
   18.6980   61.5540   -9.6610 I   0  0  0  0  0  0  0  0  0  0  0  0
   20.3410   62.8670   -9.6240 C   0  0  0  0  0  0  0  0  0  0  0  0
   20.4130   63.8660   -8.6520 C   0  0  0  0  0  0  0  0  0  0  0  0
   21.4690   64.7450   -8.5920 C   0  0  0  0  0  0  0  0  0  0  0  0
   22.4640   64.5760   -9.5650 C   0  0  0  0  0  0  0  0  0  0  0  0
   22.3840   63.5930  -10.5170 C   0  0  0  0  0  0  0  0  0  0  0  0
   21.3190   62.7240  -10.5590 C   0  0  0  0  0  0  0  0  0  0  0  0
   23.7560   63.3950  -11.8230 B   0  0  0  0  0  0  0  0  0  0  0  0
   21.6020   65.8170   -7.5720 C   0  0  2  0  0  0  0  0  0  0  0  0
   23.0190   66.0200   -7.3710 N   0  0  0  0  0  0  0  0  0  0  0  0
   23.7760   65.0450   -6.6460 C   0  0  0  0  0  0  0  0  0  0  0  0
   25.4580   64.6030   -6.6460 S   0  0  0  0  0  0  0  0  0  0  0  0
   25.4210   63.3680   -5.4780 C   0  0  0  0  0  0  0  0  0  0  0  0
   24.1170   63.3290   -5.1220 C   0  0  0  0  0  0  0  0  0  0  0  0
   23.2680   64.1850   -5.7160 C   0  0  0  0  0  0  0  0  0  0  0  0
   21.8010   64.3840   -5.5390 C   0  0  0  0  0  0  0  0  0  0  0  0
   21.1470   63.6910   -4.7240 O   0  0  0  0  0  0  0  0  0  0  0  0
   21.1050   65.3600   -6.2850 N   0  0  0  0  0  0  0  0  0  0  0  0
   23.7840   62.2880   -4.0610 C   0  0  0  0  0  0  0  0  0  0  0  0
   25.0360   61.9680   -3.3110 C   0  0  0  0  0  0  0  0  0  0  0  0
   25.9510   61.3810   -4.3020 N   0  0  0  0  0  4  0  0  0  0  0  0
   26.5290   62.5320   -4.9630 C   0  0  0  0  0  0  0  0  0  0  0  0
   26.9470   60.5490   -3.6680 C   0  0  0  0  0  0  0  0  0  0  0  0
   19.3950   63.9690   -7.7300 O   0  0  0  0  0  0  0  0  0  0  0  0
   23.2960   65.2660   -9.5220 H   0  0  0  0  0  0  0  0  0  0  0  0
   21.2490   61.9330  -11.3170 H   0  0  0  0  0  0  0  0  0  0  0  0
   21.0910   66.7500   -7.8890 H   0  0  0  0  0  0  0  0  0  0  0  0
   23.5340   66.8550   -7.7290 H   0  0  0  0  0  0  0  0  0  0  0  0
   20.2100   65.7780   -5.9230 H   0  0  0  0  0  0  0  0  0  0  0  0
   23.4460   61.3960   -4.6030 H   0  0  0  0  0  0  0  0  0  0  0  0
   22.9820   62.6430   -3.4050 H   0  0  0  0  0  0  0  0  0  0  0  0
   25.4940   62.8780   -2.8880 H   0  0  0  0  0  0  0  0  0  0  0  0
   24.8130   61.2330   -2.5390 H   0  0  0  0  0  0  0  0  0  0  0  0
   25.3900   60.8630   -5.0100 H   0  0  0  0  0  0  0  0  0  0  0  0
   27.1810   63.1150   -4.2840 H   0  0  0  0  0  0  0  0  0  0  0  0
   27.1860   62.1410   -5.7650 H   0  0  0  0  0  0  0  0  0  0  0  0
   27.9660   60.9560   -3.7780 H   0  0  0  0  0  0  0  0  0  0  0  0
   26.9370   59.5660   -4.2130 H   0  0  0  0  0  0  0  0  0  0  0  0
   26.7000   60.2980   -2.6160 H   0  0  0  0  0  0  0  0  0  0  0  0
  1  2  1  0  0  0  0
  2  3  1  0  0  0  0
  3  4  2  0  0  0  0
  3 24  1  0  0  0  0
  4  9  1  0  0  0  0
  5 25  1  0  0  0  0
  5  4  1  0  0  0  0
  6  5  2  0  0  0  0
  7  6  1  0  0  0  0
  7  2  2  0  0  0  0
  8  6  1  0  0  0  0
  9 27  1  6  0  0  0
  9 10  1  0  0  0  0
  9 18  1  0  0  0  0
 10 11  1  0  0  0  0
 11 12  1  0  0  0  0
 11 15  2  0  0  0  0
 12 13  1  0  0  0  0
 13 14  2  0  0  0  0
 13 22  1  0  0  0  0
 14 19  1  0  0  0  0
 15 16  1  0  0  0  0
 15 14  1  0  0  0  0
 16 17  2  0  0  0  0
 18 29  1  0  0  0  0
 18 16  1  0  0  0  0
 19 31  1  0  0  0  0
 19 20  1  0  0  0  0
 20 32  1  0  0  0  0
 20 33  1  0  0  0  0
 21 23  1  0  0  0  0
 21 20  1  0  0  0  0
 22 21  1  0  0  0  0
 22 35  1  0  0  0  0
 23 39  1  0  0  0  0
 26  7  1  0  0  0  0
 28 10  1  0  0  0  0
 30 19  1  0  0  0  0
 34 21  1  0  0  0  0
 36 22  1  0  0  0  0
 37 23  1  0  0  0  0
 38 23  1  0  0  0  0
M  END
>  <Pose>
1

>  <Score>
-7.33

$$$$
