
 OpenBabel03202210193D

 38 41  0  0  1  0  0  0  0  0999 V2000
   23.3550   63.1120  -11.5750 I   0  0  0  0  0  0  0  0  0  0  0  0
   22.5820   63.5840   -9.6670 C   0  0  0  0  0  0  0  0  0  0  0  0
   21.3700   62.9940   -9.2430 C   0  0  0  0  0  0  0  0  0  0  0  0
   20.8520   63.2890   -8.0150 C   0  0  0  0  0  0  0  0  0  0  0  0
   21.5620   64.1830   -7.2090 C   0  0  0  0  0  0  0  0  0  0  0  0
   22.7350   64.7690   -7.5930 C   0  0  0  0  0  0  0  0  0  0  0  0
   23.2510   64.4600   -8.8490 C   0  0  0  0  0  0  0  0  0  0  0  0
   20.7160   62.0940  -10.1080 N   0  0  0  0  0  0  0  0  0  0  0  0
   19.3590   61.7110  -10.1020 C   0  0  1  0  0  0  0  0  0  0  0  0
   18.8900   60.4820   -9.9150 N   0  0  0  0  0  0  0  0  0  0  0  0
   17.5940   60.1290   -9.9100 C   0  0  0  0  0  0  0  0  0  0  0  0
   16.8620   59.0190   -9.7530 N   0  0  0  0  0  0  0  0  0  0  0  0
   15.5930   59.2940   -9.8520 O   0  0  0  0  0  0  0  0  0  0  0  0
   15.4400   60.5680  -10.0730 N   0  0  0  0  0  0  0  0  0  0  0  0
   16.6520   61.1420  -10.1210 C   0  0  0  0  0  0  0  0  0  0  0  0
   17.0610   62.3830  -10.3110 N   0  0  0  0  0  0  0  0  0  0  0  0
   18.3620   62.6850  -10.3070 C   0  0  0  0  0  0  0  0  0  0  0  0
   18.4460   63.9880  -10.5230 N   0  0  0  0  0  0  0  0  0  0  0  0
   17.2100   64.4980  -10.6620 N   0  0  0  0  0  0  0  0  0  0  0  0
   16.3180   63.5050  -10.5320 C   0  0  0  0  0  0  0  0  0  0  0  0
   14.8340   63.5530  -10.6090 C   0  0  0  0  0  0  0  0  0  0  0  0
   14.3210   63.5490  -12.0000 C   0  0  0  0  0  0  0  0  0  0  0  0
   14.1700   62.5050  -12.6680 O   0  0  0  0  0  0  0  0  0  0  0  0
   14.0010   64.7430  -12.5840 O   0  0  0  0  0  0  0  0  0  0  0  0
   13.2720   64.8940  -13.7490 C   0  0  0  0  0  0  0  0  0  0  0  0
   13.9120   65.6810  -14.8280 C   0  0  0  0  0  0  0  0  0  0  0  0
   19.9400   62.8850   -7.6180 H   0  0  0  0  0  0  0  0  0  0  0  0
   21.1590   64.4290   -6.2220 H   0  0  0  0  0  0  0  0  0  0  0  0
   23.2600   65.4560   -6.9500 H   0  0  0  0  0  0  0  0  0  0  0  0
   24.1790   64.9290   -9.1430 H   0  0  0  0  0  0  0  0  0  0  0  0
   21.3510   61.6530  -10.8630 H   0  0  0  0  0  0  0  0  0  0  0  0
   14.4080   64.3740  -10.0060 H   0  0  0  0  0  0  0  0  0  0  0  0
   14.4200   62.6040  -10.1460 H   0  0  0  0  0  0  0  0  0  0  0  0
   13.0140   63.8570  -14.1030 H   0  0  0  0  0  0  0  0  0  0  0  0
   12.2650   65.3490  -13.5220 H   0  0  0  0  0  0  0  0  0  0  0  0
   14.0510   64.9990  -15.7190 H   0  0  0  0  0  0  0  0  0  0  0  0
   14.9440   66.0080  -14.5680 H   0  0  0  0  0  0  0  0  0  0  0  0
   13.2680   66.5190  -15.1230 H   0  0  0  0  0  0  0  0  0  0  0  0
  1  2  1  0  0  0  0
  2  3  2  0  0  0  0
  2  7  1  0  0  0  0
  3  4  1  0  0  0  0
  4 27  1  0  0  0  0
  4  5  2  0  0  0  0
  5 28  1  0  0  0  0
  6  5  1  0  0  0  0
  6 29  1  0  0  0  0
  7  6  2  0  0  0  0
  8  3  1  0  0  0  0
  9  8  1  1  0  0  0
  9 10  1  0  0  0  0
 10 11  2  0  0  0  0
 11 12  1  0  0  0  0
 13 12  1  0  0  0  0
 14 13  1  0  0  0  0
 15 14  2  0  0  0  0
 15 11  1  0  0  0  0
 16 17  1  0  0  0  0
 16 15  1  0  0  0  0
 17  9  1  0  0  0  0
 18 17  2  0  0  0  0
 19 20  2  0  0  0  0
 19 18  1  0  0  0  0
 20 16  1  0  0  0  0
 21 20  1  0  0  0  0
 21 33  1  0  0  0  0
 21 32  1  0  0  0  0
 22 21  1  0  0  0  0
 23 22  2  0  0  0  0
 24 22  1  0  0  0  0
 25 35  1  0  0  0  0
 25 24  1  0  0  0  0
 26 37  1  0  0  0  0
 26 25  1  0  0  0  0
 30  7  1  0  0  0  0
 31  8  1  0  0  0  0
 34 25  1  0  0  0  0
 36 26  1  0  0  0  0
 38 26  1  0  0  0  0
M  END
>  <Pose>
1

>  <Score>
-9.47

$$$$
