
 OpenBabel03202210193D

 34 37  0  0  0  0  0  0  0  0999 V2000
   22.6030   63.1380  -11.2780 I   0  0  0  0  0  0  0  0  0  0  0  0
   20.6360   62.7270  -10.6150 C   0  0  0  0  0  0  0  0  0  0  0  0
   20.2830   63.1800   -9.3600 C   0  0  0  0  0  0  0  0  0  0  0  0
   18.9970   62.9020   -8.9460 C   0  0  0  0  0  0  0  0  0  0  0  0
   18.1130   62.2050   -9.7530 C   0  0  0  0  0  0  0  0  0  0  0  0
   18.4780   61.7570  -11.0050 C   0  0  0  0  0  0  0  0  0  0  0  0
   19.7620   62.0310  -11.4260 C   0  0  0  0  0  0  0  0  0  0  0  0
   21.2040   63.8980   -8.5390 N   0  0  0  0  0  0  0  0  0  0  0  0
   22.0430   63.4240   -7.6010 C   0  0  0  0  0  0  0  0  0  0  0  0
   22.1620   62.2040   -7.2770 O   0  0  0  0  0  0  0  0  0  0  0  0
   22.7770   64.4380   -7.0200 C   0  0  0  0  0  0  0  0  0  0  0  0
   22.3760   65.5500   -7.6160 C   0  0  0  0  0  0  0  0  0  0  0  0
   23.1040   66.5350   -7.0380 N   0  0  0  0  0  0  0  0  0  0  0  0
   23.9160   66.0360   -6.1250 N   0  0  0  0  0  0  0  0  0  0  0  0
   23.7310   64.7420   -6.0970 N   0  0  0  0  0  0  0  0  0  0  0  0
   24.3750   63.7760   -5.2770 C   0  0  0  0  0  0  0  0  0  0  0  0
   23.7930   63.2840   -4.1300 C   0  0  0  0  0  0  0  0  0  0  0  0
   24.4470   62.3430   -3.3520 C   0  0  0  0  0  0  0  0  0  0  0  0
   25.6960   61.8610   -3.6870 C   0  0  0  0  0  0  0  0  0  0  0  0
   26.2800   62.3520   -4.8350 C   0  0  0  0  0  0  0  0  0  0  0  0
   25.6390   63.2860   -5.6120 C   0  0  0  0  0  0  0  0  0  0  0  0
   21.4080   65.2280   -8.5540 C   0  0  0  0  0  0  0  0  0  0  0  0
   20.8170   66.0760   -9.2990 O   0  0  0  0  0  0  0  0  0  0  0  0
   18.7130   63.2540   -7.9640 H   0  0  0  0  0  0  0  0  0  0  0  0
   17.1110   61.9980   -9.4090 H   0  0  0  0  0  0  0  0  0  0  0  0
   17.7640   61.2150  -11.6120 H   0  0  0  0  0  0  0  0  0  0  0  0
   20.0450   61.6740  -12.4190 H   0  0  0  0  0  0  0  0  0  0  0  0
   23.0480   67.5500   -7.2660 H   0  0  0  0  0  0  0  0  0  0  0  0
   24.5820   66.5730   -5.5320 H   0  0  0  0  0  0  0  0  0  0  0  0
   22.8130   63.6450   -3.8430 H   0  0  0  0  0  0  0  0  0  0  0  0
   23.9590   61.9800   -2.4590 H   0  0  0  0  0  0  0  0  0  0  0  0
   26.1800   61.1220   -3.0540 H   0  0  0  0  0  0  0  0  0  0  0  0
   27.2640   61.9710   -5.0970 H   0  0  0  0  0  0  0  0  0  0  0  0
   26.0730   63.6830   -6.5090 H   0  0  0  0  0  0  0  0  0  0  0  0
  1  2  1  0  0  0  0
  2  3  1  0  0  0  0
  3  4  2  0  0  0  0
  3  8  1  0  0  0  0
  4 24  1  0  0  0  0
  5 25  1  0  0  0  0
  5  4  1  0  0  0  0
  6  5  2  0  0  0  0
  7  6  1  0  0  0  0
  7  2  2  0  0  0  0
  8  9  1  0  0  0  0
  9 10  2  0  0  0  0
  9 11  1  0  0  0  0
 11 15  1  0  0  0  0
 12 13  1  0  0  0  0
 12 11  2  0  0  0  0
 13 14  1  0  0  0  0
 14 15  1  0  0  0  0
 14 29  1  0  0  0  0
 15 16  1  0  0  0  0
 16 17  1  0  0  0  0
 17 30  1  0  0  0  0
 17 18  2  0  0  0  0
 18 31  1  0  0  0  0
 19 18  1  0  0  0  0
 19 32  1  0  0  0  0
 20 19  2  0  0  0  0
 21 16  2  0  0  0  0
 21 20  1  0  0  0  0
 22  8  1  0  0  0  0
 22 12  1  0  0  0  0
 23 22  2  0  0  0  0
 26  6  1  0  0  0  0
 27  7  1  0  0  0  0
 28 13  1  0  0  0  0
 33 20  1  0  0  0  0
 34 21  1  0  0  0  0
M  END
>  <Pose>
1

>  <Score>
-7.35

$$$$
