
 OpenBabel03202210193D

 40 43  0  0  1  0  0  0  0  0999 V2000
   25.6960   60.3430   -1.6350 I   0  0  0  0  0  0  0  0  0  0  0  0
   25.1480   61.6970   -3.1190 C   0  0  0  0  0  0  0  0  0  0  0  0
   23.9620   62.4060   -3.1250 C   0  0  0  0  0  0  0  0  0  0  0  0
   23.6320   63.2910   -4.1170 C   0  0  0  0  0  0  0  0  0  0  0  0
   24.4700   63.5210   -5.1650 C   0  0  0  0  0  0  0  0  0  0  0  0
   25.6710   62.8150   -5.1760 C   0  0  0  0  0  0  0  0  0  0  0  0
   26.0000   61.9390   -4.1960 C   0  0  0  0  0  0  0  0  0  0  0  0
   24.1640   64.4560   -6.2140 C   0  0  1  0  0  0  0  0  0  0  0  0
   25.1620   64.6900   -7.0230 O   0  0  0  0  0  0  0  0  0  0  0  0
   22.9790   65.1940   -6.5640 C   0  0  0  0  0  0  0  0  0  0  0  0
   21.7740   64.5470   -6.9230 N   0  0  0  0  0  0  0  0  0  0  0  0
   21.4290   64.2070   -8.1260 C   0  0  1  0  0  0  0  0  0  0  0  0
   22.0320   64.2700   -9.8210 S   0  0  0  0  0  0  0  0  0  0  0  0
   20.5960   63.4610  -10.4890 C   0  0  0  0  0  0  0  0  0  0  0  0
   19.7690   63.1840   -9.5060 C   0  0  0  0  0  0  0  0  0  0  0  0
   20.1880   63.5720   -8.2090 N   0  0  0  0  0  0  0  0  0  0  0  0
   19.6690   63.4980   -6.8190 C   0  0  0  0  0  0  0  0  0  0  0  0
   20.7110   64.2000   -6.0200 C   0  0  0  0  0  0  0  0  0  0  0  0
   18.4850   62.5040   -9.8450 C   0  0  0  0  0  0  0  0  0  0  0  0
   18.3620   61.1390   -9.8640 C   0  0  0  0  0  0  0  0  0  0  0  0
   17.1450   60.5010  -10.1760 C   0  0  0  0  0  0  0  0  0  0  0  0
   16.0300   61.2490  -10.4740 C   0  0  0  0  0  0  0  0  0  0  0  0
   16.1470   62.6160  -10.4570 C   0  0  0  0  0  0  0  0  0  0  0  0
   17.3510   63.2360  -10.1480 C   0  0  0  0  0  0  0  0  0  0  0  0
   23.2840   62.2240   -2.2840 H   0  0  0  0  0  0  0  0  0  0  0  0
   22.6930   63.7750   -4.0330 H   0  0  0  0  0  0  0  0  0  0  0  0
   26.3450   62.9800   -5.9900 H   0  0  0  0  0  0  0  0  0  0  0  0
   26.9470   61.3740   -4.1920 H   0  0  0  0  0  0  0  0  0  0  0  0
   22.6980   65.9530   -5.7450 H   0  0  0  0  0  0  0  0  0  0  0  0
   23.2870   65.9120   -7.3990 H   0  0  0  0  0  0  0  0  0  0  0  0
   20.5300   63.2800  -11.5600 H   0  0  0  0  0  0  0  0  0  0  0  0
   19.5830   62.4610   -6.4670 H   0  0  0  0  0  0  0  0  0  0  0  0
   18.7300   64.0790   -6.7060 H   0  0  0  0  0  0  0  0  0  0  0  0
   21.0600   63.5320   -5.2050 H   0  0  0  0  0  0  0  0  0  0  0  0
   20.3140   65.1430   -5.5400 H   0  0  0  0  0  0  0  0  0  0  0  0
   19.2180   60.5350   -9.6370 H   0  0  0  0  0  0  0  0  0  0  0  0
   17.1120   59.4430  -10.1730 H   0  0  0  0  0  0  0  0  0  0  0  0
   15.0710   60.8200  -10.7200 H   0  0  0  0  0  0  0  0  0  0  0  0
   15.2820   63.2130  -10.6890 H   0  0  0  0  0  0  0  0  0  0  0  0
   17.3710   64.3220  -10.1530 H   0  0  0  0  0  0  0  0  0  0  0  0
  2  1  1  0  0  0  0
  3  2  1  0  0  0  0
  3 25  1  0  0  0  0
  4 26  1  0  0  0  0
  4  3  2  0  0  0  0
  5  4  1  0  0  0  0
  6  5  2  0  0  0  0
  6  7  1  0  0  0  0
  7 28  1  0  0  0  0
  7  2  2  0  0  0  0
  8  9  1  6  0  0  0
  8  5  1  0  0  0  0
 10  8  1  0  0  0  0
 10 29  1  0  0  0  0
 11 10  1  0  0  0  0
 11 18  1  0  0  0  0
 12 13  1  1  0  0  0
 12 11  1  0  0  0  0
 14 13  1  0  0  0  0
 14 15  2  0  0  0  0
 15 16  1  0  0  0  0
 16 12  1  0  0  0  0
 16 17  1  0  0  0  0
 17 33  1  0  0  0  0
 17 32  1  0  0  0  0
 17 18  1  0  0  0  0
 18 35  1  0  0  0  0
 18 34  1  0  0  0  0
 19 15  1  0  0  0  0
 20 19  1  0  0  0  0
 20 36  1  0  0  0  0
 21 37  1  0  0  0  0
 21 20  2  0  0  0  0
 22 23  2  0  0  0  0
 22 21  1  0  0  0  0
 23 24  1  0  0  0  0
 24 19  2  0  0  0  0
 27  6  1  0  0  0  0
 30 10  1  0  0  0  0
 31 14  1  0  0  0  0
 38 22  1  0  0  0  0
 39 23  1  0  0  0  0
 40 24  1  0  0  0  0
M  END
>  <Pose>
1

>  <Score>
-6.48

$$$$
