
 OpenBabel03202210193D

 52 56  0  0  1  0  0  0  0  0999 V2000
   14.4110   61.5800  -10.8530 I   0  0  0  0  0  0  0  0  0  0  0  0
   16.3920   62.2330  -10.6170 C   0  0  0  0  0  0  0  0  0  0  0  0
   17.3820   61.3290  -10.2480 C   0  0  0  0  0  0  0  0  0  0  0  0
   18.6720   61.7450  -10.0920 C   0  0  0  0  0  0  0  0  0  0  0  0
   19.0620   63.0610  -10.2880 C   0  0  0  0  0  0  0  0  0  0  0  0
   18.0750   63.9690  -10.6580 C   0  0  0  0  0  0  0  0  0  0  0  0
   16.7740   63.5390  -10.8120 C   0  0  0  0  0  0  0  0  0  0  0  0
   20.4040   63.4910  -10.1260 N   0  0  0  0  0  0  0  0  0  0  0  0
   20.7780   64.2450   -9.0770 C   0  0  0  0  0  0  0  0  0  0  0  0
   22.0750   64.6720   -8.8990 C   0  0  0  0  0  0  0  0  0  0  0  0
   22.9790   64.2810   -9.8670 C   0  0  0  0  0  0  0  0  0  0  0  0
   24.2080   64.5910   -9.8490 O   0  0  0  0  0  0  0  0  0  0  0  0
   22.6110   63.5130  -10.9400 N   0  0  0  0  0  0  0  0  0  0  0  0
   21.3240   63.1370  -11.0380 C   0  0  0  0  0  0  0  0  0  0  0  0
   20.9390   62.4320  -12.0050 O   0  0  0  0  0  0  0  0  0  0  0  0
   22.5580   65.4720   -7.7880 C   0  0  1  0  0  0  0  0  0  0  0  0
   21.7860   66.6150   -7.4150 N   0  0  0  0  0  4  0  0  0  0  0  0
   20.4700   66.3150   -6.9220 C   0  0  0  0  0  0  0  0  0  0  0  0
   20.2480   64.8400   -6.6640 C   0  0  0  0  0  0  0  0  0  0  0  0
   21.4620   64.2940   -5.9500 C   0  0  0  0  0  0  0  0  0  0  0  0
   22.6530   64.6470   -6.5310 C   0  0  0  0  0  0  0  0  0  0  0  0
   23.8450   64.2510   -5.9740 C   0  0  0  0  0  0  0  0  0  0  0  0
   23.7840   63.4890   -4.8150 C   0  0  0  0  0  0  0  0  0  0  0  0
   22.5940   63.1250   -4.2190 C   0  0  0  0  0  0  0  0  0  0  0  0
   21.4080   63.5490   -4.8180 C   0  0  0  0  0  0  0  0  0  0  0  0
   22.8800   62.3740   -3.0900 O   0  0  0  0  0  0  0  0  0  0  0  0
   24.2470   61.9360   -3.1560 C   0  0  0  0  0  0  0  0  0  0  0  0
   24.7850   62.9320   -4.0050 O   0  0  0  0  0  0  0  0  0  0  0  0
   25.0270   64.6080   -6.5580 O   0  0  0  0  0  0  0  0  0  0  0  0
   26.2510   64.8120   -5.9270 C   0  0  0  0  0  0  0  0  0  0  0  0
   22.5050   67.2020   -6.2540 C   0  0  0  0  0  0  0  0  0  0  0  0
   19.8500   64.6150   -8.1390 O   0  0  0  0  0  0  0  0  0  0  0  0
   17.0900   60.3040  -10.0930 H   0  0  0  0  0  0  0  0  0  0  0  0
   19.4370   61.0360   -9.8040 H   0  0  0  0  0  0  0  0  0  0  0  0
   18.3860   65.0010  -10.8100 H   0  0  0  0  0  0  0  0  0  0  0  0
   16.0150   64.2390  -11.0980 H   0  0  0  0  0  0  0  0  0  0  0  0
   23.2930   63.2210  -11.6640 H   0  0  0  0  0  0  0  0  0  0  0  0
   23.5900   65.7890   -8.0140 H   0  0  0  0  0  0  0  0  0  0  0  0
   21.7900   67.4110   -8.0750 H   0  0  0  0  0  0  0  0  0  0  0  0
   19.6890   66.6510   -7.6210 H   0  0  0  0  0  0  0  0  0  0  0  0
   20.2340   66.8280   -5.9480 H   0  0  0  0  0  0  0  0  0  0  0  0
   19.9810   64.2560   -7.5520 H   0  0  0  0  0  0  0  0  0  0  0  0
   19.4130   64.7260   -5.9430 H   0  0  0  0  0  0  0  0  0  0  0  0
   20.4580   63.2940   -4.3970 H   0  0  0  0  0  0  0  0  0  0  0  0
   24.2800   60.9810   -3.7290 H   0  0  0  0  0  0  0  0  0  0  0  0
   24.7160   61.8860   -2.1750 H   0  0  0  0  0  0  0  0  0  0  0  0
   26.5440   65.8870   -6.0990 H   0  0  0  0  0  0  0  0  0  0  0  0
   26.2590   64.5830   -4.8490 H   0  0  0  0  0  0  0  0  0  0  0  0
   27.0870   64.2240   -6.3900 H   0  0  0  0  0  0  0  0  0  0  0  0
   23.4980   67.5300   -6.5560 H   0  0  0  0  0  0  0  0  0  0  0  0
   22.4690   66.4690   -5.4370 H   0  0  0  0  0  0  0  0  0  0  0  0
   21.9070   68.0840   -5.8990 H   0  0  0  0  0  0  0  0  0  0  0  0
  1  2  1  0  0  0  0
  2  3  1  0  0  0  0
  3 33  1  0  0  0  0
  3  4  2  0  0  0  0
  4 34  1  0  0  0  0
  5  8  1  0  0  0  0
  5  4  1  0  0  0  0
  6  5  2  0  0  0  0
  7  6  1  0  0  0  0
  7  2  2  0  0  0  0
  8  9  1  0  0  0  0
  9 10  2  0  0  0  0
  9 32  1  0  0  0  0
 10 16  1  0  0  0  0
 11 12  2  0  0  0  0
 11 10  1  0  0  0  0
 13 11  1  0  0  0  0
 14 13  1  0  0  0  0
 14  8  1  0  0  0  0
 15 14  2  0  0  0  0
 16 38  1  6  0  0  0
 16 17  1  0  0  0  0
 16 21  1  0  0  0  0
 17 18  1  0  0  0  0
 17 31  1  0  0  0  0
 18 19  1  0  0  0  0
 18 41  1  0  0  0  0
 19 20  1  0  0  0  0
 19 43  1  0  0  0  0
 20 25  1  0  0  0  0
 21 22  1  0  0  0  0
 21 20  2  0  0  0  0
 22 23  2  0  0  0  0
 23 24  1  0  0  0  0
 23 28  1  0  0  0  0
 24 26  1  0  0  0  0
 25 44  1  0  0  0  0
 25 24  2  0  0  0  0
 27 26  1  0  0  0  0
 27 46  1  0  0  0  0
 28 27  1  0  0  0  0
 29 22  1  0  0  0  0
 29 30  1  0  0  0  0
 30 48  1  0  0  0  0
 31 52  1  0  0  0  0
 31 51  1  0  0  0  0
 32 42  1  0  0  0  0
 35  6  1  0  0  0  0
 36  7  1  0  0  0  0
 37 13  1  0  0  0  0
 39 17  1  0  0  0  0
 40 18  1  0  0  0  0
 45 27  1  0  0  0  0
 47 30  1  0  0  0  0
 49 30  1  0  0  0  0
 50 31  1  0  0  0  0
M  END
>  <Pose>
1

>  <Score>
-4.78

$$$$
