
 OpenBabel03202210193D

 44 47  0  0  1  0  0  0  0  0999 V2000
   24.9300   63.8550   -3.2320 I   0  0  0  0  0  0  0  0  0  0  0  0
   24.1900   63.8800   -5.2100 C   0  0  0  0  0  0  0  0  0  0  0  0
   24.1960   62.7560   -6.0100 C   0  0  0  0  0  0  0  0  0  0  0  0
   23.7070   62.8010   -7.3000 C   0  0  0  0  0  0  0  0  0  0  0  0
   23.1970   63.9630   -7.8400 C   0  0  0  0  0  0  0  0  0  0  0  0
   23.2000   65.0720   -7.0270 C   0  0  0  0  0  0  0  0  0  0  0  0
   23.6840   65.0500   -5.7340 C   0  0  0  0  0  0  0  0  0  0  0  0
   22.6960   63.9590   -9.1900 N   0  0  0  0  0  0  0  0  0  0  0  0
   21.4790   64.5000   -9.6770 C   0  0  0  0  0  0  0  0  0  0  0  0
   20.8290   65.4000   -9.0850 O   0  0  0  0  0  0  0  0  0  0  0  0
   21.1190   63.8430  -10.9640 C   0  0  1  0  0  0  0  0  0  0  0  0
   22.4900   63.4840  -11.5140 C   0  0  0  0  0  0  0  0  0  0  0  0
   23.3540   63.3910  -10.3210 C   0  0  0  0  0  0  0  0  0  0  0  0
   24.5150   62.8890  -10.2710 O   0  0  0  0  0  0  0  0  0  0  0  0
   20.3120   62.7290  -10.6830 N   0  0  0  0  0  0  0  0  0  0  0  0
   19.6740   62.5880   -9.4510 C   0  0  0  0  0  0  0  0  0  0  0  0
   18.4270   61.6960   -9.6860 C   0  0  0  0  0  0  0  0  0  0  0  0
   17.7020   62.2310  -10.8290 N   0  0  0  0  0  0  0  0  0  0  0  0
   18.4170   62.2720  -12.0800 C   0  0  0  0  0  0  0  0  0  0  0  0
   19.8790   61.9550  -11.7760 C   0  0  0  0  0  0  0  0  0  0  0  0
   16.3740   62.6890  -10.7050 C   0  0  0  0  0  0  0  0  0  0  0  0
   16.1130   63.9940  -10.4230 N   0  0  0  0  0  0  0  0  0  0  0  0
   14.8820   64.4870  -10.3030 C   0  0  0  0  0  0  0  0  0  0  0  0
   13.7800   63.6590  -10.4670 C   0  0  0  0  0  0  0  0  0  0  0  0
   14.0520   62.3330  -10.7530 C   0  0  0  0  0  0  0  0  0  0  0  0
   15.3080   61.8790  -10.8660 N   0  0  0  0  0  0  0  0  0  0  0  0
   24.5890   61.8440   -5.6050 H   0  0  0  0  0  0  0  0  0  0  0  0
   23.7120   61.9120   -7.9370 H   0  0  0  0  0  0  0  0  0  0  0  0
   22.8050   65.9940   -7.4300 H   0  0  0  0  0  0  0  0  0  0  0  0
   23.6780   65.9400   -5.1030 H   0  0  0  0  0  0  0  0  0  0  0  0
   20.6800   64.5710  -11.6690 H   0  0  0  0  0  0  0  0  0  0  0  0
   22.5040   62.5110  -12.0360 H   0  0  0  0  0  0  0  0  0  0  0  0
   22.8790   64.3030  -12.1520 H   0  0  0  0  0  0  0  0  0  0  0  0
   20.2310   62.1630   -8.6150 H   0  0  0  0  0  0  0  0  0  0  0  0
   19.2030   63.5780   -9.1760 H   0  0  0  0  0  0  0  0  0  0  0  0
   17.7510   61.7170   -8.8100 H   0  0  0  0  0  0  0  0  0  0  0  0
   18.7310   60.6370   -9.8360 H   0  0  0  0  0  0  0  0  0  0  0  0
   18.0880   61.4640  -12.7740 H   0  0  0  0  0  0  0  0  0  0  0  0
   18.3580   63.2470  -12.5930 H   0  0  0  0  0  0  0  0  0  0  0  0
   20.5090   62.1210  -12.6820 H   0  0  0  0  0  0  0  0  0  0  0  0
   19.9460   60.8460  -11.5970 H   0  0  0  0  0  0  0  0  0  0  0  0
   14.7030   65.5280  -10.0790 H   0  0  0  0  0  0  0  0  0  0  0  0
   12.7800   64.0550  -10.3700 H   0  0  0  0  0  0  0  0  0  0  0  0
   13.1890   61.6830  -10.8810 H   0  0  0  0  0  0  0  0  0  0  0  0
  2  1  1  0  0  0  0
  3 27  1  0  0  0  0
  3  2  2  0  0  0  0
  4  3  1  0  0  0  0
  5  4  2  0  0  0  0
  5  6  1  0  0  0  0
  6  7  2  0  0  0  0
  7  2  1  0  0  0  0
  7 30  1  0  0  0  0
  8  5  1  0  0  0  0
  9  8  1  0  0  0  0
  9 10  2  0  0  0  0
 11 31  1  6  0  0  0
 11 15  1  0  0  0  0
 11  9  1  0  0  0  0
 12 11  1  0  0  0  0
 12 13  1  0  0  0  0
 13 14  2  0  0  0  0
 13  8  1  0  0  0  0
 15 16  1  0  0  0  0
 16 35  1  0  0  0  0
 16 34  1  0  0  0  0
 17 16  1  0  0  0  0
 17 36  1  0  0  0  0
 18 21  1  0  0  0  0
 18 17  1  0  0  0  0
 19 20  1  0  0  0  0
 19 18  1  0  0  0  0
 20 41  1  0  0  0  0
 20 15  1  0  0  0  0
 21 22  2  0  0  0  0
 22 23  1  0  0  0  0
 23 42  1  0  0  0  0
 24 43  1  0  0  0  0
 24 23  2  0  0  0  0
 25 24  1  0  0  0  0
 26 25  2  0  0  0  0
 26 21  1  0  0  0  0
 28  4  1  0  0  0  0
 29  6  1  0  0  0  0
 32 12  1  0  0  0  0
 33 12  1  0  0  0  0
 37 17  1  0  0  0  0
 38 19  1  0  0  0  0
 39 19  1  0  0  0  0
 40 20  1  0  0  0  0
 44 25  1  0  0  0  0
M  END
>  <Pose>
1

>  <Score>
-6.13

$$$$
