
 OpenBabel03202210193D

 44 47  0  0  1  0  0  0  0  0999 V2000
   23.0110   63.1190  -10.7130 I   0  0  0  0  0  0  0  0  0  0  0  0
   21.1580   63.4410   -9.7600 C   0  0  0  0  0  0  0  0  0  0  0  0
   20.9690   63.7780   -8.4520 C   0  0  0  0  0  0  0  0  0  0  0  0
   19.5840   63.8740   -8.3140 C   0  0  0  0  0  0  0  0  0  0  0  0
   18.9530   63.6150   -9.4590 N   0  0  0  0  0  0  0  0  0  0  0  0
   19.9080   63.3480  -10.3490 C   0  0  0  0  0  0  0  0  0  0  0  0
   17.5460   63.6100   -9.7290 C   0  0  2  0  0  0  0  0  0  0  0  0
   17.0090   62.3360   -9.8670 O   0  0  0  0  0  0  0  0  0  0  0  0
   15.6980   62.6050  -10.2510 C   0  0  1  0  0  0  0  0  0  0  0  0
   15.7510   63.7660  -11.2170 C   0  0  2  0  0  0  0  0  0  0  0  0
   17.2130   64.2100  -11.0970 C   0  0  0  0  0  0  0  0  0  0  0  0
   14.9800   64.8420  -10.7750 O   0  0  0  0  0  0  0  0  0  0  0  0
   15.1300   61.4160  -11.0390 C   0  0  0  0  0  0  0  0  0  0  0  0
   14.6060   60.4840  -10.1330 O   0  0  0  0  0  0  0  0  0  0  0  0
   19.1010   64.2010   -7.1030 N   0  0  0  0  0  0  0  0  0  0  0  0
   19.9230   64.4250   -6.0660 C   0  0  0  0  0  0  0  0  0  0  0  0
   21.2490   64.3320   -6.2030 N   0  0  0  0  0  0  0  0  0  0  0  0
   21.8260   64.0040   -7.4000 C   0  0  0  0  0  0  0  0  0  0  0  0
   23.2450   63.9200   -7.4880 N   0  0  0  0  0  0  0  0  0  0  0  0
   24.0260   64.4470   -6.4200 C   0  0  0  0  0  0  0  0  0  0  0  0
   24.3280   65.6670   -6.4740 O   0  0  0  0  0  0  0  0  0  0  0  0
   24.4870   63.6800   -5.2950 C   0  0  0  0  0  0  0  0  0  0  0  0
   23.7860   63.6490   -4.1210 C   0  0  0  0  0  0  0  0  0  0  0  0
   24.2190   62.9060   -3.0210 C   0  0  0  0  0  0  0  0  0  0  0  0
   25.3730   62.1860   -3.1110 C   0  0  0  0  0  0  0  0  0  0  0  0
   26.0970   62.1970   -4.2760 C   0  0  0  0  0  0  0  0  0  0  0  0
   25.6450   62.9490   -5.3660 C   0  0  0  0  0  0  0  0  0  0  0  0
   19.7900   63.0880  -11.4060 H   0  0  0  0  0  0  0  0  0  0  0  0
   16.9900   64.2050   -8.9940 H   0  0  0  0  0  0  0  0  0  0  0  0
   15.0580   62.8130   -9.3680 H   0  0  0  0  0  0  0  0  0  0  0  0
   15.4890   63.4950  -12.2470 H   0  0  0  0  0  0  0  0  0  0  0  0
   17.7890   63.6680  -11.8670 H   0  0  0  0  0  0  0  0  0  0  0  0
   17.3230   65.2960  -11.1150 H   0  0  0  0  0  0  0  0  0  0  0  0
   15.6300   65.6000  -10.6510 H   0  0  0  0  0  0  0  0  0  0  0  0
   14.3130   61.7330  -11.6980 H   0  0  0  0  0  0  0  0  0  0  0  0
   15.9440   60.9350  -11.5940 H   0  0  0  0  0  0  0  0  0  0  0  0
   13.7590   60.0720  -10.4940 H   0  0  0  0  0  0  0  0  0  0  0  0
   19.4930   64.6900   -5.0880 H   0  0  0  0  0  0  0  0  0  0  0  0
   23.7720   63.5060   -8.2620 H   0  0  0  0  0  0  0  0  0  0  0  0
   22.8530   64.1940   -3.9550 H   0  0  0  0  0  0  0  0  0  0  0  0
   23.6590   62.8910   -2.1070 H   0  0  0  0  0  0  0  0  0  0  0  0
   25.7580   61.5820   -2.2710 H   0  0  0  0  0  0  0  0  0  0  0  0
   27.0000   61.6260   -4.3290 H   0  0  0  0  0  0  0  0  0  0  0  0
   26.2500   62.9190   -6.2410 H   0  0  0  0  0  0  0  0  0  0  0  0
  1  2  1  0  0  0  0
  2  3  1  0  0  0  0
  3  4  2  0  0  0  0
  3 18  1  0  0  0  0
  4 15  1  0  0  0  0
  5  4  1  0  0  0  0
  6  2  2  0  0  0  0
  6  5  1  0  0  0  0
  7  5  1  0  0  0  0
  7 29  1  1  0  0  0
  8  7  1  0  0  0  0
  9  8  1  0  0  0  0
  9 30  1  1  0  0  0
 10 31  1  6  0  0  0
 10 11  1  0  0  0  0
 10 12  1  0  0  0  0
 10  9  1  0  0  0  0
 11  7  1  0  0  0  0
 12 34  1  0  0  0  0
 13  9  1  0  0  0  0
 13 14  1  0  0  0  0
 15 16  2  0  0  0  0
 16 38  1  0  0  0  0
 17 16  1  0  0  0  0
 18 17  2  0  0  0  0
 19 18  1  0  0  0  0
 19 20  1  0  0  0  0
 20 22  1  0  0  0  0
 21 20  2  0  0  0  0
 22 23  1  0  0  0  0
 23 40  1  0  0  0  0
 23 24  2  0  0  0  0
 24 41  1  0  0  0  0
 25 24  1  0  0  0  0
 25 42  1  0  0  0  0
 26 25  2  0  0  0  0
 27 22  2  0  0  0  0
 27 26  1  0  0  0  0
 28  6  1  0  0  0  0
 32 11  1  0  0  0  0
 33 11  1  0  0  0  0
 35 13  1  0  0  0  0
 36 13  1  0  0  0  0
 37 14  1  0  0  0  0
 39 19  1  0  0  0  0
 43 26  1  0  0  0  0
 44 27  1  0  0  0  0
M  END
>  <Pose>
1

>  <Score>
-7.86

$$$$
