
 OpenBabel03202210193D

 48 52  0  0  1  0  0  0  0  0999 V2000
   22.3800   66.5300   -6.3150 B   0  0  0  0  0  0  0  0  0  0  0  0
   23.2610   64.9680   -5.6700 C   0  0  0  0  0  0  0  0  0  0  0  0
   23.3500   64.8040   -4.2650 C   0  0  0  0  0  0  0  0  0  0  0  0
   24.0090   63.7320   -3.7270 C   0  0  0  0  0  0  0  0  0  0  0  0
   24.5840   62.8170   -4.5810 C   0  0  0  0  0  0  0  0  0  0  0  0
   24.4930   62.9860   -5.9440 C   0  0  0  0  0  0  0  0  0  0  0  0
   23.8160   64.0830   -6.5340 C   0  0  0  0  0  0  0  0  0  0  0  0
   23.7360   64.1150   -7.9770 C   0  0  0  0  0  0  0  0  0  0  0  0
   23.0520   63.4270   -8.8220 C   0  0  0  0  0  0  0  0  0  0  0  0
   22.9650   63.4660  -10.2700 C   0  0  1  0  0  0  0  0  0  0  0  0
   23.9630   63.5550  -11.1160 N   0  0  0  0  0  0  0  0  0  0  0  0
   23.7260   63.4780  -12.4610 C   0  0  0  0  0  0  0  0  0  0  0  0
   22.4890   63.3120  -13.0030 C   0  0  0  0  0  0  0  0  0  0  0  0
   21.4150   63.2180  -12.1450 C   0  0  0  0  0  0  0  0  0  0  0  0
   20.0580   63.0520  -12.3160 N   0  0  0  0  0  0  0  0  0  0  0  0
   19.4670   63.0240  -11.1330 C   0  0  0  0  0  0  0  0  0  0  0  0
   20.4610   63.1750  -10.2150 N   0  0  0  0  0  0  0  0  0  0  0  0
   21.6560   63.2950  -10.8040 C   0  0  0  0  0  0  0  0  0  0  0  0
   18.0430   62.8880  -10.8080 C   0  0  0  0  0  0  0  0  0  0  0  0
   17.3940   61.7140  -10.6100 C   0  0  0  0  0  0  0  0  0  0  0  0
   16.0150   61.7060  -10.3310 C   0  0  0  0  0  0  0  0  0  0  0  0
   15.3140   62.8880  -10.2570 C   0  0  0  0  0  0  0  0  0  0  0  0
   15.9550   64.1040  -10.4550 C   0  0  0  0  0  0  0  0  0  0  0  0
   17.2840   64.0660  -10.7210 C   0  0  0  0  0  0  0  0  0  0  0  0
   19.5020   62.9610  -13.6360 C   0  0  0  0  0  0  0  0  0  0  0  0
   25.3080   63.8090  -10.6920 C   0  0  0  0  0  0  0  0  0  0  0  0
   25.1900   61.8320   -3.7830 O   0  0  0  0  0  0  0  0  0  0  0  0
   24.5390   61.8900   -2.5310 C   0  0  0  0  0  0  0  0  0  0  0  0
   24.2720   63.2880   -2.4270 O   0  0  0  0  0  0  0  0  0  0  0  0
   22.8790   65.5510   -3.6480 H   0  0  0  0  0  0  0  0  0  0  0  0
   24.9530   62.2520   -6.6030 H   0  0  0  0  0  0  0  0  0  0  0  0
   24.4220   64.8480   -8.4410 H   0  0  0  0  0  0  0  0  0  0  0  0
   22.4180   62.6520   -8.3420 H   0  0  0  0  0  0  0  0  0  0  0  0
   24.5850   63.5520  -13.1240 H   0  0  0  0  0  0  0  0  0  0  0  0
   22.2900   63.2490  -14.0640 H   0  0  0  0  0  0  0  0  0  0  0  0
   17.9100   60.7630  -10.6450 H   0  0  0  0  0  0  0  0  0  0  0  0
   15.5240   60.7590  -10.1790 H   0  0  0  0  0  0  0  0  0  0  0  0
   14.2500   62.8870  -10.0410 H   0  0  0  0  0  0  0  0  0  0  0  0
   15.4280   65.0440  -10.4020 H   0  0  0  0  0  0  0  0  0  0  0  0
   17.7960   65.0190  -10.8790 H   0  0  0  0  0  0  0  0  0  0  0  0
   19.1360   61.9720  -13.9320 H   0  0  0  0  0  0  0  0  0  0  0  0
   20.2980   63.2350  -14.4170 H   0  0  0  0  0  0  0  0  0  0  0  0
   18.7160   63.7170  -13.8600 H   0  0  0  0  0  0  0  0  0  0  0  0
   25.9370   62.9200  -10.5510 H   0  0  0  0  0  0  0  0  0  0  0  0
   25.8260   64.3150  -11.5980 H   0  0  0  0  0  0  0  0  0  0  0  0
   25.4010   64.6120   -9.9360 H   0  0  0  0  0  0  0  0  0  0  0  0
   23.5920   61.3140   -2.5970 H   0  0  0  0  0  0  0  0  0  0  0  0
   25.1960   61.5500   -1.7020 H   0  0  0  0  0  0  0  0  0  0  0  0
  1  2  1  0  0  0  0
  2  3  1  0  0  0  0
  3  4  2  0  0  0  0
  3 30  1  0  0  0  0
  4 29  1  0  0  0  0
  5 27  1  0  0  0  0
  5  4  1  0  0  0  0
  6  5  2  0  0  0  0
  7  6  1  0  0  0  0
  7  2  2  0  0  0  0
  8  7  1  0  0  0  0
  9 33  1  0  0  0  0
  9  8  2  0  0  0  0
 10  9  1  1  0  0  0
 11 26  1  0  0  0  0
 11 10  1  0  0  0  0
 12 11  1  0  0  0  0
 13 12  2  0  0  0  0
 13 14  1  0  0  0  0
 14 18  2  0  0  0  0
 15 14  1  0  0  0  0
 15 16  1  0  0  0  0
 16 19  1  0  0  0  0
 16 17  2  0  0  0  0
 18 10  1  0  0  0  0
 18 17  1  0  0  0  0
 19 24  2  0  0  0  0
 19 20  1  0  0  0  0
 20 21  2  0  0  0  0
 21 22  1  0  0  0  0
 21 37  1  0  0  0  0
 22 38  1  0  0  0  0
 23 39  1  0  0  0  0
 23 22  2  0  0  0  0
 24 23  1  0  0  0  0
 25 15  1  0  0  0  0
 26 44  1  0  0  0  0
 26 46  1  0  0  0  0
 27 28  1  0  0  0  0
 28 29  1  0  0  0  0
 28 48  1  0  0  0  0
 31  6  1  0  0  0  0
 32  8  1  0  0  0  0
 34 12  1  0  0  0  0
 35 13  1  0  0  0  0
 36 20  1  0  0  0  0
 40 24  1  0  0  0  0
 41 25  1  0  0  0  0
 42 25  1  0  0  0  0
 43 25  1  0  0  0  0
 45 26  1  0  0  0  0
 47 28  1  0  0  0  0
M  END
>  <Pose>
1

>  <Score>
-6.15

$$$$
