
 OpenBabel03202210193D

 35 38  0  0  1  0  0  0  0  0999 V2000
   23.4470   64.1390   -5.8540 B   0  0  0  0  0  0  0  0  0  0  0  0
   21.6570   63.9960   -6.4770 C   0  0  0  0  0  0  0  0  0  0  0  0
   21.3280   63.7570   -7.8080 C   0  0  1  0  0  0  0  0  0  0  0  0
   20.0060   63.6620   -8.2130 C   0  0  0  0  0  0  0  0  0  0  0  0
   18.9890   63.8050   -7.2910 C   0  0  0  0  0  0  0  0  0  0  0  0
   19.3030   64.0390   -5.9810 C   0  0  0  0  0  0  0  0  0  0  0  0
   20.6150   64.1320   -5.5880 C   0  0  0  0  0  0  0  0  0  0  0  0
   20.8590   64.3730   -4.2230 O   0  0  0  0  0  0  0  0  0  0  0  0
   17.8410   64.2240   -4.7510 B   0  0  0  0  0  0  0  0  0  0  0  0
   19.6540   63.4270   -9.5240 C   0  0  0  0  0  0  0  0  0  0  0  0
   20.6760   63.2850  -10.4390 C   0  0  0  0  0  0  0  0  0  0  0  0
   22.0450   63.4020   -9.9220 C   0  0  0  0  0  0  0  0  0  0  0  0
   23.0680   63.2570  -10.8610 C   0  0  1  0  0  0  0  0  0  0  0  0
   22.7780   63.0200  -12.1840 C   0  0  0  0  0  0  0  0  0  0  0  0
   23.7330   62.8960  -12.9930 O   0  0  0  0  0  0  0  0  0  0  0  0
   21.4690   62.9160  -12.6430 C   0  0  0  0  0  0  0  0  0  0  0  0
   20.4200   63.0460  -11.7800 C   0  0  0  0  0  0  0  0  0  0  0  0
   21.1570   62.5850  -14.4990 B   0  0  0  0  0  0  0  0  0  0  0  0
   24.8870   63.3990  -10.2550 B   0  0  0  0  0  0  0  0  0  0  0  0
   22.3140   63.6270   -8.6580 O   0  0  0  0  0  0  0  0  0  0  0  0
   18.2560   63.3360   -9.9500 C   0  0  0  0  0  0  0  0  0  0  0  0
   17.5390   64.4760  -10.2640 C   0  0  0  0  0  0  0  0  0  0  0  0
   16.2210   64.4160  -10.6630 C   0  0  0  0  0  0  0  0  0  0  0  0
   15.6120   63.1800  -10.7470 C   0  0  0  0  0  0  0  0  0  0  0  0
   16.2810   62.0330  -10.4480 C   0  0  0  0  0  0  0  0  0  0  0  0
   17.5980   62.1120  -10.0500 C   0  0  0  0  0  0  0  0  0  0  0  0
   18.3130   60.9010   -9.7260 C   0  0  0  0  0  0  0  0  0  0  0  0
   17.9730   60.1520   -8.7700 O   0  0  0  0  0  0  0  0  0  0  0  0
   19.4240   60.5170  -10.4740 O   0  0  0  0  0  0  0  0  0  0  0  0
   15.4300   60.5030  -10.5830 Cl  0  0  0  0  0  0  0  0  0  0  0  0
   18.3410   66.0460  -10.1500 Cl  0  0  0  0  0  0  0  0  0  0  0  0
   17.9450   63.7270   -7.6320 H   0  0  0  0  0  0  0  0  0  0  0  0
   19.3880   62.9730  -12.0800 H   0  0  0  0  0  0  0  0  0  0  0  0
   15.6790   65.3380  -10.9040 H   0  0  0  0  0  0  0  0  0  0  0  0
   14.5760   63.1260  -11.0600 H   0  0  0  0  0  0  0  0  0  0  0  0
  2  1  1  0  0  0  0
  2  7  2  0  0  0  0
  3 20  1  6  0  0  0
  3  2  1  0  0  0  0
  4  3  1  0  0  0  0
  4  5  1  0  0  0  0
  5  6  2  0  0  0  0
  6  7  1  0  0  0  0
  6  9  1  0  0  0  0
  7  8  1  0  0  0  0
 10  4  2  0  0  0  0
 11 12  2  0  0  0  0
 11 10  1  0  0  0  0
 12 20  1  0  0  0  0
 13 19  1  6  0  0  0
 13 12  1  0  0  0  0
 14 13  1  0  0  0  0
 15 14  2  0  0  0  0
 16 14  1  0  0  0  0
 16 17  2  0  0  0  0
 17 11  1  0  0  0  0
 18 16  1  0  0  0  0
 21 10  1  0  0  0  0
 22 31  1  0  0  0  0
 22 21  2  0  0  0  0
 23 22  1  0  0  0  0
 24 23  2  0  0  0  0
 24 25  1  0  0  0  0
 25 26  2  0  0  0  0
 26 21  1  0  0  0  0
 26 27  1  0  0  0  0
 27 28  1  0  0  0  0
 29 27  2  0  0  0  0
 30 25  1  0  0  0  0
 32  5  1  0  0  0  0
 33 17  1  0  0  0  0
 34 23  1  0  0  0  0
 35 24  1  0  0  0  0
M  END
>  <Pose>
1

>  <Score>
-3.62

$$$$
