
 OpenBabel03202210193D

 35 39  0  0  0  0  0  0  0  0999 V2000
   25.2540   61.5720   -9.4170 I   0  0  0  0  0  0  0  0  0  0  0  0
   23.5740   62.8050   -9.0330 C   0  0  0  0  0  0  0  0  0  0  0  0
   23.4550   63.3020   -7.7240 C   0  0  0  0  0  0  0  0  0  0  0  0
   22.3850   64.0950   -7.4520 C   0  0  0  0  0  0  0  0  0  0  0  0
   21.4620   64.3790   -8.4740 C   0  0  0  0  0  0  0  0  0  0  0  0
   21.5810   63.8940   -9.7510 C   0  0  0  0  0  0  0  0  0  0  0  0
   22.6650   63.0900  -10.0260 C   0  0  0  0  0  0  0  0  0  0  0  0
   22.8160   62.5810  -11.3070 O   0  0  0  0  0  0  0  0  0  0  0  0
   20.1520   64.3620  -11.2440 I   0  0  0  0  0  0  0  0  0  0  0  0
   22.1720   64.6620   -6.1150 C   0  0  0  0  0  0  0  0  0  0  0  0
   20.8780   64.3740   -5.6220 O   0  0  0  0  0  0  0  0  0  0  0  0
   20.1470   65.5060   -5.3770 C   0  0  0  0  0  0  0  0  0  0  0  0
   18.9710   65.6080   -4.9380 O   0  0  0  0  0  0  0  0  0  0  0  0
   20.9890   66.6420   -5.7230 C   0  0  0  0  0  0  0  0  0  0  0  0
   22.1800   66.1580   -6.1580 C   0  0  0  0  0  0  0  0  0  0  0  0
   23.1640   67.0720   -6.5520 C   0  0  0  0  0  0  0  0  0  0  0  0
   22.9170   68.4240   -6.4940 C   0  0  0  0  0  0  0  0  0  0  0  0
   21.7080   68.9190   -6.0540 C   0  0  0  0  0  0  0  0  0  0  0  0
   20.7340   68.0310   -5.6640 C   0  0  0  0  0  0  0  0  0  0  0  0
   23.2160   64.2820   -5.1480 C   0  0  0  0  0  0  0  0  0  0  0  0
   24.2590   63.4870   -5.4810 C   0  0  0  0  0  0  0  0  0  0  0  0
   25.2070   63.1670   -4.5140 C   0  0  0  0  0  0  0  0  0  0  0  0
   25.0940   63.6480   -3.2400 C   0  0  0  0  0  0  0  0  0  0  0  0
   24.0480   64.4590   -2.8670 C   0  0  0  0  0  0  0  0  0  0  0  0
   23.1280   64.7580   -3.8340 C   0  0  0  0  0  0  0  0  0  0  0  0
   23.8800   65.2000   -0.8940 I   0  0  0  0  0  0  0  0  0  0  0  0
   26.0560   63.3140   -2.2950 O   0  0  0  0  0  0  0  0  0  0  0  0
   26.8420   61.9170   -5.0470 I   0  0  0  0  0  0  0  0  0  0  0  0
   24.4220   62.9650   -6.7740 O   0  0  0  0  0  0  0  0  0  0  0  0
   20.6040   65.0230   -8.2320 H   0  0  0  0  0  0  0  0  0  0  0  0
   24.0920   66.6450   -6.8880 H   0  0  0  0  0  0  0  0  0  0  0  0
   23.6980   69.0900   -6.8050 H   0  0  0  0  0  0  0  0  0  0  0  0
   21.4940   69.9930   -6.0020 H   0  0  0  0  0  0  0  0  0  0  0  0
   19.7630   68.3650   -5.3090 H   0  0  0  0  0  0  0  0  0  0  0  0
   22.2960   65.3940   -3.5680 H   0  0  0  0  0  0  0  0  0  0  0  0
  1  2  1  0  0  0  0
  2  3  1  0  0  0  0
  3  4  2  0  0  0  0
  3 29  1  0  0  0  0
  4 10  1  0  0  0  0
  5 30  1  0  0  0  0
  5  4  1  0  0  0  0
  6  5  2  0  0  0  0
  7  6  1  0  0  0  0
  7  2  2  0  0  0  0
  8  7  1  0  0  0  0
  9  6  1  0  0  0  0
 10 11  1  0  0  0  0
 10 20  1  0  0  0  0
 11 12  1  0  0  0  0
 12 13  2  0  0  0  0
 14 19  1  0  0  0  0
 14 12  1  0  0  0  0
 15 10  1  0  0  0  0
 15 14  2  0  0  0  0
 16 17  2  0  0  0  0
 16 15  1  0  0  0  0
 17 18  1  0  0  0  0
 18 33  1  0  0  0  0
 18 19  2  0  0  0  0
 19 34  1  0  0  0  0
 20 25  1  0  0  0  0
 21 20  2  0  0  0  0
 21 22  1  0  0  0  0
 22 23  2  0  0  0  0
 23 24  1  0  0  0  0
 23 27  1  0  0  0  0
 24 26  1  0  0  0  0
 25 35  1  0  0  0  0
 25 24  2  0  0  0  0
 28 22  1  0  0  0  0
 29 21  1  0  0  0  0
 31 16  1  0  0  0  0
 32 17  1  0  0  0  0
M  END
>  <Pose>
1

>  <Score>
-3.43

$$$$
