
 OpenBabel03202210193D

 35 38  0  0  1  0  0  0  0  0999 V2000
   23.0530   64.0440   -7.3830 I   0  0  0  0  0  0  0  0  0  0  0  0
   20.9860   63.7390   -7.6590 C   0  0  0  0  0  0  0  0  0  0  0  0
   20.4360   63.4520   -8.8930 C   0  0  2  0  0  0  0  0  0  0  0  0
   19.0850   63.2530   -9.0780 C   0  0  0  0  0  0  0  0  0  0  0  0
   18.2670   63.3500   -7.9670 C   0  0  0  0  0  0  0  0  0  0  0  0
   18.8110   63.6380   -6.7250 C   0  0  0  0  0  0  0  0  0  0  0  0
   20.1740   63.8390   -6.5470 C   0  0  0  0  0  0  0  0  0  0  0  0
   20.6670   64.1250   -5.2770 O   0  0  0  0  0  0  0  0  0  0  0  0
   18.5160   62.9640  -10.3020 C   0  0  0  0  0  0  0  0  0  0  0  0
   19.4000   62.8820  -11.3740 C   0  0  0  0  0  0  0  0  0  0  0  0
   20.8240   63.0990  -11.1370 C   0  0  0  0  0  0  0  0  0  0  0  0
   21.6490   63.0040  -12.2380 C   0  0  1  0  0  0  0  0  0  0  0  0
   21.1810   62.7210  -13.5040 C   0  0  0  0  0  0  0  0  0  0  0  0
   21.9550   62.6380  -14.5030 O   0  0  0  0  0  0  0  0  0  0  0  0
   19.8340   62.5150  -13.7290 C   0  0  0  0  0  0  0  0  0  0  0  0
   18.9820   62.6030  -12.6460 C   0  0  0  0  0  0  0  0  0  0  0  0
   23.7150   63.3020  -11.9970 I   0  0  0  0  0  0  0  0  0  0  0  0
   21.2380   63.3670   -9.9230 O   0  0  0  0  0  0  0  0  0  0  0  0
   17.0870   62.7520  -10.5020 C   0  0  0  0  0  0  0  0  0  0  0  0
   16.5780   61.4680  -10.3370 C   0  0  0  0  0  0  0  0  0  0  0  0
   15.2420   61.2210  -10.5130 C   0  0  0  0  0  0  0  0  0  0  0  0
   14.3990   62.2530  -10.8580 C   0  0  0  0  0  0  0  0  0  0  0  0
   14.8770   63.5340  -11.0270 C   0  0  0  0  0  0  0  0  0  0  0  0
   16.2230   63.7600  -10.8440 C   0  0  0  0  0  0  0  0  0  0  0  0
   17.4630   60.3650   -9.9710 C   0  0  0  0  0  0  0  0  0  0  0  0
   18.6790   60.3450  -10.2630 O   0  0  0  0  0  0  0  0  0  0  0  0
   16.9740   59.2720   -9.2700 O   0  0  0  0  0  0  0  0  0  0  0  0
   17.2080   63.1930   -8.1160 H   0  0  0  0  0  0  0  0  0  0  0  0
   18.1160   63.7010   -5.8950 H   0  0  0  0  0  0  0  0  0  0  0  0
   19.4950   62.2930  -14.7320 H   0  0  0  0  0  0  0  0  0  0  0  0
   17.9250   62.4440  -12.8060 H   0  0  0  0  0  0  0  0  0  0  0  0
   14.8090   60.2170  -10.3900 H   0  0  0  0  0  0  0  0  0  0  0  0
   13.3450   62.0390  -10.9940 H   0  0  0  0  0  0  0  0  0  0  0  0
   14.1760   64.3300  -11.3020 H   0  0  0  0  0  0  0  0  0  0  0  0
   16.6340   64.7550  -10.9700 H   0  0  0  0  0  0  0  0  0  0  0  0
  2  1  1  0  0  0  0
  2  7  2  0  0  0  0
  3 18  1  1  0  0  0
  3  2  1  0  0  0  0
  4  3  1  0  0  0  0
  4  5  1  0  0  0  0
  5  6  2  0  0  0  0
  6  7  1  0  0  0  0
  6 29  1  0  0  0  0
  7  8  1  0  0  0  0
  9  4  2  0  0  0  0
 10 11  2  0  0  0  0
 10  9  1  0  0  0  0
 11 18  1  0  0  0  0
 12 17  1  6  0  0  0
 12 11  1  0  0  0  0
 13 12  1  0  0  0  0
 14 13  2  0  0  0  0
 15 13  1  0  0  0  0
 15 16  2  0  0  0  0
 16 10  1  0  0  0  0
 19 20  1  0  0  0  0
 19  9  1  0  0  0  0
 20 25  1  0  0  0  0
 21 32  1  0  0  0  0
 21 20  2  0  0  0  0
 22 21  1  0  0  0  0
 23 22  2  0  0  0  0
 23 24  1  0  0  0  0
 24 19  2  0  0  0  0
 25 27  1  0  0  0  0
 26 25  2  0  0  0  0
 28  5  1  0  0  0  0
 30 15  1  0  0  0  0
 31 16  1  0  0  0  0
 33 22  1  0  0  0  0
 34 23  1  0  0  0  0
 35 24  1  0  0  0  0
M  END
>  <Pose>
1

>  <Score>
-3.75

$$$$
