
 OpenBabel03202210193D

 34 37  0  0  1  0  0  0  0  0999 V2000
   15.3680   62.9110  -10.9020 P   0  0  1  0  0  0  0  0  0  0  0  0
   15.5690   63.1910  -12.3750 O   0  0  0  0  0  0  0  0  0  0  0  0
   16.6020   61.8980  -10.2980 O   0  0  0  0  0  0  0  0  0  0  0  0
   17.3810   62.6900   -9.4580 C   0  0  2  0  0  0  0  0  0  0  0  0
   17.4970   64.0510  -10.1550 C   0  0  2  0  0  0  0  0  0  0  0  0
   18.7590   64.4460   -9.7840 O   0  0  0  0  0  0  0  0  0  0  0  0
   19.5180   63.3440  -10.1780 C   0  0  2  0  0  0  0  0  0  0  0  0
   18.8210   62.2260   -9.4050 C   0  0  2  0  0  0  0  0  0  0  0  0
   19.0170   60.9910   -9.9690 O   0  0  0  0  0  0  0  0  0  0  0  0
   20.9030   63.4740   -9.7960 N   0  0  0  0  0  0  0  0  0  0  0  0
   21.3030   63.7040   -8.5400 C   0  0  0  0  0  0  0  0  0  0  0  0
   20.6080   63.8630   -7.3810 N   0  0  0  0  0  0  0  0  0  0  0  0
   21.1890   64.0870   -6.2060 C   0  0  0  0  0  0  0  0  0  0  0  0
   22.5320   64.1620   -6.1590 N   0  0  0  0  0  0  0  0  0  0  0  0
   23.2820   64.0120   -7.2700 C   0  0  0  0  0  0  0  0  0  0  0  0
   22.6810   63.7800   -8.4900 C   0  0  0  0  0  0  0  0  0  0  0  0
   23.1060   63.5900   -9.7470 N   0  0  0  0  0  0  0  0  0  0  0  0
   22.0230   63.4060  -10.5380 C   0  0  0  0  0  0  0  0  0  0  0  0
   22.0480   63.0920  -12.4280 B   0  0  0  0  0  0  0  0  0  0  0  0
   24.6710   64.0870   -7.2260 O   0  0  0  0  0  0  0  0  0  0  0  0
   20.4170   64.2480   -5.0190 N   0  0  0  0  0  0  0  0  0  0  0  0
   16.3920   64.9130   -9.6730 C   0  0  0  0  0  0  0  0  0  0  0  0
   15.1790   64.2920   -9.9880 O   0  0  0  0  0  0  0  0  0  0  0  0
   13.9260   61.9960  -10.7890 O   0  0  0  0  0  0  0  0  0  0  0  0
   16.9290   62.7930   -8.4570 H   0  0  0  0  0  0  0  0  0  0  0  0
   17.4830   63.9280  -11.2530 H   0  0  0  0  0  0  0  0  0  0  0  0
   19.3830   63.0970  -11.2540 H   0  0  0  0  0  0  0  0  0  0  0  0
   19.1970   62.2680   -8.3420 H   0  0  0  0  0  0  0  0  0  0  0  0
   20.0050   60.8080  -10.0590 H   0  0  0  0  0  0  0  0  0  0  0  0
   25.0620   64.8450   -6.6470 H   0  0  0  0  0  0  0  0  0  0  0  0
   19.9500   63.3930   -4.6480 H   0  0  0  0  0  0  0  0  0  0  0  0
   20.3150   65.1750   -4.5350 H   0  0  0  0  0  0  0  0  0  0  0  0
   16.4250   64.9530   -8.5540 H   0  0  0  0  0  0  0  0  0  0  0  0
   16.4650   65.9310  -10.0990 H   0  0  0  0  0  0  0  0  0  0  0  0
  1  2  2  6  0  0  0
  1 24  1  0  0  0  0
  1  3  1  0  0  0  0
  1 23  1  0  0  0  0
  3  4  1  0  0  0  0
  4  8  1  0  0  0  0
  4 25  1  1  0  0  0
  5 26  1  6  0  0  0
  5  6  1  0  0  0  0
  5 22  1  0  0  0  0
  5  4  1  0  0  0  0
  7 27  1  6  0  0  0
  7 10  1  0  0  0  0
  7  6  1  0  0  0  0
  7  8  1  0  0  0  0
  8 28  1  1  0  0  0
  9  8  1  0  0  0  0
 10 11  1  0  0  0  0
 11 16  2  0  0  0  0
 11 12  1  0  0  0  0
 12 13  2  0  0  0  0
 13 14  1  0  0  0  0
 13 21  1  0  0  0  0
 15 20  1  0  0  0  0
 15 14  2  0  0  0  0
 16 15  1  0  0  0  0
 17 16  1  0  0  0  0
 18 10  1  0  0  0  0
 18 17  2  0  0  0  0
 19 18  1  0  0  0  0
 20 30  1  0  0  0  0
 21 31  1  0  0  0  0
 21 32  1  0  0  0  0
 22 33  1  0  0  0  0
 23 22  1  0  0  0  0
 29  9  1  0  0  0  0
 34 22  1  0  0  0  0
M  END
>  <Pose>
1

>  <Score>
-7.34

$$$$
