
 OpenBabel03202210193D

 33 36  0  0  1  0  0  0  0  0999 V2000
   18.5970   62.4260  -10.5010 P   0  0  2  0  0  0  0  0  0  0  0  0
   17.5360   63.8110  -10.4620 S   0  0  0  0  0  0  0  0  0  0  0  0
   19.3600   62.2440   -8.9850 O   0  0  0  0  0  0  0  0  0  0  0  0
   20.2860   63.2530   -8.8830 C   0  0  2  0  0  0  0  0  0  0  0  0
   21.3310   63.0740   -9.9920 C   0  0  2  0  0  0  0  0  0  0  0  0
   22.3300   63.9270   -9.5270 O   0  0  0  0  0  0  0  0  0  0  0  0
   22.5010   63.6130   -8.2000 C   0  0  2  0  0  0  0  0  0  0  0  0
   21.1800   63.1200   -7.6640 C   0  0  2  0  0  0  0  0  0  0  0  0
   21.3230   61.7470   -7.4240 O   0  0  0  0  0  0  0  0  0  0  0  0
   22.8970   64.7540   -7.3960 N   0  0  0  0  0  0  0  0  0  0  0  0
   22.2890   65.9660   -7.4450 C   0  0  0  0  0  0  0  0  0  0  0  0
   21.2450   66.4320   -8.1770 N   0  0  0  0  0  0  0  0  0  0  0  0
   20.8150   67.7020   -8.0470 C   0  0  0  0  0  0  0  0  0  0  0  0
   21.4310   68.5350   -7.1730 N   0  0  0  0  0  0  0  0  0  0  0  0
   22.4680   68.1110   -6.4300 C   0  0  0  0  0  0  0  0  0  0  0  0
   22.9200   66.8100   -6.5530 C   0  0  0  0  0  0  0  0  0  0  0  0
   23.9060   66.1090   -5.9660 N   0  0  0  0  0  0  0  0  0  0  0  0
   23.8810   64.8620   -6.4870 C   0  0  0  0  0  0  0  0  0  0  0  0
   25.0440   63.3990   -6.0490 B   0  0  0  0  0  0  0  0  0  0  0  0
   23.1080   69.0030   -5.5110 N   0  0  0  0  0  0  0  0  0  0  0  0
   20.7840   63.4820  -11.3250 C   0  0  0  0  0  0  0  0  0  0  0  0
   19.7750   62.6010  -11.6720 O   0  0  0  0  0  0  0  0  0  0  0  0
   17.6660   61.0680  -10.7800 O   0  0  0  0  0  0  0  0  0  0  0  0
   19.8680   64.2530   -8.9980 H   0  0  0  0  0  0  0  0  0  0  0  0
   21.6680   62.0290   -9.9520 H   0  0  0  0  0  0  0  0  0  0  0  0
   23.3130   62.8550   -8.1110 H   0  0  0  0  0  0  0  0  0  0  0  0
   20.8180   63.6770   -6.7990 H   0  0  0  0  0  0  0  0  0  0  0  0
   21.9830   61.3220   -8.0010 H   0  0  0  0  0  0  0  0  0  0  0  0
   19.9690   68.0330   -8.6590 H   0  0  0  0  0  0  0  0  0  0  0  0
   22.7500   69.0420   -4.5170 H   0  0  0  0  0  0  0  0  0  0  0  0
   23.9060   69.6090   -5.7840 H   0  0  0  0  0  0  0  0  0  0  0  0
   21.5790   63.4060  -12.0670 H   0  0  0  0  0  0  0  0  0  0  0  0
   20.4460   64.5330  -11.2520 H   0  0  0  0  0  0  0  0  0  0  0  0
  1 23  2  6  0  0  0
  1  2  1  0  0  0  0
  1  3  1  0  0  0  0
  3  4  1  0  0  0  0
  4 24  1  6  0  0  0
  4  8  1  0  0  0  0
  5 25  1  6  0  0  0
  5  6  1  0  0  0  0
  5  4  1  0  0  0  0
  6  7  1  0  0  0  0
  7 26  1  1  0  0  0
  7  8  1  0  0  0  0
  7 10  1  0  0  0  0
  8  9  1  0  0  0  0
  8 27  1  1  0  0  0
 10 18  1  0  0  0  0
 11 10  1  0  0  0  0
 11 16  2  0  0  0  0
 12 13  2  0  0  0  0
 12 11  1  0  0  0  0
 13 14  1  0  0  0  0
 14 15  2  0  0  0  0
 15 20  1  0  0  0  0
 16 15  1  0  0  0  0
 16 17  1  0  0  0  0
 18 19  1  0  0  0  0
 18 17  2  0  0  0  0
 20 30  1  0  0  0  0
 21 33  1  0  0  0  0
 21  5  1  0  0  0  0
 22 21  1  0  0  0  0
 22  1  1  0  0  0  0
 28  9  1  0  0  0  0
 29 13  1  0  0  0  0
 31 20  1  0  0  0  0
 32 21  1  0  0  0  0
M  END
>  <Pose>
1

>  <Score>
-7.35

$$$$
