
 OpenBabel03202210193D

 52 55  0  0  1  0  0  0  0  0999 V2000
   21.6460   64.8510   -8.1040 S   0  0  0  0  0  0  0  0  0  0  0  0
   22.4530   64.4460   -9.6510 C   0  0  1  0  0  0  0  0  0  0  0  0
   23.2400   63.2700   -9.4530 N   0  0  0  0  0  0  0  0  0  0  0  0
   23.7110   62.6870   -8.2340 C   0  0  0  0  0  0  0  0  0  0  0  0
   23.6690   63.3720   -7.1350 C   0  0  0  0  0  0  0  0  0  0  0  0
   23.1340   64.8090   -7.0400 C   0  0  0  0  0  0  0  0  0  0  0  0
   24.0990   62.9190   -5.8370 C   0  0  0  0  0  0  0  0  0  0  0  0
   25.2770   63.2780   -5.2730 O   0  0  0  0  0  0  0  0  0  0  0  0
   25.6030   63.0190   -3.9360 C   0  0  0  0  0  0  0  0  0  0  0  0
   25.9860   63.9840   -3.2490 O   0  0  0  0  0  0  0  0  0  0  0  0
   25.4680   61.6270   -3.4460 C   0  0  0  0  0  0  0  0  0  0  0  0
   24.2330   61.2940   -8.3410 C   0  0  0  0  0  0  0  0  0  0  0  0
   25.3750   60.9650   -8.5790 O   0  0  0  0  0  0  0  0  0  0  0  0
   23.3380   60.2250   -8.1530 O   0  0  0  0  0  0  0  0  0  0  0  0
   23.1790   63.1610  -10.8640 C   0  0  0  0  0  0  0  0  0  0  0  0
   23.8120   62.8400  -11.8760 O   0  0  0  0  0  0  0  0  0  0  0  0
   21.7610   63.6840  -10.7020 C   0  0  1  0  0  0  0  0  0  0  0  0
   20.9390   62.5830  -10.3190 N   0  0  0  0  0  0  0  0  0  0  0  0
   19.5730   62.8080  -10.0170 C   0  0  0  0  0  0  0  0  0  0  0  0
   19.1940   63.9930   -9.8160 O   0  0  0  0  0  0  0  0  0  0  0  0
   18.6020   61.7130   -9.9350 C   0  0  0  0  0  0  0  0  0  0  0  0
   17.3580   61.6840  -10.3000 O   0  0  0  0  0  0  0  0  0  0  0  0
   16.8030   60.5380  -10.0740 C   0  0  0  0  0  0  0  0  0  0  0  0
   17.7740   59.7120   -9.4960 C   0  0  0  0  0  0  0  0  0  0  0  0
   18.9080   60.4750   -9.4150 C   0  0  0  0  0  0  0  0  0  0  0  0
   15.3830   60.1150  -10.3580 C   0  0  0  0  0  0  0  0  0  0  0  0
   14.4960   61.1890  -10.1790 O   0  0  0  0  0  0  0  0  0  0  0  0
   14.2750   62.2060  -11.0620 C   0  0  0  0  0  0  0  0  0  0  0  0
   14.6920   63.5210  -10.8730 C   0  0  0  0  0  0  0  0  0  0  0  0
   14.4160   64.4690  -11.8330 C   0  0  0  0  0  0  0  0  0  0  0  0
   13.7370   64.1930  -12.9970 C   0  0  0  0  0  0  0  0  0  0  0  0
   13.3200   62.8880  -13.1930 C   0  0  0  0  0  0  0  0  0  0  0  0
   13.5950   61.9260  -12.2300 C   0  0  0  0  0  0  0  0  0  0  0  0
   13.3850   65.5490  -14.2910 B   0  0  0  0  0  0  0  0  0  0  0  0
   23.0510   65.2710  -10.0960 H   0  0  0  0  0  0  0  0  0  0  0  0
   22.8890   65.0920   -6.0230 H   0  0  0  0  0  0  0  0  0  0  0  0
   23.9290   65.4420   -7.4700 H   0  0  0  0  0  0  0  0  0  0  0  0
   23.2720   63.2020   -5.0580 H   0  0  0  0  0  0  0  0  0  0  0  0
   24.0270   61.7560   -5.8100 H   0  0  0  0  0  0  0  0  0  0  0  0
   25.5230   60.9180   -4.2980 H   0  0  0  0  0  0  0  0  0  0  0  0
   24.4590   61.4790   -2.9560 H   0  0  0  0  0  0  0  0  0  0  0  0
   26.2310   61.3600   -2.6990 H   0  0  0  0  0  0  0  0  0  0  0  0
   21.3970   64.2310  -11.5880 H   0  0  0  0  0  0  0  0  0  0  0  0
   21.2850   61.5930  -10.2450 H   0  0  0  0  0  0  0  0  0  0  0  0
   17.5940   58.6840   -9.1980 H   0  0  0  0  0  0  0  0  0  0  0  0
   19.8530   60.1350   -9.0120 H   0  0  0  0  0  0  0  0  0  0  0  0
   15.1150   59.2310   -9.7400 H   0  0  0  0  0  0  0  0  0  0  0  0
   15.3060   59.7900  -11.4170 H   0  0  0  0  0  0  0  0  0  0  0  0
   15.2190   63.7680   -9.9760 H   0  0  0  0  0  0  0  0  0  0  0  0
   14.7490   65.4760  -11.6600 H   0  0  0  0  0  0  0  0  0  0  0  0
   12.7870   62.6640  -14.1060 H   0  0  0  0  0  0  0  0  0  0  0  0
   13.2290   60.9220  -12.4670 H   0  0  0  0  0  0  0  0  0  0  0  0
  1  6  1  0  0  0  0
  2 35  1  6  0  0  0
  2  3  1  0  0  0  0
  2  1  1  0  0  0  0
  3  4  1  0  0  0  0
  4  5  2  0  0  0  0
  5  6  1  0  0  0  0
  5  7  1  0  0  0  0
  6 36  1  0  0  0  0
  7 39  1  0  0  0  0
  7  8  1  0  0  0  0
  7 38  1  0  0  0  0
  8  9  1  0  0  0  0
  9 11  1  0  0  0  0
  9 10  2  0  0  0  0
 11 41  1  0  0  0  0
 11 42  1  0  0  0  0
 12  4  1  0  0  0  0
 12 14  1  0  0  0  0
 13 12  2  0  0  0  0
 15 17  1  0  0  0  0
 15  3  1  0  0  0  0
 16 15  2  0  0  0  0
 17 43  1  6  0  0  0
 17 18  1  0  0  0  0
 17  2  1  0  0  0  0
 18 44  1  0  0  0  0
 18 19  1  0  0  0  0
 19 21  1  0  0  0  0
 19 20  2  0  0  0  0
 21 25  2  0  0  0  0
 22 23  1  0  0  0  0
 22 21  1  0  0  0  0
 23 24  2  0  0  0  0
 24 25  1  0  0  0  0
 24 45  1  0  0  0  0
 25 46  1  0  0  0  0
 26 27  1  0  0  0  0
 26 23  1  0  0  0  0
 26 47  1  0  0  0  0
 28 29  1  0  0  0  0
 28 27  1  0  0  0  0
 29 49  1  0  0  0  0
 30 50  1  0  0  0  0
 30 29  2  0  0  0  0
 31 30  1  0  0  0  0
 32 31  2  0  0  0  0
 32 33  1  0  0  0  0
 33 28  2  0  0  0  0
 34 31  1  0  0  0  0
 37  6  1  0  0  0  0
 40 11  1  0  0  0  0
 48 26  1  0  0  0  0
 51 32  1  0  0  0  0
 52 33  1  0  0  0  0
M  END
>  <Pose>
1

>  <Score>
-7.48

$$$$
