
 OpenBabel03202210193D

 33 36  0  0  1  0  0  0  0  0999 V2000
   22.8960   63.3170  -10.3340 P   0  0  2  0  0  0  0  0  0  0  0  0
   24.0340   63.3840  -11.3540 O   0  0  0  0  0  0  0  0  0  0  0  0
   21.6480   62.4330  -11.0270 O   0  0  0  0  0  0  0  0  0  0  0  0
   20.4340   63.0480  -10.8660 C   0  0  2  0  0  0  0  0  0  0  0  0
   20.4800   63.7600   -9.5070 C   0  0  2  0  0  0  0  0  0  0  0  0
   19.1930   63.8130   -9.0600 O   0  0  0  0  0  0  0  0  0  0  0  0
   18.4620   62.8020   -9.6180 C   0  0  2  0  0  0  0  0  0  0  0  0
   19.2860   62.1000  -10.6410 C   0  0  2  0  0  0  0  0  0  0  0  0
   19.7540   60.8670  -10.2300 O   0  0  0  0  0  0  0  0  0  0  0  0
   17.2490   63.3860  -10.1770 N   0  0  0  0  0  0  0  0  0  0  0  0
   16.1530   62.7020  -10.5810 C   0  0  0  0  0  0  0  0  0  0  0  0
   15.8880   61.3850  -10.5820 N   0  0  0  0  0  0  0  0  0  0  0  0
   14.7040   60.9520  -11.0440 C   0  0  0  0  0  0  0  0  0  0  0  0
   13.7980   61.8370  -11.4990 N   0  0  0  0  0  0  0  0  0  0  0  0
   13.9940   63.1640  -11.5270 C   0  0  0  0  0  0  0  0  0  0  0  0
   15.2230   63.6080  -11.0470 C   0  0  0  0  0  0  0  0  0  0  0  0
   15.7440   64.8260  -10.9290 N   0  0  0  0  0  0  0  0  0  0  0  0
   16.9730   64.6810  -10.4010 C   0  0  0  0  0  0  0  0  0  0  0  0
   18.2250   66.0890   -9.9910 B   0  0  0  0  0  0  0  0  0  0  0  0
   13.0460   64.1080  -12.0040 N   0  0  0  0  0  0  0  0  0  0  0  0
   21.1280   65.0840   -9.7540 C   0  0  0  0  0  0  0  0  0  0  0  0
   22.4740   64.8860   -9.9530 O   0  0  0  0  0  0  0  0  0  0  0  0
   23.5320   62.4790   -8.9850 O   0  0  0  0  0  0  0  0  0  0  0  0
   20.1690   63.7560  -11.6570 H   0  0  0  0  0  0  0  0  0  0  0  0
   21.0880   63.1760   -8.7810 H   0  0  0  0  0  0  0  0  0  0  0  0
   18.1980   62.0410   -8.8290 H   0  0  0  0  0  0  0  0  0  0  0  0
   18.7010   61.9470  -11.5720 H   0  0  0  0  0  0  0  0  0  0  0  0
   20.5980   60.9050   -9.7520 H   0  0  0  0  0  0  0  0  0  0  0  0
   14.4640   59.8730  -11.0560 H   0  0  0  0  0  0  0  0  0  0  0  0
   12.3520   63.7840  -12.7420 H   0  0  0  0  0  0  0  0  0  0  0  0
   12.9820   65.0790  -11.6860 H   0  0  0  0  0  0  0  0  0  0  0  0
   20.7150   65.4810  -10.7270 H   0  0  0  0  0  0  0  0  0  0  0  0
   20.8870   65.8500   -9.0020 H   0  0  0  0  0  0  0  0  0  0  0  0
  1  2  2  6  0  0  0
  1 22  1  0  0  0  0
  1 23  1  0  0  0  0
  3  4  1  0  0  0  0
  3  1  1  0  0  0  0
  4 24  1  6  0  0  0
  4  8  1  0  0  0  0
  4  5  1  0  0  0  0
  5  6  1  0  0  0  0
  5 25  1  1  0  0  0
  7  6  1  0  0  0  0
  7 26  1  1  0  0  0
  8 27  1  6  0  0  0
  8  9  1  0  0  0  0
  8  7  1  0  0  0  0
  9 28  1  0  0  0  0
 10  7  1  0  0  0  0
 11 10  1  0  0  0  0
 12 11  1  0  0  0  0
 13 12  2  0  0  0  0
 14 13  1  0  0  0  0
 15 14  2  0  0  0  0
 15 16  1  0  0  0  0
 16 17  1  0  0  0  0
 16 11  2  0  0  0  0
 17 18  2  0  0  0  0
 18 10  1  0  0  0  0
 18 19  1  0  0  0  0
 20 31  1  0  0  0  0
 20 15  1  0  0  0  0
 21  5  1  0  0  0  0
 21 33  1  0  0  0  0
 22 21  1  0  0  0  0
 29 13  1  0  0  0  0
 30 20  1  0  0  0  0
 32 21  1  0  0  0  0
M  END
>  <Pose>
1

>  <Score>
-6.39

$$$$
