
 OpenBabel03202210193D

 47 50  0  0  1  0  0  0  0  0999 V2000
   16.9100   63.8020  -10.7530 S   0  0  0  0  0  0  0  0  0  0  0  0
   16.6010   64.8480   -9.7010 O   0  0  0  0  0  0  0  0  0  0  0  0
   16.2590   62.5050  -10.3380 O   0  0  0  0  0  0  0  0  0  0  0  0
   16.2700   64.3750  -12.2370 N   0  0  0  0  0  0  0  0  0  0  0  0
   18.6350   63.6170  -10.8690 C   0  0  0  0  0  0  0  0  0  0  0  0
   19.4590   64.4770  -10.1820 C   0  0  0  0  0  0  0  0  0  0  0  0
   20.8450   64.3720  -10.2410 C   0  0  0  0  0  0  0  0  0  0  0  0
   21.3780   63.3670  -11.0180 C   0  0  0  0  0  0  0  0  0  0  0  0
   20.5480   62.4910  -11.7180 C   0  0  0  0  0  0  0  0  0  0  0  0
   19.1780   62.6100  -11.6470 C   0  0  0  0  0  0  0  0  0  0  0  0
   23.2560   63.1580  -11.1490 B   0  0  0  0  0  0  0  0  0  0  0  0
   21.7010   65.2870   -9.5120 C   0  0  0  0  0  0  0  0  0  0  0  0
   22.5090   66.0080  -10.1480 O   0  0  0  0  0  0  0  0  0  0  0  0
   21.6330   65.3760   -8.0900 N   0  0  0  0  0  0  0  0  0  0  0  0
   22.1450   64.3070   -7.2600 C   0  0  0  0  0  0  0  0  0  0  0  0
   22.8700   64.8000   -6.0460 C   0  0  2  0  0  0  0  0  0  0  0  0
   23.1780   66.2800   -6.2840 C   0  0  0  0  0  0  0  0  0  0  0  0
   21.8380   66.9830   -6.2510 C   0  0  0  0  0  0  0  0  0  0  0  0
   21.0510   66.5280   -7.4530 C   0  0  0  0  0  0  0  0  0  0  0  0
   24.1250   64.0350   -5.7590 C   0  0  0  0  0  0  0  0  0  0  0  0
   24.3790   63.2830   -4.6560 N   0  0  0  0  0  0  0  0  0  0  0  0
   25.5980   62.7430   -4.7340 C   0  0  0  0  0  0  0  0  0  0  0  0
   26.1020   63.1830   -5.9260 N   0  0  0  0  0  0  0  0  0  0  0  0
   25.2190   63.9530   -6.5320 N   0  0  0  0  0  0  0  0  0  0  0  0
   25.9250   61.9060   -3.5430 C   0  0  0  0  0  0  0  0  0  0  0  0
   24.5830   61.7500   -2.8980 C   0  0  0  0  0  0  0  0  0  0  0  0
   23.7300   62.8870   -3.4190 C   0  0  0  0  0  0  0  0  0  0  0  0
   16.7240   63.9120  -13.0610 H   0  0  0  0  0  0  0  0  0  0  0  0
   16.3820   65.4170  -12.3030 H   0  0  0  0  0  0  0  0  0  0  0  0
   18.9800   65.2620   -9.5760 H   0  0  0  0  0  0  0  0  0  0  0  0
   21.0190   61.7210  -12.3120 H   0  0  0  0  0  0  0  0  0  0  0  0
   18.5220   61.9440  -12.1790 H   0  0  0  0  0  0  0  0  0  0  0  0
   22.7220   63.5580   -7.8340 H   0  0  0  0  0  0  0  0  0  0  0  0
   21.2370   63.7510   -6.8870 H   0  0  0  0  0  0  0  0  0  0  0  0
   22.2540   64.7890   -5.1240 H   0  0  0  0  0  0  0  0  0  0  0  0
   23.8670   66.6550   -5.5100 H   0  0  0  0  0  0  0  0  0  0  0  0
   23.6270   66.4120   -7.2820 H   0  0  0  0  0  0  0  0  0  0  0  0
   21.3280   66.7020   -5.2930 H   0  0  0  0  0  0  0  0  0  0  0  0
   22.0190   68.0760   -6.2450 H   0  0  0  0  0  0  0  0  0  0  0  0
   21.0920   67.3790   -8.1910 H   0  0  0  0  0  0  0  0  0  0  0  0
   19.9820   66.3700   -7.1760 H   0  0  0  0  0  0  0  0  0  0  0  0
   26.2950   60.8950   -3.8440 H   0  0  0  0  0  0  0  0  0  0  0  0
   26.6580   62.4490   -2.9130 H   0  0  0  0  0  0  0  0  0  0  0  0
   24.0970   60.7640   -3.1340 H   0  0  0  0  0  0  0  0  0  0  0  0
   24.7080   61.8120   -1.7910 H   0  0  0  0  0  0  0  0  0  0  0  0
   23.7640   63.6900   -2.6540 H   0  0  0  0  0  0  0  0  0  0  0  0
   22.6910   62.5850   -3.5470 H   0  0  0  0  0  0  0  0  0  0  0  0
  1  3  2  0  0  0  0
  1  2  2  0  0  0  0
  4  1  1  0  0  0  0
  5  1  1  0  0  0  0
  5  6  1  0  0  0  0
  6 30  1  0  0  0  0
  7  6  2  0  0  0  0
  7 12  1  0  0  0  0
  8  7  1  0  0  0  0
  9 10  1  0  0  0  0
  9  8  2  0  0  0  0
 10  5  2  0  0  0  0
 11  8  1  0  0  0  0
 12 14  1  0  0  0  0
 13 12  2  0  0  0  0
 14 19  1  0  0  0  0
 14 15  1  0  0  0  0
 15 34  1  0  0  0  0
 15 16  1  0  0  0  0
 16 20  1  0  0  0  0
 16 35  1  1  0  0  0
 17 18  1  0  0  0  0
 17 16  1  0  0  0  0
 17 36  1  0  0  0  0
 18 39  1  0  0  0  0
 18 38  1  0  0  0  0
 19 41  1  0  0  0  0
 19 18  1  0  0  0  0
 20 21  1  0  0  0  0
 21 27  1  0  0  0  0
 22 21  1  0  0  0  0
 22 25  1  0  0  0  0
 23 22  2  0  0  0  0
 24 23  1  0  0  0  0
 24 20  2  0  0  0  0
 25 43  1  0  0  0  0
 25 26  1  0  0  0  0
 26 45  1  0  0  0  0
 27 26  1  0  0  0  0
 27 46  1  0  0  0  0
 28  4  1  0  0  0  0
 29  4  1  0  0  0  0
 31  9  1  0  0  0  0
 32 10  1  0  0  0  0
 33 15  1  0  0  0  0
 37 17  1  0  0  0  0
 40 19  1  0  0  0  0
 42 25  1  0  0  0  0
 44 26  1  0  0  0  0
 47 27  1  0  0  0  0
M  END
>  <Pose>
1

>  <Score>
-7.67

$$$$
