
 OpenBabel03202210193D

 54 57  0  0  0  0  0  0  0  0999 V2000
   21.0550   63.6030  -10.1000 S   0  0  0  0  0  0  0  0  0  0  0  0
   21.6970   63.5970  -11.4830 O   0  0  0  0  0  0  0  0  0  0  0  0
   20.7790   65.0340   -9.7820 O   0  0  0  0  0  0  0  0  0  0  0  0
   22.2240   62.9140   -9.0400 N   0  0  0  0  0  0  0  0  0  0  0  0
   22.0440   63.3270   -7.6630 C   0  0  0  0  0  0  0  0  0  0  0  0
   23.4340   63.6300   -7.1240 C   0  0  0  0  0  0  0  0  0  0  0  0
   23.3820   63.9610   -5.6560 C   0  0  0  0  0  0  0  0  0  0  0  0
   24.2460   63.0850   -4.9580 N   0  0  0  0  0  0  0  0  0  0  0  0
   25.6370   63.2470   -5.1900 C   0  0  0  0  0  0  0  0  0  0  0  0
   26.3420   61.9600   -4.7960 C   0  0  0  0  0  0  0  0  0  0  0  0
   25.8420   61.4490   -3.6150 O   0  0  0  0  0  0  0  0  0  0  0  0
   25.1380   62.3800   -2.8610 C   0  0  0  0  0  0  0  0  0  0  0  0
   23.8660   62.7160   -3.6440 C   0  0  0  0  0  0  0  0  0  0  0  0
   19.6000   62.6440  -10.1190 C   0  0  0  0  0  0  0  0  0  0  0  0
   18.3880   63.2370  -10.4850 C   0  0  0  0  0  0  0  0  0  0  0  0
   17.2250   62.4990  -10.5020 C   0  0  0  0  0  0  0  0  0  0  0  0
   17.1930   61.1580  -10.1660 C   0  0  0  0  0  0  0  0  0  0  0  0
   18.3720   60.5690   -9.8060 C   0  0  0  0  0  0  0  0  0  0  0  0
   19.5570   61.3120   -9.7860 C   0  0  0  0  0  0  0  0  0  0  0  0
   21.2100   60.4750   -9.2900 B   0  0  0  0  0  0  0  0  0  0  0  0
   15.7980   60.6510  -10.2970 C   0  0  0  0  0  0  0  0  0  0  0  0
   15.1660   61.7130  -11.2220 C   0  0  0  0  0  0  0  0  0  0  0  0
   15.8880   62.9150  -10.8380 N   0  0  0  0  0  0  0  0  0  0  0  0
   15.4410   64.2550  -10.7710 C   0  0  0  0  0  0  0  0  0  0  0  0
   16.0630   65.1500  -10.1530 O   0  0  0  0  0  0  0  0  0  0  0  0
   14.1820   64.6200  -11.4630 C   0  0  0  0  0  0  0  0  0  0  0  0
   13.6180   63.5650  -12.3240 C   0  0  0  0  0  0  0  0  0  0  0  0
   14.1680   64.8320  -12.9320 C   0  0  0  0  0  0  0  0  0  0  0  0
   22.1680   61.8800   -9.1290 H   0  0  0  0  0  0  0  0  0  0  0  0
   21.5060   62.5940   -7.0490 H   0  0  0  0  0  0  0  0  0  0  0  0
   21.5160   64.3230   -7.7090 H   0  0  0  0  0  0  0  0  0  0  0  0
   24.1300   62.7750   -7.2870 H   0  0  0  0  0  0  0  0  0  0  0  0
   23.7700   64.5530   -7.6580 H   0  0  0  0  0  0  0  0  0  0  0  0
   22.3440   63.8150   -5.2490 H   0  0  0  0  0  0  0  0  0  0  0  0
   23.6430   65.0140   -5.4870 H   0  0  0  0  0  0  0  0  0  0  0  0
   26.0220   64.0490   -4.5320 H   0  0  0  0  0  0  0  0  0  0  0  0
   25.7950   63.4760   -6.2570 H   0  0  0  0  0  0  0  0  0  0  0  0
   26.1970   61.2010   -5.5960 H   0  0  0  0  0  0  0  0  0  0  0  0
   27.4370   62.1440   -4.7530 H   0  0  0  0  0  0  0  0  0  0  0  0
   24.9030   61.9170   -1.8840 H   0  0  0  0  0  0  0  0  0  0  0  0
   25.7230   63.3040   -2.6600 H   0  0  0  0  0  0  0  0  0  0  0  0
   23.1810   61.8670   -3.5760 H   0  0  0  0  0  0  0  0  0  0  0  0
   23.4030   63.5630   -3.0840 H   0  0  0  0  0  0  0  0  0  0  0  0
   18.3970   64.2980  -10.7550 H   0  0  0  0  0  0  0  0  0  0  0  0
   18.4350   59.5220   -9.5260 H   0  0  0  0  0  0  0  0  0  0  0  0
   15.2580   60.6070   -9.3490 H   0  0  0  0  0  0  0  0  0  0  0  0
   15.7340   59.6820  -10.8060 H   0  0  0  0  0  0  0  0  0  0  0  0
   15.4480   61.5020  -12.2740 H   0  0  0  0  0  0  0  0  0  0  0  0
   14.0900   61.7650  -11.0720 H   0  0  0  0  0  0  0  0  0  0  0  0
   13.4650   65.2470  -10.8690 H   0  0  0  0  0  0  0  0  0  0  0  0
   14.2340   62.6710  -12.6130 H   0  0  0  0  0  0  0  0  0  0  0  0
   12.5480   63.3600  -12.3550 H   0  0  0  0  0  0  0  0  0  0  0  0
   15.0940   64.8270  -13.5260 H   0  0  0  0  0  0  0  0  0  0  0  0
   13.3780   65.4980  -13.3310 H   0  0  0  0  0  0  0  0  0  0  0  0
  1  3  2  0  0  0  0
  1  4  1  0  0  0  0
  2  1  2  0  0  0  0
  4  5  1  0  0  0  0
  5  6  1  0  0  0  0
  5 30  1  0  0  0  0
  6  7  1  0  0  0  0
  7 35  1  0  0  0  0
  7 34  1  0  0  0  0
  7  8  1  0  0  0  0
  8 13  1  0  0  0  0
  9  8  1  0  0  0  0
  9 10  1  0  0  0  0
  9 36  1  0  0  0  0
 10 39  1  0  0  0  0
 10 11  1  0  0  0  0
 11 12  1  0  0  0  0
 12 41  1  0  0  0  0
 12 40  1  0  0  0  0
 13 42  1  0  0  0  0
 13 43  1  0  0  0  0
 13 12  1  0  0  0  0
 14  1  1  0  0  0  0
 14 19  1  0  0  0  0
 15 14  2  0  0  0  0
 16 15  1  0  0  0  0
 16 17  2  0  0  0  0
 17 18  1  0  0  0  0
 18 19  2  0  0  0  0
 18 45  1  0  0  0  0
 19 20  1  0  0  0  0
 21 17  1  0  0  0  0
 21 46  1  0  0  0  0
 22 49  1  0  0  0  0
 22 23  1  0  0  0  0
 22 21  1  0  0  0  0
 23 24  1  0  0  0  0
 23 16  1  0  0  0  0
 24 25  2  0  0  0  0
 26 50  1  0  0  0  0
 26 24  1  0  0  0  0
 27 26  1  0  0  0  0
 28 27  1  0  0  0  0
 28 26  1  0  0  0  0
 29  4  1  0  0  0  0
 31  5  1  0  0  0  0
 32  6  1  0  0  0  0
 33  6  1  0  0  0  0
 37  9  1  0  0  0  0
 38 10  1  0  0  0  0
 44 15  1  0  0  0  0
 47 21  1  0  0  0  0
 48 22  1  0  0  0  0
 51 27  1  0  0  0  0
 52 27  1  0  0  0  0
 53 28  1  0  0  0  0
 54 28  1  0  0  0  0
M  END
>  <Pose>
1

>  <Score>
-7.31

$$$$
