
 OpenBabel03202210193D

 50 53  0  0  0  0  0  0  0  0999 V2000
   22.8230   64.0740   -9.9560 S   0  0  0  0  0  0  0  0  0  0  0  0
   23.5880   65.3160  -10.3200 O   0  0  0  0  0  0  0  0  0  0  0  0
   23.5930   62.9120  -10.5610 O   0  0  0  0  0  0  0  0  0  0  0  0
   21.2670   64.1620  -10.6190 N   0  0  0  0  0  0  0  0  0  0  0  0
   20.9650   63.2240  -11.6470 C   0  0  0  0  0  0  0  0  0  0  0  0
   20.0960   62.0970  -11.3340 C   0  0  0  0  0  0  0  0  0  0  0  0
   19.3240   62.1420  -10.1070 N   0  0  0  0  0  0  0  0  0  0  0  0
   19.6080   63.1180   -9.1000 C   0  0  0  0  0  0  0  0  0  0  0  0
   20.2190   64.3840   -9.6890 C   0  0  0  0  0  0  0  0  0  0  0  0
   18.2850   61.2230   -9.9550 C   0  0  0  0  0  0  0  0  0  0  0  0
   18.7700   59.9640   -9.8970 O   0  0  0  0  0  0  0  0  0  0  0  0
   16.8590   61.3320   -9.8500 C   0  0  0  0  0  0  0  0  0  0  0  0
   16.1370   62.4770  -10.4010 C   0  0  0  0  0  0  0  0  0  0  0  0
   14.9060   62.3310  -10.9910 C   0  0  0  0  0  0  0  0  0  0  0  0
   14.2250   63.4330  -11.5070 C   0  0  0  0  0  0  0  0  0  0  0  0
   14.7900   64.6710  -11.4220 C   0  0  0  0  0  0  0  0  0  0  0  0
   16.0400   64.8270  -10.8210 C   0  0  0  0  0  0  0  0  0  0  0  0
   16.7010   63.7510  -10.3200 C   0  0  0  0  0  0  0  0  0  0  0  0
   14.0950   60.5990  -11.1270 B   0  0  0  0  0  0  0  0  0  0  0  0
   22.8590   63.9750   -8.2080 C   0  0  0  0  0  0  0  0  0  0  0  0
   23.9620   63.4160   -7.5630 C   0  0  0  0  0  0  0  0  0  0  0  0
   24.0430   63.2990   -6.1930 C   0  0  0  0  0  0  0  0  0  0  0  0
   23.0170   63.7370   -5.3860 C   0  0  0  0  0  0  0  0  0  0  0  0
   21.9240   64.2900   -6.0160 C   0  0  0  0  0  0  0  0  0  0  0  0
   21.8350   64.4120   -7.3980 C   0  0  0  0  0  0  0  0  0  0  0  0
   23.0900   63.6180   -3.9840 O   0  0  0  0  0  0  0  0  0  0  0  0
   24.3780   63.5670   -3.3440 C   0  0  0  0  0  0  0  0  0  0  0  0
   25.1870   62.6060   -4.1370 C   0  0  0  0  0  0  0  0  0  0  0  0
   25.8730   61.7050   -3.6030 O   0  0  0  0  0  0  0  0  0  0  0  0
   25.1850   62.7070   -5.5500 N   0  0  0  0  0  0  0  0  0  0  0  0
   21.9570   62.8160  -12.0070 H   0  0  0  0  0  0  0  0  0  0  0  0
   20.5880   63.8230  -12.5290 H   0  0  0  0  0  0  0  0  0  0  0  0
   19.3530   61.9410  -12.1720 H   0  0  0  0  0  0  0  0  0  0  0  0
   20.6600   61.1100  -11.2980 H   0  0  0  0  0  0  0  0  0  0  0  0
   20.2770   62.6640   -8.3580 H   0  0  0  0  0  0  0  0  0  0  0  0
   18.7250   63.4750   -8.5350 H   0  0  0  0  0  0  0  0  0  0  0  0
   20.5720   64.9950   -8.8500 H   0  0  0  0  0  0  0  0  0  0  0  0
   19.3840   64.8830  -10.2530 H   0  0  0  0  0  0  0  0  0  0  0  0
   16.3850   60.3760  -10.2970 H   0  0  0  0  0  0  0  0  0  0  0  0
   16.5740   61.2430   -8.7560 H   0  0  0  0  0  0  0  0  0  0  0  0
   13.2620   63.2480  -11.9600 H   0  0  0  0  0  0  0  0  0  0  0  0
   14.2620   65.5130  -11.8180 H   0  0  0  0  0  0  0  0  0  0  0  0
   16.4510   65.8450  -10.7770 H   0  0  0  0  0  0  0  0  0  0  0  0
   17.6770   63.8320   -9.8460 H   0  0  0  0  0  0  0  0  0  0  0  0
   24.7770   63.0660   -8.1890 H   0  0  0  0  0  0  0  0  0  0  0  0
   21.1020   64.6430   -5.3760 H   0  0  0  0  0  0  0  0  0  0  0  0
   20.9560   64.8570   -7.8630 H   0  0  0  0  0  0  0  0  0  0  0  0
   24.8970   64.5660   -3.4750 H   0  0  0  0  0  0  0  0  0  0  0  0
   24.2040   63.2900   -2.3150 H   0  0  0  0  0  0  0  0  0  0  0  0
   25.9480   62.3830   -6.1620 H   0  0  0  0  0  0  0  0  0  0  0  0
  1 20  1  0  0  0  0
  2  1  2  0  0  0  0
  3  1  2  0  0  0  0
  4  1  1  0  0  0  0
  4  9  1  0  0  0  0
  5  6  1  0  0  0  0
  5  4  1  0  0  0  0
  6 34  1  0  0  0  0
  6  7  1  0  0  0  0
  7 10  1  0  0  0  0
  7  8  1  0  0  0  0
  8 36  1  0  0  0  0
  8 35  1  0  0  0  0
  9  8  1  0  0  0  0
  9 37  1  0  0  0  0
 10 11  2  0  0  0  0
 10 12  1  0  0  0  0
 12 40  1  0  0  0  0
 13 18  1  0  0  0  0
 13 12  1  0  0  0  0
 14 13  2  0  0  0  0
 15 16  2  0  0  0  0
 15 14  1  0  0  0  0
 16 17  1  0  0  0  0
 17 43  1  0  0  0  0
 17 18  2  0  0  0  0
 18 44  1  0  0  0  0
 19 14  1  0  0  0  0
 20 21  2  0  0  0  0
 20 25  1  0  0  0  0
 21 22  1  0  0  0  0
 22 30  1  0  0  0  0
 22 23  2  0  0  0  0
 23 26  1  0  0  0  0
 24 23  1  0  0  0  0
 24 46  1  0  0  0  0
 25 24  2  0  0  0  0
 26 27  1  0  0  0  0
 27 49  1  0  0  0  0
 28 29  2  0  0  0  0
 28 27  1  0  0  0  0
 30 28  1  0  0  0  0
 31  5  1  0  0  0  0
 32  5  1  0  0  0  0
 33  6  1  0  0  0  0
 38  9  1  0  0  0  0
 39 12  1  0  0  0  0
 41 15  1  0  0  0  0
 42 16  1  0  0  0  0
 45 21  1  0  0  0  0
 47 25  1  0  0  0  0
 48 27  1  0  0  0  0
 50 30  1  0  0  0  0
M  END
>  <Pose>
1

>  <Score>
-7.45

$$$$
