
 OpenBabel03202210193D

 53 56  0  0  0  0  0  0  0  0999 V2000
   18.8780   62.4490  -10.5430 S   0  0  0  0  0  0  0  0  0  0  0  0
   19.1800   62.1000  -12.0070 O   0  0  0  0  0  0  0  0  0  0  0  0
   18.8150   61.0740   -9.8700 O   0  0  0  0  0  0  0  0  0  0  0  0
   20.1280   63.3680   -9.9620 N   0  0  0  0  0  0  0  0  0  0  0  0
   20.0980   64.7510   -9.8750 C   0  0  0  0  0  0  0  0  0  0  0  0
   21.5400   65.2470   -9.5820 C   0  0  0  0  0  0  0  0  0  0  0  0
   22.0720   64.5400   -8.4500 N   0  0  0  0  0  0  0  0  0  0  0  0
   22.1450   63.1010   -8.5570 C   0  0  0  0  0  0  0  0  0  0  0  0
   21.3990   62.7140   -9.8150 C   0  0  0  0  0  0  0  0  0  0  0  0
   22.5150   65.1720   -7.2720 C   0  0  0  0  0  0  0  0  0  0  0  0
   23.1850   66.2250   -7.3590 O   0  0  0  0  0  0  0  0  0  0  0  0
   22.2040   64.6160   -5.9540 C   0  0  0  0  0  0  0  0  0  0  0  0
   23.4150   64.5010   -5.1460 N   0  0  0  0  0  0  0  0  0  0  0  0
   24.0320   65.4520   -4.3030 C   0  0  0  0  0  0  0  0  0  0  0  0
   23.6040   66.6350   -4.0980 O   0  0  0  0  0  0  0  0  0  0  0  0
   25.1890   64.8420   -3.7450 N   0  0  0  0  0  0  0  0  0  0  0  0
   25.0120   63.4180   -3.8620 C   0  0  0  0  0  0  0  0  0  0  0  0
   24.3530   62.7930   -2.6760 C   0  0  0  0  0  0  0  0  0  0  0  0
   24.6610   61.3070   -2.8990 C   0  0  0  0  0  0  0  0  0  0  0  0
   26.0520   61.3090   -3.4700 C   0  0  0  0  0  0  0  0  0  0  0  0
   26.3290   62.6860   -3.9750 C   0  0  0  0  0  0  0  0  0  0  0  0
   24.2080   63.2980   -5.1020 C   0  0  0  0  0  0  0  0  0  0  0  0
   24.2240   62.3530   -5.9220 O   0  0  0  0  0  0  0  0  0  0  0  0
   17.2850   63.1400  -10.5540 C   0  0  0  0  0  0  0  0  0  0  0  0
   16.1030   62.4550  -10.6460 C   0  0  0  0  0  0  0  0  0  0  0  0
   14.8690   63.1130  -10.7000 C   0  0  0  0  0  0  0  0  0  0  0  0
   14.7800   64.4680  -10.6620 C   0  0  0  0  0  0  0  0  0  0  0  0
   15.9440   65.1830  -10.5680 C   0  0  0  0  0  0  0  0  0  0  0  0
   17.1580   64.5410  -10.5160 C   0  0  0  0  0  0  0  0  0  0  0  0
   16.1290   60.5580  -10.6330 B   0  0  0  0  0  0  0  0  0  0  0  0
   19.4130   65.1950   -9.1250 H   0  0  0  0  0  0  0  0  0  0  0  0
   19.8760   65.2160  -10.8550 H   0  0  0  0  0  0  0  0  0  0  0  0
   22.1250   65.0530  -10.4880 H   0  0  0  0  0  0  0  0  0  0  0  0
   21.4480   66.3270   -9.4480 H   0  0  0  0  0  0  0  0  0  0  0  0
   23.2160   62.8150   -8.7440 H   0  0  0  0  0  0  0  0  0  0  0  0
   21.7990   62.5590   -7.6790 H   0  0  0  0  0  0  0  0  0  0  0  0
   21.2560   61.6230   -9.9030 H   0  0  0  0  0  0  0  0  0  0  0  0
   22.0350   63.0230  -10.6710 H   0  0  0  0  0  0  0  0  0  0  0  0
   21.6530   63.6460   -6.0200 H   0  0  0  0  0  0  0  0  0  0  0  0
   21.5150   65.2820   -5.3580 H   0  0  0  0  0  0  0  0  0  0  0  0
   25.9810   65.4030   -3.3440 H   0  0  0  0  0  0  0  0  0  0  0  0
   24.8900   63.1080   -1.7680 H   0  0  0  0  0  0  0  0  0  0  0  0
   23.2590   62.9610   -2.6370 H   0  0  0  0  0  0  0  0  0  0  0  0
   23.9640   60.9080   -3.6670 H   0  0  0  0  0  0  0  0  0  0  0  0
   24.5830   60.7510   -1.9520 H   0  0  0  0  0  0  0  0  0  0  0  0
   26.1550   60.6010   -4.3090 H   0  0  0  0  0  0  0  0  0  0  0  0
   26.7540   61.1040   -2.6420 H   0  0  0  0  0  0  0  0  0  0  0  0
   27.0980   63.2260   -3.4030 H   0  0  0  0  0  0  0  0  0  0  0  0
   26.6660   62.6820   -5.0490 H   0  0  0  0  0  0  0  0  0  0  0  0
   13.9940   62.5040  -10.7720 H   0  0  0  0  0  0  0  0  0  0  0  0
   13.8020   64.9120  -10.7070 H   0  0  0  0  0  0  0  0  0  0  0  0
   15.8710   66.2610  -10.5360 H   0  0  0  0  0  0  0  0  0  0  0  0
   18.0760   65.1080  -10.4410 H   0  0  0  0  0  0  0  0  0  0  0  0
  1  4  1  0  0  0  0
  1  3  2  0  0  0  0
  2  1  2  0  0  0  0
  4  5  1  0  0  0  0
  4  9  1  0  0  0  0
  5  6  1  0  0  0  0
  5 31  1  0  0  0  0
  6 34  1  0  0  0  0
  6  7  1  0  0  0  0
  7 10  1  0  0  0  0
  8  7  1  0  0  0  0
  8 36  1  0  0  0  0
  9  8  1  0  0  0  0
 10 12  1  0  0  0  0
 11 10  2  0  0  0  0
 12 40  1  0  0  0  0
 12 13  1  0  0  0  0
 13 22  1  0  0  0  0
 13 14  1  0  0  0  0
 14 15  2  0  0  0  0
 14 16  1  0  0  0  0
 16 41  1  0  0  0  0
 17 16  1  0  0  0  0
 17 18  1  0  0  0  0
 18 43  1  0  0  0  0
 18 42  1  0  0  0  0
 19 18  1  0  0  0  0
 19 45  1  0  0  0  0
 20 19  1  0  0  0  0
 20 47  1  0  0  0  0
 21 17  1  0  0  0  0
 21 20  1  0  0  0  0
 21 48  1  0  0  0  0
 22 17  1  0  0  0  0
 23 22  2  0  0  0  0
 24  1  1  0  0  0  0
 24 29  1  0  0  0  0
 25 30  1  0  0  0  0
 25 24  2  0  0  0  0
 26 27  2  0  0  0  0
 26 25  1  0  0  0  0
 27 28  1  0  0  0  0
 28 52  1  0  0  0  0
 28 29  2  0  0  0  0
 29 53  1  0  0  0  0
 32  5  1  0  0  0  0
 33  6  1  0  0  0  0
 35  8  1  0  0  0  0
 37  9  1  0  0  0  0
 38  9  1  0  0  0  0
 39 12  1  0  0  0  0
 44 19  1  0  0  0  0
 46 20  1  0  0  0  0
 49 21  1  0  0  0  0
 50 26  1  0  0  0  0
 51 27  1  0  0  0  0
M  END
>  <Pose>
1

>  <Score>
-7.29

$$$$
