
 OpenBabel03202210193D

 53 56  0  0  0  0  0  0  0  0999 V2000
   19.0340   61.9330  -10.5280 S   0  0  0  0  0  0  0  0  0  0  0  0
   18.7160   60.4830  -10.2120 O   0  0  0  0  0  0  0  0  0  0  0  0
   19.6970   61.9210  -11.8830 O   0  0  0  0  0  0  0  0  0  0  0  0
   20.1560   62.4660   -9.3570 N   0  0  0  0  0  0  0  0  0  0  0  0
   20.9200   63.6190   -9.7830 C   0  0  0  0  0  0  0  0  0  0  0  0
   21.0720   64.6170   -8.6620 C   0  0  0  0  0  0  0  0  0  0  0  0
   21.5930   63.8750   -7.4960 N   0  0  0  0  0  0  0  0  0  0  0  0
   20.8070   62.7560   -7.0800 C   0  0  0  0  0  0  0  0  0  0  0  0
   19.6120   62.6500   -8.0570 C   0  0  0  0  0  0  0  0  0  0  0  0
   22.7850   64.2730   -6.8720 C   0  0  0  0  0  0  0  0  0  0  0  0
   23.8140   64.3950   -7.6860 O   0  0  0  0  0  0  0  0  0  0  0  0
   23.1170   64.5790   -5.5040 C   0  0  0  0  0  0  0  0  0  0  0  0
   23.5820   63.5540   -4.6230 N   0  0  0  0  0  0  0  0  0  0  0  0
   22.8570   62.9310   -3.5320 C   0  0  0  0  0  0  0  0  0  0  0  0
   21.6670   63.2360   -3.2430 O   0  0  0  0  0  0  0  0  0  0  0  0
   23.7200   61.9840   -2.9240 N   0  0  0  0  0  0  0  0  0  0  0  0
   25.0500   62.3100   -3.3120 C   0  0  0  0  0  0  0  0  0  0  0  0
   25.7660   63.1920   -2.3180 C   0  0  0  0  0  0  0  0  0  0  0  0
   27.1990   63.0940   -2.8060 C   0  0  0  0  0  0  0  0  0  0  0  0
   27.3220   61.7440   -3.4700 C   0  0  0  0  0  0  0  0  0  0  0  0
   25.9620   61.0970   -3.3610 C   0  0  0  0  0  0  0  0  0  0  0  0
   24.8860   62.9360   -4.6230 C   0  0  0  0  0  0  0  0  0  0  0  0
   25.6950   62.9570   -5.5850 O   0  0  0  0  0  0  0  0  0  0  0  0
   17.5780   62.8990  -10.5750 C   0  0  0  0  0  0  0  0  0  0  0  0
   16.3210   62.3310  -10.6190 C   0  0  0  0  0  0  0  0  0  0  0  0
   15.1690   63.1080  -10.6570 C   0  0  0  0  0  0  0  0  0  0  0  0
   15.2460   64.4770  -10.6510 C   0  0  0  0  0  0  0  0  0  0  0  0
   16.4960   65.0570  -10.6080 C   0  0  0  0  0  0  0  0  0  0  0  0
   17.6420   64.2760  -10.5700 C   0  0  0  0  0  0  0  0  0  0  0  0
   13.6540   65.5600  -10.7030 B   0  0  0  0  0  0  0  0  0  0  0  0
   21.9590   63.2320   -9.9920 H   0  0  0  0  0  0  0  0  0  0  0  0
   20.4850   64.0860  -10.6860 H   0  0  0  0  0  0  0  0  0  0  0  0
   20.1160   65.0970   -8.4720 H   0  0  0  0  0  0  0  0  0  0  0  0
   21.8120   65.3820   -8.9830 H   0  0  0  0  0  0  0  0  0  0  0  0
   20.4220   62.8000   -6.0560 H   0  0  0  0  0  0  0  0  0  0  0  0
   21.4200   61.8190   -7.2350 H   0  0  0  0  0  0  0  0  0  0  0  0
   19.0040   63.5360   -7.8860 H   0  0  0  0  0  0  0  0  0  0  0  0
   18.9980   61.7630   -7.7780 H   0  0  0  0  0  0  0  0  0  0  0  0
   22.2060   65.0560   -4.9850 H   0  0  0  0  0  0  0  0  0  0  0  0
   23.8820   65.4270   -5.4380 H   0  0  0  0  0  0  0  0  0  0  0  0
   23.3610   61.2050   -2.3060 H   0  0  0  0  0  0  0  0  0  0  0  0
   25.7180   62.6910   -1.3330 H   0  0  0  0  0  0  0  0  0  0  0  0
   25.3900   64.2170   -2.3030 H   0  0  0  0  0  0  0  0  0  0  0  0
   27.9320   63.1670   -1.9800 H   0  0  0  0  0  0  0  0  0  0  0  0
   27.3330   63.9260   -3.5320 H   0  0  0  0  0  0  0  0  0  0  0  0
   28.1190   61.1270   -3.0100 H   0  0  0  0  0  0  0  0  0  0  0  0
   27.5150   61.9210   -4.5530 H   0  0  0  0  0  0  0  0  0  0  0  0
   25.8300   60.5850   -2.3700 H   0  0  0  0  0  0  0  0  0  0  0  0
   25.7310   60.4320   -4.2000 H   0  0  0  0  0  0  0  0  0  0  0  0
   16.2560   61.2570  -10.6230 H   0  0  0  0  0  0  0  0  0  0  0  0
   14.1770   62.6750  -10.6920 H   0  0  0  0  0  0  0  0  0  0  0  0
   16.5310   66.1450  -10.6030 H   0  0  0  0  0  0  0  0  0  0  0  0
   18.6180   64.7820  -10.5360 H   0  0  0  0  0  0  0  0  0  0  0  0
  1  2  2  0  0  0  0
  1  4  1  0  0  0  0
  3  1  2  0  0  0  0
  4  9  1  0  0  0  0
  5  4  1  0  0  0  0
  5  6  1  0  0  0  0
  6 33  1  0  0  0  0
  6  7  1  0  0  0  0
  7  8  1  0  0  0  0
  7 10  1  0  0  0  0
  8 35  1  0  0  0  0
  9 37  1  0  0  0  0
  9 38  1  0  0  0  0
  9  8  1  0  0  0  0
 10 12  1  0  0  0  0
 11 10  2  0  0  0  0
 12 40  1  0  0  0  0
 12 39  1  0  0  0  0
 12 13  1  0  0  0  0
 13 22  1  0  0  0  0
 13 14  1  0  0  0  0
 14 15  2  0  0  0  0
 14 16  1  0  0  0  0
 16 41  1  0  0  0  0
 17 16  1  0  0  0  0
 17 18  1  0  0  0  0
 18 43  1  0  0  0  0
 18 42  1  0  0  0  0
 19 18  1  0  0  0  0
 19 44  1  0  0  0  0
 20 21  1  0  0  0  0
 20 46  1  0  0  0  0
 20 19  1  0  0  0  0
 21 17  1  0  0  0  0
 21 48  1  0  0  0  0
 22 17  1  0  0  0  0
 23 22  2  0  0  0  0
 24 29  1  0  0  0  0
 24  1  1  0  0  0  0
 25 24  2  0  0  0  0
 26 27  2  0  0  0  0
 26 25  1  0  0  0  0
 27 28  1  0  0  0  0
 28 52  1  0  0  0  0
 28 29  2  0  0  0  0
 29 53  1  0  0  0  0
 30 27  1  0  0  0  0
 31  5  1  0  0  0  0
 32  5  1  0  0  0  0
 34  6  1  0  0  0  0
 36  8  1  0  0  0  0
 45 19  1  0  0  0  0
 47 20  1  0  0  0  0
 49 21  1  0  0  0  0
 50 25  1  0  0  0  0
 51 26  1  0  0  0  0
M  END
>  <Pose>
1

>  <Score>
-6.89

$$$$
