
 OpenBabel03202210193D

 54 58  0  0  1  0  0  0  0  0999 V2000
   18.9390   62.4760  -10.2990 S   0  0  0  0  0  0  0  0  0  0  0  0
   19.0040   60.9930  -10.6380 O   0  0  0  0  0  0  0  0  0  0  0  0
   18.9810   63.1630  -11.6650 O   0  0  0  0  0  0  0  0  0  0  0  0
   17.4340   62.7850   -9.6210 N   0  0  0  0  0  0  0  0  0  0  0  0
   16.7800   64.0020  -10.0230 C   0  0  0  0  0  0  0  0  0  0  0  0
   15.3260   63.7680  -10.3640 C   0  0  0  0  0  0  0  0  0  0  0  0
   15.2100   62.6980  -11.3860 N   0  0  0  0  0  0  0  0  0  0  0  0
   15.6990   61.4650  -10.7850 C   0  0  0  0  0  0  0  0  0  0  0  0
   16.5100   61.6970   -9.5220 C   0  0  0  0  0  0  0  0  0  0  0  0
   13.7850   62.5930  -11.6130 C   0  0  0  0  0  0  0  0  0  0  0  0
   13.0080   63.8380  -11.6950 C   0  0  0  0  0  0  0  0  0  0  0  0
   12.8410   64.4870  -12.9510 N   0  0  0  0  0  0  0  0  0  0  0  0
   11.6750   64.6970  -13.7400 C   0  0  0  0  0  0  0  0  0  0  0  0
   10.6550   63.9940  -13.7140 O   0  0  0  0  0  0  0  0  0  0  0  0
   11.8860   65.8910  -14.5940 C   0  0  1  0  0  0  0  0  0  0  0  0
   13.4190   65.8310  -14.7820 C   0  0  2  0  0  0  0  0  0  0  0  0
   13.6340   65.1970  -16.1040 C   0  0  1  0  0  0  0  0  0  0  0  0
   12.3300   64.4050  -16.3000 C   0  0  0  0  0  0  0  0  0  0  0  0
   11.4340   65.6160  -15.9840 C   0  0  2  0  0  0  0  0  0  0  0  0
   12.0990   66.6350  -16.8640 C   0  0  0  0  0  0  0  0  0  0  0  0
   13.3500   66.2650  -17.1390 C   0  0  0  0  0  0  0  0  0  0  0  0
   13.9490   65.1200  -13.6280 C   0  0  0  0  0  0  0  0  0  0  0  0
   15.1630   65.0840  -13.3060 O   0  0  0  0  0  0  0  0  0  0  0  0
   20.3230   62.9960   -9.4260 C   0  0  0  0  0  0  0  0  0  0  0  0
   21.5450   63.1050  -10.0430 C   0  0  0  0  0  0  0  0  0  0  0  0
   22.6360   63.5370   -9.3100 C   0  0  0  0  0  0  0  0  0  0  0  0
   22.5470   63.8650   -7.9690 C   0  0  0  0  0  0  0  0  0  0  0  0
   21.3180   63.7550   -7.3540 C   0  0  0  0  0  0  0  0  0  0  0  0
   20.2220   63.3210   -8.0920 C   0  0  0  0  0  0  0  0  0  0  0  0
   24.0500   64.4580   -6.9570 B   0  0  0  0  0  0  0  0  0  0  0  0
   16.7840   64.6860   -9.1430 H   0  0  0  0  0  0  0  0  0  0  0  0
   17.3210   64.4940  -10.8310 H   0  0  0  0  0  0  0  0  0  0  0  0
   14.9230   64.6820  -10.8340 H   0  0  0  0  0  0  0  0  0  0  0  0
   14.6980   63.5180   -9.4890 H   0  0  0  0  0  0  0  0  0  0  0  0
   16.4060   60.9940  -11.4880 H   0  0  0  0  0  0  0  0  0  0  0  0
   14.8250   60.8180  -10.5920 H   0  0  0  0  0  0  0  0  0  0  0  0
   17.0250   60.7970   -9.1920 H   0  0  0  0  0  0  0  0  0  0  0  0
   15.7810   61.9680   -8.7250 H   0  0  0  0  0  0  0  0  0  0  0  0
   13.3260   61.9900  -10.7650 H   0  0  0  0  0  0  0  0  0  0  0  0
   13.6080   61.9030  -12.4980 H   0  0  0  0  0  0  0  0  0  0  0  0
   11.9640   63.5840  -11.3140 H   0  0  0  0  0  0  0  0  0  0  0  0
   13.4100   64.5400  -10.9110 H   0  0  0  0  0  0  0  0  0  0  0  0
   11.5540   66.8230  -14.1470 H   0  0  0  0  0  0  0  0  0  0  0  0
   13.8150   66.8850  -14.8500 H   0  0  0  0  0  0  0  0  0  0  0  0
   14.5190   64.6290  -16.2660 H   0  0  0  0  0  0  0  0  0  0  0  0
   12.1940   64.0740  -17.3350 H   0  0  0  0  0  0  0  0  0  0  0  0
   12.1700   63.6440  -15.5430 H   0  0  0  0  0  0  0  0  0  0  0  0
   10.3980   65.4650  -16.1670 H   0  0  0  0  0  0  0  0  0  0  0  0
   11.6700   67.5540  -17.2470 H   0  0  0  0  0  0  0  0  0  0  0  0
   13.9980   66.6360  -17.9100 H   0  0  0  0  0  0  0  0  0  0  0  0
   21.6770   62.8580  -11.1090 H   0  0  0  0  0  0  0  0  0  0  0  0
   23.6050   63.6220   -9.8020 H   0  0  0  0  0  0  0  0  0  0  0  0
   21.2630   64.0130   -6.3080 H   0  0  0  0  0  0  0  0  0  0  0  0
   19.2990   63.2660   -7.5320 H   0  0  0  0  0  0  0  0  0  0  0  0
  1  4  1  0  0  0  0
  1 24  1  0  0  0  0
  2  1  2  0  0  0  0
  3  1  2  0  0  0  0
  4  9  1  0  0  0  0
  5  4  1  0  0  0  0
  5 31  1  0  0  0  0
  6  5  1  0  0  0  0
  6 34  1  0  0  0  0
  7  8  1  0  0  0  0
  7  6  1  0  0  0  0
  8 36  1  0  0  0  0
  8  9  1  0  0  0  0
  9 37  1  0  0  0  0
  9 38  1  0  0  0  0
 10  7  1  0  0  0  0
 10 39  1  0  0  0  0
 11 10  1  0  0  0  0
 11 41  1  0  0  0  0
 11 42  1  0  0  0  0
 12 11  1  0  0  0  0
 13 14  2  0  0  0  0
 13 12  1  0  0  0  0
 15 43  1  1  0  0  0
 15 13  1  0  0  0  0
 16 44  1  6  0  0  0
 16 15  1  0  0  0  0
 16 22  1  0  0  0  0
 17 45  1  6  0  0  0
 17 16  1  0  0  0  0
 18 17  1  0  0  0  0
 18 19  1  0  0  0  0
 18 47  1  0  0  0  0
 19 48  1  6  0  0  0
 19 15  1  0  0  0  0
 20 19  1  0  0  0  0
 21 20  1  0  0  0  0
 21 17  1  0  0  0  0
 22 23  2  0  0  0  0
 22 12  1  0  0  0  0
 24 29  1  0  0  0  0
 25 24  2  0  0  0  0
 25 26  1  0  0  0  0
 26 27  2  0  0  0  0
 27 28  1  0  0  0  0
 27 30  1  0  0  0  0
 28 53  1  0  0  0  0
 29 54  1  0  0  0  0
 29 28  2  0  0  0  0
 32  5  1  0  0  0  0
 33  6  1  0  0  0  0
 35  8  1  0  0  0  0
 40 10  1  0  0  0  0
 46 18  1  0  0  0  0
 49 20  1  0  0  0  0
 50 21  1  0  0  0  0
 51 25  1  0  0  0  0
 52 26  1  0  0  0  0
M  END
>  <Pose>
1

>  <Score>
-5.47

$$$$
