
 OpenBabel03202210193D

 44 45  0  0  0  0  0  0  0  0999 V2000
   22.3880   63.1830   -9.4650 S   0  0  0  0  0  0  0  0  0  0  0  0
   22.7830   61.8560   -8.9490 O   0  0  0  0  0  0  0  0  0  0  0  0
   23.0430   63.3240  -10.8340 O   0  0  0  0  0  0  0  0  0  0  0  0
   22.8880   64.5020   -8.5150 N   0  0  0  0  0  0  0  0  0  0  0  0
   23.9530   64.2770   -7.6140 C   0  0  0  0  0  0  0  0  0  0  0  0
   23.6240   64.2850   -6.1590 C   0  0  0  0  0  0  0  0  0  0  0  0
   22.2330   64.5210   -5.8610 N   0  0  0  0  0  0  0  0  0  0  0  0
   21.4770   65.4010   -6.6930 C   0  0  0  0  0  0  0  0  0  0  0  0
   21.8610   65.3940   -8.1320 C   0  0  0  0  0  0  0  0  0  0  0  0
   21.6810   63.8520   -4.7180 C   0  0  0  0  0  0  0  0  0  0  0  0
   22.3800   63.1820   -3.7850 N   0  0  0  0  0  0  0  0  0  0  0  0
   21.4660   62.7150   -2.9270 N   0  0  0  0  0  0  0  0  0  0  0  0
   20.2640   63.0810   -3.3150 N   0  0  0  0  0  0  0  0  0  0  0  0
   20.3550   63.7870   -4.4220 N   0  0  0  0  0  0  0  0  0  0  0  0
   23.7900   63.0220   -3.7260 C   0  0  0  0  0  0  0  0  0  0  0  0
   24.4880   63.2570   -2.5630 C   0  0  0  0  0  0  0  0  0  0  0  0
   25.8720   63.0890   -2.5370 C   0  0  0  0  0  0  0  0  0  0  0  0
   26.5670   62.6890   -3.6580 C   0  0  0  0  0  0  0  0  0  0  0  0
   25.8560   62.4500   -4.8410 C   0  0  0  0  0  0  0  0  0  0  0  0
   24.4710   62.6230   -4.8480 C   0  0  0  0  0  0  0  0  0  0  0  0
   20.6660   63.2540   -9.7180 C   0  0  0  0  0  0  0  0  0  0  0  0
   19.7550   63.1060   -8.7020 C   0  0  0  0  0  0  0  0  0  0  0  0
   18.3790   63.1680   -8.9180 C   0  0  0  0  0  0  0  0  0  0  0  0
   17.9260   63.3900  -10.2230 C   0  0  0  0  0  0  0  0  0  0  0  0
   18.8310   63.5400  -11.2500 C   0  0  0  0  0  0  0  0  0  0  0  0
   20.1720   63.4730  -10.9970 C   0  0  0  0  0  0  0  0  0  0  0  0
   16.0510   63.4900  -10.5910 B   0  0  0  0  0  0  0  0  0  0  0  0
   24.4680   63.3350   -7.9360 H   0  0  0  0  0  0  0  0  0  0  0  0
   24.7140   65.0930   -7.8110 H   0  0  0  0  0  0  0  0  0  0  0  0
   23.9730   63.2990   -5.7460 H   0  0  0  0  0  0  0  0  0  0  0  0
   24.2750   65.0290   -5.6370 H   0  0  0  0  0  0  0  0  0  0  0  0
   20.3780   65.1520   -6.6320 H   0  0  0  0  0  0  0  0  0  0  0  0
   21.5830   66.4300   -6.2400 H   0  0  0  0  0  0  0  0  0  0  0  0
   22.1920   66.4400   -8.4010 H   0  0  0  0  0  0  0  0  0  0  0  0
   20.9630   65.2330   -8.7960 H   0  0  0  0  0  0  0  0  0  0  0  0
   24.0010   63.5770   -1.6350 H   0  0  0  0  0  0  0  0  0  0  0  0
   26.4590   63.2670   -1.6290 H   0  0  0  0  0  0  0  0  0  0  0  0
   27.6340   62.5500   -3.6700 H   0  0  0  0  0  0  0  0  0  0  0  0
   26.4030   62.1380   -5.7120 H   0  0  0  0  0  0  0  0  0  0  0  0
   23.9850   62.4190   -5.8030 H   0  0  0  0  0  0  0  0  0  0  0  0
   20.0990   62.9300   -7.6730 H   0  0  0  0  0  0  0  0  0  0  0  0
   17.6500   63.0540   -8.1420 H   0  0  0  0  0  0  0  0  0  0  0  0
   18.4210   63.7110  -12.2510 H   0  0  0  0  0  0  0  0  0  0  0  0
   20.8670   63.5960  -11.8450 H   0  0  0  0  0  0  0  0  0  0  0  0
  1  2  2  0  0  0  0
  1  4  1  0  0  0  0
  3  1  2  0  0  0  0
  4  9  1  0  0  0  0
  4  5  1  0  0  0  0
  5  6  1  0  0  0  0
  6  7  1  0  0  0  0
  6 30  1  0  0  0  0
  6 31  1  0  0  0  0
  7 10  1  0  0  0  0
  8 32  1  0  0  0  0
  8 33  1  0  0  0  0
  8  7  1  0  0  0  0
  9  8  1  0  0  0  0
 10 14  2  0  0  0  0
 10 11  1  0  0  0  0
 11 15  1  0  0  0  0
 11 12  1  0  0  0  0
 13 12  2  0  0  0  0
 14 13  1  0  0  0  0
 15 16  2  0  0  0  0
 16 17  1  0  0  0  0
 16 36  1  0  0  0  0
 17 37  1  0  0  0  0
 18 17  2  0  0  0  0
 19 18  1  0  0  0  0
 21  1  1  0  0  0  0
 21 22  1  0  0  0  0
 22 41  1  0  0  0  0
 23 22  2  0  0  0  0
 23 42  1  0  0  0  0
 24 23  1  0  0  0  0
 25 26  1  0  0  0  0
 25 24  2  0  0  0  0
 26 21  2  0  0  0  0
 27 24  1  0  0  0  0
 28  5  1  0  0  0  0
 29  5  1  0  0  0  0
 34  9  1  0  0  0  0
 35  9  1  0  0  0  0
 38 18  1  0  0  0  0
 39 19  1  0  0  0  0
 40 20  1  0  0  0  0
 43 25  1  0  0  0  0
 44 26  1  0  0  0  0
M  END
>  <Pose>
1

>  <Score>
-6.54

$$$$
