
 OpenBabel03202210193D

 40 43  0  0  1  0  0  0  0  0999 V2000
   22.5350   63.7960   -9.6160 S   0  0  0  0  0  0  0  0  0  0  0  0
   23.0400   64.8830  -10.5280 O   0  0  0  0  0  0  0  0  0  0  0  0
   23.1980   62.5100  -10.0880 O   0  0  0  0  0  0  0  0  0  0  0  0
   20.8540   63.5790   -9.7160 N   0  0  0  0  0  0  0  0  0  0  0  0
   20.5320   62.6890  -10.7800 C   0  0  0  0  0  0  0  0  0  0  0  0
   19.2690   61.8940  -10.5230 C   0  0  0  0  0  0  0  0  0  0  0  0
   18.3690   62.7460   -9.7890 N   0  0  0  0  0  0  0  0  0  0  0  0
   18.7840   63.0980   -8.4550 C   0  0  0  0  0  0  0  0  0  0  0  0
   20.2550   63.3120   -8.4510 C   0  0  0  0  0  0  0  0  0  0  0  0
   17.1470   63.2250  -10.3150 C   0  0  1  0  0  0  0  0  0  0  0  0
   16.9400   64.5170  -10.5680 C   0  0  0  0  0  0  0  0  0  0  0  0
   15.7010   65.0470  -11.1090 C   0  0  0  0  0  0  0  0  0  0  0  0
   15.5510   66.3410  -11.3400 C   0  0  0  0  0  0  0  0  0  0  0  0
   14.6460   64.1510  -11.3880 N   0  0  0  0  0  0  0  0  0  0  0  0
   14.9050   62.7680  -11.1040 C   0  0  0  0  0  0  0  0  0  0  0  0
   16.0700   62.3280  -10.6030 N   0  0  0  0  0  0  0  0  0  0  0  0
   16.0060   61.0030  -10.4500 N   0  0  0  0  0  0  0  0  0  0  0  0
   14.7970   60.5700  -10.8500 C   0  0  0  0  0  0  0  0  0  0  0  0
   14.1290   61.6650  -11.2500 N   0  0  0  0  0  0  0  0  0  0  0  0
   23.0880   64.0540   -7.9620 C   0  0  0  0  0  0  0  0  0  0  0  0
   23.8980   62.9320   -6.9770 S   0  0  0  0  0  0  0  0  0  0  0  0
   24.0900   63.8790   -5.5760 C   0  0  0  0  0  0  0  0  0  0  0  0
   23.5050   65.0690   -5.9190 C   0  0  0  0  0  0  0  0  0  0  0  0
   22.9830   65.1570   -7.1660 C   0  0  0  0  0  0  0  0  0  0  0  0
   24.9210   63.4280   -3.8930 B   0  0  0  0  0  0  0  0  0  0  0  0
   21.3780   62.0580  -11.1200 H   0  0  0  0  0  0  0  0  0  0  0  0
   20.2910   63.3350  -11.6770 H   0  0  0  0  0  0  0  0  0  0  0  0
   18.8340   61.4800  -11.4400 H   0  0  0  0  0  0  0  0  0  0  0  0
   19.5420   61.0550   -9.8510 H   0  0  0  0  0  0  0  0  0  0  0  0
   18.2020   63.9390   -8.0300 H   0  0  0  0  0  0  0  0  0  0  0  0
   18.5320   62.2300   -7.7750 H   0  0  0  0  0  0  0  0  0  0  0  0
   20.4350   64.2350   -7.8220 H   0  0  0  0  0  0  0  0  0  0  0  0
   20.7460   62.5040   -7.8800 H   0  0  0  0  0  0  0  0  0  0  0  0
   17.7500   65.1950  -10.3520 H   0  0  0  0  0  0  0  0  0  0  0  0
   16.3660   67.0320  -11.1240 H   0  0  0  0  0  0  0  0  0  0  0  0
   14.6410   66.7590  -11.7410 H   0  0  0  0  0  0  0  0  0  0  0  0
   13.7320   64.4250  -11.7720 H   0  0  0  0  0  0  0  0  0  0  0  0
   14.4230   59.5420  -10.8530 H   0  0  0  0  0  0  0  0  0  0  0  0
   23.4870   65.9010   -5.1670 H   0  0  0  0  0  0  0  0  0  0  0  0
   22.4930   66.1080   -7.4970 H   0  0  0  0  0  0  0  0  0  0  0  0
  1 20  1  0  0  0  0
  2  1  2  0  0  0  0
  3  1  2  0  0  0  0
  4  1  1  0  0  0  0
  4  9  1  0  0  0  0
  5  6  1  0  0  0  0
  5  4  1  0  0  0  0
  6 29  1  0  0  0  0
  6  7  1  0  0  0  0
  7  8  1  0  0  0  0
  8  9  1  0  0  0  0
  8 30  1  0  0  0  0
  8 31  1  0  0  0  0
  9 33  1  0  0  0  0
  9 32  1  0  0  0  0
 10  7  1  6  0  0  0
 11 34  1  0  0  0  0
 11 10  1  0  0  0  0
 12 11  2  0  0  0  0
 13 35  1  0  0  0  0
 13 12  1  0  0  0  0
 14 12  1  0  0  0  0
 14 15  1  0  0  0  0
 15 16  1  0  0  0  0
 16 17  1  0  0  0  0
 16 10  1  0  0  0  0
 18 17  2  0  0  0  0
 19 15  2  0  0  0  0
 19 18  1  0  0  0  0
 20 24  2  0  0  0  0
 20 21  1  0  0  0  0
 21 22  1  0  0  0  0
 22 25  1  0  0  0  0
 23 22  2  0  0  0  0
 23 39  1  0  0  0  0
 24 23  1  0  0  0  0
 26  5  1  0  0  0  0
 27  5  1  0  0  0  0
 28  6  1  0  0  0  0
 36 13  1  0  0  0  0
 37 14  1  0  0  0  0
 38 18  1  0  0  0  0
 40 24  1  0  0  0  0
M  END
>  <Pose>
1

>  <Score>
-7.51

$$$$
