
 OpenBabel03202210193D

 43 46  0  0  0  0  0  0  0  0999 V2000
   23.4020   64.6400   -6.6810 S   0  0  0  0  0  0  0  0  0  0  0  0
   21.9500   64.7650   -6.2380 O   0  0  0  0  0  0  0  0  0  0  0  0
   23.9300   66.0410   -6.7750 O   0  0  0  0  0  0  0  0  0  0  0  0
   23.4040   63.8890   -8.2080 N   0  0  0  0  0  0  0  0  0  0  0  0
   23.1140   62.5050   -8.2110 C   0  0  0  0  0  0  0  0  0  0  0  0
   21.6980   62.1320   -8.4760 C   0  0  0  0  0  0  0  0  0  0  0  0
   21.1170   62.9520   -9.5500 N   0  0  0  0  0  0  0  0  0  0  0  0
   22.0700   63.7770  -10.2610 C   0  0  0  0  0  0  0  0  0  0  0  0
   22.7360   64.6580   -9.2220 C   0  0  0  0  0  0  0  0  0  0  0  0
   19.7320   62.9050   -9.8300 C   0  0  0  0  0  0  0  0  0  0  0  0
   19.1000   61.6680   -9.8700 C   0  0  0  0  0  0  0  0  0  0  0  0
   17.7350   61.6340  -10.1470 C   0  0  0  0  0  0  0  0  0  0  0  0
   17.0420   62.7440  -10.3690 N   0  0  0  0  0  0  0  0  0  0  0  0
   15.7690   62.3850  -10.6030 C   0  0  0  0  0  0  0  0  0  0  0  0
   15.7060   61.0420  -10.5200 N   0  0  0  0  0  0  0  0  0  0  0  0
   16.9110   60.5760  -10.2390 N   0  0  0  0  0  0  0  0  0  0  0  0
   14.6240   63.3040  -10.9040 C   0  0  0  0  0  0  0  0  0  0  0  0
   17.6220   63.9110  -10.3350 N   0  0  0  0  0  0  0  0  0  0  0  0
   18.9510   64.0000  -10.0690 C   0  0  0  0  0  0  0  0  0  0  0  0
   24.2140   63.7100   -5.4510 C   0  0  0  0  0  0  0  0  0  0  0  0
   25.5080   63.2380   -5.6260 C   0  0  0  0  0  0  0  0  0  0  0  0
   26.1480   62.5030   -4.6530 C   0  0  0  0  0  0  0  0  0  0  0  0
   25.4750   62.2330   -3.4720 C   0  0  0  0  0  0  0  0  0  0  0  0
   24.1880   62.6810   -3.2500 C   0  0  0  0  0  0  0  0  0  0  0  0
   23.5850   63.4120   -4.2470 C   0  0  0  0  0  0  0  0  0  0  0  0
   26.3800   61.2090   -2.1290 B   0  0  0  0  0  0  0  0  0  0  0  0
   23.7690   62.0090   -8.9860 H   0  0  0  0  0  0  0  0  0  0  0  0
   23.4370   62.0690   -7.2470 H   0  0  0  0  0  0  0  0  0  0  0  0
   21.6680   61.0830   -8.8470 H   0  0  0  0  0  0  0  0  0  0  0  0
   21.0790   62.1690   -7.5640 H   0  0  0  0  0  0  0  0  0  0  0  0
   21.6430   64.4280  -11.0200 H   0  0  0  0  0  0  0  0  0  0  0  0
   22.8880   63.1180  -10.6760 H   0  0  0  0  0  0  0  0  0  0  0  0
   23.4340   65.3860   -9.6810 H   0  0  0  0  0  0  0  0  0  0  0  0
   21.9330   65.2460   -8.7330 H   0  0  0  0  0  0  0  0  0  0  0  0
   19.6160   60.7360   -9.6970 H   0  0  0  0  0  0  0  0  0  0  0  0
   15.0110   64.2850  -11.2700 H   0  0  0  0  0  0  0  0  0  0  0  0
   14.0130   62.8780  -11.7010 H   0  0  0  0  0  0  0  0  0  0  0  0
   14.0050   63.4800  -10.0020 H   0  0  0  0  0  0  0  0  0  0  0  0
   19.3700   64.9730  -10.0540 H   0  0  0  0  0  0  0  0  0  0  0  0
   25.9990   63.4730   -6.5700 H   0  0  0  0  0  0  0  0  0  0  0  0
   27.1500   62.1680   -4.8550 H   0  0  0  0  0  0  0  0  0  0  0  0
   23.7180   62.4370   -2.3060 H   0  0  0  0  0  0  0  0  0  0  0  0
   22.5900   63.7610   -4.0840 H   0  0  0  0  0  0  0  0  0  0  0  0
  1  2  2  0  0  0  0
  1 20  1  0  0  0  0
  3  1  2  0  0  0  0
  4  1  1  0  0  0  0
  5  4  1  0  0  0  0
  5 28  1  0  0  0  0
  6  5  1  0  0  0  0
  6 30  1  0  0  0  0
  7  6  1  0  0  0  0
  8  7  1  0  0  0  0
  8  9  1  0  0  0  0
  9 34  1  0  0  0  0
  9  4  1  0  0  0  0
 10  7  1  0  0  0  0
 11 10  2  0  0  0  0
 11 35  1  0  0  0  0
 12 11  1  0  0  0  0
 13 18  1  0  0  0  0
 13 12  1  0  0  0  0
 14 15  2  0  0  0  0
 14 13  1  0  0  0  0
 15 16  1  0  0  0  0
 16 12  2  0  0  0  0
 17 14  1  0  0  0  0
 17 38  1  0  0  0  0
 18 19  2  0  0  0  0
 19 39  1  0  0  0  0
 19 10  1  0  0  0  0
 20 25  1  0  0  0  0
 21 20  2  0  0  0  0
 21 22  1  0  0  0  0
 22 23  2  0  0  0  0
 23 24  1  0  0  0  0
 23 26  1  0  0  0  0
 24 42  1  0  0  0  0
 25 43  1  0  0  0  0
 25 24  2  0  0  0  0
 27  5  1  0  0  0  0
 29  6  1  0  0  0  0
 31  8  1  0  0  0  0
 32  8  1  0  0  0  0
 33  9  1  0  0  0  0
 36 17  1  0  0  0  0
 37 17  1  0  0  0  0
 40 21  1  0  0  0  0
 41 22  1  0  0  0  0
M  END
>  <Pose>
1

>  <Score>
-7.70

$$$$
