
 OpenBabel03202210193D

 57 60  0  0  1  0  0  0  0  0999 V2000
   20.2580   62.9710  -10.5930 S   0  0  0  0  0  0  0  0  0  0  0  0
   20.7200   61.8950   -9.6630 O   0  0  0  0  0  0  0  0  0  0  0  0
   20.6810   62.5310  -11.9890 O   0  0  0  0  0  0  0  0  0  0  0  0
   20.8760   64.5130  -10.2370 N   0  0  0  0  0  0  0  0  0  0  0  0
   20.7700   65.3580  -11.3790 C   0  0  0  0  0  0  0  0  0  0  0  0
   22.0820   65.9260  -11.8700 C   0  0  0  0  0  0  0  0  0  0  0  0
   23.1130   64.8870  -11.9140 N   0  0  0  0  0  0  0  0  0  0  0  0
   23.1620   64.0860  -10.7110 C   0  0  0  0  0  0  0  0  0  0  0  0
   23.9360   63.1360  -10.5780 O   0  0  0  0  0  0  0  0  0  0  0  0
   22.1770   64.5500   -9.6780 C   0  0  2  0  0  0  0  0  0  0  0  0
   22.3800   63.9110   -8.3620 C   0  0  0  0  0  0  0  0  0  0  0  0
   21.7020   64.7090   -7.3130 C   0  0  0  0  0  0  0  0  0  0  0  0
   20.7330   64.1590   -6.7240 O   0  0  0  0  0  0  0  0  0  0  0  0
   22.1200   66.0350   -6.9820 N   0  0  0  0  0  0  0  0  0  0  0  0
   21.3770   67.1790   -7.4350 C   0  0  0  0  0  0  0  0  0  0  0  0
   21.4560   68.3610   -6.5200 C   0  0  0  0  0  0  0  0  0  0  0  0
   22.7120   68.4670   -5.7990 N   0  0  0  0  0  0  0  0  0  0  0  0
   23.1090   67.2520   -5.1030 C   0  0  0  0  0  0  0  0  0  0  0  0
   23.3060   66.2120   -6.1860 C   0  0  0  0  0  0  0  0  0  0  0  0
   23.5140   69.6130   -5.7240 C   0  0  0  0  0  0  0  0  0  0  0  0
   23.8740   70.1080   -4.4900 C   0  0  0  0  0  0  0  0  0  0  0  0
   24.6560   71.2510   -4.4190 C   0  0  0  0  0  0  0  0  0  0  0  0
   25.0930   71.9220   -5.5340 C   0  0  0  0  0  0  0  0  0  0  0  0
   24.7310   71.4240   -6.7650 C   0  0  0  0  0  0  0  0  0  0  0  0
   23.9490   70.2810   -6.8430 C   0  0  0  0  0  0  0  0  0  0  0  0
   18.5040   62.9630  -10.6090 C   0  0  0  0  0  0  0  0  0  0  0  0
   17.7600   61.8460  -10.2490 C   0  0  0  0  0  0  0  0  0  0  0  0
   16.3940   61.8150  -10.2570 C   0  0  0  0  0  0  0  0  0  0  0  0
   15.6830   62.9260  -10.6330 C   0  0  0  0  0  0  0  0  0  0  0  0
   16.3990   64.0710  -11.0020 C   0  0  0  0  0  0  0  0  0  0  0  0
   17.7730   64.0660  -10.9830 C   0  0  0  0  0  0  0  0  0  0  0  0
   13.7810   62.9450  -10.6640 B   0  0  0  0  0  0  0  0  0  0  0  0
   20.1270   66.2420  -11.1260 H   0  0  0  0  0  0  0  0  0  0  0  0
   20.2890   64.8870  -12.2610 H   0  0  0  0  0  0  0  0  0  0  0  0
   22.3770   66.7800  -11.2420 H   0  0  0  0  0  0  0  0  0  0  0  0
   21.9400   66.2950  -12.8990 H   0  0  0  0  0  0  0  0  0  0  0  0
   23.7490   64.7170  -12.6930 H   0  0  0  0  0  0  0  0  0  0  0  0
   22.4310   65.6440   -9.5460 H   0  0  0  0  0  0  0  0  0  0  0  0
   23.4990   63.8930   -8.1920 H   0  0  0  0  0  0  0  0  0  0  0  0
   22.0900   62.8450   -8.2970 H   0  0  0  0  0  0  0  0  0  0  0  0
   21.6860   67.5040   -8.4610 H   0  0  0  0  0  0  0  0  0  0  0  0
   20.2820   66.9470   -7.5500 H   0  0  0  0  0  0  0  0  0  0  0  0
   21.3150   69.2680   -7.1200 H   0  0  0  0  0  0  0  0  0  0  0  0
   20.6440   68.3460   -5.7530 H   0  0  0  0  0  0  0  0  0  0  0  0
   22.2420   66.8930   -4.4980 H   0  0  0  0  0  0  0  0  0  0  0  0
   24.0090   67.3180   -4.5140 H   0  0  0  0  0  0  0  0  0  0  0  0
   24.1250   66.4930   -6.8800 H   0  0  0  0  0  0  0  0  0  0  0  0
   23.6000   65.2420   -5.7400 H   0  0  0  0  0  0  0  0  0  0  0  0
   23.5830   69.6470   -3.5410 H   0  0  0  0  0  0  0  0  0  0  0  0
   24.9450   71.6490   -3.4520 H   0  0  0  0  0  0  0  0  0  0  0  0
   25.7090   72.8230   -5.4640 H   0  0  0  0  0  0  0  0  0  0  0  0
   25.0650   71.9370   -7.6640 H   0  0  0  0  0  0  0  0  0  0  0  0
   23.7120   69.9680   -7.8520 H   0  0  0  0  0  0  0  0  0  0  0  0
   18.2730   60.9530   -9.9440 H   0  0  0  0  0  0  0  0  0  0  0  0
   15.8160   60.9280   -9.9720 H   0  0  0  0  0  0  0  0  0  0  0  0
   15.8050   64.9230  -11.2920 H   0  0  0  0  0  0  0  0  0  0  0  0
   18.2950   64.9600  -11.2710 H   0  0  0  0  0  0  0  0  0  0  0  0
  1  4  1  0  0  0  0
  1  2  2  0  0  0  0
  3  1  2  0  0  0  0
  4 10  1  0  0  0  0
  5 33  1  0  0  0  0
  5  4  1  0  0  0  0
  6  5  1  0  0  0  0
  6 35  1  0  0  0  0
  7  6  1  0  0  0  0
  7  8  1  0  0  0  0
  8  9  2  0  0  0  0
  8 10  1  0  0  0  0
 10 38  1  1  0  0  0
 10 11  1  0  0  0  0
 11 40  1  0  0  0  0
 11 39  1  0  0  0  0
 11 12  1  0  0  0  0
 12 14  1  0  0  0  0
 12 13  2  0  0  0  0
 14 19  1  0  0  0  0
 15 14  1  0  0  0  0
 15 16  1  0  0  0  0
 16 17  1  0  0  0  0
 16 44  1  0  0  0  0
 17 20  1  0  0  0  0
 17 18  1  0  0  0  0
 18 46  1  0  0  0  0
 18 45  1  0  0  0  0
 19 48  1  0  0  0  0
 19 18  1  0  0  0  0
 20 21  1  0  0  0  0
 21 22  2  0  0  0  0
 21 49  1  0  0  0  0
 22 50  1  0  0  0  0
 23 51  1  0  0  0  0
 23 22  1  0  0  0  0
 24 23  2  0  0  0  0
 25 24  1  0  0  0  0
 25 20  2  0  0  0  0
 26  1  1  0  0  0  0
 26 27  1  0  0  0  0
 27 54  1  0  0  0  0
 28 27  2  0  0  0  0
 28 55  1  0  0  0  0
 29 28  1  0  0  0  0
 30 31  1  0  0  0  0
 30 29  2  0  0  0  0
 31 26  2  0  0  0  0
 32 29  1  0  0  0  0
 34  5  1  0  0  0  0
 36  6  1  0  0  0  0
 37  7  1  0  0  0  0
 41 15  1  0  0  0  0
 42 15  1  0  0  0  0
 43 16  1  0  0  0  0
 47 19  1  0  0  0  0
 52 24  1  0  0  0  0
 53 25  1  0  0  0  0
 56 30  1  0  0  0  0
 57 31  1  0  0  0  0
M  END
>  <Pose>
1

>  <Score>
-6.40

$$$$
