
 OpenBabel03202210193D

 51 54  0  0  0  0  0  0  0  0999 V2000
   24.3400   63.5590   -6.8400 S   0  0  0  0  0  0  0  0  0  0  0  0
   25.4680   62.7300   -7.3500 O   0  0  0  0  0  0  0  0  0  0  0  0
   24.7990   65.0030   -6.8650 O   0  0  0  0  0  0  0  0  0  0  0  0
   23.9530   63.1740   -5.2220 N   0  0  0  0  0  0  0  0  0  0  0  0
   24.1180   64.2820   -4.3180 C   0  0  0  0  0  0  0  0  0  0  0  0
   24.2140   63.6860   -2.9110 C   0  0  0  0  0  0  0  0  0  0  0  0
   25.4420   63.0910   -2.7210 O   0  0  0  0  0  0  0  0  0  0  0  0
   25.9610   62.7070   -3.9700 C   0  0  0  0  0  0  0  0  0  0  0  0
   24.8080   62.0990   -4.7530 C   0  0  0  0  0  0  0  0  0  0  0  0
   22.9430   63.4690   -7.9020 C   0  0  0  0  0  0  0  0  0  0  0  0
   23.0090   62.9680   -9.1700 C   0  0  0  0  0  0  0  0  0  0  0  0
   21.8860   62.9090   -9.9890 C   0  0  0  0  0  0  0  0  0  0  0  0
   20.6700   63.3500   -9.5590 C   0  0  0  0  0  0  0  0  0  0  0  0
   20.5940   63.8600   -8.2750 C   0  0  0  0  0  0  0  0  0  0  0  0
   21.7120   63.9190   -7.4620 C   0  0  0  0  0  0  0  0  0  0  0  0
   19.4260   63.3190  -10.3650 C   0  0  0  0  0  0  0  0  0  0  0  0
   18.9800   62.0040  -10.6070 O   0  0  0  0  0  0  0  0  0  0  0  0
   18.1930   61.2690   -9.7550 C   0  0  0  0  0  0  0  0  0  0  0  0
   18.5350   60.1070   -9.4580 O   0  0  0  0  0  0  0  0  0  0  0  0
   16.9650   61.8280   -9.1950 C   0  0  0  0  0  0  0  0  0  0  0  0
   16.0490   62.3150  -10.1840 N   0  0  0  0  0  0  0  0  0  0  0  0
   15.1680   61.4600  -10.9220 C   0  0  0  0  0  0  0  0  0  0  0  0
   15.0840   60.2040  -10.8030 O   0  0  0  0  0  0  0  0  0  0  0  0
   14.3760   62.2700  -11.8400 C   0  0  0  0  0  0  0  0  0  0  0  0
   14.7400   63.5830  -11.6920 C   0  0  0  0  0  0  0  0  0  0  0  0
   14.1370   64.5680  -12.4500 C   0  0  0  0  0  0  0  0  0  0  0  0
   13.1570   64.2560  -13.3730 C   0  0  0  0  0  0  0  0  0  0  0  0
   12.7820   62.9380  -13.5330 C   0  0  0  0  0  0  0  0  0  0  0  0
   13.4000   61.9740  -12.7640 C   0  0  0  0  0  0  0  0  0  0  0  0
   11.4360   62.4570  -14.7950 B   0  0  0  0  0  0  0  0  0  0  0  0
   15.7870   63.6260  -10.6560 C   0  0  0  0  0  0  0  0  0  0  0  0
   16.3750   64.6470  -10.2360 O   0  0  0  0  0  0  0  0  0  0  0  0
   23.1820   64.8780   -4.3560 H   0  0  0  0  0  0  0  0  0  0  0  0
   24.9570   64.9360   -4.5500 H   0  0  0  0  0  0  0  0  0  0  0  0
   23.3670   62.9630   -2.8120 H   0  0  0  0  0  0  0  0  0  0  0  0
   24.0570   64.4500   -2.1310 H   0  0  0  0  0  0  0  0  0  0  0  0
   26.4410   63.5380   -4.4900 H   0  0  0  0  0  0  0  0  0  0  0  0
   26.7450   61.9560   -3.7520 H   0  0  0  0  0  0  0  0  0  0  0  0
   25.1450   61.5390   -5.6380 H   0  0  0  0  0  0  0  0  0  0  0  0
   24.2830   61.4210   -4.0440 H   0  0  0  0  0  0  0  0  0  0  0  0
   23.9730   62.6120   -9.5280 H   0  0  0  0  0  0  0  0  0  0  0  0
   21.9810   62.5080  -10.9850 H   0  0  0  0  0  0  0  0  0  0  0  0
   19.6400   64.2160   -7.9140 H   0  0  0  0  0  0  0  0  0  0  0  0
   21.6220   64.3250   -6.4550 H   0  0  0  0  0  0  0  0  0  0  0  0
   18.6080   63.8610   -9.8470 H   0  0  0  0  0  0  0  0  0  0  0  0
   19.6370   63.8420  -11.3350 H   0  0  0  0  0  0  0  0  0  0  0  0
   16.4230   61.0720   -8.5520 H   0  0  0  0  0  0  0  0  0  0  0  0
   17.1660   62.6880   -8.4900 H   0  0  0  0  0  0  0  0  0  0  0  0
   14.4460   65.5990  -12.3090 H   0  0  0  0  0  0  0  0  0  0  0  0
   12.6840   65.0490  -13.9730 H   0  0  0  0  0  0  0  0  0  0  0  0
   13.1260   60.9240  -12.8660 H   0  0  0  0  0  0  0  0  0  0  0  0
  1  4  1  0  0  0  0
  2  1  2  0  0  0  0
  3  1  2  0  0  0  0
  4  9  1  0  0  0  0
  4  5  1  0  0  0  0
  5  6  1  0  0  0  0
  6 35  1  0  0  0  0
  6  7  1  0  0  0  0
  6 36  1  0  0  0  0
  8 38  1  0  0  0  0
  8  7  1  0  0  0  0
  9 40  1  0  0  0  0
  9  8  1  0  0  0  0
 10 15  1  0  0  0  0
 10  1  1  0  0  0  0
 11 10  2  0  0  0  0
 12 13  2  0  0  0  0
 12 11  1  0  0  0  0
 13 14  1  0  0  0  0
 14 43  1  0  0  0  0
 14 15  2  0  0  0  0
 15 44  1  0  0  0  0
 16 45  1  0  0  0  0
 16 13  1  0  0  0  0
 17 16  1  0  0  0  0
 17 18  1  0  0  0  0
 18 19  2  0  0  0  0
 18 20  1  0  0  0  0
 20 47  1  0  0  0  0
 20 48  1  0  0  0  0
 21 20  1  0  0  0  0
 22 23  2  0  0  0  0
 22 21  1  0  0  0  0
 24 25  1  0  0  0  0
 24 22  1  0  0  0  0
 25 31  1  0  0  0  0
 26 49  1  0  0  0  0
 26 25  2  0  0  0  0
 27 26  1  0  0  0  0
 28 27  2  0  0  0  0
 28 29  1  0  0  0  0
 29 24  2  0  0  0  0
 30 28  1  0  0  0  0
 31 32  2  0  0  0  0
 31 21  1  0  0  0  0
 33  5  1  0  0  0  0
 34  5  1  0  0  0  0
 37  8  1  0  0  0  0
 39  9  1  0  0  0  0
 41 11  1  0  0  0  0
 42 12  1  0  0  0  0
 46 16  1  0  0  0  0
 50 27  1  0  0  0  0
 51 29  1  0  0  0  0
M  END
>  <Pose>
1

>  <Score>
-7.44

$$$$
