
 OpenBabel03202210193D

 46 49  0  0  0  0  0  0  0  0999 V2000
   23.7590   64.2030   -6.8830 S   0  0  0  0  0  0  0  0  0  0  0  0
   25.1090   64.8240   -7.2170 O   0  0  0  0  0  0  0  0  0  0  0  0
   23.0640   65.2230   -6.0040 O   0  0  0  0  0  0  0  0  0  0  0  0
   24.0270   62.7700   -6.0580 N   0  0  0  0  0  0  0  0  0  0  0  0
   24.9980   62.7510   -5.0460 C   0  0  0  0  0  0  0  0  0  0  0  0
   24.4940   62.0360   -3.8270 C   0  0  0  0  0  0  0  0  0  0  0  0
   24.1200   60.7610   -4.2130 O   0  0  0  0  0  0  0  0  0  0  0  0
   23.0150   60.7600   -5.0550 C   0  0  0  0  0  0  0  0  0  0  0  0
   23.0940   61.7340   -6.1660 C   0  0  0  0  0  0  0  0  0  0  0  0
   22.8710   64.0240   -8.3790 C   0  0  0  0  0  0  0  0  0  0  0  0
   23.0610   64.6790   -9.5370 N   0  0  0  0  0  0  0  0  0  0  0  0
   22.1540   64.2370  -10.4450 C   0  0  0  0  0  0  0  0  0  0  0  0
   21.3790   63.2980   -9.8750 N   0  0  0  0  0  0  0  0  0  0  0  0
   21.8000   63.1590   -8.6270 C   0  0  0  0  0  0  0  0  0  0  0  0
   20.2980   62.6010  -10.5430 C   0  0  0  0  0  0  0  0  0  0  0  0
   18.9730   63.0980  -10.1020 C   0  0  0  0  0  0  0  0  0  0  0  0
   18.3200   62.6940   -8.9810 N   0  0  0  0  0  0  0  0  0  0  0  0
   17.1950   63.3390   -8.9150 O   0  0  0  0  0  0  0  0  0  0  0  0
   17.0520   64.1540   -9.9300 C   0  0  0  0  0  0  0  0  0  0  0  0
   18.1750   64.0000  -10.6760 N   0  0  0  0  0  0  0  0  0  0  0  0
   15.9100   65.0700  -10.2300 C   0  0  0  0  0  0  0  0  0  0  0  0
   15.0270   64.3550  -11.1930 C   0  0  0  0  0  0  0  0  0  0  0  0
   14.4890   65.0720  -12.2510 C   0  0  0  0  0  0  0  0  0  0  0  0
   13.6680   64.4970  -13.1840 C   0  0  0  0  0  0  0  0  0  0  0  0
   13.3760   63.1660  -13.0570 C   0  0  0  0  0  0  0  0  0  0  0  0
   13.8780   62.4190  -12.0370 C   0  0  0  0  0  0  0  0  0  0  0  0
   14.7100   63.0300  -11.1030 C   0  0  0  0  0  0  0  0  0  0  0  0
   12.2360   62.3300  -14.3380 B   0  0  0  0  0  0  0  0  0  0  0  0
   25.3350   63.7870   -4.8300 H   0  0  0  0  0  0  0  0  0  0  0  0
   25.8880   62.1590   -5.4130 H   0  0  0  0  0  0  0  0  0  0  0  0
   25.2840   61.9170   -3.0530 H   0  0  0  0  0  0  0  0  0  0  0  0
   23.6020   62.5680   -3.4530 H   0  0  0  0  0  0  0  0  0  0  0  0
   22.9090   59.7110   -5.4310 H   0  0  0  0  0  0  0  0  0  0  0  0
   22.0930   60.9450   -4.4570 H   0  0  0  0  0  0  0  0  0  0  0  0
   22.0720   62.1790   -6.3600 H   0  0  0  0  0  0  0  0  0  0  0  0
   23.3070   61.1570   -7.1140 H   0  0  0  0  0  0  0  0  0  0  0  0
   22.0820   64.5980  -11.4680 H   0  0  0  0  0  0  0  0  0  0  0  0
   21.4080   62.4910   -7.8740 H   0  0  0  0  0  0  0  0  0  0  0  0
   20.3480   61.5110  -10.3480 H   0  0  0  0  0  0  0  0  0  0  0  0
   20.4050   62.7220  -11.6400 H   0  0  0  0  0  0  0  0  0  0  0  0
   16.3340   65.9760  -10.6970 H   0  0  0  0  0  0  0  0  0  0  0  0
   15.3610   65.3240   -9.2980 H   0  0  0  0  0  0  0  0  0  0  0  0
   14.7380   66.1310  -12.3290 H   0  0  0  0  0  0  0  0  0  0  0  0
   13.2430   65.0610  -14.0190 H   0  0  0  0  0  0  0  0  0  0  0  0
   13.6510   61.3590  -11.9290 H   0  0  0  0  0  0  0  0  0  0  0  0
   15.1170   62.4460  -10.2870 H   0  0  0  0  0  0  0  0  0  0  0  0
  1  4  1  0  0  0  0
  1  3  2  0  0  0  0
  2  1  2  0  0  0  0
  4  5  1  0  0  0  0
  5 29  1  0  0  0  0
  5  6  1  0  0  0  0
  6 32  1  0  0  0  0
  6 31  1  0  0  0  0
  7  6  1  0  0  0  0
  8 34  1  0  0  0  0
  8  7  1  0  0  0  0
  9  4  1  0  0  0  0
  9  8  1  0  0  0  0
 10  1  1  0  0  0  0
 11 10  1  0  0  0  0
 12 13  1  0  0  0  0
 12 11  2  0  0  0  0
 13 14  1  0  0  0  0
 14 10  2  0  0  0  0
 14 38  1  0  0  0  0
 15 39  1  0  0  0  0
 15 16  1  0  0  0  0
 15 13  1  0  0  0  0
 16 17  2  0  0  0  0
 17 18  1  0  0  0  0
 19 18  1  0  0  0  0
 20 16  1  0  0  0  0
 20 19  2  0  0  0  0
 21 19  1  0  0  0  0
 21 42  1  0  0  0  0
 22 27  1  0  0  0  0
 22 21  1  0  0  0  0
 23 22  2  0  0  0  0
 24 25  2  0  0  0  0
 24 23  1  0  0  0  0
 25 26  1  0  0  0  0
 26 45  1  0  0  0  0
 26 27  2  0  0  0  0
 27 46  1  0  0  0  0
 28 25  1  0  0  0  0
 30  5  1  0  0  0  0
 33  8  1  0  0  0  0
 35  9  1  0  0  0  0
 36  9  1  0  0  0  0
 37 12  1  0  0  0  0
 40 15  1  0  0  0  0
 41 21  1  0  0  0  0
 43 23  1  0  0  0  0
 44 24  1  0  0  0  0
M  END
>  <Pose>
1

>  <Score>
-6.53

$$$$
