
 OpenBabel03202210193D

 47 50  0  0  1  0  0  0  0  0999 V2000
   22.3110   62.9290   -8.4010 S   0  0  0  0  0  0  0  0  0  0  0  0
   21.6090   62.9750  -10.1080 C   0  0  0  0  0  0  0  0  0  0  0  0
   20.1440   62.7720  -10.0460 C   0  0  0  0  0  0  0  0  0  0  0  0
   19.5370   61.5460   -9.9160 C   0  0  0  0  0  0  0  0  0  0  0  0
   18.1970   61.3910  -10.0000 C   0  0  0  0  0  0  0  0  0  0  0  0
   17.3510   62.4730  -10.2160 C   0  0  0  0  0  0  0  0  0  0  0  0
   17.9380   63.7390  -10.3560 C   0  0  0  0  0  0  0  0  0  0  0  0
   19.3090   63.8830  -10.2720 C   0  0  0  0  0  0  0  0  0  0  0  0
   20.6930   60.0890   -9.4730 B   0  0  0  0  0  0  0  0  0  0  0  0
   22.3180   64.5760   -7.6820 C   0  0  0  0  0  0  0  0  0  0  0  0
   23.1820   65.0340   -6.7760 N   0  0  0  0  0  0  0  0  0  0  0  0
   22.8830   66.3450   -6.5780 C   0  0  0  0  0  0  0  0  0  0  0  0
   23.3820   67.3780   -5.8820 N   0  0  0  0  0  0  0  0  0  0  0  0
   22.9270   68.6350   -5.9100 C   0  0  0  0  0  0  0  0  0  0  0  0
   21.8330   68.9070   -6.7220 N   0  0  0  0  0  0  0  0  0  0  0  0
   21.2800   67.9610   -7.4390 C   0  0  0  0  0  0  0  0  0  0  0  0
   21.7710   66.6710   -7.4010 C   0  0  0  0  0  0  0  0  0  0  0  0
   21.4760   65.5530   -8.0520 N   0  0  0  0  0  0  0  0  0  0  0  0
   20.1930   68.1730   -8.2490 O   0  0  0  0  0  0  0  0  0  0  0  0
   23.5050   69.7380   -5.1960 N   0  0  0  0  0  0  0  0  0  0  0  0
   24.2190   64.3660   -6.0580 C   0  0  2  0  0  0  0  0  0  0  0  0
   24.9960   63.4920   -6.8500 O   0  0  0  0  0  0  0  0  0  0  0  0
   25.7650   62.8910   -5.8270 C   0  0  1  0  0  0  0  0  0  0  0  0
   24.5890   62.3100   -4.9990 C   0  0  2  0  0  0  0  0  0  0  0  0
   23.8110   63.6210   -4.8280 C   0  0  1  0  0  0  0  0  0  0  0  0
   24.3180   64.2410   -3.6570 O   0  0  0  0  0  0  0  0  0  0  0  0
   25.0000   61.7700   -3.8100 O   0  0  0  0  0  0  0  0  0  0  0  0
   26.6660   61.8350   -6.3440 C   0  0  0  0  0  0  0  0  0  0  0  0
   27.4810   61.3350   -5.3200 O   0  0  0  0  0  0  0  0  0  0  0  0
   22.1050   62.2630  -10.7100 H   0  0  0  0  0  0  0  0  0  0  0  0
   21.8200   64.0640  -10.4410 H   0  0  0  0  0  0  0  0  0  0  0  0
   17.7700   60.4100   -9.8920 H   0  0  0  0  0  0  0  0  0  0  0  0
   16.2830   62.3430  -10.2510 H   0  0  0  0  0  0  0  0  0  0  0  0
   17.3220   64.6220  -10.5390 H   0  0  0  0  0  0  0  0  0  0  0  0
   19.7430   64.8350  -10.4170 H   0  0  0  0  0  0  0  0  0  0  0  0
   20.1970   68.0150   -9.2500 H   0  0  0  0  0  0  0  0  0  0  0  0
   23.5090   69.8810   -4.1880 H   0  0  0  0  0  0  0  0  0  0  0  0
   23.9500   70.5190   -5.7920 H   0  0  0  0  0  0  0  0  0  0  0  0
   24.9750   65.1340   -5.7300 H   0  0  0  0  0  0  0  0  0  0  0  0
   26.2520   63.6490   -5.2110 H   0  0  0  0  0  0  0  0  0  0  0  0
   24.0170   61.5850   -5.6060 H   0  0  0  0  0  0  0  0  0  0  0  0
   22.7730   63.4700   -4.6520 H   0  0  0  0  0  0  0  0  0  0  0  0
   24.9770   64.8880   -3.9950 H   0  0  0  0  0  0  0  0  0  0  0  0
   24.9590   60.7850   -3.8500 H   0  0  0  0  0  0  0  0  0  0  0  0
   27.4080   62.3610   -7.0250 H   0  0  0  0  0  0  0  0  0  0  0  0
   26.1750   61.0840   -6.9440 H   0  0  0  0  0  0  0  0  0  0  0  0
   27.0880   60.4530   -5.0360 H   0  0  0  0  0  0  0  0  0  0  0  0
  1 10  1  0  0  0  0
  2  3  1  0  0  0  0
  2  1  1  0  0  0  0
  3  4  1  0  0  0  0
  4  9  1  0  0  0  0
  5  4  2  0  0  0  0
  5 32  1  0  0  0  0
  6  5  1  0  0  0  0
  7  8  1  0  0  0  0
  7  6  2  0  0  0  0
  8  3  2  0  0  0  0
 10 11  1  0  0  0  0
 11 12  1  0  0  0  0
 11 21  1  0  0  0  0
 12 13  1  0  0  0  0
 14 13  2  0  0  0  0
 14 20  1  0  0  0  0
 15 14  1  0  0  0  0
 16 17  1  0  0  0  0
 16 15  2  0  0  0  0
 17 12  2  0  0  0  0
 18 10  2  0  0  0  0
 18 17  1  0  0  0  0
 19 16  1  0  0  0  0
 20 37  1  0  0  0  0
 21 39  1  1  0  0  0
 21 25  1  0  0  0  0
 22 21  1  0  0  0  0
 22 23  1  0  0  0  0
 23 40  1  1  0  0  0
 23 24  1  0  0  0  0
 24 41  1  6  0  0  0
 24 25  1  0  0  0  0
 24 27  1  0  0  0  0
 25 42  1  1  0  0  0
 25 26  1  0  0  0  0
 28 23  1  0  0  0  0
 28 29  1  0  0  0  0
 29 47  1  0  0  0  0
 30  2  1  0  0  0  0
 31  2  1  0  0  0  0
 33  6  1  0  0  0  0
 34  7  1  0  0  0  0
 35  8  1  0  0  0  0
 36 19  1  0  0  0  0
 38 20  1  0  0  0  0
 43 26  1  0  0  0  0
 44 27  1  0  0  0  0
 45 28  1  0  0  0  0
 46 28  1  0  0  0  0
M  END
>  <Pose>
1

>  <Score>
-8.79

$$$$
