
 OpenBabel03202210193D

 36 39  0  0  1  0  0  0  0  0999 V2000
   23.7710   64.2500   -5.4570 S   0  0  0  0  0  0  0  0  0  0  0  0
   23.3870   64.0620   -7.1090 C   0  0  0  0  0  0  0  0  0  0  0  0
   22.8540   65.2810   -7.4370 C   0  0  0  0  0  0  0  0  0  0  0  0
   22.7800   66.2050   -6.4760 C   0  0  0  0  0  0  0  0  0  0  0  0
   23.2460   65.8560   -5.2340 C   0  0  0  0  0  0  0  0  0  0  0  0
   22.0590   67.9850   -6.7440 B   0  0  0  0  0  0  0  0  0  0  0  0
   23.5740   62.8880   -7.9910 C   0  0  0  0  0  0  0  0  0  0  0  0
   24.4030   62.0330   -7.5940 O   0  0  0  0  0  0  0  0  0  0  0  0
   22.8520   62.7600   -9.2000 N   0  0  0  0  0  0  0  0  0  0  0  0
   22.6950   63.8740  -10.1230 C   0  0  2  0  0  0  0  0  0  0  0  0
   21.2550   64.3060  -10.2390 C   0  0  0  0  0  0  0  0  0  0  0  0
   20.6770   63.2050  -10.9940 N   0  0  0  0  0  0  0  0  0  0  0  0
   21.5970   62.9650  -12.0800 C   0  0  0  0  0  0  0  0  0  0  0  0
   22.9550   63.3400  -11.5160 C   0  0  0  0  0  0  0  0  0  0  0  0
   19.4450   62.5360  -10.6770 C   0  0  0  0  0  0  0  0  0  0  0  0
   19.4320   61.2410  -10.3100 N   0  0  0  0  0  0  0  0  0  0  0  0
   18.2630   60.6430  -10.0200 C   0  0  0  0  0  0  0  0  0  0  0  0
   17.0670   61.3100  -10.0840 C   0  0  0  0  0  0  0  0  0  0  0  0
   17.0630   62.6040  -10.4480 N   0  0  0  0  0  0  0  0  0  0  0  0
   18.2400   63.1930  -10.7370 C   0  0  0  0  0  0  0  0  0  0  0  0
   17.9200   64.4610  -11.0610 N   0  0  0  0  0  0  0  0  0  0  0  0
   16.6160   64.6580  -10.9810 N   0  0  0  0  0  0  0  0  0  0  0  0
   16.0570   63.4980  -10.5960 C   0  0  0  0  0  0  0  0  0  0  0  0
   22.5090   65.4450   -8.4810 H   0  0  0  0  0  0  0  0  0  0  0  0
   23.2890   66.4390   -4.3040 H   0  0  0  0  0  0  0  0  0  0  0  0
   22.4280   61.8320   -9.4200 H   0  0  0  0  0  0  0  0  0  0  0  0
   23.3140   64.7290   -9.8580 H   0  0  0  0  0  0  0  0  0  0  0  0
   20.7600   64.4780   -9.2830 H   0  0  0  0  0  0  0  0  0  0  0  0
   21.2370   65.2040  -10.8870 H   0  0  0  0  0  0  0  0  0  0  0  0
   21.5830   61.9500  -12.4840 H   0  0  0  0  0  0  0  0  0  0  0  0
   21.3540   63.7010  -12.8740 H   0  0  0  0  0  0  0  0  0  0  0  0
   23.5740   62.4160  -11.4980 H   0  0  0  0  0  0  0  0  0  0  0  0
   23.4350   64.1390  -12.1210 H   0  0  0  0  0  0  0  0  0  0  0  0
   18.2660   59.5910   -9.7230 H   0  0  0  0  0  0  0  0  0  0  0  0
   16.1220   60.8310   -9.8500 H   0  0  0  0  0  0  0  0  0  0  0  0
   15.0200   63.2960  -10.4320 H   0  0  0  0  0  0  0  0  0  0  0  0
  1  5  1  0  0  0  0
  2  1  1  0  0  0  0
  3  2  2  0  0  0  0
  3  4  1  0  0  0  0
  4  5  2  0  0  0  0
  5 25  1  0  0  0  0
  6  4  1  0  0  0  0
  7  8  2  0  0  0  0
  7  2  1  0  0  0  0
  9  7  1  0  0  0  0
 10 27  1  1  0  0  0
 10  9  1  0  0  0  0
 11 10  1  0  0  0  0
 11 28  1  0  0  0  0
 12 15  1  0  0  0  0
 12 11  1  0  0  0  0
 13 14  1  0  0  0  0
 13 12  1  0  0  0  0
 14 32  1  0  0  0  0
 14 10  1  0  0  0  0
 15 16  2  0  0  0  0
 16 17  1  0  0  0  0
 17 34  1  0  0  0  0
 18 17  2  0  0  0  0
 18 35  1  0  0  0  0
 19 18  1  0  0  0  0
 20 15  1  0  0  0  0
 20 19  1  0  0  0  0
 21 22  1  0  0  0  0
 21 20  2  0  0  0  0
 22 23  2  0  0  0  0
 23 19  1  0  0  0  0
 23 36  1  0  0  0  0
 24  3  1  0  0  0  0
 26  9  1  0  0  0  0
 29 11  1  0  0  0  0
 30 13  1  0  0  0  0
 31 13  1  0  0  0  0
 33 14  1  0  0  0  0
M  END
>  <Pose>
1

>  <Score>
-8.09

$$$$
