
 OpenBabel03202210193D

 34 37  0  0  1  0  0  0  0  0999 V2000
   15.2110   64.3280  -10.4620 S   0  0  0  0  0  0  0  0  0  0  0  0
   15.6360   62.6890  -10.6000 C   0  0  0  0  0  0  0  0  0  0  0  0
   17.0060   62.7130  -10.5930 C   0  0  0  0  0  0  0  0  0  0  0  0
   17.5920   63.9280  -10.4880 C   0  0  0  0  0  0  0  0  0  0  0  0
   16.7670   65.0130  -10.3980 C   0  0  0  0  0  0  0  0  0  0  0  0
   19.1020   64.0860  -10.4630 C   0  0  1  0  0  0  0  0  0  0  0  0
   19.7640   63.2470   -9.3610 C   0  0  1  0  0  0  0  0  0  0  0  0
   19.9100   62.9120  -10.7970 C   0  0  0  0  0  0  0  0  0  0  0  0
   20.8810   63.9670   -8.6540 C   0  0  0  0  0  0  0  0  0  0  0  0
   21.8470   63.4310   -7.8870 N   0  0  0  0  0  0  0  0  0  0  0  0
   22.6640   64.3940   -7.4290 C   0  0  0  0  0  0  0  0  0  0  0  0
   22.1730   65.5370   -7.9360 N   0  0  0  0  0  0  0  0  0  0  0  0
   21.1130   65.2580   -8.6620 O   0  0  0  0  0  0  0  0  0  0  0  0
   23.8380   64.2590   -6.5660 C   0  0  0  0  0  0  0  0  0  0  0  0
   23.8580   63.7360   -5.3290 N   0  0  0  0  0  0  0  0  0  0  0  0
   25.1000   63.7720   -4.8350 N   0  0  0  0  0  0  0  0  0  0  0  0
   25.9050   64.3280   -5.7680 C   0  0  0  0  0  0  0  0  0  0  0  0
   25.1070   64.6200   -6.8210 N   0  0  0  0  0  0  0  0  0  0  0  0
   25.5210   63.2980   -3.5270 C   0  0  0  0  0  0  0  0  0  0  0  0
   25.6610   61.8270   -3.5810 C   0  0  0  0  0  0  0  0  0  0  0  0
   26.7010   61.3420   -4.0760 O   0  0  0  0  0  0  0  0  0  0  0  0
   24.6300   60.9990   -3.0790 N   0  0  0  0  0  0  0  0  0  0  0  0
   14.4980   61.1350  -10.7360 B   0  0  0  0  0  0  0  0  0  0  0  0
   17.5690   61.7440  -10.6740 H   0  0  0  0  0  0  0  0  0  0  0  0
   17.0840   66.0730  -10.3070 H   0  0  0  0  0  0  0  0  0  0  0  0
   19.5250   65.0660  -10.6850 H   0  0  0  0  0  0  0  0  0  0  0  0
   19.1300   62.6360   -8.7200 H   0  0  0  0  0  0  0  0  0  0  0  0
   20.9410   63.0710  -11.2090 H   0  0  0  0  0  0  0  0  0  0  0  0
   19.4130   61.9700  -11.1180 H   0  0  0  0  0  0  0  0  0  0  0  0
   26.9670   64.4910   -5.6550 H   0  0  0  0  0  0  0  0  0  0  0  0
   24.7890   63.6420   -2.7720 H   0  0  0  0  0  0  0  0  0  0  0  0
   26.5250   63.7050   -3.2620 H   0  0  0  0  0  0  0  0  0  0  0  0
   24.0740   61.2630   -2.2200 H   0  0  0  0  0  0  0  0  0  0  0  0
   24.3500   60.0860   -3.5120 H   0  0  0  0  0  0  0  0  0  0  0  0
  1  5  1  0  0  0  0
  2  3  2  0  0  0  0
  2  1  1  0  0  0  0
  3  4  1  0  0  0  0
  4  6  1  0  0  0  0
  4  5  2  0  0  0  0
  5 25  1  0  0  0  0
  6 26  1  6  0  0  0
  6  7  1  0  0  0  0
  7 27  1  1  0  0  0
  7  9  1  0  0  0  0
  8  6  1  0  0  0  0
  8  7  1  0  0  0  0
  9 10  2  0  0  0  0
 10 11  1  0  0  0  0
 11 14  1  0  0  0  0
 12 11  2  0  0  0  0
 13  9  1  0  0  0  0
 13 12  1  0  0  0  0
 14 15  2  0  0  0  0
 15 16  1  0  0  0  0
 16 19  1  0  0  0  0
 17 30  1  0  0  0  0
 17 16  1  0  0  0  0
 18 14  1  0  0  0  0
 18 17  2  0  0  0  0
 19 32  1  0  0  0  0
 19 31  1  0  0  0  0
 20 19  1  0  0  0  0
 20 22  1  0  0  0  0
 21 20  2  0  0  0  0
 22 33  1  0  0  0  0
 23  2  1  0  0  0  0
 24  3  1  0  0  0  0
 28  8  1  0  0  0  0
 29  8  1  0  0  0  0
 34 22  1  0  0  0  0
M  END
>  <Pose>
1

>  <Score>
-8.06

$$$$
