
 OpenBabel03202210193D

 51 54  0  0  0  0  0  0  0  0999 V2000
   23.3090   62.9590   -7.7150 S   0  0  0  0  0  0  0  0  0  0  0  0
   24.0140   63.5560   -6.2890 C   0  0  0  0  0  0  0  0  0  0  0  0
   23.3850   64.7590   -6.1210 C   0  0  0  0  0  0  0  0  0  0  0  0
   22.4740   65.1140   -7.0300 C   0  0  0  0  0  0  0  0  0  0  0  0
   22.2350   64.2460   -8.0650 C   0  0  0  0  0  0  0  0  0  0  0  0
   21.2840   64.4060   -9.1710 C   0  0  0  0  0  0  0  0  0  0  0  0
   20.9280   65.5760   -9.4540 O   0  0  0  0  0  0  0  0  0  0  0  0
   20.7620   63.2430   -9.9300 C   0  0  0  0  0  0  0  0  0  0  0  0
   19.3360   63.3230  -10.1240 N   0  0  0  0  0  0  0  0  0  0  0  0
   18.4960   62.2620  -10.0760 C   0  0  0  0  0  0  0  0  0  0  0  0
   17.2180   62.6760  -10.3020 C   0  0  0  0  0  0  0  0  0  0  0  0
   16.1760   61.7660  -10.3050 C   0  0  0  0  0  0  0  0  0  0  0  0
   16.4490   60.4370  -10.0770 C   0  0  0  0  0  0  0  0  0  0  0  0
   17.7270   59.9950   -9.8480 C   0  0  0  0  0  0  0  0  0  0  0  0
   18.7410   60.9260   -9.8510 C   0  0  0  0  0  0  0  0  0  0  0  0
   17.2710   63.9980  -10.4870 N   0  0  0  0  0  0  0  0  0  0  0  0
   18.5730   64.3910  -10.3760 C   0  0  0  0  0  0  0  0  0  0  0  0
   18.8880   65.6260  -10.5020 N   0  0  0  0  0  0  0  0  0  0  0  0
   16.1190   64.8420  -10.7720 C   0  0  0  0  0  0  0  0  0  0  0  0
   15.5580   64.4380  -12.1430 C   0  0  0  0  0  0  0  0  0  0  0  0
   14.1380   64.2390  -12.1050 N   0  0  0  0  0  4  0  0  0  0  0  0
   13.4020   65.0500  -13.0530 C   0  0  0  0  0  0  0  0  0  0  0  0
   13.9460   64.9190  -14.4480 C   0  0  0  0  0  0  0  0  0  0  0  0
   14.1620   63.5040  -14.8680 C   0  0  0  0  0  0  0  0  0  0  0  0
   14.4320   62.5340  -13.7740 C   0  0  0  0  0  0  0  0  0  0  0  0
   13.8590   62.8640  -12.4420 C   0  0  0  0  0  0  0  0  0  0  0  0
   25.3520   62.7290   -5.2110 B   0  0  0  0  0  0  0  0  0  0  0  0
   23.6580   65.3860   -5.2370 H   0  0  0  0  0  0  0  0  0  0  0  0
   21.9140   66.0760   -6.9670 H   0  0  0  0  0  0  0  0  0  0  0  0
   21.0630   62.2780   -9.4420 H   0  0  0  0  0  0  0  0  0  0  0  0
   21.2630   63.2080  -10.9280 H   0  0  0  0  0  0  0  0  0  0  0  0
   15.1730   62.1340  -10.4900 H   0  0  0  0  0  0  0  0  0  0  0  0
   15.6650   59.6930  -10.0730 H   0  0  0  0  0  0  0  0  0  0  0  0
   17.9760   58.9540   -9.6650 H   0  0  0  0  0  0  0  0  0  0  0  0
   19.7540   60.6190   -9.6760 H   0  0  0  0  0  0  0  0  0  0  0  0
   19.8050   66.0640  -10.4350 H   0  0  0  0  0  0  0  0  0  0  0  0
   16.3640   65.9230  -10.7880 H   0  0  0  0  0  0  0  0  0  0  0  0
   15.2880   64.6370  -10.0530 H   0  0  0  0  0  0  0  0  0  0  0  0
   16.0350   63.4610  -12.3810 H   0  0  0  0  0  0  0  0  0  0  0  0
   15.8590   65.2560  -12.8270 H   0  0  0  0  0  0  0  0  0  0  0  0
   13.7600   64.4870  -11.1650 H   0  0  0  0  0  0  0  0  0  0  0  0
   12.3540   64.7080  -13.0210 H   0  0  0  0  0  0  0  0  0  0  0  0
   13.4640   66.1120  -12.7480 H   0  0  0  0  0  0  0  0  0  0  0  0
   14.8770   65.5450  -14.5760 H   0  0  0  0  0  0  0  0  0  0  0  0
   13.1990   65.3810  -15.1280 H   0  0  0  0  0  0  0  0  0  0  0  0
   13.2770   63.1640  -15.4560 H   0  0  0  0  0  0  0  0  0  0  0  0
   15.0510   63.4870  -15.5640 H   0  0  0  0  0  0  0  0  0  0  0  0
   14.0380   61.5310  -14.1240 H   0  0  0  0  0  0  0  0  0  0  0  0
   15.5300   62.3610  -13.6790 H   0  0  0  0  0  0  0  0  0  0  0  0
   12.7680   62.6490  -12.4250 H   0  0  0  0  0  0  0  0  0  0  0  0
   14.4000   62.2490  -11.6840 H   0  0  0  0  0  0  0  0  0  0  0  0
  1  2  1  0  0  0  0
  2  3  2  0  0  0  0
  2 27  1  0  0  0  0
  3 28  1  0  0  0  0
  4 29  1  0  0  0  0
  4  3  1  0  0  0  0
  5  1  1  0  0  0  0
  5  4  2  0  0  0  0
  6  5  1  0  0  0  0
  7  6  2  0  0  0  0
  8 30  1  0  0  0  0
  8  6  1  0  0  0  0
  9 10  1  0  0  0  0
  9  8  1  0  0  0  0
 10 15  1  0  0  0  0
 11 10  2  0  0  0  0
 12 11  1  0  0  0  0
 12 13  2  0  0  0  0
 13 33  1  0  0  0  0
 13 14  1  0  0  0  0
 14 34  1  0  0  0  0
 15 14  2  0  0  0  0
 15 35  1  0  0  0  0
 16 17  1  0  0  0  0
 16 11  1  0  0  0  0
 17  9  1  0  0  0  0
 18 36  1  0  0  0  0
 18 17  2  0  0  0  0
 19 16  1  0  0  0  0
 19 38  1  0  0  0  0
 20 21  1  0  0  0  0
 20 19  1  0  0  0  0
 21 41  1  0  0  0  0
 22 42  1  0  0  0  0
 22 43  1  0  0  0  0
 22 21  1  0  0  0  0
 23 22  1  0  0  0  0
 24 23  1  0  0  0  0
 24 25  1  0  0  0  0
 25 49  1  0  0  0  0
 25 26  1  0  0  0  0
 26 50  1  0  0  0  0
 26 21  1  0  0  0  0
 26 51  1  0  0  0  0
 31  8  1  0  0  0  0
 32 12  1  0  0  0  0
 37 19  1  0  0  0  0
 39 20  1  0  0  0  0
 40 20  1  0  0  0  0
 44 23  1  0  0  0  0
 45 23  1  0  0  0  0
 46 24  1  0  0  0  0
 47 24  1  0  0  0  0
 48 25  1  0  0  0  0
M  END
>  <Pose>
1

>  <Score>
-5.83

$$$$
