
 OpenBabel03202210193D

 58 61  0  0  1  0  0  0  0  0999 V2000
   17.0270   64.2630  -10.6470 S   0  0  0  0  0  0  0  0  0  0  0  0
   15.9250   62.9690  -10.5280 C   0  0  0  0  0  0  0  0  0  0  0  0
   16.7170   61.9420  -10.2940 N   0  0  0  0  0  0  0  0  0  0  0  0
   18.0010   62.1170  -10.2140 C   0  0  0  0  0  0  0  0  0  0  0  0
   18.4800   63.3940  -10.3810 C   0  0  0  0  0  0  0  0  0  0  0  0
   19.8770   63.8790  -10.3910 C   0  0  0  0  0  0  0  0  0  0  0  0
   20.4890   64.1630   -9.2790 C   0  0  0  0  0  0  0  0  0  0  0  0
   21.8990   64.6520   -9.1700 C   0  0  1  0  0  0  0  0  0  0  0  0
   22.3370   64.0720   -7.9280 N   0  0  0  0  0  0  0  0  0  0  0  0
   21.1830   64.0800   -7.0770 C   0  0  0  0  0  0  0  0  0  0  0  0
   21.1890   64.0450   -5.8340 O   0  0  0  0  0  0  0  0  0  0  0  0
   19.9900   64.1410   -7.9100 C   0  0  0  0  0  0  0  0  0  0  0  0
   18.7670   64.1740   -7.6030 O   0  0  0  0  0  0  0  0  0  0  0  0
   23.6670   63.6190   -7.6470 C   0  0  0  0  0  0  0  0  0  0  0  0
   24.2160   64.0310   -6.3450 C   0  0  0  0  0  0  0  0  0  0  0  0
   23.6110   63.5090   -5.1470 C   0  0  0  0  0  0  0  0  0  0  0  0
   24.0090   62.4570   -4.3390 N   0  0  0  0  0  4  0  0  0  0  0  0
   23.7540   62.7750   -2.8850 C   0  0  0  0  0  0  0  0  0  0  0  0
   24.8460   63.6590   -2.3800 C   0  0  0  0  0  0  0  0  0  0  0  0
   26.0110   62.9000   -2.3490 O   0  0  0  0  0  0  0  0  0  0  0  0
   26.3640   62.7030   -3.7030 C   0  0  0  0  0  0  0  0  0  0  0  0
   25.3130   61.8980   -4.4160 C   0  0  0  0  0  0  0  0  0  0  0  0
   22.6800   64.2810  -10.3590 C   0  0  0  0  0  0  0  0  0  0  0  0
   22.9900   63.0130  -10.7680 C   0  0  0  0  0  0  0  0  0  0  0  0
   23.7280   62.7080  -11.8890 C   0  0  0  0  0  0  0  0  0  0  0  0
   24.1960   63.7380  -12.6660 C   0  0  0  0  0  0  0  0  0  0  0  0
   23.9190   65.0310  -12.3080 C   0  0  0  0  0  0  0  0  0  0  0  0
   23.1780   65.3010  -11.1820 C   0  0  0  0  0  0  0  0  0  0  0  0
   25.2230   63.3100  -14.2270 B   0  0  0  0  0  0  0  0  0  0  0  0
   20.5570   64.0380  -11.6100 O   0  0  0  0  0  0  0  0  0  0  0  0
   18.9510   60.9440   -9.9890 C   0  0  0  0  0  0  0  0  0  0  0  0
   14.4260   62.9570  -10.6520 C   0  0  0  0  0  0  0  0  0  0  0  0
   21.9100   65.7520   -9.0340 H   0  0  0  0  0  0  0  0  0  0  0  0
   23.7670   62.5670   -7.8480 H   0  0  0  0  0  0  0  0  0  0  0  0
   24.3180   64.1160   -8.4700 H   0  0  0  0  0  0  0  0  0  0  0  0
   25.3360   63.9220   -6.4180 H   0  0  0  0  0  0  0  0  0  0  0  0
   24.1440   65.1800   -6.3490 H   0  0  0  0  0  0  0  0  0  0  0  0
   23.3890   64.4630   -4.4900 H   0  0  0  0  0  0  0  0  0  0  0  0
   22.5040   63.2840   -5.4240 H   0  0  0  0  0  0  0  0  0  0  0  0
   23.3530   61.6470   -4.4620 H   0  0  0  0  0  0  0  0  0  0  0  0
   22.7400   63.1220   -2.7950 H   0  0  0  0  0  0  0  0  0  0  0  0
   23.8450   61.8140   -2.3510 H   0  0  0  0  0  0  0  0  0  0  0  0
   24.5490   64.0200   -1.3760 H   0  0  0  0  0  0  0  0  0  0  0  0
   25.0640   64.5260   -3.0330 H   0  0  0  0  0  0  0  0  0  0  0  0
   27.3060   62.1190   -3.6860 H   0  0  0  0  0  0  0  0  0  0  0  0
   26.5810   63.6820   -4.1220 H   0  0  0  0  0  0  0  0  0  0  0  0
   25.3370   60.8910   -3.8370 H   0  0  0  0  0  0  0  0  0  0  0  0
   25.6360   61.6150   -5.3970 H   0  0  0  0  0  0  0  0  0  0  0  0
   22.6280   62.1880  -10.1710 H   0  0  0  0  0  0  0  0  0  0  0  0
   23.9200   61.6630  -12.1270 H   0  0  0  0  0  0  0  0  0  0  0  0
   24.3090   65.8290  -12.9530 H   0  0  0  0  0  0  0  0  0  0  0  0
   22.9710   66.3240  -10.9160 H   0  0  0  0  0  0  0  0  0  0  0  0
   19.9610   61.2100  -10.2650 H   0  0  0  0  0  0  0  0  0  0  0  0
   18.8880   60.5780   -8.9480 H   0  0  0  0  0  0  0  0  0  0  0  0
   18.6320   60.0870  -10.6360 H   0  0  0  0  0  0  0  0  0  0  0  0
   14.1310   63.7770  -11.3580 H   0  0  0  0  0  0  0  0  0  0  0  0
   14.0910   62.0140  -11.1580 H   0  0  0  0  0  0  0  0  0  0  0  0
   13.9370   63.0820   -9.6820 H   0  0  0  0  0  0  0  0  0  0  0  0
  1  2  1  0  0  0  0
  1  5  1  0  0  0  0
  2  3  2  0  0  0  0
  3  4  1  0  0  0  0
  4 31  1  0  0  0  0
  5  4  2  0  0  0  0
  6  5  1  0  0  0  0
  6  7  2  0  0  0  0
  7  8  1  0  0  0  0
  7 12  1  0  0  0  0
  8 33  1  1  0  0  0
  8  9  1  0  0  0  0
  9 14  1  0  0  0  0
  9 10  1  0  0  0  0
 10 11  2  0  0  0  0
 12 13  2  0  0  0  0
 12 10  1  0  0  0  0
 14 15  1  0  0  0  0
 15 16  1  0  0  0  0
 16 38  1  0  0  0  0
 16 17  1  0  0  0  0
 17 18  1  0  0  0  0
 18 41  1  0  0  0  0
 18 19  1  0  0  0  0
 18 42  1  0  0  0  0
 19 20  1  0  0  0  0
 19 43  1  0  0  0  0
 21 45  1  0  0  0  0
 21 20  1  0  0  0  0
 22 17  1  0  0  0  0
 22 47  1  0  0  0  0
 22 21  1  0  0  0  0
 23  8  1  0  0  0  0
 24 23  1  0  0  0  0
 24 49  1  0  0  0  0
 25 24  2  0  0  0  0
 26 27  2  0  0  0  0
 26 25  1  0  0  0  0
 27 28  1  0  0  0  0
 28 52  1  0  0  0  0
 28 23  2  0  0  0  0
 29 26  1  0  0  0  0
 30  6  1  0  0  0  0
 31 54  1  0  0  0  0
 32  2  1  0  0  0  0
 32 58  1  0  0  0  0
 34 14  1  0  0  0  0
 35 14  1  0  0  0  0
 36 15  1  0  0  0  0
 37 15  1  0  0  0  0
 39 16  1  0  0  0  0
 40 17  1  0  0  0  0
 44 19  1  0  0  0  0
 46 21  1  0  0  0  0
 48 22  1  0  0  0  0
 50 25  1  0  0  0  0
 51 27  1  0  0  0  0
 53 31  1  0  0  0  0
 55 31  1  0  0  0  0
 56 32  1  0  0  0  0
 57 32  1  0  0  0  0
M  END
>  <Pose>
1

>  <Score>
-7.28

$$$$
