
 OpenBabel03202210193D

 39 42  0  0  1  0  0  0  0  0999 V2000
   22.1310   64.2760  -10.3850 S   0  0  0  0  0  0  0  0  0  0  0  0
   22.0320   64.8220   -8.7590 C   0  0  0  0  0  0  0  0  0  0  0  0
   20.8660   64.2520   -8.3250 C   0  0  0  0  0  0  0  0  0  0  0  0
   20.1830   63.4960   -9.1990 C   0  0  0  0  0  0  0  0  0  0  0  0
   20.7070   63.3540  -10.4560 C   0  0  0  0  0  0  0  0  0  0  0  0
   19.9280   62.5040  -11.4170 C   0  0  0  0  0  0  0  0  0  0  0  0
   19.7110   61.2020  -10.7900 N   0  0  0  0  0  4  0  0  0  0  0  0
   19.1060   61.2900   -9.4970 C   0  0  0  0  0  0  0  0  0  0  0  0
   18.8770   62.7300   -9.0510 C   0  0  0  0  0  0  0  0  0  0  0  0
   21.0420   60.6220  -10.6150 C   0  0  0  0  0  0  0  0  0  0  0  0
   20.5190   64.5670   -6.9120 C   0  0  0  0  0  0  0  0  0  0  0  0
   19.4650   64.1020   -6.3860 O   0  0  0  0  0  0  0  0  0  0  0  0
   21.3920   65.3990   -6.1640 N   0  0  0  0  0  0  0  0  0  0  0  0
   22.7760   65.6110   -6.4700 C   0  0  2  0  0  0  0  0  0  0  0  0
   22.8650   65.6590   -7.9210 N   0  0  0  0  0  0  0  0  0  0  0  0
   23.6500   64.5270   -5.9580 C   0  0  0  0  0  0  0  0  0  0  0  0
   23.7970   64.2860   -4.6070 C   0  0  0  0  0  0  0  0  0  0  0  0
   24.6020   63.2840   -4.1140 C   0  0  0  0  0  0  0  0  0  0  0  0
   25.3020   62.4760   -4.9850 C   0  0  0  0  0  0  0  0  0  0  0  0
   25.1720   62.6970   -6.3360 C   0  0  0  0  0  0  0  0  0  0  0  0
   24.3610   63.7040   -6.8230 C   0  0  0  0  0  0  0  0  0  0  0  0
   26.1640   61.5480   -7.5130 B   0  0  0  0  0  0  0  0  0  0  0  0
   26.1160   61.4650   -4.4950 O   0  0  0  0  0  0  0  0  0  0  0  0
   24.7950   62.9630   -2.2560 B   0  0  0  0  0  0  0  0  0  0  0  0
   18.9920   62.9810  -11.7300 H   0  0  0  0  0  0  0  0  0  0  0  0
   20.5570   62.2990  -12.3120 H   0  0  0  0  0  0  0  0  0  0  0  0
   19.2120   60.5680  -11.4470 H   0  0  0  0  0  0  0  0  0  0  0  0
   19.7530   60.8400   -8.6890 H   0  0  0  0  0  0  0  0  0  0  0  0
   18.1420   60.7620   -9.4210 H   0  0  0  0  0  0  0  0  0  0  0  0
   18.5010   62.7580   -8.0320 H   0  0  0  0  0  0  0  0  0  0  0  0
   18.1940   63.1850   -9.7970 H   0  0  0  0  0  0  0  0  0  0  0  0
   21.7700   61.0370  -11.3480 H   0  0  0  0  0  0  0  0  0  0  0  0
   21.4410   60.9410   -9.6080 H   0  0  0  0  0  0  0  0  0  0  0  0
   21.0210   59.5290  -10.5990 H   0  0  0  0  0  0  0  0  0  0  0  0
   20.9740   65.8910   -5.3230 H   0  0  0  0  0  0  0  0  0  0  0  0
   23.1100   66.5690   -6.0450 H   0  0  0  0  0  0  0  0  0  0  0  0
   23.5270   66.2920   -8.4160 H   0  0  0  0  0  0  0  0  0  0  0  0
   23.2540   64.9110   -3.9150 H   0  0  0  0  0  0  0  0  0  0  0  0
   24.2690   63.8660   -7.8800 H   0  0  0  0  0  0  0  0  0  0  0  0
  1  2  1  0  0  0  0
  2  3  2  0  0  0  0
  2 15  1  0  0  0  0
  3 11  1  0  0  0  0
  4  9  1  0  0  0  0
  4  3  1  0  0  0  0
  5  1  1  0  0  0  0
  5  4  2  0  0  0  0
  6  7  1  0  0  0  0
  6  5  1  0  0  0  0
  7 10  1  0  0  0  0
  7  8  1  0  0  0  0
  8 29  1  0  0  0  0
  8  9  1  0  0  0  0
  8 28  1  0  0  0  0
  9 30  1  0  0  0  0
 10 34  1  0  0  0  0
 10 33  1  0  0  0  0
 11 12  2  0  0  0  0
 11 13  1  0  0  0  0
 13 35  1  0  0  0  0
 14 13  1  0  0  0  0
 14 36  1  1  0  0  0
 14 16  1  0  0  0  0
 15 14  1  0  0  0  0
 16 17  1  0  0  0  0
 17 18  2  0  0  0  0
 17 38  1  0  0  0  0
 18 24  1  0  0  0  0
 19 23  1  0  0  0  0
 19 18  1  0  0  0  0
 20 19  2  0  0  0  0
 21 20  1  0  0  0  0
 21 16  2  0  0  0  0
 22 20  1  0  0  0  0
 25  6  1  0  0  0  0
 26  6  1  0  0  0  0
 27  7  1  0  0  0  0
 31  9  1  0  0  0  0
 32 10  1  0  0  0  0
 37 15  1  0  0  0  0
 39 21  1  0  0  0  0
M  END
>  <Pose>
1

>  <Score>
-5.89

$$$$
