
 OpenBabel03202210193D

 42 45  0  0  1  0  0  0  0  0999 V2000
   19.3380   62.9810   -9.0540 S   0  0  0  0  0  0  0  0  0  0  0  0
   17.8790   63.8510   -9.6920 C   0  0  0  0  0  0  0  0  0  0  0  0
   18.1520   64.1750  -11.1500 C   0  0  0  0  0  0  0  0  0  0  0  0
   18.7510   62.9730  -11.8490 C   0  0  0  0  0  0  0  0  0  0  0  0
   20.1840   63.0200  -11.6050 N   0  0  0  0  0  0  0  0  0  0  0  0
   20.5830   63.0280  -10.3310 C   0  0  1  0  0  0  0  0  0  0  0  0
   21.9610   63.0740  -10.3010 N   0  0  0  0  0  0  0  0  0  0  0  0
   22.4150   63.0950  -11.5430 C   0  0  0  0  0  0  0  0  0  0  0  0
   21.2810   63.0600  -12.3510 C   0  0  0  0  0  0  0  0  0  0  0  0
   23.7730   63.1420  -12.0620 C   0  0  0  0  0  0  0  0  0  0  0  0
   23.9900   63.5830  -13.3750 C   0  0  0  0  0  0  0  0  0  0  0  0
   25.2430   63.6490  -13.9180 C   0  0  0  0  0  0  0  0  0  0  0  0
   26.3770   63.2930  -13.2240 C   0  0  0  0  0  0  0  0  0  0  0  0
   26.1760   62.8600  -11.9390 C   0  0  0  0  0  0  0  0  0  0  0  0
   24.8990   62.7840  -11.3620 C   0  0  0  0  0  0  0  0  0  0  0  0
   27.6330   63.3740  -13.8090 O   0  0  0  0  0  0  0  0  0  0  0  0
   27.7670   63.3600  -15.2180 C   0  0  0  0  0  0  0  0  0  0  0  0
   22.6860   63.0930   -9.0730 C   0  0  0  0  0  0  0  0  0  0  0  0
   23.3290   61.9580   -8.6120 C   0  0  0  0  0  0  0  0  0  0  0  0
   24.0640   61.9510   -7.4440 C   0  0  0  0  0  0  0  0  0  0  0  0
   24.1490   63.1260   -6.7240 C   0  0  0  0  0  0  0  0  0  0  0  0
   23.5050   64.2520   -7.1910 C   0  0  0  0  0  0  0  0  0  0  0  0
   22.7670   64.2810   -8.3540 C   0  0  0  0  0  0  0  0  0  0  0  0
   25.1480   63.2130   -5.0850 B   0  0  0  0  0  0  0  0  0  0  0  0
   16.9900   63.1960   -9.6400 H   0  0  0  0  0  0  0  0  0  0  0  0
   17.7650   64.7680   -9.0870 H   0  0  0  0  0  0  0  0  0  0  0  0
   17.2300   64.5270  -11.6570 H   0  0  0  0  0  0  0  0  0  0  0  0
   18.8720   65.0250  -11.1670 H   0  0  0  0  0  0  0  0  0  0  0  0
   18.3790   62.0640  -11.2940 H   0  0  0  0  0  0  0  0  0  0  0  0
   18.5050   62.9350  -12.9130 H   0  0  0  0  0  0  0  0  0  0  0  0
   21.2320   63.0630  -13.4360 H   0  0  0  0  0  0  0  0  0  0  0  0
   23.1320   63.8730  -13.9600 H   0  0  0  0  0  0  0  0  0  0  0  0
   25.4040   63.9960  -14.9520 H   0  0  0  0  0  0  0  0  0  0  0  0
   27.0190   62.5650  -11.3380 H   0  0  0  0  0  0  0  0  0  0  0  0
   24.8060   62.4390  -10.3550 H   0  0  0  0  0  0  0  0  0  0  0  0
   28.7970   63.4800  -15.5480 H   0  0  0  0  0  0  0  0  0  0  0  0
   27.0970   64.1610  -15.6490 H   0  0  0  0  0  0  0  0  0  0  0  0
   27.3700   62.4080  -15.6040 H   0  0  0  0  0  0  0  0  0  0  0  0
   23.2870   61.0130   -9.1500 H   0  0  0  0  0  0  0  0  0  0  0  0
   24.5730   61.0760   -7.0670 H   0  0  0  0  0  0  0  0  0  0  0  0
   23.5560   65.2010   -6.6390 H   0  0  0  0  0  0  0  0  0  0  0  0
   22.2670   65.1750   -8.7070 H   0  0  0  0  0  0  0  0  0  0  0  0
  2 25  1  0  0  0  0
  2 26  1  0  0  0  0
  2  1  1  0  0  0  0
  3  2  1  0  0  0  0
  4  5  1  0  0  0  0
  4 29  1  0  0  0  0
  4  3  1  0  0  0  0
  5  6  1  0  0  0  0
  6  7  1  0  0  0  0
  6  1  1  1  0  0  0
  7 18  1  0  0  0  0
  8  7  1  0  0  0  0
  9  5  1  0  0  0  0
  9  8  2  0  0  0  0
 10  8  1  0  0  0  0
 10 15  1  0  0  0  0
 11 10  2  0  0  0  0
 12 11  1  0  0  0  0
 12 13  2  0  0  0  0
 13 14  1  0  0  0  0
 14 15  2  0  0  0  0
 14 34  1  0  0  0  0
 15 35  1  0  0  0  0
 16 13  1  0  0  0  0
 17 16  1  0  0  0  0
 18 19  2  0  0  0  0
 18 23  1  0  0  0  0
 19 20  1  0  0  0  0
 20 40  1  0  0  0  0
 20 21  2  0  0  0  0
 21 24  1  0  0  0  0
 22 21  1  0  0  0  0
 22 41  1  0  0  0  0
 23 22  2  0  0  0  0
 27  3  1  0  0  0  0
 28  3  1  0  0  0  0
 30  4  1  0  0  0  0
 31  9  1  0  0  0  0
 32 11  1  0  0  0  0
 33 12  1  0  0  0  0
 36 17  1  0  0  0  0
 37 17  1  0  0  0  0
 38 17  1  0  0  0  0
 39 19  1  0  0  0  0
 42 23  1  0  0  0  0
M  END
>  <Pose>
1

>  <Score>
-4.92

$$$$
