
 OpenBabel03202210193D

 45 48  0  0  1  0  0  0  0  0999 V2000
   22.4070   66.8290   -6.3620 S   0  0  0  0  0  0  0  0  0  0  0  0
   23.5040   68.2960   -6.2520 C   0  0  0  0  0  0  0  0  0  0  0  0
   24.5050   68.1080   -7.3940 C   0  0  0  0  0  0  0  0  0  0  0  0
   25.3660   66.8940   -7.0590 C   0  0  0  0  0  0  0  0  0  0  0  0
   24.6410   65.7240   -7.4900 N   0  0  1  0  0  0  0  0  0  0  0  0
   23.3640   65.6000   -7.2410 C   0  0  2  0  0  0  0  0  0  0  0  0
   22.9340   64.3370   -7.8150 N   0  0  0  0  0  0  0  0  0  0  0  0
   24.0930   63.5060   -7.5740 C   0  0  2  0  0  0  0  0  0  0  0  0
   25.0780   64.5400   -8.2360 C   0  0  0  0  0  0  0  0  0  0  0  0
   24.1140   62.3100   -8.2190 O   0  0  0  0  0  0  0  0  0  0  0  0
   24.3800   63.4630   -6.1350 C   0  0  0  0  0  0  0  0  0  0  0  0
   25.5650   62.9710   -5.6160 C   0  0  0  0  0  0  0  0  0  0  0  0
   25.7520   62.9330   -4.2250 C   0  0  0  0  0  0  0  0  0  0  0  0
   24.8160   63.3570   -3.3600 C   0  0  0  0  0  0  0  0  0  0  0  0
   23.5980   63.8670   -3.8560 C   0  0  0  0  0  0  0  0  0  0  0  0
   23.4530   63.8890   -5.2320 C   0  0  0  0  0  0  0  0  0  0  0  0
   24.9660   63.3330   -1.9490 O   0  0  0  0  0  0  0  0  0  0  0  0
   26.0810   62.6970   -1.3610 C   0  0  0  0  0  0  0  0  0  0  0  0
   21.7240   64.0800   -8.4910 C   0  0  0  0  0  0  0  0  0  0  0  0
   21.3690   64.9430   -9.5560 C   0  0  0  0  0  0  0  0  0  0  0  0
   20.1760   64.8020  -10.2440 C   0  0  0  0  0  0  0  0  0  0  0  0
   19.2860   63.8160   -9.9170 C   0  0  0  0  0  0  0  0  0  0  0  0
   19.6030   62.9590   -8.8840 C   0  0  0  0  0  0  0  0  0  0  0  0
   20.8190   63.1080   -8.1910 C   0  0  0  0  0  0  0  0  0  0  0  0
   17.6190   63.5940  -10.8230 B   0  0  0  0  0  0  0  0  0  0  0  0
   22.8660   69.1730   -6.4610 H   0  0  0  0  0  0  0  0  0  0  0  0
   24.0150   68.3320   -5.2800 H   0  0  0  0  0  0  0  0  0  0  0  0
   25.0810   69.0140   -7.5830 H   0  0  0  0  0  0  0  0  0  0  0  0
   23.8750   67.8810   -8.3030 H   0  0  0  0  0  0  0  0  0  0  0  0
   26.3270   66.9760   -7.6160 H   0  0  0  0  0  0  0  0  0  0  0  0
   25.6390   66.8370   -5.9990 H   0  0  0  0  0  0  0  0  0  0  0  0
   26.1020   64.2700   -8.1160 H   0  0  0  0  0  0  0  0  0  0  0  0
   24.6950   64.6250   -9.2740 H   0  0  0  0  0  0  0  0  0  0  0  0
   23.1720   62.0770   -8.4870 H   0  0  0  0  0  0  0  0  0  0  0  0
   26.3300   62.6210   -6.2720 H   0  0  0  0  0  0  0  0  0  0  0  0
   26.6960   62.5390   -3.8670 H   0  0  0  0  0  0  0  0  0  0  0  0
   22.8440   64.2030   -3.1820 H   0  0  0  0  0  0  0  0  0  0  0  0
   22.5080   64.2930   -5.5740 H   0  0  0  0  0  0  0  0  0  0  0  0
   26.1810   63.0730   -0.3280 H   0  0  0  0  0  0  0  0  0  0  0  0
   27.0410   62.9140   -1.8690 H   0  0  0  0  0  0  0  0  0  0  0  0
   25.9560   61.5750   -1.3430 H   0  0  0  0  0  0  0  0  0  0  0  0
   22.0390   65.7260   -9.8380 H   0  0  0  0  0  0  0  0  0  0  0  0
   19.9170   65.4760  -11.0600 H   0  0  0  0  0  0  0  0  0  0  0  0
   18.9130   62.1830   -8.6080 H   0  0  0  0  0  0  0  0  0  0  0  0
   21.0410   62.4210   -7.3750 H   0  0  0  0  0  0  0  0  0  0  0  0
  1  2  1  0  0  0  0
  2 27  1  0  0  0  0
  3  4  1  0  0  0  0
  3  2  1  0  0  0  0
  4 31  1  0  0  0  0
  5  9  1  6  0  0  0
  5  6  1  0  0  0  0
  5  4  1  0  0  0  0
  6  1  1  6  0  0  0
  7  8  1  0  0  0  0
  7  6  1  0  0  0  0
  8 10  1  6  0  0  0
  8 11  1  0  0  0  0
  9 32  1  0  0  0  0
  9  8  1  0  0  0  0
 11 12  2  0  0  0  0
 11 16  1  0  0  0  0
 12 13  1  0  0  0  0
 13 36  1  0  0  0  0
 13 14  2  0  0  0  0
 14 17  1  0  0  0  0
 15 14  1  0  0  0  0
 15 37  1  0  0  0  0
 16 15  2  0  0  0  0
 17 18  1  0  0  0  0
 18 41  1  0  0  0  0
 18 39  1  0  0  0  0
 19 24  1  0  0  0  0
 19  7  1  0  0  0  0
 20 19  2  0  0  0  0
 21 22  2  0  0  0  0
 21 20  1  0  0  0  0
 22 23  1  0  0  0  0
 23 44  1  0  0  0  0
 23 24  2  0  0  0  0
 24 45  1  0  0  0  0
 25 22  1  0  0  0  0
 26  2  1  0  0  0  0
 28  3  1  0  0  0  0
 29  3  1  0  0  0  0
 30  4  1  0  0  0  0
 33  9  1  0  0  0  0
 34 10  1  0  0  0  0
 35 12  1  0  0  0  0
 38 16  1  0  0  0  0
 40 18  1  0  0  0  0
 42 20  1  0  0  0  0
 43 21  1  0  0  0  0
M  END
>  <Pose>
1

>  <Score>
-4.01

$$$$
