
 OpenBabel03202210193D

 49 52  0  0  1  0  0  0  0  0999 V2000
   23.9850   63.1090   -8.6190 S   0  0  0  0  0  0  0  0  0  0  0  0
   23.1170   63.2430  -10.1620 C   0  0  0  0  0  0  0  0  0  0  0  0
   22.1480   64.4070  -10.1020 C   0  0  0  0  0  0  0  0  0  0  0  0
   21.1440   64.1660   -8.9880 C   0  0  0  0  0  0  0  0  0  0  0  0
   21.7670   64.3960   -7.7050 N   0  0  2  0  0  0  0  0  0  0  0  0
   21.4250   65.2560   -6.6190 C   0  0  2  0  0  0  0  0  0  0  0  0
   21.8990   64.3990   -5.4560 C   0  0  0  0  0  0  0  0  0  0  0  0
   23.0860   63.7640   -5.9820 N   0  0  0  0  0  0  0  0  0  0  0  0
   22.9640   63.7300   -7.2640 C   0  0  2  0  0  0  0  0  0  0  0  0
   24.2110   63.2950   -5.2530 C   0  0  0  0  0  0  0  0  0  0  0  0
   24.0280   63.0510   -3.8980 C   0  0  0  0  0  0  0  0  0  0  0  0
   25.0940   62.6120   -3.1070 C   0  0  0  0  0  0  0  0  0  0  0  0
   26.3390   62.4220   -3.6800 C   0  0  0  0  0  0  0  0  0  0  0  0
   26.5560   62.6540   -5.0180 C   0  0  0  0  0  0  0  0  0  0  0  0
   25.4420   63.0940   -5.7580 C   0  0  0  0  0  0  0  0  0  0  0  0
   27.7760   62.4830   -5.6500 O   0  0  0  0  0  0  0  0  0  0  0  0
   28.9350   61.9560   -5.0700 C   0  0  0  0  0  0  0  0  0  0  0  0
   22.7860   63.2430   -3.3310 O   0  0  0  0  0  0  0  0  0  0  0  0
   22.5540   63.7700   -2.0460 C   0  0  0  0  0  0  0  0  0  0  0  0
   20.0480   65.4460   -6.5690 O   0  0  0  0  0  0  0  0  0  0  0  0
   22.1610   66.5340   -6.5570 C   0  0  0  0  0  0  0  0  0  0  0  0
   23.5110   66.6860   -6.5550 C   0  0  0  0  0  0  0  0  0  0  0  0
   24.1040   67.9460   -6.4560 C   0  0  0  0  0  0  0  0  0  0  0  0
   23.3400   69.0890   -6.3550 C   0  0  0  0  0  0  0  0  0  0  0  0
   21.9860   68.9480   -6.3570 C   0  0  0  0  0  0  0  0  0  0  0  0
   21.4060   67.7140   -6.4540 C   0  0  0  0  0  0  0  0  0  0  0  0
   24.1690   70.8130   -6.2140 B   0  0  0  0  0  0  0  0  0  0  0  0
   23.8170   63.4100  -11.0240 H   0  0  0  0  0  0  0  0  0  0  0  0
   22.5010   62.3170  -10.3440 H   0  0  0  0  0  0  0  0  0  0  0  0
   22.7130   65.3460   -9.8990 H   0  0  0  0  0  0  0  0  0  0  0  0
   21.5800   64.4880  -11.0400 H   0  0  0  0  0  0  0  0  0  0  0  0
   20.3260   64.9200   -9.1410 H   0  0  0  0  0  0  0  0  0  0  0  0
   20.7830   63.1250   -9.0740 H   0  0  0  0  0  0  0  0  0  0  0  0
   22.0550   65.1100   -4.6460 H   0  0  0  0  0  0  0  0  0  0  0  0
   21.1170   63.6560   -5.2150 H   0  0  0  0  0  0  0  0  0  0  0  0
   24.9320   62.4230   -2.0440 H   0  0  0  0  0  0  0  0  0  0  0  0
   27.1880   62.0850   -3.0900 H   0  0  0  0  0  0  0  0  0  0  0  0
   25.6500   63.2650   -6.7860 H   0  0  0  0  0  0  0  0  0  0  0  0
   29.6430   61.5840   -5.8760 H   0  0  0  0  0  0  0  0  0  0  0  0
   29.4210   62.8330   -4.5520 H   0  0  0  0  0  0  0  0  0  0  0  0
   28.7470   61.1110   -4.3780 H   0  0  0  0  0  0  0  0  0  0  0  0
   23.2690   63.3510   -1.3300 H   0  0  0  0  0  0  0  0  0  0  0  0
   22.7340   64.8760   -2.0270 H   0  0  0  0  0  0  0  0  0  0  0  0
   21.5250   63.5210   -1.6870 H   0  0  0  0  0  0  0  0  0  0  0  0
   19.8160   66.0680   -5.8430 H   0  0  0  0  0  0  0  0  0  0  0  0
   24.1350   65.8250   -6.6320 H   0  0  0  0  0  0  0  0  0  0  0  0
   25.2080   68.0430   -6.4590 H   0  0  0  0  0  0  0  0  0  0  0  0
   21.4120   69.8640   -6.2770 H   0  0  0  0  0  0  0  0  0  0  0  0
   20.3310   67.6470   -6.4490 H   0  0  0  0  0  0  0  0  0  0  0  0
  2  3  1  0  0  0  0
  2  1  1  0  0  0  0
  3 30  1  0  0  0  0
  3  4  1  0  0  0  0
  5  4  1  6  0  0  0
  5  9  1  0  0  0  0
  5  6  1  0  0  0  0
  6 20  1  1  0  0  0
  6 21  1  0  0  0  0
  6  7  1  0  0  0  0
  7 35  1  0  0  0  0
  7 34  1  0  0  0  0
  8  7  1  0  0  0  0
  8 10  1  0  0  0  0
  9  1  1  6  0  0  0
  9  8  1  0  0  0  0
 10 11  1  0  0  0  0
 11 18  1  0  0  0  0
 11 12  2  0  0  0  0
 12 36  1  0  0  0  0
 13 12  1  0  0  0  0
 13 37  1  0  0  0  0
 14 13  2  0  0  0  0
 15 10  2  0  0  0  0
 15 14  1  0  0  0  0
 16 17  1  0  0  0  0
 16 14  1  0  0  0  0
 17 40  1  0  0  0  0
 17 41  1  0  0  0  0
 18 19  1  0  0  0  0
 19 43  1  0  0  0  0
 19 44  1  0  0  0  0
 19 42  1  0  0  0  0
 20 45  1  0  0  0  0
 21 22  2  0  0  0  0
 21 26  1  0  0  0  0
 22 23  1  0  0  0  0
 23 24  2  0  0  0  0
 24 27  1  0  0  0  0
 25 24  1  0  0  0  0
 25 48  1  0  0  0  0
 26 49  1  0  0  0  0
 26 25  2  0  0  0  0
 28  2  1  0  0  0  0
 29  2  1  0  0  0  0
 31  3  1  0  0  0  0
 32  4  1  0  0  0  0
 33  4  1  0  0  0  0
 38 15  1  0  0  0  0
 39 17  1  0  0  0  0
 46 22  1  0  0  0  0
 47 23  1  0  0  0  0
M  END
>  <Pose>
1

>  <Score>
-5.11

$$$$
