
 OpenBabel03202210193D

 49 52  0  0  0  0  0  0  0  0999 V2000
   23.0300   69.4680   -6.6400 S   0  0  0  0  0  0  0  0  0  0  0  0
   23.8140   70.2150   -5.1780 C   0  0  0  0  0  0  0  0  0  0  0  0
   23.4110   69.2200   -4.1380 C   0  0  0  0  0  0  0  0  0  0  0  0
   22.9080   68.0500   -4.6530 N   0  0  0  0  0  0  0  0  0  0  0  0
   22.6340   67.9060   -5.8520 C   0  0  0  0  0  0  0  0  0  0  0  0
   21.9790   66.5140   -6.7620 S   0  0  0  0  0  0  0  0  0  0  0  0
   22.0920   64.9850   -5.8570 C   0  0  0  0  0  0  0  0  0  0  0  0
   23.1230   64.0250   -6.2830 C   0  0  0  0  0  0  0  0  0  0  0  0
   24.0860   63.4850   -5.5260 N   0  0  0  0  0  0  0  0  0  0  0  0
   24.7960   62.6980   -6.3540 N   0  0  0  0  0  0  0  0  0  0  0  0
   24.3260   62.7340   -7.5480 N   0  0  0  0  0  0  0  0  0  0  0  0
   23.2310   63.5750   -7.6040 C   0  0  0  0  0  0  0  0  0  0  0  0
   22.4840   63.8440   -8.8050 C   0  0  0  0  0  0  0  0  0  0  0  0
   23.1040   63.6580   -9.9250 O   0  0  0  0  0  0  0  0  0  0  0  0
   21.1700   64.2830   -8.9290 N   0  0  0  0  0  0  0  0  0  0  0  0
   20.1030   63.3240   -9.0370 N   0  0  0  0  0  0  0  0  0  0  0  0
   19.2590   63.3600   -9.9900 C   0  0  0  0  0  0  0  0  0  0  0  0
   18.1660   62.4080  -10.1360 C   0  0  0  0  0  0  0  0  0  0  0  0
   16.9340   62.7880  -10.6180 C   0  0  0  0  0  0  0  0  0  0  0  0
   15.8920   61.8970  -10.7680 C   0  0  0  0  0  0  0  0  0  0  0  0
   16.0430   60.5750  -10.4360 C   0  0  0  0  0  0  0  0  0  0  0  0
   17.2870   60.1520   -9.9420 C   0  0  0  0  0  0  0  0  0  0  0  0
   18.3090   61.0670   -9.8040 C   0  0  0  0  0  0  0  0  0  0  0  0
   17.3700   58.8150   -9.6290 O   0  0  0  0  0  0  0  0  0  0  0  0
   17.0110   58.2350   -8.4000 C   0  0  0  0  0  0  0  0  0  0  0  0
   14.9820   59.6970  -10.5950 O   0  0  0  0  0  0  0  0  0  0  0  0
   14.1990   62.4730  -11.4410 B   0  0  0  0  0  0  0  0  0  0  0  0
   24.4260   63.6430   -4.1510 C   0  0  0  0  0  0  0  0  0  0  0  0
   25.3270   64.4840   -3.6020 N   0  0  0  0  0  0  0  0  0  0  0  0
   25.3640   64.3860   -2.3260 O   0  0  0  0  0  0  0  0  0  0  0  0
   24.5020   63.4870   -1.9680 N   0  0  0  0  0  0  0  0  0  0  0  0
   23.8760   62.9820   -3.0730 C   0  0  0  0  0  0  0  0  0  0  0  0
   22.8610   61.9990   -3.0880 N   0  0  0  0  0  4  0  0  0  0  0  0
   24.9000   70.3280   -5.2990 H   0  0  0  0  0  0  0  0  0  0  0  0
   23.2790   71.1630   -4.9720 H   0  0  0  0  0  0  0  0  0  0  0  0
   22.7980   69.6950   -3.3320 H   0  0  0  0  0  0  0  0  0  0  0  0
   24.3740   68.9580   -3.5850 H   0  0  0  0  0  0  0  0  0  0  0  0
   21.0970   64.5100   -5.8800 H   0  0  0  0  0  0  0  0  0  0  0  0
   22.3160   65.1770   -4.7580 H   0  0  0  0  0  0  0  0  0  0  0  0
   20.8120   65.2530   -8.9640 H   0  0  0  0  0  0  0  0  0  0  0  0
   19.3600   64.1330  -10.7270 H   0  0  0  0  0  0  0  0  0  0  0  0
   16.7980   63.8360  -10.8850 H   0  0  0  0  0  0  0  0  0  0  0  0
   19.2600   60.7260   -9.4200 H   0  0  0  0  0  0  0  0  0  0  0  0
   17.6900   57.3740   -8.1410 H   0  0  0  0  0  0  0  0  0  0  0  0
   16.9870   58.9830   -7.5980 H   0  0  0  0  0  0  0  0  0  0  0  0
   16.0040   57.7500   -8.5340 H   0  0  0  0  0  0  0  0  0  0  0  0
   23.2970   61.0780   -2.8190 H   0  0  0  0  0  0  0  0  0  0  0  0
   22.3610   61.9090   -3.9900 H   0  0  0  0  0  0  0  0  0  0  0  0
   22.1610   62.2220   -2.3290 H   0  0  0  0  0  0  0  0  0  0  0  0
  1  5  1  0  0  0  0
  1  2  1  0  0  0  0
  2 35  1  0  0  0  0
  2  3  1  0  0  0  0
  3 37  1  0  0  0  0
  3 36  1  0  0  0  0
  4  3  1  0  0  0  0
  5  4  2  0  0  0  0
  6  7  1  0  0  0  0
  6  5  1  0  0  0  0
  7 39  1  0  0  0  0
  8  7  1  0  0  0  0
  8  9  1  0  0  0  0
  9 28  1  0  0  0  0
 10  9  1  0  0  0  0
 11 10  2  0  0  0  0
 12 11  1  0  0  0  0
 12  8  2  0  0  0  0
 13 12  1  0  0  0  0
 14 13  2  0  0  0  0
 15 13  1  0  0  0  0
 16 15  1  0  0  0  0
 17 16  2  0  0  0  0
 18 17  1  0  0  0  0
 18 23  1  0  0  0  0
 19 18  2  0  0  0  0
 20 19  1  0  0  0  0
 20 21  2  0  0  0  0
 21 22  1  0  0  0  0
 22 23  2  0  0  0  0
 22 24  1  0  0  0  0
 23 43  1  0  0  0  0
 24 25  1  0  0  0  0
 25 44  1  0  0  0  0
 25 45  1  0  0  0  0
 26 21  1  0  0  0  0
 27 20  1  0  0  0  0
 28 29  2  0  0  0  0
 28 32  1  0  0  0  0
 29 30  1  0  0  0  0
 30 31  1  0  0  0  0
 32 31  2  0  0  0  0
 33 32  1  0  0  0  0
 33 47  1  0  0  0  0
 33 49  1  0  0  0  0
 34  2  1  0  0  0  0
 38  7  1  0  0  0  0
 40 15  1  0  0  0  0
 41 17  1  0  0  0  0
 42 19  1  0  0  0  0
 46 25  1  0  0  0  0
 48 33  1  0  0  0  0
M  END
>  <Pose>
1

>  <Score>
-11.25

$$$$
