
 OpenBabel03202210193D

 25 28  0  0  0  0  0  0  0  0999 V2000
   22.4250   63.7350  -10.1810 S   0  0  0  0  0  0  0  0  0  0  0  0
   21.1340   63.2170  -11.1900 C   0  0  0  0  0  0  0  0  0  0  0  0
   20.0790   63.6520  -10.5030 N   0  0  0  0  0  0  0  0  0  0  0  0
   19.0020   63.2650  -11.2670 C   0  0  0  0  0  0  0  0  0  0  0  0
   19.4340   62.6280  -12.3540 N   0  0  0  0  0  0  0  0  0  0  0  0
   20.7500   62.5790  -12.3410 N   0  0  0  0  0  0  0  0  0  0  0  0
   17.5790   63.5070  -10.9490 C   0  0  0  0  0  0  0  0  0  0  0  0
   16.7060   62.4870  -10.8480 N   0  0  0  0  0  0  0  0  0  0  0  0
   15.4070   62.7220  -10.5570 C   0  0  0  0  0  0  0  0  0  0  0  0
   14.9620   64.0000  -10.3600 C   0  0  0  0  0  0  0  0  0  0  0  0
   15.8400   65.0000  -10.4630 N   0  0  0  0  0  0  0  0  0  0  0  0
   17.1430   64.7940  -10.7530 C   0  0  0  0  0  0  0  0  0  0  0  0
   20.2650   64.2680   -9.4070 N   0  0  0  0  0  0  0  0  0  0  0  0
   21.4810   64.4790   -8.9440 C   0  0  0  0  0  0  0  0  0  0  0  0
   21.9250   65.1560   -7.7210 C   0  0  0  0  0  0  0  0  0  0  0  0
   21.4470   66.3030   -7.2230 N   0  0  0  0  0  0  0  0  0  0  0  0
   22.1060   66.6000   -6.0910 N   0  0  0  0  0  0  0  0  0  0  0  0
   23.0180   65.6360   -5.8540 C   0  0  0  0  0  0  0  0  0  0  0  0
   22.9000   64.7140   -6.8970 C   0  0  0  0  0  0  0  0  0  0  0  0
   23.9570   63.1590   -7.0470 B   0  0  0  0  0  0  0  0  0  0  0  0
   14.7500   61.8870  -10.4870 H   0  0  0  0  0  0  0  0  0  0  0  0
   13.9400   64.1840  -10.1300 H   0  0  0  0  0  0  0  0  0  0  0  0
   17.8520   65.6190  -10.8350 H   0  0  0  0  0  0  0  0  0  0  0  0
   21.9260   67.4460   -5.5040 H   0  0  0  0  0  0  0  0  0  0  0  0
   23.6830   65.6340   -5.0050 H   0  0  0  0  0  0  0  0  0  0  0  0
  1 14  1  0  0  0  0
  2  3  1  0  0  0  0
  2  1  1  0  0  0  0
  3 13  1  0  0  0  0
  4  7  1  0  0  0  0
  4  3  1  0  0  0  0
  5  6  1  0  0  0  0
  5  4  2  0  0  0  0
  6  2  2  0  0  0  0
  7  8  2  0  0  0  0
  7 12  1  0  0  0  0
  8  9  1  0  0  0  0
  9 21  1  0  0  0  0
  9 10  2  0  0  0  0
 10 22  1  0  0  0  0
 11 10  1  0  0  0  0
 12 11  2  0  0  0  0
 13 14  2  0  0  0  0
 14 15  1  0  0  0  0
 15 16  2  0  0  0  0
 15 19  1  0  0  0  0
 16 17  1  0  0  0  0
 17 18  1  0  0  0  0
 17 24  1  0  0  0  0
 18 25  1  0  0  0  0
 19 18  2  0  0  0  0
 20 19  1  0  0  0  0
 23 12  1  0  0  0  0
M  END
>  <Pose>
1

>  <Score>
-7.67

$$$$
