
 OpenBabel03202210193D

 40 43  0  0  1  0  0  0  0  0999 V2000
   20.2280   62.8470  -11.3630 S   0  0  0  0  0  0  0  0  0  0  0  0
   19.5750   61.8940   -9.9990 C   0  0  1  0  0  0  0  0  0  0  0  0
   18.7190   60.9670   -9.7140 N   0  0  0  0  0  0  0  0  0  0  0  0
   18.7140   60.6660   -8.3320 C   0  0  0  0  0  0  0  0  0  0  0  0
   19.7430   61.5750   -7.7440 C   0  0  0  0  0  0  0  0  0  0  0  0
   20.2860   62.3600   -8.8780 N   0  0  0  0  0  0  0  0  0  0  0  0
   21.2350   63.3600   -9.1170 C   0  0  0  0  0  0  0  0  0  0  0  0
   21.3770   63.7740  -10.3560 C   0  0  0  0  0  0  0  0  0  0  0  0
   22.1040   63.9750   -8.0600 C   0  0  0  0  0  0  0  0  0  0  0  0
   21.8560   65.2370   -7.5700 C   0  0  0  0  0  0  0  0  0  0  0  0
   22.6240   65.8500   -6.6030 C   0  0  0  0  0  0  0  0  0  0  0  0
   23.7110   65.1960   -6.0710 C   0  0  0  0  0  0  0  0  0  0  0  0
   23.9790   63.9420   -6.5420 C   0  0  0  0  0  0  0  0  0  0  0  0
   23.1890   63.3250   -7.5300 C   0  0  0  0  0  0  0  0  0  0  0  0
   17.8920   60.3380  -10.7600 C   0  0  0  0  0  0  0  0  0  0  0  0
   16.4820   60.5210  -10.3620 C   0  0  0  0  0  0  0  0  0  0  0  0
   15.8230   59.5900   -9.8580 O   0  0  0  0  0  0  0  0  0  0  0  0
   15.8310   61.8090  -10.5560 C   0  0  0  0  0  0  0  0  0  0  0  0
   14.4990   61.8860  -10.9680 C   0  0  0  0  0  0  0  0  0  0  0  0
   13.8590   63.0940  -11.1680 C   0  0  0  0  0  0  0  0  0  0  0  0
   14.5780   64.2390  -10.9460 C   0  0  0  0  0  0  0  0  0  0  0  0
   15.8990   64.2150  -10.5360 C   0  0  0  0  0  0  0  0  0  0  0  0
   16.5230   62.9820  -10.3410 C   0  0  0  0  0  0  0  0  0  0  0  0
   13.6800   65.9100  -11.2240 B   0  0  0  0  0  0  0  0  0  0  0  0
   18.9260   59.5810   -8.1210 H   0  0  0  0  0  0  0  0  0  0  0  0
   17.6850   60.8200   -7.9100 H   0  0  0  0  0  0  0  0  0  0  0  0
   20.5360   60.9260   -7.3160 H   0  0  0  0  0  0  0  0  0  0  0  0
   19.2210   62.2160   -7.0160 H   0  0  0  0  0  0  0  0  0  0  0  0
   22.0600   64.5470  -10.7570 H   0  0  0  0  0  0  0  0  0  0  0  0
   21.0120   65.8150   -7.9430 H   0  0  0  0  0  0  0  0  0  0  0  0
   22.3820   66.8420   -6.2540 H   0  0  0  0  0  0  0  0  0  0  0  0
   24.3100   65.6770   -5.3160 H   0  0  0  0  0  0  0  0  0  0  0  0
   24.8270   63.3730   -6.1610 H   0  0  0  0  0  0  0  0  0  0  0  0
   23.4440   62.3390   -7.8610 H   0  0  0  0  0  0  0  0  0  0  0  0
   18.0930   60.9710  -11.6710 H   0  0  0  0  0  0  0  0  0  0  0  0
   18.1870   59.3060  -10.9350 H   0  0  0  0  0  0  0  0  0  0  0  0
   13.9610   60.9750  -11.1330 H   0  0  0  0  0  0  0  0  0  0  0  0
   12.8430   63.1510  -11.4840 H   0  0  0  0  0  0  0  0  0  0  0  0
   16.4650   65.1090  -10.3620 H   0  0  0  0  0  0  0  0  0  0  0  0
   17.5550   62.9960  -10.0210 H   0  0  0  0  0  0  0  0  0  0  0  0
  1  8  1  0  0  0  0
  2  1  1  6  0  0  0
  2  3  1  0  0  0  0
  2  6  1  0  0  0  0
  3  4  1  0  0  0  0
  4 25  1  0  0  0  0
  4 26  1  0  0  0  0
  4  5  1  0  0  0  0
  5 27  1  0  0  0  0
  5 28  1  0  0  0  0
  6  5  1  0  0  0  0
  7  6  1  0  0  0  0
  7  9  1  0  0  0  0
  8  7  2  0  0  0  0
  9 10  2  0  0  0  0
  9 14  1  0  0  0  0
 10 11  1  0  0  0  0
 11 31  1  0  0  0  0
 11 12  2  0  0  0  0
 12 32  1  0  0  0  0
 13 33  1  0  0  0  0
 13 12  1  0  0  0  0
 14 13  2  0  0  0  0
 15 16  1  0  0  0  0
 15  3  1  0  0  0  0
 16 17  2  0  0  0  0
 18 16  1  0  0  0  0
 18 23  1  0  0  0  0
 19 18  2  0  0  0  0
 20 19  1  0  0  0  0
 20 21  2  0  0  0  0
 21 22  1  0  0  0  0
 22 39  1  0  0  0  0
 22 23  2  0  0  0  0
 23 40  1  0  0  0  0
 24 21  1  0  0  0  0
 29  8  1  0  0  0  0
 30 10  1  0  0  0  0
 34 14  1  0  0  0  0
 35 15  1  0  0  0  0
 36 15  1  0  0  0  0
 37 19  1  0  0  0  0
 38 20  1  0  0  0  0
M  END
>  <Pose>
1

>  <Score>
-5.44

$$$$
