
 OpenBabel03202210193D

 63 66  0  0  1  0  0  0  0  0999 V2000
   26.0030   62.8670   -5.1870 B   0  0  0  0  0  0  0  0  0  0  0  0
   24.3680   63.6200   -5.8580 C   0  0  0  0  0  0  0  0  0  0  0  0
   23.7840   63.1140   -7.0260 C   0  0  0  0  0  0  0  0  0  0  0  0
   22.6040   63.6400   -7.5320 C   0  0  0  0  0  0  0  0  0  0  0  0
   22.0420   64.6740   -6.8350 C   0  0  0  0  0  0  0  0  0  0  0  0
   22.6060   65.1890   -5.6750 C   0  0  0  0  0  0  0  0  0  0  0  0
   23.7750   64.6560   -5.1850 C   0  0  0  0  0  0  0  0  0  0  0  0
   22.0290   63.1040   -8.7740 C   0  0  1  0  0  0  0  0  0  0  0  0
   20.8290   63.8330   -9.1320 N   0  0  0  0  0  0  0  0  0  0  0  0
   21.2470   65.0360   -9.7550 C   0  0  0  0  0  0  0  0  0  0  0  0
   20.5990   66.0870   -9.7890 O   0  0  0  0  0  0  0  0  0  0  0  0
   22.5760   64.7670  -10.3310 C   0  0  0  0  0  0  0  0  0  0  0  0
   23.3060   65.5570  -10.9780 O   0  0  0  0  0  0  0  0  0  0  0  0
   22.8630   63.3790   -9.9920 C   0  0  0  0  0  0  0  0  0  0  0  0
   23.6660   62.5710  -10.6710 C   0  0  0  0  0  0  0  0  0  0  0  0
   23.7530   61.2470  -10.1790 O   0  0  0  0  0  0  0  0  0  0  0  0
   24.4260   62.9750  -11.8480 C   0  0  0  0  0  0  0  0  0  0  0  0
   23.8710   63.3070  -13.0480 C   0  0  0  0  0  0  0  0  0  0  0  0
   24.6820   63.6370  -14.1490 C   0  0  0  0  0  0  0  0  0  0  0  0
   26.0490   63.6440  -14.0810 C   0  0  0  0  0  0  0  0  0  0  0  0
   26.6120   63.3100  -12.8680 C   0  0  0  0  0  0  0  0  0  0  0  0
   25.8320   62.9870  -11.7890 C   0  0  0  0  0  0  0  0  0  0  0  0
   26.8580   63.9720  -15.1690 O   0  0  0  0  0  0  0  0  0  0  0  0
   27.9160   63.1320  -15.5530 C   0  0  0  0  0  0  0  0  0  0  0  0
   22.3990   63.3740  -13.2020 C   0  0  0  0  0  0  0  0  0  0  0  0
   19.4830   63.3700   -8.8690 C   0  0  0  0  0  0  0  0  0  0  0  0
   18.5730   63.4630  -10.0530 C   0  0  0  0  0  0  0  0  0  0  0  0
   18.1130   62.1750  -10.6210 C   0  0  0  0  0  0  0  0  0  0  0  0
   16.7070   62.0260  -10.7490 N   0  0  0  0  0  4  0  0  0  0  0  0
   16.1770   60.8290  -10.0760 C   0  0  0  0  0  0  0  0  0  0  0  0
   14.8480   60.5310  -10.7730 C   0  0  0  0  0  0  0  0  0  0  0  0
   14.4360   61.5800  -11.5760 O   0  0  0  0  0  0  0  0  0  0  0  0
   14.4620   62.7860  -10.8760 C   0  0  0  0  0  0  0  0  0  0  0  0
   15.8790   63.1110  -10.3680 C   0  0  0  0  0  0  0  0  0  0  0  0
   24.3000   62.3090   -7.4960 H   0  0  0  0  0  0  0  0  0  0  0  0
   21.1450   65.1190   -7.1940 H   0  0  0  0  0  0  0  0  0  0  0  0
   22.1520   66.0020   -5.1350 H   0  0  0  0  0  0  0  0  0  0  0  0
   24.2640   65.0190   -4.2780 H   0  0  0  0  0  0  0  0  0  0  0  0
   21.8550   62.0190   -8.6170 H   0  0  0  0  0  0  0  0  0  0  0  0
   24.2150   63.8990  -15.1060 H   0  0  0  0  0  0  0  0  0  0  0  0
   27.7070   63.3180  -12.8180 H   0  0  0  0  0  0  0  0  0  0  0  0
   26.2930   62.7300  -10.8500 H   0  0  0  0  0  0  0  0  0  0  0  0
   28.6780   63.0220  -14.7330 H   0  0  0  0  0  0  0  0  0  0  0  0
   28.4700   63.5280  -16.4090 H   0  0  0  0  0  0  0  0  0  0  0  0
   27.6050   62.0920  -15.7910 H   0  0  0  0  0  0  0  0  0  0  0  0
   21.8390   62.6290  -12.6250 H   0  0  0  0  0  0  0  0  0  0  0  0
   22.1220   63.1730  -14.2820 H   0  0  0  0  0  0  0  0  0  0  0  0
   22.0280   64.4260  -13.0330 H   0  0  0  0  0  0  0  0  0  0  0  0
   19.5600   62.2890   -8.5970 H   0  0  0  0  0  0  0  0  0  0  0  0
   19.0170   63.8580   -7.9930 H   0  0  0  0  0  0  0  0  0  0  0  0
   17.7260   64.1320   -9.7290 H   0  0  0  0  0  0  0  0  0  0  0  0
   19.0970   64.0710  -10.8520 H   0  0  0  0  0  0  0  0  0  0  0  0
   18.4700   61.3650   -9.9360 H   0  0  0  0  0  0  0  0  0  0  0  0
   18.6310   62.0100  -11.5910 H   0  0  0  0  0  0  0  0  0  0  0  0
   16.5130   61.8470  -11.7810 H   0  0  0  0  0  0  0  0  0  0  0  0
   16.8580   59.9770  -10.1280 H   0  0  0  0  0  0  0  0  0  0  0  0
   16.0150   61.1140   -9.0080 H   0  0  0  0  0  0  0  0  0  0  0  0
   14.9930   59.6520  -11.4660 H   0  0  0  0  0  0  0  0  0  0  0  0
   14.1060   60.1960  -10.0420 H   0  0  0  0  0  0  0  0  0  0  0  0
   13.7370   62.6840  -10.0410 H   0  0  0  0  0  0  0  0  0  0  0  0
   14.0650   63.5990  -11.5230 H   0  0  0  0  0  0  0  0  0  0  0  0
   15.7780   63.2480   -9.2740 H   0  0  0  0  0  0  0  0  0  0  0  0
   16.1750   64.0410  -10.8850 H   0  0  0  0  0  0  0  0  0  0  0  0
  2  1  1  0  0  0  0
  2  7  1  0  0  0  0
  3  2  2  0  0  0  0
  4  3  1  0  0  0  0
  4  5  2  0  0  0  0
  5  6  1  0  0  0  0
  6  7  2  0  0  0  0
  6 37  1  0  0  0  0
  7 38  1  0  0  0  0
  8 39  1  1  0  0  0
  8  4  1  0  0  0  0
  9 26  1  0  0  0  0
  9  8  1  0  0  0  0
 10  9  1  0  0  0  0
 11 10  2  0  0  0  0
 12 14  1  0  0  0  0
 12 10  1  0  0  0  0
 13 12  2  0  0  0  0
 14  8  1  0  0  0  0
 15 16  1  0  0  0  0
 15 14  2  0  0  0  0
 17 22  1  0  0  0  0
 17 15  1  0  0  0  0
 18 17  2  0  0  0  0
 19 20  2  0  0  0  0
 19 18  1  0  0  0  0
 20 21  1  0  0  0  0
 21 41  1  0  0  0  0
 21 22  2  0  0  0  0
 22 42  1  0  0  0  0
 23 20  1  0  0  0  0
 24 23  1  0  0  0  0
 24 43  1  0  0  0  0
 25 18  1  0  0  0  0
 25 48  1  0  0  0  0
 25 46  1  0  0  0  0
 26 49  1  0  0  0  0
 26 50  1  0  0  0  0
 27 51  1  0  0  0  0
 27 26  1  0  0  0  0
 28 27  1  0  0  0  0
 28 53  1  0  0  0  0
 29 28  1  0  0  0  0
 29 34  1  0  0  0  0
 29 30  1  0  0  0  0
 30 57  1  0  0  0  0
 31 30  1  0  0  0  0
 31 59  1  0  0  0  0
 32 33  1  0  0  0  0
 32 31  1  0  0  0  0
 33 34  1  0  0  0  0
 33 60  1  0  0  0  0
 34 62  1  0  0  0  0
 35  3  1  0  0  0  0
 36  5  1  0  0  0  0
 40 19  1  0  0  0  0
 44 24  1  0  0  0  0
 45 24  1  0  0  0  0
 47 25  1  0  0  0  0
 52 27  1  0  0  0  0
 54 28  1  0  0  0  0
 55 29  1  0  0  0  0
 56 30  1  0  0  0  0
 58 31  1  0  0  0  0
 61 33  1  0  0  0  0
 63 34  1  0  0  0  0
M  END
>  <Pose>
1

>  <Score>
-5.17

$$$$
