
 OpenBabel03202210193D

 61 64  0  0  1  0  0  0  0  0999 V2000
   25.7950   63.3060  -14.5200 B   0  0  0  0  0  0  0  0  0  0  0  0
   24.7420   64.0300  -13.1020 C   0  0  0  0  0  0  0  0  0  0  0  0
   24.1750   63.2790  -12.1180 C   0  0  0  0  0  0  0  0  0  0  0  0
   23.4050   63.7640  -11.0750 C   0  0  0  0  0  0  0  0  0  0  0  0
   23.1930   65.1400  -11.0270 C   0  0  0  0  0  0  0  0  0  0  0  0
   23.7550   65.9330  -12.0090 C   0  0  0  0  0  0  0  0  0  0  0  0
   24.5200   65.4150  -13.0410 C   0  0  0  0  0  0  0  0  0  0  0  0
   22.8520   62.8060  -10.1120 C   0  0  1  0  0  0  0  0  0  0  0  0
   23.3360   63.0620   -8.8070 N   0  0  0  0  0  0  0  0  0  0  0  0
   22.2670   63.4780   -7.9740 C   0  0  0  0  0  0  0  0  0  0  0  0
   22.3910   63.8700   -6.7720 O   0  0  0  0  0  0  0  0  0  0  0  0
   21.0330   63.3700   -8.7210 C   0  0  0  0  0  0  0  0  0  0  0  0
   19.9220   63.6820   -8.2130 O   0  0  0  0  0  0  0  0  0  0  0  0
   21.3690   62.8770  -10.0420 C   0  0  0  0  0  0  0  0  0  0  0  0
   20.4940   62.6110  -10.9850 C   0  0  0  0  0  0  0  0  0  0  0  0
   20.9420   62.2110  -12.2230 O   0  0  0  0  0  0  0  0  0  0  0  0
   19.0770   62.7210  -10.7420 C   0  0  0  0  0  0  0  0  0  0  0  0
   18.2560   63.7050  -11.3210 C   0  0  0  0  0  0  0  0  0  0  0  0
   16.9920   63.5100  -10.9240 N   0  0  0  0  0  0  0  0  0  0  0  0
   16.9950   62.4560  -10.1290 N   0  0  0  0  0  0  0  0  0  0  0  0
   18.2300   61.9510   -9.9950 C   0  0  0  0  0  0  0  0  0  0  0  0
   15.8490   64.2710  -11.2890 C   0  0  0  0  0  0  0  0  0  0  0  0
   14.7450   63.6090  -11.8090 C   0  0  0  0  0  0  0  0  0  0  0  0
   13.5960   64.2840  -12.1740 C   0  0  0  0  0  0  0  0  0  0  0  0
   13.5010   65.6680  -12.0320 C   0  0  0  0  0  0  0  0  0  0  0  0
   14.6010   66.3270  -11.5140 C   0  0  0  0  0  0  0  0  0  0  0  0
   15.7300   65.6350  -11.1590 C   0  0  0  0  0  0  0  0  0  0  0  0
   18.7580   64.7750  -12.2310 C   0  0  0  0  0  0  0  0  0  0  0  0
   24.7380   62.9070   -8.3280 C   0  0  0  0  0  0  0  0  0  0  0  0
   24.7650   61.9900   -7.1320 C   0  0  0  0  0  0  0  0  0  0  0  0
   25.0640   62.6940   -5.8470 C   0  0  0  0  0  0  0  0  0  0  0  0
   25.7100   61.9210   -4.8390 N   0  0  0  0  0  4  0  0  0  0  0  0
   27.1050   62.1560   -4.6550 C   0  0  0  0  0  0  0  0  0  0  0  0
   25.0500   62.1280   -3.5400 C   0  0  0  0  0  0  0  0  0  0  0  0
   24.3610   62.1890  -12.1890 H   0  0  0  0  0  0  0  0  0  0  0  0
   22.5980   65.5540  -10.2340 H   0  0  0  0  0  0  0  0  0  0  0  0
   23.5860   67.0130  -11.9670 H   0  0  0  0  0  0  0  0  0  0  0  0
   24.9600   66.0360  -13.8140 H   0  0  0  0  0  0  0  0  0  0  0  0
   23.1750   61.7750  -10.4100 H   0  0  0  0  0  0  0  0  0  0  0  0
   18.5120   61.0740   -9.4100 H   0  0  0  0  0  0  0  0  0  0  0  0
   14.8440   62.5150  -11.9110 H   0  0  0  0  0  0  0  0  0  0  0  0
   12.7500   63.7380  -12.5740 H   0  0  0  0  0  0  0  0  0  0  0  0
   12.5810   66.1770  -12.3310 H   0  0  0  0  0  0  0  0  0  0  0  0
   14.5120   67.4110  -11.4100 H   0  0  0  0  0  0  0  0  0  0  0  0
   16.5640   66.1900  -10.7550 H   0  0  0  0  0  0  0  0  0  0  0  0
   19.5510   64.3740  -12.9080 H   0  0  0  0  0  0  0  0  0  0  0  0
   19.0890   65.6700  -11.6740 H   0  0  0  0  0  0  0  0  0  0  0  0
   17.9350   65.1080  -12.9100 H   0  0  0  0  0  0  0  0  0  0  0  0
   25.3880   62.5810   -9.1600 H   0  0  0  0  0  0  0  0  0  0  0  0
   25.0630   63.9180   -7.9470 H   0  0  0  0  0  0  0  0  0  0  0  0
   23.6910   61.6450   -7.0290 H   0  0  0  0  0  0  0  0  0  0  0  0
   25.3260   61.0700   -7.3070 H   0  0  0  0  0  0  0  0  0  0  0  0
   24.1120   63.1070   -5.3850 H   0  0  0  0  0  0  0  0  0  0  0  0
   25.6850   63.6140   -6.0580 H   0  0  0  0  0  0  0  0  0  0  0  0
   25.5680   60.8850   -5.0400 H   0  0  0  0  0  0  0  0  0  0  0  0
   27.3550   62.4150   -3.5910 H   0  0  0  0  0  0  0  0  0  0  0  0
   27.5840   62.8570   -5.3660 H   0  0  0  0  0  0  0  0  0  0  0  0
   27.6470   61.1790   -4.8220 H   0  0  0  0  0  0  0  0  0  0  0  0
   24.6610   61.1820   -3.1270 H   0  0  0  0  0  0  0  0  0  0  0  0
   24.1990   62.8230   -3.7170 H   0  0  0  0  0  0  0  0  0  0  0  0
   25.7400   62.6500   -2.8390 H   0  0  0  0  0  0  0  0  0  0  0  0
  1  2  1  0  0  0  0
  2  7  2  0  0  0  0
  2  3  1  0  0  0  0
  3  4  2  0  0  0  0
  4  5  1  0  0  0  0
  4  8  1  0  0  0  0
  5 36  1  0  0  0  0
  6 37  1  0  0  0  0
  6  5  2  0  0  0  0
  7  6  1  0  0  0  0
  8 39  1  6  0  0  0
  8 14  1  0  0  0  0
  8  9  1  0  0  0  0
  9 29  1  0  0  0  0
  9 10  1  0  0  0  0
 10 11  2  0  0  0  0
 12 13  2  0  0  0  0
 12 10  1  0  0  0  0
 14 12  1  0  0  0  0
 15 17  1  0  0  0  0
 15 14  2  0  0  0  0
 16 15  1  0  0  0  0
 17 21  1  0  0  0  0
 18 19  1  0  0  0  0
 18 17  2  0  0  0  0
 19 20  1  0  0  0  0
 20 21  2  0  0  0  0
 21 40  1  0  0  0  0
 22 27  1  0  0  0  0
 22 19  1  0  0  0  0
 23 22  2  0  0  0  0
 24 25  2  0  0  0  0
 24 23  1  0  0  0  0
 25 26  1  0  0  0  0
 26 44  1  0  0  0  0
 26 27  2  0  0  0  0
 27 45  1  0  0  0  0
 28 47  1  0  0  0  0
 28 18  1  0  0  0  0
 29 50  1  0  0  0  0
 29 30  1  0  0  0  0
 30 51  1  0  0  0  0
 30 31  1  0  0  0  0
 31 53  1  0  0  0  0
 31 32  1  0  0  0  0
 32 33  1  0  0  0  0
 32 34  1  0  0  0  0
 33 56  1  0  0  0  0
 34 59  1  0  0  0  0
 34 61  1  0  0  0  0
 35  3  1  0  0  0  0
 38  7  1  0  0  0  0
 41 23  1  0  0  0  0
 42 24  1  0  0  0  0
 43 25  1  0  0  0  0
 46 28  1  0  0  0  0
 48 28  1  0  0  0  0
 49 29  1  0  0  0  0
 52 30  1  0  0  0  0
 54 31  1  0  0  0  0
 55 32  1  0  0  0  0
 57 33  1  0  0  0  0
 58 33  1  0  0  0  0
 60 34  1  0  0  0  0
M  END
>  <Pose>
1

>  <Score>
-4.40

$$$$
