
 OpenBabel03202210193D

 51 53  0  0  0  0  0  0  0  0999 V2000
   23.0340   64.8310   -2.3620 B   0  0  0  0  0  0  0  0  0  0  0  0
   23.8190   64.0410   -3.9120 C   0  0  0  0  0  0  0  0  0  0  0  0
   25.0450   63.4210   -3.7800 C   0  0  0  0  0  0  0  0  0  0  0  0
   25.6020   62.8550   -4.9000 C   0  0  0  0  0  0  0  0  0  0  0  0
   24.9570   62.9050   -6.1220 C   0  0  0  0  0  0  0  0  0  0  0  0
   23.7500   63.5160   -6.2560 C   0  0  0  0  0  0  0  0  0  0  0  0
   23.1830   64.0860   -5.1370 C   0  0  0  0  0  0  0  0  0  0  0  0
   23.0630   63.5700   -7.5550 C   0  0  0  0  0  0  0  0  0  0  0  0
   23.2750   64.5160   -8.3840 N   0  0  0  0  0  0  0  0  0  0  0  0
   22.6050   64.5690   -9.6530 N   0  0  0  0  0  0  0  0  0  0  0  0
   22.0320   63.3630  -10.1130 C   0  0  0  0  0  0  0  0  0  0  0  0
   21.7660   62.5220   -9.1720 O   0  0  0  0  0  0  0  0  0  0  0  0
   21.7320   63.0080  -11.4940 C   0  0  0  0  0  0  0  0  0  0  0  0
   20.5190   62.4590  -11.8240 N   0  0  0  0  0  0  0  0  0  0  0  0
   20.5640   62.2590  -13.1250 N   0  0  0  0  0  0  0  0  0  0  0  0
   21.6930   62.6320  -13.6310 N   0  0  0  0  0  0  0  0  0  0  0  0
   22.4820   63.1210  -12.6340 C   0  0  0  0  0  0  0  0  0  0  0  0
   23.8360   63.6660  -12.7350 C   0  0  0  0  0  0  0  0  0  0  0  0
   24.6860   62.9720  -13.6900 N   0  0  0  0  0  0  0  0  0  0  0  0
   25.8520   63.7860  -14.0090 C   0  0  0  0  0  0  0  0  0  0  0  0
   27.0100   63.4830  -13.1020 C   0  0  0  0  0  0  0  0  0  0  0  0
   26.6480   62.9160  -11.8940 O   0  0  0  0  0  0  0  0  0  0  0  0
   25.9480   61.7240  -12.0040 C   0  0  0  0  0  0  0  0  0  0  0  0
   25.0950   61.6640  -13.2430 C   0  0  0  0  0  0  0  0  0  0  0  0
   19.4480   62.1710  -10.9490 C   0  0  0  0  0  0  0  0  0  0  0  0
   19.2380   61.0830  -10.1670 N   0  0  0  0  0  0  0  0  0  0  0  0
   18.1330   61.2340   -9.5300 O   0  0  0  0  0  0  0  0  0  0  0  0
   17.5510   62.3560   -9.8110 N   0  0  0  0  0  0  0  0  0  0  0  0
   18.3550   62.9830  -10.7110 C   0  0  0  0  0  0  0  0  0  0  0  0
   18.0790   64.2520  -11.2800 N   0  0  0  0  0  0  0  0  0  0  0  0
   27.3090   61.9890   -4.7230 B   0  0  0  0  0  0  0  0  0  0  0  0
   25.7220   63.3510   -2.5710 O   0  0  0  0  0  0  0  0  0  0  0  0
   17.5380   63.0570  -14.5130 Cl  0  0  0  0  0  0  0  0  0  0  0  0
   25.4180   62.4510   -6.9930 H   0  0  0  0  0  0  0  0  0  0  0  0
   22.2270   64.5680   -5.2470 H   0  0  0  0  0  0  0  0  0  0  0  0
   22.3750   62.8040   -7.8120 H   0  0  0  0  0  0  0  0  0  0  0  0
   22.5850   65.4870  -10.1500 H   0  0  0  0  0  0  0  0  0  0  0  0
   23.8630   64.7260  -13.0620 H   0  0  0  0  0  0  0  0  0  0  0  0
   24.4000   63.6050  -11.7790 H   0  0  0  0  0  0  0  0  0  0  0  0
   26.1460   63.5490  -15.0460 H   0  0  0  0  0  0  0  0  0  0  0  0
   25.5190   64.8410  -13.9880 H   0  0  0  0  0  0  0  0  0  0  0  0
   27.5000   64.4500  -12.8650 H   0  0  0  0  0  0  0  0  0  0  0  0
   27.7970   62.8730  -13.6140 H   0  0  0  0  0  0  0  0  0  0  0  0
   25.2560   61.6690  -11.1290 H   0  0  0  0  0  0  0  0  0  0  0  0
   26.6500   60.8840  -11.9060 H   0  0  0  0  0  0  0  0  0  0  0  0
   24.2760   60.9500  -13.2210 H   0  0  0  0  0  0  0  0  0  0  0  0
   25.7880   61.2900  -14.0580 H   0  0  0  0  0  0  0  0  0  0  0  0
   18.2120   65.0920  -10.6870 H   0  0  0  0  0  0  0  0  0  0  0  0
   17.7530   64.3910  -12.2540 H   0  0  0  0  0  0  0  0  0  0  0  0
   25.3490   63.7050   -1.7080 H   0  0  0  0  0  0  0  0  0  0  0  0
   16.3230   62.7080  -13.9680 H   0  0  0  0  0  0  0  0  0  0  0  0
  2  3  1  0  0  0  0
  2  1  1  0  0  0  0
  3 32  1  0  0  0  0
  4 31  1  0  0  0  0
  4  3  2  0  0  0  0
  5  4  1  0  0  0  0
  6  5  2  0  0  0  0
  6  7  1  0  0  0  0
  7  2  2  0  0  0  0
  8  6  1  0  0  0  0
  9  8  2  0  0  0  0
 10  9  1  0  0  0  0
 11 10  1  0  0  0  0
 11 12  2  0  0  0  0
 13 11  1  0  0  0  0
 14 13  1  0  0  0  0
 14 25  1  0  0  0  0
 15 14  1  0  0  0  0
 16 15  2  0  0  0  0
 16 17  1  0  0  0  0
 17 13  2  0  0  0  0
 18 17  1  0  0  0  0
 18 39  1  0  0  0  0
 19 24  1  0  0  0  0
 19 18  1  0  0  0  0
 20 41  1  0  0  0  0
 20 19  1  0  0  0  0
 20 21  1  0  0  0  0
 21 42  1  0  0  0  0
 21 22  1  0  0  0  0
 23 45  1  0  0  0  0
 23 22  1  0  0  0  0
 23 44  1  0  0  0  0
 24 46  1  0  0  0  0
 24 23  1  0  0  0  0
 25 29  1  0  0  0  0
 25 26  2  0  0  0  0
 26 27  1  0  0  0  0
 28 27  1  0  0  0  0
 29 28  2  0  0  0  0
 30 29  1  0  0  0  0
 30 48  1  0  0  0  0
 32 50  1  0  0  0  0
 33 51  1  0  0  0  0
 34  5  1  0  0  0  0
 35  7  1  0  0  0  0
 36  8  1  0  0  0  0
 37 10  1  0  0  0  0
 38 18  1  0  0  0  0
 40 20  1  0  0  0  0
 43 21  1  0  0  0  0
 47 24  1  0  0  0  0
 49 30  1  0  0  0  0
M  END
>  <Pose>
1

>  <Score>
-7.72

$$$$
