
 OpenBabel03202210193D

 31 34  0  0  1  0  0  0  0  0999 V2000
   22.0230   63.0940  -12.2490 B   0  0  0  0  0  0  0  0  0  0  0  0
   21.8360   63.3410  -10.3590 C   0  0  0  0  0  0  0  0  0  0  0  0
   20.5690   63.2000   -9.8400 C   0  0  0  0  0  0  0  0  0  0  0  0
   20.4400   63.3850   -8.4620 C   0  0  0  0  0  0  0  0  0  0  0  0
   21.5350   63.6890   -7.6870 C   0  0  0  0  0  0  0  0  0  0  0  0
   22.8090   63.8310   -8.2110 C   0  0  0  0  0  0  0  0  0  0  0  0
   22.9440   63.6500   -9.5730 C   0  0  0  0  0  0  0  0  0  0  0  0
   23.9220   64.1440   -7.3830 N   0  0  0  0  0  0  0  0  0  0  0  0
   24.6810   63.2200   -7.0420 O   0  0  0  0  0  0  0  0  0  0  0  0
   24.2180   65.4020   -6.9330 O   0  0  0  0  0  0  0  0  0  0  0  0
   19.4580   62.8790  -10.6620 N   0  0  0  0  0  0  0  0  0  0  0  0
   18.7610   63.6520  -11.6210 C   0  0  0  0  0  0  0  0  0  0  0  0
   19.1750   64.6850  -12.1870 O   0  0  0  0  0  0  0  0  0  0  0  0
   17.4280   63.0700  -11.8840 C   0  0  2  0  0  0  0  0  0  0  0  0
   16.4490   63.8050  -10.9940 C   0  0  2  0  0  0  0  0  0  0  0  0
   16.7840   63.2320   -9.7390 O   0  0  0  0  0  0  0  0  0  0  0  0
   16.4780   61.8910  -10.0950 C   0  0  2  0  0  0  0  0  0  0  0  0
   17.4540   61.6940  -11.2240 C   0  0  2  0  0  0  0  0  0  0  0  0
   18.8140   61.6020  -10.6470 C   0  0  0  0  0  0  0  0  0  0  0  0
   19.3450   60.5370  -10.1950 O   0  0  0  0  0  0  0  0  0  0  0  0
   15.0920   62.0710  -10.5750 C   0  0  0  0  0  0  0  0  0  0  0  0
   15.0790   63.2620  -11.1680 C   0  0  0  0  0  0  0  0  0  0  0  0
   19.4520   63.2820   -8.0220 H   0  0  0  0  0  0  0  0  0  0  0  0
   21.4400   63.8340   -6.6060 H   0  0  0  0  0  0  0  0  0  0  0  0
   23.9010   63.7460  -10.0400 H   0  0  0  0  0  0  0  0  0  0  0  0
   17.1460   63.0390  -12.9310 H   0  0  0  0  0  0  0  0  0  0  0  0
   16.5400   64.8800  -11.0140 H   0  0  0  0  0  0  0  0  0  0  0  0
   16.5950   61.2060   -9.2610 H   0  0  0  0  0  0  0  0  0  0  0  0
   17.2140   60.8940  -11.9180 H   0  0  0  0  0  0  0  0  0  0  0  0
   14.2770   61.3710  -10.4590 H   0  0  0  0  0  0  0  0  0  0  0  0
   14.2500   63.7540  -11.6780 H   0  0  0  0  0  0  0  0  0  0  0  0
  1  2  1  0  0  0  0
  2  3  2  0  0  0  0
  2  7  1  0  0  0  0
  3  4  1  0  0  0  0
  4 23  1  0  0  0  0
  4  5  2  0  0  0  0
  5 24  1  0  0  0  0
  6  5  1  0  0  0  0
  6  8  1  0  0  0  0
  7  6  2  0  0  0  0
  8  9  2  0  0  0  0
  8 10  2  0  0  0  0
 11 19  1  0  0  0  0
 11  3  1  0  0  0  0
 12 11  1  0  0  0  0
 13 12  2  0  0  0  0
 14 26  1  6  0  0  0
 14 12  1  0  0  0  0
 14 18  1  0  0  0  0
 14 15  1  0  0  0  0
 15 27  1  6  0  0  0
 15 16  1  0  0  0  0
 17 16  1  0  0  0  0
 17 28  1  1  0  0  0
 18 29  1  6  0  0  0
 18 19  1  0  0  0  0
 18 17  1  0  0  0  0
 19 20  2  0  0  0  0
 21 30  1  0  0  0  0
 21 17  1  0  0  0  0
 22 15  1  0  0  0  0
 22 21  2  0  0  0  0
 25  7  1  0  0  0  0
 31 22  1  0  0  0  0
M  END
>  <Pose>
1

>  <Score>
-5.25

$$$$
