
 OpenBabel03202210193D

 50 53  0  0  1  0  0  0  0  0999 V2000
   27.3220   63.5230  -14.8950 Cl  0  0  0  0  0  0  0  0  0  0  0  0
   26.0230   63.5040  -13.7090 C   0  0  0  0  0  0  0  0  0  0  0  0
   26.2830   63.4330  -12.3580 C   0  0  0  0  0  0  0  0  0  0  0  0
   25.2570   63.4170  -11.4300 C   0  0  0  0  0  0  0  0  0  0  0  0
   23.9290   63.4730  -11.8040 C   0  0  0  0  0  0  0  0  0  0  0  0
   23.6650   63.5460  -13.1560 C   0  0  0  0  0  0  0  0  0  0  0  0
   24.7010   63.5620  -14.0980 C   0  0  0  0  0  0  0  0  0  0  0  0
   22.8650   63.4580  -10.8020 C   0  0  0  0  0  0  0  0  0  0  0  0
   21.5380   63.2300  -10.9480 N   0  0  0  0  0  0  0  0  0  0  0  0
   20.9510   63.3190   -9.7370 C   0  0  1  0  0  0  0  0  0  0  0  0
   21.8710   63.6010   -8.7900 N   0  0  0  0  0  0  0  0  0  0  0  0
   23.0460   63.6850   -9.4560 C   0  0  0  0  0  0  0  0  0  0  0  0
   21.6730   63.7810   -7.3660 C   0  0  0  0  0  0  0  0  0  0  0  0
   22.9850   64.0070   -6.6960 C   0  0  0  0  0  0  0  0  0  0  0  0
   23.4680   65.1400   -6.7400 O   0  0  0  0  0  0  0  0  0  0  0  0
   23.5890   62.9210   -6.0590 N   0  0  0  0  0  0  0  0  0  0  0  0
   24.3110   62.9970   -4.8390 C   0  0  0  0  0  0  0  0  0  0  0  0
   25.3960   62.1340   -4.6420 C   0  0  0  0  0  0  0  0  0  0  0  0
   26.0960   62.1670   -3.4790 C   0  0  0  0  0  0  0  0  0  0  0  0
   25.7630   63.0480   -2.4630 C   0  0  0  0  0  0  0  0  0  0  0  0
   24.7030   63.8850   -2.6650 C   0  0  0  0  0  0  0  0  0  0  0  0
   23.9610   63.8750   -3.8530 C   0  0  0  0  0  0  0  0  0  0  0  0
   26.5440   63.0660   -1.2010 C   0  0  0  0  0  0  0  0  0  0  0  0
   27.4740   64.2830   -1.2350 C   0  0  0  0  0  0  0  0  0  0  0  0
   19.4920   63.0750   -9.8680 C   0  0  0  0  0  0  0  0  0  0  0  0
   19.2540   62.7330  -11.2990 C   0  0  0  0  0  0  0  0  0  0  0  0
   20.5630   62.9260  -11.9710 C   0  0  0  0  0  0  0  0  0  0  0  0
   27.3200   63.3880  -12.0580 H   0  0  0  0  0  0  0  0  0  0  0  0
   25.4880   63.3600  -10.3700 H   0  0  0  0  0  0  0  0  0  0  0  0
   22.6430   63.5940  -13.5020 H   0  0  0  0  0  0  0  0  0  0  0  0
   24.4970   63.6180  -15.1520 H   0  0  0  0  0  0  0  0  0  0  0  0
   24.0120   63.9060   -8.9750 H   0  0  0  0  0  0  0  0  0  0  0  0
   21.1390   62.9090   -6.9380 H   0  0  0  0  0  0  0  0  0  0  0  0
   20.9900   64.6520   -7.2510 H   0  0  0  0  0  0  0  0  0  0  0  0
   23.5310   61.9320   -6.4760 H   0  0  0  0  0  0  0  0  0  0  0  0
   25.6720   61.4300   -5.4410 H   0  0  0  0  0  0  0  0  0  0  0  0
   26.9520   61.4860   -3.3230 H   0  0  0  0  0  0  0  0  0  0  0  0
   24.3940   64.6010   -1.8990 H   0  0  0  0  0  0  0  0  0  0  0  0
   23.1130   64.5760   -3.9280 H   0  0  0  0  0  0  0  0  0  0  0  0
   27.1220   62.1310   -1.1040 H   0  0  0  0  0  0  0  0  0  0  0  0
   25.8700   63.1740   -0.3330 H   0  0  0  0  0  0  0  0  0  0  0  0
   26.8840   65.2000   -1.1190 H   0  0  0  0  0  0  0  0  0  0  0  0
   28.0780   64.2360   -2.1490 H   0  0  0  0  0  0  0  0  0  0  0  0
   28.1770   64.2210   -0.3710 H   0  0  0  0  0  0  0  0  0  0  0  0
   18.9080   63.9540   -9.5240 H   0  0  0  0  0  0  0  0  0  0  0  0
   19.2030   62.1850   -9.2430 H   0  0  0  0  0  0  0  0  0  0  0  0
   18.8770   61.6720  -11.4000 H   0  0  0  0  0  0  0  0  0  0  0  0
   18.4510   63.4050  -11.7320 H   0  0  0  0  0  0  0  0  0  0  0  0
   20.5050   63.7440  -12.7290 H   0  0  0  0  0  0  0  0  0  0  0  0
   20.8390   61.9420  -12.4460 H   0  0  0  0  0  0  0  0  0  0  0  0
  1  2  1  0  0  0  0
  2  3  1  0  0  0  0
  3 28  1  0  0  0  0
  3  4  2  0  0  0  0
  4 29  1  0  0  0  0
  5  4  1  0  0  0  0
  5  8  1  0  0  0  0
  6  5  2  0  0  0  0
  7  2  2  0  0  0  0
  7  6  1  0  0  0  0
  8 12  2  0  0  0  0
  9  8  1  0  0  0  0
 10  9  1  6  0  0  0
 10 11  1  0  0  0  0
 11 13  1  0  0  0  0
 12 32  1  0  0  0  0
 12 11  1  0  0  0  0
 13 34  1  0  0  0  0
 13 33  1  0  0  0  0
 13 14  1  0  0  0  0
 14 16  1  0  0  0  0
 15 14  2  0  0  0  0
 16 17  1  0  0  0  0
 17 18  2  0  0  0  0
 17 22  1  0  0  0  0
 18 19  1  0  0  0  0
 19 37  1  0  0  0  0
 19 20  2  0  0  0  0
 20 23  1  0  0  0  0
 21 20  1  0  0  0  0
 21 38  1  0  0  0  0
 22 21  2  0  0  0  0
 23 40  1  0  0  0  0
 23 41  1  0  0  0  0
 24 23  1  0  0  0  0
 24 42  1  0  0  0  0
 24 44  1  0  0  0  0
 25 10  1  0  0  0  0
 25 45  1  0  0  0  0
 25 46  1  0  0  0  0
 26 25  1  0  0  0  0
 27 26  1  0  0  0  0
 27  9  1  0  0  0  0
 30  6  1  0  0  0  0
 31  7  1  0  0  0  0
 35 16  1  0  0  0  0
 36 18  1  0  0  0  0
 39 22  1  0  0  0  0
 43 24  1  0  0  0  0
 47 26  1  0  0  0  0
 48 26  1  0  0  0  0
 49 27  1  0  0  0  0
 50 27  1  0  0  0  0
M  END
>  <Pose>
1

>  <Score>
-6.10

$$$$
