
 OpenBabel03202210193D

 42 45  0  0  1  0  0  0  0  0999 V2000
   22.8770   63.7470  -10.8990 Cl  0  0  0  0  0  0  0  0  0  0  0  0
   21.1530   63.4770  -10.8400 C   0  0  0  0  0  0  0  0  0  0  0  0
   20.4170   64.2210   -9.9410 C   0  0  0  0  0  0  0  0  0  0  0  0
   19.0640   63.9840   -9.9190 C   0  0  0  0  0  0  0  0  0  0  0  0
   18.4550   63.0620  -10.7400 C   0  0  0  0  0  0  0  0  0  0  0  0
   19.2200   62.3180  -11.6470 C   0  0  0  0  0  0  0  0  0  0  0  0
   20.5740   62.5370  -11.6860 C   0  0  0  0  0  0  0  0  0  0  0  0
   21.0290   65.2060   -9.0560 C   0  0  0  0  0  0  0  0  0  0  0  0
   21.4000   66.4610   -9.3600 N   0  0  0  0  0  0  0  0  0  0  0  0
   21.9130   67.0350   -8.2930 O   0  0  0  0  0  0  0  0  0  0  0  0
   21.8960   66.1990   -7.2860 C   0  0  0  0  0  0  0  0  0  0  0  0
   21.3460   65.0590   -7.7580 N   0  0  0  0  0  0  0  0  0  0  0  0
   22.3820   66.4360   -5.8790 C   0  0  0  0  0  0  0  0  0  0  0  0
   23.6980   65.8490   -5.6970 N   0  0  0  0  0  0  0  0  0  0  0  0
   24.0750   64.6760   -6.3730 C   0  0  0  0  0  0  0  0  0  0  0  0
   24.3300   64.7250   -7.5960 O   0  0  0  0  0  0  0  0  0  0  0  0
   24.1700   63.3980   -5.6510 C   0  0  1  0  0  0  0  0  0  0  0  0
   25.5920   63.0860   -5.2250 C   0  0  0  0  0  0  0  0  0  0  0  0
   25.6450   61.8900   -4.3350 C   0  0  0  0  0  0  0  0  0  0  0  0
   25.5600   62.1860   -2.8730 C   0  0  0  0  0  0  0  0  0  0  0  0
   24.7710   63.4600   -2.5860 C   0  0  0  0  0  0  0  0  0  0  0  0
   23.4780   63.3170   -3.2150 N   0  0  0  0  0  0  0  0  0  0  0  0
   22.3600   63.1910   -2.5510 N   0  0  0  0  0  0  0  0  0  0  0  0
   21.3740   63.0820   -3.4060 N   0  0  0  0  0  0  0  0  0  0  0  0
   21.8910   63.1410   -4.6180 N   0  0  0  0  0  0  0  0  0  0  0  0
   23.2240   63.2900   -4.5300 C   0  0  0  0  0  0  0  0  0  0  0  0
   18.4470   64.5390   -9.2360 H   0  0  0  0  0  0  0  0  0  0  0  0
   17.3940   62.8710  -10.7310 H   0  0  0  0  0  0  0  0  0  0  0  0
   18.7630   61.5870  -12.3040 H   0  0  0  0  0  0  0  0  0  0  0  0
   21.1650   61.9590  -12.3880 H   0  0  0  0  0  0  0  0  0  0  0  0
   21.6620   66.0100   -5.1630 H   0  0  0  0  0  0  0  0  0  0  0  0
   22.4040   67.5330   -5.7240 H   0  0  0  0  0  0  0  0  0  0  0  0
   24.3760   66.3040   -5.0540 H   0  0  0  0  0  0  0  0  0  0  0  0
   23.8980   62.5790   -6.3670 H   0  0  0  0  0  0  0  0  0  0  0  0
   26.1630   62.8290   -6.1670 H   0  0  0  0  0  0  0  0  0  0  0  0
   26.0810   63.9860   -4.8340 H   0  0  0  0  0  0  0  0  0  0  0  0
   26.5880   61.3180   -4.5660 H   0  0  0  0  0  0  0  0  0  0  0  0
   24.8190   61.2020   -4.6270 H   0  0  0  0  0  0  0  0  0  0  0  0
   25.0890   61.3120   -2.3780 H   0  0  0  0  0  0  0  0  0  0  0  0
   26.5600   62.3420   -2.4080 H   0  0  0  0  0  0  0  0  0  0  0  0
   24.6420   63.5310   -1.4890 H   0  0  0  0  0  0  0  0  0  0  0  0
   25.2680   64.3360   -3.0030 H   0  0  0  0  0  0  0  0  0  0  0  0
  1  2  1  0  0  0  0
  2  3  1  0  0  0  0
  3  4  2  0  0  0  0
  3  8  1  0  0  0  0
  4 27  1  0  0  0  0
  5 28  1  0  0  0  0
  5  4  1  0  0  0  0
  6  5  2  0  0  0  0
  7  6  1  0  0  0  0
  7  2  2  0  0  0  0
  8 12  1  0  0  0  0
  9  8  2  0  0  0  0
  9 10  1  0  0  0  0
 10 11  1  0  0  0  0
 11 13  1  0  0  0  0
 12 11  2  0  0  0  0
 13 32  1  0  0  0  0
 13 14  1  0  0  0  0
 13 31  1  0  0  0  0
 14 33  1  0  0  0  0
 15 14  1  0  0  0  0
 15 17  1  0  0  0  0
 16 15  2  0  0  0  0
 17 34  1  6  0  0  0
 17 18  1  0  0  0  0
 17 26  1  0  0  0  0
 18 36  1  0  0  0  0
 18 19  1  0  0  0  0
 19 20  1  0  0  0  0
 20 21  1  0  0  0  0
 20 40  1  0  0  0  0
 20 39  1  0  0  0  0
 21 41  1  0  0  0  0
 22 21  1  0  0  0  0
 22 23  1  0  0  0  0
 24 23  2  0  0  0  0
 25 26  2  0  0  0  0
 25 24  1  0  0  0  0
 26 22  1  0  0  0  0
 29  6  1  0  0  0  0
 30  7  1  0  0  0  0
 35 18  1  0  0  0  0
 37 19  1  0  0  0  0
 38 19  1  0  0  0  0
 42 21  1  0  0  0  0
M  END
>  <Pose>
1

>  <Score>
-6.03

$$$$
