
 OpenBabel03202210193D

 33 36  0  0  1  0  0  0  0  0999 V2000
   22.7270   61.5060   -7.7370 B   0  0  0  0  0  0  0  0  0  0  0  0
   22.7770   63.3050   -7.0990 C   0  0  0  0  0  0  0  0  0  0  0  0
   23.6370   63.6950   -6.1040 C   0  0  0  0  0  0  0  0  0  0  0  0
   23.6400   64.9970   -5.6650 C   0  0  0  0  0  0  0  0  0  0  0  0
   22.7850   65.9480   -6.2070 C   0  0  0  0  0  0  0  0  0  0  0  0
   21.9160   65.5790   -7.2050 C   0  0  0  0  0  0  0  0  0  0  0  0
   21.9200   64.2500   -7.6450 C   0  0  0  0  0  0  0  0  0  0  0  0
   24.5920   62.7500   -5.4690 C   0  0  1  0  0  0  0  0  0  0  0  0
   25.4630   63.2730   -4.5110 C   0  0  1  0  0  0  0  0  0  0  0  0
   25.3750   63.8200   -3.1300 C   0  0  0  0  0  0  0  0  0  0  0  0
   25.7160   62.5310   -2.4760 N   0  0  0  0  0  0  0  0  0  0  0  0
   25.1150   61.5860   -3.1270 C   0  0  2  0  0  0  0  0  0  0  0  0
   24.3770   62.2020   -4.1850 C   0  0  2  0  0  0  0  0  0  0  0  0
   23.0880   62.6880   -3.6080 C   0  0  0  0  0  0  0  0  0  0  0  0
   22.0540   63.0670   -3.1740 N   0  0  0  0  0  0  0  0  0  0  0  0
   25.1880   60.1750   -2.8240 N   0  0  0  0  0  0  0  0  0  0  0  0
   26.4340   64.7170   -2.9500 O   0  0  0  0  0  0  0  0  0  0  0  0
   25.8940   65.8830   -2.4430 C   0  0  0  0  0  0  0  0  0  0  0  0
   24.6230   65.3870   -1.7730 C   0  0  0  0  0  0  0  0  0  0  0  0
   24.2440   64.3980   -2.7140 O   0  0  0  0  0  0  0  0  0  0  0  0
   26.8610   62.7310   -4.6540 C   0  0  0  0  0  0  0  0  0  0  0  0
   27.9500   62.2860   -4.7640 N   0  0  0  0  0  0  0  0  0  0  0  0
   24.3070   65.3660   -4.8710 H   0  0  0  0  0  0  0  0  0  0  0  0
   22.7750   66.9700   -5.8760 H   0  0  0  0  0  0  0  0  0  0  0  0
   21.2570   66.2930   -7.6330 H   0  0  0  0  0  0  0  0  0  0  0  0
   21.2500   63.9130   -8.4330 H   0  0  0  0  0  0  0  0  0  0  0  0
   24.9540   62.0260   -6.2530 H   0  0  0  0  0  0  0  0  0  0  0  0
   24.7480   59.7860   -1.9680 H   0  0  0  0  0  0  0  0  0  0  0  0
   25.6850   59.5220   -3.4580 H   0  0  0  0  0  0  0  0  0  0  0  0
   25.6260   66.5480   -3.2910 H   0  0  0  0  0  0  0  0  0  0  0  0
   26.5750   66.3890   -1.7260 H   0  0  0  0  0  0  0  0  0  0  0  0
   24.8660   64.9150   -0.7970 H   0  0  0  0  0  0  0  0  0  0  0  0
   23.8560   66.1660   -1.6710 H   0  0  0  0  0  0  0  0  0  0  0  0
  1  2  1  0  0  0  0
  2  3  1  0  0  0  0
  3  4  2  0  0  0  0
  3  8  1  0  0  0  0
  4 23  1  0  0  0  0
  5 24  1  0  0  0  0
  5  4  1  0  0  0  0
  6  5  2  0  0  0  0
  7  6  1  0  0  0  0
  7  2  2  0  0  0  0
  8 27  1  6  0  0  0
  8  9  1  0  0  0  0
  8 13  1  0  0  0  0
  9 21  1  6  0  0  0
  9 13  1  0  0  0  0
  9 10  1  0  0  0  0
 10 17  1  0  0  0  0
 10 20  1  0  0  0  0
 10 11  1  0  0  0  0
 12 16  1  1  0  0  0
 12 11  1  0  0  0  0
 13 14  1  1  0  0  0
 13 12  1  0  0  0  0
 14 15  3  0  0  0  0
 16 28  1  0  0  0  0
 17 18  1  0  0  0  0
 18 19  1  0  0  0  0
 18 31  1  0  0  0  0
 19 33  1  0  0  0  0
 19 32  1  0  0  0  0
 20 19  1  0  0  0  0
 22 21  3  0  0  0  0
 25  6  1  0  0  0  0
 26  7  1  0  0  0  0
 29 16  1  0  0  0  0
 30 18  1  0  0  0  0
M  END
>  <Pose>
1

>  <Score>
-5.19

$$$$
