
 OpenBabel03202210193D

 49 52  0  0  0  0  0  0  0  0999 V2000
   22.8340   62.5800   -1.6460 B   0  0  0  0  0  0  0  0  0  0  0  0
   24.0530   62.6740   -3.0920 C   0  0  0  0  0  0  0  0  0  0  0  0
   23.6610   63.2890   -4.2680 C   0  0  0  0  0  0  0  0  0  0  0  0
   24.5030   63.3890   -5.3590 C   0  0  0  0  0  0  0  0  0  0  0  0
   25.7770   62.8500   -5.2470 C   0  0  0  0  0  0  0  0  0  0  0  0
   26.1600   62.2410   -4.0760 C   0  0  0  0  0  0  0  0  0  0  0  0
   25.3340   62.1320   -2.9790 C   0  0  0  0  0  0  0  0  0  0  0  0
   24.1180   64.0300   -6.6090 C   0  0  0  0  0  0  0  0  0  0  0  0
   24.7560   65.0370   -7.0100 O   0  0  0  0  0  0  0  0  0  0  0  0
   23.0480   63.5730   -7.4120 N   0  0  0  0  0  0  0  0  0  0  0  0
   22.5350   64.3510   -8.5190 C   0  0  0  0  0  0  0  0  0  0  0  0
   22.2250   63.4950   -9.6940 C   0  0  0  0  0  0  0  0  0  0  0  0
   23.1820   62.8640  -10.2070 O   0  0  0  0  0  0  0  0  0  0  0  0
   20.9400   63.3610  -10.2430 N   0  0  0  0  0  0  0  0  0  0  0  0
   19.7850   64.0160   -9.6810 C   0  0  0  0  0  0  0  0  0  0  0  0
   18.8560   62.9250   -9.1950 C   0  0  0  0  0  0  0  0  0  0  0  0
   18.6360   61.9150  -10.2960 C   0  0  0  0  0  0  0  0  0  0  0  0
   19.1570   60.6420   -9.8460 N   0  0  0  0  0  0  0  0  0  0  0  0
   18.9140   59.5510  -10.7240 C   0  0  0  0  0  0  0  0  0  0  0  0
   17.5890   59.5020  -11.3920 C   0  0  0  0  0  0  0  0  0  0  0  0
   16.6460   60.5590  -10.9720 C   0  0  0  0  0  0  0  0  0  0  0  0
   15.2810   60.6420  -10.9960 N   0  0  0  0  0  0  0  0  0  0  0  0
   14.9600   61.8400  -10.4920 C   0  0  0  0  0  0  0  0  0  0  0  0
   16.0850   62.4940  -10.1590 N   0  0  0  0  0  0  0  0  0  0  0  0
   17.1630   61.7220  -10.4470 C   0  0  0  0  0  0  0  0  0  0  0  0
   19.2360   62.2960  -11.6120 C   0  0  0  0  0  0  0  0  0  0  0  0
   20.7340   62.5470  -11.4130 C   0  0  0  0  0  0  0  0  0  0  0  0
   22.6790   63.6890   -4.3150 H   0  0  0  0  0  0  0  0  0  0  0  0
   26.5010   62.8860   -6.0560 H   0  0  0  0  0  0  0  0  0  0  0  0
   27.1530   61.8130   -3.9680 H   0  0  0  0  0  0  0  0  0  0  0  0
   25.5990   61.6670   -2.0580 H   0  0  0  0  0  0  0  0  0  0  0  0
   22.6190   62.6510   -7.1990 H   0  0  0  0  0  0  0  0  0  0  0  0
   23.2850   65.0930   -8.8630 H   0  0  0  0  0  0  0  0  0  0  0  0
   21.6470   64.8940   -8.1420 H   0  0  0  0  0  0  0  0  0  0  0  0
   19.2540   64.6170  -10.4620 H   0  0  0  0  0  0  0  0  0  0  0  0
   20.0410   64.7330   -8.8810 H   0  0  0  0  0  0  0  0  0  0  0  0
   17.8930   63.3400   -8.8260 H   0  0  0  0  0  0  0  0  0  0  0  0
   19.3790   62.4550   -8.3180 H   0  0  0  0  0  0  0  0  0  0  0  0
   20.2000   60.7370   -9.7240 H   0  0  0  0  0  0  0  0  0  0  0  0
   19.0040   58.6120  -10.1020 H   0  0  0  0  0  0  0  0  0  0  0  0
   19.7260   59.4250  -11.4910 H   0  0  0  0  0  0  0  0  0  0  0  0
   17.0640   58.5130  -11.2360 H   0  0  0  0  0  0  0  0  0  0  0  0
   17.6870   59.5550  -12.5150 H   0  0  0  0  0  0  0  0  0  0  0  0
   14.6420   59.8740  -11.3560 H   0  0  0  0  0  0  0  0  0  0  0  0
   13.9600   62.2200  -10.3700 H   0  0  0  0  0  0  0  0  0  0  0  0
   18.7350   63.1330  -12.0980 H   0  0  0  0  0  0  0  0  0  0  0  0
   19.1660   61.4220  -12.2830 H   0  0  0  0  0  0  0  0  0  0  0  0
   21.1580   63.0750  -12.2920 H   0  0  0  0  0  0  0  0  0  0  0  0
   21.2110   61.5650  -11.3530 H   0  0  0  0  0  0  0  0  0  0  0  0
  2  7  1  0  0  0  0
  2  1  1  0  0  0  0
  3  2  2  0  0  0  0
  4  5  2  0  0  0  0
  4  3  1  0  0  0  0
  5  6  1  0  0  0  0
  6 30  1  0  0  0  0
  6  7  2  0  0  0  0
  7 31  1  0  0  0  0
  8  4  1  0  0  0  0
  9  8  2  0  0  0  0
 10 32  1  0  0  0  0
 10  8  1  0  0  0  0
 11 34  1  0  0  0  0
 11 10  1  0  0  0  0
 12 11  1  0  0  0  0
 13 12  2  0  0  0  0
 14 12  1  0  0  0  0
 14 15  1  0  0  0  0
 15 16  1  0  0  0  0
 15 36  1  0  0  0  0
 16 37  1  0  0  0  0
 16 38  1  0  0  0  0
 17 18  1  0  0  0  0
 17 16  1  0  0  0  0
 18 39  1  0  0  0  0
 19 40  1  0  0  0  0
 19 18  1  0  0  0  0
 20 42  1  0  0  0  0
 20 21  1  0  0  0  0
 20 19  1  0  0  0  0
 21 25  2  0  0  0  0
 22 21  1  0  0  0  0
 22 23  1  0  0  0  0
 23 45  1  0  0  0  0
 23 24  2  0  0  0  0
 25 17  1  0  0  0  0
 25 24  1  0  0  0  0
 26 27  1  0  0  0  0
 26 17  1  0  0  0  0
 27 49  1  0  0  0  0
 27 14  1  0  0  0  0
 28  3  1  0  0  0  0
 29  5  1  0  0  0  0
 33 11  1  0  0  0  0
 35 15  1  0  0  0  0
 41 19  1  0  0  0  0
 43 20  1  0  0  0  0
 44 22  1  0  0  0  0
 46 26  1  0  0  0  0
 47 26  1  0  0  0  0
 48 27  1  0  0  0  0
M  END
>  <Pose>
1

>  <Score>
-7.56

$$$$
