
 OpenBabel03202210193D

 36 39  0  0  1  0  0  0  0  0999 V2000
   24.5440   63.5110  -13.2840 B   0  0  0  0  0  0  0  0  0  0  0  0
   23.1260   63.4460  -11.9800 C   0  0  0  0  0  0  0  0  0  0  0  0
   23.3540   63.7830  -10.6720 C   0  0  0  0  0  0  0  0  0  0  0  0
   22.3240   63.7290   -9.7560 C   0  0  0  0  0  0  0  0  0  0  0  0
   21.0940   63.3330  -10.2060 C   0  0  0  0  0  0  0  0  0  0  0  0
   20.8610   62.9870  -11.5530 C   0  0  0  0  0  0  0  0  0  0  0  0
   21.8950   63.0460  -12.4480 C   0  0  0  0  0  0  0  0  0  0  0  0
   20.1390   63.3290   -9.1490 N   0  0  0  0  0  0  0  0  0  0  0  0
   20.7900   63.7380   -7.9790 C   0  0  0  0  0  0  0  0  0  0  0  0
   20.2420   63.8500   -6.8390 O   0  0  0  0  0  0  0  0  0  0  0  0
   22.2320   64.0190   -8.3040 C   0  0  2  0  0  0  0  0  0  0  0  0
   22.4470   65.4260   -7.9860 C   0  0  0  0  0  0  0  0  0  0  0  0
   23.3150   65.8050   -7.0100 C   0  0  0  0  0  0  0  0  0  0  0  0
   23.2820   67.1700   -6.9670 N   0  0  0  0  0  0  0  0  0  0  0  0
   22.4390   67.6330   -7.8660 N   0  0  0  0  0  0  0  0  0  0  0  0
   21.9030   66.6010   -8.5140 C   0  0  0  0  0  0  0  0  0  0  0  0
   20.8950   66.5980   -9.6200 C   0  0  0  0  0  0  0  0  0  0  0  0
   24.0530   64.8870   -6.2550 O   0  0  0  0  0  0  0  0  0  0  0  0
   23.8460   63.5460   -6.5610 C   0  0  0  0  0  0  0  0  0  0  0  0
   23.0260   63.1210   -7.4860 C   0  0  0  0  0  0  0  0  0  0  0  0
   22.9330   61.6630   -7.6740 C   0  0  0  0  0  0  0  0  0  0  0  0
   22.8540   60.5040   -7.8000 N   0  0  0  0  0  0  0  0  0  0  0  0
   24.5860   62.5450   -5.8080 N   0  0  0  0  0  0  0  0  0  0  0  0
   18.7190   62.9600   -9.2540 C   0  0  0  0  0  0  0  0  0  0  0  0
   24.3300   64.0930  -10.3350 H   0  0  0  0  0  0  0  0  0  0  0  0
   19.8870   62.6750  -11.9050 H   0  0  0  0  0  0  0  0  0  0  0  0
   21.7420   62.7820  -13.5060 H   0  0  0  0  0  0  0  0  0  0  0  0
   22.1920   68.6340   -8.0780 H   0  0  0  0  0  0  0  0  0  0  0  0
   20.6550   67.6740   -9.8210 H   0  0  0  0  0  0  0  0  0  0  0  0
   21.3380   66.2210  -10.5740 H   0  0  0  0  0  0  0  0  0  0  0  0
   19.9580   66.1160   -9.3430 H   0  0  0  0  0  0  0  0  0  0  0  0
   25.5880   62.7730   -5.6510 H   0  0  0  0  0  0  0  0  0  0  0  0
   24.1700   61.6840   -5.4570 H   0  0  0  0  0  0  0  0  0  0  0  0
   18.5510   62.0990   -8.5780 H   0  0  0  0  0  0  0  0  0  0  0  0
   18.1670   63.8240   -8.8150 H   0  0  0  0  0  0  0  0  0  0  0  0
   18.4240   62.7820  -10.2880 H   0  0  0  0  0  0  0  0  0  0  0  0
  1  2  1  0  0  0  0
  2  3  1  0  0  0  0
  3 25  1  0  0  0  0
  3  4  2  0  0  0  0
  5  4  1  0  0  0  0
  5  8  1  0  0  0  0
  6  5  2  0  0  0  0
  7  2  2  0  0  0  0
  7  6  1  0  0  0  0
  8  9  1  0  0  0  0
  9 10  2  0  0  0  0
 11  4  1  6  0  0  0
 11 12  1  0  0  0  0
 11  9  1  0  0  0  0
 11 20  1  0  0  0  0
 12 13  1  0  0  0  0
 13 14  2  0  0  0  0
 13 18  1  0  0  0  0
 15 14  1  0  0  0  0
 16 12  2  0  0  0  0
 16 15  1  0  0  0  0
 17 31  1  0  0  0  0
 17 16  1  0  0  0  0
 19 18  1  0  0  0  0
 19 23  1  0  0  0  0
 20 19  2  0  0  0  0
 21 20  1  0  0  0  0
 22 21  3  0  0  0  0
 23 32  1  0  0  0  0
 23 33  1  0  0  0  0
 24  8  1  0  0  0  0
 24 35  1  0  0  0  0
 24 34  1  0  0  0  0
 26  6  1  0  0  0  0
 27  7  1  0  0  0  0
 28 15  1  0  0  0  0
 29 17  1  0  0  0  0
 30 17  1  0  0  0  0
 36 24  1  0  0  0  0
M  END
>  <Pose>
1

>  <Score>
-4.88

$$$$
