
 OpenBabel03202210193D

 46 49  0  0  0  0  0  0  0  0999 V2000
   19.7570   65.7530  -10.1000 B   0  0  0  0  0  0  0  0  0  0  0  0
   18.6200   64.2190  -10.1450 C   0  0  0  0  0  0  0  0  0  0  0  0
   19.0810   62.9510  -10.0100 N   0  0  0  0  0  0  0  0  0  0  0  0
   17.9790   62.1720  -10.0960 C   0  0  0  0  0  0  0  0  0  0  0  0
   16.8470   62.9380  -10.2820 C   0  0  0  0  0  0  0  0  0  0  0  0
   17.2850   64.2190  -10.3070 N   0  0  0  0  0  0  0  0  0  0  0  0
   15.6130   62.3980  -10.3990 N   0  0  0  0  0  0  0  0  0  0  0  0
   15.5060   61.0590  -10.3290 C   0  0  0  0  0  0  0  0  0  0  0  0
   14.3890   60.4850  -10.4300 O   0  0  0  0  0  0  0  0  0  0  0  0
   16.6000   60.2700  -10.1470 N   0  0  0  0  0  0  0  0  0  0  0  0
   17.8280   60.7980  -10.0310 C   0  0  0  0  0  0  0  0  0  0  0  0
   18.8640   60.1160   -9.8620 O   0  0  0  0  0  0  0  0  0  0  0  0
   14.4330   63.2190  -10.5930 C   0  0  0  0  0  0  0  0  0  0  0  0
   20.4360   62.4960   -9.8170 C   0  0  0  0  0  0  0  0  0  0  0  0
   20.8040   62.4550   -8.3400 C   0  0  0  0  0  0  0  0  0  0  0  0
   20.9470   63.8460   -7.7800 C   0  0  0  0  0  0  0  0  0  0  0  0
   21.2650   63.9040   -6.3150 C   0  0  0  0  0  0  0  0  0  0  0  0
   22.6740   63.8520   -6.1090 N   0  0  0  0  0  0  0  0  0  0  0  0
   23.3860   63.6550   -5.0000 C   0  0  0  0  0  0  0  0  0  0  0  0
   24.7360   63.6540   -5.3290 C   0  0  0  0  0  0  0  0  0  0  0  0
   24.7880   63.8540   -6.6430 N   0  0  0  0  0  0  0  0  0  0  0  0
   23.5540   63.9780   -7.1340 C   0  0  0  0  0  0  0  0  0  0  0  0
   23.1590   64.2780   -8.9750 B   0  0  0  0  0  0  0  0  0  0  0  0
   25.6700   63.4800   -4.3890 N   0  0  0  0  0  0  0  0  0  0  0  0
   25.3290   63.3020   -3.0990 C   0  0  0  0  0  0  0  0  0  0  0  0
   26.2120   63.1380   -2.2210 O   0  0  0  0  0  0  0  0  0  0  0  0
   24.0330   63.3020   -2.7680 N   0  0  0  0  0  0  0  0  0  0  0  0
   23.0650   63.4730   -3.6800 C   0  0  0  0  0  0  0  0  0  0  0  0
   21.8620   63.4730   -3.3520 O   0  0  0  0  0  0  0  0  0  0  0  0
   27.0940   63.4740   -4.7070 C   0  0  0  0  0  0  0  0  0  0  0  0
   16.4770   59.2320  -10.0990 H   0  0  0  0  0  0  0  0  0  0  0  0
   14.6030   64.2660  -10.2650 H   0  0  0  0  0  0  0  0  0  0  0  0
   14.1940   63.2830  -11.6930 H   0  0  0  0  0  0  0  0  0  0  0  0
   13.5570   62.8530  -10.0180 H   0  0  0  0  0  0  0  0  0  0  0  0
   21.1500   63.0680  -10.4050 H   0  0  0  0  0  0  0  0  0  0  0  0
   20.4640   61.4310  -10.1630 H   0  0  0  0  0  0  0  0  0  0  0  0
   19.9550   61.9930   -7.7540 H   0  0  0  0  0  0  0  0  0  0  0  0
   21.7040   61.8590   -8.1490 H   0  0  0  0  0  0  0  0  0  0  0  0
   21.6720   64.4210   -8.3960 H   0  0  0  0  0  0  0  0  0  0  0  0
   19.9850   64.4280   -7.8960 H   0  0  0  0  0  0  0  0  0  0  0  0
   20.8220   64.8570   -5.9330 H   0  0  0  0  0  0  0  0  0  0  0  0
   20.7060   63.0970   -5.8040 H   0  0  0  0  0  0  0  0  0  0  0  0
   23.7220   63.1660   -1.7640 H   0  0  0  0  0  0  0  0  0  0  0  0
   27.1860   63.4580   -5.8160 H   0  0  0  0  0  0  0  0  0  0  0  0
   27.4970   62.5260   -4.2860 H   0  0  0  0  0  0  0  0  0  0  0  0
   27.6140   64.3450   -4.2730 H   0  0  0  0  0  0  0  0  0  0  0  0
  2  1  1  0  0  0  0
  2  3  1  0  0  0  0
  3 14  1  0  0  0  0
  4 11  1  0  0  0  0
  4  3  1  0  0  0  0
  5  4  2  0  0  0  0
  6  5  1  0  0  0  0
  6  2  2  0  0  0  0
  7  8  1  0  0  0  0
  7  5  1  0  0  0  0
  8 10  1  0  0  0  0
  9  8  2  0  0  0  0
 10 31  1  0  0  0  0
 10 11  1  0  0  0  0
 11 12  2  0  0  0  0
 13  7  1  0  0  0  0
 13 32  1  0  0  0  0
 13 34  1  0  0  0  0
 14 15  1  0  0  0  0
 15 38  1  0  0  0  0
 15 16  1  0  0  0  0
 15 37  1  0  0  0  0
 16 17  1  0  0  0  0
 17 18  1  0  0  0  0
 17 41  1  0  0  0  0
 17 42  1  0  0  0  0
 18 19  1  0  0  0  0
 19 28  1  0  0  0  0
 20 19  2  0  0  0  0
 20 24  1  0  0  0  0
 21 20  1  0  0  0  0
 22 21  2  0  0  0  0
 22 18  1  0  0  0  0
 23 22  1  0  0  0  0
 24 25  1  0  0  0  0
 25 27  1  0  0  0  0
 25 26  2  0  0  0  0
 27 43  1  0  0  0  0
 28 29  2  0  0  0  0
 28 27  1  0  0  0  0
 30 24  1  0  0  0  0
 30 45  1  0  0  0  0
 30 46  1  0  0  0  0
 33 13  1  0  0  0  0
 35 14  1  0  0  0  0
 36 14  1  0  0  0  0
 39 16  1  0  0  0  0
 40 16  1  0  0  0  0
 44 30  1  0  0  0  0
M  END
>  <Pose>
1

>  <Score>
-8.18

$$$$
