
 OpenBabel03202210193D

 53 56  0  0  1  0  0  0  0  0999 V2000
   27.5750   63.2910  -14.7810 B   0  0  0  0  0  0  0  0  0  0  0  0
   25.9770   63.3370  -13.7130 C   0  0  0  0  0  0  0  0  0  0  0  0
   24.7520   63.6370  -14.2630 C   0  0  0  0  0  0  0  0  0  0  0  0
   23.5850   63.6840  -13.5520 C   0  0  0  0  0  0  0  0  0  0  0  0
   23.6310   63.4150  -12.1970 C   0  0  0  0  0  0  0  0  0  0  0  0
   24.8430   63.1120  -11.6220 C   0  0  0  0  0  0  0  0  0  0  0  0
   26.0290   63.0670  -12.3610 C   0  0  0  0  0  0  0  0  0  0  0  0
   22.4290   63.4150  -11.3720 C   0  0  0  0  0  0  0  0  0  0  0  0
   22.3190   64.2070  -10.3250 C   0  0  0  0  0  0  0  0  0  0  0  0
   21.1870   64.3580   -9.3550 C   0  0  2  0  0  0  0  0  0  0  0  0
   21.8700   64.4650   -8.1170 N   0  0  0  0  0  0  0  0  0  0  0  0
   22.9740   65.3740   -8.4120 C   0  0  0  0  0  0  0  0  0  0  0  0
   23.5650   66.1490   -7.6160 O   0  0  0  0  0  0  0  0  0  0  0  0
   23.2650   65.2080   -9.8310 C   0  0  0  0  0  0  0  0  0  0  0  0
   24.1410   65.7770  -10.5630 O   0  0  0  0  0  0  0  0  0  0  0  0
   21.6450   63.9410   -6.7840 C   0  0  0  0  0  0  0  0  0  0  0  0
   22.6860   63.0600   -6.2110 C   0  0  0  0  0  0  0  0  0  0  0  0
   23.6850   63.7630   -5.3980 N   0  0  0  0  0  4  0  0  0  0  0  0
   24.9980   63.4470   -5.8470 C   0  0  0  0  0  0  0  0  0  0  0  0
   25.8680   62.7010   -4.8970 C   0  0  0  0  0  0  0  0  0  0  0  0
   25.5950   62.8960   -3.5570 O   0  0  0  0  0  0  0  0  0  0  0  0
   24.2670   62.4410   -3.3850 C   0  0  0  0  0  0  0  0  0  0  0  0
   23.3990   63.4660   -4.0250 C   0  0  0  0  0  0  0  0  0  0  0  0
   20.0990   63.4630   -9.5710 C   0  0  0  0  0  0  0  0  0  0  0  0
   18.8870   63.9670   -9.9750 C   0  0  0  0  0  0  0  0  0  0  0  0
   17.7970   63.1660  -10.2200 C   0  0  0  0  0  0  0  0  0  0  0  0
   17.8850   61.7910  -10.0640 C   0  0  0  0  0  0  0  0  0  0  0  0
   19.1120   61.3040   -9.6570 C   0  0  0  0  0  0  0  0  0  0  0  0
   20.1990   62.1140   -9.4140 C   0  0  0  0  0  0  0  0  0  0  0  0
   16.5080   60.7620  -10.3720 Cl  0  0  0  0  0  0  0  0  0  0  0  0
   21.4170   62.5490  -11.7480 O   0  0  0  0  0  0  0  0  0  0  0  0
   24.7340   63.8450  -15.3220 H   0  0  0  0  0  0  0  0  0  0  0  0
   22.6170   63.9180  -13.9680 H   0  0  0  0  0  0  0  0  0  0  0  0
   24.9400   62.8720  -10.5600 H   0  0  0  0  0  0  0  0  0  0  0  0
   26.9720   62.8230  -11.8650 H   0  0  0  0  0  0  0  0  0  0  0  0
   20.8260   65.4200   -9.5690 H   0  0  0  0  0  0  0  0  0  0  0  0
   21.5450   64.8060   -6.0490 H   0  0  0  0  0  0  0  0  0  0  0  0
   20.6090   63.4900   -6.7100 H   0  0  0  0  0  0  0  0  0  0  0  0
   23.2600   62.4390   -6.8950 H   0  0  0  0  0  0  0  0  0  0  0  0
   22.1290   62.4090   -5.4520 H   0  0  0  0  0  0  0  0  0  0  0  0
   23.4770   64.7960   -5.5600 H   0  0  0  0  0  0  0  0  0  0  0  0
   24.9480   62.9080   -6.8400 H   0  0  0  0  0  0  0  0  0  0  0  0
   25.5340   64.4190   -6.0640 H   0  0  0  0  0  0  0  0  0  0  0  0
   25.7230   61.5950   -5.0790 H   0  0  0  0  0  0  0  0  0  0  0  0
   26.9480   62.8890   -5.0360 H   0  0  0  0  0  0  0  0  0  0  0  0
   24.1240   61.4280   -3.7860 H   0  0  0  0  0  0  0  0  0  0  0  0
   24.0650   62.3970   -2.3050 H   0  0  0  0  0  0  0  0  0  0  0  0
   22.3300   63.1650   -3.8720 H   0  0  0  0  0  0  0  0  0  0  0  0
   23.5170   64.4120   -3.4250 H   0  0  0  0  0  0  0  0  0  0  0  0
   18.7440   65.0610  -10.1210 H   0  0  0  0  0  0  0  0  0  0  0  0
   16.8460   63.5670  -10.5380 H   0  0  0  0  0  0  0  0  0  0  0  0
   19.1600   60.2190   -9.5390 H   0  0  0  0  0  0  0  0  0  0  0  0
   21.1090   61.6040   -9.1130 H   0  0  0  0  0  0  0  0  0  0  0  0
  1  2  1  0  0  0  0
  2  7  1  0  0  0  0
  3  2  2  0  0  0  0
  3  4  1  0  0  0  0
  4  5  2  0  0  0  0
  5  6  1  0  0  0  0
  5  8  1  0  0  0  0
  6 34  1  0  0  0  0
  7 35  1  0  0  0  0
  7  6  2  0  0  0  0
  8  9  2  0  0  0  0
  9 14  1  0  0  0  0
  9 10  1  0  0  0  0
 10 36  1  6  0  0  0
 10 11  1  0  0  0  0
 11 16  1  0  0  0  0
 12 11  1  0  0  0  0
 12 13  2  0  0  0  0
 14 12  1  0  0  0  0
 15 14  2  0  0  0  0
 16 38  1  0  0  0  0
 16 17  1  0  0  0  0
 16 37  1  0  0  0  0
 17 40  1  0  0  0  0
 17 18  1  0  0  0  0
 18 23  1  0  0  0  0
 19 18  1  0  0  0  0
 19 20  1  0  0  0  0
 20 21  1  0  0  0  0
 21 22  1  0  0  0  0
 22 47  1  0  0  0  0
 23 48  1  0  0  0  0
 23 49  1  0  0  0  0
 23 22  1  0  0  0  0
 24 29  1  0  0  0  0
 24 10  1  0  0  0  0
 25 24  2  0  0  0  0
 26 27  2  0  0  0  0
 26 25  1  0  0  0  0
 27 28  1  0  0  0  0
 28 52  1  0  0  0  0
 28 29  2  0  0  0  0
 29 53  1  0  0  0  0
 30 27  1  0  0  0  0
 31  8  1  0  0  0  0
 32  3  1  0  0  0  0
 33  4  1  0  0  0  0
 39 17  1  0  0  0  0
 41 18  1  0  0  0  0
 42 19  1  0  0  0  0
 43 19  1  0  0  0  0
 44 20  1  0  0  0  0
 45 20  1  0  0  0  0
 46 22  1  0  0  0  0
 50 25  1  0  0  0  0
 51 26  1  0  0  0  0
M  END
>  <Pose>
1

>  <Score>
-5.75

$$$$
