
 OpenBabel03202210193D

 49 52  0  0  0  0  0  0  0  0999 V2000
   13.7970   63.8760  -10.9640 Cl  0  0  0  0  0  0  0  0  0  0  0  0
   15.4540   63.3080  -10.8090 C   0  0  0  0  0  0  0  0  0  0  0  0
   15.6700   61.9810  -10.5650 C   0  0  0  0  0  0  0  0  0  0  0  0
   16.9870   61.5260  -10.4460 C   0  0  0  0  0  0  0  0  0  0  0  0
   18.0170   62.4110  -10.5750 C   0  0  0  0  0  0  0  0  0  0  0  0
   17.8080   63.7260  -10.8170 C   0  0  0  0  0  0  0  0  0  0  0  0
   16.4840   64.1940  -10.9390 C   0  0  0  0  0  0  0  0  0  0  0  0
   19.4230   61.9080  -10.4450 C   0  0  0  0  0  0  0  0  0  0  0  0
   19.5360   60.6550  -10.4120 O   0  0  0  0  0  0  0  0  0  0  0  0
   20.4180   62.8250  -10.3770 N   0  0  0  0  0  0  0  0  0  0  0  0
   21.4250   63.7510  -10.3070 C   0  0  0  0  0  0  0  0  0  0  0  0
   21.7590   64.3060   -8.9970 C   0  0  0  0  0  0  0  0  0  0  0  0
   21.3700   65.5480   -8.8270 O   0  0  0  0  0  0  0  0  0  0  0  0
   22.4090   63.7610   -7.8980 N   0  0  0  0  0  0  0  0  0  0  0  0
   23.3530   62.6940   -7.9640 C   0  0  0  0  0  0  0  0  0  0  0  0
   23.5810   62.1700   -6.5280 C   0  0  0  0  0  0  0  0  0  0  0  0
   24.3120   63.2710   -5.7840 C   0  0  0  0  0  0  0  0  0  0  0  0
   25.5410   63.5220   -6.4170 N   0  0  0  0  0  0  0  0  0  0  0  0
   26.6740   62.7590   -6.1110 C   0  0  0  0  0  0  0  0  0  0  0  0
   26.8560   62.3290   -4.7040 C   0  0  0  0  0  0  0  0  0  0  0  0
   25.6280   62.4260   -3.8880 C   0  0  0  0  0  0  0  0  0  0  0  0
   25.4700   62.1200   -2.5860 N   0  0  0  0  0  0  0  0  0  0  0  0
   24.1970   62.3570   -2.2550 C   0  0  0  0  0  0  0  0  0  0  0  0
   23.5530   62.8140   -3.3530 N   0  0  0  0  0  0  0  0  0  0  0  0
   24.4270   62.8630   -4.3760 C   0  0  0  0  0  0  0  0  0  0  0  0
   23.4640   64.5490   -5.9000 C   0  0  0  0  0  0  0  0  0  0  0  0
   22.1350   64.2870   -6.5520 C   0  0  0  0  0  0  0  0  0  0  0  0
   14.8590   61.2820  -10.4630 H   0  0  0  0  0  0  0  0  0  0  0  0
   17.2060   60.4910  -10.2510 H   0  0  0  0  0  0  0  0  0  0  0  0
   18.5970   64.4610  -10.9270 H   0  0  0  0  0  0  0  0  0  0  0  0
   16.3020   65.2410  -11.1300 H   0  0  0  0  0  0  0  0  0  0  0  0
   21.3010   61.8680   -9.9270 H   0  0  0  0  0  0  0  0  0  0  0  0
   21.1820   64.6520  -10.9940 H   0  0  0  0  0  0  0  0  0  0  0  0
   22.4100   63.4100  -10.8050 H   0  0  0  0  0  0  0  0  0  0  0  0
   24.3220   63.0030   -8.3460 H   0  0  0  0  0  0  0  0  0  0  0  0
   22.8840   61.8580   -8.5580 H   0  0  0  0  0  0  0  0  0  0  0  0
   24.2140   61.2630   -6.5970 H   0  0  0  0  0  0  0  0  0  0  0  0
   22.6070   61.9360   -6.1080 H   0  0  0  0  0  0  0  0  0  0  0  0
   25.5700   64.1420   -7.2170 H   0  0  0  0  0  0  0  0  0  0  0  0
   27.5810   63.3840   -6.3800 H   0  0  0  0  0  0  0  0  0  0  0  0
   26.7440   61.8880   -6.8290 H   0  0  0  0  0  0  0  0  0  0  0  0
   27.6400   62.9510   -4.1770 H   0  0  0  0  0  0  0  0  0  0  0  0
   27.2920   61.2960   -4.6870 H   0  0  0  0  0  0  0  0  0  0  0  0
   23.7480   62.2140   -1.2790 H   0  0  0  0  0  0  0  0  0  0  0  0
   22.5520   63.0780   -3.3920 H   0  0  0  0  0  0  0  0  0  0  0  0
   23.3120   65.0190   -4.9020 H   0  0  0  0  0  0  0  0  0  0  0  0
   23.9920   65.3220   -6.5240 H   0  0  0  0  0  0  0  0  0  0  0  0
   21.6260   65.2850   -6.6260 H   0  0  0  0  0  0  0  0  0  0  0  0
   21.4870   63.6110   -5.9890 H   0  0  0  0  0  0  0  0  0  0  0  0
  1  2  1  0  0  0  0
  2  3  1  0  0  0  0
  3 28  1  0  0  0  0
  3  4  2  0  0  0  0
  4 29  1  0  0  0  0
  5  4  1  0  0  0  0
  5  8  1  0  0  0  0
  6  5  2  0  0  0  0
  7  6  1  0  0  0  0
  7  2  2  0  0  0  0
  8  9  2  0  0  0  0
  8 10  1  0  0  0  0
 10 11  1  0  0  0  0
 10 32  1  0  0  0  0
 11 12  1  0  0  0  0
 12 13  2  0  0  0  0
 12 14  1  0  0  0  0
 14 27  1  0  0  0  0
 15 14  1  0  0  0  0
 15 16  1  0  0  0  0
 16 38  1  0  0  0  0
 16 17  1  0  0  0  0
 17 25  1  0  0  0  0
 18 19  1  0  0  0  0
 18 17  1  0  0  0  0
 19 20  1  0  0  0  0
 20 43  1  0  0  0  0
 20 42  1  0  0  0  0
 20 21  1  0  0  0  0
 21 22  1  0  0  0  0
 22 23  2  0  0  0  0
 23 44  1  0  0  0  0
 24 23  1  0  0  0  0
 25 21  2  0  0  0  0
 25 24  1  0  0  0  0
 26 17  1  0  0  0  0
 26 46  1  0  0  0  0
 27 49  1  0  0  0  0
 27 26  1  0  0  0  0
 30  6  1  0  0  0  0
 31  7  1  0  0  0  0
 33 11  1  0  0  0  0
 34 11  1  0  0  0  0
 35 15  1  0  0  0  0
 36 15  1  0  0  0  0
 37 16  1  0  0  0  0
 39 18  1  0  0  0  0
 40 19  1  0  0  0  0
 41 19  1  0  0  0  0
 45 24  1  0  0  0  0
 47 26  1  0  0  0  0
 48 27  1  0  0  0  0
M  END
>  <Pose>
1

>  <Score>
-8.38

$$$$
