
 OpenBabel03202210193D

 44 47  0  0  1  0  0  0  0  0999 V2000
   24.4110   70.5390   -1.4580 B   0  0  0  0  0  0  0  0  0  0  0  0
   24.5280   70.5530   -3.3580 C   0  0  0  0  0  0  0  0  0  0  0  0
   23.7860   69.6710   -4.1380 C   0  0  0  0  0  0  0  0  0  0  0  0
   23.8760   69.6880   -5.5140 C   0  0  0  0  0  0  0  0  0  0  0  0
   24.7420   70.6260   -6.0640 C   0  0  0  0  0  0  0  0  0  0  0  0
   25.4790   71.5020   -5.3140 C   0  0  0  0  0  0  0  0  0  0  0  0
   25.3750   71.4680   -3.9450 C   0  0  0  0  0  0  0  0  0  0  0  0
   23.1390   68.8030   -6.3580 N   0  0  0  0  0  0  0  0  0  0  0  0
   23.7260   67.9740   -7.3540 C   0  0  0  0  0  0  0  0  0  0  0  0
   24.8400   68.2090   -7.8800 O   0  0  0  0  0  0  0  0  0  0  0  0
   22.7950   66.8780   -7.5940 C   0  0  2  0  0  0  0  0  0  0  0  0
   21.4470   67.5010   -7.2980 C   0  0  0  0  0  0  0  0  0  0  0  0
   21.7210   68.5940   -6.3450 C   0  0  0  0  0  0  0  0  0  0  0  0
   20.8890   69.2320   -5.6480 O   0  0  0  0  0  0  0  0  0  0  0  0
   23.0210   65.6880   -6.8760 N   0  0  0  0  0  0  0  0  0  0  0  0
   23.9720   64.7810   -7.3780 C   0  0  0  0  0  0  0  0  0  0  0  0
   23.2380   63.6980   -8.1810 C   0  0  0  0  0  0  0  0  0  0  0  0
   21.8240   63.7070   -7.8420 N   0  0  0  0  0  0  0  0  0  0  0  0
   21.3580   63.9970   -6.5000 C   0  0  0  0  0  0  0  0  0  0  0  0
   22.0800   65.2110   -5.9630 C   0  0  0  0  0  0  0  0  0  0  0  0
   20.8250   63.4470   -8.8380 C   0  0  0  0  0  0  0  0  0  0  0  0
   20.4740   62.1840   -9.1560 N   0  0  0  0  0  0  0  0  0  0  0  0
   19.5220   61.9460  -10.0800 C   0  0  0  0  0  0  0  0  0  0  0  0
   18.8710   62.9850  -10.7350 C   0  0  0  0  0  0  0  0  0  0  0  0
   19.2360   64.2780  -10.4030 C   0  0  0  0  0  0  0  0  0  0  0  0
   20.1910   64.4490   -9.4730 N   0  0  0  0  0  0  0  0  0  0  0  0
   23.1300   68.9650   -3.6560 H   0  0  0  0  0  0  0  0  0  0  0  0
   24.8200   70.6440   -7.1500 H   0  0  0  0  0  0  0  0  0  0  0  0
   26.1600   72.2370   -5.7580 H   0  0  0  0  0  0  0  0  0  0  0  0
   25.9610   72.1620   -3.3590 H   0  0  0  0  0  0  0  0  0  0  0  0
   22.7960   66.6330   -8.6940 H   0  0  0  0  0  0  0  0  0  0  0  0
   21.0720   67.9660   -8.2250 H   0  0  0  0  0  0  0  0  0  0  0  0
   20.7370   66.7520   -6.8860 H   0  0  0  0  0  0  0  0  0  0  0  0
   24.4620   64.2530   -6.5330 H   0  0  0  0  0  0  0  0  0  0  0  0
   24.7550   65.2140   -7.9810 H   0  0  0  0  0  0  0  0  0  0  0  0
   23.3270   63.9170   -9.2770 H   0  0  0  0  0  0  0  0  0  0  0  0
   23.6040   62.6910   -7.9670 H   0  0  0  0  0  0  0  0  0  0  0  0
   21.4910   63.0930   -5.8400 H   0  0  0  0  0  0  0  0  0  0  0  0
   20.2680   64.2800   -6.5210 H   0  0  0  0  0  0  0  0  0  0  0  0
   21.3810   65.9960   -5.6100 H   0  0  0  0  0  0  0  0  0  0  0  0
   22.6280   64.8550   -5.0390 H   0  0  0  0  0  0  0  0  0  0  0  0
   19.2260   60.9320  -10.3470 H   0  0  0  0  0  0  0  0  0  0  0  0
   18.1010   62.7600  -11.4820 H   0  0  0  0  0  0  0  0  0  0  0  0
   18.7370   65.1230  -10.8950 H   0  0  0  0  0  0  0  0  0  0  0  0
  2  1  1  0  0  0  0
  3 27  1  0  0  0  0
  3  2  2  0  0  0  0
  4  3  1  0  0  0  0
  5  4  2  0  0  0  0
  5  6  1  0  0  0  0
  6  7  2  0  0  0  0
  7 30  1  0  0  0  0
  7  2  1  0  0  0  0
  8 13  1  0  0  0  0
  8  4  1  0  0  0  0
  9  8  1  0  0  0  0
 10  9  2  0  0  0  0
 11 31  1  6  0  0  0
 11  9  1  0  0  0  0
 11 12  1  0  0  0  0
 11 15  1  0  0  0  0
 12 33  1  0  0  0  0
 12 13  1  0  0  0  0
 13 14  2  0  0  0  0
 15 20  1  0  0  0  0
 16 15  1  0  0  0  0
 16 34  1  0  0  0  0
 17 37  1  0  0  0  0
 17 18  1  0  0  0  0
 17 16  1  0  0  0  0
 18 19  1  0  0  0  0
 19 20  1  0  0  0  0
 19 38  1  0  0  0  0
 20 40  1  0  0  0  0
 20 41  1  0  0  0  0
 21 18  1  0  0  0  0
 22 21  2  0  0  0  0
 23 22  1  0  0  0  0
 24 25  1  0  0  0  0
 24 23  2  0  0  0  0
 25 26  2  0  0  0  0
 26 21  1  0  0  0  0
 28  5  1  0  0  0  0
 29  6  1  0  0  0  0
 32 12  1  0  0  0  0
 35 16  1  0  0  0  0
 36 17  1  0  0  0  0
 39 19  1  0  0  0  0
 42 23  1  0  0  0  0
 43 24  1  0  0  0  0
 44 25  1  0  0  0  0
M  END
>  <Pose>
1

>  <Score>
-5.26

$$$$
