
 OpenBabel03202210193D

 36 39  0  0  1  0  0  0  0  0999 V2000
   14.0750   61.8490  -10.6800 Cl  0  0  0  0  0  0  0  0  0  0  0  0
   15.8090   61.6690  -10.4570 C   0  0  0  0  0  0  0  0  0  0  0  0
   16.6480   62.7540  -10.3320 C   0  0  0  0  0  0  0  0  0  0  0  0
   17.9950   62.6120  -10.1590 N   0  0  0  0  0  0  0  0  0  0  0  0
   18.5700   61.3970  -10.1010 C   0  0  0  0  0  0  0  0  0  0  0  0
   19.9080   61.2530   -9.9290 N   0  0  0  0  0  0  0  0  0  0  0  0
   20.7250   62.3210   -9.8080 C   0  0  0  0  0  0  0  0  0  0  0  0
   20.1750   63.5690   -9.8630 C   0  0  2  0  0  0  0  0  0  0  0  0
   21.0350   64.7890   -9.7330 C   0  0  0  0  0  0  0  0  0  0  0  0
   22.1880   64.3540   -8.9260 N   0  0  0  0  0  0  0  0  0  0  0  0
   22.9700   63.3180   -9.5390 C   0  0  0  0  0  0  0  0  0  0  0  0
   22.1710   62.0290   -9.6240 C   0  0  0  0  0  0  0  0  0  0  0  0
   22.3880   64.9720   -7.6950 C   0  0  0  0  0  0  0  0  0  0  0  0
   21.7380   66.0430   -7.4350 O   0  0  0  0  0  0  0  0  0  0  0  0
   23.2940   64.5070   -6.6380 C   0  0  0  0  0  0  0  0  0  0  0  0
   24.6220   64.6260   -6.7290 N   0  0  0  0  0  0  0  0  0  0  0  0
   25.4390   64.1990   -5.7610 C   0  0  0  0  0  0  0  0  0  0  0  0
   24.9580   63.6100   -4.6110 C   0  0  0  0  0  0  0  0  0  0  0  0
   23.6200   63.4990   -4.5360 N   0  0  0  0  0  0  0  0  0  0  0  0
   22.7830   63.9160   -5.4870 C   0  0  0  0  0  0  0  0  0  0  0  0
   18.8030   63.6810  -10.0390 C   0  0  0  0  0  0  0  0  0  0  0  0
   18.2910   64.8170  -10.0900 O   0  0  0  0  0  0  0  0  0  0  0  0
   17.7330   60.2990  -10.2250 C   0  0  0  0  0  0  0  0  0  0  0  0
   16.3700   60.4120  -10.4010 C   0  0  0  0  0  0  0  0  0  0  0  0
   16.2560   63.7550  -10.3700 H   0  0  0  0  0  0  0  0  0  0  0  0
   20.4940   65.6180   -9.2580 H   0  0  0  0  0  0  0  0  0  0  0  0
   21.3600   65.0350  -10.7750 H   0  0  0  0  0  0  0  0  0  0  0  0
   23.9770   63.1770   -9.1740 H   0  0  0  0  0  0  0  0  0  0  0  0
   23.0940   63.6320  -10.6240 H   0  0  0  0  0  0  0  0  0  0  0  0
   22.3640   61.4440   -8.7160 H   0  0  0  0  0  0  0  0  0  0  0  0
   22.5490   61.4390  -10.4870 H   0  0  0  0  0  0  0  0  0  0  0  0
   26.5180   64.3010   -5.8470 H   0  0  0  0  0  0  0  0  0  0  0  0
   25.6190   63.2630   -3.8210 H   0  0  0  0  0  0  0  0  0  0  0  0
   21.7330   63.8050   -5.3790 H   0  0  0  0  0  0  0  0  0  0  0  0
   18.1790   59.3150  -10.1810 H   0  0  0  0  0  0  0  0  0  0  0  0
   15.7140   59.5510  -10.4980 H   0  0  0  0  0  0  0  0  0  0  0  0
  1  2  1  0  0  0  0
  2 24  2  0  0  0  0
  2  3  1  0  0  0  0
  3  4  1  0  0  0  0
  4  5  1  0  0  0  0
  4 21  1  0  0  0  0
  5  6  1  0  0  0  0
  6  7  2  0  0  0  0
  7 12  1  0  0  0  0
  8 21  1  1  0  0  0
  8  7  1  0  0  0  0
  8  9  1  0  0  0  0
  9 26  1  0  0  0  0
  9 10  1  0  0  0  0
 10 13  1  0  0  0  0
 11 28  1  0  0  0  0
 11 10  1  0  0  0  0
 12 11  1  0  0  0  0
 12 30  1  0  0  0  0
 13 14  2  0  0  0  0
 13 15  1  0  0  0  0
 15 20  1  0  0  0  0
 16 15  2  0  0  0  0
 16 17  1  0  0  0  0
 17 18  2  0  0  0  0
 18 19  1  0  0  0  0
 18 33  1  0  0  0  0
 20 34  1  0  0  0  0
 20 19  2  0  0  0  0
 22 21  2  0  0  0  0
 23 35  1  0  0  0  0
 23  5  2  0  0  0  0
 24 23  1  0  0  0  0
 25  3  1  0  0  0  0
 27  9  1  0  0  0  0
 29 11  1  0  0  0  0
 31 12  1  0  0  0  0
 32 17  1  0  0  0  0
 36 24  1  0  0  0  0
M  END
>  <Pose>
1

>  <Score>
-6.30

$$$$
