
 OpenBabel03202210193D

 45 48  0  0  1  0  0  0  0  0999 V2000
   15.5520   60.6370  -10.5040 Cl  0  0  0  0  0  0  0  0  0  0  0  0
   16.1760   62.2900  -10.5040 C   0  0  0  0  0  0  0  0  0  0  0  0
   17.4900   62.5220  -10.1750 C   0  0  0  0  0  0  0  0  0  0  0  0
   18.0180   63.8130  -10.1640 C   0  0  0  0  0  0  0  0  0  0  0  0
   17.1530   64.8350  -10.4990 C   0  0  0  0  0  0  0  0  0  0  0  0
   15.8320   64.5910  -10.8280 C   0  0  0  0  0  0  0  0  0  0  0  0
   15.3150   63.3130  -10.8380 C   0  0  0  0  0  0  0  0  0  0  0  0
   19.4360   64.0480   -9.8060 C   0  0  0  0  0  0  0  0  0  0  0  0
   19.6630   63.9990   -8.3190 C   0  0  0  0  0  0  0  0  0  0  0  0
   21.0590   64.0230   -7.9450 N   0  0  0  0  0  0  0  0  0  0  0  0
   21.7800   64.8630   -7.0260 C   0  0  2  0  0  0  0  0  0  0  0  0
   23.1700   64.8480   -7.6320 C   0  0  2  0  0  0  0  0  0  0  0  0
   23.3000   63.4700   -7.9570 O   0  0  0  0  0  0  0  0  0  0  0  0
   22.0330   63.1310   -8.4740 C   0  0  0  0  0  0  0  0  0  0  0  0
   21.8480   62.1690   -9.2840 O   0  0  0  0  0  0  0  0  0  0  0  0
   23.9600   65.2780   -6.4500 C   0  0  0  0  0  0  0  0  0  0  0  0
   23.4620   64.3360   -5.4210 N   0  0  0  0  0  0  0  0  0  0  0  0
   22.0800   64.1120   -5.7160 C   0  0  0  0  0  0  0  0  0  0  0  0
   24.3130   63.8530   -4.4240 C   0  0  0  0  0  0  0  0  0  0  0  0
   24.0840   64.1480   -3.1800 O   0  0  0  0  0  0  0  0  0  0  0  0
   25.4840   63.0180   -4.6240 C   0  0  0  0  0  0  0  0  0  0  0  0
   25.7450   61.8200   -4.0330 N   0  0  0  0  0  0  0  0  0  0  0  0
   26.9140   61.3710   -4.4820 C   0  0  0  0  0  0  0  0  0  0  0  0
   27.4130   62.2540   -5.3500 N   0  0  0  0  0  0  0  0  0  0  0  0
   26.5370   63.2800   -5.4490 C   0  0  0  0  0  0  0  0  0  0  0  0
   24.8840   61.1670   -3.0820 C   0  0  0  0  0  0  0  0  0  0  0  0
   18.1810   61.7170   -9.9090 H   0  0  0  0  0  0  0  0  0  0  0  0
   17.5590   65.8490  -10.4910 H   0  0  0  0  0  0  0  0  0  0  0  0
   15.1760   65.4200  -11.0880 H   0  0  0  0  0  0  0  0  0  0  0  0
   14.2850   63.1070  -11.0940 H   0  0  0  0  0  0  0  0  0  0  0  0
   19.6960   65.0750  -10.1360 H   0  0  0  0  0  0  0  0  0  0  0  0
   20.1310   63.3690  -10.3610 H   0  0  0  0  0  0  0  0  0  0  0  0
   19.1610   63.0540   -7.9630 H   0  0  0  0  0  0  0  0  0  0  0  0
   19.1160   64.8130   -7.8020 H   0  0  0  0  0  0  0  0  0  0  0  0
   21.3690   65.8500   -6.8640 H   0  0  0  0  0  0  0  0  0  0  0  0
   23.2630   65.4970   -8.5140 H   0  0  0  0  0  0  0  0  0  0  0  0
   25.0350   65.2490   -6.5600 H   0  0  0  0  0  0  0  0  0  0  0  0
   23.5760   66.2670   -6.1240 H   0  0  0  0  0  0  0  0  0  0  0  0
   21.3680   64.4210   -4.9430 H   0  0  0  0  0  0  0  0  0  0  0  0
   21.8890   63.0170   -5.9210 H   0  0  0  0  0  0  0  0  0  0  0  0
   27.4470   60.4440   -4.2300 H   0  0  0  0  0  0  0  0  0  0  0  0
   26.7300   64.1380   -6.1120 H   0  0  0  0  0  0  0  0  0  0  0  0
   23.9410   60.8000   -3.5350 H   0  0  0  0  0  0  0  0  0  0  0  0
   24.6290   61.8400   -2.2290 H   0  0  0  0  0  0  0  0  0  0  0  0
   25.4040   60.2950   -2.6360 H   0  0  0  0  0  0  0  0  0  0  0  0
  1  2  1  0  0  0  0
  2  3  1  0  0  0  0
  3  4  2  0  0  0  0
  3 27  1  0  0  0  0
  4  8  1  0  0  0  0
  5 28  1  0  0  0  0
  5  4  1  0  0  0  0
  6  5  2  0  0  0  0
  7  6  1  0  0  0  0
  7  2  2  0  0  0  0
  8  9  1  0  0  0  0
  9 33  1  0  0  0  0
  9 10  1  0  0  0  0
  9 34  1  0  0  0  0
 10 11  1  0  0  0  0
 11 35  1  1  0  0  0
 11 18  1  0  0  0  0
 12 36  1  6  0  0  0
 12 11  1  0  0  0  0
 12 16  1  0  0  0  0
 13 12  1  0  0  0  0
 14 13  1  0  0  0  0
 14 10  1  0  0  0  0
 15 14  2  0  0  0  0
 16 38  1  0  0  0  0
 16 17  1  0  0  0  0
 17 19  1  0  0  0  0
 18 17  1  0  0  0  0
 18 39  1  0  0  0  0
 19 20  2  0  0  0  0
 21 19  1  0  0  0  0
 21 22  1  0  0  0  0
 22 26  1  0  0  0  0
 23 41  1  0  0  0  0
 23 22  1  0  0  0  0
 24 23  2  0  0  0  0
 25 24  1  0  0  0  0
 25 21  2  0  0  0  0
 26 45  1  0  0  0  0
 26 44  1  0  0  0  0
 29  6  1  0  0  0  0
 30  7  1  0  0  0  0
 31  8  1  0  0  0  0
 32  8  1  0  0  0  0
 37 16  1  0  0  0  0
 40 18  1  0  0  0  0
 42 25  1  0  0  0  0
 43 26  1  0  0  0  0
M  END
>  <Pose>
1

>  <Score>
-7.39

$$$$
