
 OpenBabel03202210193D

 53 56  0  0  0  0  0  0  0  0999 V2000
   23.5200   68.9500   -6.3740 Cl  0  0  0  0  0  0  0  0  0  0  0  0
   22.2020   67.8010   -6.5990 C   0  0  0  0  0  0  0  0  0  0  0  0
   22.4620   66.4640   -6.3290 C   0  0  0  0  0  0  0  0  0  0  0  0
   21.4570   65.5540   -6.4990 C   0  0  0  0  0  0  0  0  0  0  0  0
   20.1980   66.0040   -6.9410 C   0  0  0  0  0  0  0  0  0  0  0  0
   19.9700   67.3250   -7.1980 C   0  0  0  0  0  0  0  0  0  0  0  0
   20.9770   68.2600   -7.0320 C   0  0  0  0  0  0  0  0  0  0  0  0
   21.6360   64.1160   -6.1900 C   0  0  0  0  0  0  0  0  0  0  0  0
   22.9720   63.6190   -6.2750 N   0  0  0  0  0  0  0  0  0  0  0  0
   23.6370   63.1220   -5.2110 C   0  0  0  0  0  0  0  0  0  0  0  0
   24.8990   62.7940   -5.6440 C   0  0  0  0  0  0  0  0  0  0  0  0
   24.9640   63.0930   -6.9260 N   0  0  0  0  0  0  0  0  0  0  0  0
   23.7800   63.6090   -7.3390 C   0  0  0  0  0  0  0  0  0  0  0  0
   23.5300   64.1030   -8.6640 N   0  0  0  0  0  0  0  0  0  0  0  0
   24.3690   63.5820   -9.7620 C   0  0  0  0  0  0  0  0  0  0  0  0
   23.5450   62.9770  -10.8530 C   0  0  0  0  0  0  0  0  0  0  0  0
   22.2030   63.5110  -10.8530 N   0  0  0  0  0  0  0  0  0  0  0  0
   22.0340   64.8860  -10.4330 C   0  0  0  0  0  0  0  0  0  0  0  0
   22.5300   65.0490   -9.0070 C   0  0  0  0  0  0  0  0  0  0  0  0
   21.1000   62.7120  -11.2580 C   0  0  0  0  0  0  0  0  0  0  0  0
   21.0100   62.3110  -12.4390 O   0  0  0  0  0  0  0  0  0  0  0  0
   20.0330   62.3310  -10.3030 C   0  0  0  0  0  0  0  0  0  0  0  0
   18.9070   63.3510  -10.4540 C   0  0  0  0  0  0  0  0  0  0  0  0
   25.7680   62.2670   -4.7350 N   0  0  0  0  0  0  0  0  0  0  0  0
   25.4170   62.0690   -3.4590 C   0  0  0  0  0  0  0  0  0  0  0  0
   26.2580   61.5790   -2.6560 O   0  0  0  0  0  0  0  0  0  0  0  0
   24.1980   62.3750   -2.9960 N   0  0  0  0  0  0  0  0  0  0  0  0
   23.3130   62.9010   -3.8760 C   0  0  0  0  0  0  0  0  0  0  0  0
   22.1740   63.1900   -3.4490 O   0  0  0  0  0  0  0  0  0  0  0  0
   27.1160   61.9160   -5.1750 C   0  0  0  0  0  0  0  0  0  0  0  0
   23.4670   66.1830   -6.0070 H   0  0  0  0  0  0  0  0  0  0  0  0
   19.3950   65.2660   -7.0750 H   0  0  0  0  0  0  0  0  0  0  0  0
   19.0180   67.7080   -7.5390 H   0  0  0  0  0  0  0  0  0  0  0  0
   20.8190   69.3140   -7.2290 H   0  0  0  0  0  0  0  0  0  0  0  0
   20.9780   63.5230   -6.8960 H   0  0  0  0  0  0  0  0  0  0  0  0
   21.1660   63.9520   -5.1990 H   0  0  0  0  0  0  0  0  0  0  0  0
   24.9800   64.4350  -10.1160 H   0  0  0  0  0  0  0  0  0  0  0  0
   25.0160   62.7670   -9.3540 H   0  0  0  0  0  0  0  0  0  0  0  0
   24.0070   63.2620  -11.8390 H   0  0  0  0  0  0  0  0  0  0  0  0
   23.5020   61.8690  -10.7940 H   0  0  0  0  0  0  0  0  0  0  0  0
   22.7000   65.5100  -11.1010 H   0  0  0  0  0  0  0  0  0  0  0  0
   21.0220   65.2810  -10.5620 H   0  0  0  0  0  0  0  0  0  0  0  0
   21.6720   64.9490   -8.3190 H   0  0  0  0  0  0  0  0  0  0  0  0
   22.9050   66.1150   -8.8980 H   0  0  0  0  0  0  0  0  0  0  0  0
   19.6210   61.3160  -10.5600 H   0  0  0  0  0  0  0  0  0  0  0  0
   20.3960   62.2430   -9.2720 H   0  0  0  0  0  0  0  0  0  0  0  0
   18.0880   62.9870  -11.1070 H   0  0  0  0  0  0  0  0  0  0  0  0
   19.2680   64.3050  -10.8920 H   0  0  0  0  0  0  0  0  0  0  0  0
   18.5010   63.6070   -9.4460 H   0  0  0  0  0  0  0  0  0  0  0  0
   23.9660   62.2060   -1.9920 H   0  0  0  0  0  0  0  0  0  0  0  0
   27.4710   61.0170   -4.6240 H   0  0  0  0  0  0  0  0  0  0  0  0
   27.7680   62.7960   -4.9020 H   0  0  0  0  0  0  0  0  0  0  0  0
   27.1580   61.7990   -6.2650 H   0  0  0  0  0  0  0  0  0  0  0  0
  2  1  1  0  0  0  0
  2  3  1  0  0  0  0
  3 31  1  0  0  0  0
  4  3  2  0  0  0  0
  4  8  1  0  0  0  0
  5  4  1  0  0  0  0
  6  7  1  0  0  0  0
  6  5  2  0  0  0  0
  7  2  2  0  0  0  0
  8 36  1  0  0  0  0
  9  8  1  0  0  0  0
  9 10  1  0  0  0  0
 10 28  1  0  0  0  0
 11 10  2  0  0  0  0
 11 24  1  0  0  0  0
 12 11  1  0  0  0  0
 13 12  2  0  0  0  0
 13  9  1  0  0  0  0
 14 13  1  0  0  0  0
 15 38  1  0  0  0  0
 15 14  1  0  0  0  0
 16 17  1  0  0  0  0
 16 40  1  0  0  0  0
 16 15  1  0  0  0  0
 17 18  1  0  0  0  0
 18 19  1  0  0  0  0
 19 44  1  0  0  0  0
 19 14  1  0  0  0  0
 19 43  1  0  0  0  0
 20 17  1  0  0  0  0
 20 22  1  0  0  0  0
 21 20  2  0  0  0  0
 22 46  1  0  0  0  0
 23 22  1  0  0  0  0
 23 49  1  0  0  0  0
 24 25  1  0  0  0  0
 25 27  1  0  0  0  0
 25 26  2  0  0  0  0
 27 50  1  0  0  0  0
 28 29  2  0  0  0  0
 28 27  1  0  0  0  0
 30 52  1  0  0  0  0
 30 24  1  0  0  0  0
 30 51  1  0  0  0  0
 32  5  1  0  0  0  0
 33  6  1  0  0  0  0
 34  7  1  0  0  0  0
 35  8  1  0  0  0  0
 37 15  1  0  0  0  0
 39 16  1  0  0  0  0
 41 18  1  0  0  0  0
 42 18  1  0  0  0  0
 45 22  1  0  0  0  0
 47 23  1  0  0  0  0
 48 23  1  0  0  0  0
 53 30  1  0  0  0  0
M  END
>  <Pose>
1

>  <Score>
-5.69

$$$$
