
 OpenBabel03202210193D

 60 64  0  0  1  0  0  0  0  0999 V2000
   27.3610   61.3660   -3.3690 Cl  0  0  0  0  0  0  0  0  0  0  0  0
   25.9610   62.2220   -4.0340 C   0  0  0  0  0  0  0  0  0  0  0  0
   24.7330   62.1070   -3.4280 C   0  0  0  0  0  0  0  0  0  0  0  0
   23.6340   62.7780   -3.9460 C   0  0  0  0  0  0  0  0  0  0  0  0
   23.6960   63.5730   -5.0590 C   0  0  0  0  0  0  0  0  0  0  0  0
   24.9620   63.6730   -5.6560 C   0  0  0  0  0  0  0  0  0  0  0  0
   26.0590   63.0120   -5.1500 C   0  0  0  0  0  0  0  0  0  0  0  0
   22.3790   64.1230   -5.3360 C   0  0  1  0  0  0  0  0  0  0  0  0
   22.4650   65.5750   -5.2140 N   0  0  0  0  0  0  0  0  0  0  0  0
   22.4740   66.0170   -6.5820 C   0  0  1  0  0  0  0  0  0  0  0  0
   21.3940   65.1560   -7.1960 C   0  0  2  0  0  0  0  0  0  0  0  0
   21.7980   63.7970   -6.6680 C   0  0  1  0  0  0  0  0  0  0  0  0
   22.6950   63.2660   -7.6750 C   0  0  0  0  0  0  0  0  0  0  0  0
   23.4820   62.3030   -7.5440 O   0  0  0  0  0  0  0  0  0  0  0  0
   22.5490   64.0190   -8.8710 N   0  0  0  0  0  0  0  0  0  0  0  0
   21.5630   65.0330   -8.6660 C   0  0  0  0  0  0  0  0  0  0  0  0
   20.9310   65.7180   -9.5050 O   0  0  0  0  0  0  0  0  0  0  0  0
   23.2380   63.8570  -10.1370 C   0  0  0  0  0  0  0  0  0  0  0  0
   22.3620   63.2930  -11.1800 C   0  0  0  0  0  0  0  0  0  0  0  0
   22.8870   63.1290  -12.4440 C   0  0  0  0  0  0  0  0  0  0  0  0
   22.0570   62.5980  -13.4220 C   0  0  0  0  0  0  0  0  0  0  0  0
   20.7650   62.2470  -13.1490 C   0  0  0  0  0  0  0  0  0  0  0  0
   20.2790   62.4240  -11.8760 C   0  0  0  0  0  0  0  0  0  0  0  0
   21.0520   62.9470  -10.8630 C   0  0  0  0  0  0  0  0  0  0  0  0
   24.1940   63.4910  -12.6950 O   0  0  0  0  0  0  0  0  0  0  0  0
   24.7590   63.6110  -13.9630 C   0  0  0  0  0  0  0  0  0  0  0  0
   22.1560   67.4920   -6.6890 C   0  0  0  0  0  0  0  0  0  0  0  0
   23.3720   68.2380   -6.1820 C   0  0  0  0  0  0  0  0  0  0  0  0
   23.0530   69.6490   -5.8510 C   0  0  0  0  0  0  0  0  0  0  0  0
   21.8860   70.0870   -6.0600 O   0  0  0  0  0  0  0  0  0  0  0  0
   24.0980   70.4440   -5.3070 N   0  0  0  0  0  0  0  0  0  0  0  0
   21.5040   63.5850   -4.2670 C   0  0  0  0  0  0  0  0  0  0  0  0
   20.2680   63.7980   -4.0950 O   0  0  0  0  0  0  0  0  0  0  0  0
   22.3040   62.7670   -3.4420 N   0  0  0  0  0  0  0  0  0  0  0  0
   24.6140   61.2530   -2.2140 C   0  0  0  0  0  0  0  0  0  0  0  0
   25.0850   64.2830   -6.5360 H   0  0  0  0  0  0  0  0  0  0  0  0
   27.0230   63.1120   -5.6380 H   0  0  0  0  0  0  0  0  0  0  0  0
   23.3160   65.8310   -4.6690 H   0  0  0  0  0  0  0  0  0  0  0  0
   23.4000   65.8490   -7.1320 H   0  0  0  0  0  0  0  0  0  0  0  0
   20.3830   65.4570   -6.8990 H   0  0  0  0  0  0  0  0  0  0  0  0
   20.9010   63.1390   -6.6130 H   0  0  0  0  0  0  0  0  0  0  0  0
   23.6400   64.8260  -10.4900 H   0  0  0  0  0  0  0  0  0  0  0  0
   24.1290   63.2130   -9.9330 H   0  0  0  0  0  0  0  0  0  0  0  0
   22.4600   62.4660  -14.4130 H   0  0  0  0  0  0  0  0  0  0  0  0
   20.1460   61.8300  -13.9550 H   0  0  0  0  0  0  0  0  0  0  0  0
   19.2580   62.1500  -11.6510 H   0  0  0  0  0  0  0  0  0  0  0  0
   20.6580   63.0870   -9.8470 H   0  0  0  0  0  0  0  0  0  0  0  0
   25.8380   63.8540  -13.8300 H   0  0  0  0  0  0  0  0  0  0  0  0
   24.3110   64.4980  -14.4610 H   0  0  0  0  0  0  0  0  0  0  0  0
   24.6470   62.6800  -14.5370 H   0  0  0  0  0  0  0  0  0  0  0  0
   21.2390   67.7680   -6.1450 H   0  0  0  0  0  0  0  0  0  0  0  0
   22.0880   67.7190   -7.7810 H   0  0  0  0  0  0  0  0  0  0  0  0
   23.8620   67.7180   -5.3220 H   0  0  0  0  0  0  0  0  0  0  0  0
   24.1160   68.2420   -7.0040 H   0  0  0  0  0  0  0  0  0  0  0  0
   23.8410   71.3070   -4.7980 H   0  0  0  0  0  0  0  0  0  0  0  0
   25.0820   70.1060   -5.4560 H   0  0  0  0  0  0  0  0  0  0  0  0
   21.9550   62.2430   -2.5950 H   0  0  0  0  0  0  0  0  0  0  0  0
   24.1250   60.2970   -2.4520 H   0  0  0  0  0  0  0  0  0  0  0  0
   25.5930   61.0630   -1.7730 H   0  0  0  0  0  0  0  0  0  0  0  0
   23.9670   61.7470   -1.4370 H   0  0  0  0  0  0  0  0  0  0  0  0
  2  3  1  0  0  0  0
  2  1  1  0  0  0  0
  3 35  1  0  0  0  0
  4 34  1  0  0  0  0
  4  3  2  0  0  0  0
  5  4  1  0  0  0  0
  6  7  1  0  0  0  0
  6  5  2  0  0  0  0
  7  2  2  0  0  0  0
  8  9  1  0  0  0  0
  8  5  1  1  0  0  0
  8 32  1  0  0  0  0
  9 38  1  0  0  0  0
 10 39  1  6  0  0  0
 10  9  1  0  0  0  0
 11 40  1  1  0  0  0
 11 12  1  0  0  0  0
 11 10  1  0  0  0  0
 12 41  1  1  0  0  0
 12  8  1  0  0  0  0
 13 14  2  0  0  0  0
 13 12  1  0  0  0  0
 15 16  1  0  0  0  0
 15 13  1  0  0  0  0
 16 11  1  0  0  0  0
 17 16  2  0  0  0  0
 18 43  1  0  0  0  0
 18 15  1  0  0  0  0
 19 24  1  0  0  0  0
 19 18  1  0  0  0  0
 20 19  2  0  0  0  0
 21 22  2  0  0  0  0
 21 20  1  0  0  0  0
 22 23  1  0  0  0  0
 23 46  1  0  0  0  0
 23 24  2  0  0  0  0
 24 47  1  0  0  0  0
 25 20  1  0  0  0  0
 26 48  1  0  0  0  0
 26 25  1  0  0  0  0
 27 10  1  0  0  0  0
 27 28  1  0  0  0  0
 27 51  1  0  0  0  0
 28 29  1  0  0  0  0
 28 53  1  0  0  0  0
 29 31  1  0  0  0  0
 30 29  2  0  0  0  0
 31 55  1  0  0  0  0
 32 33  2  0  0  0  0
 32 34  1  0  0  0  0
 34 57  1  0  0  0  0
 35 59  1  0  0  0  0
 35 60  1  0  0  0  0
 36  6  1  0  0  0  0
 37  7  1  0  0  0  0
 42 18  1  0  0  0  0
 44 21  1  0  0  0  0
 45 22  1  0  0  0  0
 49 26  1  0  0  0  0
 50 26  1  0  0  0  0
 52 27  1  0  0  0  0
 54 28  1  0  0  0  0
 56 31  1  0  0  0  0
 58 35  1  0  0  0  0
M  END
>  <Pose>
1

>  <Score>
-6.97

$$$$
