
 OpenBabel03202210193D

 42 45  0  0  1  0  0  0  0  0999 V2000
   23.2350   68.9980   -6.2670 Cl  0  0  0  0  0  0  0  0  0  0  0  0
   21.8890   67.9370   -6.6190 C   0  0  0  0  0  0  0  0  0  0  0  0
   22.0310   66.5720   -6.6960 C   0  0  0  0  0  0  0  0  0  0  0  0
   20.9820   65.7060   -6.9760 C   0  0  0  0  0  0  0  0  0  0  0  0
   19.7320   66.2820   -7.1840 C   0  0  0  0  0  0  0  0  0  0  0  0
   19.5620   67.6460   -7.1130 C   0  0  0  0  0  0  0  0  0  0  0  0
   20.6350   68.4660   -6.8320 C   0  0  0  0  0  0  0  0  0  0  0  0
   21.1810   64.2370   -7.0500 C   0  0  1  0  0  0  0  0  0  0  0  0
   21.5090   63.7620   -8.3640 N   0  0  0  0  0  0  0  0  0  0  0  0
   22.9180   63.6140   -8.5070 C   0  0  0  0  0  0  0  0  0  0  0  0
   23.5720   63.4870   -9.5830 O   0  0  0  0  0  0  0  0  0  0  0  0
   23.5090   63.6330   -7.1520 C   0  0  0  0  0  0  0  0  0  0  0  0
   24.7300   63.5300   -6.8980 O   0  0  0  0  0  0  0  0  0  0  0  0
   22.3770   63.7950   -6.2500 C   0  0  0  0  0  0  0  0  0  0  0  0
   22.4440   63.6110   -4.9490 C   0  0  0  0  0  0  0  0  0  0  0  0
   21.2710   63.8590   -4.2070 O   0  0  0  0  0  0  0  0  0  0  0  0
   23.6360   63.1690   -4.2390 C   0  0  0  0  0  0  0  0  0  0  0  0
   23.6150   61.9520   -3.5440 C   0  0  0  0  0  0  0  0  0  0  0  0
   24.7370   61.4950   -2.8880 C   0  0  0  0  0  0  0  0  0  0  0  0
   25.9240   62.1970   -2.8800 C   0  0  0  0  0  0  0  0  0  0  0  0
   25.9660   63.3950   -3.5580 C   0  0  0  0  0  0  0  0  0  0  0  0
   24.8280   63.8560   -4.2210 C   0  0  0  0  0  0  0  0  0  0  0  0
   20.5780   63.4780   -9.3860 C   0  0  1  0  0  0  0  0  0  0  0  0
   20.4720   62.1730   -9.7490 N   0  0  0  0  0  0  0  0  0  0  0  0
   19.6280   61.7760  -10.7010 C   0  0  0  0  0  0  0  0  0  0  0  0
   18.8520   62.7300  -11.3190 C   0  0  0  0  0  0  0  0  0  0  0  0
   18.9760   64.0480  -10.9340 C   0  0  0  0  0  0  0  0  0  0  0  0
   19.8310   64.4400   -9.9730 N   0  0  0  0  0  0  0  0  0  0  0  0
   23.0250   66.1820   -6.5280 H   0  0  0  0  0  0  0  0  0  0  0  0
   18.9020   65.6180   -7.4070 H   0  0  0  0  0  0  0  0  0  0  0  0
   18.5730   68.0990   -7.2790 H   0  0  0  0  0  0  0  0  0  0  0  0
   20.4910   69.5360   -6.7770 H   0  0  0  0  0  0  0  0  0  0  0  0
   20.2490   63.7670   -6.6690 H   0  0  0  0  0  0  0  0  0  0  0  0
   22.6780   61.4030   -3.5540 H   0  0  0  0  0  0  0  0  0  0  0  0
   24.6740   60.5510   -2.3640 H   0  0  0  0  0  0  0  0  0  0  0  0
   26.8170   61.8570   -2.3740 H   0  0  0  0  0  0  0  0  0  0  0  0
   26.8980   63.9730   -3.5650 H   0  0  0  0  0  0  0  0  0  0  0  0
   24.9100   64.8020   -4.7660 H   0  0  0  0  0  0  0  0  0  0  0  0
   21.0610   61.4330   -9.2770 H   0  0  0  0  0  0  0  0  0  0  0  0
   19.5760   60.7270  -10.9620 H   0  0  0  0  0  0  0  0  0  0  0  0
   18.1630   62.4190  -12.0940 H   0  0  0  0  0  0  0  0  0  0  0  0
   18.3440   64.7580  -11.4480 H   0  0  0  0  0  0  0  0  0  0  0  0
  2  1  1  0  0  0  0
  3  2  1  0  0  0  0
  3 29  1  0  0  0  0
  4  3  2  0  0  0  0
  5  6  2  0  0  0  0
  5  4  1  0  0  0  0
  6  7  1  0  0  0  0
  7 32  1  0  0  0  0
  7  2  2  0  0  0  0
  8  4  1  0  0  0  0
  8 33  1  1  0  0  0
  8 14  1  0  0  0  0
  9  8  1  0  0  0  0
 10  9  1  0  0  0  0
 10 12  1  0  0  0  0
 11 10  2  0  0  0  0
 12 13  2  0  0  0  0
 12 14  1  0  0  0  0
 14 15  2  0  0  0  0
 15 17  1  0  0  0  0
 15 16  1  0  0  0  0
 17 22  2  0  0  0  0
 17 18  1  0  0  0  0
 18 19  2  0  0  0  0
 19 20  1  0  0  0  0
 19 35  1  0  0  0  0
 20 36  1  0  0  0  0
 21 20  2  0  0  0  0
 22 21  1  0  0  0  0
 23  9  1  1  0  0  0
 24 23  1  0  0  0  0
 24 39  1  0  0  0  0
 25 24  1  0  0  0  0
 26 27  1  0  0  0  0
 26 25  2  0  0  0  0
 27 28  2  0  0  0  0
 28 23  1  0  0  0  0
 30  5  1  0  0  0  0
 31  6  1  0  0  0  0
 34 18  1  0  0  0  0
 37 21  1  0  0  0  0
 38 22  1  0  0  0  0
 40 25  1  0  0  0  0
 41 26  1  0  0  0  0
 42 27  1  0  0  0  0
M  END
>  <Pose>
1

>  <Score>
-5.72

$$$$
