
 OpenBabel03202210193D

 63 66  0  0  0  0  0  0  0  0999 V2000
   23.1240   63.2870   -8.3730 S   0  0  0  0  0  0  0  0  0  0  0  0
   23.2850   61.9100   -7.8150 O   0  0  0  0  0  0  0  0  0  0  0  0
   24.0780   63.5490   -9.5100 O   0  0  0  0  0  0  0  0  0  0  0  0
   21.5020   63.5560   -8.9770 C   0  0  0  0  0  0  0  0  0  0  0  0
   21.2800   64.1720  -10.2010 C   0  0  0  0  0  0  0  0  0  0  0  0
   20.0060   64.3660  -10.6370 N   0  0  0  0  0  0  0  0  0  0  0  0
   18.9330   63.9840   -9.9310 C   0  0  0  0  0  0  0  0  0  0  0  0
   19.1410   63.3860   -8.7450 N   0  0  0  0  0  0  0  0  0  0  0  0
   20.3810   63.1730   -8.2720 C   0  0  0  0  0  0  0  0  0  0  0  0
   17.5980   64.1920  -10.3870 N   0  0  0  0  0  0  0  0  0  0  0  0
   17.2910   64.4610  -11.7710 C   0  0  0  0  0  0  0  0  0  0  0  0
   16.2800   63.5270  -12.3750 C   0  0  0  0  0  0  0  0  0  0  0  0
   15.3690   62.9110  -11.3260 C   0  0  0  0  0  0  0  0  0  0  0  0
   15.2260   64.0250  -10.2750 C   0  0  0  0  0  0  0  0  0  0  0  0
   16.4750   64.1450   -9.4680 C   0  0  0  0  0  0  0  0  0  0  0  0
   15.8620   61.7720  -10.7120 N   0  0  0  0  0  0  0  0  0  0  0  0
   17.0810   61.1790  -11.1020 C   0  0  0  0  0  0  0  0  0  0  0  0
   17.7050   60.5500   -9.8450 C   0  0  0  0  0  0  0  0  0  0  0  0
   16.5960   60.2790   -8.8640 C   0  0  0  0  0  0  0  0  0  0  0  0
   15.3450   59.7700   -9.5320 C   0  0  0  0  0  0  0  0  0  0  0  0
   14.8900   60.7160  -10.6310 C   0  0  0  0  0  0  0  0  0  0  0  0
   14.0260   62.7550  -11.9290 C   0  0  0  0  0  0  0  0  0  0  0  0
   13.3640   63.7750  -12.3190 O   0  0  0  0  0  0  0  0  0  0  0  0
   13.4020   61.5160  -12.1120 N   0  0  0  0  0  0  0  0  0  0  0  0
   22.4090   64.5720  -10.9380 N   0  0  0  0  0  0  0  0  0  0  0  0
   23.4380   64.4970   -7.1200 C   0  0  0  0  0  0  0  0  0  0  0  0
   24.2580   64.1900   -6.0530 C   0  0  0  0  0  0  0  0  0  0  0  0
   24.4750   65.1630   -5.1010 C   0  0  0  0  0  0  0  0  0  0  0  0
   23.8920   66.4230   -5.1990 C   0  0  0  0  0  0  0  0  0  0  0  0
   23.0800   66.6910   -6.2800 C   0  0  0  0  0  0  0  0  0  0  0  0
   22.8430   65.7380   -7.2490 C   0  0  0  0  0  0  0  0  0  0  0  0
   22.3310   68.2870   -6.4200 Cl  0  0  0  0  0  0  0  0  0  0  0  0
   24.8120   62.9410   -5.9910 O   0  0  0  0  0  0  0  0  0  0  0  0
   25.7010   62.4960   -5.0050 C   0  0  0  0  0  0  0  0  0  0  0  0
   20.5520   62.6830   -7.3020 H   0  0  0  0  0  0  0  0  0  0  0  0
   16.9220   65.5310  -11.7850 H   0  0  0  0  0  0  0  0  0  0  0  0
   18.2150   64.5000  -12.3980 H   0  0  0  0  0  0  0  0  0  0  0  0
   15.6220   64.1590  -13.0120 H   0  0  0  0  0  0  0  0  0  0  0  0
   16.7160   62.7710  -13.0480 H   0  0  0  0  0  0  0  0  0  0  0  0
   14.2880   63.9830   -9.7240 H   0  0  0  0  0  0  0  0  0  0  0  0
   15.1590   64.9960  -10.8660 H   0  0  0  0  0  0  0  0  0  0  0  0
   16.6360   63.3700   -8.7080 H   0  0  0  0  0  0  0  0  0  0  0  0
   16.5020   65.1550   -8.9500 H   0  0  0  0  0  0  0  0  0  0  0  0
   16.8970   60.2760  -11.7610 H   0  0  0  0  0  0  0  0  0  0  0  0
   17.8410   61.8140  -11.5320 H   0  0  0  0  0  0  0  0  0  0  0  0
   18.2670   59.6230  -10.1000 H   0  0  0  0  0  0  0  0  0  0  0  0
   18.4180   61.3080   -9.4040 H   0  0  0  0  0  0  0  0  0  0  0  0
   16.3260   61.2350   -8.3380 H   0  0  0  0  0  0  0  0  0  0  0  0
   16.8840   59.5070   -8.1120 H   0  0  0  0  0  0  0  0  0  0  0  0
   14.5640   59.6820   -8.7340 H   0  0  0  0  0  0  0  0  0  0  0  0
   15.5220   58.7410   -9.8870 H   0  0  0  0  0  0  0  0  0  0  0  0
   13.8520   61.0010  -10.5450 H   0  0  0  0  0  0  0  0  0  0  0  0
   15.0120   60.1060  -11.5790 H   0  0  0  0  0  0  0  0  0  0  0  0
   13.1260   60.9650  -11.2530 H   0  0  0  0  0  0  0  0  0  0  0  0
   13.1650   61.0650  -13.0180 H   0  0  0  0  0  0  0  0  0  0  0  0
   22.6800   64.1530  -11.8520 H   0  0  0  0  0  0  0  0  0  0  0  0
   23.0180   65.3270  -10.5610 H   0  0  0  0  0  0  0  0  0  0  0  0
   25.1130   64.9630   -4.2440 H   0  0  0  0  0  0  0  0  0  0  0  0
   24.0900   67.1480   -4.4340 H   0  0  0  0  0  0  0  0  0  0  0  0
   22.1930   65.9700   -8.1060 H   0  0  0  0  0  0  0  0  0  0  0  0
   25.1370   62.2610   -4.0870 H   0  0  0  0  0  0  0  0  0  0  0  0
   26.1480   61.5270   -5.3530 H   0  0  0  0  0  0  0  0  0  0  0  0
   26.5520   63.1740   -4.8260 H   0  0  0  0  0  0  0  0  0  0  0  0
  1  2  2  0  0  0  0
  1 26  1  0  0  0  0
  3  1  2  0  0  0  0
  4  1  1  0  0  0  0
  4  9  1  0  0  0  0
  5  4  2  0  0  0  0
  6  5  1  0  0  0  0
  6  7  2  0  0  0  0
  7  8  1  0  0  0  0
  8  9  2  0  0  0  0
  9 35  1  0  0  0  0
 10  7  1  0  0  0  0
 10 15  1  0  0  0  0
 11 10  1  0  0  0  0
 12 11  1  0  0  0  0
 12 13  1  0  0  0  0
 13 16  1  0  0  0  0
 13 14  1  0  0  0  0
 14 40  1  0  0  0  0
 14 15  1  0  0  0  0
 15 43  1  0  0  0  0
 15 42  1  0  0  0  0
 16 21  1  0  0  0  0
 17 16  1  0  0  0  0
 17 18  1  0  0  0  0
 18 47  1  0  0  0  0
 18 19  1  0  0  0  0
 19 48  1  0  0  0  0
 19 49  1  0  0  0  0
 20 19  1  0  0  0  0
 20 50  1  0  0  0  0
 21 52  1  0  0  0  0
 21 20  1  0  0  0  0
 22 13  1  0  0  0  0
 23 22  2  0  0  0  0
 24 22  1  0  0  0  0
 24 54  1  0  0  0  0
 25 57  1  0  0  0  0
 25  5  1  0  0  0  0
 26 27  1  0  0  0  0
 27 33  1  0  0  0  0
 27 28  2  0  0  0  0
 28 58  1  0  0  0  0
 29 28  1  0  0  0  0
 29 59  1  0  0  0  0
 30 29  2  0  0  0  0
 31 26  2  0  0  0  0
 31 30  1  0  0  0  0
 32 30  1  0  0  0  0
 33 34  1  0  0  0  0
 34 63  1  0  0  0  0
 34 61  1  0  0  0  0
 36 11  1  0  0  0  0
 37 11  1  0  0  0  0
 38 12  1  0  0  0  0
 39 12  1  0  0  0  0
 41 14  1  0  0  0  0
 44 17  1  0  0  0  0
 45 17  1  0  0  0  0
 46 18  1  0  0  0  0
 51 20  1  0  0  0  0
 53 21  1  0  0  0  0
 55 24  1  0  0  0  0
 56 25  1  0  0  0  0
 60 31  1  0  0  0  0
 62 34  1  0  0  0  0
M  END
>  <Pose>
1

>  <Score>
-5.38

$$$$
