
 OpenBabel03202210193D

 61 64  0  0  1  0  0  0  0  0999 V2000
   13.2320   64.1710  -12.5090 Cl  0  0  0  0  0  0  0  0  0  0  0  0
   14.6250   63.7840  -11.4910 C   0  0  0  0  0  0  0  0  0  0  0  0
   14.9530   62.4700  -11.2350 C   0  0  0  0  0  0  0  0  0  0  0  0
   16.0240   62.1760  -10.4550 C   0  0  0  0  0  0  0  0  0  0  0  0
   16.8030   63.2030   -9.9040 C   0  0  0  0  0  0  0  0  0  0  0  0
   16.4570   64.5060  -10.1720 C   0  0  0  0  0  0  0  0  0  0  0  0
   15.3650   64.8230  -10.9690 C   0  0  0  0  0  0  0  0  0  0  0  0
   17.9290   62.9030   -9.0850 N   0  0  0  0  0  0  0  0  0  0  0  0
   18.6140   61.6320   -9.2690 C   0  0  2  0  0  0  0  0  0  0  0  0
   17.5870   60.6170   -9.2990 N   0  0  0  0  0  0  0  0  0  0  0  0
   16.4520   60.8190  -10.1250 C   0  0  0  0  0  0  0  0  0  0  0  0
   15.7740   59.8740  -10.6040 O   0  0  0  0  0  0  0  0  0  0  0  0
   19.5240   61.4130   -8.1070 C   0  0  0  0  0  0  0  0  0  0  0  0
   20.8870   62.0400   -8.2860 C   0  0  0  0  0  0  0  0  0  0  0  0
   20.7990   63.4100   -8.7470 N   0  0  0  0  0  0  0  0  0  0  0  0
   20.1910   63.7800  -10.0090 C   0  0  0  0  0  0  0  0  0  0  0  0
   20.0650   65.0120  -10.1990 O   0  0  0  0  0  0  0  0  0  0  0  0
   19.6950   62.9340  -11.1070 C   0  0  0  0  0  0  0  0  0  0  0  0
   19.3080   61.5710  -10.6150 C   0  0  0  0  0  0  0  0  0  0  0  0
   21.2880   64.4720   -7.9670 C   0  0  0  0  0  0  0  0  0  0  0  0
   22.6720   64.5600   -7.5610 C   0  0  0  0  0  0  0  0  0  0  0  0
   23.1060   65.8200   -7.6050 O   0  0  0  0  0  0  0  0  0  0  0  0
   23.5600   63.5890   -7.1540 N   0  0  0  0  0  0  0  0  0  0  0  0
   24.9480   63.9950   -6.8160 C   0  0  0  0  0  0  0  0  0  0  0  0
   25.2440   63.2530   -5.5030 C   0  0  0  0  0  0  0  0  0  0  0  0
   24.0420   62.8870   -4.8300 N   0  0  0  0  0  0  0  0  0  0  0  0
   23.2470   61.8830   -5.4720 C   0  0  0  0  0  0  0  0  0  0  0  0
   23.3080   62.2120   -6.9910 C   0  0  0  0  0  0  0  0  0  0  0  0
   24.1280   62.7660   -3.4140 C   0  0  0  0  0  0  0  0  0  0  0  0
   22.7870   62.5730   -2.7370 C   0  0  0  0  0  0  0  0  0  0  0  0
   25.0710   61.6880   -2.9580 C   0  0  0  0  0  0  0  0  0  0  0  0
   14.3810   61.6450  -11.6380 H   0  0  0  0  0  0  0  0  0  0  0  0
   17.0760   65.3010   -9.7340 H   0  0  0  0  0  0  0  0  0  0  0  0
   15.1040   65.8510  -11.1720 H   0  0  0  0  0  0  0  0  0  0  0  0
   18.2090   63.6200   -8.3850 H   0  0  0  0  0  0  0  0  0  0  0  0
   17.6370   59.7400   -8.7440 H   0  0  0  0  0  0  0  0  0  0  0  0
   19.7060   60.3010   -8.0410 H   0  0  0  0  0  0  0  0  0  0  0  0
   19.0090   61.7280   -7.1950 H   0  0  0  0  0  0  0  0  0  0  0  0
   21.4650   61.9300   -7.3700 H   0  0  0  0  0  0  0  0  0  0  0  0
   21.3990   61.4510   -9.0720 H   0  0  0  0  0  0  0  0  0  0  0  0
   18.8000   63.4190  -11.5710 H   0  0  0  0  0  0  0  0  0  0  0  0
   20.4840   62.7980  -11.9040 H   0  0  0  0  0  0  0  0  0  0  0  0
   20.1670   60.8710  -10.5820 H   0  0  0  0  0  0  0  0  0  0  0  0
   18.6190   61.1290  -11.3960 H   0  0  0  0  0  0  0  0  0  0  0  0
   20.6830   64.5860   -6.9900 H   0  0  0  0  0  0  0  0  0  0  0  0
   21.0010   65.4350   -8.4890 H   0  0  0  0  0  0  0  0  0  0  0  0
   25.6320   63.6410   -7.6130 H   0  0  0  0  0  0  0  0  0  0  0  0
   25.0200   65.0770   -6.7200 H   0  0  0  0  0  0  0  0  0  0  0  0
   25.9280   62.3990   -5.7170 H   0  0  0  0  0  0  0  0  0  0  0  0
   25.7850   63.9790   -4.8640 H   0  0  0  0  0  0  0  0  0  0  0  0
   22.1850   62.0360   -5.1940 H   0  0  0  0  0  0  0  0  0  0  0  0
   23.5540   60.8510   -5.2900 H   0  0  0  0  0  0  0  0  0  0  0  0
   22.4870   61.7470   -7.5120 H   0  0  0  0  0  0  0  0  0  0  0  0
   24.2320   61.6630   -7.4010 H   0  0  0  0  0  0  0  0  0  0  0  0
   24.5340   63.7290   -3.0210 H   0  0  0  0  0  0  0  0  0  0  0  0
   22.1580   63.4650   -2.9630 H   0  0  0  0  0  0  0  0  0  0  0  0
   22.3220   61.6310   -3.0250 H   0  0  0  0  0  0  0  0  0  0  0  0
   22.9790   62.6080   -1.6370 H   0  0  0  0  0  0  0  0  0  0  0  0
   24.6580   60.6730   -3.0780 H   0  0  0  0  0  0  0  0  0  0  0  0
   26.0350   61.8180   -3.5340 H   0  0  0  0  0  0  0  0  0  0  0  0
   25.2790   61.8780   -1.8810 H   0  0  0  0  0  0  0  0  0  0  0  0
  1  2  1  0  0  0  0
  2  3  2  0  0  0  0
  2  7  1  0  0  0  0
  3  4  1  0  0  0  0
  4 11  1  0  0  0  0
  4  5  2  0  0  0  0
  5  8  1  0  0  0  0
  6  5  1  0  0  0  0
  6 33  1  0  0  0  0
  7  6  2  0  0  0  0
  8 35  1  0  0  0  0
  9 19  1  6  0  0  0
  9  8  1  0  0  0  0
  9 13  1  0  0  0  0
 10  9  1  0  0  0  0
 10 36  1  0  0  0  0
 11 10  1  0  0  0  0
 12 11  2  0  0  0  0
 13 37  1  0  0  0  0
 13 38  1  0  0  0  0
 14 13  1  0  0  0  0
 14 39  1  0  0  0  0
 15 14  1  0  0  0  0
 15 20  1  0  0  0  0
 16 15  1  0  0  0  0
 17 16  2  0  0  0  0
 18 19  1  0  0  0  0
 18 16  1  0  0  0  0
 19 43  1  0  0  0  0
 20 21  1  0  0  0  0
 20 45  1  0  0  0  0
 21 23  1  0  0  0  0
 22 21  2  0  0  0  0
 23 28  1  0  0  0  0
 23 24  1  0  0  0  0
 24 48  1  0  0  0  0
 24 25  1  0  0  0  0
 25 50  1  0  0  0  0
 25 26  1  0  0  0  0
 26 29  1  0  0  0  0
 27 52  1  0  0  0  0
 27 51  1  0  0  0  0
 27 26  1  0  0  0  0
 28 27  1  0  0  0  0
 29 55  1  0  0  0  0
 29 31  1  0  0  0  0
 29 30  1  0  0  0  0
 30 58  1  0  0  0  0
 31 61  1  0  0  0  0
 32  3  1  0  0  0  0
 34  7  1  0  0  0  0
 40 14  1  0  0  0  0
 41 18  1  0  0  0  0
 42 18  1  0  0  0  0
 44 19  1  0  0  0  0
 46 20  1  0  0  0  0
 47 24  1  0  0  0  0
 49 25  1  0  0  0  0
 53 28  1  0  0  0  0
 54 28  1  0  0  0  0
 56 30  1  0  0  0  0
 57 30  1  0  0  0  0
 59 31  1  0  0  0  0
 60 31  1  0  0  0  0
M  END
>  <Pose>
1

>  <Score>
-5.77

$$$$
