
 OpenBabel03202210193D

 50 53  0  0  1  0  0  0  0  0999 V2000
   18.1110   60.5570   -9.7390 Cl  0  0  0  0  0  0  0  0  0  0  0  0
   19.3740   61.6960  -10.0790 C   0  0  0  0  0  0  0  0  0  0  0  0
   20.1560   62.2170   -9.0580 C   0  0  0  0  0  0  0  0  0  0  0  0
   21.1650   63.1240   -9.3130 C   0  0  0  0  0  0  0  0  0  0  0  0
   21.3780   63.5000  -10.6100 C   0  0  0  0  0  0  0  0  0  0  0  0
   20.6120   62.9960  -11.6660 C   0  0  0  0  0  0  0  0  0  0  0  0
   19.6140   62.0930  -11.3760 C   0  0  0  0  0  0  0  0  0  0  0  0
   22.4360   64.4470  -10.6680 N   0  0  0  0  0  0  0  0  0  0  0  0
   22.8990   64.6720   -9.3460 C   0  0  0  0  0  0  0  0  0  0  0  0
   23.8280   65.5090   -9.1040 O   0  0  0  0  0  0  0  0  0  0  0  0
   22.1330   63.8070   -8.4580 C   0  0  2  0  0  0  0  0  0  0  0  0
   22.9890   62.8590   -7.7390 N   0  0  0  0  0  0  0  0  0  0  0  0
   23.5810   63.7210   -6.7410 C   0  0  1  0  0  0  0  0  0  0  0  0
   22.4970   64.6410   -6.2830 C   0  0  2  0  0  0  0  0  0  0  0  0
   21.4350   64.4780   -7.3290 C   0  0  1  0  0  0  0  0  0  0  0  0
   20.8970   65.8250   -7.6440 C   0  0  0  0  0  0  0  0  0  0  0  0
   19.9030   65.9720   -8.4010 O   0  0  0  0  0  0  0  0  0  0  0  0
   21.6930   66.7770   -6.9570 N   0  0  0  0  0  0  0  0  0  0  0  0
   22.8450   66.0880   -6.4580 C   0  0  0  0  0  0  0  0  0  0  0  0
   23.9570   66.5580   -6.1970 O   0  0  0  0  0  0  0  0  0  0  0  0
   21.4090   68.1510   -6.7870 C   0  0  0  0  0  0  0  0  0  0  0  0
   22.1220   68.9120   -5.7400 C   0  0  0  0  0  0  0  0  0  0  0  0
   23.3730   69.6070   -6.1200 C   0  0  0  0  0  0  0  0  0  0  0  0
   23.6030   70.8290   -5.5070 O   0  0  0  0  0  0  0  0  0  0  0  0
   24.5220   70.6070   -4.4530 C   0  0  0  0  0  0  0  0  0  0  0  0
   24.2140   62.9460   -5.6130 C   0  0  1  0  0  0  0  0  0  0  0  0
   25.5830   63.1810   -5.6540 O   0  0  0  0  0  0  0  0  0  0  0  0
   23.6610   63.3290   -4.2650 C   0  0  0  0  0  0  0  0  0  0  0  0
   19.9780   61.9100   -8.0190 H   0  0  0  0  0  0  0  0  0  0  0  0
   20.7890   63.3000  -12.6960 H   0  0  0  0  0  0  0  0  0  0  0  0
   19.0330   61.7170  -12.2190 H   0  0  0  0  0  0  0  0  0  0  0  0
   22.8200   64.9080  -11.5460 H   0  0  0  0  0  0  0  0  0  0  0  0
   22.3320   62.2120   -7.2490 H   0  0  0  0  0  0  0  0  0  0  0  0
   24.3970   64.3180   -7.1940 H   0  0  0  0  0  0  0  0  0  0  0  0
   22.1580   64.4770   -5.2590 H   0  0  0  0  0  0  0  0  0  0  0  0
   20.6160   63.8000   -6.9810 H   0  0  0  0  0  0  0  0  0  0  0  0
   20.2950   68.3560   -6.7150 H   0  0  0  0  0  0  0  0  0  0  0  0
   21.6630   68.6650   -7.7710 H   0  0  0  0  0  0  0  0  0  0  0  0
   22.2710   68.3320   -4.7910 H   0  0  0  0  0  0  0  0  0  0  0  0
   21.4040   69.7270   -5.4040 H   0  0  0  0  0  0  0  0  0  0  0  0
   24.2970   68.9890   -5.9040 H   0  0  0  0  0  0  0  0  0  0  0  0
   23.4110   69.7380   -7.2300 H   0  0  0  0  0  0  0  0  0  0  0  0
   24.0130   69.8800   -3.7860 H   0  0  0  0  0  0  0  0  0  0  0  0
   24.6770   71.5170   -3.8470 H   0  0  0  0  0  0  0  0  0  0  0  0
   25.4580   70.1770   -4.8160 H   0  0  0  0  0  0  0  0  0  0  0  0
   24.0380   61.8840   -5.7790 H   0  0  0  0  0  0  0  0  0  0  0  0
   25.8170   64.1160   -5.4230 H   0  0  0  0  0  0  0  0  0  0  0  0
   22.6190   62.9950   -4.1540 H   0  0  0  0  0  0  0  0  0  0  0  0
   23.7990   64.4050   -4.0380 H   0  0  0  0  0  0  0  0  0  0  0  0
   24.2540   62.7760   -3.5040 H   0  0  0  0  0  0  0  0  0  0  0  0
  2  1  1  0  0  0  0
  2  3  1  0  0  0  0
  3 29  1  0  0  0  0
  4  3  2  0  0  0  0
  4 11  1  0  0  0  0
  5  4  1  0  0  0  0
  6  7  1  0  0  0  0
  6  5  2  0  0  0  0
  7  2  2  0  0  0  0
  8  5  1  0  0  0  0
  8  9  1  0  0  0  0
  9 10  2  0  0  0  0
 11  9  1  6  0  0  0
 11 12  1  0  0  0  0
 11 15  1  0  0  0  0
 12 33  1  0  0  0  0
 12 13  1  0  0  0  0
 13 34  1  6  0  0  0
 13 14  1  0  0  0  0
 13 26  1  0  0  0  0
 14 35  1  1  0  0  0
 15 36  1  1  0  0  0
 15 14  1  0  0  0  0
 16 15  1  0  0  0  0
 16 18  1  0  0  0  0
 17 16  2  0  0  0  0
 18 21  1  0  0  0  0
 18 19  1  0  0  0  0
 19 14  1  0  0  0  0
 19 20  2  0  0  0  0
 21 37  1  0  0  0  0
 21 22  1  0  0  0  0
 22 40  1  0  0  0  0
 22 39  1  0  0  0  0
 23 41  1  0  0  0  0
 23 22  1  0  0  0  0
 23 24  1  0  0  0  0
 24 25  1  0  0  0  0
 25 44  1  0  0  0  0
 25 43  1  0  0  0  0
 26 46  1  6  0  0  0
 26 28  1  0  0  0  0
 27 26  1  0  0  0  0
 27 47  1  0  0  0  0
 28 48  1  0  0  0  0
 28 49  1  0  0  0  0
 28 50  1  0  0  0  0
 30  6  1  0  0  0  0
 31  7  1  0  0  0  0
 32  8  1  0  0  0  0
 38 21  1  0  0  0  0
 42 23  1  0  0  0  0
 45 25  1  0  0  0  0
M  END
>  <Pose>
1

>  <Score>
-8.11

$$$$
