
 OpenBabel03202210193D

 30 33  0  0  1  0  0  0  0  0999 V2000
   20.8620   65.8700  -10.2330 F   0  0  0  0  0  0  0  0  0  0  0  0
   21.2970   64.9600   -9.2980 C   0  0  0  0  0  0  0  0  0  0  0  0
   21.7110   65.4320   -8.0460 C   0  0  0  0  0  0  0  0  0  0  0  0
   22.1450   64.5480   -7.1060 C   0  0  0  0  0  0  0  0  0  0  0  0
   22.1780   63.1760   -7.3880 C   0  0  0  0  0  0  0  0  0  0  0  0
   21.7670   62.7420   -8.6190 C   0  0  0  0  0  0  0  0  0  0  0  0
   21.3260   63.6170   -9.5820 C   0  0  0  0  0  0  0  0  0  0  0  0
   20.7960   63.0500  -11.1710 Cl  0  0  0  0  0  0  0  0  0  0  0  0
   22.5210   65.3030   -5.8820 C   0  0  2  0  0  0  0  0  0  0  0  0
   23.8940   65.0560   -5.5760 N   0  0  0  0  0  0  0  0  0  0  0  0
   24.2780   63.9500   -4.7890 C   0  0  0  0  0  0  0  0  0  0  0  0
   25.5590   63.4990   -4.7550 N   0  0  0  0  0  0  0  0  0  0  0  0
   25.9750   62.4570   -4.0290 C   0  0  0  0  0  0  0  0  0  0  0  0
   25.0560   61.7700   -3.2430 C   0  0  0  0  0  0  0  0  0  0  0  0
   23.7460   62.1590   -3.2210 C   0  0  0  0  0  0  0  0  0  0  0  0
   23.3880   63.2420   -3.9950 C   0  0  0  0  0  0  0  0  0  0  0  0
   22.0090   63.7380   -4.0400 C   0  0  0  0  0  0  0  0  0  0  0  0
   21.1540   63.1160   -3.3230 O   0  0  0  0  0  0  0  0  0  0  0  0
   21.6350   64.8430   -4.8270 N   0  0  0  0  0  0  0  0  0  0  0  0
   22.2580   66.7060   -6.2210 C   0  0  0  0  0  0  0  0  0  0  0  0
   22.4350   67.7340   -5.4680 O   0  0  0  0  0  0  0  0  0  0  0  0
   21.7670   66.7710   -7.5350 N   0  0  0  0  0  0  0  0  0  0  0  0
   22.5300   62.4870   -6.6150 H   0  0  0  0  0  0  0  0  0  0  0  0
   21.7870   61.6850   -8.8500 H   0  0  0  0  0  0  0  0  0  0  0  0
   24.6540   65.6900   -5.9270 H   0  0  0  0  0  0  0  0  0  0  0  0
   26.9990   62.1130   -4.0150 H   0  0  0  0  0  0  0  0  0  0  0  0
   25.3620   60.9290   -2.6480 H   0  0  0  0  0  0  0  0  0  0  0  0
   22.9720   61.6750   -2.6350 H   0  0  0  0  0  0  0  0  0  0  0  0
   20.7150   65.2940   -4.6160 H   0  0  0  0  0  0  0  0  0  0  0  0
   21.4760   67.6140   -8.0970 H   0  0  0  0  0  0  0  0  0  0  0  0
  1  2  1  0  0  0  0
  2  3  1  0  0  0  0
  3 22  1  0  0  0  0
  3  4  2  0  0  0  0
  5  4  1  0  0  0  0
  5 23  1  0  0  0  0
  6  5  2  0  0  0  0
  7  2  2  0  0  0  0
  7  6  1  0  0  0  0
  8  7  1  0  0  0  0
  9  4  1  6  0  0  0
  9 10  1  0  0  0  0
  9 19  1  0  0  0  0
 10 11  1  0  0  0  0
 11 12  2  0  0  0  0
 11 16  1  0  0  0  0
 12 13  1  0  0  0  0
 13 26  1  0  0  0  0
 13 14  2  0  0  0  0
 14 15  1  0  0  0  0
 14 27  1  0  0  0  0
 15 28  1  0  0  0  0
 16 15  2  0  0  0  0
 17 16  1  0  0  0  0
 17 18  2  0  0  0  0
 19 29  1  0  0  0  0
 19 17  1  0  0  0  0
 20  9  1  0  0  0  0
 20 21  2  0  0  0  0
 22 20  1  0  0  0  0
 24  6  1  0  0  0  0
 25 10  1  0  0  0  0
 30 22  1  0  0  0  0
M  END
>  <Pose>
1

>  <Score>
-7.00

$$$$
