
 OpenBabel03202210193D

 48 51  0  0  0  0  0  0  0  0999 V2000
   21.5110   64.0320   -9.7410 S   0  0  0  0  0  0  0  0  0  0  0  0
   22.5870   64.0510  -10.8180 O   0  0  0  0  0  0  0  0  0  0  0  0
   20.8160   65.3750   -9.8560 O   0  0  0  0  0  0  0  0  0  0  0  0
   20.4030   62.8260  -10.1120 N   0  0  0  0  0  0  0  0  0  0  0  0
   19.4080   62.5490   -9.1370 C   0  0  0  0  0  0  0  0  0  0  0  0
   18.0030   62.6140   -9.6810 C   0  0  0  0  0  0  0  0  0  0  0  0
   17.8620   63.5900  -10.7300 N   0  0  0  0  0  0  0  0  0  0  0  0
   18.8020   63.5910  -11.8260 C   0  0  0  0  0  0  0  0  0  0  0  0
   19.9670   62.7260  -11.4560 C   0  0  0  0  0  0  0  0  0  0  0  0
   16.8280   64.5580  -10.7290 C   0  0  0  0  0  0  0  0  0  0  0  0
   16.2680   64.8380   -9.6510 O   0  0  0  0  0  0  0  0  0  0  0  0
   16.3950   65.2440  -11.9670 C   0  0  0  0  0  0  0  0  0  0  0  0
   15.1310   64.7440  -12.4230 N   0  0  0  0  0  0  0  0  0  0  0  0
   14.3360   65.1540  -13.5270 C   0  0  0  0  0  0  0  0  0  0  0  0
   14.6490   66.0740  -14.3140 O   0  0  0  0  0  0  0  0  0  0  0  0
   13.1390   64.3300  -13.5630 C   0  0  0  0  0  0  0  0  0  0  0  0
   13.1800   63.4350  -12.5200 C   0  0  0  0  0  0  0  0  0  0  0  0
   12.1340   62.5380  -12.3510 C   0  0  0  0  0  0  0  0  0  0  0  0
   11.0600   62.5210  -13.1980 C   0  0  0  0  0  0  0  0  0  0  0  0
   11.0060   63.4230  -14.2600 C   0  0  0  0  0  0  0  0  0  0  0  0
   12.0610   64.3100  -14.4110 C   0  0  0  0  0  0  0  0  0  0  0  0
   14.4180   63.6740  -11.7900 C   0  0  0  0  0  0  0  0  0  0  0  0
   14.7440   63.0060  -10.7740 O   0  0  0  0  0  0  0  0  0  0  0  0
   22.2190   63.9450   -8.1730 C   0  0  0  0  0  0  0  0  0  0  0  0
   23.4100   63.2620   -7.9920 C   0  0  0  0  0  0  0  0  0  0  0  0
   24.0200   63.1610   -6.7580 C   0  0  0  0  0  0  0  0  0  0  0  0
   23.4050   63.7720   -5.6800 C   0  0  0  0  0  0  0  0  0  0  0  0
   22.2180   64.4480   -5.8750 C   0  0  0  0  0  0  0  0  0  0  0  0
   21.5980   64.5570   -7.1030 C   0  0  0  0  0  0  0  0  0  0  0  0
   24.2030   63.6710   -3.9300 B   0  0  0  0  0  0  0  0  0  0  0  0
   19.5650   61.4840   -8.7950 H   0  0  0  0  0  0  0  0  0  0  0  0
   19.5430   63.1770   -8.2310 H   0  0  0  0  0  0  0  0  0  0  0  0
   17.3110   62.8400   -8.8480 H   0  0  0  0  0  0  0  0  0  0  0  0
   17.6990   61.6020  -10.0560 H   0  0  0  0  0  0  0  0  0  0  0  0
   18.3240   63.1150  -12.7320 H   0  0  0  0  0  0  0  0  0  0  0  0
   19.0740   64.6300  -12.0660 H   0  0  0  0  0  0  0  0  0  0  0  0
   20.8120   62.8660  -12.1550 H   0  0  0  0  0  0  0  0  0  0  0  0
   19.6350   61.6580  -11.6190 H   0  0  0  0  0  0  0  0  0  0  0  0
   17.1780   65.0280  -12.7450 H   0  0  0  0  0  0  0  0  0  0  0  0
   16.3400   66.3460  -11.8170 H   0  0  0  0  0  0  0  0  0  0  0  0
   12.1880   61.8510  -11.5300 H   0  0  0  0  0  0  0  0  0  0  0  0
   10.2570   61.8330  -13.0700 H   0  0  0  0  0  0  0  0  0  0  0  0
   10.1940   63.4530  -14.9500 H   0  0  0  0  0  0  0  0  0  0  0  0
   12.0130   65.0090  -15.2380 H   0  0  0  0  0  0  0  0  0  0  0  0
   23.9290   62.7660   -8.8200 H   0  0  0  0  0  0  0  0  0  0  0  0
   24.9500   62.6350   -6.5880 H   0  0  0  0  0  0  0  0  0  0  0  0
   21.7150   64.9400   -5.0290 H   0  0  0  0  0  0  0  0  0  0  0  0
   20.6560   65.1050   -7.2050 H   0  0  0  0  0  0  0  0  0  0  0  0
  1 24  1  0  0  0  0
  2  1  2  0  0  0  0
  3  1  2  0  0  0  0
  4  1  1  0  0  0  0
  4  5  1  0  0  0  0
  5 31  1  0  0  0  0
  5 32  1  0  0  0  0
  6  5  1  0  0  0  0
  6 33  1  0  0  0  0
  7 10  1  0  0  0  0
  7  6  1  0  0  0  0
  8  9  1  0  0  0  0
  8  7  1  0  0  0  0
  9  4  1  0  0  0  0
 10 11  2  0  0  0  0
 12 40  1  0  0  0  0
 12 10  1  0  0  0  0
 13 12  1  0  0  0  0
 13 22  1  0  0  0  0
 14 13  1  0  0  0  0
 15 14  2  0  0  0  0
 16 14  1  0  0  0  0
 16 17  1  0  0  0  0
 17 18  2  0  0  0  0
 17 22  1  0  0  0  0
 18 41  1  0  0  0  0
 19 42  1  0  0  0  0
 19 18  1  0  0  0  0
 20 19  2  0  0  0  0
 21 20  1  0  0  0  0
 21 16  2  0  0  0  0
 22 23  2  0  0  0  0
 24 25  2  0  0  0  0
 24 29  1  0  0  0  0
 25 26  1  0  0  0  0
 26 46  1  0  0  0  0
 26 27  2  0  0  0  0
 27 30  1  0  0  0  0
 28 27  1  0  0  0  0
 28 47  1  0  0  0  0
 29 28  2  0  0  0  0
 34  6  1  0  0  0  0
 35  8  1  0  0  0  0
 36  8  1  0  0  0  0
 37  9  1  0  0  0  0
 38  9  1  0  0  0  0
 39 12  1  0  0  0  0
 43 20  1  0  0  0  0
 44 21  1  0  0  0  0
 45 25  1  0  0  0  0
 48 29  1  0  0  0  0
M  END
>  <Pose>
1

>  <Score>
-5.41

$$$$
