
 OpenBabel03202210193D

 51 55  0  0  1  0  0  0  0  0999 V2000
   16.0370   63.4250  -10.9630 Cl  0  0  0  0  0  0  0  0  0  0  0  0
   17.3100   62.3890  -10.3590 C   0  0  0  0  0  0  0  0  0  0  0  0
   18.5970   62.9250  -10.3080 C   0  0  0  0  0  0  0  0  0  0  0  0
   19.6270   62.1410   -9.8390 C   0  0  0  0  0  0  0  0  0  0  0  0
   19.3270   60.8380   -9.4350 C   0  0  0  0  0  0  0  0  0  0  0  0
   18.0530   60.3160   -9.4900 C   0  0  0  0  0  0  0  0  0  0  0  0
   17.0220   61.1030   -9.9600 C   0  0  0  0  0  0  0  0  0  0  0  0
   20.8920   62.8740   -9.8640 C   0  0  1  0  0  0  0  0  0  0  0  0
   21.5300   62.9440   -8.5630 N   0  0  0  0  0  0  0  0  0  0  0  0
   22.9360   63.2070   -8.8410 C   0  0  2  0  0  0  0  0  0  0  0  0
   23.2470   62.5070  -10.1350 C   0  0  1  0  0  0  0  0  0  0  0  0
   21.9130   62.2610  -10.7950 C   0  0  2  0  0  0  0  0  0  0  0  0
   21.9660   62.9750  -12.0960 C   0  0  0  0  0  0  0  0  0  0  0  0
   20.9480   63.0760  -12.8360 O   0  0  0  0  0  0  0  0  0  0  0  0
   23.2760   63.4700  -12.3120 N   0  0  0  0  0  0  0  0  0  0  0  0
   23.9330   63.4800  -11.0540 C   0  0  0  0  0  0  0  0  0  0  0  0
   24.9320   64.1650  -10.6940 O   0  0  0  0  0  0  0  0  0  0  0  0
   23.8280   63.8760  -13.5530 C   0  0  0  0  0  0  0  0  0  0  0  0
   25.2220   63.4780  -13.8400 C   0  0  2  0  0  0  0  0  0  0  0  0
   26.1900   64.3910  -13.4530 O   0  0  0  0  0  0  0  0  0  0  0  0
   27.3560   63.6850  -13.7500 C   0  0  0  0  0  0  0  0  0  0  0  0
   27.1090   63.0920  -15.1420 C   0  0  0  0  0  0  0  0  0  0  0  0
   25.5790   63.1930  -15.2520 C   0  0  0  0  0  0  0  0  0  0  0  0
   23.7640   62.6940   -7.7000 C   0  0  0  0  0  0  0  0  0  0  0  0
   24.3610   63.8870   -7.0190 C   0  0  0  0  0  0  0  0  0  0  0  0
   24.3170   64.9750   -7.6490 O   0  0  0  0  0  0  0  0  0  0  0  0
   24.9510   63.8170   -5.7320 N   0  0  0  0  0  0  0  0  0  0  0  0
   20.5410   64.2030  -10.3900 C   0  0  0  0  0  0  0  0  0  0  0  0
   21.3300   65.1990  -10.5840 O   0  0  0  0  0  0  0  0  0  0  0  0
   19.1480   64.1910  -10.6480 N   0  0  0  0  0  0  0  0  0  0  0  0
   20.0990   60.1750   -9.0570 H   0  0  0  0  0  0  0  0  0  0  0  0
   17.8240   59.3060   -9.1770 H   0  0  0  0  0  0  0  0  0  0  0  0
   16.0270   60.6770   -9.9960 H   0  0  0  0  0  0  0  0  0  0  0  0
   21.4080   62.0600   -8.0190 H   0  0  0  0  0  0  0  0  0  0  0  0
   23.0330   64.3000   -8.9540 H   0  0  0  0  0  0  0  0  0  0  0  0
   23.8370   61.6020   -9.9790 H   0  0  0  0  0  0  0  0  0  0  0  0
   21.7450   61.1940  -10.9280 H   0  0  0  0  0  0  0  0  0  0  0  0
   23.2040   63.4800  -14.4100 H   0  0  0  0  0  0  0  0  0  0  0  0
   23.7760   64.9940  -13.7130 H   0  0  0  0  0  0  0  0  0  0  0  0
   25.4280   62.5480  -13.2540 H   0  0  0  0  0  0  0  0  0  0  0  0
   27.5240   62.8430  -13.0610 H   0  0  0  0  0  0  0  0  0  0  0  0
   28.2530   64.3250  -13.7330 H   0  0  0  0  0  0  0  0  0  0  0  0
   27.6240   63.7080  -15.8740 H   0  0  0  0  0  0  0  0  0  0  0  0
   27.3950   62.0140  -15.1720 H   0  0  0  0  0  0  0  0  0  0  0  0
   25.3910   63.9880  -15.9730 H   0  0  0  0  0  0  0  0  0  0  0  0
   25.1840   62.2160  -15.6150 H   0  0  0  0  0  0  0  0  0  0  0  0
   24.5660   62.0610   -8.1360 H   0  0  0  0  0  0  0  0  0  0  0  0
   23.1410   62.1100   -7.0130 H   0  0  0  0  0  0  0  0  0  0  0  0
   25.6260   64.5600   -5.4630 H   0  0  0  0  0  0  0  0  0  0  0  0
   24.7510   63.0690   -5.0390 H   0  0  0  0  0  0  0  0  0  0  0  0
   18.5880   64.9980  -11.0360 H   0  0  0  0  0  0  0  0  0  0  0  0
  1  2  1  0  0  0  0
  2  3  2  0  0  0  0
  2  7  1  0  0  0  0
  3  4  1  0  0  0  0
  4  5  2  0  0  0  0
  5 31  1  0  0  0  0
  6  5  1  0  0  0  0
  6 32  1  0  0  0  0
  7  6  2  0  0  0  0
  8 28  1  6  0  0  0
  8  4  1  0  0  0  0
  8  9  1  0  0  0  0
  9 34  1  0  0  0  0
 10 35  1  6  0  0  0
 10  9  1  0  0  0  0
 10 24  1  0  0  0  0
 11 36  1  1  0  0  0
 11 10  1  0  0  0  0
 12 37  1  6  0  0  0
 12 11  1  0  0  0  0
 12  8  1  0  0  0  0
 13 12  1  0  0  0  0
 14 13  2  0  0  0  0
 15 13  1  0  0  0  0
 15 16  1  0  0  0  0
 16 17  2  0  0  0  0
 16 11  1  0  0  0  0
 18 15  1  0  0  0  0
 19 18  1  0  0  0  0
 19 20  1  0  0  0  0
 19 40  1  1  0  0  0
 21 42  1  0  0  0  0
 21 20  1  0  0  0  0
 21 41  1  0  0  0  0
 22 21  1  0  0  0  0
 23 22  1  0  0  0  0
 23 19  1  0  0  0  0
 24 25  1  0  0  0  0
 24 48  1  0  0  0  0
 25 27  1  0  0  0  0
 26 25  2  0  0  0  0
 27 49  1  0  0  0  0
 27 50  1  0  0  0  0
 29 28  2  0  0  0  0
 30 28  1  0  0  0  0
 30  3  1  0  0  0  0
 33  7  1  0  0  0  0
 38 18  1  0  0  0  0
 39 18  1  0  0  0  0
 43 22  1  0  0  0  0
 44 22  1  0  0  0  0
 45 23  1  0  0  0  0
 46 23  1  0  0  0  0
 47 24  1  0  0  0  0
 51 30  1  0  0  0  0
M  END
>  <Pose>
1

>  <Score>
-7.49

$$$$
