
 OpenBabel03202210193D

 43 46  0  0  1  0  0  0  0  0999 V2000
   14.6650   63.8700  -11.2480 Cl  0  0  0  0  0  0  0  0  0  0  0  0
   15.8440   62.6900  -10.7370 C   0  0  0  0  0  0  0  0  0  0  0  0
   15.5050   61.4370  -10.4660 N   0  0  0  0  0  4  0  0  0  0  0  0
   16.3430   60.4720  -10.0710 C   0  0  0  0  0  0  0  0  0  0  0  0
   16.2270   59.1740   -9.7500 N   0  0  0  0  0  0  0  0  0  0  0  0
   17.4360   58.6910   -9.4180 C   0  0  0  0  0  0  0  0  0  0  0  0
   18.3040   59.7130   -9.5390 N   0  0  0  0  0  0  0  0  0  0  0  0
   17.6810   60.8320   -9.9380 C   0  0  2  0  0  0  0  0  0  0  0  0
   18.0430   62.1280  -10.2160 C   0  0  0  0  0  0  0  0  0  0  0  0
   17.1440   63.0400  -10.6080 N   0  0  0  0  0  0  0  0  0  0  0  0
   19.4440   62.4580  -10.0670 N   0  0  0  0  0  0  0  0  0  0  0  0
   19.8600   63.2330   -8.9590 C   0  0  0  0  0  0  0  0  0  0  0  0
   21.1720   62.9250   -8.4140 C   0  0  0  0  0  0  0  0  0  0  0  0
   21.2820   61.6300   -8.0440 O   0  0  0  0  0  0  0  0  0  0  0  0
   22.2860   63.6920   -8.2110 N   0  0  0  0  0  0  0  0  0  0  0  0
   23.5630   63.5780   -8.8290 C   0  0  0  0  0  0  0  0  0  0  0  0
   24.6520   63.2220   -7.8190 C   0  0  0  0  0  0  0  0  0  0  0  0
   24.2350   63.8170   -6.5820 N   0  0  0  0  0  0  0  0  0  0  0  0
   23.5540   65.0780   -6.6410 C   0  0  0  0  0  0  0  0  0  0  0  0
   22.1490   64.7900   -7.1810 C   0  0  0  0  0  0  0  0  0  0  0  0
   24.4710   63.2160   -5.3330 C   0  0  0  0  0  0  0  0  0  0  0  0
   25.6720   62.6440   -5.0250 N   0  0  0  0  0  0  0  0  0  0  0  0
   25.9580   62.0630   -3.8730 C   0  0  0  0  0  0  0  0  0  0  0  0
   25.0410   61.9840   -2.8630 C   0  0  0  0  0  0  0  0  0  0  0  0
   23.7970   62.5460   -3.1100 C   0  0  0  0  0  0  0  0  0  0  0  0
   23.5200   63.1520   -4.3260 C   0  0  0  0  0  0  0  0  0  0  0  0
   17.7050   57.6790   -9.1080 H   0  0  0  0  0  0  0  0  0  0  0  0
   19.3430   59.6950   -9.3570 H   0  0  0  0  0  0  0  0  0  0  0  0
   20.1160   62.1350  -10.7680 H   0  0  0  0  0  0  0  0  0  0  0  0
   19.7480   64.3460   -9.1640 H   0  0  0  0  0  0  0  0  0  0  0  0
   19.1160   62.9950   -8.1160 H   0  0  0  0  0  0  0  0  0  0  0  0
   23.5820   62.8700   -9.6320 H   0  0  0  0  0  0  0  0  0  0  0  0
   23.8370   64.6240   -9.2260 H   0  0  0  0  0  0  0  0  0  0  0  0
   25.6100   63.7030   -8.1320 H   0  0  0  0  0  0  0  0  0  0  0  0
   24.7900   62.1520   -7.8070 H   0  0  0  0  0  0  0  0  0  0  0  0
   24.0220   65.7820   -7.3610 H   0  0  0  0  0  0  0  0  0  0  0  0
   23.4360   65.5160   -5.6370 H   0  0  0  0  0  0  0  0  0  0  0  0
   21.7450   65.6730   -7.6580 H   0  0  0  0  0  0  0  0  0  0  0  0
   21.4900   64.3680   -6.4170 H   0  0  0  0  0  0  0  0  0  0  0  0
   26.9530   61.6270   -3.7120 H   0  0  0  0  0  0  0  0  0  0  0  0
   25.2800   61.5130   -1.9370 H   0  0  0  0  0  0  0  0  0  0  0  0
   23.0450   62.4950   -2.3110 H   0  0  0  0  0  0  0  0  0  0  0  0
   22.5560   63.5660   -4.4660 H   0  0  0  0  0  0  0  0  0  0  0  0
  1  2  1  0  0  0  0
  2 10  1  0  0  0  0
  2  3  2  0  0  0  0
  3  4  2  0  0  0  0
  4  8  1  0  0  0  0
  4  5  1  0  0  0  0
  5  6  2  0  0  0  0
  6 27  1  0  0  0  0
  7  6  1  0  0  0  0
  7 28  1  0  0  0  0
  8  9  1  1  0  0  0
  8  7  1  0  0  0  0
  9 11  1  0  0  0  0
 10  9  2  0  0  0  0
 11 12  1  0  0  0  0
 12 13  1  0  0  0  0
 12 31  1  0  0  0  0
 13 15  1  0  0  0  0
 13 14  2  0  0  0  0
 15 20  1  0  0  0  0
 16 15  1  0  0  0  0
 16 17  1  0  0  0  0
 17 35  1  0  0  0  0
 17 18  1  0  0  0  0
 18 21  1  0  0  0  0
 19 18  1  0  0  0  0
 19 37  1  0  0  0  0
 20 19  1  0  0  0  0
 20 39  1  0  0  0  0
 21 22  2  0  0  0  0
 21 26  1  0  0  0  0
 22 23  1  0  0  0  0
 23 40  1  0  0  0  0
 23 24  2  0  0  0  0
 24 41  1  0  0  0  0
 25 24  1  0  0  0  0
 25 42  1  0  0  0  0
 26 25  2  0  0  0  0
 29 11  1  0  0  0  0
 30 12  1  0  0  0  0
 32 16  1  0  0  0  0
 33 16  1  0  0  0  0
 34 17  1  0  0  0  0
 36 19  1  0  0  0  0
 38 20  1  0  0  0  0
 43 26  1  0  0  0  0
M  END
>  <Pose>
1

>  <Score>
-7.52

$$$$
