
 OpenBabel03202210193D

 54 58  0  0  1  0  0  0  0  0999 V2000
   27.7080   63.2940   -5.4970 Cl  0  0  0  0  0  0  0  0  0  0  0  0
   26.1100   63.0140   -4.7850 C   0  0  0  0  0  0  0  0  0  0  0  0
   25.0220   63.7480   -5.1850 C   0  0  0  0  0  0  0  0  0  0  0  0
   23.7900   63.5250   -4.6300 C   0  0  0  0  0  0  0  0  0  0  0  0
   23.6520   62.5570   -3.6670 C   0  0  0  0  0  0  0  0  0  0  0  0
   24.7400   61.7950   -3.2400 C   0  0  0  0  0  0  0  0  0  0  0  0
   25.9650   62.0440   -3.8180 C   0  0  0  0  0  0  0  0  0  0  0  0
   22.3140   62.4740   -3.2120 N   0  0  0  0  0  0  0  0  0  0  0  0
   21.5800   63.4490   -3.9380 C   0  0  0  0  0  0  0  0  0  0  0  0
   20.3590   63.6830   -3.8120 O   0  0  0  0  0  0  0  0  0  0  0  0
   22.4740   64.1580   -4.8730 C   0  0  1  0  0  0  0  0  0  0  0  0
   22.4990   65.5820   -4.6440 N   0  0  0  0  0  0  0  0  0  0  0  0
   22.6040   66.2260   -5.9160 C   0  0  1  0  0  0  0  0  0  0  0  0
   21.8700   65.3570   -6.9100 C   0  0  2  0  0  0  0  0  0  0  0  0
   21.9820   63.9990   -6.2660 C   0  0  1  0  0  0  0  0  0  0  0  0
   22.8650   63.1900   -7.1410 C   0  0  0  0  0  0  0  0  0  0  0  0
   23.5180   62.1520   -6.8640 O   0  0  0  0  0  0  0  0  0  0  0  0
   22.8390   63.8360   -8.4300 N   0  0  0  0  0  0  0  0  0  0  0  0
   22.5730   65.2370   -8.2130 C   0  0  0  0  0  0  0  0  0  0  0  0
   22.8710   66.1960   -8.9720 O   0  0  0  0  0  0  0  0  0  0  0  0
   23.0400   63.2110   -9.7200 C   0  0  0  0  0  0  0  0  0  0  0  0
   21.7220   62.8980  -10.3490 C   0  0  0  0  0  0  0  0  0  0  0  0
   21.5040   63.1400  -11.6890 C   0  0  0  0  0  0  0  0  0  0  0  0
   20.2730   62.8410  -12.2480 C   0  0  0  0  0  0  0  0  0  0  0  0
   19.2430   62.3020  -11.5040 C   0  0  0  0  0  0  0  0  0  0  0  0
   19.4500   62.0580  -10.1640 C   0  0  0  0  0  0  0  0  0  0  0  0
   20.6770   62.3580   -9.6200 C   0  0  0  0  0  0  0  0  0  0  0  0
   22.5490   63.6860  -12.4410 O   0  0  0  0  0  0  0  0  0  0  0  0
   23.7230   62.8930  -12.6460 C   0  0  0  0  0  0  0  0  0  0  0  0
   22.0460   67.6330   -5.8830 C   0  0  2  0  0  0  0  0  0  0  0  0
   20.9020   67.6490   -6.6760 O   0  0  0  0  0  0  0  0  0  0  0  0
   23.0680   68.5210   -6.5850 C   0  0  0  0  0  0  0  0  0  0  0  0
   25.2090   64.4920   -5.9480 H   0  0  0  0  0  0  0  0  0  0  0  0
   24.6380   61.0310   -2.4820 H   0  0  0  0  0  0  0  0  0  0  0  0
   26.8560   61.4810   -3.5260 H   0  0  0  0  0  0  0  0  0  0  0  0
   21.8970   61.8300   -2.4790 H   0  0  0  0  0  0  0  0  0  0  0  0
   23.2660   65.8280   -4.0120 H   0  0  0  0  0  0  0  0  0  0  0  0
   23.6480   66.2910   -6.2170 H   0  0  0  0  0  0  0  0  0  0  0  0
   20.8250   65.6880   -7.0590 H   0  0  0  0  0  0  0  0  0  0  0  0
   20.9440   63.5860   -6.2340 H   0  0  0  0  0  0  0  0  0  0  0  0
   23.6080   63.8530  -10.4270 H   0  0  0  0  0  0  0  0  0  0  0  0
   23.6230   62.2670   -9.6370 H   0  0  0  0  0  0  0  0  0  0  0  0
   20.0940   63.0260  -13.2910 H   0  0  0  0  0  0  0  0  0  0  0  0
   18.2750   62.0620  -11.9220 H   0  0  0  0  0  0  0  0  0  0  0  0
   18.6800   61.6360   -9.5280 H   0  0  0  0  0  0  0  0  0  0  0  0
   20.8260   62.1650   -8.5880 H   0  0  0  0  0  0  0  0  0  0  0  0
   24.1420   62.6590  -11.6540 H   0  0  0  0  0  0  0  0  0  0  0  0
   24.4330   63.4800  -13.2670 H   0  0  0  0  0  0  0  0  0  0  0  0
   23.5060   61.9570  -13.1650 H   0  0  0  0  0  0  0  0  0  0  0  0
   21.8130   67.9750   -4.8700 H   0  0  0  0  0  0  0  0  0  0  0  0
   20.1560   67.2340   -6.1870 H   0  0  0  0  0  0  0  0  0  0  0  0
   22.5620   69.2420   -7.2730 H   0  0  0  0  0  0  0  0  0  0  0  0
   23.7270   69.0320   -5.8570 H   0  0  0  0  0  0  0  0  0  0  0  0
   23.7340   67.9130   -7.2420 H   0  0  0  0  0  0  0  0  0  0  0  0
  1  2  1  0  0  0  0
  2  7  1  0  0  0  0
  3  2  2  0  0  0  0
  3  4  1  0  0  0  0
  4  5  2  0  0  0  0
  5  6  1  0  0  0  0
  5  8  1  0  0  0  0
  6 34  1  0  0  0  0
  7 35  1  0  0  0  0
  7  6  2  0  0  0  0
  8 36  1  0  0  0  0
  9 10  2  0  0  0  0
  9  8  1  0  0  0  0
 11 12  1  0  0  0  0
 11  4  1  1  0  0  0
 11  9  1  0  0  0  0
 12 37  1  0  0  0  0
 13 38  1  6  0  0  0
 13 30  1  0  0  0  0
 13 12  1  0  0  0  0
 14 39  1  6  0  0  0
 14 15  1  0  0  0  0
 14 13  1  0  0  0  0
 15 40  1  1  0  0  0
 15 11  1  0  0  0  0
 16 17  2  0  0  0  0
 16 15  1  0  0  0  0
 18 19  1  0  0  0  0
 18 16  1  0  0  0  0
 19 14  1  0  0  0  0
 20 19  2  0  0  0  0
 21 42  1  0  0  0  0
 21 18  1  0  0  0  0
 22 21  1  0  0  0  0
 22 27  1  0  0  0  0
 23 22  2  0  0  0  0
 24 23  1  0  0  0  0
 24 25  2  0  0  0  0
 25 26  1  0  0  0  0
 26 27  2  0  0  0  0
 26 45  1  0  0  0  0
 27 46  1  0  0  0  0
 28 23  1  0  0  0  0
 29 28  1  0  0  0  0
 29 47  1  0  0  0  0
 30 50  1  1  0  0  0
 31 51  1  0  0  0  0
 31 30  1  0  0  0  0
 32 30  1  0  0  0  0
 32 53  1  0  0  0  0
 33  3  1  0  0  0  0
 41 21  1  0  0  0  0
 43 24  1  0  0  0  0
 44 25  1  0  0  0  0
 48 29  1  0  0  0  0
 49 29  1  0  0  0  0
 52 32  1  0  0  0  0
 54 32  1  0  0  0  0
M  END
>  <Pose>
1

>  <Score>
-5.58

$$$$
