
 OpenBabel03202210193D

 53 56  0  0  0  0  0  0  0  0999 V2000
   12.4340   64.1830  -11.3230 B   0  0  0  0  0  0  0  0  0  0  0  0
   14.2070   63.5930  -10.8890 C   0  0  0  0  0  0  0  0  0  0  0  0
   14.4770   62.2270  -10.7820 C   0  0  0  0  0  0  0  0  0  0  0  0
   15.7710   61.8240  -10.4660 C   0  0  0  0  0  0  0  0  0  0  0  0
   16.7850   62.7290  -10.2570 C   0  0  0  0  0  0  0  0  0  0  0  0
   17.9480   62.0790   -9.9650 N   0  0  0  0  0  0  0  0  0  0  0  0
   17.6470   60.7750   -9.9950 C   0  0  0  0  0  0  0  0  0  0  0  0
   16.3160   60.5700  -10.2990 C   0  0  0  0  0  0  0  0  0  0  0  0
   19.2160   62.7180   -9.6850 C   0  0  0  0  0  0  0  0  0  0  0  0
   20.1270   62.6960  -10.8790 C   0  0  0  0  0  0  0  0  0  0  0  0
   19.8750   61.9040  -11.8090 O   0  0  0  0  0  0  0  0  0  0  0  0
   21.2400   63.5450  -10.9540 N   0  0  0  0  0  0  0  0  0  0  0  0
   21.3720   64.7540  -10.1710 C   0  0  0  0  0  0  0  0  0  0  0  0
   22.7180   64.6810   -9.4690 C   0  0  0  0  0  0  0  0  0  0  0  0
   23.3320   63.4320   -9.6510 N   0  0  0  0  0  0  0  0  0  0  0  0
   23.5700   62.9450  -10.9470 C   0  0  0  0  0  0  0  0  0  0  0  0
   22.3790   63.2680  -11.8430 C   0  0  0  0  0  0  0  0  0  0  0  0
   23.5510   62.5970   -8.5440 C   0  0  0  0  0  0  0  0  0  0  0  0
   23.0450   63.1390   -7.2550 C   0  0  0  0  0  0  0  0  0  0  0  0
   21.8020   63.2980   -7.1630 O   0  0  0  0  0  0  0  0  0  0  0  0
   23.8690   63.4710   -6.1690 N   0  0  0  0  0  0  0  0  0  0  0  0
   23.2870   63.8860   -4.9080 C   0  0  0  0  0  0  0  0  0  0  0  0
   23.8700   62.9920   -3.8330 C   0  0  0  0  0  0  0  0  0  0  0  0
   25.2370   63.3040   -3.7890 O   0  0  0  0  0  0  0  0  0  0  0  0
   25.8850   62.9120   -4.9350 C   0  0  0  0  0  0  0  0  0  0  0  0
   25.3170   63.4330   -6.2100 C   0  0  0  0  0  0  0  0  0  0  0  0
   16.5260   64.0760  -10.3610 C   0  0  0  0  0  0  0  0  0  0  0  0
   15.2350   64.4870  -10.6760 C   0  0  0  0  0  0  0  0  0  0  0  0
   13.6740   61.5400  -10.9470 H   0  0  0  0  0  0  0  0  0  0  0  0
   18.3610   59.9800   -9.8020 H   0  0  0  0  0  0  0  0  0  0  0  0
   15.7640   59.6510  -10.3990 H   0  0  0  0  0  0  0  0  0  0  0  0
   19.0890   63.7840   -9.3950 H   0  0  0  0  0  0  0  0  0  0  0  0
   19.7750   62.1860   -8.8850 H   0  0  0  0  0  0  0  0  0  0  0  0
   20.5280   64.9210   -9.4980 H   0  0  0  0  0  0  0  0  0  0  0  0
   21.4080   65.6570  -10.8440 H   0  0  0  0  0  0  0  0  0  0  0  0
   22.4830   64.7880   -8.3700 H   0  0  0  0  0  0  0  0  0  0  0  0
   23.3440   65.5710   -9.7040 H   0  0  0  0  0  0  0  0  0  0  0  0
   24.5130   63.2410  -11.4160 H   0  0  0  0  0  0  0  0  0  0  0  0
   23.5950   61.8160  -10.9050 H   0  0  0  0  0  0  0  0  0  0  0  0
   22.6090   64.2290  -12.3440 H   0  0  0  0  0  0  0  0  0  0  0  0
   22.1250   62.4570  -12.5220 H   0  0  0  0  0  0  0  0  0  0  0  0
   23.1210   61.5800   -8.7660 H   0  0  0  0  0  0  0  0  0  0  0  0
   24.6580   62.4140   -8.4590 H   0  0  0  0  0  0  0  0  0  0  0  0
   23.6700   64.9230   -4.6790 H   0  0  0  0  0  0  0  0  0  0  0  0
   22.1870   63.8890   -4.9300 H   0  0  0  0  0  0  0  0  0  0  0  0
   23.4380   63.2910   -2.8480 H   0  0  0  0  0  0  0  0  0  0  0  0
   23.6750   61.9410   -4.0800 H   0  0  0  0  0  0  0  0  0  0  0  0
   26.9390   63.2720   -4.8610 H   0  0  0  0  0  0  0  0  0  0  0  0
   25.9500   61.8040   -4.9010 H   0  0  0  0  0  0  0  0  0  0  0  0
   25.7070   64.4540   -6.3950 H   0  0  0  0  0  0  0  0  0  0  0  0
   25.6980   62.8070   -7.0390 H   0  0  0  0  0  0  0  0  0  0  0  0
   17.3000   64.8230  -10.2040 H   0  0  0  0  0  0  0  0  0  0  0  0
   15.0530   65.5510  -10.7540 H   0  0  0  0  0  0  0  0  0  0  0  0
  1  2  1  0  0  0  0
  2  3  2  0  0  0  0
  2 28  1  0  0  0  0
  3  4  1  0  0  0  0
  4  8  1  0  0  0  0
  4  5  2  0  0  0  0
  5  6  1  0  0  0  0
  6  9  1  0  0  0  0
  7  6  1  0  0  0  0
  7 30  1  0  0  0  0
  8  7  2  0  0  0  0
  9 32  1  0  0  0  0
  9 33  1  0  0  0  0
 10  9  1  0  0  0  0
 11 10  2  0  0  0  0
 12 10  1  0  0  0  0
 12 13  1  0  0  0  0
 13 34  1  0  0  0  0
 13 14  1  0  0  0  0
 14 36  1  0  0  0  0
 15 14  1  0  0  0  0
 15 18  1  0  0  0  0
 16 39  1  0  0  0  0
 16 15  1  0  0  0  0
 17 12  1  0  0  0  0
 17 16  1  0  0  0  0
 18 43  1  0  0  0  0
 18 19  1  0  0  0  0
 19 20  2  0  0  0  0
 19 21  1  0  0  0  0
 21 22  1  0  0  0  0
 22 44  1  0  0  0  0
 22 23  1  0  0  0  0
 23 24  1  0  0  0  0
 23 46  1  0  0  0  0
 25 49  1  0  0  0  0
 25 48  1  0  0  0  0
 25 24  1  0  0  0  0
 26 21  1  0  0  0  0
 26 25  1  0  0  0  0
 27  5  1  0  0  0  0
 27 52  1  0  0  0  0
 28 27  2  0  0  0  0
 29  3  1  0  0  0  0
 31  8  1  0  0  0  0
 35 13  1  0  0  0  0
 37 14  1  0  0  0  0
 38 16  1  0  0  0  0
 40 17  1  0  0  0  0
 41 17  1  0  0  0  0
 42 18  1  0  0  0  0
 45 22  1  0  0  0  0
 47 23  1  0  0  0  0
 50 26  1  0  0  0  0
 51 26  1  0  0  0  0
 53 28  1  0  0  0  0
M  END
>  <Pose>
1

>  <Score>
-6.39

$$$$
