
 OpenBabel03202210193D

 47 50  0  0  1  0  0  0  0  0999 V2000
   27.3280   61.7610   -5.1530 Cl  0  0  0  0  0  0  0  0  0  0  0  0
   25.7460   62.1020   -4.5070 C   0  0  0  0  0  0  0  0  0  0  0  0
   24.9240   62.9730   -5.1860 C   0  0  0  0  0  0  0  0  0  0  0  0
   23.6390   63.2930   -4.7310 C   0  0  0  0  0  0  0  0  0  0  0  0
   23.2430   62.6890   -3.5660 C   0  0  0  0  0  0  0  0  0  0  0  0
   24.0600   61.8170   -2.8800 C   0  0  0  0  0  0  0  0  0  0  0  0
   25.3410   61.5030   -3.3440 C   0  0  0  0  0  0  0  0  0  0  0  0
   22.8660   64.1910   -5.5140 N   0  0  0  0  0  0  0  0  0  0  0  0
   21.4880   64.4600   -5.3090 C   0  0  0  0  0  0  0  0  0  0  0  0
   20.8420   63.8850   -4.4230 O   0  0  0  0  0  0  0  0  0  0  0  0
   20.8140   65.4160   -6.1400 N   0  0  0  0  0  0  0  0  0  0  0  0
   21.5090   66.1100   -7.1740 C   0  0  0  0  0  0  0  0  0  0  0  0
   21.1210   67.2040   -7.6180 O   0  0  0  0  0  0  0  0  0  0  0  0
   22.7550   65.4810   -7.7400 C   0  0  1  0  0  0  0  0  0  0  0  0
   23.4950   64.9290   -6.5850 C   0  0  0  0  0  0  0  0  0  0  0  0
   24.7640   65.0840   -6.4790 O   0  0  0  0  0  0  0  0  0  0  0  0
   22.3690   64.4420   -8.7410 C   0  0  0  0  0  0  0  0  0  0  0  0
   22.2320   63.1430   -8.5780 C   0  0  0  0  0  0  0  0  0  0  0  0
   21.8320   62.5400   -9.8800 C   0  0  2  0  0  0  0  0  0  0  0  0
   22.3560   63.5590  -10.8250 N   0  0  0  0  0  0  0  0  0  0  0  0
   22.1020   64.7420  -10.1180 N   0  0  0  0  0  0  0  0  0  0  0  0
   20.3500   62.6030  -10.0080 C   0  0  0  0  0  0  0  0  0  0  0  0
   19.7270   63.4760  -10.9250 C   0  0  0  0  0  0  0  0  0  0  0  0
   18.3790   63.5440  -11.1010 C   0  0  0  0  0  0  0  0  0  0  0  0
   17.5540   62.7230  -10.3560 C   0  0  0  0  0  0  0  0  0  0  0  0
   18.1280   61.8600   -9.4520 C   0  0  0  0  0  0  0  0  0  0  0  0
   19.4940   61.8020   -9.2830 C   0  0  0  0  0  0  0  0  0  0  0  0
   16.1740   62.7780  -10.5250 O   0  0  0  0  0  0  0  0  0  0  0  0
   17.8110   64.4340  -12.0240 O   0  0  0  0  0  0  0  0  0  0  0  0
   17.5330   63.9900  -13.3340 C   0  0  0  0  0  0  0  0  0  0  0  0
   25.2430   63.4580   -6.1230 H   0  0  0  0  0  0  0  0  0  0  0  0
   22.2720   62.9060   -3.1780 H   0  0  0  0  0  0  0  0  0  0  0  0
   23.7480   61.3390   -1.9550 H   0  0  0  0  0  0  0  0  0  0  0  0
   25.9760   60.8160   -2.8040 H   0  0  0  0  0  0  0  0  0  0  0  0
   19.8150   65.5960   -5.9750 H   0  0  0  0  0  0  0  0  0  0  0  0
   23.4100   66.2460   -8.2010 H   0  0  0  0  0  0  0  0  0  0  0  0
   22.3730   62.5640   -7.6820 H   0  0  0  0  0  0  0  0  0  0  0  0
   22.2510   61.5540  -10.0570 H   0  0  0  0  0  0  0  0  0  0  0  0
   23.3690   63.3980  -10.9890 H   0  0  0  0  0  0  0  0  0  0  0  0
   21.7940   65.6380  -10.4800 H   0  0  0  0  0  0  0  0  0  0  0  0
   20.3960   64.1030  -11.4910 H   0  0  0  0  0  0  0  0  0  0  0  0
   17.4510   61.2410   -8.8840 H   0  0  0  0  0  0  0  0  0  0  0  0
   19.9150   61.1080   -8.5620 H   0  0  0  0  0  0  0  0  0  0  0  0
   15.5780   62.3480   -9.8300 H   0  0  0  0  0  0  0  0  0  0  0  0
   16.7130   63.2630  -13.3470 H   0  0  0  0  0  0  0  0  0  0  0  0
   17.2200   64.8990  -13.9080 H   0  0  0  0  0  0  0  0  0  0  0  0
   18.4830   63.6140  -13.7840 H   0  0  0  0  0  0  0  0  0  0  0  0
  1  2  1  0  0  0  0
  2  7  1  0  0  0  0
  3  4  1  0  0  0  0
  3  2  2  0  0  0  0
  4  5  2  0  0  0  0
  5 32  1  0  0  0  0
  5  6  1  0  0  0  0
  6 33  1  0  0  0  0
  7  6  2  0  0  0  0
  7 34  1  0  0  0  0
  8  9  1  0  0  0  0
  8  4  1  0  0  0  0
  9 10  2  0  0  0  0
 11 35  1  0  0  0  0
 11  9  1  0  0  0  0
 12 11  1  0  0  0  0
 13 12  2  0  0  0  0
 14 36  1  6  0  0  0
 14 12  1  0  0  0  0
 14 15  1  0  0  0  0
 15 16  2  0  0  0  0
 15  8  1  0  0  0  0
 17 18  2  0  0  0  0
 17 14  1  0  0  0  0
 18 37  1  0  0  0  0
 19 38  1  6  0  0  0
 19 18  1  0  0  0  0
 20 21  1  0  0  0  0
 20 19  1  0  0  0  0
 21 17  1  0  0  0  0
 22 19  1  0  0  0  0
 22 27  1  0  0  0  0
 23 22  2  0  0  0  0
 24 23  1  0  0  0  0
 24 25  2  0  0  0  0
 25 26  1  0  0  0  0
 26 27  2  0  0  0  0
 26 42  1  0  0  0  0
 27 43  1  0  0  0  0
 28 25  1  0  0  0  0
 28 44  1  0  0  0  0
 29 24  1  0  0  0  0
 30 29  1  0  0  0  0
 31  3  1  0  0  0  0
 39 20  1  0  0  0  0
 40 21  1  0  0  0  0
 41 23  1  0  0  0  0
 45 30  1  0  0  0  0
 46 30  1  0  0  0  0
 47 30  1  0  0  0  0
M  END
>  <Pose>
1

>  <Score>
-7.63

$$$$
