
 OpenBabel03202210193D

 42 45  0  0  0  0  0  0  0  0999 V2000
   24.4170   63.7170   -3.1150 Cl  0  0  0  0  0  0  0  0  0  0  0  0
   23.9310   63.7780   -4.8150 C   0  0  0  0  0  0  0  0  0  0  0  0
   24.4850   62.8970   -5.7210 C   0  0  0  0  0  0  0  0  0  0  0  0
   24.1370   62.9090   -7.0470 C   0  0  0  0  0  0  0  0  0  0  0  0
   23.2060   63.8160   -7.5290 C   0  0  0  0  0  0  0  0  0  0  0  0
   22.6610   64.6910   -6.6050 C   0  0  0  0  0  0  0  0  0  0  0  0
   23.0080   64.6830   -5.2700 C   0  0  0  0  0  0  0  0  0  0  0  0
   22.8230   63.8570   -8.8930 N   0  0  0  0  0  0  0  0  0  0  0  0
   23.5750   64.2720   -9.8930 N   0  0  0  0  0  0  0  0  0  0  0  0
   22.8330   64.1420  -10.9860 N   0  0  0  0  0  0  0  0  0  0  0  0
   21.6160   63.6500  -10.6990 C   0  0  0  0  0  0  0  0  0  0  0  0
   21.6210   63.4720   -9.3680 C   0  0  0  0  0  0  0  0  0  0  0  0
   20.3690   62.9660   -9.0760 C   0  0  0  0  0  0  0  0  0  0  0  0
   20.0130   62.6750   -7.8950 O   0  0  0  0  0  0  0  0  0  0  0  0
   19.6130   62.8320  -10.1780 N   0  0  0  0  0  0  0  0  0  0  0  0
   20.3880   63.2580  -11.1900 C   0  0  0  0  0  0  0  0  0  0  0  0
   20.0230   63.2840  -12.4030 O   0  0  0  0  0  0  0  0  0  0  0  0
   18.2750   62.3390  -10.2080 C   0  0  0  0  0  0  0  0  0  0  0  0
   17.1900   63.1650  -10.4180 C   0  0  0  0  0  0  0  0  0  0  0  0
   15.8870   62.7110  -10.4510 C   0  0  0  0  0  0  0  0  0  0  0  0
   15.6590   61.3630  -10.2650 C   0  0  0  0  0  0  0  0  0  0  0  0
   16.7070   60.4910  -10.0510 C   0  0  0  0  0  0  0  0  0  0  0  0
   18.0030   60.9970  -10.0250 C   0  0  0  0  0  0  0  0  0  0  0  0
   16.4380   59.1410   -9.8680 O   0  0  0  0  0  0  0  0  0  0  0  0
   17.2900   58.3080   -9.1320 C   0  0  0  0  0  0  0  0  0  0  0  0
   14.8140   63.5960  -10.6690 O   0  0  0  0  0  0  0  0  0  0  0  0
   14.8550   64.4590  -11.7820 C   0  0  0  0  0  0  0  0  0  0  0  0
   25.2220   62.1800   -5.3370 H   0  0  0  0  0  0  0  0  0  0  0  0
   24.5770   62.2160   -7.7510 H   0  0  0  0  0  0  0  0  0  0  0  0
   21.9220   65.4110   -6.9880 H   0  0  0  0  0  0  0  0  0  0  0  0
   22.5650   65.3720   -4.5900 H   0  0  0  0  0  0  0  0  0  0  0  0
   24.5570   64.6270   -9.8150 H   0  0  0  0  0  0  0  0  0  0  0  0
   23.1520   64.3900  -11.9480 H   0  0  0  0  0  0  0  0  0  0  0  0
   17.4170   64.2260  -10.5600 H   0  0  0  0  0  0  0  0  0  0  0  0
   14.6310   61.0020  -10.2910 H   0  0  0  0  0  0  0  0  0  0  0  0
   18.8380   60.3000   -9.8550 H   0  0  0  0  0  0  0  0  0  0  0  0
   18.1970   58.1240   -9.7610 H   0  0  0  0  0  0  0  0  0  0  0  0
   17.5470   58.7100   -8.1380 H   0  0  0  0  0  0  0  0  0  0  0  0
   16.7360   57.3390   -8.9590 H   0  0  0  0  0  0  0  0  0  0  0  0
   15.1430   63.9470  -12.7130 H   0  0  0  0  0  0  0  0  0  0  0  0
   13.8640   64.9250  -11.9360 H   0  0  0  0  0  0  0  0  0  0  0  0
   15.5870   65.2910  -11.6360 H   0  0  0  0  0  0  0  0  0  0  0  0
  2  1  1  0  0  0  0
  3 28  1  0  0  0  0
  3  2  2  0  0  0  0
  4  3  1  0  0  0  0
  5  4  2  0  0  0  0
  5  6  1  0  0  0  0
  6  7  2  0  0  0  0
  7  2  1  0  0  0  0
  7 31  1  0  0  0  0
  8  5  1  0  0  0  0
  9 32  1  0  0  0  0
  9  8  1  0  0  0  0
 10 11  1  0  0  0  0
 10  9  1  0  0  0  0
 11 12  2  0  0  0  0
 12 13  1  0  0  0  0
 12  8  1  0  0  0  0
 13 14  2  0  0  0  0
 15 13  1  0  0  0  0
 16 11  1  0  0  0  0
 16 15  1  0  0  0  0
 17 16  2  0  0  0  0
 18 15  1  0  0  0  0
 18 23  1  0  0  0  0
 19 18  2  0  0  0  0
 20 19  1  0  0  0  0
 20 21  2  0  0  0  0
 21 22  1  0  0  0  0
 22 23  2  0  0  0  0
 22 24  1  0  0  0  0
 23 36  1  0  0  0  0
 24 25  1  0  0  0  0
 25 39  1  0  0  0  0
 25 38  1  0  0  0  0
 26 20  1  0  0  0  0
 27 42  1  0  0  0  0
 27 26  1  0  0  0  0
 29  4  1  0  0  0  0
 30  6  1  0  0  0  0
 33 10  1  0  0  0  0
 34 19  1  0  0  0  0
 35 21  1  0  0  0  0
 37 25  1  0  0  0  0
 40 27  1  0  0  0  0
 41 27  1  0  0  0  0
M  END
>  <Pose>
1

>  <Score>
-7.86

$$$$
