
 OpenBabel03202210193D

 43 46  0  0  0  0  0  0  0  0999 V2000
   13.7860   64.2800  -11.8190 Cl  0  0  0  0  0  0  0  0  0  0  0  0
   14.7470   62.9260  -11.2190 C   0  0  0  0  0  0  0  0  0  0  0  0
   16.1030   63.1410  -10.9610 C   0  0  0  0  0  0  0  0  0  0  0  0
   16.9110   62.1290  -10.4830 C   0  0  0  0  0  0  0  0  0  0  0  0
   16.3100   60.9030  -10.2770 C   0  0  0  0  0  0  0  0  0  0  0  0
   15.0000   60.6520  -10.5140 C   0  0  0  0  0  0  0  0  0  0  0  0
   14.1870   61.6870  -10.9990 C   0  0  0  0  0  0  0  0  0  0  0  0
   17.1940   59.8280   -9.7590 C   0  0  0  0  0  0  0  0  0  0  0  0
   16.9520   58.5870   -9.4630 N   0  0  0  0  0  0  0  0  0  0  0  0
   18.1510   57.9350   -8.9890 C   0  0  0  0  0  0  0  0  0  0  0  0
   19.2470   58.9720   -9.0060 C   0  0  0  0  0  0  0  0  0  0  0  0
   18.5440   60.1340   -9.5250 N   0  0  0  0  0  0  0  0  0  0  0  0
   19.0890   61.4300   -9.7640 C   0  0  0  0  0  0  0  0  0  0  0  0
   20.3320   61.9290   -9.6020 N   0  0  0  0  0  0  0  0  0  0  0  0
   20.3360   63.2110   -9.9590 N   0  0  0  0  0  0  0  0  0  0  0  0
   19.0870   63.4750  -10.3350 C   0  0  0  0  0  0  0  0  0  0  0  0
   18.6770   64.5970  -10.7450 O   0  0  0  0  0  0  0  0  0  0  0  0
   18.2830   62.3810  -10.2270 N   0  0  0  0  0  0  0  0  0  0  0  0
   21.4820   64.1240   -9.9210 C   0  0  0  0  0  0  0  0  0  0  0  0
   22.6800   63.1560   -9.6710 C   0  0  0  0  0  0  0  0  0  0  0  0
   23.0550   62.6960  -10.8060 O   0  0  0  0  0  0  0  0  0  0  0  0
   23.1320   62.9300   -8.4300 N   0  0  0  0  0  0  0  0  0  0  0  0
   23.5970   62.6980   -7.1550 C   0  0  0  0  0  0  0  0  0  0  0  0
   24.3070   63.9180   -6.5570 C   0  0  0  0  0  0  0  0  0  0  0  0
   25.5620   63.5960   -6.0980 O   0  0  0  0  0  0  0  0  0  0  0  0
   25.6350   63.2530   -4.7780 C   0  0  0  0  0  0  0  0  0  0  0  0
   16.4830   64.1290  -11.1520 H   0  0  0  0  0  0  0  0  0  0  0  0
   14.5670   59.6870  -10.3540 H   0  0  0  0  0  0  0  0  0  0  0  0
   13.1420   61.5360  -11.1990 H   0  0  0  0  0  0  0  0  0  0  0  0
   18.3770   57.0900   -9.6760 H   0  0  0  0  0  0  0  0  0  0  0  0
   18.0090   57.5570   -7.9430 H   0  0  0  0  0  0  0  0  0  0  0  0
   20.0600   58.7030   -9.6870 H   0  0  0  0  0  0  0  0  0  0  0  0
   19.6320   59.1460   -7.9670 H   0  0  0  0  0  0  0  0  0  0  0  0
   21.6360   64.6140  -10.8630 H   0  0  0  0  0  0  0  0  0  0  0  0
   21.3700   64.7750   -9.0670 H   0  0  0  0  0  0  0  0  0  0  0  0
   23.0450   61.5920   -8.6400 H   0  0  0  0  0  0  0  0  0  0  0  0
   22.8650   62.2800   -6.4310 H   0  0  0  0  0  0  0  0  0  0  0  0
   24.4130   61.8720   -7.1510 H   0  0  0  0  0  0  0  0  0  0  0  0
   24.3120   64.7840   -7.2380 H   0  0  0  0  0  0  0  0  0  0  0  0
   23.6840   64.1920   -5.6700 H   0  0  0  0  0  0  0  0  0  0  0  0
   25.0370   62.3120   -4.5690 H   0  0  0  0  0  0  0  0  0  0  0  0
   25.1080   63.9980   -4.1250 H   0  0  0  0  0  0  0  0  0  0  0  0
   26.6720   63.0890   -4.4450 H   0  0  0  0  0  0  0  0  0  0  0  0
  1  2  1  0  0  0  0
  2  7  2  0  0  0  0
  2  3  1  0  0  0  0
  3  4  2  0  0  0  0
  4  5  1  0  0  0  0
  4 18  1  0  0  0  0
  5  8  2  0  0  0  0
  6 28  1  0  0  0  0
  6  5  1  0  0  0  0
  7  6  1  0  0  0  0
  8 12  1  0  0  0  0
  8  9  1  0  0  0  0
  9 10  1  0  0  0  0
 10 31  1  0  0  0  0
 11 10  1  0  0  0  0
 11 33  1  0  0  0  0
 12 11  1  0  0  0  0
 13 14  2  0  0  0  0
 13 12  1  0  0  0  0
 15 19  1  0  0  0  0
 15 14  1  0  0  0  0
 16 18  1  0  0  0  0
 16 15  1  0  0  0  0
 17 16  2  0  0  0  0
 18 13  1  0  0  0  0
 19 20  1  0  0  0  0
 19 35  1  0  0  0  0
 20 22  1  0  0  0  0
 21 20  2  0  0  0  0
 22 23  1  0  0  0  0
 23 38  1  0  0  0  0
 23 24  1  0  0  0  0
 23 37  1  0  0  0  0
 24 25  1  0  0  0  0
 24 40  1  0  0  0  0
 25 26  1  0  0  0  0
 26 41  1  0  0  0  0
 26 43  1  0  0  0  0
 26 42  1  0  0  0  0
 27  3  1  0  0  0  0
 29  7  1  0  0  0  0
 30 10  1  0  0  0  0
 32 11  1  0  0  0  0
 34 19  1  0  0  0  0
 36 22  1  0  0  0  0
 39 24  1  0  0  0  0
M  END
>  <Pose>
1

>  <Score>
-7.16

$$$$
