
 OpenBabel03202210193D

 43 47  0  0  0  0  0  0  0  0999 V2000
   14.7960   66.4500  -11.7210 Cl  0  0  0  0  0  0  0  0  0  0  0  0
   15.3180   64.8380  -11.2810 C   0  0  0  0  0  0  0  0  0  0  0  0
   16.5960   64.5580  -10.8270 C   0  0  0  0  0  0  0  0  0  0  0  0
   16.9950   63.2870  -10.4840 C   0  0  0  0  0  0  0  0  0  0  0  0
   16.0570   62.2920  -10.6140 C   0  0  0  0  0  0  0  0  0  0  0  0
   14.7750   62.5120  -11.0590 C   0  0  0  0  0  0  0  0  0  0  0  0
   14.4020   63.8140  -11.3990 C   0  0  0  0  0  0  0  0  0  0  0  0
   16.4490   60.9150  -10.2560 C   0  0  0  0  0  0  0  0  0  0  0  0
   15.7940   59.8110  -10.2770 N   0  0  0  0  0  0  0  0  0  0  0  0
   16.5930   58.7000   -9.8330 C   0  0  0  0  0  0  0  0  0  0  0  0
   17.9230   59.3030   -9.5120 C   0  0  0  0  0  0  0  0  0  0  0  0
   17.7690   60.7050   -9.8000 N   0  0  0  0  0  0  0  0  0  0  0  0
   18.7120   61.7900   -9.6840 C   0  0  0  0  0  0  0  0  0  0  0  0
   19.9970   61.8330   -9.2830 N   0  0  0  0  0  0  0  0  0  0  0  0
   20.4370   63.0780   -9.3540 N   0  0  0  0  0  0  0  0  0  0  0  0
   19.3990   63.8010   -9.8070 C   0  0  0  0  0  0  0  0  0  0  0  0
   19.4670   65.0480   -9.9970 O   0  0  0  0  0  0  0  0  0  0  0  0
   18.3130   63.0280  -10.0210 N   0  0  0  0  0  0  0  0  0  0  0  0
   21.7770   63.5780   -9.0130 C   0  0  0  0  0  0  0  0  0  0  0  0
   21.7910   63.9080   -7.5640 C   0  0  0  0  0  0  0  0  0  0  0  0
   20.6900   64.2210   -7.0460 O   0  0  0  0  0  0  0  0  0  0  0  0
   22.9860   63.8770   -6.7950 N   0  0  0  0  0  0  0  0  0  0  0  0
   24.0490   62.9060   -6.9680 C   0  0  0  0  0  0  0  0  0  0  0  0
   25.0120   63.1240   -5.8310 C   0  0  0  0  0  0  0  0  0  0  0  0
   24.1420   63.8360   -4.8160 C   0  0  0  0  0  0  0  0  0  0  0  0
   23.3570   64.7810   -5.7320 C   0  0  0  0  0  0  0  0  0  0  0  0
   17.2870   65.3610  -10.7440 H   0  0  0  0  0  0  0  0  0  0  0  0
   14.0670   61.7180  -11.1500 H   0  0  0  0  0  0  0  0  0  0  0  0
   13.3930   63.9610  -11.7450 H   0  0  0  0  0  0  0  0  0  0  0  0
   16.7380   57.9450  -10.6490 H   0  0  0  0  0  0  0  0  0  0  0  0
   16.1520   58.2090   -8.9340 H   0  0  0  0  0  0  0  0  0  0  0  0
   18.7460   58.8380  -10.0980 H   0  0  0  0  0  0  0  0  0  0  0  0
   18.1050   59.2140   -8.4140 H   0  0  0  0  0  0  0  0  0  0  0  0
   21.9990   64.4760   -9.6250 H   0  0  0  0  0  0  0  0  0  0  0  0
   22.4830   62.7610   -9.2240 H   0  0  0  0  0  0  0  0  0  0  0  0
   24.5160   63.1200   -7.9490 H   0  0  0  0  0  0  0  0  0  0  0  0
   23.5970   61.8900   -6.9290 H   0  0  0  0  0  0  0  0  0  0  0  0
   25.8040   63.8480   -6.1350 H   0  0  0  0  0  0  0  0  0  0  0  0
   25.4390   62.1850   -5.4280 H   0  0  0  0  0  0  0  0  0  0  0  0
   24.7380   64.3740   -4.0750 H   0  0  0  0  0  0  0  0  0  0  0  0
   23.4360   63.0950   -4.3520 H   0  0  0  0  0  0  0  0  0  0  0  0
   22.5220   65.2610   -5.2260 H   0  0  0  0  0  0  0  0  0  0  0  0
   24.0980   65.4880   -6.1580 H   0  0  0  0  0  0  0  0  0  0  0  0
  1  2  1  0  0  0  0
  2  3  1  0  0  0  0
  3 27  1  0  0  0  0
  3  4  2  0  0  0  0
  4 18  1  0  0  0  0
  5  4  1  0  0  0  0
  5  8  2  0  0  0  0
  6  5  1  0  0  0  0
  7  2  2  0  0  0  0
  7  6  1  0  0  0  0
  8 12  1  0  0  0  0
  9  8  1  0  0  0  0
  9 10  1  0  0  0  0
 10 11  1  0  0  0  0
 10 31  1  0  0  0  0
 11 33  1  0  0  0  0
 12 13  1  0  0  0  0
 12 11  1  0  0  0  0
 13 14  2  0  0  0  0
 15 14  1  0  0  0  0
 15 19  1  0  0  0  0
 16 15  1  0  0  0  0
 17 16  2  0  0  0  0
 18 16  1  0  0  0  0
 18 13  1  0  0  0  0
 19 20  1  0  0  0  0
 20 21  2  0  0  0  0
 20 22  1  0  0  0  0
 22 26  1  0  0  0  0
 23 37  1  0  0  0  0
 23 22  1  0  0  0  0
 23 24  1  0  0  0  0
 24 39  1  0  0  0  0
 24 25  1  0  0  0  0
 25 41  1  0  0  0  0
 25 40  1  0  0  0  0
 26 42  1  0  0  0  0
 26 25  1  0  0  0  0
 28  6  1  0  0  0  0
 29  7  1  0  0  0  0
 30 10  1  0  0  0  0
 32 11  1  0  0  0  0
 34 19  1  0  0  0  0
 35 19  1  0  0  0  0
 36 23  1  0  0  0  0
 38 24  1  0  0  0  0
 43 26  1  0  0  0  0
M  END
>  <Pose>
1

>  <Score>
-6.32

$$$$
