
 OpenBabel03202210193D

 47 50  0  0  0  0  0  0  0  0999 V2000
   25.9670   63.0020   -2.8550 Cl  0  0  0  0  0  0  0  0  0  0  0  0
   24.8830   62.9560   -4.2450 C   0  0  0  0  0  0  0  0  0  0  0  0
   24.5720   64.0650   -4.9690 C   0  0  0  0  0  0  0  0  0  0  0  0
   23.7170   63.9810   -6.0510 C   0  0  0  0  0  0  0  0  0  0  0  0
   23.1680   62.7780   -6.4150 C   0  0  0  0  0  0  0  0  0  0  0  0
   23.4830   61.6620   -5.6840 C   0  0  0  0  0  0  0  0  0  0  0  0
   24.3390   61.7430   -4.6000 C   0  0  0  0  0  0  0  0  0  0  0  0
   22.2690   62.6520   -7.5400 N   0  0  0  0  0  0  0  0  0  0  0  0
   21.9160   63.7770   -8.3220 C   0  0  0  0  0  0  0  0  0  0  0  0
   21.1040   63.7030   -9.3500 C   0  0  0  0  0  0  0  0  0  0  0  0
   20.4600   62.5390   -9.8480 N   0  0  0  0  0  0  0  0  0  0  0  0
   19.9510   61.4840   -8.9950 C   0  0  0  0  0  0  0  0  0  0  0  0
   18.5490   61.1200   -9.5100 C   0  0  0  0  0  0  0  0  0  0  0  0
   18.1040   62.0130  -10.5240 N   0  0  0  0  0  0  0  0  0  0  0  0
   18.9270   62.0140  -11.7320 C   0  0  0  0  0  0  0  0  0  0  0  0
   20.3240   62.3670  -11.2810 C   0  0  0  0  0  0  0  0  0  0  0  0
   16.9990   62.9000  -10.5140 C   0  0  0  0  0  0  0  0  0  0  0  0
   17.2560   64.2610  -10.4950 N   0  0  0  0  0  0  0  0  0  0  0  0
   16.3090   65.1960  -10.4710 C   0  0  0  0  0  0  0  0  0  0  0  0
   15.0030   64.7920  -10.4630 C   0  0  0  0  0  0  0  0  0  0  0  0
   14.7100   63.4570  -10.4820 C   0  0  0  0  0  0  0  0  0  0  0  0
   15.7080   62.4620  -10.5090 C   0  0  0  0  0  0  0  0  0  0  0  0
   15.3660   61.0740  -10.5590 C   0  0  0  0  0  0  0  0  0  0  0  0
   16.1400   60.1360  -10.3800 O   0  0  0  0  0  0  0  0  0  0  0  0
   14.0170   60.7190  -10.8400 N   0  0  0  0  0  0  0  0  0  0  0  0
   22.4840   65.0540   -7.9550 N   0  0  0  0  0  0  0  0  0  0  0  0
   23.3610   65.1460   -6.8470 C   0  0  0  0  0  0  0  0  0  0  0  0
   23.8760   66.2650   -6.5040 O   0  0  0  0  0  0  0  0  0  0  0  0
   24.9780   65.0170   -4.7160 H   0  0  0  0  0  0  0  0  0  0  0  0
   23.0400   60.7200   -5.9850 H   0  0  0  0  0  0  0  0  0  0  0  0
   24.5810   60.8690   -4.0340 H   0  0  0  0  0  0  0  0  0  0  0  0
   21.8850   61.7190   -7.7690 H   0  0  0  0  0  0  0  0  0  0  0  0
   20.9050   64.6490   -9.8800 H   0  0  0  0  0  0  0  0  0  0  0  0
   19.8620   61.7550   -7.9440 H   0  0  0  0  0  0  0  0  0  0  0  0
   20.6450   60.5980   -9.0900 H   0  0  0  0  0  0  0  0  0  0  0  0
   17.8940   61.1440   -8.6470 H   0  0  0  0  0  0  0  0  0  0  0  0
   18.7140   60.1000   -9.9370 H   0  0  0  0  0  0  0  0  0  0  0  0
   18.6080   62.7550  -12.4670 H   0  0  0  0  0  0  0  0  0  0  0  0
   18.9470   61.0100  -12.2030 H   0  0  0  0  0  0  0  0  0  0  0  0
   21.0510   61.5630  -11.5520 H   0  0  0  0  0  0  0  0  0  0  0  0
   20.6780   63.2890  -11.8030 H   0  0  0  0  0  0  0  0  0  0  0  0
   16.5940   66.2500  -10.4570 H   0  0  0  0  0  0  0  0  0  0  0  0
   14.2240   65.5220  -10.4430 H   0  0  0  0  0  0  0  0  0  0  0  0
   13.6740   63.0810  -10.4770 H   0  0  0  0  0  0  0  0  0  0  0  0
   13.3580   60.4730  -10.0680 H   0  0  0  0  0  0  0  0  0  0  0  0
   13.6180   60.6830  -11.8040 H   0  0  0  0  0  0  0  0  0  0  0  0
   22.2470   65.9030   -8.5070 H   0  0  0  0  0  0  0  0  0  0  0  0
  2  1  1  0  0  0  0
  3 29  1  0  0  0  0
  3  2  2  0  0  0  0
  4  3  1  0  0  0  0
  5  4  2  0  0  0  0
  5  6  1  0  0  0  0
  6  7  2  0  0  0  0
  7  2  1  0  0  0  0
  7 31  1  0  0  0  0
  8  5  1  0  0  0  0
  9 26  1  0  0  0  0
  9  8  1  0  0  0  0
 10  9  2  0  0  0  0
 11 10  1  0  0  0  0
 11 12  1  0  0  0  0
 12 34  1  0  0  0  0
 13 12  1  0  0  0  0
 13 36  1  0  0  0  0
 14 17  1  0  0  0  0
 14 13  1  0  0  0  0
 15 16  1  0  0  0  0
 15 14  1  0  0  0  0
 16 11  1  0  0  0  0
 17 22  2  0  0  0  0
 17 18  1  0  0  0  0
 18 19  2  0  0  0  0
 19 20  1  0  0  0  0
 19 42  1  0  0  0  0
 20 43  1  0  0  0  0
 21 44  1  0  0  0  0
 21 20  2  0  0  0  0
 22 21  1  0  0  0  0
 23 22  1  0  0  0  0
 23 24  2  0  0  0  0
 25 23  1  0  0  0  0
 25 45  1  0  0  0  0
 26 27  1  0  0  0  0
 27 28  2  0  0  0  0
 27  4  1  0  0  0  0
 30  6  1  0  0  0  0
 32  8  1  0  0  0  0
 33 10  1  0  0  0  0
 35 12  1  0  0  0  0
 37 13  1  0  0  0  0
 38 15  1  0  0  0  0
 39 15  1  0  0  0  0
 40 16  1  0  0  0  0
 41 16  1  0  0  0  0
 46 25  1  0  0  0  0
 47 26  1  0  0  0  0
M  END
>  <Pose>
1

>  <Score>
-7.70

$$$$
