
 OpenBabel03162216073D

 38 42  0  0  1  0  0  0  0  0999 V2000
   24.5430   63.6710   -4.2400 B   0  0  0  0  0  0  0  0  0  0  0  0
   23.6880   63.7830   -5.9290 C   0  0  0  0  0  0  0  0  0  0  0  0
   23.9040   62.7980   -6.8630 C   0  0  0  0  0  0  0  0  0  0  0  0
   23.2690   62.9040   -8.0810 C   0  0  0  0  0  0  0  0  0  0  0  0
   22.4360   63.9580   -8.3860 C   0  0  0  0  0  0  0  0  0  0  0  0
   22.2160   64.9530   -7.4430 C   0  0  0  0  0  0  0  0  0  0  0  0
   22.8610   64.8410   -6.2090 C   0  0  0  0  0  0  0  0  0  0  0  0
   21.7800   64.0540   -9.6570 N   0  0  0  0  0  0  0  0  0  0  0  0
   20.7820   65.0240   -9.9350 C   0  0  0  0  0  0  0  0  0  0  0  0
   20.6160   66.0750   -9.2700 O   0  0  0  0  0  0  0  0  0  0  0  0
   19.9950   64.5860  -11.1190 C   0  0  2  0  0  0  0  0  0  0  0  0
   18.7540   63.8420  -10.7300 C   0  0  1  0  0  0  0  0  0  0  0  0
   18.6360   62.9550  -11.8220 O   0  0  0  0  0  0  0  0  0  0  0  0
   19.8830   62.3040  -11.6490 C   0  0  1  0  0  0  0  0  0  0  0  0
   20.8220   63.4570  -11.7370 C   0  0  2  0  0  0  0  0  0  0  0  0
   21.9770   63.2540  -10.8220 C   0  0  0  0  0  0  0  0  0  0  0  0
   22.9360   62.5120  -11.0520 O   0  0  0  0  0  0  0  0  0  0  0  0
   19.7540   61.9090  -10.2230 C   0  0  0  0  0  0  0  0  0  0  0  0
   19.1000   62.9110   -9.6440 C   0  0  0  0  0  0  0  0  0  0  0  0
   17.5560   64.6670  -10.5290 C   0  0  0  0  0  0  0  0  0  0  0  0
   16.7460   64.2350   -9.5150 O   0  0  0  0  0  0  0  0  0  0  0  0
   15.5850   63.7420  -10.0560 C   0  0  0  0  0  0  0  0  0  0  0  0
   15.7080   63.9020  -11.5360 C   0  0  0  0  0  0  0  0  0  0  0  0
   16.7940   64.7580  -11.6800 O   0  0  0  0  0  0  0  0  0  0  0  0
   24.5560   61.9420   -6.6730 H   0  0  0  0  0  0  0  0  0  0  0  0
   23.4210   62.1330   -8.8520 H   0  0  0  0  0  0  0  0  0  0  0  0
   21.5620   65.7690   -7.6950 H   0  0  0  0  0  0  0  0  0  0  0  0
   22.6900   65.6160   -5.4750 H   0  0  0  0  0  0  0  0  0  0  0  0
   19.8260   65.4180  -11.8000 H   0  0  0  0  0  0  0  0  0  0  0  0
   20.0430   61.4940  -12.3390 H   0  0  0  0  0  0  0  0  0  0  0  0
   21.1480   63.7120  -12.7450 H   0  0  0  0  0  0  0  0  0  0  0  0
   20.1400   60.9810   -9.8200 H   0  0  0  0  0  0  0  0  0  0  0  0
   18.9170   62.9340   -8.5750 H   0  0  0  0  0  0  0  0  0  0  0  0
   17.8960   65.7100  -10.2890 H   0  0  0  0  0  0  0  0  0  0  0  0
   14.6750   64.2590   -9.6950 H   0  0  0  0  0  0  0  0  0  0  0  0
   15.5410   62.6460   -9.8270 H   0  0  0  0  0  0  0  0  0  0  0  0
   14.7730   64.3670  -11.9660 H   0  0  0  0  0  0  0  0  0  0  0  0
   15.9290   62.9420  -12.0680 H   0  0  0  0  0  0  0  0  0  0  0  0
  2  1  1  0  0  0  0
  3 25  1  0  0  0  0
  3  2  2  0  0  0  0
  4  3  1  0  0  0  0
  5  4  2  0  0  0  0
  5  6  1  0  0  0  0
  6  7  2  0  0  0  0
  7  2  1  0  0  0  0
  7 28  1  0  0  0  0
  8  5  1  0  0  0  0
  9  8  1  0  0  0  0
  9 10  2  0  0  0  0
 11 29  1  6  0  0  0
 11 12  1  0  0  0  0
 11  9  1  0  0  0  0
 12 20  1  1  0  0  0
 12 19  1  0  0  0  0
 13 14  1  0  0  0  0
 13 12  1  0  0  0  0
 14 30  1  6  0  0  0
 14 18  1  0  0  0  0
 15 31  1  6  0  0  0
 15 14  1  0  0  0  0
 15 11  1  0  0  0  0
 15 16  1  0  0  0  0
 16  8  1  0  0  0  0
 17 16  2  0  0  0  0
 18 32  1  0  0  0  0
 18 19  2  0  0  0  0
 19 33  1  0  0  0  0
 20 34  1  0  0  0  0
 20 21  1  0  0  0  0
 22 36  1  0  0  0  0
 22 35  1  0  0  0  0
 22 21  1  0  0  0  0
 23 22  1  0  0  0  0
 24 23  1  0  0  0  0
 24 20  1  0  0  0  0
 26  4  1  0  0  0  0
 27  6  1  0  0  0  0
 37 23  1  0  0  0  0
 38 23  1  0  0  0  0
M  END
>  <Pose>
1

>  <Score>
-4.82

$$$$
