
 OpenBabel03202210193D

 38 42  0  0  1  0  0  0  0  0999 V2000
   24.5250   63.6810   -4.0130 B   0  0  0  0  0  0  0  0  0  0  0  0
   23.5830   63.6960   -5.6600 C   0  0  0  0  0  0  0  0  0  0  0  0
   22.2680   64.0910   -5.6840 C   0  0  0  0  0  0  0  0  0  0  0  0
   21.6090   64.0930   -6.8930 C   0  0  0  0  0  0  0  0  0  0  0  0
   22.2250   63.7120   -8.0650 C   0  0  0  0  0  0  0  0  0  0  0  0
   23.5540   63.3130   -8.0420 C   0  0  0  0  0  0  0  0  0  0  0  0
   24.2190   63.3130   -6.8140 C   0  0  0  0  0  0  0  0  0  0  0  0
   21.5280   63.7210   -9.3180 N   0  0  0  0  0  0  0  0  0  0  0  0
   20.6170   64.7450   -9.6840 C   0  0  0  0  0  0  0  0  0  0  0  0
   20.5800   65.8790   -9.1490 O   0  0  0  0  0  0  0  0  0  0  0  0
   19.7430   64.2480  -10.7800 C   0  0  2  0  0  0  0  0  0  0  0  0
   18.4540   63.6850  -10.2660 C   0  0  1  0  0  0  0  0  0  0  0  0
   18.2060   62.6890  -11.2360 O   0  0  0  0  0  0  0  0  0  0  0  0
   19.3920   61.9420  -11.0220 C   0  0  1  0  0  0  0  0  0  0  0  0
   20.4320   62.9770  -11.2790 C   0  0  2  0  0  0  0  0  0  0  0  0
   21.6000   62.7710  -10.3810 C   0  0  0  0  0  0  0  0  0  0  0  0
   22.4720   61.9140  -10.5470 O   0  0  0  0  0  0  0  0  0  0  0  0
   19.2850   61.7360   -9.5540 C   0  0  0  0  0  0  0  0  0  0  0  0
   18.7540   62.8610   -9.0840 C   0  0  0  0  0  0  0  0  0  0  0  0
   17.3500   64.6430  -10.1330 C   0  0  0  0  0  0  0  0  0  0  0  0
   16.2800   64.1660   -9.4250 O   0  0  0  0  0  0  0  0  0  0  0  0
   15.2270   63.9850  -10.2860 C   0  0  0  0  0  0  0  0  0  0  0  0
   15.7080   64.4020  -11.6370 C   0  0  0  0  0  0  0  0  0  0  0  0
   16.8930   65.0770  -11.3640 O   0  0  0  0  0  0  0  0  0  0  0  0
   21.7320   64.4020   -4.7830 H   0  0  0  0  0  0  0  0  0  0  0  0
   20.5550   64.4040   -6.9480 H   0  0  0  0  0  0  0  0  0  0  0  0
   24.0230   63.0180   -8.9660 H   0  0  0  0  0  0  0  0  0  0  0  0
   25.2530   63.0020   -6.7970 H   0  0  0  0  0  0  0  0  0  0  0  0
   19.6250   65.0060  -11.5540 H   0  0  0  0  0  0  0  0  0  0  0  0
   19.4440   61.0440  -11.6110 H   0  0  0  0  0  0  0  0  0  0  0  0
   20.7380   63.0760  -12.3200 H   0  0  0  0  0  0  0  0  0  0  0  0
   19.5970   60.8300   -9.0520 H   0  0  0  0  0  0  0  0  0  0  0  0
   18.6190   63.0300   -8.0210 H   0  0  0  0  0  0  0  0  0  0  0  0
   17.7470   65.5500   -9.6030 H   0  0  0  0  0  0  0  0  0  0  0  0
   14.3260   64.5670  -10.0100 H   0  0  0  0  0  0  0  0  0  0  0  0
   15.0000   62.8880  -10.3200 H   0  0  0  0  0  0  0  0  0  0  0  0
   14.9610   65.0890  -12.1320 H   0  0  0  0  0  0  0  0  0  0  0  0
   15.9310   63.5380  -12.3130 H   0  0  0  0  0  0  0  0  0  0  0  0
  2  1  1  0  0  0  0
  3  2  1  0  0  0  0
  3 25  1  0  0  0  0
  4  3  2  0  0  0  0
  5  6  2  0  0  0  0
  5  4  1  0  0  0  0
  6  7  1  0  0  0  0
  7 28  1  0  0  0  0
  7  2  2  0  0  0  0
  8  5  1  0  0  0  0
  9  8  1  0  0  0  0
  9 10  2  0  0  0  0
 11 29  1  6  0  0  0
 11 12  1  0  0  0  0
 11  9  1  0  0  0  0
 12 20  1  1  0  0  0
 12 19  1  0  0  0  0
 13 14  1  0  0  0  0
 13 12  1  0  0  0  0
 14 30  1  6  0  0  0
 14 18  1  0  0  0  0
 15 31  1  6  0  0  0
 15 14  1  0  0  0  0
 15 11  1  0  0  0  0
 15 16  1  0  0  0  0
 16  8  1  0  0  0  0
 17 16  2  0  0  0  0
 18 19  2  0  0  0  0
 18 32  1  0  0  0  0
 19 33  1  0  0  0  0
 20 34  1  0  0  0  0
 20 21  1  0  0  0  0
 22 35  1  0  0  0  0
 22 21  1  0  0  0  0
 23 24  1  0  0  0  0
 23 22  1  0  0  0  0
 24 20  1  0  0  0  0
 26  4  1  0  0  0  0
 27  6  1  0  0  0  0
 36 22  1  0  0  0  0
 37 23  1  0  0  0  0
 38 23  1  0  0  0  0
M  END
>  <Pose>
1

>  <Score>
-5.15

$$$$
