
 OpenBabel03202210193D

 47 50  0  0  1  0  0  0  0  0999 V2000
   26.0250   63.6170   -7.4060 Cl  0  0  0  0  0  0  0  0  0  0  0  0
   25.4550   63.2340   -5.7980 C   0  0  0  0  0  0  0  0  0  0  0  0
   24.1340   63.4870   -5.4990 C   0  0  0  0  0  0  0  0  0  0  0  0
   23.6890   63.1840   -4.2310 C   0  0  0  0  0  0  0  0  0  0  0  0
   24.5350   62.6400   -3.2740 C   0  0  0  0  0  0  0  0  0  0  0  0
   25.8590   62.3830   -3.5640 C   0  0  0  0  0  0  0  0  0  0  0  0
   26.3040   62.6860   -4.8330 C   0  0  0  0  0  0  0  0  0  0  0  0
   22.0030   63.5060   -3.8440 Cl  0  0  0  0  0  0  0  0  0  0  0  0
   23.2240   64.0620   -6.4950 C   0  0  0  0  0  0  0  0  0  0  0  0
   22.0000   63.6930   -6.5960 N   0  0  0  0  0  0  0  0  0  0  0  0
   21.2000   64.2910   -7.5720 N   0  0  0  0  0  0  0  0  0  0  0  0
   21.3110   63.9610   -8.9490 C   0  0  0  0  0  0  0  0  0  0  0  0
   20.3230   63.4790   -9.7180 N   0  0  0  0  0  0  0  0  0  0  0  0
   20.8530   63.3090  -10.9420 C   0  0  0  0  0  0  0  0  0  0  0  0
   20.3440   62.8580  -12.1130 N   0  0  0  0  0  0  0  0  0  0  0  0
   21.0940   62.7780  -13.2300 C   0  0  0  0  0  0  0  0  0  0  0  0
   22.3910   63.1520  -13.2030 N   0  0  0  0  0  0  0  0  0  0  0  0
   22.9690   63.6110  -12.0770 C   0  0  0  0  0  0  0  0  0  0  0  0
   22.1800   63.6840  -10.9460 C   0  0  0  0  0  0  0  0  0  0  0  0
   22.4430   64.0900   -9.6820 N   0  0  0  0  0  0  0  0  0  0  0  0
   24.3300   63.9960  -12.0800 N   0  0  0  0  0  0  0  0  0  0  0  0
   18.9590   63.1780   -9.3930 C   0  0  1  0  0  0  0  0  0  0  0  0
   18.0830   64.1980   -9.7540 O   0  0  0  0  0  0  0  0  0  0  0  0
   16.8520   63.5500   -9.6550 C   0  0  2  0  0  0  0  0  0  0  0  0
   17.0850   62.3480  -10.5580 C   0  0  1  0  0  0  0  0  0  0  0  0
   18.4790   61.9390  -10.1280 C   0  0  2  0  0  0  0  0  0  0  0  0
   18.3360   60.8550   -9.2590 O   0  0  0  0  0  0  0  0  0  0  0  0
   16.1560   61.3430  -10.3310 O   0  0  0  0  0  0  0  0  0  0  0  0
   15.7080   64.4000  -10.1380 C   0  0  0  0  0  0  0  0  0  0  0  0
   15.7100   64.5850  -11.4990 O   0  0  0  0  0  0  0  0  0  0  0  0
   24.1930   62.3990   -2.2760 H   0  0  0  0  0  0  0  0  0  0  0  0
   26.5540   61.9600   -2.8520 H   0  0  0  0  0  0  0  0  0  0  0  0
   27.3490   62.4920   -5.0870 H   0  0  0  0  0  0  0  0  0  0  0  0
   23.5850   64.8210   -7.1700 H   0  0  0  0  0  0  0  0  0  0  0  0
   20.5080   65.0030   -7.2380 H   0  0  0  0  0  0  0  0  0  0  0  0
   20.6950   62.4180  -14.1690 H   0  0  0  0  0  0  0  0  0  0  0  0
   25.0870   63.3310  -11.8470 H   0  0  0  0  0  0  0  0  0  0  0  0
   24.5760   64.9730  -12.3210 H   0  0  0  0  0  0  0  0  0  0  0  0
   18.8020   62.9980   -8.3060 H   0  0  0  0  0  0  0  0  0  0  0  0
   16.7340   63.1910   -8.6350 H   0  0  0  0  0  0  0  0  0  0  0  0
   17.0910   62.6810  -11.6310 H   0  0  0  0  0  0  0  0  0  0  0  0
   19.1320   61.6940  -10.9880 H   0  0  0  0  0  0  0  0  0  0  0  0
   19.1930   60.4230   -9.0640 H   0  0  0  0  0  0  0  0  0  0  0  0
   16.1000   61.2070   -9.3460 H   0  0  0  0  0  0  0  0  0  0  0  0
   15.7990   65.3840   -9.6290 H   0  0  0  0  0  0  0  0  0  0  0  0
   14.7760   63.9420   -9.7450 H   0  0  0  0  0  0  0  0  0  0  0  0
   16.6190   64.6980  -11.8540 H   0  0  0  0  0  0  0  0  0  0  0  0
  1  2  1  0  0  0  0
  2  3  2  0  0  0  0
  2  7  1  0  0  0  0
  3  4  1  0  0  0  0
  4  8  1  0  0  0  0
  4  5  2  0  0  0  0
  5 31  1  0  0  0  0
  6  5  1  0  0  0  0
  6 32  1  0  0  0  0
  7  6  2  0  0  0  0
  9  3  1  0  0  0  0
 10  9  2  0  0  0  0
 11 35  1  0  0  0  0
 11 10  1  0  0  0  0
 12 11  1  0  0  0  0
 13 22  1  0  0  0  0
 13 12  1  0  0  0  0
 14 13  1  0  0  0  0
 15 14  1  0  0  0  0
 16 17  1  0  0  0  0
 16 15  2  0  0  0  0
 17 18  2  0  0  0  0
 18 19  1  0  0  0  0
 19 14  2  0  0  0  0
 19 20  1  0  0  0  0
 20 12  2  0  0  0  0
 21 18  1  0  0  0  0
 21 37  1  0  0  0  0
 22 39  1  1  0  0  0
 23 24  1  0  0  0  0
 23 22  1  0  0  0  0
 24 40  1  1  0  0  0
 25 41  1  6  0  0  0
 25 28  1  0  0  0  0
 25 26  1  0  0  0  0
 25 24  1  0  0  0  0
 26 42  1  6  0  0  0
 26 22  1  0  0  0  0
 26 27  1  0  0  0  0
 27 43  1  0  0  0  0
 28 44  1  0  0  0  0
 29 46  1  0  0  0  0
 29 24  1  0  0  0  0
 29 45  1  0  0  0  0
 30 29  1  0  0  0  0
 33  7  1  0  0  0  0
 34  9  1  0  0  0  0
 36 16  1  0  0  0  0
 38 21  1  0  0  0  0
 47 30  1  0  0  0  0
M  END
>  <Pose>
1

>  <Score>
-6.77

$$$$
