
 OpenBabel03202210193D

 42 45  0  0  1  0  0  0  0  0999 V2000
   22.5270   65.7810   -7.0220 S   0  0  0  0  0  0  0  0  0  0  0  0
   21.1990   66.2370   -6.5210 O   0  0  0  0  0  0  0  0  0  0  0  0
   23.4280   66.9800   -7.1670 O   0  0  0  0  0  0  0  0  0  0  0  0
   22.3600   65.0670   -8.5790 N   0  0  0  0  0  0  0  0  0  0  0  0
   21.0010   64.7660   -8.9030 C   0  0  0  0  0  0  0  0  0  0  0  0
   20.9550   63.3310   -9.3990 C   0  0  1  0  0  0  0  0  0  0  0  0
   22.1410   62.7200   -8.6830 C   0  0  0  0  0  0  0  0  0  0  0  0
   23.1400   63.8820   -8.7400 C   0  0  0  0  0  0  0  0  0  0  0  0
   19.7730   62.7380   -8.8870 O   0  0  0  0  0  0  0  0  0  0  0  0
   18.5350   62.9390   -9.4750 C   0  0  0  0  0  0  0  0  0  0  0  0
   17.7850   61.8180   -9.6820 N   0  0  0  0  0  0  0  0  0  0  0  0
   16.5790   61.9820  -10.2510 C   0  0  0  0  0  0  0  0  0  0  0  0
   16.0950   63.2200  -10.6200 C   0  0  0  0  0  0  0  0  0  0  0  0
   16.8980   64.3200  -10.3860 C   0  0  0  0  0  0  0  0  0  0  0  0
   18.1100   64.1550   -9.8140 N   0  0  0  0  0  0  0  0  0  0  0  0
   14.5200   63.4190  -11.3610 Cl  0  0  0  0  0  0  0  0  0  0  0  0
   23.2440   64.6730   -5.8750 C   0  0  0  0  0  0  0  0  0  0  0  0
   24.5230   64.1910   -6.0740 C   0  0  0  0  0  0  0  0  0  0  0  0
   25.1360   63.3130   -5.1970 C   0  0  0  0  0  0  0  0  0  0  0  0
   24.4610   62.8860   -4.0680 C   0  0  0  0  0  0  0  0  0  0  0  0
   23.1920   63.3700   -3.8770 C   0  0  0  0  0  0  0  0  0  0  0  0
   22.5780   64.2450   -4.7480 C   0  0  0  0  0  0  0  0  0  0  0  0
   25.1120   62.0080   -3.2170 O   0  0  0  0  0  0  0  0  0  0  0  0
   26.1510   61.1410   -3.6360 C   0  0  0  0  0  0  0  0  0  0  0  0
   26.9590   61.6930   -4.7790 C   0  0  0  0  0  0  0  0  0  0  0  0
   26.4090   62.8260   -5.3850 O   0  0  0  0  0  0  0  0  0  0  0  0
   20.7050   65.4020   -9.7690 H   0  0  0  0  0  0  0  0  0  0  0  0
   20.2860   64.9570   -8.1030 H   0  0  0  0  0  0  0  0  0  0  0  0
   21.0320   63.2760  -10.4910 H   0  0  0  0  0  0  0  0  0  0  0  0
   21.8950   62.4490   -7.6600 H   0  0  0  0  0  0  0  0  0  0  0  0
   22.5650   61.9010   -9.2970 H   0  0  0  0  0  0  0  0  0  0  0  0
   23.8910   63.7370   -7.9280 H   0  0  0  0  0  0  0  0  0  0  0  0
   23.6260   63.8590   -9.7190 H   0  0  0  0  0  0  0  0  0  0  0  0
   15.9360   61.1370  -10.4430 H   0  0  0  0  0  0  0  0  0  0  0  0
   16.5390   65.3200  -10.6690 H   0  0  0  0  0  0  0  0  0  0  0  0
   25.0610   64.5220   -6.9610 H   0  0  0  0  0  0  0  0  0  0  0  0
   22.6730   63.0200   -2.9760 H   0  0  0  0  0  0  0  0  0  0  0  0
   21.5840   64.6090   -4.5770 H   0  0  0  0  0  0  0  0  0  0  0  0
   26.7840   60.9180   -2.7590 H   0  0  0  0  0  0  0  0  0  0  0  0
   25.6460   60.1760   -3.9280 H   0  0  0  0  0  0  0  0  0  0  0  0
   27.9940   61.8790   -4.3900 H   0  0  0  0  0  0  0  0  0  0  0  0
   27.0400   60.8940   -5.5460 H   0  0  0  0  0  0  0  0  0  0  0  0
  1  2  2  0  0  0  0
  1 17  1  0  0  0  0
  3  1  2  0  0  0  0
  4  1  1  0  0  0  0
  5  4  1  0  0  0  0
  5 28  1  0  0  0  0
  6 29  1  6  0  0  0
  6  5  1  0  0  0  0
  6  9  1  0  0  0  0
  6  7  1  0  0  0  0
  7 30  1  0  0  0  0
  8  7  1  0  0  0  0
  8  4  1  0  0  0  0
  8 32  1  0  0  0  0
 10  9  1  0  0  0  0
 11 10  2  0  0  0  0
 12 11  1  0  0  0  0
 13 14  1  0  0  0  0
 13 12  2  0  0  0  0
 14 15  1  0  0  0  0
 15 10  2  0  0  0  0
 16 13  1  0  0  0  0
 17 22  1  0  0  0  0
 18 17  2  0  0  0  0
 18 19  1  0  0  0  0
 19 20  2  0  0  0  0
 20 21  1  0  0  0  0
 20 23  1  0  0  0  0
 21 37  1  0  0  0  0
 22 38  1  0  0  0  0
 22 21  2  0  0  0  0
 24 23  1  0  0  0  0
 24 39  1  0  0  0  0
 25 41  1  0  0  0  0
 25 24  1  0  0  0  0
 26 19  1  0  0  0  0
 26 25  1  0  0  0  0
 27  5  1  0  0  0  0
 31  7  1  0  0  0  0
 33  8  1  0  0  0  0
 34 12  1  0  0  0  0
 35 14  1  0  0  0  0
 36 18  1  0  0  0  0
 40 24  1  0  0  0  0
 42 25  1  0  0  0  0
M  END
>  <Pose>
1

>  <Score>
-6.78

$$$$
