
 OpenBabel03202210193D

 52 55  0  0  0  0  0  0  0  0999 V2000
   20.3940   69.6510   -8.5700 Cl  0  0  0  0  0  0  0  0  0  0  0  0
   21.5150   68.6790   -7.6220 C   0  0  0  0  0  0  0  0  0  0  0  0
   21.2830   67.3740   -7.2880 C   0  0  0  0  0  0  0  0  0  0  0  0
   22.1780   66.6080   -6.5260 C   0  0  0  0  0  0  0  0  0  0  0  0
   23.3260   67.2140   -6.1130 C   0  0  0  0  0  0  0  0  0  0  0  0
   23.5660   68.5380   -6.4500 C   0  0  0  0  0  0  0  0  0  0  0  0
   22.6800   69.2840   -7.2000 C   0  0  0  0  0  0  0  0  0  0  0  0
   21.8160   65.1960   -6.2350 C   0  0  0  0  0  0  0  0  0  0  0  0
   22.9020   64.2740   -6.2000 N   0  0  0  0  0  0  0  0  0  0  0  0
   23.7540   64.1650   -5.1440 C   0  0  0  0  0  0  0  0  0  0  0  0
   24.6860   63.2120   -5.4600 C   0  0  0  0  0  0  0  0  0  0  0  0
   24.3730   62.7810   -6.6820 N   0  0  0  0  0  0  0  0  0  0  0  0
   23.2730   63.4220   -7.1580 C   0  0  0  0  0  0  0  0  0  0  0  0
   22.6590   63.1470   -8.4350 N   0  0  0  0  0  0  0  0  0  0  0  0
   22.3520   64.3100   -9.2350 C   0  0  0  0  0  0  0  0  0  0  0  0
   21.7930   63.9810  -10.5950 C   0  0  0  0  0  0  0  0  0  0  0  0
   22.6010   62.9660  -11.1650 N   0  0  0  0  0  0  0  0  0  0  0  0
   22.5280   61.7440  -10.4350 C   0  0  0  0  0  0  0  0  0  0  0  0
   22.3390   61.8610   -8.9510 C   0  0  0  0  0  0  0  0  0  0  0  0
   23.9300   63.4380  -11.3940 C   0  0  0  0  0  0  0  0  0  0  0  0
   24.3100   63.5110  -12.8350 C   0  0  0  0  0  0  0  0  0  0  0  0
   23.4970   63.5080  -13.7730 O   0  0  0  0  0  0  0  0  0  0  0  0
   25.7200   63.5870  -13.0870 N   0  0  0  0  0  0  0  0  0  0  0  0
   25.6330   62.9170   -4.5530 N   0  0  0  0  0  0  0  0  0  0  0  0
   25.6810   63.5360   -3.3430 C   0  0  0  0  0  0  0  0  0  0  0  0
   26.5730   63.2630   -2.4790 O   0  0  0  0  0  0  0  0  0  0  0  0
   24.7800   64.4730   -3.0040 N   0  0  0  0  0  0  0  0  0  0  0  0
   23.8290   64.7810   -3.8960 C   0  0  0  0  0  0  0  0  0  0  0  0
   23.0040   65.6560   -3.5490 O   0  0  0  0  0  0  0  0  0  0  0  0
   26.6320   61.9200   -4.8380 C   0  0  0  0  0  0  0  0  0  0  0  0
   20.3580   66.9310   -7.6310 H   0  0  0  0  0  0  0  0  0  0  0  0
   24.0550   66.6690   -5.5310 H   0  0  0  0  0  0  0  0  0  0  0  0
   24.4900   69.0150   -6.1150 H   0  0  0  0  0  0  0  0  0  0  0  0
   22.9130   70.3290   -7.4440 H   0  0  0  0  0  0  0  0  0  0  0  0
   21.2660   65.2180   -5.2720 H   0  0  0  0  0  0  0  0  0  0  0  0
   21.0480   64.8740   -6.9820 H   0  0  0  0  0  0  0  0  0  0  0  0
   21.5220   64.8750   -8.6990 H   0  0  0  0  0  0  0  0  0  0  0  0
   23.1990   65.0140   -9.2430 H   0  0  0  0  0  0  0  0  0  0  0  0
   21.8140   64.8990  -11.1990 H   0  0  0  0  0  0  0  0  0  0  0  0
   20.7180   63.6860  -10.5290 H   0  0  0  0  0  0  0  0  0  0  0  0
   23.4760   61.1780  -10.6800 H   0  0  0  0  0  0  0  0  0  0  0  0
   21.6890   61.1490  -10.8890 H   0  0  0  0  0  0  0  0  0  0  0  0
   22.9280   61.0380   -8.4870 H   0  0  0  0  0  0  0  0  0  0  0  0
   21.2660   61.5680   -8.7140 H   0  0  0  0  0  0  0  0  0  0  0  0
   24.0980   64.4800  -11.0030 H   0  0  0  0  0  0  0  0  0  0  0  0
   24.6390   62.7080  -10.9200 H   0  0  0  0  0  0  0  0  0  0  0  0
   26.2200   64.5030  -13.1490 H   0  0  0  0  0  0  0  0  0  0  0  0
   26.2410   62.7210  -13.2080 H   0  0  0  0  0  0  0  0  0  0  0  0
   24.8210   64.9560   -2.0560 H   0  0  0  0  0  0  0  0  0  0  0  0
   26.1920   61.1900   -5.5550 H   0  0  0  0  0  0  0  0  0  0  0  0
   26.9360   61.3810   -3.9270 H   0  0  0  0  0  0  0  0  0  0  0  0
   27.5420   62.4110   -5.2510 H   0  0  0  0  0  0  0  0  0  0  0  0
  1  2  1  0  0  0  0
  2  3  2  0  0  0  0
  2  7  1  0  0  0  0
  3  4  1  0  0  0  0
  4  8  1  0  0  0  0
  4  5  2  0  0  0  0
  5 32  1  0  0  0  0
  6 33  1  0  0  0  0
  6  5  1  0  0  0  0
  7  6  2  0  0  0  0
  8  9  1  0  0  0  0
  8 35  1  0  0  0  0
  9 10  1  0  0  0  0
 10 28  1  0  0  0  0
 11 10  2  0  0  0  0
 11 24  1  0  0  0  0
 12 11  1  0  0  0  0
 13 12  2  0  0  0  0
 13  9  1  0  0  0  0
 14 13  1  0  0  0  0
 15 37  1  0  0  0  0
 15 14  1  0  0  0  0
 16 40  1  0  0  0  0
 16 15  1  0  0  0  0
 17 16  1  0  0  0  0
 17 18  1  0  0  0  0
 18 19  1  0  0  0  0
 19 44  1  0  0  0  0
 19 43  1  0  0  0  0
 19 14  1  0  0  0  0
 20 17  1  0  0  0  0
 20 45  1  0  0  0  0
 20 46  1  0  0  0  0
 21 20  1  0  0  0  0
 22 21  2  0  0  0  0
 23 21  1  0  0  0  0
 24 25  1  0  0  0  0
 25 27  1  0  0  0  0
 25 26  2  0  0  0  0
 27 49  1  0  0  0  0
 28 29  2  0  0  0  0
 28 27  1  0  0  0  0
 30 24  1  0  0  0  0
 30 51  1  0  0  0  0
 31  3  1  0  0  0  0
 34  7  1  0  0  0  0
 36  8  1  0  0  0  0
 38 15  1  0  0  0  0
 39 16  1  0  0  0  0
 41 18  1  0  0  0  0
 42 18  1  0  0  0  0
 47 23  1  0  0  0  0
 48 23  1  0  0  0  0
 50 30  1  0  0  0  0
 52 30  1  0  0  0  0
M  END
>  <Pose>
1

>  <Score>
-5.63

$$$$
