
 OpenBabel03202210193D

 46 49  0  0  0  0  0  0  0  0999 V2000
   15.6480   64.6680  -10.6480 Cl  0  0  0  0  0  0  0  0  0  0  0  0
   16.4800   63.1660  -10.2990 C   0  0  0  0  0  0  0  0  0  0  0  0
   17.7390   63.1210   -9.7360 C   0  0  0  0  0  0  0  0  0  0  0  0
   18.3970   61.9440   -9.4590 C   0  0  0  0  0  0  0  0  0  0  0  0
   17.7910   60.7440   -9.7500 C   0  0  0  0  0  0  0  0  0  0  0  0
   16.5280   60.7690  -10.3150 C   0  0  0  0  0  0  0  0  0  0  0  0
   15.8800   61.9560  -10.5870 C   0  0  0  0  0  0  0  0  0  0  0  0
   19.7460   61.9390   -8.8540 C   0  0  0  0  0  0  0  0  0  0  0  0
   20.4590   63.1780   -9.0640 N   0  0  0  0  0  0  0  0  0  0  0  0
   20.7940   63.8080  -10.3100 C   0  0  0  0  0  0  0  0  0  0  0  0
   20.4970   63.3460  -11.4610 O   0  0  0  0  0  0  0  0  0  0  0  0
   21.5000   65.0170  -10.0440 N   0  0  0  0  0  0  0  0  0  0  0  0
   22.0290   64.8720   -8.7060 C   0  0  0  0  0  0  0  0  0  0  0  0
   23.2690   64.0050   -8.8120 C   0  0  0  0  0  0  0  0  0  0  0  0
   23.5530   63.4990   -7.4020 C   0  0  0  0  0  0  0  0  0  0  0  0
   23.5070   64.6020   -6.4610 N   0  0  0  0  0  0  0  0  0  0  0  0
   23.3560   65.9480   -6.9460 C   0  0  0  0  0  0  0  0  0  0  0  0
   22.3290   66.1320   -8.0140 C   0  0  0  0  0  0  0  0  0  0  0  0
   23.6170   64.3450   -5.0690 C   0  0  0  0  0  0  0  0  0  0  0  0
   22.9510   65.0540   -4.2480 O   0  0  0  0  0  0  0  0  0  0  0  0
   24.4600   63.3040   -4.5090 C   0  0  0  0  0  0  0  0  0  0  0  0
   23.9590   62.2190   -3.8860 N   0  0  0  0  0  0  0  0  0  0  0  0
   24.7990   61.2930   -3.3910 C   0  0  0  0  0  0  0  0  0  0  0  0
   26.1690   61.4060   -3.4940 C   0  0  0  0  0  0  0  0  0  0  0  0
   26.6710   62.4840   -4.1130 N   0  0  0  0  0  0  0  0  0  0  0  0
   25.8260   63.4240   -4.6160 C   0  0  0  0  0  0  0  0  0  0  0  0
   20.9830   64.0410   -8.0590 C   0  0  0  0  0  0  0  0  0  0  0  0
   20.5790   64.0360   -6.8650 O   0  0  0  0  0  0  0  0  0  0  0  0
   18.1970   64.0770   -9.5140 H   0  0  0  0  0  0  0  0  0  0  0  0
   18.2590   59.7750   -9.5550 H   0  0  0  0  0  0  0  0  0  0  0  0
   16.0550   59.8110  -10.5430 H   0  0  0  0  0  0  0  0  0  0  0  0
   14.8910   61.9760  -11.0310 H   0  0  0  0  0  0  0  0  0  0  0  0
   19.6380   61.6730   -7.7930 H   0  0  0  0  0  0  0  0  0  0  0  0
   20.3730   61.1210   -9.3110 H   0  0  0  0  0  0  0  0  0  0  0  0
   21.6150   65.8320  -10.6740 H   0  0  0  0  0  0  0  0  0  0  0  0
   22.9980   63.1580   -9.4760 H   0  0  0  0  0  0  0  0  0  0  0  0
   24.1220   64.5860   -9.2130 H   0  0  0  0  0  0  0  0  0  0  0  0
   24.5240   63.0160   -7.3360 H   0  0  0  0  0  0  0  0  0  0  0  0
   22.7660   62.7500   -7.1870 H   0  0  0  0  0  0  0  0  0  0  0  0
   24.3700   66.2860   -7.2550 H   0  0  0  0  0  0  0  0  0  0  0  0
   23.0640   66.6420   -6.1060 H   0  0  0  0  0  0  0  0  0  0  0  0
   22.7990   66.8270   -8.7760 H   0  0  0  0  0  0  0  0  0  0  0  0
   21.4380   66.6980   -7.6670 H   0  0  0  0  0  0  0  0  0  0  0  0
   24.4020   60.4090   -2.8830 H   0  0  0  0  0  0  0  0  0  0  0  0
   26.7910   60.6300   -3.0760 H   0  0  0  0  0  0  0  0  0  0  0  0
   26.2790   64.2930   -5.1170 H   0  0  0  0  0  0  0  0  0  0  0  0
  1  2  1  0  0  0  0
  2  3  1  0  0  0  0
  3 29  1  0  0  0  0
  3  4  2  0  0  0  0
  4  8  1  0  0  0  0
  5 30  1  0  0  0  0
  5  4  1  0  0  0  0
  6  5  2  0  0  0  0
  7  6  1  0  0  0  0
  7  2  2  0  0  0  0
  8 33  1  0  0  0  0
  9  8  1  0  0  0  0
  9 27  1  0  0  0  0
 10 12  1  0  0  0  0
 10  9  1  0  0  0  0
 11 10  2  0  0  0  0
 12 13  1  0  0  0  0
 13 27  1  0  0  0  0
 13 18  1  0  0  0  0
 14 13  1  0  0  0  0
 14 15  1  0  0  0  0
 15 38  1  0  0  0  0
 15 39  1  0  0  0  0
 15 16  1  0  0  0  0
 16 19  1  0  0  0  0
 17 16  1  0  0  0  0
 17 41  1  0  0  0  0
 18 43  1  0  0  0  0
 18 17  1  0  0  0  0
 19 21  1  0  0  0  0
 19 20  2  0  0  0  0
 21 22  1  0  0  0  0
 22 23  2  0  0  0  0
 23 44  1  0  0  0  0
 24 23  1  0  0  0  0
 24 45  1  0  0  0  0
 25 24  2  0  0  0  0
 26 21  2  0  0  0  0
 26 25  1  0  0  0  0
 27 28  2  0  0  0  0
 31  6  1  0  0  0  0
 32  7  1  0  0  0  0
 34  8  1  0  0  0  0
 35 12  1  0  0  0  0
 36 14  1  0  0  0  0
 37 14  1  0  0  0  0
 40 17  1  0  0  0  0
 42 18  1  0  0  0  0
 46 26  1  0  0  0  0
M  END
>  <Pose>
1

>  <Score>
-7.73

$$$$
