
 OpenBabel03202210193D

 50 53  0  0  1  0  0  0  0  0999 V2000
   27.2020   61.8930   -4.8990 Cl  0  0  0  0  0  0  0  0  0  0  0  0
   25.6390   62.6870   -4.9530 C   0  0  0  0  0  0  0  0  0  0  0  0
   24.6620   62.4450   -3.9980 C   0  0  0  0  0  0  0  0  0  0  0  0
   23.4470   63.1180   -4.1090 C   0  0  0  0  0  0  0  0  0  0  0  0
   23.1950   64.0000   -5.1270 C   0  0  0  0  0  0  0  0  0  0  0  0
   24.1660   64.2450   -6.0820 C   0  0  0  0  0  0  0  0  0  0  0  0
   25.3700   63.5790   -5.9730 C   0  0  0  0  0  0  0  0  0  0  0  0
   21.9110   64.6940   -5.1860 C   0  0  2  0  0  0  0  0  0  0  0  0
   21.5490   65.3560   -6.3780 N   0  0  0  0  0  4  0  0  0  0  0  0
   21.9890   66.6870   -6.3570 C   0  0  0  0  0  0  0  0  0  0  0  0
   21.9150   67.8020   -7.0420 C   0  0  0  0  0  0  0  0  0  0  0  0
   22.5920   69.0250   -6.5970 C   0  0  0  0  0  0  0  0  0  0  0  0
   23.6420   68.9610   -5.5880 C   0  0  0  0  0  0  0  0  0  0  0  0
   23.8620   67.6030   -4.9680 C   0  0  0  0  0  0  0  0  0  0  0  0
   22.7090   66.7840   -5.0960 N   0  0  0  0  0  0  0  0  0  0  0  0
   21.9370   65.9010   -4.2310 C   0  0  2  0  0  0  0  0  0  0  0  0
   22.6220   65.6860   -2.9470 C   0  0  0  0  0  0  0  0  0  0  0  0
   21.4990   64.6090   -7.5500 C   0  0  0  0  0  0  0  0  0  0  0  0
   22.4810   64.8500   -8.4960 C   0  0  0  0  0  0  0  0  0  0  0  0
   22.5380   64.1900   -9.7000 C   0  0  0  0  0  0  0  0  0  0  0  0
   21.5960   63.2170  -10.0520 C   0  0  0  0  0  0  0  0  0  0  0  0
   20.6340   62.9990   -9.0970 C   0  0  0  0  0  0  0  0  0  0  0  0
   20.5840   63.6640   -7.8970 C   0  0  0  0  0  0  0  0  0  0  0  0
   21.6650   62.5560  -11.2630 O   0  0  0  0  0  0  0  0  0  0  0  0
   20.6870   62.8000  -12.2430 C   0  0  0  0  0  0  0  0  0  0  0  0
   20.8700   63.9070   -4.7510 O   0  0  0  0  0  0  0  0  0  0  0  0
   24.8550   61.7550   -3.1960 H   0  0  0  0  0  0  0  0  0  0  0  0
   22.7530   62.8630   -3.3120 H   0  0  0  0  0  0  0  0  0  0  0  0
   23.9420   64.9510   -6.8630 H   0  0  0  0  0  0  0  0  0  0  0  0
   26.0920   63.8050   -6.7460 H   0  0  0  0  0  0  0  0  0  0  0  0
   20.4560   65.5210   -6.2120 H   0  0  0  0  0  0  0  0  0  0  0  0
   21.3070   67.8520   -7.9710 H   0  0  0  0  0  0  0  0  0  0  0  0
   21.7900   69.7550   -6.2930 H   0  0  0  0  0  0  0  0  0  0  0  0
   23.0160   69.4840   -7.5490 H   0  0  0  0  0  0  0  0  0  0  0  0
   23.4380   69.7350   -4.7790 H   0  0  0  0  0  0  0  0  0  0  0  0
   24.6210   69.2810   -6.0220 H   0  0  0  0  0  0  0  0  0  0  0  0
   24.0760   67.7620   -3.8960 H   0  0  0  0  0  0  0  0  0  0  0  0
   24.7750   67.1220   -5.3730 H   0  0  0  0  0  0  0  0  0  0  0  0
   20.9430   66.3030   -4.0850 H   0  0  0  0  0  0  0  0  0  0  0  0
   22.0860   64.9430   -2.3330 H   0  0  0  0  0  0  0  0  0  0  0  0
   23.7130   65.6020   -2.9610 H   0  0  0  0  0  0  0  0  0  0  0  0
   22.4300   66.6470   -2.3720 H   0  0  0  0  0  0  0  0  0  0  0  0
   23.2950   65.5800   -8.3350 H   0  0  0  0  0  0  0  0  0  0  0  0
   23.3110   64.3830  -10.4460 H   0  0  0  0  0  0  0  0  0  0  0  0
   19.8720   62.2410   -9.3400 H   0  0  0  0  0  0  0  0  0  0  0  0
   19.7840   63.3960   -7.2580 H   0  0  0  0  0  0  0  0  0  0  0  0
   20.9140   63.7260  -12.8390 H   0  0  0  0  0  0  0  0  0  0  0  0
   19.6650   62.9170  -11.8650 H   0  0  0  0  0  0  0  0  0  0  0  0
   20.6630   61.9780  -13.0140 H   0  0  0  0  0  0  0  0  0  0  0  0
   20.8370   62.9920   -5.0840 H   0  0  0  0  0  0  0  0  0  0  0  0
  2  1  1  0  0  0  0
  2  3  1  0  0  0  0
  3 27  1  0  0  0  0
  4  3  2  0  0  0  0
  4 28  1  0  0  0  0
  5  4  1  0  0  0  0
  6  7  1  0  0  0  0
  6  5  2  0  0  0  0
  7  2  2  0  0  0  0
  8  5  1  0  0  0  0
  8 26  1  1  0  0  0
  8 16  1  0  0  0  0
  9 10  1  0  0  0  0
  9 31  1  0  0  0  0
  9  8  1  0  0  0  0
 10 15  1  0  0  0  0
 11 12  1  0  0  0  0
 11 10  2  0  0  0  0
 12 33  1  0  0  0  0
 12 13  1  0  0  0  0
 13 14  1  0  0  0  0
 13 35  1  0  0  0  0
 14 37  1  0  0  0  0
 15 14  1  0  0  0  0
 15 16  1  0  0  0  0
 16 39  1  1  0  0  0
 16 17  1  0  0  0  0
 17 42  1  0  0  0  0
 17 40  1  0  0  0  0
 18  9  1  0  0  0  0
 19 43  1  0  0  0  0
 19 18  2  0  0  0  0
 20 19  1  0  0  0  0
 21 20  2  0  0  0  0
 21 22  1  0  0  0  0
 22 23  2  0  0  0  0
 23 18  1  0  0  0  0
 23 46  1  0  0  0  0
 24 21  1  0  0  0  0
 25 48  1  0  0  0  0
 25 24  1  0  0  0  0
 29  6  1  0  0  0  0
 30  7  1  0  0  0  0
 32 11  1  0  0  0  0
 34 12  1  0  0  0  0
 36 13  1  0  0  0  0
 38 14  1  0  0  0  0
 41 17  1  0  0  0  0
 44 20  1  0  0  0  0
 45 22  1  0  0  0  0
 47 25  1  0  0  0  0
 49 25  1  0  0  0  0
 50 26  1  0  0  0  0
M  END
>  <Pose>
1

>  <Score>
-4.76

$$$$
