
 OpenBabel03202210193D

 41 44  0  0  0  0  0  0  0  0999 V2000
   26.7070   62.0790   -1.9360 Cl  0  0  0  0  0  0  0  0  0  0  0  0
   25.7690   62.7080   -3.2950 C   0  0  0  0  0  0  0  0  0  0  0  0
   26.2010   62.5360   -4.5940 C   0  0  0  0  0  0  0  0  0  0  0  0
   25.4240   63.0510   -5.6150 C   0  0  0  0  0  0  0  0  0  0  0  0
   24.2420   63.7250   -5.3890 C   0  0  0  0  0  0  0  0  0  0  0  0
   23.8430   63.8760   -4.0760 C   0  0  0  0  0  0  0  0  0  0  0  0
   24.5930   63.3750   -3.0160 C   0  0  0  0  0  0  0  0  0  0  0  0
   23.4670   64.2400   -6.4490 N   0  0  0  0  0  0  0  0  0  0  0  0
   22.9320   63.5430   -7.4790 C   0  0  0  0  0  0  0  0  0  0  0  0
   23.0610   62.2990   -7.6280 O   0  0  0  0  0  0  0  0  0  0  0  0
   22.2320   64.3790   -8.3330 C   0  0  0  0  0  0  0  0  0  0  0  0
   22.3410   65.5950   -7.8230 C   0  0  0  0  0  0  0  0  0  0  0  0
   21.6580   66.4070   -8.6580 N   0  0  0  0  0  0  0  0  0  0  0  0
   21.1500   65.6710   -9.6560 N   0  0  0  0  0  0  0  0  0  0  0  0
   21.5010   64.4110   -9.4620 N   0  0  0  0  0  0  0  0  0  0  0  0
   21.1660   63.2780  -10.2980 C   0  0  0  0  0  0  0  0  0  0  0  0
   19.7250   62.9280  -10.2520 C   0  0  0  0  0  0  0  0  0  0  0  0
   18.7030   63.8420  -10.3820 C   0  0  0  0  0  0  0  0  0  0  0  0
   17.3630   63.5120  -10.3390 C   0  0  0  0  0  0  0  0  0  0  0  0
   17.0120   62.1960  -10.1560 C   0  0  0  0  0  0  0  0  0  0  0  0
   18.0000   61.2490  -10.0210 C   0  0  0  0  0  0  0  0  0  0  0  0
   19.3370   61.6080  -10.0680 C   0  0  0  0  0  0  0  0  0  0  0  0
   16.4030   64.5210  -10.4820 O   0  0  0  0  0  0  0  0  0  0  0  0
   15.0580   64.2220  -10.7990 C   0  0  0  0  0  0  0  0  0  0  0  0
   23.0960   65.5130   -6.6710 C   0  0  0  0  0  0  0  0  0  0  0  0
   23.3780   66.5000   -5.9560 O   0  0  0  0  0  0  0  0  0  0  0  0
   27.1250   62.0090   -4.7670 H   0  0  0  0  0  0  0  0  0  0  0  0
   25.7460   62.9250   -6.6350 H   0  0  0  0  0  0  0  0  0  0  0  0
   22.9120   64.4090   -3.9190 H   0  0  0  0  0  0  0  0  0  0  0  0
   24.2330   63.5220   -1.9950 H   0  0  0  0  0  0  0  0  0  0  0  0
   21.5510   67.4310   -8.5390 H   0  0  0  0  0  0  0  0  0  0  0  0
   20.5740   65.9910  -10.4630 H   0  0  0  0  0  0  0  0  0  0  0  0
   21.4580   63.4770  -11.3470 H   0  0  0  0  0  0  0  0  0  0  0  0
   21.7340   62.3920   -9.8870 H   0  0  0  0  0  0  0  0  0  0  0  0
   18.9610   64.9040  -10.5290 H   0  0  0  0  0  0  0  0  0  0  0  0
   15.9520   61.9060  -10.1180 H   0  0  0  0  0  0  0  0  0  0  0  0
   17.7190   60.2160   -9.8770 H   0  0  0  0  0  0  0  0  0  0  0  0
   20.1070   60.8580   -9.9620 H   0  0  0  0  0  0  0  0  0  0  0  0
   14.9350   63.9390  -11.8700 H   0  0  0  0  0  0  0  0  0  0  0  0
   14.4330   65.1130  -10.6300 H   0  0  0  0  0  0  0  0  0  0  0  0
   14.7120   63.3460  -10.1960 H   0  0  0  0  0  0  0  0  0  0  0  0
  2  7  1  0  0  0  0
  2  1  1  0  0  0  0
  3  2  2  0  0  0  0
  4  5  2  0  0  0  0
  4  3  1  0  0  0  0
  5  6  1  0  0  0  0
  6 29  1  0  0  0  0
  6  7  2  0  0  0  0
  7 30  1  0  0  0  0
  8  5  1  0  0  0  0
  9  8  1  0  0  0  0
 10  9  2  0  0  0  0
 11 12  2  0  0  0  0
 11  9  1  0  0  0  0
 12 25  1  0  0  0  0
 13 31  1  0  0  0  0
 13 12  1  0  0  0  0
 14 15  1  0  0  0  0
 14 13  1  0  0  0  0
 15 11  1  0  0  0  0
 16 17  1  0  0  0  0
 16 34  1  0  0  0  0
 16 15  1  0  0  0  0
 17 22  1  0  0  0  0
 18 19  1  0  0  0  0
 18 17  2  0  0  0  0
 19 20  2  0  0  0  0
 20 36  1  0  0  0  0
 20 21  1  0  0  0  0
 21 37  1  0  0  0  0
 22 21  2  0  0  0  0
 22 38  1  0  0  0  0
 23 19  1  0  0  0  0
 24 40  1  0  0  0  0
 24 23  1  0  0  0  0
 24 41  1  0  0  0  0
 25  8  1  0  0  0  0
 25 26  2  0  0  0  0
 27  3  1  0  0  0  0
 28  4  1  0  0  0  0
 32 14  1  0  0  0  0
 33 16  1  0  0  0  0
 35 18  1  0  0  0  0
 39 24  1  0  0  0  0
M  END
>  <Pose>
1

>  <Score>
-7.72

$$$$
