
 OpenBabel03202210193D

 55 58  0  0  1  0  0  0  0  0999 V2000
   28.2550   61.2620   -0.1040 Cl  0  0  0  0  0  0  0  0  0  0  0  0
   27.0790   61.6180   -1.3970 C   0  0  0  0  0  0  0  0  0  0  0  0
   26.8040   62.9120   -1.7660 C   0  0  0  0  0  0  0  0  0  0  0  0
   25.8900   63.1870   -2.7830 C   0  0  0  0  0  0  0  0  0  0  0  0
   25.2160   62.1700   -3.4720 C   0  0  0  0  0  0  0  0  0  0  0  0
   25.5180   60.8890   -3.0760 C   0  0  0  0  0  0  0  0  0  0  0  0
   26.4200   60.6020   -2.0700 C   0  0  0  0  0  0  0  0  0  0  0  0
   24.3140   62.5670   -4.5380 C   0  0  2  0  0  0  0  0  0  0  0  0
   25.1030   63.0880   -5.7370 C   0  0  0  0  0  0  0  0  0  0  0  0
   24.0730   63.1570   -6.8450 C   0  0  0  0  0  0  0  0  0  0  0  0
   23.1190   64.1730   -6.5690 N   0  0  0  0  0  0  0  0  0  0  0  0
   22.3850   64.0400   -5.2840 C   0  0  0  0  0  0  0  0  0  0  0  0
   23.2100   63.4870   -4.1720 C   0  0  0  0  0  0  0  0  0  0  0  0
   22.8280   65.2680   -7.3720 C   0  0  0  0  0  0  0  0  0  0  0  0
   23.7160   66.2290   -7.3730 O   0  0  0  0  0  0  0  0  0  0  0  0
   21.6750   65.5590   -8.2370 C   0  0  0  0  0  0  0  0  0  0  0  0
   21.6540   64.9950   -9.5140 N   0  0  0  0  0  0  0  0  0  0  0  0
   21.0940   63.7220   -9.8410 C   0  0  0  0  0  0  0  0  0  0  0  0
   21.9130   62.7650   -9.8400 O   0  0  0  0  0  0  0  0  0  0  0  0
   19.6960   63.5770  -10.1380 C   0  0  0  0  0  0  0  0  0  0  0  0
   18.9230   62.5420  -10.1110 C   0  0  0  0  0  0  0  0  0  0  0  0
   19.3750   61.2340   -9.7550 N   0  0  0  0  0  0  0  0  0  0  0  0
   18.5040   60.1250   -9.7120 N   0  0  0  0  0  0  0  0  0  0  0  0
   17.1360   60.2640  -10.0210 C   0  0  0  0  0  0  0  0  0  0  0  0
   16.3890   59.2440   -9.9670 O   0  0  0  0  0  0  0  0  0  0  0  0
   16.6340   61.5740  -10.3870 C   0  0  0  0  0  0  0  0  0  0  0  0
   17.4780   62.6610  -10.4310 C   0  0  0  0  0  0  0  0  0  0  0  0
   16.9240   63.8650  -10.7580 C   0  0  0  0  0  0  0  0  0  0  0  0
   15.5620   64.0250  -11.0390 C   0  0  0  0  0  0  0  0  0  0  0  0
   14.7650   62.9140  -10.9820 C   0  0  0  0  0  0  0  0  0  0  0  0
   15.2840   61.6640  -10.6540 C   0  0  0  0  0  0  0  0  0  0  0  0
   23.7040   61.3750   -5.0440 O   0  0  0  0  0  0  0  0  0  0  0  0
   27.3230   63.7130   -1.2390 H   0  0  0  0  0  0  0  0  0  0  0  0
   25.7190   64.2190   -3.0200 H   0  0  0  0  0  0  0  0  0  0  0  0
   25.0040   60.0930   -3.6050 H   0  0  0  0  0  0  0  0  0  0  0  0
   26.6330   59.5680   -1.7890 H   0  0  0  0  0  0  0  0  0  0  0  0
   25.5960   64.0360   -5.5380 H   0  0  0  0  0  0  0  0  0  0  0  0
   25.8750   62.3550   -5.9880 H   0  0  0  0  0  0  0  0  0  0  0  0
   23.4650   62.1740   -6.6960 H   0  0  0  0  0  0  0  0  0  0  0  0
   24.5200   63.0540   -7.8080 H   0  0  0  0  0  0  0  0  0  0  0  0
   21.9010   65.0150   -5.0150 H   0  0  0  0  0  0  0  0  0  0  0  0
   21.5510   63.3410   -5.5040 H   0  0  0  0  0  0  0  0  0  0  0  0
   23.5170   64.3430   -3.5230 H   0  0  0  0  0  0  0  0  0  0  0  0
   22.4800   62.9290   -3.4940 H   0  0  0  0  0  0  0  0  0  0  0  0
   20.7640   65.2570   -7.6110 H   0  0  0  0  0  0  0  0  0  0  0  0
   21.5210   66.6980   -8.3080 H   0  0  0  0  0  0  0  0  0  0  0  0
   22.0010   65.5290  -10.3560 H   0  0  0  0  0  0  0  0  0  0  0  0
   19.2150   64.5380  -10.4450 H   0  0  0  0  0  0  0  0  0  0  0  0
   20.3800   61.0590   -9.5140 H   0  0  0  0  0  0  0  0  0  0  0  0
   18.8650   59.1800   -9.4420 H   0  0  0  0  0  0  0  0  0  0  0  0
   17.5080   64.7460  -10.8100 H   0  0  0  0  0  0  0  0  0  0  0  0
   15.1800   65.0090  -11.2940 H   0  0  0  0  0  0  0  0  0  0  0  0
   13.7030   63.0580  -11.1960 H   0  0  0  0  0  0  0  0  0  0  0  0
   14.6030   60.8230  -10.6240 H   0  0  0  0  0  0  0  0  0  0  0  0
   23.2310   61.6360   -5.8730 H   0  0  0  0  0  0  0  0  0  0  0  0
  2  1  1  0  0  0  0
  3  2  1  0  0  0  0
  3 33  1  0  0  0  0
  4  3  2  0  0  0  0
  5  6  2  0  0  0  0
  5  4  1  0  0  0  0
  6  7  1  0  0  0  0
  7 36  1  0  0  0  0
  7  2  2  0  0  0  0
  8 32  1  6  0  0  0
  8 13  1  0  0  0  0
  8  5  1  0  0  0  0
  9 37  1  0  0  0  0
  9  8  1  0  0  0  0
 10 39  1  0  0  0  0
 10 11  1  0  0  0  0
 10  9  1  0  0  0  0
 11 12  1  0  0  0  0
 12 41  1  0  0  0  0
 12 13  1  0  0  0  0
 13 43  1  0  0  0  0
 13 44  1  0  0  0  0
 14 11  1  0  0  0  0
 15 14  2  0  0  0  0
 16 45  1  0  0  0  0
 16 14  1  0  0  0  0
 17 16  1  0  0  0  0
 18 19  2  0  0  0  0
 18 17  1  0  0  0  0
 20 21  2  0  0  0  0
 20 18  1  0  0  0  0
 21 22  1  0  0  0  0
 22 23  1  0  0  0  0
 22 49  1  0  0  0  0
 23 50  1  0  0  0  0
 24 25  2  0  0  0  0
 24 23  1  0  0  0  0
 26 24  1  0  0  0  0
 27 26  1  0  0  0  0
 27 21  1  0  0  0  0
 28 27  2  0  0  0  0
 29 30  2  0  0  0  0
 29 28  1  0  0  0  0
 30 31  1  0  0  0  0
 31 54  1  0  0  0  0
 31 26  2  0  0  0  0
 34  4  1  0  0  0  0
 35  6  1  0  0  0  0
 38  9  1  0  0  0  0
 40 10  1  0  0  0  0
 42 12  1  0  0  0  0
 46 16  1  0  0  0  0
 47 17  1  0  0  0  0
 48 20  1  0  0  0  0
 51 28  1  0  0  0  0
 52 29  1  0  0  0  0
 53 30  1  0  0  0  0
 55 32  1  0  0  0  0
M  END
>  <Pose>
1

>  <Score>
-7.87

$$$$
