
 OpenBabel03202210193D

 39 42  0  0  0  0  0  0  0  0999 V2000
   25.4770   63.2020   -3.1410 Cl  0  0  0  0  0  0  0  0  0  0  0  0
   24.4670   63.3320   -4.5700 C   0  0  0  0  0  0  0  0  0  0  0  0
   24.9230   62.9230   -5.8100 C   0  0  0  0  0  0  0  0  0  0  0  0
   24.1130   63.0340   -6.9240 C   0  0  0  0  0  0  0  0  0  0  0  0
   22.8390   63.5470   -6.8560 C   0  0  0  0  0  0  0  0  0  0  0  0
   22.3790   63.9580   -5.6210 C   0  0  0  0  0  0  0  0  0  0  0  0
   23.1820   63.8510   -4.4970 C   0  0  0  0  0  0  0  0  0  0  0  0
   21.9940   63.6600   -8.0360 C   0  0  0  0  0  0  0  0  0  0  0  0
   21.3820   64.7780   -8.4550 N   0  0  0  0  0  0  0  0  0  0  0  0
   20.7050   64.5410   -9.5380 O   0  0  0  0  0  0  0  0  0  0  0  0
   20.8480   63.2790   -9.8610 C   0  0  0  0  0  0  0  0  0  0  0  0
   21.6560   62.7140   -8.9250 N   0  0  0  0  0  0  0  0  0  0  0  0
   20.2240   62.6410  -11.0370 C   0  0  0  0  0  0  0  0  0  0  0  0
   18.7760   62.5500  -10.8430 N   0  0  0  0  0  0  0  0  0  0  0  0
   18.2340   61.3380  -10.6000 C   0  0  0  0  0  0  0  0  0  0  0  0
   16.8830   61.1970  -10.4100 C   0  0  0  0  0  0  0  0  0  0  0  0
   16.0230   62.3830  -10.4750 C   0  0  0  0  0  0  0  0  0  0  0  0
   14.7610   61.9540  -10.2560 N   0  0  0  0  0  0  0  0  0  0  0  0
   14.7700   60.6500  -10.0670 N   0  0  0  0  0  0  0  0  0  0  0  0
   16.0090   60.1430  -10.1480 C   0  0  0  0  0  0  0  0  0  0  0  0
   16.3600   58.9470  -10.0170 O   0  0  0  0  0  0  0  0  0  0  0  0
   16.6210   63.6000  -10.7270 C   0  0  0  0  0  0  0  0  0  0  0  0
   17.9770   63.6140  -10.8980 C   0  0  0  0  0  0  0  0  0  0  0  0
   15.7960   64.8050  -10.7990 C   0  0  0  0  0  0  0  0  0  0  0  0
   15.8330   65.6530   -9.8970 O   0  0  0  0  0  0  0  0  0  0  0  0
   14.9520   65.0290  -11.8740 O   0  0  0  0  0  0  0  0  0  0  0  0
   13.7970   64.2670  -12.1320 C   0  0  0  0  0  0  0  0  0  0  0  0
   25.9300   62.5130   -5.8870 H   0  0  0  0  0  0  0  0  0  0  0  0
   24.4730   62.7120   -7.8920 H   0  0  0  0  0  0  0  0  0  0  0  0
   21.3730   64.3630   -5.5620 H   0  0  0  0  0  0  0  0  0  0  0  0
   22.8280   64.1700   -3.5310 H   0  0  0  0  0  0  0  0  0  0  0  0
   20.3910   63.2890  -11.9130 H   0  0  0  0  0  0  0  0  0  0  0  0
   20.6130   61.6070  -11.1980 H   0  0  0  0  0  0  0  0  0  0  0  0
   18.8620   60.4620  -10.5490 H   0  0  0  0  0  0  0  0  0  0  0  0
   13.9200   60.0870   -9.8790 H   0  0  0  0  0  0  0  0  0  0  0  0
   18.4350   64.5840  -11.0970 H   0  0  0  0  0  0  0  0  0  0  0  0
   13.6800   63.4120  -11.4530 H   0  0  0  0  0  0  0  0  0  0  0  0
   12.8630   64.8920  -12.0290 H   0  0  0  0  0  0  0  0  0  0  0  0
   13.8280   63.9860  -13.2050 H   0  0  0  0  0  0  0  0  0  0  0  0
  2  7  1  0  0  0  0
  2  1  1  0  0  0  0
  3  2  2  0  0  0  0
  4  5  2  0  0  0  0
  4  3  1  0  0  0  0
  5  6  1  0  0  0  0
  6 30  1  0  0  0  0
  6  7  2  0  0  0  0
  7 31  1  0  0  0  0
  8  5  1  0  0  0  0
  9  8  2  0  0  0  0
 10  9  1  0  0  0  0
 11 10  1  0  0  0  0
 11 12  2  0  0  0  0
 12  8  1  0  0  0  0
 13 14  1  0  0  0  0
 13 11  1  0  0  0  0
 14 15  1  0  0  0  0
 15 34  1  0  0  0  0
 15 16  1  0  0  0  0
 16 20  1  0  0  0  0
 17 16  2  0  0  0  0
 17 18  1  0  0  0  0
 18 19  1  0  0  0  0
 19 35  1  0  0  0  0
 20 19  1  0  0  0  0
 20 21  2  0  0  0  0
 22 17  1  0  0  0  0
 23 14  1  0  0  0  0
 23 22  2  0  0  0  0
 24 22  1  0  0  0  0
 24 25  2  0  0  0  0
 26 24  1  0  0  0  0
 27 38  1  0  0  0  0
 27 26  1  0  0  0  0
 27 37  1  0  0  0  0
 28  3  1  0  0  0  0
 29  4  1  0  0  0  0
 32 13  1  0  0  0  0
 33 13  1  0  0  0  0
 36 23  1  0  0  0  0
 39 27  1  0  0  0  0
M  END
>  <Pose>
1

>  <Score>
-8.04

$$$$
