
 OpenBabel03202210193D

 58 61  0  0  1  0  0  0  0  0999 V2000
   21.8260   72.9710   -7.5550 Cl  0  0  0  0  0  0  0  0  0  0  0  0
   22.3580   71.3810   -7.0310 C   0  0  0  0  0  0  0  0  0  0  0  0
   21.6020   70.2480   -7.1980 C   0  0  0  0  0  0  0  0  0  0  0  0
   22.0280   68.9970   -6.7820 C   0  0  0  0  0  0  0  0  0  0  0  0
   21.5240   67.7520   -6.8090 N   0  0  0  0  0  0  0  0  0  0  0  0
   22.3770   66.8740   -6.2530 C   0  0  0  0  0  0  0  0  0  0  0  0
   23.4520   67.6210   -5.8690 N   0  0  0  0  0  0  0  0  0  0  0  0
   23.2650   68.9090   -6.1780 C   0  0  0  0  0  0  0  0  0  0  0  0
   24.0580   70.0220   -5.9900 C   0  0  0  0  0  0  0  0  0  0  0  0
   23.5890   71.2580   -6.4230 C   0  0  0  0  0  0  0  0  0  0  0  0
   24.6140   67.0230   -5.2140 C   0  0  0  0  0  0  0  0  0  0  0  0
   22.2300   65.4080   -6.0740 C   0  0  0  0  0  0  0  0  0  0  0  0
   23.3980   64.6180   -6.5660 C   0  0  0  0  0  0  0  0  0  0  0  0
   23.0230   63.5090   -7.4760 C   0  0  0  0  0  0  0  0  0  0  0  0
   23.2000   62.3230   -7.0950 O   0  0  0  0  0  0  0  0  0  0  0  0
   22.4790   63.7550   -8.7500 N   0  0  0  0  0  0  0  0  0  0  0  0
   21.0440   63.9460   -8.9680 C   0  0  0  0  0  0  0  0  0  0  0  0
   20.6090   62.7740   -9.8250 C   0  0  2  0  0  0  0  0  0  0  0  0
   21.4310   62.6970  -11.0910 C   0  0  1  0  0  0  0  0  0  0  0  0
   22.3970   63.8850  -11.1730 C   0  0  0  0  0  0  0  0  0  0  0  0
   23.2950   63.8410   -9.9480 C   0  0  0  0  0  0  0  0  0  0  0  0
   22.2760   61.5610  -11.1070 O   0  0  0  0  0  0  0  0  0  0  0  0
   20.6090   62.6190  -12.3420 C   0  0  0  0  0  0  0  0  0  0  0  0
   19.2060   62.6750  -10.0220 N   0  0  0  0  0  0  0  0  0  0  0  0
   18.4150   63.7850  -10.1030 C   0  0  0  0  0  0  0  0  0  0  0  0
   17.0520   63.6910  -10.2930 C   0  0  0  0  0  0  0  0  0  0  0  0
   16.4670   62.4490  -10.4040 C   0  0  0  0  0  0  0  0  0  0  0  0
   15.2080   62.3190  -10.5810 O   0  0  0  0  0  0  0  0  0  0  0  0
   17.2530   61.3610  -10.3230 N   0  0  0  0  0  0  0  0  0  0  0  0
   18.5960   61.5040  -10.1350 C   0  0  0  0  0  0  0  0  0  0  0  0
   19.2770   60.4560  -10.0670 O   0  0  0  0  0  0  0  0  0  0  0  0
   16.1640   64.8760  -10.3860 C   0  0  0  0  0  0  0  0  0  0  0  0
   20.6320   70.3330   -7.6750 H   0  0  0  0  0  0  0  0  0  0  0  0
   25.0260   69.9510   -5.5170 H   0  0  0  0  0  0  0  0  0  0  0  0
   24.2020   72.1320   -6.2800 H   0  0  0  0  0  0  0  0  0  0  0  0
   25.2060   66.3990   -5.9420 H   0  0  0  0  0  0  0  0  0  0  0  0
   24.3030   66.3200   -4.4090 H   0  0  0  0  0  0  0  0  0  0  0  0
   25.2640   67.8400   -4.8220 H   0  0  0  0  0  0  0  0  0  0  0  0
   21.2680   65.0380   -6.5120 H   0  0  0  0  0  0  0  0  0  0  0  0
   22.1390   65.2250   -4.9830 H   0  0  0  0  0  0  0  0  0  0  0  0
   24.0820   65.3230   -7.1190 H   0  0  0  0  0  0  0  0  0  0  0  0
   23.9520   64.2490   -5.6770 H   0  0  0  0  0  0  0  0  0  0  0  0
   20.9680   64.9250   -9.4830 H   0  0  0  0  0  0  0  0  0  0  0  0
   20.4770   63.9160   -8.0210 H   0  0  0  0  0  0  0  0  0  0  0  0
   20.9230   61.8740   -9.2110 H   0  0  0  0  0  0  0  0  0  0  0  0
   23.0490   63.7200  -12.0540 H   0  0  0  0  0  0  0  0  0  0  0  0
   21.8820   64.8350  -11.3040 H   0  0  0  0  0  0  0  0  0  0  0  0
   23.8590   64.7950   -9.8900 H   0  0  0  0  0  0  0  0  0  0  0  0
   23.9990   63.0010  -10.0410 H   0  0  0  0  0  0  0  0  0  0  0  0
   22.5430   61.4370  -12.0510 H   0  0  0  0  0  0  0  0  0  0  0  0
   21.0840   61.9430  -13.1120 H   0  0  0  0  0  0  0  0  0  0  0  0
   20.5270   63.6100  -12.8700 H   0  0  0  0  0  0  0  0  0  0  0  0
   19.6030   62.2200  -12.1680 H   0  0  0  0  0  0  0  0  0  0  0  0
   18.8830   64.7760  -10.0130 H   0  0  0  0  0  0  0  0  0  0  0  0
   16.8170   60.4240  -10.4070 H   0  0  0  0  0  0  0  0  0  0  0  0
   16.1150   65.1420  -11.4710 H   0  0  0  0  0  0  0  0  0  0  0  0
   15.1270   64.6270  -10.0800 H   0  0  0  0  0  0  0  0  0  0  0  0
   16.5730   65.7120   -9.7810 H   0  0  0  0  0  0  0  0  0  0  0  0
  1  2  1  0  0  0  0
  2 10  1  0  0  0  0
  3  2  2  0  0  0  0
  3  4  1  0  0  0  0
  4  8  2  0  0  0  0
  5  4  1  0  0  0  0
  5  6  2  0  0  0  0
  6 12  1  0  0  0  0
  6  7  1  0  0  0  0
  7 11  1  0  0  0  0
  8  9  1  0  0  0  0
  8  7  1  0  0  0  0
  9 34  1  0  0  0  0
 10 35  1  0  0  0  0
 10  9  2  0  0  0  0
 11 38  1  0  0  0  0
 11 37  1  0  0  0  0
 12 40  1  0  0  0  0
 13 12  1  0  0  0  0
 13 42  1  0  0  0  0
 14 15  2  0  0  0  0
 14 13  1  0  0  0  0
 16 14  1  0  0  0  0
 17 16  1  0  0  0  0
 17 44  1  0  0  0  0
 18 45  1  1  0  0  0
 18 17  1  0  0  0  0
 19 22  1  1  0  0  0
 19 18  1  0  0  0  0
 20 19  1  0  0  0  0
 20 21  1  0  0  0  0
 21 48  1  0  0  0  0
 21 16  1  0  0  0  0
 23 53  1  0  0  0  0
 23 19  1  0  0  0  0
 24 18  1  0  0  0  0
 25 24  1  0  0  0  0
 25 54  1  0  0  0  0
 26 25  2  0  0  0  0
 27 29  1  0  0  0  0
 27 26  1  0  0  0  0
 28 27  2  0  0  0  0
 29 30  1  0  0  0  0
 30 31  2  0  0  0  0
 30 24  1  0  0  0  0
 32 26  1  0  0  0  0
 32 57  1  0  0  0  0
 32 58  1  0  0  0  0
 33  3  1  0  0  0  0
 36 11  1  0  0  0  0
 39 12  1  0  0  0  0
 41 13  1  0  0  0  0
 43 17  1  0  0  0  0
 46 20  1  0  0  0  0
 47 20  1  0  0  0  0
 49 21  1  0  0  0  0
 50 22  1  0  0  0  0
 51 23  1  0  0  0  0
 52 23  1  0  0  0  0
 55 29  1  0  0  0  0
 56 32  1  0  0  0  0
M  END
>  <Pose>
1

>  <Score>
-6.64

$$$$
