
 OpenBabel03202210193D

 42 45  0  0  0  0  0  0  0  0999 V2000
   28.0430   61.7160   -3.7060 Cl  0  0  0  0  0  0  0  0  0  0  0  0
   26.4280   62.3270   -4.0570 C   0  0  0  0  0  0  0  0  0  0  0  0
   26.1550   63.0810   -5.1850 C   0  0  0  0  0  0  0  0  0  0  0  0
   24.9080   63.5780   -5.4960 C   0  0  0  0  0  0  0  0  0  0  0  0
   24.3830   64.3150   -6.4910 N   0  0  0  0  0  0  0  0  0  0  0  0
   23.0680   64.5180   -6.2900 C   0  0  0  0  0  0  0  0  0  0  0  0
   22.7770   63.8900   -5.1390 N   0  0  0  0  0  0  0  0  0  0  0  0
   23.8650   63.2960   -4.6090 C   0  0  0  0  0  0  0  0  0  0  0  0
   24.1210   62.5480   -3.4840 C   0  0  0  0  0  0  0  0  0  0  0  0
   25.3700   62.0620   -3.1920 C   0  0  0  0  0  0  0  0  0  0  0  0
   22.1260   65.2890   -7.1720 C   0  0  0  0  0  0  0  0  0  0  0  0
   22.2590   64.8420   -8.5460 N   0  0  0  0  0  0  0  0  0  0  0  0
   21.9040   63.5450   -8.9630 C   0  0  0  0  0  0  0  0  0  0  0  0
   21.7980   62.6670   -8.0910 O   0  0  0  0  0  0  0  0  0  0  0  0
   21.6580   63.1970  -10.3740 C   0  0  0  0  0  0  0  0  0  0  0  0
   22.3230   64.0490  -11.3830 C   0  0  0  0  0  0  0  0  0  0  0  0
   22.9290   62.7210  -11.1540 C   0  0  0  0  0  0  0  0  0  0  0  0
   20.5130   62.4090  -10.7220 N   0  0  0  0  0  0  0  0  0  0  0  0
   19.7320   62.8770  -11.7970 C   0  0  0  0  0  0  0  0  0  0  0  0
   18.5540   63.6480  -11.2140 C   0  0  0  0  0  0  0  0  0  0  0  0
   17.6960   62.7850  -10.5760 O   0  0  0  0  0  0  0  0  0  0  0  0
   18.2900   61.6780  -10.0210 C   0  0  0  0  0  0  0  0  0  0  0  0
   19.7420   61.9150   -9.6560 C   0  0  0  0  0  0  0  0  0  0  0  0
   26.9780   63.3010   -5.8770 H   0  0  0  0  0  0  0  0  0  0  0  0
   21.8240   63.8650   -4.7120 H   0  0  0  0  0  0  0  0  0  0  0  0
   23.3090   62.3390   -2.8130 H   0  0  0  0  0  0  0  0  0  0  0  0
   25.6040   61.4660   -2.3110 H   0  0  0  0  0  0  0  0  0  0  0  0
   22.3030   66.3560   -7.1130 H   0  0  0  0  0  0  0  0  0  0  0  0
   21.1030   65.0280   -6.8470 H   0  0  0  0  0  0  0  0  0  0  0  0
   22.6380   65.5150   -9.2530 H   0  0  0  0  0  0  0  0  0  0  0  0
   22.9400   64.9210  -11.0880 H   0  0  0  0  0  0  0  0  0  0  0  0
   21.8600   64.2350  -12.3800 H   0  0  0  0  0  0  0  0  0  0  0  0
   23.8460   62.6060  -10.5300 H   0  0  0  0  0  0  0  0  0  0  0  0
   22.8200   61.9690  -11.9230 H   0  0  0  0  0  0  0  0  0  0  0  0
   20.2310   63.4210  -12.5960 H   0  0  0  0  0  0  0  0  0  0  0  0
   19.2630   61.9780  -12.2980 H   0  0  0  0  0  0  0  0  0  0  0  0
   18.9390   64.3960  -10.4970 H   0  0  0  0  0  0  0  0  0  0  0  0
   18.0470   64.1640  -12.0750 H   0  0  0  0  0  0  0  0  0  0  0  0
   17.7550   61.4810   -9.0450 H   0  0  0  0  0  0  0  0  0  0  0  0
   18.1530   60.7490  -10.6130 H   0  0  0  0  0  0  0  0  0  0  0  0
   19.7330   62.5240   -8.7330 H   0  0  0  0  0  0  0  0  0  0  0  0
   20.1370   60.9080   -9.3360 H   0  0  0  0  0  0  0  0  0  0  0  0
  2  1  1  0  0  0  0
  2 10  1  0  0  0  0
  3  2  2  0  0  0  0
  4  3  1  0  0  0  0
  4  8  2  0  0  0  0
  5  6  2  0  0  0  0
  5  4  1  0  0  0  0
  6  7  1  0  0  0  0
  7 25  1  0  0  0  0
  7  8  1  0  0  0  0
  8  9  1  0  0  0  0
  9 10  2  0  0  0  0
  9 26  1  0  0  0  0
 10 27  1  0  0  0  0
 11 28  1  0  0  0  0
 11 29  1  0  0  0  0
 11  6  1  0  0  0  0
 12 11  1  0  0  0  0
 13 12  1  0  0  0  0
 13 14  2  0  0  0  0
 15 13  1  0  0  0  0
 16 17  1  0  0  0  0
 16 31  1  0  0  0  0
 16 15  1  0  0  0  0
 17 33  1  0  0  0  0
 17 15  1  0  0  0  0
 18 15  1  0  0  0  0
 18 23  1  0  0  0  0
 19 20  1  0  0  0  0
 19 18  1  0  0  0  0
 20 21  1  0  0  0  0
 20 37  1  0  0  0  0
 21 22  1  0  0  0  0
 22 23  1  0  0  0  0
 22 39  1  0  0  0  0
 23 42  1  0  0  0  0
 23 41  1  0  0  0  0
 24  3  1  0  0  0  0
 30 12  1  0  0  0  0
 32 16  1  0  0  0  0
 34 17  1  0  0  0  0
 35 19  1  0  0  0  0
 36 19  1  0  0  0  0
 38 20  1  0  0  0  0
 40 22  1  0  0  0  0
M  END
>  <Pose>
1

>  <Score>
-6.63

$$$$
