
 OpenBabel03202210193D

 50 53  0  0  1  0  0  0  0  0999 V2000
   23.4040   70.8670   -6.2810 Cl  0  0  0  0  0  0  0  0  0  0  0  0
   22.8680   69.2140   -6.4490 C   0  0  0  0  0  0  0  0  0  0  0  0
   21.5830   68.8860   -6.8260 C   0  0  0  0  0  0  0  0  0  0  0  0
   21.2250   67.5570   -6.9370 C   0  0  0  0  0  0  0  0  0  0  0  0
   22.1000   66.5290   -6.6880 C   0  0  0  0  0  0  0  0  0  0  0  0
   23.3960   66.8790   -6.3080 C   0  0  0  0  0  0  0  0  0  0  0  0
   23.7590   68.2030   -6.1950 C   0  0  0  0  0  0  0  0  0  0  0  0
   21.7020   65.1040   -6.8000 C   0  0  1  0  0  0  0  0  0  0  0  0
   21.9470   64.6050   -8.1590 N   0  0  0  0  0  0  0  0  0  0  0  0
   23.3530   64.6330   -8.3220 C   0  0  0  0  0  0  0  0  0  0  0  0
   23.9780   64.7820   -9.3990 O   0  0  0  0  0  0  0  0  0  0  0  0
   23.9440   64.4550   -6.9830 C   0  0  0  0  0  0  0  0  0  0  0  0
   25.1580   64.4210   -6.6780 O   0  0  0  0  0  0  0  0  0  0  0  0
   22.8010   64.3310   -6.0900 C   0  0  0  0  0  0  0  0  0  0  0  0
   22.7490   63.6980   -4.9690 C   0  0  0  0  0  0  0  0  0  0  0  0
   21.5730   63.6520   -4.2230 O   0  0  0  0  0  0  0  0  0  0  0  0
   23.9250   63.0100   -4.4450 C   0  0  0  0  0  0  0  0  0  0  0  0
   24.7090   62.1300   -4.9590 O   0  0  0  0  0  0  0  0  0  0  0  0
   25.6440   61.7900   -4.1180 C   0  0  0  0  0  0  0  0  0  0  0  0
   25.4800   62.4920   -2.9510 C   0  0  0  0  0  0  0  0  0  0  0  0
   24.3800   63.2790   -3.1470 C   0  0  0  0  0  0  0  0  0  0  0  0
   20.9330   64.1860   -9.1160 C   0  0  0  0  0  0  0  0  0  0  0  0
   20.3600   62.8280   -8.8520 C   0  0  0  0  0  0  0  0  0  0  0  0
   20.1200   62.0140   -9.9930 N   0  0  0  0  0  4  0  0  0  0  0  0
   18.9380   61.2140   -9.9770 C   0  0  0  0  0  0  0  0  0  0  0  0
   17.6580   62.0190   -9.9500 C   0  0  0  0  0  0  0  0  0  0  0  0
   17.5990   62.8910  -11.0320 O   0  0  0  0  0  0  0  0  0  0  0  0
   18.7530   63.6590  -11.1500 C   0  0  0  0  0  0  0  0  0  0  0  0
   20.0120   62.8350  -11.2170 C   0  0  0  0  0  0  0  0  0  0  0  0
   20.9080   69.7060   -7.0180 H   0  0  0  0  0  0  0  0  0  0  0  0
   20.2100   67.3410   -7.2390 H   0  0  0  0  0  0  0  0  0  0  0  0
   24.0940   66.0540   -6.1070 H   0  0  0  0  0  0  0  0  0  0  0  0
   24.7700   68.4680   -5.8990 H   0  0  0  0  0  0  0  0  0  0  0  0
   20.7120   64.8720   -6.4190 H   0  0  0  0  0  0  0  0  0  0  0  0
   26.4570   61.0670   -4.2560 H   0  0  0  0  0  0  0  0  0  0  0  0
   26.0830   62.4570   -2.0340 H   0  0  0  0  0  0  0  0  0  0  0  0
   23.9550   63.9700   -2.4380 H   0  0  0  0  0  0  0  0  0  0  0  0
   21.3350   64.2420  -10.1570 H   0  0  0  0  0  0  0  0  0  0  0  0
   20.1150   64.9540   -9.0280 H   0  0  0  0  0  0  0  0  0  0  0  0
   20.9380   62.3150   -8.0520 H   0  0  0  0  0  0  0  0  0  0  0  0
   19.3530   63.0120   -8.3780 H   0  0  0  0  0  0  0  0  0  0  0  0
   20.9340   61.3730  -10.1150 H   0  0  0  0  0  0  0  0  0  0  0  0
   18.9170   60.6870  -10.9800 H   0  0  0  0  0  0  0  0  0  0  0  0
   18.9030   60.4200   -9.2390 H   0  0  0  0  0  0  0  0  0  0  0  0
   16.8380   61.2630  -10.1350 H   0  0  0  0  0  0  0  0  0  0  0  0
   17.4390   62.4820   -8.9830 H   0  0  0  0  0  0  0  0  0  0  0  0
   18.8510   64.3910  -10.3170 H   0  0  0  0  0  0  0  0  0  0  0  0
   18.6640   64.2250  -12.1000 H   0  0  0  0  0  0  0  0  0  0  0  0
   19.9200   62.1380  -12.0680 H   0  0  0  0  0  0  0  0  0  0  0  0
   20.8540   63.5440  -11.3070 H   0  0  0  0  0  0  0  0  0  0  0  0
  2  1  1  0  0  0  0
  2  7  1  0  0  0  0
  3  2  2  0  0  0  0
  4  3  1  0  0  0  0
  4  5  2  0  0  0  0
  5  6  1  0  0  0  0
  6  7  2  0  0  0  0
  6 32  1  0  0  0  0
  7 33  1  0  0  0  0
  8  5  1  0  0  0  0
  8 34  1  1  0  0  0
  8 14  1  0  0  0  0
  9  8  1  0  0  0  0
 10  9  1  0  0  0  0
 10 12  1  0  0  0  0
 11 10  2  0  0  0  0
 12 13  2  0  0  0  0
 12 14  1  0  0  0  0
 14 15  2  0  0  0  0
 15 17  1  0  0  0  0
 15 16  1  0  0  0  0
 17 21  2  0  0  0  0
 18 17  1  0  0  0  0
 18 19  1  0  0  0  0
 19 20  2  0  0  0  0
 20 36  1  0  0  0  0
 21 20  1  0  0  0  0
 21 37  1  0  0  0  0
 22 39  1  0  0  0  0
 22 23  1  0  0  0  0
 22  9  1  0  0  0  0
 23 41  1  0  0  0  0
 23 40  1  0  0  0  0
 24 25  1  0  0  0  0
 24 23  1  0  0  0  0
 25 26  1  0  0  0  0
 25 44  1  0  0  0  0
 26 46  1  0  0  0  0
 27 26  1  0  0  0  0
 28 27  1  0  0  0  0
 28 47  1  0  0  0  0
 29 28  1  0  0  0  0
 29 24  1  0  0  0  0
 30  3  1  0  0  0  0
 31  4  1  0  0  0  0
 35 19  1  0  0  0  0
 38 22  1  0  0  0  0
 42 24  1  0  0  0  0
 43 25  1  0  0  0  0
 45 26  1  0  0  0  0
 48 28  1  0  0  0  0
 49 29  1  0  0  0  0
 50 29  1  0  0  0  0
M  END
>  <Pose>
1

>  <Score>
-7.50

$$$$
