
 OpenBabel03202210193D

 47 51  0  0  1  0  0  0  0  0999 V2000
   13.3800   63.9090  -11.6650 Cl  0  0  0  0  0  0  0  0  0  0  0  0
   15.0150   63.7430  -11.0500 C   0  0  0  0  0  0  0  0  0  0  0  0
   15.5350   62.4920  -10.8230 C   0  0  0  0  0  0  0  0  0  0  0  0
   16.8290   62.3730  -10.3280 C   0  0  0  0  0  0  0  0  0  0  0  0
   17.6280   63.4470  -10.0490 C   0  0  0  0  0  0  0  0  0  0  0  0
   17.0810   64.6850  -10.2870 C   0  0  0  0  0  0  0  0  0  0  0  0
   15.7830   64.8350  -10.7840 C   0  0  0  0  0  0  0  0  0  0  0  0
   18.9290   63.3290   -9.5470 N   0  0  0  0  0  0  0  0  0  0  0  0
   19.5780   64.1000   -8.5120 C   0  0  0  0  0  0  0  0  0  0  0  0
   19.0860   65.0550   -7.9030 O   0  0  0  0  0  0  0  0  0  0  0  0
   20.9300   63.5740   -8.2830 C   0  0  2  0  0  0  0  0  0  0  0  0
   22.0300   64.6060   -8.2150 C   0  0  2  0  0  0  0  0  0  0  0  0
   22.5740   64.7580   -9.5430 N   0  0  0  0  0  0  0  0  0  0  0  0
   21.6410   64.1080  -10.4410 C   0  0  2  0  0  0  0  0  0  0  0  0
   21.2210   62.9120   -9.6100 C   0  0  2  0  0  0  0  0  0  0  0  0
   19.9030   62.3660   -9.9810 C   0  0  0  0  0  0  0  0  0  0  0  0
   19.7410   61.2840  -10.5500 O   0  0  0  0  0  0  0  0  0  0  0  0
   22.2930   63.6760  -11.7290 C   0  0  0  0  0  0  0  0  0  0  0  0
   23.6610   63.1900  -11.5760 C   0  0  0  0  0  0  0  0  0  0  0  0
   24.5830   63.6650  -12.2660 O   0  0  0  0  0  0  0  0  0  0  0  0
   23.9480   62.1720  -10.6370 N   0  0  0  0  0  0  0  0  0  0  0  0
   23.0430   64.0260   -7.2660 C   0  0  0  0  0  0  0  0  0  0  0  0
   23.0170   64.7780   -6.1260 C   0  0  0  0  0  0  0  0  0  0  0  0
   23.8100   64.4580   -5.0120 C   0  0  0  0  0  0  0  0  0  0  0  0
   24.6470   63.3620   -5.0500 C   0  0  0  0  0  0  0  0  0  0  0  0
   24.6760   62.6100   -6.1940 C   0  0  0  0  0  0  0  0  0  0  0  0
   23.8890   62.9370   -7.2790 C   0  0  0  0  0  0  0  0  0  0  0  0
   22.1750   65.9080   -6.2800 N   0  0  0  0  0  0  0  0  0  0  0  0
   21.6510   65.8600   -7.5980 C   0  0  0  0  0  0  0  0  0  0  0  0
   20.9770   66.7840   -8.1030 O   0  0  0  0  0  0  0  0  0  0  0  0
   14.9400   61.6010  -11.0290 H   0  0  0  0  0  0  0  0  0  0  0  0
   17.1720   61.3840  -10.1720 H   0  0  0  0  0  0  0  0  0  0  0  0
   17.6090   65.5930  -10.1080 H   0  0  0  0  0  0  0  0  0  0  0  0
   15.3660   65.8260  -10.9670 H   0  0  0  0  0  0  0  0  0  0  0  0
   20.9690   62.8490   -7.4440 H   0  0  0  0  0  0  0  0  0  0  0  0
   22.6470   65.7840   -9.7410 H   0  0  0  0  0  0  0  0  0  0  0  0
   20.7290   64.7240  -10.5970 H   0  0  0  0  0  0  0  0  0  0  0  0
   22.0070   62.1400   -9.5630 H   0  0  0  0  0  0  0  0  0  0  0  0
   22.3200   64.5960  -12.3870 H   0  0  0  0  0  0  0  0  0  0  0  0
   21.6050   62.9670  -12.2360 H   0  0  0  0  0  0  0  0  0  0  0  0
   24.9150   61.8540  -10.3870 H   0  0  0  0  0  0  0  0  0  0  0  0
   23.1920   61.6480  -10.1080 H   0  0  0  0  0  0  0  0  0  0  0  0
   23.7810   65.0590   -4.1110 H   0  0  0  0  0  0  0  0  0  0  0  0
   25.2500   63.1350   -4.1690 H   0  0  0  0  0  0  0  0  0  0  0  0
   25.3220   61.7550   -6.2460 H   0  0  0  0  0  0  0  0  0  0  0  0
   23.9290   62.3310   -8.1790 H   0  0  0  0  0  0  0  0  0  0  0  0
   21.9740   66.6540   -5.5450 H   0  0  0  0  0  0  0  0  0  0  0  0
  1  2  1  0  0  0  0
  2  3  2  0  0  0  0
  2  7  1  0  0  0  0
  3  4  1  0  0  0  0
  4 32  1  0  0  0  0
  4  5  2  0  0  0  0
  5  8  1  0  0  0  0
  6 33  1  0  0  0  0
  6  5  1  0  0  0  0
  7  6  2  0  0  0  0
  8  9  1  0  0  0  0
  9 11  1  0  0  0  0
  9 10  2  0  0  0  0
 11 12  1  0  0  0  0
 11 35  1  1  0  0  0
 12 29  1  1  0  0  0
 12 22  1  0  0  0  0
 13 12  1  0  0  0  0
 14 37  1  6  0  0  0
 14 15  1  0  0  0  0
 14 13  1  0  0  0  0
 15 38  1  1  0  0  0
 15 11  1  0  0  0  0
 16 15  1  0  0  0  0
 16  8  1  0  0  0  0
 17 16  2  0  0  0  0
 18 19  1  0  0  0  0
 18 14  1  0  0  0  0
 19 21  1  0  0  0  0
 20 19  2  0  0  0  0
 21 41  1  0  0  0  0
 21 42  1  0  0  0  0
 22 23  1  0  0  0  0
 23 24  2  0  0  0  0
 24 43  1  0  0  0  0
 25 24  1  0  0  0  0
 25 44  1  0  0  0  0
 26 25  2  0  0  0  0
 27 22  2  0  0  0  0
 27 26  1  0  0  0  0
 28 23  1  0  0  0  0
 28 47  1  0  0  0  0
 29 28  1  0  0  0  0
 30 29  2  0  0  0  0
 31  3  1  0  0  0  0
 34  7  1  0  0  0  0
 36 13  1  0  0  0  0
 39 18  1  0  0  0  0
 40 18  1  0  0  0  0
 45 26  1  0  0  0  0
 46 27  1  0  0  0  0
M  END
>  <Pose>
1

>  <Score>
-8.05

$$$$
