
 OpenBabel03202210193D

 52 55  0  0  0  0  0  0  0  0999 V2000
   13.7810   63.5220  -10.6630 Cl  0  0  0  0  0  0  0  0  0  0  0  0
   15.4850   63.1940  -10.5800 C   0  0  0  0  0  0  0  0  0  0  0  0
   15.9580   61.8830  -10.5150 C   0  0  0  0  0  0  0  0  0  0  0  0
   17.3150   61.6290  -10.4480 C   0  0  0  0  0  0  0  0  0  0  0  0
   18.2400   62.6710  -10.4460 C   0  0  0  0  0  0  0  0  0  0  0  0
   17.7810   63.9570  -10.5100 C   0  0  0  0  0  0  0  0  0  0  0  0
   16.4110   64.2110  -10.5770 C   0  0  0  0  0  0  0  0  0  0  0  0
   19.6910   62.3540  -10.3720 C   0  0  0  0  0  0  0  0  0  0  0  0
   20.4020   62.7880  -11.5900 C   0  0  0  0  0  0  0  0  0  0  0  0
   19.9930   62.3390  -12.6920 O   0  0  0  0  0  0  0  0  0  0  0  0
   21.4970   63.6670  -11.5850 N   0  0  0  0  0  0  0  0  0  0  0  0
   21.3190   65.1020  -11.3030 C   0  0  0  0  0  0  0  0  0  0  0  0
   22.5060   65.5710  -10.4760 C   0  0  0  0  0  0  0  0  0  0  0  0
   22.9870   64.4150   -9.7450 N   0  0  0  0  0  0  0  0  0  0  0  0
   23.6840   63.4210  -10.5440 C   0  0  0  0  0  0  0  0  0  0  0  0
   22.8750   63.2730  -11.8440 C   0  0  0  0  0  0  0  0  0  0  0  0
   22.7750   64.2640   -8.3510 C   0  0  0  0  0  0  0  0  0  0  0  0
   21.5050   64.4120   -7.8230 C   0  0  0  0  0  0  0  0  0  0  0  0
   21.3310   64.2740   -6.4760 N   0  0  0  0  0  0  0  0  0  0  0  0
   22.3220   64.0050   -5.6480 N   0  0  0  0  0  0  0  0  0  0  0  0
   23.6030   63.8450   -6.1020 C   0  0  0  0  0  0  0  0  0  0  0  0
   23.7720   63.9830   -7.4470 C   0  0  0  0  0  0  0  0  0  0  0  0
   24.6170   63.5600   -5.1600 N   0  0  0  0  0  0  0  0  0  0  0  0
   25.7500   62.7260   -5.5130 C   0  0  0  0  0  0  0  0  0  0  0  0
   26.0370   61.7160   -4.4010 C   0  0  0  0  0  0  0  0  0  0  0  0
   26.0440   62.3160   -3.1570 O   0  0  0  0  0  0  0  0  0  0  0  0
   24.7760   62.8240   -2.9190 C   0  0  0  0  0  0  0  0  0  0  0  0
   24.5900   64.0640   -3.8110 C   0  0  0  0  0  0  0  0  0  0  0  0
   15.2460   61.0850  -10.5160 H   0  0  0  0  0  0  0  0  0  0  0  0
   17.7180   60.6190  -10.3950 H   0  0  0  0  0  0  0  0  0  0  0  0
   18.4650   64.8110  -10.5120 H   0  0  0  0  0  0  0  0  0  0  0  0
   16.0810   65.2340  -10.6260 H   0  0  0  0  0  0  0  0  0  0  0  0
   19.7530   61.2290  -10.2950 H   0  0  0  0  0  0  0  0  0  0  0  0
   20.1400   62.7910   -9.4570 H   0  0  0  0  0  0  0  0  0  0  0  0
   20.3680   65.1840  -10.7560 H   0  0  0  0  0  0  0  0  0  0  0  0
   21.2180   65.6710  -12.2500 H   0  0  0  0  0  0  0  0  0  0  0  0
   22.2670   66.4200   -9.8200 H   0  0  0  0  0  0  0  0  0  0  0  0
   23.3220   65.8960  -11.1580 H   0  0  0  0  0  0  0  0  0  0  0  0
   23.8010   62.4500  -10.0630 H   0  0  0  0  0  0  0  0  0  0  0  0
   24.6570   63.8670  -10.8320 H   0  0  0  0  0  0  0  0  0  0  0  0
   22.9780   62.2810  -12.2790 H   0  0  0  0  0  0  0  0  0  0  0  0
   23.2580   64.0010  -12.5980 H   0  0  0  0  0  0  0  0  0  0  0  0
   20.6430   64.6280   -8.4050 H   0  0  0  0  0  0  0  0  0  0  0  0
   24.7620   63.8700   -7.8520 H   0  0  0  0  0  0  0  0  0  0  0  0
   25.5800   62.1450   -6.4420 H   0  0  0  0  0  0  0  0  0  0  0  0
   26.6500   63.3650   -5.5800 H   0  0  0  0  0  0  0  0  0  0  0  0
   27.0220   61.2730   -4.5980 H   0  0  0  0  0  0  0  0  0  0  0  0
   25.3040   60.8910   -4.4110 H   0  0  0  0  0  0  0  0  0  0  0  0
   24.5880   63.0580   -1.8690 H   0  0  0  0  0  0  0  0  0  0  0  0
   24.0330   62.0790   -3.3180 H   0  0  0  0  0  0  0  0  0  0  0  0
   23.7010   64.6050   -3.5130 H   0  0  0  0  0  0  0  0  0  0  0  0
   25.5190   64.6850   -3.6760 H   0  0  0  0  0  0  0  0  0  0  0  0
  1  2  1  0  0  0  0
  2  7  2  0  0  0  0
  2  3  1  0  0  0  0
  3  4  2  0  0  0  0
  4  5  1  0  0  0  0
  4 30  1  0  0  0  0
  5  8  1  0  0  0  0
  6  5  2  0  0  0  0
  7  6  1  0  0  0  0
  8 33  1  0  0  0  0
  8 34  1  0  0  0  0
  9 11  1  0  0  0  0
  9  8  1  0  0  0  0
 10  9  2  0  0  0  0
 11 12  1  0  0  0  0
 12 35  1  0  0  0  0
 12 13  1  0  0  0  0
 13 37  1  0  0  0  0
 13 14  1  0  0  0  0
 14 17  1  0  0  0  0
 15 39  1  0  0  0  0
 15 14  1  0  0  0  0
 16 11  1  0  0  0  0
 16 15  1  0  0  0  0
 17 18  2  0  0  0  0
 17 22  1  0  0  0  0
 18 19  1  0  0  0  0
 19 20  2  0  0  0  0
 21 20  1  0  0  0  0
 21 23  1  0  0  0  0
 22 21  2  0  0  0  0
 23 28  1  0  0  0  0
 24 23  1  0  0  0  0
 24 25  1  0  0  0  0
 25 26  1  0  0  0  0
 26 27  1  0  0  0  0
 27 49  1  0  0  0  0
 28 52  1  0  0  0  0
 28 51  1  0  0  0  0
 28 27  1  0  0  0  0
 29  3  1  0  0  0  0
 31  6  1  0  0  0  0
 32  7  1  0  0  0  0
 36 12  1  0  0  0  0
 38 13  1  0  0  0  0
 40 15  1  0  0  0  0
 41 16  1  0  0  0  0
 42 16  1  0  0  0  0
 43 18  1  0  0  0  0
 44 22  1  0  0  0  0
 45 24  1  0  0  0  0
 46 24  1  0  0  0  0
 47 25  1  0  0  0  0
 48 25  1  0  0  0  0
 50 27  1  0  0  0  0
M  END
>  <Pose>
1

>  <Score>
-6.86

$$$$
