
 OpenBabel03202210193D

 37 40  0  0  0  0  0  0  0  0999 V2000
   19.4930   60.7000   -9.9600 F   0  0  0  0  0  0  0  0  0  0  0  0
   19.1350   61.9970  -10.1310 C   0  0  0  0  0  0  0  0  0  0  0  0
   17.8360   62.3690  -10.3460 N   0  0  0  0  0  0  0  0  0  0  0  0
   17.8670   63.7050  -10.4710 C   0  0  0  0  0  0  0  0  0  0  0  0
   19.1320   64.1360  -10.3370 N   0  0  0  0  0  0  0  0  0  0  0  0
   19.9580   63.0940  -10.1220 C   0  0  0  0  0  0  0  0  0  0  0  0
   21.4310   63.1580   -9.9210 C   0  0  0  0  0  0  0  0  0  0  0  0
   22.0390   63.1940  -11.0600 O   0  0  0  0  0  0  0  0  0  0  0  0
   22.0690   63.1790   -8.7060 N   0  0  0  0  0  0  0  0  0  0  0  0
   22.7040   63.1990   -7.4990 C   0  0  0  0  0  0  0  0  0  0  0  0
   23.0210   64.5680   -6.9520 C   0  0  0  0  0  0  0  0  0  0  0  0
   23.6610   64.8220   -5.8080 N   0  0  0  0  0  0  0  0  0  0  0  0
   23.7490   66.1340   -5.6770 N   0  0  0  0  0  0  0  0  0  0  0  0
   23.1840   66.7280   -6.7060 N   0  0  0  0  0  0  0  0  0  0  0  0
   22.7350   65.7490   -7.4920 N   0  0  0  0  0  0  0  0  0  0  0  0
   24.1430   63.7890   -4.9450 C   0  0  0  0  0  0  0  0  0  0  0  0
   25.3750   63.2130   -5.2380 C   0  0  0  0  0  0  0  0  0  0  0  0
   25.8920   62.1930   -4.4500 C   0  0  0  0  0  0  0  0  0  0  0  0
   25.2010   61.7180   -3.3530 C   0  0  0  0  0  0  0  0  0  0  0  0
   23.9820   62.2950   -3.0680 C   0  0  0  0  0  0  0  0  0  0  0  0
   23.4640   63.3100   -3.8510 C   0  0  0  0  0  0  0  0  0  0  0  0
   16.6720   64.3430  -10.6990 C   0  0  0  0  0  0  0  0  0  0  0  0
   15.4620   63.6540  -10.8010 C   0  0  0  0  0  0  0  0  0  0  0  0
   15.4700   62.2910  -10.6680 C   0  0  0  0  0  0  0  0  0  0  0  0
   16.6930   61.6700  -10.4380 C   0  0  0  0  0  0  0  0  0  0  0  0
   13.9790   61.3570  -10.7800 Cl  0  0  0  0  0  0  0  0  0  0  0  0
   22.9200   64.1510   -9.1540 H   0  0  0  0  0  0  0  0  0  0  0  0
   23.7350   62.6880   -7.5340 H   0  0  0  0  0  0  0  0  0  0  0  0
   22.2200   62.6260   -6.6420 H   0  0  0  0  0  0  0  0  0  0  0  0
   25.9260   63.5740   -6.0910 H   0  0  0  0  0  0  0  0  0  0  0  0
   26.8470   61.7340   -4.6670 H   0  0  0  0  0  0  0  0  0  0  0  0
   25.6070   60.9070   -2.7290 H   0  0  0  0  0  0  0  0  0  0  0  0
   23.4270   61.9190   -2.1950 H   0  0  0  0  0  0  0  0  0  0  0  0
   22.5010   63.7350   -3.5940 H   0  0  0  0  0  0  0  0  0  0  0  0
   16.6150   65.4170  -10.8100 H   0  0  0  0  0  0  0  0  0  0  0  0
   14.5120   64.1730  -10.9860 H   0  0  0  0  0  0  0  0  0  0  0  0
   16.6780   60.5970  -10.3350 H   0  0  0  0  0  0  0  0  0  0  0  0
  2  6  2  0  0  0  0
  2  1  1  0  0  0  0
  3  2  1  0  0  0  0
  4  3  1  0  0  0  0
  4  5  2  0  0  0  0
  5  6  1  0  0  0  0
  6  7  1  0  0  0  0
  7  9  1  0  0  0  0
  8  7  2  0  0  0  0
  9 10  1  0  0  0  0
 10 11  1  0  0  0  0
 10 29  1  0  0  0  0
 11 12  1  0  0  0  0
 12 13  1  0  0  0  0
 12 16  1  0  0  0  0
 14 13  2  0  0  0  0
 15 11  2  0  0  0  0
 15 14  1  0  0  0  0
 16 21  1  0  0  0  0
 17 16  2  0  0  0  0
 17 18  1  0  0  0  0
 18 19  2  0  0  0  0
 19 20  1  0  0  0  0
 19 32  1  0  0  0  0
 20 33  1  0  0  0  0
 21 34  1  0  0  0  0
 21 20  2  0  0  0  0
 22  4  1  0  0  0  0
 23 22  2  0  0  0  0
 23 24  1  0  0  0  0
 24 25  2  0  0  0  0
 25  3  1  0  0  0  0
 25 37  1  0  0  0  0
 26 24  1  0  0  0  0
 27  9  1  0  0  0  0
 28 10  1  0  0  0  0
 30 17  1  0  0  0  0
 31 18  1  0  0  0  0
 35 22  1  0  0  0  0
 36 23  1  0  0  0  0
M  END
>  <Pose>
1

>  <Score>
-8.08

$$$$
