
 OpenBabel03202210193D

 42 45  0  0  0  0  0  0  0  0999 V2000
   27.5760   61.7090   -4.8910 Cl  0  0  0  0  0  0  0  0  0  0  0  0
   26.0480   62.4740   -4.5860 C   0  0  0  0  0  0  0  0  0  0  0  0
   25.2400   63.0200   -5.5750 C   0  0  0  0  0  0  0  0  0  0  0  0
   24.0540   63.5950   -5.2770 C   0  0  0  0  0  0  0  0  0  0  0  0
   23.6910   63.6100   -3.9450 C   0  0  0  0  0  0  0  0  0  0  0  0
   24.4350   63.0930   -2.9390 C   0  0  0  0  0  0  0  0  0  0  0  0
   25.6220   62.5110   -3.2190 C   0  0  0  0  0  0  0  0  0  0  0  0
   23.1590   64.1940   -6.2430 N   0  0  0  0  0  0  0  0  0  0  0  0
   23.0000   65.4990   -6.2970 N   0  0  0  0  0  0  0  0  0  0  0  0
   22.2230   65.6810   -7.1740 N   0  0  0  0  0  0  0  0  0  0  0  0
   21.6000   64.9790   -7.9450 C   0  0  0  0  0  0  0  0  0  0  0  0
   22.3780   63.6990   -7.1650 C   0  0  0  0  0  0  0  0  0  0  0  0
   20.8560   64.1410   -8.8680 C   0  0  0  0  0  0  0  0  0  0  0  0
   21.1680   62.8620   -8.4190 O   0  0  0  0  0  0  0  0  0  0  0  0
   20.0210   64.0930   -9.9340 N   0  0  0  0  0  0  0  0  0  0  0  0
   18.6510   64.4820  -10.0950 C   0  0  0  0  0  0  0  0  0  0  0  0
   18.0200   63.6580  -11.2360 C   0  0  0  0  0  0  0  0  0  0  0  0
   18.7110   62.3640  -11.1580 N   0  0  0  0  0  0  0  0  0  0  0  0
   20.0750   62.2880  -11.5630 C   0  0  0  0  0  0  0  0  0  0  0  0
   20.6560   63.6180  -11.2040 C   0  0  0  0  0  0  0  0  0  0  0  0
   18.0620   61.2750  -10.5870 C   0  0  0  0  0  0  0  0  0  0  0  0
   16.7110   61.0230  -10.8490 N   0  0  0  0  0  0  0  0  0  0  0  0
   16.0240   60.0340  -10.3950 C   0  0  0  0  0  0  0  0  0  0  0  0
   16.5920   59.0570   -9.5630 C   0  0  0  0  0  0  0  0  0  0  0  0
   17.9320   59.3020   -9.2910 C   0  0  0  0  0  0  0  0  0  0  0  0
   18.5600   60.3090   -9.7700 N   0  0  0  0  0  0  0  0  0  0  0  0
   25.6070   63.0220   -6.5970 H   0  0  0  0  0  0  0  0  0  0  0  0
   22.6980   64.1110   -3.7450 H   0  0  0  0  0  0  0  0  0  0  0  0
   24.0780   63.1390   -1.9140 H   0  0  0  0  0  0  0  0  0  0  0  0
   26.2670   62.0800   -2.5180 H   0  0  0  0  0  0  0  0  0  0  0  0
   22.2020   62.7420   -7.4290 H   0  0  0  0  0  0  0  0  0  0  0  0
   18.5880   65.5240  -10.4950 H   0  0  0  0  0  0  0  0  0  0  0  0
   18.0150   64.3010   -9.2390 H   0  0  0  0  0  0  0  0  0  0  0  0
   16.9480   63.5160  -11.1180 H   0  0  0  0  0  0  0  0  0  0  0  0
   18.2530   64.1670  -12.2000 H   0  0  0  0  0  0  0  0  0  0  0  0
   20.1710   62.1550  -12.6540 H   0  0  0  0  0  0  0  0  0  0  0  0
   20.5850   61.4030  -11.0540 H   0  0  0  0  0  0  0  0  0  0  0  0
   20.5770   64.4270  -11.9570 H   0  0  0  0  0  0  0  0  0  0  0  0
   21.7210   63.4560  -10.9800 H   0  0  0  0  0  0  0  0  0  0  0  0
   14.9470   59.8850  -10.5780 H   0  0  0  0  0  0  0  0  0  0  0  0
   16.0670   58.2170   -9.1560 H   0  0  0  0  0  0  0  0  0  0  0  0
   18.4500   58.5820   -8.6100 H   0  0  0  0  0  0  0  0  0  0  0  0
  1  2  1  0  0  0  0
  2  7  1  0  0  0  0
  3  4  1  0  0  0  0
  3  2  2  0  0  0  0
  4  5  2  0  0  0  0
  5 28  1  0  0  0  0
  5  6  1  0  0  0  0
  6 29  1  0  0  0  0
  7  6  2  0  0  0  0
  7 30  1  0  0  0  0
  8  4  1  0  0  0  0
  9  8  1  0  0  0  0
 10  9  2  0  0  0  0
 11 10  1  0  0  0  0
 11 12  2  0  0  0  0
 12  8  1  0  0  0  0
 13 14  2  0  0  0  0
 13 11  1  0  0  0  0
 15 13  1  0  0  0  0
 16 15  1  0  0  0  0
 16 33  1  0  0  0  0
 17 18  1  0  0  0  0
 17 34  1  0  0  0  0
 17 16  1  0  0  0  0
 18 21  1  0  0  0  0
 19 20  1  0  0  0  0
 19 18  1  0  0  0  0
 19 37  1  0  0  0  0
 20 39  1  0  0  0  0
 20 15  1  0  0  0  0
 21 26  1  0  0  0  0
 22 21  2  0  0  0  0
 22 23  1  0  0  0  0
 23 24  2  0  0  0  0
 24 25  1  0  0  0  0
 24 41  1  0  0  0  0
 25 42  1  0  0  0  0
 26 25  2  0  0  0  0
 27  3  1  0  0  0  0
 31 12  1  0  0  0  0
 32 16  1  0  0  0  0
 35 17  1  0  0  0  0
 36 19  1  0  0  0  0
 38 20  1  0  0  0  0
 40 23  1  0  0  0  0
M  END
>  <Pose>
1

>  <Score>
-7.21

$$$$
