
 OpenBabel03202210193D

 33 36  0  0  1  0  0  0  0  0999 V2000
   14.4990   62.7920  -11.0110 Cl  0  0  0  0  0  0  0  0  0  0  0  0
   16.0130   62.0020  -10.6290 C   0  0  0  0  0  0  0  0  0  0  0  0
   17.2060   62.6920  -10.6170 C   0  0  0  0  0  0  0  0  0  0  0  0
   18.4110   62.0780  -10.3150 C   0  0  0  0  0  0  0  0  0  0  0  0
   18.3690   60.7290  -10.0240 C   0  0  0  0  0  0  0  0  0  0  0  0
   17.1670   60.0320  -10.0360 C   0  0  0  0  0  0  0  0  0  0  0  0
   15.9720   60.6540  -10.3370 C   0  0  0  0  0  0  0  0  0  0  0  0
   19.6430   62.7880  -10.3030 N   0  0  0  0  0  0  0  0  0  0  0  0
   20.6480   62.8470  -11.3330 C   0  0  0  0  0  0  0  0  0  0  0  0
   20.6210   62.1770  -12.3920 O   0  0  0  0  0  0  0  0  0  0  0  0
   21.6900   63.7960  -10.9510 C   0  0  2  0  0  0  0  0  0  0  0  0
   22.9940   63.1880  -10.5540 C   0  0  1  0  0  0  0  0  0  0  0  0
   23.4900   64.2010   -9.6940 O   0  0  0  0  0  0  0  0  0  0  0  0
   22.4370   64.1350   -8.7450 C   0  0  1  0  0  0  0  0  0  0  0  0
   21.2410   64.4190   -9.6190 C   0  0  2  0  0  0  0  0  0  0  0  0
   20.1020   63.5890   -9.2200 C   0  0  0  0  0  0  0  0  0  0  0  0
   19.5810   63.5710   -8.0780 O   0  0  0  0  0  0  0  0  0  0  0  0
   22.4390   62.6900   -8.4370 C   0  0  0  0  0  0  0  0  0  0  0  0
   22.8300   62.0850   -9.5820 C   0  0  0  0  0  0  0  0  0  0  0  0
   23.9310   62.9030  -11.6750 C   0  0  0  0  0  0  0  0  0  0  0  0
   24.2190   64.0840  -12.3470 O   0  0  0  0  0  0  0  0  0  0  0  0
   17.2480   63.7570  -10.8440 H   0  0  0  0  0  0  0  0  0  0  0  0
   19.3050   60.2270   -9.7840 H   0  0  0  0  0  0  0  0  0  0  0  0
   17.1490   58.9710   -9.8030 H   0  0  0  0  0  0  0  0  0  0  0  0
   15.0430   60.0910  -10.3410 H   0  0  0  0  0  0  0  0  0  0  0  0
   21.8850   64.5830  -11.7000 H   0  0  0  0  0  0  0  0  0  0  0  0
   22.5720   64.8020   -7.9120 H   0  0  0  0  0  0  0  0  0  0  0  0
   21.0080   65.4800   -9.7220 H   0  0  0  0  0  0  0  0  0  0  0  0
   22.1940   62.1950   -7.5220 H   0  0  0  0  0  0  0  0  0  0  0  0
   22.9830   61.0240   -9.7250 H   0  0  0  0  0  0  0  0  0  0  0  0
   23.3890   62.2300  -12.3890 H   0  0  0  0  0  0  0  0  0  0  0  0
   24.8400   62.3660  -11.3690 H   0  0  0  0  0  0  0  0  0  0  0  0
   23.5210   64.7570  -12.1710 H   0  0  0  0  0  0  0  0  0  0  0  0
  1  2  1  0  0  0  0
  2  3  2  0  0  0  0
  2  7  1  0  0  0  0
  3  4  1  0  0  0  0
  4  8  1  0  0  0  0
  4  5  2  0  0  0  0
  5 23  1  0  0  0  0
  6  5  1  0  0  0  0
  6 24  1  0  0  0  0
  7  6  2  0  0  0  0
  8 16  1  0  0  0  0
  9 11  1  0  0  0  0
  9  8  1  0  0  0  0
 10  9  2  0  0  0  0
 11 26  1  6  0  0  0
 11 12  1  0  0  0  0
 11 15  1  0  0  0  0
 12 20  1  6  0  0  0
 12 13  1  0  0  0  0
 12 19  1  0  0  0  0
 13 14  1  0  0  0  0
 14 18  1  0  0  0  0
 14 27  1  1  0  0  0
 15 28  1  6  0  0  0
 15 16  1  0  0  0  0
 15 14  1  0  0  0  0
 16 17  2  0  0  0  0
 18 29  1  0  0  0  0
 19 18  2  0  0  0  0
 20 32  1  0  0  0  0
 21 33  1  0  0  0  0
 21 20  1  0  0  0  0
 22  3  1  0  0  0  0
 25  7  1  0  0  0  0
 30 19  1  0  0  0  0
 31 20  1  0  0  0  0
M  END
>  <Pose>
1

>  <Score>
-5.08

$$$$
