
 OpenBabel03202210193D

 36 39  0  0  0  0  0  0  0  0999 V2000
   16.4080   62.9480   -8.6670 Cl  0  0  0  0  0  0  0  0  0  0  0  0
   17.9790   63.0100   -9.4360 C   0  0  0  0  0  0  0  0  0  0  0  0
   19.1400   63.2720   -8.7390 C   0  0  0  0  0  0  0  0  0  0  0  0
   20.3850   63.3250   -9.3330 C   0  0  0  0  0  0  0  0  0  0  0  0
   20.4530   63.1020  -10.6940 C   0  0  0  0  0  0  0  0  0  0  0  0
   19.2990   62.8390  -11.4030 C   0  0  0  0  0  0  0  0  0  0  0  0
   18.0540   62.7860  -10.8080 C   0  0  0  0  0  0  0  0  0  0  0  0
   21.7770   63.1530  -11.3530 C   0  0  0  0  0  0  0  0  0  0  0  0
   22.1110   62.9880  -12.5630 N   0  0  0  0  0  0  0  0  0  0  0  0
   23.5330   63.1250  -12.7950 C   0  0  0  0  0  0  0  0  0  0  0  0
   24.1130   63.4250  -11.4520 C   0  0  0  0  0  0  0  0  0  0  0  0
   22.9450   63.4270  -10.5920 N   0  0  0  0  0  0  0  0  0  0  0  0
   22.7870   63.6450   -9.1900 C   0  0  0  0  0  0  0  0  0  0  0  0
   23.6960   63.9200   -8.2370 N   0  0  0  0  0  0  0  0  0  0  0  0
   23.1170   64.0490   -7.0550 N   0  0  0  0  0  0  0  0  0  0  0  0
   21.7960   63.8470   -7.2870 C   0  0  0  0  0  0  0  0  0  0  0  0
   20.9290   63.8930   -6.3870 O   0  0  0  0  0  0  0  0  0  0  0  0
   21.5710   63.5980   -8.5870 N   0  0  0  0  0  0  0  0  0  0  0  0
   23.7590   64.3440   -5.7880 C   0  0  0  0  0  0  0  0  0  0  0  0
   24.2240   63.0320   -5.1410 C   0  0  0  0  0  0  0  0  0  0  0  0
   23.9300   63.0490   -3.6860 C   0  0  0  0  0  0  0  0  0  0  0  0
   24.3920   63.8940   -2.8790 O   0  0  0  0  0  0  0  0  0  0  0  0
   23.0710   62.0440   -3.1720 N   0  0  0  0  0  0  0  0  0  0  0  0
   19.0490   63.4410   -7.6760 H   0  0  0  0  0  0  0  0  0  0  0  0
   19.3860   62.6690  -12.4650 H   0  0  0  0  0  0  0  0  0  0  0  0
   17.1440   62.5800  -11.3630 H   0  0  0  0  0  0  0  0  0  0  0  0
   23.7540   63.9210  -13.5340 H   0  0  0  0  0  0  0  0  0  0  0  0
   23.8790   62.1340  -13.1830 H   0  0  0  0  0  0  0  0  0  0  0  0
   24.6760   64.3770  -11.4150 H   0  0  0  0  0  0  0  0  0  0  0  0
   24.8060   62.5890  -11.1460 H   0  0  0  0  0  0  0  0  0  0  0  0
   24.6950   64.9130   -5.9900 H   0  0  0  0  0  0  0  0  0  0  0  0
   23.1010   64.8770   -5.1030 H   0  0  0  0  0  0  0  0  0  0  0  0
   25.3080   62.8830   -5.3010 H   0  0  0  0  0  0  0  0  0  0  0  0
   23.6710   62.1610   -5.5730 H   0  0  0  0  0  0  0  0  0  0  0  0
   23.1240   61.6870   -2.2010 H   0  0  0  0  0  0  0  0  0  0  0  0
   22.3500   61.6480   -3.8100 H   0  0  0  0  0  0  0  0  0  0  0  0
  2  3  1  0  0  0  0
  2  1  1  0  0  0  0
  3 24  1  0  0  0  0
  4  3  2  0  0  0  0
  4 18  1  0  0  0  0
  5  4  1  0  0  0  0
  6  7  1  0  0  0  0
  6  5  1  0  0  0  0
  7  2  2  0  0  0  0
  8  5  2  0  0  0  0
  8 12  1  0  0  0  0
  9  8  1  0  0  0  0
 10  9  1  0  0  0  0
 10 11  1  0  0  0  0
 11 29  1  0  0  0  0
 11 30  1  0  0  0  0
 11 12  1  0  0  0  0
 12 13  1  0  0  0  0
 13 18  1  0  0  0  0
 13 14  2  0  0  0  0
 14 15  1  0  0  0  0
 15 19  1  0  0  0  0
 16 15  1  0  0  0  0
 16 17  2  0  0  0  0
 18 16  1  0  0  0  0
 19 20  1  0  0  0  0
 19 32  1  0  0  0  0
 20 21  1  0  0  0  0
 21 23  1  0  0  0  0
 21 22  2  0  0  0  0
 23 35  1  0  0  0  0
 25  6  1  0  0  0  0
 26  7  1  0  0  0  0
 27 10  1  0  0  0  0
 28 10  1  0  0  0  0
 31 19  1  0  0  0  0
 33 20  1  0  0  0  0
 34 20  1  0  0  0  0
 36 23  1  0  0  0  0
M  END
>  <Pose>
1

>  <Score>
-6.83

$$$$
