
 OpenBabel03202210193D

 41 44  0  0  0  0  0  0  0  0999 V2000
   22.3140   64.6100   -6.0510 B   0  0  0  0  0  0  0  0  0  0  0  0
   21.8730   64.1310   -7.8550 C   0  0  0  0  0  0  0  0  0  0  0  0
   20.7880   63.3420   -8.1200 C   0  0  0  0  0  0  0  0  0  0  0  0
   20.4780   63.0020   -9.4350 C   0  0  0  0  0  0  0  0  0  0  0  0
   21.3080   63.4960  -10.4190 C   0  0  0  0  0  0  0  0  0  0  0  0
   22.3870   64.2830  -10.1430 C   0  0  0  0  0  0  0  0  0  0  0  0
   22.7070   64.6290   -8.8410 C   0  0  0  0  0  0  0  0  0  0  0  0
   20.9710   63.1350  -11.7430 O   0  0  0  0  0  0  0  0  0  0  0  0
   21.9500   63.1310  -12.7650 C   0  0  0  0  0  0  0  0  0  0  0  0
   19.3720   62.0950   -9.7270 C   0  0  0  0  0  0  0  0  0  0  0  0
   18.0920   62.2900  -10.0290 N   0  0  0  0  0  0  0  0  0  0  0  0
   17.4670   61.0900  -10.2060 C   0  0  0  0  0  0  0  0  0  0  0  0
   18.4260   60.1580   -9.9940 N   0  0  0  0  0  0  0  0  0  0  0  0
   19.5600   60.7390   -9.7100 N   0  0  0  0  0  0  0  0  0  0  0  0
   16.1730   61.2700  -10.5090 N   0  0  0  0  0  0  0  0  0  0  0  0
   15.9140   62.5720  -10.5360 C   0  0  0  0  0  0  0  0  0  0  0  0
   17.1240   63.2190  -10.2320 C   0  0  0  0  0  0  0  0  0  0  0  0
   17.1600   64.5560  -10.1750 N   0  0  0  0  0  0  0  0  0  0  0  0
   16.0090   65.2380  -10.4220 C   0  0  0  0  0  0  0  0  0  0  0  0
   16.0740   66.5050  -10.3640 O   0  0  0  0  0  0  0  0  0  0  0  0
   14.8400   64.6740  -10.7160 N   0  0  0  0  0  0  0  0  0  0  0  0
   14.7990   63.3420  -10.7710 C   0  0  0  0  0  0  0  0  0  0  0  0
   13.7190   62.7570  -11.0440 O   0  0  0  0  0  0  0  0  0  0  0  0
   13.6380   65.4860  -10.9710 C   0  0  0  0  0  0  0  0  0  0  0  0
   18.3500   65.2800   -9.8340 C   0  0  0  0  0  0  0  0  0  0  0  0
   15.1950   60.2320  -10.7680 C   0  0  0  0  0  0  0  0  0  0  0  0
   20.1510   62.9650   -7.3320 H   0  0  0  0  0  0  0  0  0  0  0  0
   23.0110   64.6460  -10.9700 H   0  0  0  0  0  0  0  0  0  0  0  0
   23.5620   65.2530   -8.6220 H   0  0  0  0  0  0  0  0  0  0  0  0
   21.3970   63.0580  -13.7310 H   0  0  0  0  0  0  0  0  0  0  0  0
   22.5510   64.0530  -12.7750 H   0  0  0  0  0  0  0  0  0  0  0  0
   22.6370   62.2840  -12.7090 H   0  0  0  0  0  0  0  0  0  0  0  0
   13.2010   65.8750  -10.0500 H   0  0  0  0  0  0  0  0  0  0  0  0
   13.9760   66.3380  -11.6240 H   0  0  0  0  0  0  0  0  0  0  0  0
   12.9640   64.8840  -11.5910 H   0  0  0  0  0  0  0  0  0  0  0  0
   18.0160   66.3700   -9.6550 H   0  0  0  0  0  0  0  0  0  0  0  0
   19.0660   65.3800  -10.6410 H   0  0  0  0  0  0  0  0  0  0  0  0
   18.7050   64.9850   -8.8550 H   0  0  0  0  0  0  0  0  0  0  0  0
   14.2140   60.5210  -10.3170 H   0  0  0  0  0  0  0  0  0  0  0  0
   15.0720   60.1490  -11.8670 H   0  0  0  0  0  0  0  0  0  0  0  0
   15.4700   59.2680  -10.2890 H   0  0  0  0  0  0  0  0  0  0  0  0
  2  1  1  0  0  0  0
  3  2  1  0  0  0  0
  3 27  1  0  0  0  0
  4  3  2  0  0  0  0
  5  6  2  0  0  0  0
  5  4  1  0  0  0  0
  6  7  1  0  0  0  0
  7 29  1  0  0  0  0
  7  2  2  0  0  0  0
  8  5  1  0  0  0  0
  9 32  1  0  0  0  0
  9  8  1  0  0  0  0
 10 14  2  0  0  0  0
 10  4  1  0  0  0  0
 11 10  1  0  0  0  0
 12 11  1  0  0  0  0
 12 13  2  0  0  0  0
 13 14  1  0  0  0  0
 15 12  1  0  0  0  0
 16 15  1  0  0  0  0
 16 17  2  0  0  0  0
 17 18  1  0  0  0  0
 17 11  1  0  0  0  0
 18 25  1  0  0  0  0
 19 20  2  0  0  0  0
 19 18  1  0  0  0  0
 21 19  1  0  0  0  0
 22 21  1  0  0  0  0
 22 16  1  0  0  0  0
 23 22  2  0  0  0  0
 24 21  1  0  0  0  0
 24 33  1  0  0  0  0
 25 36  1  0  0  0  0
 25 38  1  0  0  0  0
 26 15  1  0  0  0  0
 26 39  1  0  0  0  0
 26 41  1  0  0  0  0
 28  6  1  0  0  0  0
 30  9  1  0  0  0  0
 31  9  1  0  0  0  0
 34 24  1  0  0  0  0
 35 24  1  0  0  0  0
 37 25  1  0  0  0  0
 40 26  1  0  0  0  0
M  END
>  <Pose>
1

>  <Score>
-6.17

$$$$
