
 OpenBabel03202210193D

 40 43  0  0  0  0  0  0  0  0999 V2000
   23.5430   69.8440   -6.1950 Cl  0  0  0  0  0  0  0  0  0  0  0  0
   22.5730   68.4150   -6.5160 C   0  0  0  0  0  0  0  0  0  0  0  0
   23.1370   67.1760   -6.7480 C   0  0  0  0  0  0  0  0  0  0  0  0
   22.3770   66.0770   -6.9960 N   0  0  0  0  0  0  0  0  0  0  0  0
   21.0340   66.1200   -7.0300 C   0  0  0  0  0  0  0  0  0  0  0  0
   20.2730   65.0370   -7.2740 N   0  0  0  0  0  0  0  0  0  0  0  0
   20.8130   63.8270   -7.5030 C   0  0  0  0  0  0  0  0  0  0  0  0
   22.2070   63.7720   -7.4680 C   0  0  0  0  0  0  0  0  0  0  0  0
   22.9770   64.8880   -7.2170 C   0  0  0  0  0  0  0  0  0  0  0  0
   24.2480   64.8320   -7.1870 O   0  0  0  0  0  0  0  0  0  0  0  0
   20.0150   62.6030   -7.7760 C   0  0  0  0  0  0  0  0  0  0  0  0
   19.5910   62.6140   -9.1270 N   0  0  0  0  0  0  0  0  0  0  0  0
   18.5350   63.4860   -9.4810 C   0  0  0  0  0  0  0  0  0  0  0  0
   17.6890   63.0050  -10.6500 C   0  0  0  0  0  0  0  0  0  0  0  0
   17.3280   61.5960  -10.3380 C   0  0  0  0  0  0  0  0  0  0  0  0
   18.3670   60.7860   -9.9320 C   0  0  0  0  0  0  0  0  0  0  0  0
   18.0900   59.5070   -9.6380 N   0  0  0  0  0  0  0  0  0  0  0  0
   16.8110   59.0330   -9.7420 C   0  0  0  0  0  0  0  0  0  0  0  0
   15.8150   59.8590  -10.1440 N   0  0  0  0  0  0  0  0  0  0  0  0
   16.0290   61.1570  -10.4530 C   0  0  0  0  0  0  0  0  0  0  0  0
   16.4910   57.6180   -9.4190 C   0  0  0  0  0  0  0  0  0  0  0  0
   19.7170   61.3960   -9.8530 C   0  0  0  0  0  0  0  0  0  0  0  0
   20.4410   67.3540   -6.7990 C   0  0  0  0  0  0  0  0  0  0  0  0
   21.1960   68.4820   -6.5460 C   0  0  0  0  0  0  0  0  0  0  0  0
   24.2270   67.1120   -6.7260 H   0  0  0  0  0  0  0  0  0  0  0  0
   22.6740   62.8180   -7.6460 H   0  0  0  0  0  0  0  0  0  0  0  0
   20.6890   61.7360   -7.5840 H   0  0  0  0  0  0  0  0  0  0  0  0
   19.1710   62.5880   -7.0690 H   0  0  0  0  0  0  0  0  0  0  0  0
   18.8580   64.5270   -9.6950 H   0  0  0  0  0  0  0  0  0  0  0  0
   17.8110   63.5340   -8.6160 H   0  0  0  0  0  0  0  0  0  0  0  0
   18.3720   63.0190  -11.5460 H   0  0  0  0  0  0  0  0  0  0  0  0
   16.8130   63.6360  -10.7720 H   0  0  0  0  0  0  0  0  0  0  0  0
   15.2120   61.7890  -10.7720 H   0  0  0  0  0  0  0  0  0  0  0  0
   17.4330   57.0380   -9.4470 H   0  0  0  0  0  0  0  0  0  0  0  0
   16.0880   57.6160   -8.3740 H   0  0  0  0  0  0  0  0  0  0  0  0
   15.7640   57.1950  -10.1380 H   0  0  0  0  0  0  0  0  0  0  0  0
   20.1530   61.5320  -10.8740 H   0  0  0  0  0  0  0  0  0  0  0  0
   20.3990   60.7250   -9.2890 H   0  0  0  0  0  0  0  0  0  0  0  0
   19.3500   67.3990   -6.8250 H   0  0  0  0  0  0  0  0  0  0  0  0
   20.7200   69.4500   -6.3650 H   0  0  0  0  0  0  0  0  0  0  0  0
  2  1  1  0  0  0  0
  3 25  1  0  0  0  0
  3  2  1  0  0  0  0
  4  3  1  0  0  0  0
  5  4  1  0  0  0  0
  5 23  2  0  0  0  0
  6  5  1  0  0  0  0
  7  8  1  0  0  0  0
  7  6  2  0  0  0  0
  8  9  1  0  0  0  0
  9 10  2  0  0  0  0
  9  4  1  0  0  0  0
 11 27  1  0  0  0  0
 11  7  1  0  0  0  0
 11 28  1  0  0  0  0
 12 11  1  0  0  0  0
 13 12  1  0  0  0  0
 13 30  1  0  0  0  0
 14 15  1  0  0  0  0
 14 13  1  0  0  0  0
 15 16  2  0  0  0  0
 16 22  1  0  0  0  0
 16 17  1  0  0  0  0
 18 17  2  0  0  0  0
 18 21  1  0  0  0  0
 19 18  1  0  0  0  0
 20 15  1  0  0  0  0
 20 19  2  0  0  0  0
 21 35  1  0  0  0  0
 22 38  1  0  0  0  0
 22 12  1  0  0  0  0
 23 24  1  0  0  0  0
 24  2  2  0  0  0  0
 24 40  1  0  0  0  0
 26  8  1  0  0  0  0
 29 13  1  0  0  0  0
 31 14  1  0  0  0  0
 32 14  1  0  0  0  0
 33 20  1  0  0  0  0
 34 21  1  0  0  0  0
 36 21  1  0  0  0  0
 37 22  1  0  0  0  0
 39 23  1  0  0  0  0
M  END
>  <Pose>
1

>  <Score>
-5.12

$$$$
