
 OpenBabel03202210193D

 55 58  0  0  0  0  0  0  0  0999 V2000
   15.9140   66.0860  -11.3330 B   0  0  0  0  0  0  0  0  0  0  0  0
   16.7440   64.4310  -10.9170 C   0  0  0  0  0  0  0  0  0  0  0  0
   18.1190   64.2170  -11.1170 C   0  0  0  0  0  0  0  0  0  0  0  0
   18.6900   63.0090  -10.8120 C   0  0  0  0  0  0  0  0  0  0  0  0
   17.9070   61.9990  -10.3020 C   0  0  0  0  0  0  0  0  0  0  0  0
   16.5350   62.2160  -10.1010 C   0  0  0  0  0  0  0  0  0  0  0  0
   15.9710   63.4120  -10.4070 C   0  0  0  0  0  0  0  0  0  0  0  0
   18.5260   60.8320  -10.0170 O   0  0  0  0  0  0  0  0  0  0  0  0
   17.9690   59.6930   -9.4570 C   0  0  0  0  0  0  0  0  0  0  0  0
   20.1210   62.8080  -10.9850 C   0  0  0  0  0  0  0  0  0  0  0  0
   21.0490   63.0200  -10.1090 C   0  0  0  0  0  0  0  0  0  0  0  0
   20.8790   63.4770   -8.8320 O   0  0  0  0  0  0  0  0  0  0  0  0
   22.1230   63.5600   -8.2090 C   0  0  0  0  0  0  0  0  0  0  0  0
   23.1340   63.1770   -9.0300 C   0  0  0  0  0  0  0  0  0  0  0  0
   24.4630   63.1710   -8.5900 C   0  0  0  0  0  0  0  0  0  0  0  0
   24.8120   63.5500   -7.3200 C   0  0  0  0  0  0  0  0  0  0  0  0
   23.7310   63.9440   -6.5100 C   0  0  0  0  0  0  0  0  0  0  0  0
   22.4370   63.9560   -6.9040 C   0  0  0  0  0  0  0  0  0  0  0  0
   21.3080   64.4160   -6.0730 C   0  0  0  0  0  0  0  0  0  0  0  0
   21.2030   65.8560   -6.0710 N   0  0  0  0  0  4  0  0  0  0  0  0
   19.8180   66.2350   -6.2840 C   0  0  0  0  0  0  0  0  0  0  0  0
   19.6190   67.4060   -7.1500 C   0  0  0  0  0  0  0  0  0  0  0  0
   20.6500   68.3940   -7.1250 N   0  0  0  0  0  0  0  0  0  0  0  0
   21.8320   68.0930   -6.4530 C   0  0  0  0  0  0  0  0  0  0  0  0
   22.1970   66.6020   -6.6770 C   0  0  0  0  0  0  0  0  0  0  0  0
   20.7120   69.2790   -8.2240 C   0  0  0  0  0  0  0  0  0  0  0  0
   20.7850   70.7260   -7.8820 C   0  0  0  0  0  0  0  0  0  0  0  0
   24.1450   64.3420   -5.2210 O   0  0  0  0  0  0  0  0  0  0  0  0
   22.4860   62.8120  -10.2950 C   0  0  0  0  0  0  0  0  0  0  0  0
   23.0650   62.3950  -11.3400 O   0  0  0  0  0  0  0  0  0  0  0  0
   18.6600   65.0560  -11.5230 H   0  0  0  0  0  0  0  0  0  0  0  0
   15.9140   61.4200   -9.6910 H   0  0  0  0  0  0  0  0  0  0  0  0
   14.9030   63.5280  -10.2280 H   0  0  0  0  0  0  0  0  0  0  0  0
   18.1390   58.7780  -10.0880 H   0  0  0  0  0  0  0  0  0  0  0  0
   16.8790   59.7060   -9.2820 H   0  0  0  0  0  0  0  0  0  0  0  0
   18.4290   59.4950   -8.4290 H   0  0  0  0  0  0  0  0  0  0  0  0
   20.4990   62.4270  -11.9670 H   0  0  0  0  0  0  0  0  0  0  0  0
   25.1920   62.8400   -9.3270 H   0  0  0  0  0  0  0  0  0  0  0  0
   25.8120   63.5550   -6.9580 H   0  0  0  0  0  0  0  0  0  0  0  0
   21.3240   63.9630   -5.0710 H   0  0  0  0  0  0  0  0  0  0  0  0
   20.3760   63.9630   -6.5510 H   0  0  0  0  0  0  0  0  0  0  0  0
   21.3350   66.0650   -4.9780 H   0  0  0  0  0  0  0  0  0  0  0  0
   19.2970   66.3510   -5.3000 H   0  0  0  0  0  0  0  0  0  0  0  0
   19.3070   65.3620   -6.7510 H   0  0  0  0  0  0  0  0  0  0  0  0
   19.3450   67.0910   -8.1870 H   0  0  0  0  0  0  0  0  0  0  0  0
   18.6830   67.9360   -6.7820 H   0  0  0  0  0  0  0  0  0  0  0  0
   22.6580   68.7510   -6.6880 H   0  0  0  0  0  0  0  0  0  0  0  0
   21.6750   68.1260   -5.3380 H   0  0  0  0  0  0  0  0  0  0  0  0
   23.1460   66.5410   -6.0520 H   0  0  0  0  0  0  0  0  0  0  0  0
   22.4780   66.3710   -7.6890 H   0  0  0  0  0  0  0  0  0  0  0  0
   21.6380   69.0180   -8.8170 H   0  0  0  0  0  0  0  0  0  0  0  0
   19.8390   69.0380   -8.8910 H   0  0  0  0  0  0  0  0  0  0  0  0
   20.5600   70.9600   -6.8390 H   0  0  0  0  0  0  0  0  0  0  0  0
   21.7760   71.1690   -8.1650 H   0  0  0  0  0  0  0  0  0  0  0  0
   20.0210   71.2470   -8.4870 H   0  0  0  0  0  0  0  0  0  0  0  0
  1  2  1  0  0  0  0
  2  7  1  0  0  0  0
  3  2  2  0  0  0  0
  3  4  1  0  0  0  0
  4  5  2  0  0  0  0
  5  6  1  0  0  0  0
  5  8  1  0  0  0  0
  6 32  1  0  0  0  0
  7 33  1  0  0  0  0
  7  6  2  0  0  0  0
  8  9  1  0  0  0  0
  9 35  1  0  0  0  0
  9 36  1  0  0  0  0
 10  4  1  0  0  0  0
 10 11  2  0  0  0  0
 11 12  1  0  0  0  0
 12 13  1  0  0  0  0
 13 18  1  0  0  0  0
 14 15  1  0  0  0  0
 14 13  2  0  0  0  0
 15 16  2  0  0  0  0
 16 39  1  0  0  0  0
 16 17  1  0  0  0  0
 17 28  1  0  0  0  0
 18 17  2  0  0  0  0
 18 19  1  0  0  0  0
 19 20  1  0  0  0  0
 19 40  1  0  0  0  0
 20 42  1  0  0  0  0
 21 20  1  0  0  0  0
 21 43  1  0  0  0  0
 22 23  1  0  0  0  0
 22 46  1  0  0  0  0
 22 21  1  0  0  0  0
 23 24  1  0  0  0  0
 24 48  1  0  0  0  0
 25 24  1  0  0  0  0
 25 20  1  0  0  0  0
 25 49  1  0  0  0  0
 26 27  1  0  0  0  0
 26 23  1  0  0  0  0
 27 53  1  0  0  0  0
 29 11  1  0  0  0  0
 29 14  1  0  0  0  0
 30 29  2  0  0  0  0
 31  3  1  0  0  0  0
 34  9  1  0  0  0  0
 37 10  1  0  0  0  0
 38 15  1  0  0  0  0
 41 19  1  0  0  0  0
 44 21  1  0  0  0  0
 45 22  1  0  0  0  0
 47 24  1  0  0  0  0
 50 25  1  0  0  0  0
 51 26  1  0  0  0  0
 52 26  1  0  0  0  0
 54 27  1  0  0  0  0
 55 27  1  0  0  0  0
M  END
>  <Pose>
1

>  <Score>
-3.97

$$$$
