
 OpenBabel03202210193D

 48 51  0  0  0  0  0  0  0  0999 V2000
   25.4290   67.0610   -1.1290 B   0  0  0  0  0  0  0  0  0  0  0  0
   24.9820   68.3380   -2.4700 C   0  0  0  0  0  0  0  0  0  0  0  0
   24.0610   68.1440   -3.4590 C   0  0  0  0  0  0  0  0  0  0  0  0
   23.7550   69.0850   -4.4180 C   0  0  0  0  0  0  0  0  0  0  0  0
   24.4400   70.3020   -4.3510 C   0  0  0  0  0  0  0  0  0  0  0  0
   25.3730   70.5510   -3.3830 C   0  0  0  0  0  0  0  0  0  0  0  0
   25.6410   69.5640   -2.4420 C   0  0  0  0  0  0  0  0  0  0  0  0
   24.1480   71.2640   -5.2980 O   0  0  0  0  0  0  0  0  0  0  0  0
   24.7010   71.1840   -6.5860 C   0  0  0  0  0  0  0  0  0  0  0  0
   22.7590   68.8620   -5.4530 C   0  0  0  0  0  0  0  0  0  0  0  0
   22.5610   67.7530   -6.1100 C   0  0  0  0  0  0  0  0  0  0  0  0
   23.2850   66.5870   -5.9180 O   0  0  0  0  0  0  0  0  0  0  0  0
   22.8580   65.5720   -6.7550 C   0  0  0  0  0  0  0  0  0  0  0  0
   21.8260   66.0070   -7.5540 C   0  0  0  0  0  0  0  0  0  0  0  0
   21.2500   65.1510   -8.4690 C   0  0  0  0  0  0  0  0  0  0  0  0
   21.7180   63.8580   -8.5750 C   0  0  0  0  0  0  0  0  0  0  0  0
   22.7760   63.4380   -7.7450 C   0  0  0  0  0  0  0  0  0  0  0  0
   23.3590   64.2650   -6.8350 C   0  0  0  0  0  0  0  0  0  0  0  0
   24.4270   63.8860   -5.9510 C   0  0  0  0  0  0  0  0  0  0  0  0
   24.3520   62.7730   -5.0960 N   0  0  0  0  0  4  0  0  0  0  0  0
   25.6050   62.1500   -4.7680 C   0  0  0  0  0  0  0  0  0  0  0  0
   26.3580   62.8300   -3.6510 C   0  0  0  0  0  0  0  0  0  0  0  0
   25.7670   64.0100   -3.2220 O   0  0  0  0  0  0  0  0  0  0  0  0
   24.4880   63.6730   -2.7920 C   0  0  0  0  0  0  0  0  0  0  0  0
   23.6230   63.0700   -3.8500 C   0  0  0  0  0  0  0  0  0  0  0  0
   23.1470   62.1020   -7.9650 O   0  0  0  0  0  0  0  0  0  0  0  0
   21.6070   67.4050   -7.1670 C   0  0  0  0  0  0  0  0  0  0  0  0
   20.7540   68.1830   -7.6490 O   0  0  0  0  0  0  0  0  0  0  0  0
   23.5450   67.1800   -3.4770 H   0  0  0  0  0  0  0  0  0  0  0  0
   25.9390   71.4850   -3.2900 H   0  0  0  0  0  0  0  0  0  0  0  0
   26.3880   69.7530   -1.6580 H   0  0  0  0  0  0  0  0  0  0  0  0
   24.7160   72.2140   -7.0600 H   0  0  0  0  0  0  0  0  0  0  0  0
   24.0360   70.5590   -7.2340 H   0  0  0  0  0  0  0  0  0  0  0  0
   25.7600   70.8540   -6.5980 H   0  0  0  0  0  0  0  0  0  0  0  0
   22.1020   69.7060   -5.7180 H   0  0  0  0  0  0  0  0  0  0  0  0
   20.4310   65.5050   -9.0950 H   0  0  0  0  0  0  0  0  0  0  0  0
   21.3070   63.1440   -9.2700 H   0  0  0  0  0  0  0  0  0  0  0  0
   25.4230   63.7710   -6.5100 H   0  0  0  0  0  0  0  0  0  0  0  0
   24.7130   64.7690   -5.2600 H   0  0  0  0  0  0  0  0  0  0  0  0
   23.7500   62.0460   -5.5350 H   0  0  0  0  0  0  0  0  0  0  0  0
   25.3370   61.1210   -4.3780 H   0  0  0  0  0  0  0  0  0  0  0  0
   26.2230   61.9870   -5.6500 H   0  0  0  0  0  0  0  0  0  0  0  0
   26.4520   62.1800   -2.7340 H   0  0  0  0  0  0  0  0  0  0  0  0
   27.4040   63.0140   -3.9680 H   0  0  0  0  0  0  0  0  0  0  0  0
   23.9940   64.6470   -2.4980 H   0  0  0  0  0  0  0  0  0  0  0  0
   24.5550   63.0470   -1.8560 H   0  0  0  0  0  0  0  0  0  0  0  0
   22.7360   63.6880   -4.0980 H   0  0  0  0  0  0  0  0  0  0  0  0
   23.2140   62.1200   -3.4470 H   0  0  0  0  0  0  0  0  0  0  0  0
  2  7  1  0  0  0  0
  2  1  1  0  0  0  0
  3  2  2  0  0  0  0
  4  5  2  0  0  0  0
  4  3  1  0  0  0  0
  5  6  1  0  0  0  0
  6 30  1  0  0  0  0
  6  7  2  0  0  0  0
  7 31  1  0  0  0  0
  8  5  1  0  0  0  0
  9  8  1  0  0  0  0
 10  4  1  0  0  0  0
 11 12  1  0  0  0  0
 11 10  2  0  0  0  0
 13 12  1  0  0  0  0
 14 27  1  0  0  0  0
 14 13  2  0  0  0  0
 15 14  1  0  0  0  0
 16 15  2  0  0  0  0
 16 17  1  0  0  0  0
 17 18  2  0  0  0  0
 18 13  1  0  0  0  0
 18 19  1  0  0  0  0
 19 39  1  0  0  0  0
 19 20  1  0  0  0  0
 20 21  1  0  0  0  0
 20 25  1  0  0  0  0
 21 41  1  0  0  0  0
 21 22  1  0  0  0  0
 22 23  1  0  0  0  0
 22 43  1  0  0  0  0
 23 24  1  0  0  0  0
 24 45  1  0  0  0  0
 24 46  1  0  0  0  0
 25 48  1  0  0  0  0
 25 24  1  0  0  0  0
 26 17  1  0  0  0  0
 27 11  1  0  0  0  0
 28 27  2  0  0  0  0
 29  3  1  0  0  0  0
 32  9  1  0  0  0  0
 33  9  1  0  0  0  0
 34  9  1  0  0  0  0
 35 10  1  0  0  0  0
 36 15  1  0  0  0  0
 37 16  1  0  0  0  0
 38 19  1  0  0  0  0
 40 20  1  0  0  0  0
 42 21  1  0  0  0  0
 44 22  1  0  0  0  0
 47 25  1  0  0  0  0
M  END
>  <Pose>
1

>  <Score>
-4.96

$$$$
