
 OpenBabel03202210193D

 49 52  0  0  1  0  0  0  0  0999 V2000
   24.6790   63.4860   -3.6840 S   0  0  0  0  0  0  0  0  0  0  0  0
   25.2860   64.5620   -2.8130 O   0  0  0  0  0  0  0  0  0  0  0  0
   23.5820   62.8540   -2.8970 O   0  0  0  0  0  0  0  0  0  0  0  0
   24.0970   64.2640   -5.1020 N   0  0  0  0  0  0  0  0  0  0  0  0
   22.6480   64.2860   -5.0970 C   0  0  0  0  0  0  0  0  0  0  0  0
   22.1200   64.7520   -6.4480 C   0  0  0  0  0  0  0  0  0  0  0  0
   22.5890   63.8050   -7.4590 N   0  0  0  0  0  0  0  0  0  0  0  0
   23.5850   62.8800   -7.0060 C   0  0  0  0  0  0  0  0  0  0  0  0
   24.6460   63.6640   -6.2800 C   0  0  0  0  0  0  0  0  0  0  0  0
   22.0450   63.8530   -8.7460 C   0  0  0  0  0  0  0  0  0  0  0  0
   21.2370   64.8250   -9.0450 O   0  0  0  0  0  0  0  0  0  0  0  0
   22.2560   62.9260   -9.8630 C   0  0  0  0  0  0  0  0  0  0  0  0
   20.9960   62.9930  -11.1300 S   0  0  0  0  0  0  0  0  0  0  0  0
   19.4350   62.2780  -10.6470 C   0  0  1  0  0  0  0  0  0  0  0  0
   19.3700   61.0780  -10.0860 N   0  0  0  0  0  0  0  0  0  0  0  0
   18.2290   60.5070   -9.6900 C   0  0  0  0  0  0  0  0  0  0  0  0
   17.0620   61.1990   -9.8760 N   0  0  0  0  0  0  0  0  0  0  0  0
   17.0930   62.4110  -10.4390 C   0  0  0  0  0  0  0  0  0  0  0  0
   16.0940   63.2970  -10.7230 N   0  0  0  0  0  0  0  0  0  0  0  0
   16.6330   64.3660  -11.2740 N   0  0  0  0  0  0  0  0  0  0  0  0
   17.9570   64.2240  -11.3670 C   0  0  0  0  0  0  0  0  0  0  0  0
   18.2760   62.9980  -10.8470 C   0  0  0  0  0  0  0  0  0  0  0  0
   14.7000   63.0960  -10.4550 C   0  0  0  0  0  0  0  0  0  0  0  0
   25.8980   62.3090   -4.1190 C   0  0  0  0  0  0  0  0  0  0  0  0
   26.8190   62.4840   -5.1270 C   0  0  0  0  0  0  0  0  0  0  0  0
   27.7470   61.5170   -5.4280 C   0  0  0  0  0  0  0  0  0  0  0  0
   27.7720   60.3240   -4.7050 C   0  0  0  0  0  0  0  0  0  0  0  0
   26.8410   60.1320   -3.6780 C   0  0  0  0  0  0  0  0  0  0  0  0
   25.9210   61.1170   -3.3950 C   0  0  0  0  0  0  0  0  0  0  0  0
   28.9560   59.1060   -5.0980 Cl  0  0  0  0  0  0  0  0  0  0  0  0
   22.3210   65.0230   -4.3510 H   0  0  0  0  0  0  0  0  0  0  0  0
   22.2130   63.3140   -4.8510 H   0  0  0  0  0  0  0  0  0  0  0  0
   21.0130   64.7170   -6.3860 H   0  0  0  0  0  0  0  0  0  0  0  0
   22.5090   65.7600   -6.6200 H   0  0  0  0  0  0  0  0  0  0  0  0
   24.0000   62.2310   -7.8010 H   0  0  0  0  0  0  0  0  0  0  0  0
   23.0810   62.1620   -6.3040 H   0  0  0  0  0  0  0  0  0  0  0  0
   25.5620   63.0810   -6.1190 H   0  0  0  0  0  0  0  0  0  0  0  0
   24.9490   64.4830   -7.0020 H   0  0  0  0  0  0  0  0  0  0  0  0
   22.2550   61.8970   -9.4510 H   0  0  0  0  0  0  0  0  0  0  0  0
   23.2380   63.0340  -10.3700 H   0  0  0  0  0  0  0  0  0  0  0  0
   18.2240   59.5320   -9.2370 H   0  0  0  0  0  0  0  0  0  0  0  0
   18.6430   64.9360  -11.7680 H   0  0  0  0  0  0  0  0  0  0  0  0
   14.5180   62.5710   -9.4770 H   0  0  0  0  0  0  0  0  0  0  0  0
   14.1860   64.0970  -10.4500 H   0  0  0  0  0  0  0  0  0  0  0  0
   14.2790   62.4770  -11.2700 H   0  0  0  0  0  0  0  0  0  0  0  0
   26.8000   63.4040   -5.6810 H   0  0  0  0  0  0  0  0  0  0  0  0
   28.4830   61.6250   -6.2070 H   0  0  0  0  0  0  0  0  0  0  0  0
   26.8840   59.1890   -3.1340 H   0  0  0  0  0  0  0  0  0  0  0  0
   25.2110   60.9760   -2.6150 H   0  0  0  0  0  0  0  0  0  0  0  0
  1  3  2  0  0  0  0
  1  2  2  0  0  0  0
  4  5  1  0  0  0  0
  4  1  1  0  0  0  0
  5 32  1  0  0  0  0
  5 31  1  0  0  0  0
  6 33  1  0  0  0  0
  6  5  1  0  0  0  0
  7  8  1  0  0  0  0
  7  6  1  0  0  0  0
  8 36  1  0  0  0  0
  8  9  1  0  0  0  0
  9 37  1  0  0  0  0
  9  4  1  0  0  0  0
 10  7  1  0  0  0  0
 11 10  2  0  0  0  0
 12 39  1  0  0  0  0
 12 10  1  0  0  0  0
 13 12  1  0  0  0  0
 14 13  1  1  0  0  0
 14 15  1  0  0  0  0
 15 16  2  0  0  0  0
 16 41  1  0  0  0  0
 17 16  1  0  0  0  0
 18 17  1  0  0  0  0
 19 23  1  0  0  0  0
 19 18  1  0  0  0  0
 20 19  1  0  0  0  0
 21 20  2  0  0  0  0
 21 22  1  0  0  0  0
 22 14  1  0  0  0  0
 22 18  2  0  0  0  0
 23 44  1  0  0  0  0
 23 43  1  0  0  0  0
 24  1  1  0  0  0  0
 24 29  1  0  0  0  0
 25 24  2  0  0  0  0
 26 25  1  0  0  0  0
 26 27  2  0  0  0  0
 27 28  1  0  0  0  0
 28 29  2  0  0  0  0
 28 48  1  0  0  0  0
 29 49  1  0  0  0  0
 30 27  1  0  0  0  0
 34  6  1  0  0  0  0
 35  8  1  0  0  0  0
 38  9  1  0  0  0  0
 40 12  1  0  0  0  0
 42 21  1  0  0  0  0
 45 23  1  0  0  0  0
 46 25  1  0  0  0  0
 47 26  1  0  0  0  0
M  END
>  <Pose>
1

>  <Score>
-7.22

$$$$
