
 OpenBabel03202210193D

 45 48  0  0  0  0  0  0  0  0999 V2000
   23.4420   64.2350   -5.2560 S   0  0  0  0  0  0  0  0  0  0  0  0
   23.6860   65.6050   -4.6640 O   0  0  0  0  0  0  0  0  0  0  0  0
   22.0720   63.8140   -4.8770 O   0  0  0  0  0  0  0  0  0  0  0  0
   23.6320   64.3380   -6.9650 N   0  0  0  0  0  0  0  0  0  0  0  0
   22.6240   65.1790   -7.4980 C   0  0  0  0  0  0  0  0  0  0  0  0
   21.8220   64.6550   -8.6550 C   0  0  0  0  0  0  0  0  0  0  0  0
   21.6920   63.2400   -8.5320 N   0  0  0  0  0  0  0  0  0  0  0  0
   23.0390   62.6960   -8.6970 C   0  0  0  0  0  0  0  0  0  0  0  0
   23.8380   63.0580   -7.5010 C   0  0  0  0  0  0  0  0  0  0  0  0
   20.7760   62.6340   -9.4370 C   0  0  0  0  0  0  0  0  0  0  0  0
   19.8940   63.6380  -10.0960 C   0  0  0  0  0  0  0  0  0  0  0  0
   18.5370   63.1590  -10.2580 N   0  0  0  0  0  0  0  0  0  0  0  0
   17.4410   63.8900  -10.4600 N   0  0  0  0  0  0  0  0  0  0  0  0
   16.3670   63.0970  -10.5780 C   0  0  0  0  0  0  0  0  0  0  0  0
   16.7910   61.8340  -10.4460 N   0  0  0  0  0  0  0  0  0  0  0  0
   15.9280   60.7920  -10.5180 C   0  0  0  0  0  0  0  0  0  0  0  0
   14.5790   60.9710  -10.7280 C   0  0  0  0  0  0  0  0  0  0  0  0
   14.1140   62.2640  -10.8670 C   0  0  0  0  0  0  0  0  0  0  0  0
   15.0160   63.3030  -10.7900 C   0  0  0  0  0  0  0  0  0  0  0  0
   18.1410   61.8860  -10.2480 C   0  0  0  0  0  0  0  0  0  0  0  0
   18.8180   60.8430  -10.0880 O   0  0  0  0  0  0  0  0  0  0  0  0
   24.5800   63.0560   -4.5850 C   0  0  0  0  0  0  0  0  0  0  0  0
   26.2230   62.8060   -4.9610 S   0  0  0  0  0  0  0  0  0  0  0  0
   26.5580   61.5230   -3.8930 C   0  0  0  0  0  0  0  0  0  0  0  0
   25.3600   61.3230   -3.2630 C   0  0  0  0  0  0  0  0  0  0  0  0
   24.3400   62.1130   -3.6190 C   0  0  0  0  0  0  0  0  0  0  0  0
   28.2070   60.5650   -3.6130 B   0  0  0  0  0  0  0  0  0  0  0  0
   21.8750   65.3780   -6.6680 H   0  0  0  0  0  0  0  0  0  0  0  0
   23.1090   66.1660   -7.7710 H   0  0  0  0  0  0  0  0  0  0  0  0
   20.8640   65.2160   -8.6520 H   0  0  0  0  0  0  0  0  0  0  0  0
   22.4260   64.9230   -9.5730 H   0  0  0  0  0  0  0  0  0  0  0  0
   23.0290   61.6050   -8.8190 H   0  0  0  0  0  0  0  0  0  0  0  0
   23.4670   63.2330   -9.5760 H   0  0  0  0  0  0  0  0  0  0  0  0
   23.6540   62.2570   -6.7280 H   0  0  0  0  0  0  0  0  0  0  0  0
   24.9220   62.9780   -7.7970 H   0  0  0  0  0  0  0  0  0  0  0  0
   21.3060   62.0620  -10.2600 H   0  0  0  0  0  0  0  0  0  0  0  0
   20.1410   61.8990   -8.8630 H   0  0  0  0  0  0  0  0  0  0  0  0
   19.8280   64.5480   -9.4340 H   0  0  0  0  0  0  0  0  0  0  0  0
   20.2740   63.9400  -11.1080 H   0  0  0  0  0  0  0  0  0  0  0  0
   16.2990   59.7770  -10.4080 H   0  0  0  0  0  0  0  0  0  0  0  0
   13.8780   60.1510  -10.7890 H   0  0  0  0  0  0  0  0  0  0  0  0
   13.0480   62.4210  -11.0340 H   0  0  0  0  0  0  0  0  0  0  0  0
   14.6410   64.3060  -10.8990 H   0  0  0  0  0  0  0  0  0  0  0  0
   25.2750   60.5260   -2.4910 H   0  0  0  0  0  0  0  0  0  0  0  0
   23.3230   62.0270   -3.1640 H   0  0  0  0  0  0  0  0  0  0  0  0
  1  3  2  0  0  0  0
  1  2  2  0  0  0  0
  1 22  1  0  0  0  0
  4  1  1  0  0  0  0
  5  4  1  0  0  0  0
  5 28  1  0  0  0  0
  6 30  1  0  0  0  0
  6  7  1  0  0  0  0
  6  5  1  0  0  0  0
  8  7  1  0  0  0  0
  8  9  1  0  0  0  0
  9  4  1  0  0  0  0
  9 34  1  0  0  0  0
 10 37  1  0  0  0  0
 10  7  1  0  0  0  0
 11 10  1  0  0  0  0
 11 38  1  0  0  0  0
 12 20  1  0  0  0  0
 12 11  1  0  0  0  0
 13 12  1  0  0  0  0
 14 13  2  0  0  0  0
 14 15  1  0  0  0  0
 15 20  1  0  0  0  0
 16 15  1  0  0  0  0
 16 40  1  0  0  0  0
 17 16  2  0  0  0  0
 18 19  2  0  0  0  0
 18 17  1  0  0  0  0
 19 14  1  0  0  0  0
 20 21  2  0  0  0  0
 22 26  2  0  0  0  0
 23 22  1  0  0  0  0
 23 24  1  0  0  0  0
 24 27  1  0  0  0  0
 24 25  2  0  0  0  0
 25 44  1  0  0  0  0
 26 25  1  0  0  0  0
 26 45  1  0  0  0  0
 29  5  1  0  0  0  0
 31  6  1  0  0  0  0
 32  8  1  0  0  0  0
 33  8  1  0  0  0  0
 35  9  1  0  0  0  0
 36 10  1  0  0  0  0
 39 11  1  0  0  0  0
 41 17  1  0  0  0  0
 42 18  1  0  0  0  0
 43 19  1  0  0  0  0
M  END
>  <Pose>
1

>  <Score>
-6.95

$$$$
