
 OpenBabel03202210193D

 54 57  0  0  0  0  0  0  0  0999 V2000
   24.2340   63.6780  -13.6480 B   0  0  0  0  0  0  0  0  0  0  0  0
   23.0880   63.3010  -12.1700 C   0  0  0  0  0  0  0  0  0  0  0  0
   21.7870   62.8930  -12.3660 C   0  0  0  0  0  0  0  0  0  0  0  0
   20.9620   62.6230  -11.2730 C   0  0  0  0  0  0  0  0  0  0  0  0
   21.4640   62.7690  -10.0140 C   0  0  0  0  0  0  0  0  0  0  0  0
   22.7510   63.1720   -9.8020 C   0  0  0  0  0  0  0  0  0  0  0  0
   23.5640   63.4370  -10.8770 C   0  0  0  0  0  0  0  0  0  0  0  0
   20.5180   62.5000   -8.8570 C   0  0  0  0  0  0  0  0  0  0  0  0
   19.3080   63.2710   -8.9840 N   0  0  0  0  0  0  0  0  0  0  0  0
   18.1790   62.8260   -9.6260 C   0  0  0  0  0  0  0  0  0  0  0  0
   17.2140   63.8120   -9.6000 C   0  0  0  0  0  0  0  0  0  0  0  0
   17.7710   64.8330   -8.9420 N   0  0  0  0  0  0  0  0  0  0  0  0
   19.0480   64.5080   -8.5610 C   0  0  0  0  0  0  0  0  0  0  0  0
   19.8230   65.3700   -7.7690 N   0  0  0  0  0  0  0  0  0  0  0  0
   20.5950   66.5020   -8.1380 C   0  0  0  0  0  0  0  0  0  0  0  0
   21.7710   66.7380   -7.1840 C   0  0  0  0  0  0  0  0  0  0  0  0
   22.2230   65.6070   -6.4850 N   0  0  0  0  0  0  0  0  0  0  0  0
   21.2520   64.7940   -5.8660 C   0  0  0  0  0  0  0  0  0  0  0  0
   19.8370   65.0880   -6.3070 C   0  0  0  0  0  0  0  0  0  0  0  0
   23.4940   65.0720   -6.7500 C   0  0  0  0  0  0  0  0  0  0  0  0
   23.9860   64.0140   -5.8540 C   0  0  0  0  0  0  0  0  0  0  0  0
   24.3960   62.9010   -6.2780 O   0  0  0  0  0  0  0  0  0  0  0  0
   24.0070   64.2250   -4.4930 O   0  0  0  0  0  0  0  0  0  0  0  0
   24.7770   63.4460   -3.6180 C   0  0  0  0  0  0  0  0  0  0  0  0
   16.0050   63.6160  -10.1610 N   0  0  0  0  0  0  0  0  0  0  0  0
   15.7620   62.4340  -10.7460 C   0  0  0  0  0  0  0  0  0  0  0  0
   14.6310   62.2620  -11.2660 O   0  0  0  0  0  0  0  0  0  0  0  0
   16.6700   61.4540  -10.7900 N   0  0  0  0  0  0  0  0  0  0  0  0
   17.9080   61.6170  -10.2330 C   0  0  0  0  0  0  0  0  0  0  0  0
   18.7360   60.6770  -10.2890 O   0  0  0  0  0  0  0  0  0  0  0  0
   15.0210   64.6810  -10.1150 C   0  0  0  0  0  0  0  0  0  0  0  0
   21.3670   62.7710  -13.3690 H   0  0  0  0  0  0  0  0  0  0  0  0
   19.9360   62.2970  -11.4840 H   0  0  0  0  0  0  0  0  0  0  0  0
   23.1370   63.2970   -8.8080 H   0  0  0  0  0  0  0  0  0  0  0  0
   24.5800   63.7550  -10.7020 H   0  0  0  0  0  0  0  0  0  0  0  0
   21.1340   62.7220   -7.9880 H   0  0  0  0  0  0  0  0  0  0  0  0
   20.2760   61.4050   -8.9060 H   0  0  0  0  0  0  0  0  0  0  0  0
   21.0920   66.4100   -9.1400 H   0  0  0  0  0  0  0  0  0  0  0  0
   19.9780   67.4150   -8.0390 H   0  0  0  0  0  0  0  0  0  0  0  0
   22.6390   67.1990   -7.7250 H   0  0  0  0  0  0  0  0  0  0  0  0
   21.5070   67.5170   -6.4050 H   0  0  0  0  0  0  0  0  0  0  0  0
   21.2830   65.0010   -4.7650 H   0  0  0  0  0  0  0  0  0  0  0  0
   21.5080   63.7280   -5.9840 H   0  0  0  0  0  0  0  0  0  0  0  0
   19.4310   66.0080   -5.8400 H   0  0  0  0  0  0  0  0  0  0  0  0
   19.2130   64.2180   -6.0660 H   0  0  0  0  0  0  0  0  0  0  0  0
   24.2480   65.8830   -6.9020 H   0  0  0  0  0  0  0  0  0  0  0  0
   23.4370   64.5870   -7.7750 H   0  0  0  0  0  0  0  0  0  0  0  0
   24.1490   62.6770   -3.1080 H   0  0  0  0  0  0  0  0  0  0  0  0
   25.1290   64.1440   -2.8060 H   0  0  0  0  0  0  0  0  0  0  0  0
   25.6230   62.9160   -4.0960 H   0  0  0  0  0  0  0  0  0  0  0  0
   16.4620   60.5320  -11.2520 H   0  0  0  0  0  0  0  0  0  0  0  0
   14.8060   64.8810   -9.0440 H   0  0  0  0  0  0  0  0  0  0  0  0
   15.4400   65.6320  -10.5330 H   0  0  0  0  0  0  0  0  0  0  0  0
   14.1460   64.3950  -10.7110 H   0  0  0  0  0  0  0  0  0  0  0  0
  1  2  1  0  0  0  0
  2  7  1  0  0  0  0
  3  2  2  0  0  0  0
  3  4  1  0  0  0  0
  4  5  2  0  0  0  0
  5  6  1  0  0  0  0
  5  8  1  0  0  0  0
  6 34  1  0  0  0  0
  7 35  1  0  0  0  0
  7  6  2  0  0  0  0
  8 36  1  0  0  0  0
  9  8  1  0  0  0  0
  9 13  1  0  0  0  0
 10 11  2  0  0  0  0
 10  9  1  0  0  0  0
 11 12  1  0  0  0  0
 12 13  2  0  0  0  0
 13 14  1  0  0  0  0
 14 19  1  0  0  0  0
 15 39  1  0  0  0  0
 15 14  1  0  0  0  0
 15 16  1  0  0  0  0
 16 17  1  0  0  0  0
 16 41  1  0  0  0  0
 17 18  1  0  0  0  0
 18 42  1  0  0  0  0
 19 45  1  0  0  0  0
 19 18  1  0  0  0  0
 19 44  1  0  0  0  0
 20 17  1  0  0  0  0
 20 21  1  0  0  0  0
 21 23  1  0  0  0  0
 22 21  2  0  0  0  0
 23 24  1  0  0  0  0
 24 48  1  0  0  0  0
 24 49  1  0  0  0  0
 25 31  1  0  0  0  0
 25 11  1  0  0  0  0
 26 25  1  0  0  0  0
 27 26  2  0  0  0  0
 28 26  1  0  0  0  0
 28 29  1  0  0  0  0
 29 10  1  0  0  0  0
 30 29  2  0  0  0  0
 31 52  1  0  0  0  0
 32  3  1  0  0  0  0
 33  4  1  0  0  0  0
 37  8  1  0  0  0  0
 38 15  1  0  0  0  0
 40 16  1  0  0  0  0
 43 18  1  0  0  0  0
 46 20  1  0  0  0  0
 47 20  1  0  0  0  0
 50 24  1  0  0  0  0
 51 28  1  0  0  0  0
 53 31  1  0  0  0  0
 54 31  1  0  0  0  0
M  END
>  <Pose>
1

>  <Score>
-5.06

$$$$
