
 OpenBabel03202210193D

 36 39  0  0  1  0  0  0  0  0999 V2000
   25.2250   62.9710   -2.9900 Cl  0  0  0  0  0  0  0  0  0  0  0  0
   24.4900   63.2700   -4.5550 C   0  0  0  0  0  0  0  0  0  0  0  0
   25.1440   62.9170   -5.7180 C   0  0  0  0  0  0  0  0  0  0  0  0
   24.5570   63.1570   -6.9480 C   0  0  0  0  0  0  0  0  0  0  0  0
   23.3180   63.7460   -7.0840 C   0  0  0  0  0  0  0  0  0  0  0  0
   22.6680   64.0970   -5.9090 C   0  0  0  0  0  0  0  0  0  0  0  0
   23.2500   63.8600   -4.6780 C   0  0  0  0  0  0  0  0  0  0  0  0
   22.7030   63.9980   -8.3490 N   0  0  0  0  0  0  0  0  0  0  0  0
   22.9270   63.3160   -9.5920 C   0  0  0  0  0  0  0  0  0  0  0  0
   23.7470   62.3850   -9.7910 O   0  0  0  0  0  0  0  0  0  0  0  0
   22.0390   63.8720  -10.6380 C   0  0  1  0  0  0  0  0  0  0  0  0
   21.3230   62.8880  -11.3100 O   0  0  0  0  0  0  0  0  0  0  0  0
   20.4780   62.3370  -10.4540 N   0  0  1  0  0  0  0  0  0  0  0  0
   20.1800   63.2080   -9.4040 C   0  0  1  0  0  0  0  0  0  0  0  0
   20.9370   64.4830   -9.7790 C   0  0  1  0  0  0  0  0  0  0  0  0
   21.7260   64.9970   -8.6340 C   0  0  0  0  0  0  0  0  0  0  0  0
   21.6090   66.0850   -7.9940 O   0  0  0  0  0  0  0  0  0  0  0  0
   18.7760   63.4600   -9.0500 C   0  0  0  0  0  0  0  0  0  0  0  0
   17.7300   62.7200   -9.7860 C   0  0  0  0  0  0  0  0  0  0  0  0
   18.2580   61.3460  -10.1330 C   0  0  0  0  0  0  0  0  0  0  0  0
   19.4560   61.5610  -11.0220 C   0  0  0  0  0  0  0  0  0  0  0  0
   26.1340   62.4440   -5.6660 H   0  0  0  0  0  0  0  0  0  0  0  0
   25.0630   62.8830   -7.8610 H   0  0  0  0  0  0  0  0  0  0  0  0
   21.6910   64.5620   -6.0070 H   0  0  0  0  0  0  0  0  0  0  0  0
   22.7470   64.1320   -3.7660 H   0  0  0  0  0  0  0  0  0  0  0  0
   22.5120   64.5930  -11.2980 H   0  0  0  0  0  0  0  0  0  0  0  0
   20.7130   62.8260   -8.4810 H   0  0  0  0  0  0  0  0  0  0  0  0
   20.3370   65.2200  -10.2920 H   0  0  0  0  0  0  0  0  0  0  0  0
   18.5710   64.5630   -9.1990 H   0  0  0  0  0  0  0  0  0  0  0  0
   18.5850   63.3190   -7.9450 H   0  0  0  0  0  0  0  0  0  0  0  0
   16.8350   62.5610   -9.1380 H   0  0  0  0  0  0  0  0  0  0  0  0
   17.4010   63.1900  -10.7350 H   0  0  0  0  0  0  0  0  0  0  0  0
   17.4780   60.8340  -10.7310 H   0  0  0  0  0  0  0  0  0  0  0  0
   18.4740   60.7360   -9.2520 H   0  0  0  0  0  0  0  0  0  0  0  0
   19.0820   61.9620  -11.9970 H   0  0  0  0  0  0  0  0  0  0  0  0
   19.8600   60.5380  -11.2650 H   0  0  0  0  0  0  0  0  0  0  0  0
  2  1  1  0  0  0  0
  3 22  1  0  0  0  0
  3  2  2  0  0  0  0
  4  3  1  0  0  0  0
  5  4  2  0  0  0  0
  5  6  1  0  0  0  0
  6  7  2  0  0  0  0
  7  2  1  0  0  0  0
  7 25  1  0  0  0  0
  8  5  1  0  0  0  0
  9  8  1  0  0  0  0
 10  9  2  0  0  0  0
 11 26  1  6  0  0  0
 11 15  1  0  0  0  0
 11  9  1  0  0  0  0
 12 11  1  0  0  0  0
 13 12  1  6  0  0  0
 13 14  1  0  0  0  0
 14 18  1  0  0  0  0
 14 27  1  1  0  0  0
 15 28  1  6  0  0  0
 15 14  1  0  0  0  0
 15 16  1  0  0  0  0
 16  8  1  0  0  0  0
 16 17  2  0  0  0  0
 18 30  1  0  0  0  0
 19 31  1  0  0  0  0
 19 18  1  0  0  0  0
 20 19  1  0  0  0  0
 20 34  1  0  0  0  0
 21 13  1  0  0  0  0
 21 20  1  0  0  0  0
 23  4  1  0  0  0  0
 24  6  1  0  0  0  0
 29 18  1  0  0  0  0
 32 19  1  0  0  0  0
 33 20  1  0  0  0  0
 35 21  1  0  0  0  0
 36 21  1  0  0  0  0
M  END
>  <Pose>
1

>  <Score>
-5.57

$$$$
