
 OpenBabel03202210193D

 52 55  0  0  0  0  0  0  0  0999 V2000
   15.6970   64.8760  -10.6400 B   0  0  0  0  0  0  0  0  0  0  0  0
   16.7390   63.3100  -10.3660 C   0  0  0  0  0  0  0  0  0  0  0  0
   16.0900   62.0850  -10.3610 C   0  0  0  0  0  0  0  0  0  0  0  0
   16.8680   60.9620  -10.1550 C   0  0  0  0  0  0  0  0  0  0  0  0
   18.2210   61.0610   -9.9630 C   0  0  0  0  0  0  0  0  0  0  0  0
   18.8960   62.2810   -9.9660 C   0  0  0  0  0  0  0  0  0  0  0  0
   18.1050   63.3900  -10.1720 C   0  0  0  0  0  0  0  0  0  0  0  0
   20.3320   62.3140   -9.7790 C   0  0  0  0  0  0  0  0  0  0  0  0
   20.8690   62.6390   -8.6530 N   0  0  0  0  0  0  0  0  0  0  0  0
   22.2340   62.6880   -8.4280 N   0  0  0  0  0  0  0  0  0  0  0  0
   22.7780   63.5930   -7.4760 C   0  0  0  0  0  0  0  0  0  0  0  0
   22.4270   64.8690   -7.4900 N   0  0  0  0  0  4  0  0  0  0  0  0
   22.8670   65.7860   -6.6110 C   0  0  0  0  0  0  0  0  0  0  0  0
   23.7230   65.3520   -5.6610 N   0  0  0  0  0  0  0  0  0  0  0  0
   24.1210   64.0530   -5.5940 C   0  0  0  0  0  0  0  0  0  0  0  0
   23.6350   63.1850   -6.5160 N   0  0  0  0  0  0  0  0  0  0  0  0
   25.0020   63.6110   -4.5870 N   0  0  0  0  0  0  0  0  0  0  0  0
   24.6350   63.6580   -3.1950 C   0  0  0  0  0  0  0  0  0  0  0  0
   24.8710   62.2360   -2.6660 C   0  0  0  0  0  0  0  0  0  0  0  0
   26.1600   61.8510   -2.9730 O   0  0  0  0  0  0  0  0  0  0  0  0
   26.2960   61.6500   -4.3460 C   0  0  0  0  0  0  0  0  0  0  0  0
   26.2920   63.0750   -4.9410 C   0  0  0  0  0  0  0  0  0  0  0  0
   22.4530   67.1620   -6.6650 N   0  0  0  0  0  0  0  0  0  0  0  0
   21.0900   67.5220   -6.9340 C   0  0  0  0  0  0  0  0  0  0  0  0
   20.7220   68.9380   -6.7170 C   0  0  0  0  0  0  0  0  0  0  0  0
   21.8000   69.8090   -6.6350 O   0  0  0  0  0  0  0  0  0  0  0  0
   22.7780   69.3490   -5.7650 C   0  0  0  0  0  0  0  0  0  0  0  0
   23.4420   68.1740   -6.4400 C   0  0  0  0  0  0  0  0  0  0  0  0
   19.0020   59.9190   -9.7530 O   0  0  0  0  0  0  0  0  0  0  0  0
   14.7150   61.9730  -10.5550 O   0  0  0  0  0  0  0  0  0  0  0  0
   16.3380   60.0030  -10.1530 H   0  0  0  0  0  0  0  0  0  0  0  0
   18.6220   64.3610  -10.1750 H   0  0  0  0  0  0  0  0  0  0  0  0
   20.9820   62.0610  -10.6010 H   0  0  0  0  0  0  0  0  0  0  0  0
   22.8650   62.0690   -8.9520 H   0  0  0  0  0  0  0  0  0  0  0  0
   25.3000   64.3630   -2.6540 H   0  0  0  0  0  0  0  0  0  0  0  0
   23.5570   63.9270   -3.0640 H   0  0  0  0  0  0  0  0  0  0  0  0
   24.6720   62.2450   -1.5790 H   0  0  0  0  0  0  0  0  0  0  0  0
   24.1190   61.5910   -3.1840 H   0  0  0  0  0  0  0  0  0  0  0  0
   25.3370   61.1770   -4.7150 H   0  0  0  0  0  0  0  0  0  0  0  0
   27.1850   61.0840   -4.6110 H   0  0  0  0  0  0  0  0  0  0  0  0
   27.0590   63.6380   -4.3340 H   0  0  0  0  0  0  0  0  0  0  0  0
   26.5110   63.0750   -6.0130 H   0  0  0  0  0  0  0  0  0  0  0  0
   20.8770   67.2020   -7.9910 H   0  0  0  0  0  0  0  0  0  0  0  0
   20.4480   66.8820   -6.2540 H   0  0  0  0  0  0  0  0  0  0  0  0
   20.0740   69.0470   -5.8100 H   0  0  0  0  0  0  0  0  0  0  0  0
   20.0970   69.2790   -7.5820 H   0  0  0  0  0  0  0  0  0  0  0  0
   23.4610   70.1780   -5.5570 H   0  0  0  0  0  0  0  0  0  0  0  0
   22.3480   68.9430   -4.8110 H   0  0  0  0  0  0  0  0  0  0  0  0
   24.2310   67.8320   -5.7190 H   0  0  0  0  0  0  0  0  0  0  0  0
   23.9650   68.4660   -7.3750 H   0  0  0  0  0  0  0  0  0  0  0  0
   20.0070   60.0350   -9.6630 H   0  0  0  0  0  0  0  0  0  0  0  0
   14.0730   61.6590   -9.8430 H   0  0  0  0  0  0  0  0  0  0  0  0
  1  2  1  0  0  0  0
  2  3  2  0  0  0  0
  2  7  1  0  0  0  0
  3  4  1  0  0  0  0
  4 31  1  0  0  0  0
  4  5  2  0  0  0  0
  5 29  1  0  0  0  0
  6  5  1  0  0  0  0
  6  8  1  0  0  0  0
  7  6  2  0  0  0  0
  8  9  2  0  0  0  0
  9 10  1  0  0  0  0
 10 11  1  0  0  0  0
 11 16  1  0  0  0  0
 12 11  2  0  0  0  0
 12 13  2  0  0  0  0
 13 14  1  0  0  0  0
 14 15  2  0  0  0  0
 15 17  1  0  0  0  0
 16 15  1  0  0  0  0
 17 18  1  0  0  0  0
 18 36  1  0  0  0  0
 18 19  1  0  0  0  0
 18 35  1  0  0  0  0
 19 37  1  0  0  0  0
 20 19  1  0  0  0  0
 21 20  1  0  0  0  0
 22 17  1  0  0  0  0
 22 21  1  0  0  0  0
 22 41  1  0  0  0  0
 23 13  1  0  0  0  0
 23 28  1  0  0  0  0
 24 25  1  0  0  0  0
 24 23  1  0  0  0  0
 24 44  1  0  0  0  0
 25 26  1  0  0  0  0
 25 45  1  0  0  0  0
 26 27  1  0  0  0  0
 27 47  1  0  0  0  0
 27 48  1  0  0  0  0
 28 27  1  0  0  0  0
 28 49  1  0  0  0  0
 29 51  1  0  0  0  0
 30  3  1  0  0  0  0
 30 52  1  0  0  0  0
 32  7  1  0  0  0  0
 33  8  1  0  0  0  0
 34 10  1  0  0  0  0
 38 19  1  0  0  0  0
 39 21  1  0  0  0  0
 40 21  1  0  0  0  0
 42 22  1  0  0  0  0
 43 24  1  0  0  0  0
 46 25  1  0  0  0  0
 50 28  1  0  0  0  0
M  END
>  <Pose>
1

>  <Score>
-9.62

$$$$
