
 OpenBabel03202210193D

 56 59  0  0  1  0  0  0  0  0999 V2000
   15.4440   64.0410  -11.0990 Cl  0  0  0  0  0  0  0  0  0  0  0  0
   16.9530   63.2980  -10.5600 C   0  0  0  0  0  0  0  0  0  0  0  0
   17.9380   64.1050  -10.0890 C   0  0  0  0  0  0  0  0  0  0  0  0
   19.1220   63.4870   -9.6720 C   0  0  0  0  0  0  0  0  0  0  0  0
   19.2980   62.1480   -9.7260 C   0  0  0  0  0  0  0  0  0  0  0  0
   20.5550   61.8880   -9.2530 N   0  0  0  0  0  0  0  0  0  0  0  0
   21.1750   63.0180   -8.9030 C   0  0  0  0  0  0  0  0  0  0  0  0
   20.2750   64.0510   -9.1630 C   0  0  0  0  0  0  0  0  0  0  0  0
   22.5000   63.2380   -8.3920 C   0  0  0  0  0  0  0  0  0  0  0  0
   23.1460   62.0990   -8.1070 O   0  0  0  0  0  0  0  0  0  0  0  0
   23.2480   64.3660   -8.1340 N   0  0  0  0  0  0  0  0  0  0  0  0
   22.6430   65.1820   -7.0440 C   0  0  0  0  0  0  0  0  0  0  0  0
   23.2050   64.7220   -5.7130 C   0  0  0  0  0  0  0  0  0  0  0  0
   24.4920   64.0370   -5.9760 C   0  0  1  0  0  0  0  0  0  0  0  0
   25.4630   64.9500   -6.6520 C   0  0  2  0  0  0  0  0  0  0  0  0
   25.7100   64.3490   -8.0470 C   0  0  0  0  0  0  0  0  0  0  0  0
   24.4360   64.7170   -8.8320 C   0  0  0  0  0  0  0  0  0  0  0  0
   26.6600   65.1190   -5.9580 O   0  0  0  0  0  0  0  0  0  0  0  0
   25.1240   63.3510   -4.8950 N   0  0  0  0  0  0  0  0  0  0  0  0
   24.8750   61.9320   -4.8450 C   0  0  0  0  0  0  0  0  0  0  0  0
   23.4450   61.6290   -4.6060 C   0  0  0  0  0  0  0  0  0  0  0  0
   23.0720   62.3250   -3.3690 N   0  0  0  0  0  0  0  0  0  0  0  0
   24.1280   63.0550   -2.7180 C   0  0  0  0  0  0  0  0  0  0  0  0
   24.9100   63.9690   -3.6150 C   0  0  0  0  0  0  0  0  0  0  0  0
   21.7360   62.2340   -2.8740 C   0  0  0  0  0  0  0  0  0  0  0  0
   20.9000   63.0820   -3.2150 O   0  0  0  0  0  0  0  0  0  0  0  0
   21.3930   61.1060   -1.9510 C   0  0  0  0  0  0  0  0  0  0  0  0
   18.2950   61.3490  -10.2040 C   0  0  0  0  0  0  0  0  0  0  0  0
   17.1080   61.9290  -10.6260 C   0  0  0  0  0  0  0  0  0  0  0  0
   17.8290   65.1680  -10.0350 H   0  0  0  0  0  0  0  0  0  0  0  0
   20.9000   60.9220   -9.1890 H   0  0  0  0  0  0  0  0  0  0  0  0
   20.4730   65.0890   -8.9860 H   0  0  0  0  0  0  0  0  0  0  0  0
   21.5590   65.0450   -7.0170 H   0  0  0  0  0  0  0  0  0  0  0  0
   22.8470   66.2370   -7.2810 H   0  0  0  0  0  0  0  0  0  0  0  0
   22.4740   64.1370   -5.1350 H   0  0  0  0  0  0  0  0  0  0  0  0
   23.3580   65.6950   -5.1450 H   0  0  0  0  0  0  0  0  0  0  0  0
   24.2030   63.1760   -6.6900 H   0  0  0  0  0  0  0  0  0  0  0  0
   25.0680   65.9810   -6.8580 H   0  0  0  0  0  0  0  0  0  0  0  0
   26.5820   64.7620   -8.5340 H   0  0  0  0  0  0  0  0  0  0  0  0
   25.7230   63.2460   -7.8910 H   0  0  0  0  0  0  0  0  0  0  0  0
   24.5550   64.3960   -9.8440 H   0  0  0  0  0  0  0  0  0  0  0  0
   24.5100   65.8700   -8.8910 H   0  0  0  0  0  0  0  0  0  0  0  0
   26.7120   64.3380   -5.3170 H   0  0  0  0  0  0  0  0  0  0  0  0
   25.4970   61.5310   -4.0000 H   0  0  0  0  0  0  0  0  0  0  0  0
   25.2660   61.4740   -5.7900 H   0  0  0  0  0  0  0  0  0  0  0  0
   22.8100   61.8930   -5.4530 H   0  0  0  0  0  0  0  0  0  0  0  0
   23.3760   60.5300   -4.3950 H   0  0  0  0  0  0  0  0  0  0  0  0
   24.7950   62.2850   -2.2460 H   0  0  0  0  0  0  0  0  0  0  0  0
   23.7080   63.6490   -1.8450 H   0  0  0  0  0  0  0  0  0  0  0  0
   25.9110   64.1190   -3.1380 H   0  0  0  0  0  0  0  0  0  0  0  0
   24.4640   64.9790   -3.6680 H   0  0  0  0  0  0  0  0  0  0  0  0
   22.2500   60.4240   -1.8530 H   0  0  0  0  0  0  0  0  0  0  0  0
   21.1200   61.5500   -0.9550 H   0  0  0  0  0  0  0  0  0  0  0  0
   20.5210   60.5880   -2.3480 H   0  0  0  0  0  0  0  0  0  0  0  0
   18.4010   60.2730  -10.2570 H   0  0  0  0  0  0  0  0  0  0  0  0
   16.2860   61.3520  -11.0100 H   0  0  0  0  0  0  0  0  0  0  0  0
  1  2  1  0  0  0  0
  2  3  1  0  0  0  0
  3 30  1  0  0  0  0
  3  4  2  0  0  0  0
  4  8  1  0  0  0  0
  5  4  1  0  0  0  0
  5  6  1  0  0  0  0
  6 31  1  0  0  0  0
  6  7  1  0  0  0  0
  7  9  1  0  0  0  0
  8 32  1  0  0  0  0
  8  7  2  0  0  0  0
  9 11  1  0  0  0  0
  9 10  2  0  0  0  0
 11 12  1  0  0  0  0
 12 33  1  0  0  0  0
 12 13  1  0  0  0  0
 13 36  1  0  0  0  0
 13 35  1  0  0  0  0
 14 37  1  6  0  0  0
 14 13  1  0  0  0  0
 14 19  1  0  0  0  0
 15 38  1  6  0  0  0
 15 14  1  0  0  0  0
 15 18  1  0  0  0  0
 16 40  1  0  0  0  0
 16 15  1  0  0  0  0
 17 11  1  0  0  0  0
 17 16  1  0  0  0  0
 18 43  1  0  0  0  0
 19 20  1  0  0  0  0
 19 24  1  0  0  0  0
 20 21  1  0  0  0  0
 20 44  1  0  0  0  0
 21 47  1  0  0  0  0
 21 22  1  0  0  0  0
 22 25  1  0  0  0  0
 22 23  1  0  0  0  0
 23 48  1  0  0  0  0
 23 49  1  0  0  0  0
 24 50  1  0  0  0  0
 24 23  1  0  0  0  0
 25 27  1  0  0  0  0
 26 25  2  0  0  0  0
 27 52  1  0  0  0  0
 27 53  1  0  0  0  0
 28  5  2  0  0  0  0
 29  2  2  0  0  0  0
 29 28  1  0  0  0  0
 34 12  1  0  0  0  0
 39 16  1  0  0  0  0
 41 17  1  0  0  0  0
 42 17  1  0  0  0  0
 45 20  1  0  0  0  0
 46 21  1  0  0  0  0
 51 24  1  0  0  0  0
 54 27  1  0  0  0  0
 55 28  1  0  0  0  0
 56 29  1  0  0  0  0
M  END
>  <Pose>
1

>  <Score>
-5.27

$$$$
