
 OpenBabel03202210193D

 42 45  0  0  0  0  0  0  0  0999 V2000
   23.6250   70.0670   -5.7200 Cl  0  0  0  0  0  0  0  0  0  0  0  0
   23.0230   68.5110   -6.2520 C   0  0  0  0  0  0  0  0  0  0  0  0
   21.7810   68.4240   -6.8450 C   0  0  0  0  0  0  0  0  0  0  0  0
   21.3580   67.1620   -7.2470 C   0  0  0  0  0  0  0  0  0  0  0  0
   22.1050   66.0230   -7.0830 C   0  0  0  0  0  0  0  0  0  0  0  0
   23.3380   66.1310   -6.4920 C   0  0  0  0  0  0  0  0  0  0  0  0
   23.7750   67.3690   -6.0880 C   0  0  0  0  0  0  0  0  0  0  0  0
   21.5980   64.7270   -7.5300 C   0  0  0  0  0  0  0  0  0  0  0  0
   22.2090   64.1760   -8.6780 N   0  0  0  0  0  0  0  0  0  0  0  0
   22.6050   62.8250   -8.6320 C   0  0  0  0  0  0  0  0  0  0  0  0
   21.6110   61.8170   -9.1440 C   0  0  0  0  0  0  0  0  0  0  0  0
   20.7050   62.5640  -10.0560 N   0  0  0  0  0  0  0  0  0  0  0  0
   21.3650   63.5300  -10.8500 C   0  0  0  0  0  0  0  0  0  0  0  0
   21.7510   64.6780   -9.9430 C   0  0  0  0  0  0  0  0  0  0  0  0
   19.3430   62.1950  -10.0320 C   0  0  0  0  0  0  0  0  0  0  0  0
   19.0120   60.8810   -9.8500 N   0  0  0  0  0  0  0  0  0  0  0  0
   17.7750   60.4000   -9.8430 C   0  0  0  0  0  0  0  0  0  0  0  0
   16.7550   61.2540  -10.0270 N   0  0  0  0  0  0  0  0  0  0  0  0
   17.0210   62.5670  -10.2100 C   0  0  0  0  0  0  0  0  0  0  0  0
   16.2220   63.6330  -10.4010 N   0  0  0  0  0  0  0  0  0  0  0  0
   16.9720   64.7290  -10.5180 C   0  0  0  0  0  0  0  0  0  0  0  0
   18.2730   64.4080  -10.4070 N   0  0  0  0  0  0  0  0  0  0  0  0
   18.3200   63.0790  -10.2180 C   0  0  0  0  0  0  0  0  0  0  0  0
   17.4960   58.9980   -9.6460 N   0  0  0  0  0  0  0  0  0  0  0  0
   21.1630   69.3050   -6.9900 H   0  0  0  0  0  0  0  0  0  0  0  0
   20.3690   67.1560   -7.7090 H   0  0  0  0  0  0  0  0  0  0  0  0
   23.9800   65.2450   -6.3360 H   0  0  0  0  0  0  0  0  0  0  0  0
   24.7620   67.4550   -5.6130 H   0  0  0  0  0  0  0  0  0  0  0  0
   21.6130   63.9580   -6.7190 H   0  0  0  0  0  0  0  0  0  0  0  0
   20.4990   64.8650   -7.7540 H   0  0  0  0  0  0  0  0  0  0  0  0
   22.8760   62.5480   -7.6160 H   0  0  0  0  0  0  0  0  0  0  0  0
   23.5460   62.7170   -9.2460 H   0  0  0  0  0  0  0  0  0  0  0  0
   21.0570   61.2820   -8.3750 H   0  0  0  0  0  0  0  0  0  0  0  0
   22.1080   61.0720   -9.8000 H   0  0  0  0  0  0  0  0  0  0  0  0
   22.3720   63.0560  -11.1430 H   0  0  0  0  0  0  0  0  0  0  0  0
   20.9400   63.8120  -11.8010 H   0  0  0  0  0  0  0  0  0  0  0  0
   20.9500   65.4170   -9.7830 H   0  0  0  0  0  0  0  0  0  0  0  0
   22.6050   65.2030  -10.4310 H   0  0  0  0  0  0  0  0  0  0  0  0
   16.5580   65.7300  -10.6810 H   0  0  0  0  0  0  0  0  0  0  0  0
   19.0520   65.0990  -10.4550 H   0  0  0  0  0  0  0  0  0  0  0  0
   17.5780   58.5490   -8.7230 H   0  0  0  0  0  0  0  0  0  0  0  0
   17.2020   58.4130  -10.4530 H   0  0  0  0  0  0  0  0  0  0  0  0
  2  7  1  0  0  0  0
  2  1  1  0  0  0  0
  3  2  2  0  0  0  0
  4  5  2  0  0  0  0
  4  3  1  0  0  0  0
  5  6  1  0  0  0  0
  6 27  1  0  0  0  0
  6  7  2  0  0  0  0
  7 28  1  0  0  0  0
  8  5  1  0  0  0  0
  8 29  1  0  0  0  0
  9 10  1  0  0  0  0
  9  8  1  0  0  0  0
 10 31  1  0  0  0  0
 11 10  1  0  0  0  0
 11 33  1  0  0  0  0
 12 15  1  0  0  0  0
 12 11  1  0  0  0  0
 13 12  1  0  0  0  0
 13 14  1  0  0  0  0
 14 37  1  0  0  0  0
 14  9  1  0  0  0  0
 15 16  1  0  0  0  0
 16 17  2  0  0  0  0
 17 24  1  0  0  0  0
 18 17  1  0  0  0  0
 19 18  2  0  0  0  0
 20 19  1  0  0  0  0
 21 22  1  0  0  0  0
 21 20  2  0  0  0  0
 22 23  1  0  0  0  0
 23 19  1  0  0  0  0
 23 15  2  0  0  0  0
 24 41  1  0  0  0  0
 25  3  1  0  0  0  0
 26  4  1  0  0  0  0
 30  8  1  0  0  0  0
 32 10  1  0  0  0  0
 34 11  1  0  0  0  0
 35 13  1  0  0  0  0
 36 13  1  0  0  0  0
 38 14  1  0  0  0  0
 39 21  1  0  0  0  0
 40 22  1  0  0  0  0
 42 24  1  0  0  0  0
M  END
>  <Pose>
1

>  <Score>
-7.86

$$$$
