
 OpenBabel03202210193D

 54 57  0  0  0  0  0  0  0  0999 V2000
   21.1780   67.8040   -6.9000 B   0  0  0  0  0  0  0  0  0  0  0  0
   22.0940   66.1390   -7.0470 C   0  0  0  0  0  0  0  0  0  0  0  0
   21.6540   65.1610   -7.9120 C   0  0  0  0  0  0  0  0  0  0  0  0
   22.3140   63.9610   -8.0190 C   0  0  0  0  0  0  0  0  0  0  0  0
   23.4310   63.7630   -7.2360 C   0  0  0  0  0  0  0  0  0  0  0  0
   23.8870   64.7460   -6.3550 C   0  0  0  0  0  0  0  0  0  0  0  0
   23.2170   65.9550   -6.2520 C   0  0  0  0  0  0  0  0  0  0  0  0
   24.0790   62.5400   -7.3640 O   0  0  0  0  0  0  0  0  0  0  0  0
   25.1820   62.3220   -8.2130 C   0  0  0  0  0  0  0  0  0  0  0  0
   21.8590   62.9180   -8.9310 C   0  0  0  0  0  0  0  0  0  0  0  0
   20.6270   62.7260   -9.2180 N   0  0  0  0  0  0  0  0  0  0  0  0
   20.1740   61.7330  -10.0870 N   0  0  0  0  0  0  0  0  0  0  0  0
   18.8600   61.1930  -10.0200 C   0  0  0  0  0  0  0  0  0  0  0  0
   18.6050   59.9150   -9.6660 N   0  0  0  0  0  4  0  0  0  0  0  0
   17.3560   59.4360   -9.6130 C   0  0  0  0  0  0  0  0  0  0  0  0
   16.3430   60.2600   -9.9220 N   0  0  0  0  0  0  0  0  0  0  0  0
   16.5260   61.5570  -10.2870 C   0  0  0  0  0  0  0  0  0  0  0  0
   17.8220   61.9740  -10.3180 N   0  0  0  0  0  0  0  0  0  0  0  0
   15.4590   62.4160  -10.6090 N   0  0  0  0  0  0  0  0  0  0  0  0
   14.1930   61.9030  -11.0400 C   0  0  0  0  0  0  0  0  0  0  0  0
   13.8560   62.5970  -12.3580 C   0  0  0  0  0  0  0  0  0  0  0  0
   13.8860   63.9600  -12.1160 O   0  0  0  0  0  0  0  0  0  0  0  0
   15.1480   64.4290  -11.8370 C   0  0  0  0  0  0  0  0  0  0  0  0
   15.6280   63.8360  -10.5110 C   0  0  0  0  0  0  0  0  0  0  0  0
   17.0880   58.0920   -9.2390 N   0  0  0  0  0  0  0  0  0  0  0  0
   16.8700   57.6980   -7.8650 C   0  0  0  0  0  0  0  0  0  0  0  0
   17.5830   56.3930   -7.5460 C   0  0  0  0  0  0  0  0  0  0  0  0
   17.3750   55.4590   -8.5670 O   0  0  0  0  0  0  0  0  0  0  0  0
   17.8760   55.8990   -9.7690 C   0  0  0  0  0  0  0  0  0  0  0  0
   17.0230   57.0550  -10.2450 C   0  0  0  0  0  0  0  0  0  0  0  0
   20.7670   65.3020   -8.5410 H   0  0  0  0  0  0  0  0  0  0  0  0
   24.7750   64.5690   -5.7440 H   0  0  0  0  0  0  0  0  0  0  0  0
   23.5880   66.6990   -5.5670 H   0  0  0  0  0  0  0  0  0  0  0  0
   24.7700   61.9920   -9.2000 H   0  0  0  0  0  0  0  0  0  0  0  0
   25.8530   63.1910   -8.2950 H   0  0  0  0  0  0  0  0  0  0  0  0
   25.7680   61.4620   -7.8180 H   0  0  0  0  0  0  0  0  0  0  0  0
   22.5820   62.2650   -9.3980 H   0  0  0  0  0  0  0  0  0  0  0  0
   20.8640   61.3940  -10.8110 H   0  0  0  0  0  0  0  0  0  0  0  0
   14.2200   60.7900  -11.1730 H   0  0  0  0  0  0  0  0  0  0  0  0
   13.4070   62.1970  -10.3080 H   0  0  0  0  0  0  0  0  0  0  0  0
   12.8110   62.3080  -12.5900 H   0  0  0  0  0  0  0  0  0  0  0  0
   14.5250   62.2760  -13.1590 H   0  0  0  0  0  0  0  0  0  0  0  0
   15.8950   64.1090  -12.6030 H   0  0  0  0  0  0  0  0  0  0  0  0
   15.1140   65.5190  -11.7430 H   0  0  0  0  0  0  0  0  0  0  0  0
   16.6680   64.1370  -10.2960 H   0  0  0  0  0  0  0  0  0  0  0  0
   14.9210   64.2290   -9.7430 H   0  0  0  0  0  0  0  0  0  0  0  0
   15.7710   57.4560   -7.7890 H   0  0  0  0  0  0  0  0  0  0  0  0
   17.1740   58.4620   -7.1430 H   0  0  0  0  0  0  0  0  0  0  0  0
   18.6450   56.6220   -7.3900 H   0  0  0  0  0  0  0  0  0  0  0  0
   17.0870   55.9590   -6.6420 H   0  0  0  0  0  0  0  0  0  0  0  0
   18.9330   56.1980   -9.6210 H   0  0  0  0  0  0  0  0  0  0  0  0
   17.8700   55.0630  -10.4750 H   0  0  0  0  0  0  0  0  0  0  0  0
   15.9900   56.6980  -10.3050 H   0  0  0  0  0  0  0  0  0  0  0  0
   17.3430   57.4300  -11.2300 H   0  0  0  0  0  0  0  0  0  0  0  0
  2  1  1  0  0  0  0
  2  7  1  0  0  0  0
  3  2  2  0  0  0  0
  4  3  1  0  0  0  0
  4  5  2  0  0  0  0
  5  6  1  0  0  0  0
  6  7  2  0  0  0  0
  6 32  1  0  0  0  0
  7 33  1  0  0  0  0
  8  5  1  0  0  0  0
  9 36  1  0  0  0  0
  9  8  1  0  0  0  0
 10  4  1  0  0  0  0
 11 10  2  0  0  0  0
 12 13  1  0  0  0  0
 12 11  1  0  0  0  0
 13 14  2  0  0  0  0
 14 15  2  0  0  0  0
 15 25  1  0  0  0  0
 16 15  1  0  0  0  0
 17 16  2  0  0  0  0
 18 17  1  0  0  0  0
 18 13  1  0  0  0  0
 19 24  1  0  0  0  0
 19 17  1  0  0  0  0
 20 19  1  0  0  0  0
 20 40  1  0  0  0  0
 21 22  1  0  0  0  0
 21 20  1  0  0  0  0
 22 23  1  0  0  0  0
 23 44  1  0  0  0  0
 23 24  1  0  0  0  0
 24 45  1  0  0  0  0
 24 46  1  0  0  0  0
 25 26  1  0  0  0  0
 26 47  1  0  0  0  0
 26 27  1  0  0  0  0
 26 48  1  0  0  0  0
 27 49  1  0  0  0  0
 27 50  1  0  0  0  0
 28 27  1  0  0  0  0
 29 51  1  0  0  0  0
 29 28  1  0  0  0  0
 30 29  1  0  0  0  0
 30 25  1  0  0  0  0
 31  3  1  0  0  0  0
 34  9  1  0  0  0  0
 35  9  1  0  0  0  0
 37 10  1  0  0  0  0
 38 12  1  0  0  0  0
 39 20  1  0  0  0  0
 41 21  1  0  0  0  0
 42 21  1  0  0  0  0
 43 23  1  0  0  0  0
 52 29  1  0  0  0  0
 53 30  1  0  0  0  0
 54 30  1  0  0  0  0
M  END
>  <Pose>
1

>  <Score>
-7.30

$$$$
