
 OpenBabel03202210193D

 38 41  0  0  1  0  0  0  0  0999 V2000
   25.2290   63.0170   -5.0990 B   0  0  0  0  0  0  0  0  0  0  0  0
   23.9790   63.8120   -6.2970 C   0  0  0  0  0  0  0  0  0  0  0  0
   23.4970   63.1300   -7.3900 C   0  0  0  0  0  0  0  0  0  0  0  0
   22.5750   63.6870   -8.2900 C   0  0  0  0  0  0  0  0  0  0  0  0
   22.1710   64.9650   -8.0250 C   0  0  0  0  0  0  0  0  0  0  0  0
   22.6660   65.6490   -6.9120 C   0  0  0  0  0  0  0  0  0  0  0  0
   23.5580   65.0860   -6.0560 C   0  0  0  0  0  0  0  0  0  0  0  0
   22.1340   62.9160   -9.3830 N   0  0  0  0  0  0  0  0  0  0  0  0
   21.4740   63.4170  -10.5160 C   0  0  0  0  0  0  0  0  0  0  0  0
   21.9010   63.3800  -11.6790 O   0  0  0  0  0  0  0  0  0  0  0  0
   20.1280   64.0680  -10.3500 C   0  0  2  0  0  0  0  0  0  0  0  0
   19.2890   63.4650   -9.2540 C   0  0  0  0  0  0  0  0  0  0  0  0
   18.5830   62.6140  -10.2220 N   0  0  2  0  0  0  0  0  0  0  0  0
   19.0580   63.5220  -11.2490 C   0  0  0  0  0  0  0  0  0  0  0  0
   17.7990   61.4330  -10.1050 C   0  0  1  0  0  0  0  0  0  0  0  0
   18.3390   60.2420   -9.7390 N   0  0  0  0  0  0  0  0  0  0  0  0
   17.5640   59.1220   -9.6330 C   0  0  0  0  0  0  0  0  0  0  0  0
   16.2520   59.1620   -9.8860 N   0  0  0  0  0  0  0  0  0  0  0  0
   15.6560   60.2990  -10.2510 C   0  0  0  0  0  0  0  0  0  0  0  0
   14.3770   60.5940  -10.5550 N   0  0  0  0  0  0  0  0  0  0  0  0
   14.3520   61.8760  -10.8470 N   0  0  0  0  0  0  0  0  0  0  0  0
   15.5750   62.4060  -10.7370 N   0  0  0  0  0  0  0  0  0  0  0  0
   16.4410   61.4290  -10.3570 C   0  0  0  0  0  0  0  0  0  0  0  0
   13.2240   59.6970  -10.5700 C   0  0  0  0  0  0  0  0  0  0  0  0
   23.8460   62.1180   -7.5590 H   0  0  0  0  0  0  0  0  0  0  0  0
   21.4550   65.4750   -8.6740 H   0  0  0  0  0  0  0  0  0  0  0  0
   22.3060   66.6740   -6.7480 H   0  0  0  0  0  0  0  0  0  0  0  0
   23.9290   65.6400   -5.1950 H   0  0  0  0  0  0  0  0  0  0  0  0
   22.3300   61.8500   -9.3260 H   0  0  0  0  0  0  0  0  0  0  0  0
   20.1820   65.1660  -10.2500 H   0  0  0  0  0  0  0  0  0  0  0  0
   19.8250   62.7960   -8.5480 H   0  0  0  0  0  0  0  0  0  0  0  0
   18.5720   64.1370   -8.7740 H   0  0  0  0  0  0  0  0  0  0  0  0
   19.4750   63.0240  -12.1500 H   0  0  0  0  0  0  0  0  0  0  0  0
   18.2630   64.2340  -11.5140 H   0  0  0  0  0  0  0  0  0  0  0  0
   18.0610   58.2110   -9.3370 H   0  0  0  0  0  0  0  0  0  0  0  0
   12.2900   60.2360  -10.3450 H   0  0  0  0  0  0  0  0  0  0  0  0
   13.3220   58.9180   -9.7580 H   0  0  0  0  0  0  0  0  0  0  0  0
   13.1350   59.1460  -11.5070 H   0  0  0  0  0  0  0  0  0  0  0  0
  2  7  1  0  0  0  0
  2  1  1  0  0  0  0
  3  2  2  0  0  0  0
  4  5  2  0  0  0  0
  4  3  1  0  0  0  0
  5  6  1  0  0  0  0
  6 27  1  0  0  0  0
  6  7  2  0  0  0  0
  7 28  1  0  0  0  0
  8 29  1  0  0  0  0
  8  4  1  0  0  0  0
  9 11  1  0  0  0  0
  9  8  1  0  0  0  0
 10  9  2  0  0  0  0
 11 30  1  1  0  0  0
 11 12  1  0  0  0  0
 12 32  1  0  0  0  0
 12 31  1  0  0  0  0
 13 14  1  1  0  0  0
 13 15  1  0  0  0  0
 13 12  1  0  0  0  0
 14 11  1  0  0  0  0
 15 23  1  1  0  0  0
 15 16  1  0  0  0  0
 16 17  2  0  0  0  0
 17 35  1  0  0  0  0
 18 17  1  0  0  0  0
 19 18  1  0  0  0  0
 20 19  1  0  0  0  0
 21 22  2  0  0  0  0
 21 20  1  0  0  0  0
 22 23  1  0  0  0  0
 23 19  2  0  0  0  0
 24 20  1  0  0  0  0
 24 36  1  0  0  0  0
 24 37  1  0  0  0  0
 25  3  1  0  0  0  0
 26  5  1  0  0  0  0
 33 14  1  0  0  0  0
 34 14  1  0  0  0  0
 38 24  1  0  0  0  0
M  END
>  <Pose>
1

>  <Score>
-8.97

$$$$
