
 OpenBabel03202210193D

 52 56  0  0  0  0  0  0  0  0999 V2000
   27.2940   60.2420   -2.8470 Cl  0  0  0  0  0  0  0  0  0  0  0  0
   26.1760   61.3310   -3.6500 C   0  0  0  0  0  0  0  0  0  0  0  0
   26.5450   62.0430   -4.7830 C   0  0  0  0  0  0  0  0  0  0  0  0
   25.6510   62.8950   -5.4000 C   0  0  0  0  0  0  0  0  0  0  0  0
   24.3680   63.0790   -4.9290 C   0  0  0  0  0  0  0  0  0  0  0  0
   24.0100   62.3530   -3.7870 C   0  0  0  0  0  0  0  0  0  0  0  0
   24.8960   61.5000   -3.1640 C   0  0  0  0  0  0  0  0  0  0  0  0
   23.4210   63.9780   -5.5760 C   0  0  0  0  0  0  0  0  0  0  0  0
   22.2050   63.8920   -5.2940 O   0  0  0  0  0  0  0  0  0  0  0  0
   23.9470   64.9570   -6.5430 C   0  0  0  0  0  0  0  0  0  0  0  0
   23.0050   65.9990   -6.8840 N   0  0  0  0  0  0  0  0  0  0  0  0
   22.9410   67.2510   -6.4860 N   0  0  0  0  0  0  0  0  0  0  0  0
   21.9070   67.8990   -7.0420 C   0  0  0  0  0  0  0  0  0  0  0  0
   21.8610   69.1740   -6.6250 N   0  0  0  0  0  0  0  0  0  0  0  0
   22.8840   69.3920   -5.7710 C   0  0  0  0  0  0  0  0  0  0  0  0
   23.5580   68.1680   -5.6930 C   0  0  0  0  0  0  0  0  0  0  0  0
   24.6630   68.1610   -4.8680 C   0  0  0  0  0  0  0  0  0  0  0  0
   25.3080   67.0740   -4.7680 O   0  0  0  0  0  0  0  0  0  0  0  0
   25.0890   69.2450   -4.1670 N   0  0  0  0  0  0  0  0  0  0  0  0
   24.3860   70.3810   -4.2950 C   0  0  0  0  0  0  0  0  0  0  0  0
   24.8020   71.3860   -3.6290 O   0  0  0  0  0  0  0  0  0  0  0  0
   23.3030   70.4650   -5.0790 N   0  0  0  0  0  0  0  0  0  0  0  0
   22.5950   71.7140   -5.1740 C   0  0  0  0  0  0  0  0  0  0  0  0
   26.2570   69.1520   -3.3210 C   0  0  0  0  0  0  0  0  0  0  0  0
   21.3000   66.9800   -7.8350 N   0  0  0  0  0  0  0  0  0  0  0  0
   21.9600   65.8170   -7.7480 C   0  0  0  0  0  0  0  0  0  0  0  0
   21.6750   64.5880   -8.4090 N   0  0  0  0  0  0  0  0  0  0  0  0
   22.5820   64.0170   -9.3900 C   0  0  0  0  0  0  0  0  0  0  0  0
   21.7470   63.4250  -10.4980 C   0  0  0  0  0  0  0  0  0  0  0  0
   20.8350   62.4980   -9.9680 O   0  0  0  0  0  0  0  0  0  0  0  0
   19.8580   63.1140   -9.2170 C   0  0  0  0  0  0  0  0  0  0  0  0
   20.4590   63.8850   -8.0950 C   0  0  0  0  0  0  0  0  0  0  0  0
   27.5380   61.9230   -5.1740 H   0  0  0  0  0  0  0  0  0  0  0  0
   25.9370   63.4520   -6.2840 H   0  0  0  0  0  0  0  0  0  0  0  0
   23.0230   62.4530   -3.3720 H   0  0  0  0  0  0  0  0  0  0  0  0
   24.6250   60.9320   -2.2730 H   0  0  0  0  0  0  0  0  0  0  0  0
   24.4100   64.5270   -7.4190 H   0  0  0  0  0  0  0  0  0  0  0  0
   24.8050   65.4560   -5.9920 H   0  0  0  0  0  0  0  0  0  0  0  0
   22.7690   72.2870   -4.2300 H   0  0  0  0  0  0  0  0  0  0  0  0
   21.5030   71.5130   -5.3120 H   0  0  0  0  0  0  0  0  0  0  0  0
   22.9120   72.2810   -6.0670 H   0  0  0  0  0  0  0  0  0  0  0  0
   27.1790   69.1310   -3.9580 H   0  0  0  0  0  0  0  0  0  0  0  0
   26.2440   68.1610   -2.8020 H   0  0  0  0  0  0  0  0  0  0  0  0
   26.2900   69.9160   -2.5430 H   0  0  0  0  0  0  0  0  0  0  0  0
   23.2040   63.2100   -8.9470 H   0  0  0  0  0  0  0  0  0  0  0  0
   23.2390   64.7950   -9.8440 H   0  0  0  0  0  0  0  0  0  0  0  0
   21.2620   64.1610  -11.1400 H   0  0  0  0  0  0  0  0  0  0  0  0
   22.4360   62.8190  -11.1420 H   0  0  0  0  0  0  0  0  0  0  0  0
   19.2330   63.8150   -9.8330 H   0  0  0  0  0  0  0  0  0  0  0  0
   19.2280   62.3100   -8.7790 H   0  0  0  0  0  0  0  0  0  0  0  0
   20.6340   63.2750   -7.1810 H   0  0  0  0  0  0  0  0  0  0  0  0
   19.6970   64.6500   -7.7730 H   0  0  0  0  0  0  0  0  0  0  0  0
  2  7  1  0  0  0  0
  2  1  1  0  0  0  0
  3  2  2  0  0  0  0
  4  5  2  0  0  0  0
  4  3  1  0  0  0  0
  5  6  1  0  0  0  0
  6 35  1  0  0  0  0
  6  7  2  0  0  0  0
  7 36  1  0  0  0  0
  8  9  2  0  0  0  0
  8  5  1  0  0  0  0
 10 38  1  0  0  0  0
 10  8  1  0  0  0  0
 11 10  1  0  0  0  0
 11 12  1  0  0  0  0
 12 16  1  0  0  0  0
 13 14  2  0  0  0  0
 13 12  1  0  0  0  0
 14 15  1  0  0  0  0
 15 16  2  0  0  0  0
 15 22  1  0  0  0  0
 16 17  1  0  0  0  0
 17 18  2  0  0  0  0
 17 19  1  0  0  0  0
 19 24  1  0  0  0  0
 20 19  1  0  0  0  0
 20 21  2  0  0  0  0
 22 20  1  0  0  0  0
 23 22  1  0  0  0  0
 23 39  1  0  0  0  0
 24 43  1  0  0  0  0
 24 44  1  0  0  0  0
 25 26  2  0  0  0  0
 25 13  1  0  0  0  0
 26 11  1  0  0  0  0
 27 32  1  0  0  0  0
 27 26  1  0  0  0  0
 28 45  1  0  0  0  0
 28 27  1  0  0  0  0
 29 30  1  0  0  0  0
 29 28  1  0  0  0  0
 30 31  1  0  0  0  0
 31 50  1  0  0  0  0
 31 32  1  0  0  0  0
 32 52  1  0  0  0  0
 32 51  1  0  0  0  0
 33  3  1  0  0  0  0
 34  4  1  0  0  0  0
 37 10  1  0  0  0  0
 40 23  1  0  0  0  0
 41 23  1  0  0  0  0
 42 24  1  0  0  0  0
 46 28  1  0  0  0  0
 47 29  1  0  0  0  0
 48 29  1  0  0  0  0
 49 31  1  0  0  0  0
M  END
>  <Pose>
1

>  <Score>
-4.88

$$$$
