
 OpenBabel03202210193D

 48 52  0  0  1  0  0  0  0  0999 V2000
   26.7890   63.2140  -18.4030 Cl  0  0  0  0  0  0  0  0  0  0  0  0
   25.7310   63.3300  -16.9940 C   0  0  0  0  0  0  0  0  0  0  0  0
   26.2750   63.2870  -15.7300 C   0  0  0  0  0  0  0  0  0  0  0  0
   25.4790   63.3750  -14.6130 C   0  0  0  0  0  0  0  0  0  0  0  0
   24.1100   63.5100  -14.7200 C   0  0  0  0  0  0  0  0  0  0  0  0
   23.5830   63.5510  -15.9940 C   0  0  0  0  0  0  0  0  0  0  0  0
   24.3660   63.4640  -17.1210 C   0  0  0  0  0  0  0  0  0  0  0  0
   23.3410   63.5960  -13.5310 N   0  0  0  0  0  0  0  0  0  0  0  0
   23.8890   63.5530  -12.2170 C   0  0  0  0  0  0  0  0  0  0  0  0
   23.1490   63.6360  -11.1360 C   0  0  0  0  0  0  0  0  0  0  0  0
   21.7350   63.7750  -11.1230 N   0  0  0  0  0  0  0  0  0  0  0  0
   20.9900   63.2030  -12.2190 C   0  0  0  0  0  0  0  0  0  0  0  0
   19.9010   62.3340  -11.6450 C   0  0  0  0  0  0  0  0  0  0  0  0
   19.1950   62.9550  -10.5420 N   0  0  2  0  0  0  0  0  0  0  0  0
   19.9650   63.5570   -9.4710 C   0  0  0  0  0  0  0  0  0  0  0  0
   21.0040   64.4600  -10.0820 C   0  0  0  0  0  0  0  0  0  0  0  0
   17.7660   62.9640  -10.5240 C   0  0  2  0  0  0  0  0  0  0  0  0
   17.1220   64.1410  -10.6500 N   0  0  0  0  0  0  0  0  0  0  0  0
   15.7610   64.1950  -10.6390 C   0  0  0  0  0  0  0  0  0  0  0  0
   15.0270   63.0690  -10.4990 N   0  0  0  0  0  0  0  0  0  0  0  0
   15.6080   61.8720  -10.3700 C   0  0  0  0  0  0  0  0  0  0  0  0
   15.1310   60.6230  -10.2190 N   0  0  0  0  0  0  0  0  0  0  0  0
   16.1700   59.8110  -10.1390 N   0  0  0  0  0  0  0  0  0  0  0  0
   17.3290   60.5220  -10.2370 C   0  0  0  0  0  0  0  0  0  0  0  0
   17.0040   61.8340  -10.3840 C   0  0  0  0  0  0  0  0  0  0  0  0
   13.7270   60.2070  -10.1520 C   0  0  0  0  0  0  0  0  0  0  0  0
   25.2970   63.4150  -12.0980 N   0  0  0  0  0  0  0  0  0  0  0  0
   26.0790   63.3280  -13.2650 C   0  0  0  0  0  0  0  0  0  0  0  0
   27.3470   63.2030  -13.2340 O   0  0  0  0  0  0  0  0  0  0  0  0
   27.3570   63.1820  -15.6350 H   0  0  0  0  0  0  0  0  0  0  0  0
   22.5150   63.6550  -16.1020 H   0  0  0  0  0  0  0  0  0  0  0  0
   23.9550   63.4960  -18.1140 H   0  0  0  0  0  0  0  0  0  0  0  0
   22.3060   63.6980  -13.6020 H   0  0  0  0  0  0  0  0  0  0  0  0
   23.6330   63.5960  -10.1620 H   0  0  0  0  0  0  0  0  0  0  0  0
   20.4950   63.9750  -12.8440 H   0  0  0  0  0  0  0  0  0  0  0  0
   21.6270   62.5500  -12.8510 H   0  0  0  0  0  0  0  0  0  0  0  0
   19.1650   62.1870  -12.4930 H   0  0  0  0  0  0  0  0  0  0  0  0
   20.2390   61.3000  -11.4130 H   0  0  0  0  0  0  0  0  0  0  0  0
   19.2540   64.1990   -8.8730 H   0  0  0  0  0  0  0  0  0  0  0  0
   20.4640   62.8180   -8.8200 H   0  0  0  0  0  0  0  0  0  0  0  0
   21.6700   64.9150   -9.3260 H   0  0  0  0  0  0  0  0  0  0  0  0
   20.4300   65.2920  -10.5860 H   0  0  0  0  0  0  0  0  0  0  0  0
   15.2850   65.1670  -10.7440 H   0  0  0  0  0  0  0  0  0  0  0  0
   18.3370   60.1370  -10.2050 H   0  0  0  0  0  0  0  0  0  0  0  0
   13.5850   59.2240  -10.6540 H   0  0  0  0  0  0  0  0  0  0  0  0
   13.1000   60.9320  -10.7300 H   0  0  0  0  0  0  0  0  0  0  0  0
   13.3960   60.0990   -9.1030 H   0  0  0  0  0  0  0  0  0  0  0  0
   25.7740   63.3760  -11.1690 H   0  0  0  0  0  0  0  0  0  0  0  0
  1  2  1  0  0  0  0
  2  3  1  0  0  0  0
  3 30  1  0  0  0  0
  3  4  2  0  0  0  0
  4 28  1  0  0  0  0
  5  4  1  0  0  0  0
  5  8  1  0  0  0  0
  6  5  2  0  0  0  0
  7  2  2  0  0  0  0
  7  6  1  0  0  0  0
  8  9  1  0  0  0  0
  9 27  1  0  0  0  0
  9 10  2  0  0  0  0
 10 11  1  0  0  0  0
 10 34  1  0  0  0  0
 11 16  1  0  0  0  0
 12 13  1  0  0  0  0
 12 11  1  0  0  0  0
 13 38  1  0  0  0  0
 14 13  1  1  0  0  0
 14 17  1  0  0  0  0
 14 15  1  0  0  0  0
 15 39  1  0  0  0  0
 15 40  1  0  0  0  0
 16 15  1  0  0  0  0
 16 41  1  0  0  0  0
 17 18  1  1  0  0  0
 17 25  1  0  0  0  0
 18 19  2  0  0  0  0
 19 20  1  0  0  0  0
 20 21  1  0  0  0  0
 21 22  1  0  0  0  0
 22 26  1  0  0  0  0
 22 23  1  0  0  0  0
 24 44  1  0  0  0  0
 24 23  2  0  0  0  0
 25 21  2  0  0  0  0
 25 24  1  0  0  0  0
 26 47  1  0  0  0  0
 27 48  1  0  0  0  0
 28 29  2  0  0  0  0
 28 27  1  0  0  0  0
 31  6  1  0  0  0  0
 32  7  1  0  0  0  0
 33  8  1  0  0  0  0
 35 12  1  0  0  0  0
 36 12  1  0  0  0  0
 37 13  1  0  0  0  0
 42 16  1  0  0  0  0
 43 19  1  0  0  0  0
 45 26  1  0  0  0  0
 46 26  1  0  0  0  0
M  END
>  <Pose>
1

>  <Score>
-6.77

$$$$
