
 OpenBabel03202210193D

 47 50  0  0  1  0  0  0  0  0999 V2000
   24.7200   63.4870   -4.4170 S   0  0  0  0  0  0  0  0  0  0  0  0
   25.6460   64.1070   -3.4300 O   0  0  0  0  0  0  0  0  0  0  0  0
   25.4980   62.8880   -5.5720 O   0  0  0  0  0  0  0  0  0  0  0  0
   23.5900   64.5760   -5.0540 N   0  0  0  0  0  0  0  0  0  0  0  0
   22.3990   63.9950   -5.4830 C   0  0  0  0  0  0  0  0  0  0  0  0
   21.4780   64.7180   -6.3620 C   0  0  1  0  0  0  0  0  0  0  0  0
   21.7900   66.1920   -6.3840 C   0  0  0  0  0  0  0  0  0  0  0  0
   23.2310   66.3670   -6.7020 C   0  0  0  0  0  0  0  0  0  0  0  0
   24.0700   65.7480   -5.6220 C   0  0  0  0  0  0  0  0  0  0  0  0
   21.4240   64.2250   -7.7660 C   0  0  0  0  0  0  0  0  0  0  0  0
   20.4130   63.5080   -8.2520 N   0  0  0  0  0  0  0  0  0  0  0  0
   20.3990   63.0730   -9.5240 C   0  0  0  0  0  0  0  0  0  0  0  0
   19.5160   62.3420  -10.2580 N   0  0  0  0  0  0  0  0  0  0  0  0
   20.0390   62.2250  -11.4610 N   0  0  0  0  0  0  0  0  0  0  0  0
   21.2050   62.8370  -11.5410 N   0  0  0  0  0  0  0  0  0  0  0  0
   21.4710   63.3840  -10.3490 C   0  0  0  0  0  0  0  0  0  0  0  0
   22.5290   64.1290   -9.8570 C   0  0  0  0  0  0  0  0  0  0  0  0
   22.4470   64.5150   -8.5770 N   0  0  0  0  0  0  0  0  0  0  0  0
   23.6100   64.4500  -10.6660 O   0  0  0  0  0  0  0  0  0  0  0  0
   18.2690   61.8110   -9.8030 C   0  0  0  0  0  0  0  0  0  0  0  0
   17.0880   62.5570  -10.3010 C   0  0  0  0  0  0  0  0  0  0  0  0
   15.9300   61.8620  -10.5450 C   0  0  0  0  0  0  0  0  0  0  0  0
   14.7750   62.4850  -11.0140 C   0  0  0  0  0  0  0  0  0  0  0  0
   14.7730   63.8430  -11.2470 C   0  0  0  0  0  0  0  0  0  0  0  0
   15.9310   64.5470  -11.0040 C   0  0  0  0  0  0  0  0  0  0  0  0
   17.0800   63.9140  -10.5350 C   0  0  0  0  0  0  0  0  0  0  0  0
   15.8650   60.1340  -10.2690 Cl  0  0  0  0  0  0  0  0  0  0  0  0
   23.8990   62.0940   -3.6290 C   0  0  0  0  0  0  0  0  0  0  0  0
   21.8420   63.6240   -4.5690 H   0  0  0  0  0  0  0  0  0  0  0  0
   22.6690   63.0260   -6.0080 H   0  0  0  0  0  0  0  0  0  0  0  0
   20.4280   64.6570   -5.9240 H   0  0  0  0  0  0  0  0  0  0  0  0
   21.1130   66.7150   -7.0910 H   0  0  0  0  0  0  0  0  0  0  0  0
   21.6140   66.6420   -5.3770 H   0  0  0  0  0  0  0  0  0  0  0  0
   23.4210   67.4870   -6.6700 H   0  0  0  0  0  0  0  0  0  0  0  0
   23.5550   66.0670   -7.6990 H   0  0  0  0  0  0  0  0  0  0  0  0
   25.1060   65.6420   -6.0360 H   0  0  0  0  0  0  0  0  0  0  0  0
   24.1770   66.5210   -4.8070 H   0  0  0  0  0  0  0  0  0  0  0  0
   23.5240   65.1770  -11.3600 H   0  0  0  0  0  0  0  0  0  0  0  0
   18.1800   61.7880   -8.6930 H   0  0  0  0  0  0  0  0  0  0  0  0
   18.1630   60.7670  -10.2150 H   0  0  0  0  0  0  0  0  0  0  0  0
   13.8570   61.9500  -11.2100 H   0  0  0  0  0  0  0  0  0  0  0  0
   13.8670   64.3420  -11.6170 H   0  0  0  0  0  0  0  0  0  0  0  0
   15.9300   65.6300  -11.1910 H   0  0  0  0  0  0  0  0  0  0  0  0
   17.9800   64.4830  -10.3510 H   0  0  0  0  0  0  0  0  0  0  0  0
   23.3910   62.4100   -2.7080 H   0  0  0  0  0  0  0  0  0  0  0  0
   23.2090   61.6770   -4.3900 H   0  0  0  0  0  0  0  0  0  0  0  0
   24.7090   61.3940   -3.3400 H   0  0  0  0  0  0  0  0  0  0  0  0
  1 28  1  0  0  0  0
  1  2  2  0  0  0  0
  3  1  2  0  0  0  0
  4  1  1  0  0  0  0
  5  4  1  0  0  0  0
  5 29  1  0  0  0  0
  6 31  1  1  0  0  0
  6  5  1  0  0  0  0
  7  6  1  0  0  0  0
  7 33  1  0  0  0  0
  8 34  1  0  0  0  0
  8  7  1  0  0  0  0
  8  9  1  0  0  0  0
  9  4  1  0  0  0  0
  9 37  1  0  0  0  0
 10  6  1  0  0  0  0
 11 10  2  0  0  0  0
 12 11  1  0  0  0  0
 13 20  1  0  0  0  0
 13 12  1  0  0  0  0
 14 13  1  0  0  0  0
 15 14  2  0  0  0  0
 15 16  1  0  0  0  0
 16 17  1  0  0  0  0
 16 12  2  0  0  0  0
 17 18  2  0  0  0  0
 18 10  1  0  0  0  0
 19 17  1  0  0  0  0
 20 39  1  0  0  0  0
 21 20  1  0  0  0  0
 22 21  2  0  0  0  0
 22 27  1  0  0  0  0
 23 22  1  0  0  0  0
 24 23  2  0  0  0  0
 24 25  1  0  0  0  0
 25 26  2  0  0  0  0
 26 44  1  0  0  0  0
 26 21  1  0  0  0  0
 28 47  1  0  0  0  0
 28 45  1  0  0  0  0
 30  5  1  0  0  0  0
 32  7  1  0  0  0  0
 35  8  1  0  0  0  0
 36  9  1  0  0  0  0
 38 19  1  0  0  0  0
 40 20  1  0  0  0  0
 41 23  1  0  0  0  0
 42 24  1  0  0  0  0
 43 25  1  0  0  0  0
 46 28  1  0  0  0  0
M  END
>  <Pose>
1

>  <Score>
-8.45

$$$$
