
 OpenBabel03202210193D

 54 57  0  0  1  0  0  0  0  0999 V2000
   24.0730   63.7390   -6.6460 S   0  0  0  0  0  0  0  0  0  0  0  0
   24.7710   62.7530   -7.5930 O   0  0  0  0  0  0  0  0  0  0  0  0
   24.6680   65.0770   -7.0110 O   0  0  0  0  0  0  0  0  0  0  0  0
   22.4190   63.6340   -6.9430 N   0  0  0  0  0  0  0  0  0  0  0  0
   22.1420   63.1390   -8.3070 C   0  0  0  0  0  0  0  0  0  0  0  0
   22.6230   64.1730   -9.2560 C   0  0  2  0  0  0  0  0  0  0  0  0
   22.2900   65.4580   -9.0400 O   0  0  0  0  0  0  0  0  0  0  0  0
   21.8360   65.8480   -7.8400 C   0  0  0  0  0  0  0  0  0  0  0  0
   21.6140   64.7920   -6.8130 C   0  0  0  0  0  0  0  0  0  0  0  0
   22.1550   63.7700  -10.6150 C   0  0  0  0  0  0  0  0  0  0  0  0
   23.0160   63.7470  -11.5350 O   0  0  0  0  0  0  0  0  0  0  0  0
   20.8320   63.4170  -10.9370 N   0  0  0  0  0  0  0  0  0  0  0  0
   19.6660   63.8480  -10.1890 C   0  0  0  0  0  0  0  0  0  0  0  0
   18.4450   63.3500  -10.9360 C   0  0  0  0  0  0  0  0  0  0  0  0
   18.4040   61.9040  -11.0420 N   0  0  0  0  0  0  0  0  0  0  0  0
   19.6650   61.4250  -11.5120 C   0  0  0  0  0  0  0  0  0  0  0  0
   20.5230   62.5570  -12.0900 C   0  0  0  0  0  0  0  0  0  0  0  0
   17.9790   61.3740   -9.7870 C   0  0  0  0  0  0  0  0  0  0  0  0
   17.0250   60.2170   -9.9050 C   0  0  0  0  0  0  0  0  0  0  0  0
   17.5700   58.9250   -9.2980 C   0  0  0  0  0  0  0  0  0  0  0  0
   17.2900   59.0600  -10.7620 C   0  0  0  0  0  0  0  0  0  0  0  0
   24.5320   63.2500   -5.0460 C   0  0  0  0  0  0  0  0  0  0  0  0
   24.2240   64.0080   -3.9380 C   0  0  0  0  0  0  0  0  0  0  0  0
   24.6360   63.6570   -2.6660 C   0  0  0  0  0  0  0  0  0  0  0  0
   25.3750   62.5140   -2.4860 C   0  0  0  0  0  0  0  0  0  0  0  0
   25.6920   61.7370   -3.5900 C   0  0  0  0  0  0  0  0  0  0  0  0
   25.2830   62.0910   -4.8450 C   0  0  0  0  0  0  0  0  0  0  0  0
   23.1980   65.4480   -4.0840 Cl  0  0  0  0  0  0  0  0  0  0  0  0
   21.0620   63.0340   -8.3910 H   0  0  0  0  0  0  0  0  0  0  0  0
   22.6420   62.1920   -8.5090 H   0  0  0  0  0  0  0  0  0  0  0  0
   23.7560   64.1400   -9.3360 H   0  0  0  0  0  0  0  0  0  0  0  0
   20.8510   66.3840   -7.9970 H   0  0  0  0  0  0  0  0  0  0  0  0
   22.4990   66.6250   -7.4170 H   0  0  0  0  0  0  0  0  0  0  0  0
   21.5960   65.1560   -5.7890 H   0  0  0  0  0  0  0  0  0  0  0  0
   20.5390   64.4100   -6.9650 H   0  0  0  0  0  0  0  0  0  0  0  0
   19.7090   63.4850   -9.1600 H   0  0  0  0  0  0  0  0  0  0  0  0
   19.5840   64.9540  -10.1900 H   0  0  0  0  0  0  0  0  0  0  0  0
   17.5360   63.6980  -10.3630 H   0  0  0  0  0  0  0  0  0  0  0  0
   18.4060   63.8650  -11.8990 H   0  0  0  0  0  0  0  0  0  0  0  0
   19.5100   60.7150  -12.3330 H   0  0  0  0  0  0  0  0  0  0  0  0
   20.2590   61.0030  -10.6750 H   0  0  0  0  0  0  0  0  0  0  0  0
   21.4790   62.0830  -12.3920 H   0  0  0  0  0  0  0  0  0  0  0  0
   20.0160   63.0980  -12.8890 H   0  0  0  0  0  0  0  0  0  0  0  0
   18.8570   61.1430   -9.1600 H   0  0  0  0  0  0  0  0  0  0  0  0
   17.4330   62.1940   -9.2520 H   0  0  0  0  0  0  0  0  0  0  0  0
   15.9700   60.4370   -9.6420 H   0  0  0  0  0  0  0  0  0  0  0  0
   18.6190   58.8970   -8.9590 H   0  0  0  0  0  0  0  0  0  0  0  0
   16.8930   58.3060   -8.6840 H   0  0  0  0  0  0  0  0  0  0  0  0
   16.4340   58.4700  -11.1270 H   0  0  0  0  0  0  0  0  0  0  0  0
   18.1850   58.9750  -11.4060 H   0  0  0  0  0  0  0  0  0  0  0  0
   24.3970   64.2520   -1.7940 H   0  0  0  0  0  0  0  0  0  0  0  0
   25.6900   62.2490   -1.4900 H   0  0  0  0  0  0  0  0  0  0  0  0
   26.2720   60.8480   -3.3990 H   0  0  0  0  0  0  0  0  0  0  0  0
   25.5230   61.4930   -5.7180 H   0  0  0  0  0  0  0  0  0  0  0  0
  1 22  1  0  0  0  0
  2  1  2  0  0  0  0
  3  1  2  0  0  0  0
  4  9  1  0  0  0  0
  4  1  1  0  0  0  0
  5  4  1  0  0  0  0
  6 31  1  6  0  0  0
  6  7  1  0  0  0  0
  6  5  1  0  0  0  0
  7  8  1  0  0  0  0
  8 33  1  0  0  0  0
  8  9  1  0  0  0  0
  9 34  1  0  0  0  0
 10  6  1  0  0  0  0
 11 10  2  0  0  0  0
 12 10  1  0  0  0  0
 12 13  1  0  0  0  0
 13 36  1  0  0  0  0
 14 38  1  0  0  0  0
 14 13  1  0  0  0  0
 15 14  1  0  0  0  0
 15 18  1  0  0  0  0
 16 15  1  0  0  0  0
 16 41  1  0  0  0  0
 17 16  1  0  0  0  0
 17 12  1  0  0  0  0
 18 45  1  0  0  0  0
 18 44  1  0  0  0  0
 19 18  1  0  0  0  0
 19 46  1  0  0  0  0
 19 20  1  0  0  0  0
 20 47  1  0  0  0  0
 20 48  1  0  0  0  0
 21 19  1  0  0  0  0
 21 20  1  0  0  0  0
 22 27  2  0  0  0  0
 22 23  1  0  0  0  0
 23 24  2  0  0  0  0
 24 25  1  0  0  0  0
 24 51  1  0  0  0  0
 25 52  1  0  0  0  0
 26 53  1  0  0  0  0
 26 25  2  0  0  0  0
 27 26  1  0  0  0  0
 28 23  1  0  0  0  0
 29  5  1  0  0  0  0
 30  5  1  0  0  0  0
 32  8  1  0  0  0  0
 35  9  1  0  0  0  0
 37 13  1  0  0  0  0
 39 14  1  0  0  0  0
 40 16  1  0  0  0  0
 42 17  1  0  0  0  0
 43 17  1  0  0  0  0
 49 21  1  0  0  0  0
 50 21  1  0  0  0  0
 54 27  1  0  0  0  0
M  END
>  <Pose>
1

>  <Score>
-5.56

$$$$
