
 OpenBabel03202210193D

 41 44  0  0  1  0  0  0  0  0999 V2000
   22.7180   64.4520   -6.9230 S   0  0  0  0  0  0  0  0  0  0  0  0
   23.4210   65.5850   -7.6350 O   0  0  0  0  0  0  0  0  0  0  0  0
   21.4600   65.0240   -6.3400 O   0  0  0  0  0  0  0  0  0  0  0  0
   22.3850   63.2330   -8.0120 N   0  0  0  0  0  0  0  0  0  0  0  0
   23.1280   63.1450   -9.1880 C   0  0  0  0  0  0  0  0  0  0  0  0
   22.3220   62.6950  -10.3840 C   0  0  0  0  0  0  0  0  0  0  0  0
   20.8850   63.0460  -10.2950 C   0  0  2  0  0  0  0  0  0  0  0  0
   20.3030   62.9780   -9.0530 C   0  0  0  0  0  0  0  0  0  0  0  0
   19.0100   63.2750   -8.8770 N   0  0  0  0  0  0  0  0  0  0  0  0
   18.2540   63.6550   -9.9580 C   0  0  1  0  0  0  0  0  0  0  0  0
   18.8430   63.7150  -11.1710 N   0  0  0  0  0  0  0  0  0  0  0  0
   17.9060   64.1030  -12.0410 N   0  0  0  0  0  0  0  0  0  0  0  0
   16.7490   64.2890  -11.4190 C   0  0  0  0  0  0  0  0  0  0  0  0
   16.9270   64.0100  -10.0650 C   0  0  0  0  0  0  0  0  0  0  0  0
   20.1300   63.4290  -11.4040 C   0  0  0  0  0  0  0  0  0  0  0  0
   20.6760   63.4860  -12.5320 O   0  0  0  0  0  0  0  0  0  0  0  0
   21.1380   62.5730   -7.9100 C   0  0  0  0  0  0  0  0  0  0  0  0
   23.7530   63.9770   -5.5950 C   0  0  0  0  0  0  0  0  0  0  0  0
   24.9090   63.2360   -5.7720 C   0  0  0  0  0  0  0  0  0  0  0  0
   25.6920   62.8870   -4.6820 C   0  0  0  0  0  0  0  0  0  0  0  0
   25.3670   63.2530   -3.3960 C   0  0  0  0  0  0  0  0  0  0  0  0
   24.2170   63.9910   -3.2190 C   0  0  0  0  0  0  0  0  0  0  0  0
   23.4390   64.3380   -4.3020 C   0  0  0  0  0  0  0  0  0  0  0  0
   26.1750   62.8890   -2.3070 O   0  0  0  0  0  0  0  0  0  0  0  0
   26.8170   63.8930   -1.5440 C   0  0  0  0  0  0  0  0  0  0  0  0
   27.1520   61.9480   -4.9240 Cl  0  0  0  0  0  0  0  0  0  0  0  0
   23.6930   64.0850   -9.4170 H   0  0  0  0  0  0  0  0  0  0  0  0
   23.9230   62.3520   -9.0490 H   0  0  0  0  0  0  0  0  0  0  0  0
   22.7770   63.0330  -11.3390 H   0  0  0  0  0  0  0  0  0  0  0  0
   22.3460   61.5670  -10.4500 H   0  0  0  0  0  0  0  0  0  0  0  0
   18.0490   64.2440  -13.0670 H   0  0  0  0  0  0  0  0  0  0  0  0
   15.8170   64.5980  -11.8450 H   0  0  0  0  0  0  0  0  0  0  0  0
   16.1750   64.0700   -9.3130 H   0  0  0  0  0  0  0  0  0  0  0  0
   20.6860   62.7940   -6.9360 H   0  0  0  0  0  0  0  0  0  0  0  0
   21.3260   61.4660   -8.0350 H   0  0  0  0  0  0  0  0  0  0  0  0
   25.1560   62.9530   -6.7880 H   0  0  0  0  0  0  0  0  0  0  0  0
   23.9460   64.2890   -2.1970 H   0  0  0  0  0  0  0  0  0  0  0  0
   22.5340   64.9210   -4.1390 H   0  0  0  0  0  0  0  0  0  0  0  0
   26.0090   64.6250   -1.2550 H   0  0  0  0  0  0  0  0  0  0  0  0
   27.1650   63.4710   -0.5730 H   0  0  0  0  0  0  0  0  0  0  0  0
   27.6290   64.3860   -2.0990 H   0  0  0  0  0  0  0  0  0  0  0  0
  1  3  2  0  0  0  0
  1 18  1  0  0  0  0
  2  1  2  0  0  0  0
  4 17  1  0  0  0  0
  4  1  1  0  0  0  0
  5 28  1  0  0  0  0
  5  4  1  0  0  0  0
  6  7  1  0  0  0  0
  6  5  1  0  0  0  0
  7 15  1  6  0  0  0
  7  8  1  0  0  0  0
  8  9  2  0  0  0  0
  8 17  1  0  0  0  0
 10 14  1  6  0  0  0
 10  9  1  0  0  0  0
 11 10  1  0  0  0  0
 12 13  1  0  0  0  0
 12 11  1  0  0  0  0
 13 14  2  0  0  0  0
 14 33  1  0  0  0  0
 15 11  1  0  0  0  0
 16 15  2  0  0  0  0
 17 34  1  0  0  0  0
 18 23  1  0  0  0  0
 19 18  2  0  0  0  0
 19 20  1  0  0  0  0
 20 21  2  0  0  0  0
 21 22  1  0  0  0  0
 21 24  1  0  0  0  0
 22 37  1  0  0  0  0
 23 38  1  0  0  0  0
 23 22  2  0  0  0  0
 24 25  1  0  0  0  0
 25 39  1  0  0  0  0
 25 40  1  0  0  0  0
 26 20  1  0  0  0  0
 27  5  1  0  0  0  0
 29  6  1  0  0  0  0
 30  6  1  0  0  0  0
 31 12  1  0  0  0  0
 32 13  1  0  0  0  0
 35 17  1  0  0  0  0
 36 19  1  0  0  0  0
 41 25  1  0  0  0  0
M  END
>  <Pose>
1

>  <Score>
-6.33

$$$$
