
 OpenBabel03202210193D

 44 47  0  0  1  0  0  0  0  0999 V2000
   24.2530   63.2600   -5.1190 B   0  0  0  0  0  0  0  0  0  0  0  0
   23.4420   64.4000   -6.4260 C   0  0  0  0  0  0  0  0  0  0  0  0
   23.1500   63.9520   -7.6970 C   0  0  0  0  0  0  0  0  0  0  0  0
   22.5610   64.7660   -8.6500 C   0  0  0  0  0  0  0  0  0  0  0  0
   22.2800   66.0590   -8.2640 C   0  0  0  0  0  0  0  0  0  0  0  0
   22.5580   66.5420   -7.0050 C   0  0  0  0  0  0  0  0  0  0  0  0
   23.1460   65.7140   -6.0630 C   0  0  0  0  0  0  0  0  0  0  0  0
   22.1410   68.3470   -6.5340 B   0  0  0  0  0  0  0  0  0  0  0  0
   22.3590   64.0480   -9.9000 C   0  0  0  0  0  0  0  0  0  0  0  0
   21.8510   64.4430  -11.0060 N   0  0  0  0  0  0  0  0  0  0  0  0
   21.7300   63.6110  -12.1230 N   0  0  0  0  0  0  0  0  0  0  0  0
   20.6520   62.6980  -12.1580 C   0  0  0  0  0  0  0  0  0  0  0  0
   20.5580   61.8630  -13.0810 O   0  0  0  0  0  0  0  0  0  0  0  0
   19.5830   62.6820  -11.1100 C   0  0  0  0  0  0  0  0  0  0  0  0
   19.5090   61.4150  -10.4370 N   0  0  0  0  0  0  0  0  0  0  0  0
   18.3110   60.9200   -9.8520 C   0  0  0  0  0  0  0  0  0  0  0  0
   18.1380   59.6820   -9.8140 O   0  0  0  0  0  0  0  0  0  0  0  0
   17.2470   61.7990   -9.2830 C   0  0  2  0  0  0  0  0  0  0  0  0
   15.9990   61.5480   -9.8590 O   0  0  0  0  0  0  0  0  0  0  0  0
   15.3300   62.4150  -10.7200 C   0  0  0  0  0  0  0  0  0  0  0  0
   15.7300   63.7260  -10.7150 C   0  0  0  0  0  0  0  0  0  0  0  0
   15.0770   64.6170  -11.5670 C   0  0  0  0  0  0  0  0  0  0  0  0
   14.0550   64.2270  -12.4010 C   0  0  0  0  0  0  0  0  0  0  0  0
   13.6790   62.8980  -12.3780 C   0  0  0  0  0  0  0  0  0  0  0  0
   14.3190   62.0150  -11.5410 C   0  0  0  0  0  0  0  0  0  0  0  0
   16.7450   64.1230   -9.8890 O   0  0  0  0  0  0  0  0  0  0  0  0
   17.6370   63.2350   -9.2730 C   0  0  0  0  0  0  0  0  0  0  0  0
   22.8710   62.6940   -9.6650 C   0  0  0  0  0  0  0  0  0  0  0  0
   22.8630   61.7800  -10.5330 O   0  0  0  0  0  0  0  0  0  0  0  0
   23.3340   62.6890   -8.3290 N   0  0  0  0  0  0  0  0  0  0  0  0
   21.8220   66.7300   -8.9710 H   0  0  0  0  0  0  0  0  0  0  0  0
   23.3690   66.0670   -5.0830 H   0  0  0  0  0  0  0  0  0  0  0  0
   22.4470   63.7080  -12.8730 H   0  0  0  0  0  0  0  0  0  0  0  0
   19.8800   63.4580  -10.3700 H   0  0  0  0  0  0  0  0  0  0  0  0
   18.6030   62.9980  -11.5320 H   0  0  0  0  0  0  0  0  0  0  0  0
   20.3490   60.7960  -10.3500 H   0  0  0  0  0  0  0  0  0  0  0  0
   17.1570   61.4580   -8.2090 H   0  0  0  0  0  0  0  0  0  0  0  0
   15.4100   65.6470  -11.5450 H   0  0  0  0  0  0  0  0  0  0  0  0
   13.5760   64.9500  -13.0450 H   0  0  0  0  0  0  0  0  0  0  0  0
   12.8590   62.5920  -13.0500 H   0  0  0  0  0  0  0  0  0  0  0  0
   14.0040   60.9800  -11.5420 H   0  0  0  0  0  0  0  0  0  0  0  0
   17.8060   63.5890   -8.2090 H   0  0  0  0  0  0  0  0  0  0  0  0
   18.6210   63.3540   -9.7830 H   0  0  0  0  0  0  0  0  0  0  0  0
   23.7560   61.8680   -7.8630 H   0  0  0  0  0  0  0  0  0  0  0  0
  2  7  1  0  0  0  0
  2  1  1  0  0  0  0
  3  2  2  0  0  0  0
  4  5  2  0  0  0  0
  4  3  1  0  0  0  0
  5  6  1  0  0  0  0
  6  8  1  0  0  0  0
  6  7  2  0  0  0  0
  7 32  1  0  0  0  0
  9 28  1  0  0  0  0
  9  4  1  0  0  0  0
 10  9  2  0  0  0  0
 11 10  1  0  0  0  0
 12 11  1  0  0  0  0
 12 14  1  0  0  0  0
 13 12  2  0  0  0  0
 14 15  1  0  0  0  0
 14 34  1  0  0  0  0
 15 36  1  0  0  0  0
 15 16  1  0  0  0  0
 16 17  2  0  0  0  0
 16 18  1  0  0  0  0
 18 27  1  0  0  0  0
 18 37  1  1  0  0  0
 19 18  1  0  0  0  0
 20 21  1  0  0  0  0
 20 19  1  0  0  0  0
 21 26  1  0  0  0  0
 22 38  1  0  0  0  0
 22 21  2  0  0  0  0
 23 24  2  0  0  0  0
 23 22  1  0  0  0  0
 24 25  1  0  0  0  0
 25 20  2  0  0  0  0
 26 27  1  0  0  0  0
 27 42  1  0  0  0  0
 28 30  1  0  0  0  0
 29 28  2  0  0  0  0
 30 44  1  0  0  0  0
 30  3  1  0  0  0  0
 31  5  1  0  0  0  0
 33 11  1  0  0  0  0
 35 14  1  0  0  0  0
 39 23  1  0  0  0  0
 40 24  1  0  0  0  0
 41 25  1  0  0  0  0
 43 27  1  0  0  0  0
M  END
>  <Pose>
1

>  <Score>
-8.29

$$$$
