
 OpenBabel03202210193D

 49 52  0  0  1  0  0  0  0  0999 V2000
   14.1970   61.8250  -10.4990 Cl  0  0  0  0  0  0  0  0  0  0  0  0
   15.8930   62.2900  -10.6340 C   0  0  0  0  0  0  0  0  0  0  0  0
   16.2440   63.5470  -11.0480 C   0  0  0  0  0  0  0  0  0  0  0  0
   17.5770   63.8990  -11.1490 C   0  0  0  0  0  0  0  0  0  0  0  0
   18.5970   63.0240  -10.8440 C   0  0  0  0  0  0  0  0  0  0  0  0
   18.2290   61.7630  -10.4270 C   0  0  0  0  0  0  0  0  0  0  0  0
   16.8790   61.3960  -10.3220 C   0  0  0  0  0  0  0  0  0  0  0  0
   19.9690   63.3910  -10.9450 N   0  0  0  0  0  0  0  0  0  0  0  0
   20.7020   64.3710  -10.1520 C   0  0  0  0  0  0  0  0  0  0  0  0
   22.1440   63.9470  -10.1780 C   0  0  2  0  0  0  0  0  0  0  0  0
   22.3000   62.9920  -11.3150 C   0  0  0  0  0  0  0  0  0  0  0  0
   20.9360   62.8570  -11.8760 C   0  0  0  0  0  0  0  0  0  0  0  0
   20.5610   62.3650  -12.9900 O   0  0  0  0  0  0  0  0  0  0  0  0
   22.6820   63.4970   -8.8890 C   0  0  0  0  0  0  0  0  0  0  0  0
   23.6280   62.6240   -8.9290 O   0  0  0  0  0  0  0  0  0  0  0  0
   22.2790   63.9120   -7.6160 N   0  0  0  0  0  0  0  0  0  0  0  0
   22.6990   65.2050   -7.1000 C   0  0  0  0  0  0  0  0  0  0  0  0
   23.4390   65.0390   -5.7770 C   0  0  0  0  0  0  0  0  0  0  0  0
   22.8580   63.9480   -5.0510 N   0  0  0  0  0  0  0  0  0  0  0  0
   21.4900   63.6090   -5.2980 C   0  0  0  0  0  0  0  0  0  0  0  0
   21.4420   63.1100   -6.7550 C   0  0  0  0  0  0  0  0  0  0  0  0
   23.6170   63.2130   -4.1160 C   0  0  0  0  0  0  0  0  0  0  0  0
   24.9120   62.8140   -4.2520 N   0  0  0  0  0  0  0  0  0  0  0  0
   25.2800   62.1460   -3.1500 C   0  0  0  0  0  0  0  0  0  0  0  0
   24.2070   62.1110   -2.2910 C   0  0  0  0  0  0  0  0  0  0  0  0
   23.2340   62.7600   -2.9060 N   0  0  0  0  0  0  0  0  0  0  0  0
   25.7640   63.0730   -5.4200 C   0  0  0  0  0  0  0  0  0  0  0  0
   15.4410   64.2390  -11.2900 H   0  0  0  0  0  0  0  0  0  0  0  0
   17.7920   64.9080  -11.4840 H   0  0  0  0  0  0  0  0  0  0  0  0
   18.9770   61.0520  -10.1820 H   0  0  0  0  0  0  0  0  0  0  0  0
   16.6020   60.4030   -9.9930 H   0  0  0  0  0  0  0  0  0  0  0  0
   20.2630   64.4330   -9.1580 H   0  0  0  0  0  0  0  0  0  0  0  0
   20.5370   65.3590  -10.6620 H   0  0  0  0  0  0  0  0  0  0  0  0
   22.7090   64.8780  -10.4990 H   0  0  0  0  0  0  0  0  0  0  0  0
   22.9190   63.4030  -12.1700 H   0  0  0  0  0  0  0  0  0  0  0  0
   22.7740   62.0420  -11.0350 H   0  0  0  0  0  0  0  0  0  0  0  0
   21.7710   65.7930   -6.9050 H   0  0  0  0  0  0  0  0  0  0  0  0
   23.2900   65.7830   -7.8240 H   0  0  0  0  0  0  0  0  0  0  0  0
   23.2480   65.9610   -5.1760 H   0  0  0  0  0  0  0  0  0  0  0  0
   24.5200   64.9000   -5.9910 H   0  0  0  0  0  0  0  0  0  0  0  0
   21.1340   62.7570   -4.6770 H   0  0  0  0  0  0  0  0  0  0  0  0
   20.8480   64.5070   -5.1950 H   0  0  0  0  0  0  0  0  0  0  0  0
   20.3730   63.1090   -7.0490 H   0  0  0  0  0  0  0  0  0  0  0  0
   21.8910   62.1070   -6.6940 H   0  0  0  0  0  0  0  0  0  0  0  0
   26.2530   61.7070   -2.9680 H   0  0  0  0  0  0  0  0  0  0  0  0
   24.1490   61.6480   -1.2990 H   0  0  0  0  0  0  0  0  0  0  0  0
   26.0490   62.0940   -5.8780 H   0  0  0  0  0  0  0  0  0  0  0  0
   25.1870   63.6560   -6.1540 H   0  0  0  0  0  0  0  0  0  0  0  0
   26.6880   63.5560   -5.0980 H   0  0  0  0  0  0  0  0  0  0  0  0
  2  1  1  0  0  0  0
  2  7  1  0  0  0  0
  3  2  2  0  0  0  0
  4  3  1  0  0  0  0
  4  5  2  0  0  0  0
  5  6  1  0  0  0  0
  6  7  2  0  0  0  0
  6 30  1  0  0  0  0
  7 31  1  0  0  0  0
  8  5  1  0  0  0  0
  8  9  1  0  0  0  0
  9 32  1  0  0  0  0
 10 34  1  6  0  0  0
 10  9  1  0  0  0  0
 10 14  1  0  0  0  0
 11 36  1  0  0  0  0
 11 10  1  0  0  0  0
 12 11  1  0  0  0  0
 12  8  1  0  0  0  0
 13 12  2  0  0  0  0
 14 16  1  0  0  0  0
 15 14  2  0  0  0  0
 16 17  1  0  0  0  0
 16 21  1  0  0  0  0
 17 37  1  0  0  0  0
 17 18  1  0  0  0  0
 18 39  1  0  0  0  0
 18 19  1  0  0  0  0
 19 22  1  0  0  0  0
 20 42  1  0  0  0  0
 20 19  1  0  0  0  0
 20 41  1  0  0  0  0
 21 44  1  0  0  0  0
 21 20  1  0  0  0  0
 22 26  2  0  0  0  0
 23 22  1  0  0  0  0
 23 24  1  0  0  0  0
 24 45  1  0  0  0  0
 24 25  2  0  0  0  0
 25 46  1  0  0  0  0
 26 25  1  0  0  0  0
 27 49  1  0  0  0  0
 27 23  1  0  0  0  0
 28  3  1  0  0  0  0
 29  4  1  0  0  0  0
 33  9  1  0  0  0  0
 35 11  1  0  0  0  0
 38 17  1  0  0  0  0
 40 18  1  0  0  0  0
 43 21  1  0  0  0  0
 47 27  1  0  0  0  0
 48 27  1  0  0  0  0
M  END
>  <Pose>
1

>  <Score>
-6.61

$$$$
