
 OpenBabel03202210193D

 45 48  0  0  1  0  0  0  0  0999 V2000
   25.2380   63.5870   -2.6610 Cl  0  0  0  0  0  0  0  0  0  0  0  0
   24.6190   63.4090   -4.2920 C   0  0  0  0  0  0  0  0  0  0  0  0
   23.9660   64.4660   -4.9270 C   0  0  0  0  0  0  0  0  0  0  0  0
   23.4690   64.3420   -6.1960 C   0  0  0  0  0  0  0  0  0  0  0  0
   23.5780   63.1630   -6.9370 C   0  0  0  0  0  0  0  0  0  0  0  0
   24.2280   62.1200   -6.2980 C   0  0  0  0  0  0  0  0  0  0  0  0
   24.7270   62.2420   -5.0240 C   0  0  0  0  0  0  0  0  0  0  0  0
   23.0500   63.0580   -8.2440 N   0  0  0  0  0  0  0  0  0  0  0  0
   23.9880   62.9200   -9.3210 C   0  0  0  0  0  0  0  0  0  0  0  0
   25.2210   62.8600   -9.0510 O   0  0  0  0  0  0  0  0  0  0  0  0
   23.4520   62.8580  -10.6320 N   0  0  0  0  0  0  0  0  0  0  0  0
   22.2290   62.9240  -10.9210 C   0  0  0  0  0  0  0  0  0  0  0  0
   21.1020   63.0880   -9.9380 C   0  0  1  0  0  0  0  0  0  0  0  0
   20.5250   64.4400  -10.2480 C   0  0  0  0  0  0  0  0  0  0  0  0
   19.1810   64.6730   -9.8830 N   0  0  0  0  0  4  0  0  0  0  0  0
   18.2810   63.6030  -10.0980 C   0  0  0  0  0  0  0  0  0  0  0  0
   18.7490   62.3340  -10.2230 C   0  0  0  0  0  0  0  0  0  0  0  0
   17.8320   61.3070  -10.4320 C   0  0  0  0  0  0  0  0  0  0  0  0
   16.4840   61.5920  -10.5080 C   0  0  0  0  0  0  0  0  0  0  0  0
   16.0080   62.8880  -10.3810 C   0  0  0  0  0  0  0  0  0  0  0  0
   16.9360   63.9060  -10.1720 C   0  0  0  0  0  0  0  0  0  0  0  0
   15.4740   60.5110  -10.7420 C   0  0  0  0  0  0  0  0  0  0  0  0
   20.1760   61.9530  -10.1480 C   0  0  0  0  0  0  0  0  0  0  0  0
   18.9810   65.2220   -8.5510 C   0  0  0  0  0  0  0  0  0  0  0  0
   21.6730   63.1110   -8.5690 C   0  0  0  0  0  0  0  0  0  0  0  0
   20.9010   63.1810   -7.5460 O   0  0  0  0  0  0  0  0  0  0  0  0
   21.8120   62.8450  -12.2630 O   0  0  0  0  0  0  0  0  0  0  0  0
   23.8790   65.3950   -4.3470 H   0  0  0  0  0  0  0  0  0  0  0  0
   22.9550   65.1870   -6.6910 H   0  0  0  0  0  0  0  0  0  0  0  0
   24.3090   61.2130   -6.8780 H   0  0  0  0  0  0  0  0  0  0  0  0
   25.2330   61.3830   -4.5620 H   0  0  0  0  0  0  0  0  0  0  0  0
   20.6750   64.7020  -11.3340 H   0  0  0  0  0  0  0  0  0  0  0  0
   21.1680   65.1810   -9.6920 H   0  0  0  0  0  0  0  0  0  0  0  0
   18.8210   65.4470  -10.5290 H   0  0  0  0  0  0  0  0  0  0  0  0
   18.1520   60.2760  -10.5410 H   0  0  0  0  0  0  0  0  0  0  0  0
   14.9390   63.1400  -10.4400 H   0  0  0  0  0  0  0  0  0  0  0  0
   16.5530   64.9210  -10.0750 H   0  0  0  0  0  0  0  0  0  0  0  0
   15.9410   59.5840  -11.1410 H   0  0  0  0  0  0  0  0  0  0  0  0
   14.6690   60.9090  -11.4160 H   0  0  0  0  0  0  0  0  0  0  0  0
   14.9890   60.2560   -9.7900 H   0  0  0  0  0  0  0  0  0  0  0  0
   20.3750   61.4150  -11.1260 H   0  0  0  0  0  0  0  0  0  0  0  0
   20.2790   61.1800   -9.3660 H   0  0  0  0  0  0  0  0  0  0  0  0
   19.9050   65.6550   -8.1140 H   0  0  0  0  0  0  0  0  0  0  0  0
   18.4900   64.4580   -7.9020 H   0  0  0  0  0  0  0  0  0  0  0  0
   18.2410   66.0800   -8.5710 H   0  0  0  0  0  0  0  0  0  0  0  0
  2  1  1  0  0  0  0
  3 28  1  0  0  0  0
  3  2  1  0  0  0  0
  4  3  2  0  0  0  0
  5  6  2  0  0  0  0
  5  4  1  0  0  0  0
  6  7  1  0  0  0  0
  7 31  1  0  0  0  0
  7  2  2  0  0  0  0
  8  5  1  0  0  0  0
  9 10  2  0  0  0  0
  9  8  1  0  0  0  0
 11  9  1  0  0  0  0
 12 11  1  0  0  0  0
 13 12  1  6  0  0  0
 13 25  1  0  0  0  0
 14 13  1  0  0  0  0
 14 15  1  0  0  0  0
 14 33  1  0  0  0  0
 15 24  1  0  0  0  0
 16 15  1  0  0  0  0
 17 23  1  0  0  0  0
 17 16  2  0  0  0  0
 18 17  1  0  0  0  0
 19 18  2  0  0  0  0
 19 20  1  0  0  0  0
 20 21  2  0  0  0  0
 21 16  1  0  0  0  0
 21 37  1  0  0  0  0
 22 19  1  0  0  0  0
 22 40  1  0  0  0  0
 23 13  1  0  0  0  0
 23 42  1  0  0  0  0
 24 43  1  0  0  0  0
 24 44  1  0  0  0  0
 25  8  1  0  0  0  0
 25 26  2  0  0  0  0
 27 12  2  0  0  0  0
 29  4  1  0  0  0  0
 30  6  1  0  0  0  0
 32 14  1  0  0  0  0
 34 15  1  0  0  0  0
 35 18  1  0  0  0  0
 36 20  1  0  0  0  0
 38 22  1  0  0  0  0
 39 22  1  0  0  0  0
 41 23  1  0  0  0  0
 45 24  1  0  0  0  0
M  END
>  <Pose>
1

>  <Score>
-5.78

$$$$
