
 OpenBabel03202210193D

 35 38  0  0  1  0  0  0  0  0999 V2000
   24.7450   63.2430   -3.3450 Cl  0  0  0  0  0  0  0  0  0  0  0  0
   24.0490   63.5090   -4.9410 C   0  0  0  0  0  0  0  0  0  0  0  0
   22.7930   64.0710   -5.0730 C   0  0  0  0  0  0  0  0  0  0  0  0
   22.2320   64.2910   -6.3090 C   0  0  0  0  0  0  0  0  0  0  0  0
   22.9210   63.9510   -7.4790 C   0  0  0  0  0  0  0  0  0  0  0  0
   24.1680   63.3950   -7.3090 C   0  0  0  0  0  0  0  0  0  0  0  0
   24.7530   63.1640   -6.0870 C   0  0  0  0  0  0  0  0  0  0  0  0
   22.3410   64.1880   -8.7540 N   0  0  0  0  0  0  0  0  0  0  0  0
   22.4990   63.4360   -9.9690 C   0  0  0  0  0  0  0  0  0  0  0  0
   23.3780   62.5520  -10.1240 O   0  0  0  0  0  0  0  0  0  0  0  0
   21.4950   63.8520  -10.9790 C   0  0  1  0  0  0  0  0  0  0  0  0
   20.5270   62.7750  -11.3470 C   0  0  1  0  0  0  0  0  0  0  0  0
   20.3560   61.8870  -10.1320 C   0  0  1  0  0  0  0  0  0  0  0  0
   19.6880   62.8470   -9.1480 C   0  0  1  0  0  0  0  0  0  0  0  0
   19.4160   64.1160   -9.9220 C   0  0  1  0  0  0  0  0  0  0  0  0
   20.6540   64.8970  -10.2330 C   0  0  1  0  0  0  0  0  0  0  0  0
   21.4590   65.2620   -9.0430 C   0  0  0  0  0  0  0  0  0  0  0  0
   21.3520   66.3470   -8.4220 O   0  0  0  0  0  0  0  0  0  0  0  0
   19.1650   63.4870  -11.3120 C   0  0  0  0  0  0  0  0  0  0  0  0
   18.4420   62.3650   -8.7500 O   0  0  0  0  0  0  0  0  0  0  0  0
   19.4380   60.9100  -10.4480 O   0  0  0  0  0  0  0  0  0  0  0  0
   22.2640   64.3310   -4.1600 H   0  0  0  0  0  0  0  0  0  0  0  0
   21.2600   64.7230   -6.4380 H   0  0  0  0  0  0  0  0  0  0  0  0
   24.7380   63.1160   -8.1980 H   0  0  0  0  0  0  0  0  0  0  0  0
   25.7460   62.7210   -5.9720 H   0  0  0  0  0  0  0  0  0  0  0  0
   21.9660   64.3390  -11.8570 H   0  0  0  0  0  0  0  0  0  0  0  0
   20.7070   62.2570  -12.2720 H   0  0  0  0  0  0  0  0  0  0  0  0
   21.3090   61.5080   -9.7480 H   0  0  0  0  0  0  0  0  0  0  0  0
   20.2940   62.9980   -8.2610 H   0  0  0  0  0  0  0  0  0  0  0  0
   18.5660   64.6950   -9.5750 H   0  0  0  0  0  0  0  0  0  0  0  0
   20.3940   65.7560  -10.8730 H   0  0  0  0  0  0  0  0  0  0  0  0
   19.0610   64.2360  -12.0870 H   0  0  0  0  0  0  0  0  0  0  0  0
   18.3510   62.7410  -11.2270 H   0  0  0  0  0  0  0  0  0  0  0  0
   18.1040   62.9780   -8.0310 H   0  0  0  0  0  0  0  0  0  0  0  0
   19.5550   60.0560   -9.9710 H   0  0  0  0  0  0  0  0  0  0  0  0
  2  1  1  0  0  0  0
  3  2  1  0  0  0  0
  3 22  1  0  0  0  0
  4  3  2  0  0  0  0
  5  6  2  0  0  0  0
  5  4  1  0  0  0  0
  6  7  1  0  0  0  0
  7 25  1  0  0  0  0
  7  2  2  0  0  0  0
  8  5  1  0  0  0  0
  9  8  1  0  0  0  0
 10  9  2  0  0  0  0
 11 26  1  6  0  0  0
 11 16  1  0  0  0  0
 11  9  1  0  0  0  0
 12 27  1  6  0  0  0
 12 19  1  0  0  0  0
 12 11  1  0  0  0  0
 12 13  1  0  0  0  0
 13 28  1  1  0  0  0
 13 14  1  0  0  0  0
 14 20  1  0  0  0  0
 14 29  1  1  0  0  0
 15 30  1  1  0  0  0
 15 14  1  0  0  0  0
 16 31  1  6  0  0  0
 16 15  1  0  0  0  0
 16 17  1  0  0  0  0
 17  8  1  0  0  0  0
 17 18  2  0  0  0  0
 19 33  1  0  0  0  0
 19 15  1  0  0  0  0
 20 34  1  0  0  0  0
 21 13  1  0  0  0  0
 21 35  1  0  0  0  0
 23  4  1  0  0  0  0
 24  6  1  0  0  0  0
 32 19  1  0  0  0  0
M  END
>  <Pose>
1

>  <Score>
-5.32

$$$$
