
 OpenBabel03202210193D

 43 46  0  0  1  0  0  0  0  0999 V2000
   14.2130   61.3970  -10.6940 Cl  0  0  0  0  0  0  0  0  0  0  0  0
   15.8840   61.8700  -10.5990 C   0  0  0  0  0  0  0  0  0  0  0  0
   16.8260   60.8940  -10.3030 C   0  0  0  0  0  0  0  0  0  0  0  0
   18.1600   61.2460  -10.2230 C   0  0  0  0  0  0  0  0  0  0  0  0
   18.6120   62.5360  -10.4250 C   0  0  0  0  0  0  0  0  0  0  0  0
   17.6590   63.4930  -10.7190 C   0  0  0  0  0  0  0  0  0  0  0  0
   16.3150   63.1780  -10.8070 C   0  0  0  0  0  0  0  0  0  0  0  0
   20.0150   62.8710  -10.3370 N   0  0  0  0  0  0  0  0  0  0  0  0
   20.7990   62.7150  -11.5310 C   0  0  0  0  0  0  0  0  0  0  0  0
   20.2800   62.3030  -12.6140 O   0  0  0  0  0  0  0  0  0  0  0  0
   22.1760   63.0440  -11.4370 N   0  0  0  0  0  0  0  0  0  0  0  0
   22.7410   63.5110  -10.1910 C   0  0  0  0  0  0  0  0  0  0  0  0
   23.7740   64.1880  -10.2670 O   0  0  0  0  0  0  0  0  0  0  0  0
   22.0860   63.1710   -8.9430 C   0  0  2  0  0  0  0  0  0  0  0  0
   20.6140   63.3340   -9.1370 C   0  0  0  0  0  0  0  0  0  0  0  0
   19.8510   63.8640   -8.2900 O   0  0  0  0  0  0  0  0  0  0  0  0
   22.5690   63.7960   -7.7320 C   0  0  0  0  0  0  0  0  0  0  0  0
   22.5100   63.3640   -6.4940 C   0  0  0  0  0  0  0  0  0  0  0  0
   23.1340   64.3290   -5.5560 C   0  0  2  0  0  0  0  0  0  0  0  0
   23.8010   65.2510   -6.4450 N   0  0  0  0  0  0  0  0  0  0  0  0
   23.2250   65.0810   -7.7020 N   0  0  0  0  0  0  0  0  0  0  0  0
   24.1540   63.7200   -4.6940 C   0  0  0  0  0  0  0  0  0  0  0  0
   25.3060   63.2300   -5.2900 C   0  0  0  0  0  0  0  0  0  0  0  0
   26.2810   62.6540   -4.5110 C   0  0  0  0  0  0  0  0  0  0  0  0
   26.1480   62.5500   -3.1460 C   0  0  0  0  0  0  0  0  0  0  0  0
   25.0120   63.0310   -2.5390 C   0  0  0  0  0  0  0  0  0  0  0  0
   24.0240   63.6130   -3.3330 C   0  0  0  0  0  0  0  0  0  0  0  0
   27.4500   62.1560   -5.1010 O   0  0  0  0  0  0  0  0  0  0  0  0
   16.5010   59.8580  -10.1350 H   0  0  0  0  0  0  0  0  0  0  0  0
   18.8880   60.4950   -9.9930 H   0  0  0  0  0  0  0  0  0  0  0  0
   17.9460   64.5080  -10.8870 H   0  0  0  0  0  0  0  0  0  0  0  0
   15.5430   63.9030  -11.0370 H   0  0  0  0  0  0  0  0  0  0  0  0
   22.7580   62.9390  -12.2870 H   0  0  0  0  0  0  0  0  0  0  0  0
   22.2540   62.0420   -8.8070 H   0  0  0  0  0  0  0  0  0  0  0  0
   22.0800   62.4390   -6.1050 H   0  0  0  0  0  0  0  0  0  0  0  0
   22.3410   64.8410   -4.9540 H   0  0  0  0  0  0  0  0  0  0  0  0
   24.8370   65.1370   -6.4470 H   0  0  0  0  0  0  0  0  0  0  0  0
   23.2890   65.8000   -8.4530 H   0  0  0  0  0  0  0  0  0  0  0  0
   25.4220   63.3080   -6.3680 H   0  0  0  0  0  0  0  0  0  0  0  0
   26.9230   62.0930   -2.5290 H   0  0  0  0  0  0  0  0  0  0  0  0
   24.8430   62.9790   -1.4640 H   0  0  0  0  0  0  0  0  0  0  0  0
   23.1250   63.9960   -2.8680 H   0  0  0  0  0  0  0  0  0  0  0  0
   27.9810   61.4520   -4.6180 H   0  0  0  0  0  0  0  0  0  0  0  0
  1  2  1  0  0  0  0
  2  3  1  0  0  0  0
  3  4  2  0  0  0  0
  3 29  1  0  0  0  0
  4 30  1  0  0  0  0
  5  8  1  0  0  0  0
  5  4  1  0  0  0  0
  6  5  2  0  0  0  0
  7  6  1  0  0  0  0
  7  2  2  0  0  0  0
  8 15  1  0  0  0  0
  9 11  1  0  0  0  0
  9  8  1  0  0  0  0
 10  9  2  0  0  0  0
 11 12  1  0  0  0  0
 12 14  1  0  0  0  0
 13 12  2  0  0  0  0
 14 34  1  1  0  0  0
 14 17  1  0  0  0  0
 15 14  1  0  0  0  0
 15 16  2  0  0  0  0
 17 21  1  0  0  0  0
 17 18  2  0  0  0  0
 18 35  1  0  0  0  0
 18 19  1  0  0  0  0
 19 36  1  1  0  0  0
 19 22  1  0  0  0  0
 20 19  1  0  0  0  0
 21 20  1  0  0  0  0
 22 27  1  0  0  0  0
 23 22  2  0  0  0  0
 23 24  1  0  0  0  0
 24 25  2  0  0  0  0
 25 26  1  0  0  0  0
 25 40  1  0  0  0  0
 26 41  1  0  0  0  0
 27 42  1  0  0  0  0
 27 26  2  0  0  0  0
 28 43  1  0  0  0  0
 28 24  1  0  0  0  0
 31  6  1  0  0  0  0
 32  7  1  0  0  0  0
 33 11  1  0  0  0  0
 37 20  1  0  0  0  0
 38 21  1  0  0  0  0
 39 23  1  0  0  0  0
M  END
>  <Pose>
1

>  <Score>
-8.66

$$$$
