
 OpenBabel03202210193D

 58 62  0  0  1  0  0  0  0  0999 V2000
   12.1860   65.2950  -14.8300 Cl  0  0  0  0  0  0  0  0  0  0  0  0
   13.5230   64.9650  -13.7500 C   0  0  0  0  0  0  0  0  0  0  0  0
   13.4200   63.9950  -12.7740 C   0  0  0  0  0  0  0  0  0  0  0  0
   14.4540   63.7140  -11.9100 C   0  0  0  0  0  0  0  0  0  0  0  0
   15.6200   64.4360  -12.0420 C   0  0  0  0  0  0  0  0  0  0  0  0
   15.7080   65.3890  -13.0080 C   0  0  0  0  0  0  0  0  0  0  0  0
   14.6870   65.6850  -13.8810 C   0  0  0  0  0  0  0  0  0  0  0  0
   14.3140   62.6510  -10.8560 C   0  0  0  0  0  0  0  0  0  0  0  0
   15.6270   62.1650  -10.4680 N   0  0  0  0  0  0  0  0  0  0  0  0
   16.0100   60.8050  -10.6290 C   0  0  0  0  0  0  0  0  0  0  0  0
   15.1550   59.9610  -11.0500 O   0  0  0  0  0  0  0  0  0  0  0  0
   17.3570   60.3060  -10.3340 C   0  0  1  0  0  0  0  0  0  0  0  0
   18.2040   61.2270   -9.6500 N   0  0  1  0  0  0  0  0  0  0  0  0
   18.0120   62.6090   -9.9470 C   0  0  0  0  0  0  0  0  0  0  0  0
   18.7910   63.1470  -11.1220 C   0  0  0  0  0  0  0  0  0  0  0  0
   19.5900   63.9250  -10.2310 N   0  0  0  0  0  0  0  0  0  0  0  0
   18.9350   63.4470   -9.0780 C   0  0  0  0  0  0  0  0  0  0  0  0
   21.0020   63.8800  -10.3420 C   0  0  0  0  0  0  0  0  0  0  0  0
   21.7570   64.1960   -9.1240 C   0  0  0  0  0  0  0  0  0  0  0  0
   22.6960   63.3140   -8.6490 C   0  0  0  0  0  0  0  0  0  0  0  0
   23.4300   63.5900   -7.4920 C   0  0  0  0  0  0  0  0  0  0  0  0
   23.2010   64.7680   -6.8200 C   0  0  0  0  0  0  0  0  0  0  0  0
   22.2670   65.6690   -7.2740 C   0  0  0  0  0  0  0  0  0  0  0  0
   21.5540   65.3630   -8.4310 C   0  0  0  0  0  0  0  0  0  0  0  0
   24.3740   62.7050   -7.0110 O   0  0  0  0  0  0  0  0  0  0  0  0
   24.8730   62.8950   -5.7000 C   0  0  0  0  0  0  0  0  0  0  0  0
   16.5920   63.0440   -9.9030 C   0  0  0  0  0  0  0  0  0  0  0  0
   16.2200   64.1340   -9.3970 O   0  0  0  0  0  0  0  0  0  0  0  0
   18.0530   61.0140   -8.2400 C   0  0  0  0  0  0  0  0  0  0  0  0
   17.1140   59.8570   -8.0410 C   0  0  1  0  0  0  0  0  0  0  0  0
   17.1880   59.1350   -9.3560 C   0  0  0  0  0  0  0  0  0  0  0  0
   17.4680   59.0510   -6.9680 O   0  0  0  0  0  0  0  0  0  0  0  0
   12.4820   63.4250  -12.6790 H   0  0  0  0  0  0  0  0  0  0  0  0
   16.4270   64.2230  -11.3770 H   0  0  0  0  0  0  0  0  0  0  0  0
   16.6360   65.9520  -13.1020 H   0  0  0  0  0  0  0  0  0  0  0  0
   14.7870   66.4600  -14.6500 H   0  0  0  0  0  0  0  0  0  0  0  0
   13.7330   61.8230  -11.3170 H   0  0  0  0  0  0  0  0  0  0  0  0
   13.7910   63.1110   -9.9970 H   0  0  0  0  0  0  0  0  0  0  0  0
   17.8600   59.8990  -11.2430 H   0  0  0  0  0  0  0  0  0  0  0  0
   19.2730   62.4080  -11.7600 H   0  0  0  0  0  0  0  0  0  0  0  0
   18.1560   63.8470  -11.7400 H   0  0  0  0  0  0  0  0  0  0  0  0
   19.4950   62.8900   -8.3230 H   0  0  0  0  0  0  0  0  0  0  0  0
   18.3300   64.2490   -8.5630 H   0  0  0  0  0  0  0  0  0  0  0  0
   21.2580   62.8490  -10.7360 H   0  0  0  0  0  0  0  0  0  0  0  0
   21.2990   64.5490  -11.2050 H   0  0  0  0  0  0  0  0  0  0  0  0
   22.9260   62.3690   -9.1260 H   0  0  0  0  0  0  0  0  0  0  0  0
   23.7910   64.9540   -5.9180 H   0  0  0  0  0  0  0  0  0  0  0  0
   22.1310   66.5780   -6.7070 H   0  0  0  0  0  0  0  0  0  0  0  0
   20.8330   66.1070   -8.7400 H   0  0  0  0  0  0  0  0  0  0  0  0
   25.6550   62.1190   -5.5460 H   0  0  0  0  0  0  0  0  0  0  0  0
   25.3080   63.9160   -5.5750 H   0  0  0  0  0  0  0  0  0  0  0  0
   24.0830   62.7700   -4.9330 H   0  0  0  0  0  0  0  0  0  0  0  0
   17.6170   61.8940   -7.7030 H   0  0  0  0  0  0  0  0  0  0  0  0
   19.0610   60.7720   -7.7920 H   0  0  0  0  0  0  0  0  0  0  0  0
   16.0660   60.2550   -7.9370 H   0  0  0  0  0  0  0  0  0  0  0  0
   16.2830   58.5510   -9.5830 H   0  0  0  0  0  0  0  0  0  0  0  0
   18.1100   58.5450   -9.3900 H   0  0  0  0  0  0  0  0  0  0  0  0
   17.7930   58.1950   -7.3390 H   0  0  0  0  0  0  0  0  0  0  0  0
  1  2  1  0  0  0  0
  2  3  1  0  0  0  0
  3 33  1  0  0  0  0
  3  4  2  0  0  0  0
  4  8  1  0  0  0  0
  5  4  1  0  0  0  0
  5 34  1  0  0  0  0
  6  5  2  0  0  0  0
  7  2  2  0  0  0  0
  7  6  1  0  0  0  0
  8  9  1  0  0  0  0
  8 38  1  0  0  0  0
  9 27  1  0  0  0  0
 10  9  1  0  0  0  0
 10 12  1  0  0  0  0
 11 10  2  0  0  0  0
 12 39  1  6  0  0  0
 12 13  1  0  0  0  0
 12 31  1  0  0  0  0
 13 14  1  1  0  0  0
 13 29  1  0  0  0  0
 14 27  1  0  0  0  0
 14 17  1  0  0  0  0
 15 16  1  0  0  0  0
 15 14  1  0  0  0  0
 16 17  1  0  0  0  0
 17 43  1  0  0  0  0
 17 42  1  0  0  0  0
 18 16  1  0  0  0  0
 18 19  1  0  0  0  0
 19 20  2  0  0  0  0
 19 24  1  0  0  0  0
 20 21  1  0  0  0  0
 21 25  1  0  0  0  0
 21 22  2  0  0  0  0
 22 47  1  0  0  0  0
 23 22  1  0  0  0  0
 23 48  1  0  0  0  0
 24 23  2  0  0  0  0
 25 26  1  0  0  0  0
 26 51  1  0  0  0  0
 26 50  1  0  0  0  0
 26 52  1  0  0  0  0
 27 28  2  0  0  0  0
 29 30  1  0  0  0  0
 29 54  1  0  0  0  0
 29 53  1  0  0  0  0
 30 55  1  1  0  0  0
 30 32  1  0  0  0  0
 31 30  1  0  0  0  0
 35  6  1  0  0  0  0
 36  7  1  0  0  0  0
 37  8  1  0  0  0  0
 40 15  1  0  0  0  0
 41 15  1  0  0  0  0
 44 18  1  0  0  0  0
 45 18  1  0  0  0  0
 46 20  1  0  0  0  0
 49 24  1  0  0  0  0
 56 31  1  0  0  0  0
 57 31  1  0  0  0  0
 58 32  1  0  0  0  0
M  END
>  <Pose>
1

>  <Score>
-4.39

$$$$
