
 OpenBabel03202210193D

 52 55  0  0  1  0  0  0  0  0999 V2000
   23.6730   70.2520   -6.7520 Cl  0  0  0  0  0  0  0  0  0  0  0  0
   23.1550   68.5900   -6.6400 C   0  0  0  0  0  0  0  0  0  0  0  0
   23.9440   67.5720   -6.1660 C   0  0  0  0  0  0  0  0  0  0  0  0
   23.4870   66.2790   -6.0980 C   0  0  0  0  0  0  0  0  0  0  0  0
   22.1930   65.9400   -6.5110 C   0  0  0  0  0  0  0  0  0  0  0  0
   21.4070   66.9510   -6.9810 C   0  0  0  0  0  0  0  0  0  0  0  0
   21.8750   68.2450   -7.0450 C   0  0  0  0  0  0  0  0  0  0  0  0
   21.7700   64.5610   -6.4090 C   0  0  0  0  0  0  0  0  0  0  0  0
   20.9600   64.2310   -5.4800 O   0  0  0  0  0  0  0  0  0  0  0  0
   22.2200   63.4890   -7.3230 C   0  0  0  0  0  0  0  0  0  0  0  0
   21.3580   63.5100   -8.5100 N   0  0  0  0  0  0  0  0  0  0  0  0
   21.6010   63.8740   -9.7570 C   0  0  2  0  0  0  0  0  0  0  0  0
   20.4940   63.7200  -10.5320 N   0  0  0  0  0  0  0  0  0  0  0  0
   19.5330   63.2470   -9.7690 C   0  0  0  0  0  0  0  0  0  0  0  0
   20.0870   63.1160   -8.4780 C   0  0  0  0  0  0  0  0  0  0  0  0
   18.1390   62.9190  -10.0800 C   0  0  0  0  0  0  0  0  0  0  0  0
   17.6080   61.6720  -10.1610 C   0  0  0  0  0  0  0  0  0  0  0  0
   16.2860   61.4250  -10.5300 C   0  0  0  0  0  0  0  0  0  0  0  0
   15.4470   62.4610  -10.8340 C   0  0  0  0  0  0  0  0  0  0  0  0
   15.9530   63.7360  -10.7600 C   0  0  0  0  0  0  0  0  0  0  0  0
   17.2620   63.9630  -10.3940 C   0  0  0  0  0  0  0  0  0  0  0  0
   14.1100   62.2400  -11.2100 O   0  0  0  0  0  0  0  0  0  0  0  0
   13.7110   62.1070  -12.5470 C   0  0  0  0  0  0  0  0  0  0  0  0
   20.4370   64.0790  -11.9210 C   0  0  0  0  0  0  0  0  0  0  0  0
   21.1860   63.0530  -12.7670 C   0  0  0  0  0  0  0  0  0  0  0  0
   22.3780   62.6300  -11.9020 C   0  0  0  0  0  0  0  0  0  0  0  0
   23.2120   63.8520  -11.6350 C   0  0  0  0  0  0  0  0  0  0  0  0
   22.9410   64.3590  -10.2100 C   0  0  0  0  0  0  0  0  0  0  0  0
   24.9520   67.7960   -5.8380 H   0  0  0  0  0  0  0  0  0  0  0  0
   24.1500   65.4930   -5.7140 H   0  0  0  0  0  0  0  0  0  0  0  0
   20.4060   66.7630   -7.3130 H   0  0  0  0  0  0  0  0  0  0  0  0
   21.2130   69.0240   -7.4280 H   0  0  0  0  0  0  0  0  0  0  0  0
   23.2640   63.7810   -7.6370 H   0  0  0  0  0  0  0  0  0  0  0  0
   22.2470   62.5040   -6.8580 H   0  0  0  0  0  0  0  0  0  0  0  0
   19.5330   62.7440   -7.6130 H   0  0  0  0  0  0  0  0  0  0  0  0
   18.1860   60.8270   -9.9010 H   0  0  0  0  0  0  0  0  0  0  0  0
   15.9020   60.4090  -10.5840 H   0  0  0  0  0  0  0  0  0  0  0  0
   15.2870   64.5500  -10.9990 H   0  0  0  0  0  0  0  0  0  0  0  0
   17.6510   64.9700  -10.3420 H   0  0  0  0  0  0  0  0  0  0  0  0
   13.9760   61.0880  -12.9050 H   0  0  0  0  0  0  0  0  0  0  0  0
   12.6240   62.3290  -12.6780 H   0  0  0  0  0  0  0  0  0  0  0  0
   14.2400   62.8320  -13.2340 H   0  0  0  0  0  0  0  0  0  0  0  0
   19.5140   64.4470  -12.3130 H   0  0  0  0  0  0  0  0  0  0  0  0
   21.1330   65.0050  -12.0210 H   0  0  0  0  0  0  0  0  0  0  0  0
   20.5260   62.2100  -12.9960 H   0  0  0  0  0  0  0  0  0  0  0  0
   21.6010   63.4750  -13.6830 H   0  0  0  0  0  0  0  0  0  0  0  0
   21.9770   62.2430  -10.9260 H   0  0  0  0  0  0  0  0  0  0  0  0
   22.9340   61.7930  -12.3460 H   0  0  0  0  0  0  0  0  0  0  0  0
   24.2760   63.5360  -11.7230 H   0  0  0  0  0  0  0  0  0  0  0  0
   23.0880   64.6520  -12.3900 H   0  0  0  0  0  0  0  0  0  0  0  0
   22.8620   65.4770  -10.2200 H   0  0  0  0  0  0  0  0  0  0  0  0
   23.7530   64.0930   -9.5160 H   0  0  0  0  0  0  0  0  0  0  0  0
  1  2  1  0  0  0  0
  2  3  1  0  0  0  0
  3  4  2  0  0  0  0
  3 29  1  0  0  0  0
  4 30  1  0  0  0  0
  5  8  1  0  0  0  0
  5  4  1  0  0  0  0
  6  5  2  0  0  0  0
  7  6  1  0  0  0  0
  7  2  2  0  0  0  0
  8  9  2  0  0  0  0
 10 34  1  0  0  0  0
 10  8  1  0  0  0  0
 11 15  1  0  0  0  0
 11 10  1  0  0  0  0
 12 13  1  6  0  0  0
 12 11  1  0  0  0  0
 13 14  1  0  0  0  0
 14 15  2  0  0  0  0
 15 35  1  0  0  0  0
 16 14  1  0  0  0  0
 17 16  1  0  0  0  0
 17 36  1  0  0  0  0
 18 17  2  0  0  0  0
 19 20  2  0  0  0  0
 19 18  1  0  0  0  0
 20 21  1  0  0  0  0
 21 39  1  0  0  0  0
 21 16  2  0  0  0  0
 22 19  1  0  0  0  0
 23 22  1  0  0  0  0
 24 13  1  0  0  0  0
 25 24  1  0  0  0  0
 25 26  1  0  0  0  0
 26 27  1  0  0  0  0
 26 47  1  0  0  0  0
 27 28  1  0  0  0  0
 28 12  1  0  0  0  0
 28 52  1  0  0  0  0
 31  6  1  0  0  0  0
 32  7  1  0  0  0  0
 33 10  1  0  0  0  0
 37 18  1  0  0  0  0
 38 20  1  0  0  0  0
 40 23  1  0  0  0  0
 41 23  1  0  0  0  0
 42 23  1  0  0  0  0
 43 24  1  0  0  0  0
 44 24  1  0  0  0  0
 45 25  1  0  0  0  0
 46 25  1  0  0  0  0
 48 26  1  0  0  0  0
 49 27  1  0  0  0  0
 50 27  1  0  0  0  0
 51 28  1  0  0  0  0
M  END
>  <Pose>
1

>  <Score>
-5.91

$$$$
