
 OpenBabel03202210193D

 53 56  0  0  0  0  0  0  0  0999 V2000
   16.2010   64.1470   -9.8950 Cl  0  0  0  0  0  0  0  0  0  0  0  0
   17.8620   63.5900  -10.0720 C   0  0  0  0  0  0  0  0  0  0  0  0
   18.8720   64.5280   -9.8690 C   0  0  0  0  0  0  0  0  0  0  0  0
   20.1760   64.1080  -10.0040 C   0  0  0  0  0  0  0  0  0  0  0  0
   20.4570   62.7880  -10.3320 C   0  0  0  0  0  0  0  0  0  0  0  0
   19.4440   61.8590  -10.5330 C   0  0  0  0  0  0  0  0  0  0  0  0
   18.1340   62.2820  -10.3980 C   0  0  0  0  0  0  0  0  0  0  0  0
   21.7400   62.2900  -10.4860 O   0  0  0  0  0  0  0  0  0  0  0  0
   22.9150   62.9410  -10.8820 C   0  0  0  0  0  0  0  0  0  0  0  0
   23.3640   64.0640  -10.0190 C   0  0  0  0  0  0  0  0  0  0  0  0
   22.3660   64.7020   -9.2240 N   0  0  0  0  0  0  0  0  0  0  0  0
   21.1040   65.2410   -9.7490 C   0  0  0  0  0  0  0  0  0  0  0  0
   22.5880   64.8460   -7.8270 C   0  0  0  0  0  0  0  0  0  0  0  0
   22.4960   66.0020   -7.3550 O   0  0  0  0  0  0  0  0  0  0  0  0
   22.9050   63.7170   -6.9660 C   0  0  0  0  0  0  0  0  0  0  0  0
   23.7040   63.9660   -5.7530 C   0  0  0  0  0  0  0  0  0  0  0  0
   25.0920   63.4820   -5.6770 C   0  0  0  0  0  0  0  0  0  0  0  0
   25.4370   62.4250   -4.8020 N   0  0  0  0  0  0  0  0  0  0  0  0
   26.6460   61.6880   -4.8350 C   0  0  0  0  0  0  0  0  0  0  0  0
   27.6320   61.8230   -5.6180 O   0  0  0  0  0  0  0  0  0  0  0  0
   26.5760   60.7260   -3.7970 N   0  0  0  0  0  0  0  0  0  0  0  0
   25.4990   61.1000   -2.8830 C   0  0  0  0  0  0  0  0  0  0  0  0
   24.6320   61.9200   -3.7550 C   0  0  0  0  0  0  0  0  0  0  0  0
   23.3770   62.1190   -3.5700 O   0  0  0  0  0  0  0  0  0  0  0  0
   24.0400   61.8900  -10.9480 C   0  0  0  0  0  0  0  0  0  0  0  0
   23.5050   60.7480  -11.7690 C   0  0  0  0  0  0  0  0  0  0  0  0
   22.2670   61.0220  -12.3230 O   0  0  0  0  0  0  0  0  0  0  0  0
   22.2730   62.1630  -13.1060 C   0  0  0  0  0  0  0  0  0  0  0  0
   22.7580   63.3790  -12.3470 C   0  0  0  0  0  0  0  0  0  0  0  0
   18.6070   65.5380   -9.6160 H   0  0  0  0  0  0  0  0  0  0  0  0
   19.6960   60.8570  -10.7840 H   0  0  0  0  0  0  0  0  0  0  0  0
   17.3160   61.5730  -10.5500 H   0  0  0  0  0  0  0  0  0  0  0  0
   23.7810   64.8620  -10.7040 H   0  0  0  0  0  0  0  0  0  0  0  0
   24.2580   63.7560   -9.4060 H   0  0  0  0  0  0  0  0  0  0  0  0
   20.6770   66.0230   -9.1250 H   0  0  0  0  0  0  0  0  0  0  0  0
   21.2840   65.7150  -10.7520 H   0  0  0  0  0  0  0  0  0  0  0  0
   23.3840   62.8660   -7.5130 H   0  0  0  0  0  0  0  0  0  0  0  0
   21.9200   63.2740   -6.6250 H   0  0  0  0  0  0  0  0  0  0  0  0
   23.1460   63.4640   -4.8930 H   0  0  0  0  0  0  0  0  0  0  0  0
   23.6240   65.0620   -5.4440 H   0  0  0  0  0  0  0  0  0  0  0  0
   25.3970   63.2410   -6.7550 H   0  0  0  0  0  0  0  0  0  0  0  0
   25.8230   64.3290   -5.4440 H   0  0  0  0  0  0  0  0  0  0  0  0
   27.1690   59.8820   -3.6700 H   0  0  0  0  0  0  0  0  0  0  0  0
   25.8790   61.7500   -2.0740 H   0  0  0  0  0  0  0  0  0  0  0  0
   24.9660   60.2050   -2.5030 H   0  0  0  0  0  0  0  0  0  0  0  0
   24.3700   61.6000   -9.9480 H   0  0  0  0  0  0  0  0  0  0  0  0
   24.8670   62.3870  -11.4990 H   0  0  0  0  0  0  0  0  0  0  0  0
   24.2120   60.4330  -12.5740 H   0  0  0  0  0  0  0  0  0  0  0  0
   23.3900   59.8750  -11.0940 H   0  0  0  0  0  0  0  0  0  0  0  0
   22.8170   62.0350  -14.0680 H   0  0  0  0  0  0  0  0  0  0  0  0
   21.2000   62.3570  -13.3960 H   0  0  0  0  0  0  0  0  0  0  0  0
   23.7850   63.6080  -12.7320 H   0  0  0  0  0  0  0  0  0  0  0  0
   22.1010   64.2410  -12.4560 H   0  0  0  0  0  0  0  0  0  0  0  0
  2  1  1  0  0  0  0
  2  3  1  0  0  0  0
  3 30  1  0  0  0  0
  4  3  2  0  0  0  0
  4 12  1  0  0  0  0
  5  4  1  0  0  0  0
  6  7  1  0  0  0  0
  6  5  2  0  0  0  0
  7  2  2  0  0  0  0
  8  5  1  0  0  0  0
  9  8  1  0  0  0  0
  9 10  1  0  0  0  0
 10 34  1  0  0  0  0
 10 11  1  0  0  0  0
 11 13  1  0  0  0  0
 12 11  1  0  0  0  0
 12 35  1  0  0  0  0
 13 14  2  0  0  0  0
 13 15  1  0  0  0  0
 15 38  1  0  0  0  0
 15 16  1  0  0  0  0
 16 17  1  0  0  0  0
 16 40  1  0  0  0  0
 16 39  1  0  0  0  0
 17 42  1  0  0  0  0
 17 18  1  0  0  0  0
 18 23  1  0  0  0  0
 19 18  1  0  0  0  0
 19 21  1  0  0  0  0
 20 19  2  0  0  0  0
 21 43  1  0  0  0  0
 21 22  1  0  0  0  0
 22 45  1  0  0  0  0
 22 44  1  0  0  0  0
 23 24  2  0  0  0  0
 23 22  1  0  0  0  0
 25  9  1  0  0  0  0
 25 46  1  0  0  0  0
 26 49  1  0  0  0  0
 26 25  1  0  0  0  0
 27 26  1  0  0  0  0
 28 29  1  0  0  0  0
 28 27  1  0  0  0  0
 29  9  1  0  0  0  0
 31  6  1  0  0  0  0
 32  7  1  0  0  0  0
 33 10  1  0  0  0  0
 36 12  1  0  0  0  0
 37 15  1  0  0  0  0
 41 17  1  0  0  0  0
 47 25  1  0  0  0  0
 48 26  1  0  0  0  0
 50 28  1  0  0  0  0
 51 28  1  0  0  0  0
 52 29  1  0  0  0  0
 53 29  1  0  0  0  0
M  END
>  <Pose>
1

>  <Score>
-5.93

$$$$
