
 OpenBabel03202210193D

 55 58  0  0  1  0  0  0  0  0999 V2000
   16.3990   64.1510  -10.7530 B   0  0  0  0  0  0  0  0  0  0  0  0
   18.3040   64.0290  -10.6410 C   0  0  0  0  0  0  0  0  0  0  0  0
   19.0220   65.1890  -10.6740 C   0  0  0  0  0  0  0  0  0  0  0  0
   20.3830   65.1400  -10.5980 C   0  0  0  0  0  0  0  0  0  0  0  0
   21.1080   63.9690  -10.4860 C   0  0  0  0  0  0  0  0  0  0  0  0
   20.3580   62.8130  -10.4550 C   0  0  0  0  0  0  0  0  0  0  0  0
   18.9670   62.8290  -10.5320 C   0  0  0  0  0  0  0  0  0  0  0  0
   22.5580   64.0300  -10.4170 C   0  0  2  0  0  0  0  0  0  0  0  0
   23.2500   63.1760  -11.3350 N   0  0  0  0  0  0  0  0  0  0  0  0
   23.8960   62.1170  -10.6440 C   0  0  0  0  0  0  0  0  0  0  0  0
   24.4450   61.0750  -11.0770 O   0  0  0  0  0  0  0  0  0  0  0  0
   23.8440   62.4130   -9.1940 C   0  0  0  0  0  0  0  0  0  0  0  0
   24.3090   61.7090   -8.2630 O   0  0  0  0  0  0  0  0  0  0  0  0
   23.1420   63.6790   -9.0930 C   0  0  0  0  0  0  0  0  0  0  0  0
   23.0500   64.3700   -7.9500 C   0  0  0  0  0  0  0  0  0  0  0  0
   22.3060   65.5520   -8.0490 O   0  0  0  0  0  0  0  0  0  0  0  0
   23.6700   63.9440   -6.7010 C   0  0  0  0  0  0  0  0  0  0  0  0
   24.8580   63.5110   -6.4520 O   0  0  0  0  0  0  0  0  0  0  0  0
   25.0780   63.2130   -5.2070 C   0  0  0  0  0  0  0  0  0  0  0  0
   23.9110   63.4660   -4.5020 C   0  0  0  0  0  0  0  0  0  0  0  0
   23.0280   63.9320   -5.4780 C   0  0  0  0  0  0  0  0  0  0  0  0
   23.8680   63.2340   -3.1480 C   0  0  0  0  0  0  0  0  0  0  0  0
   24.9700   62.7520   -2.4800 C   0  0  0  0  0  0  0  0  0  0  0  0
   26.1430   62.4960   -3.1780 C   0  0  0  0  0  0  0  0  0  0  0  0
   26.1760   62.7300   -4.5160 C   0  0  0  0  0  0  0  0  0  0  0  0
   27.3250   62.4870   -5.2380 O   0  0  0  0  0  0  0  0  0  0  0  0
   27.5020   61.3950   -6.1300 C   0  0  0  0  0  0  0  0  0  0  0  0
   23.3050   63.3350  -12.7630 C   0  0  0  0  0  0  0  0  0  0  0  0
   24.7090   63.6700  -13.2330 C   0  0  0  0  0  0  0  0  0  0  0  0
   25.0110   63.1690  -14.5290 N   0  0  0  0  0  4  0  0  0  0  0  0
   24.1770   63.6390  -15.5920 C   0  0  0  0  0  0  0  0  0  0  0  0
   26.4170   63.3720  -14.8520 C   0  0  0  0  0  0  0  0  0  0  0  0
   18.5250   66.1620  -10.7610 H   0  0  0  0  0  0  0  0  0  0  0  0
   20.9180   66.1000  -10.6300 H   0  0  0  0  0  0  0  0  0  0  0  0
   20.8640   61.8830  -10.3720 H   0  0  0  0  0  0  0  0  0  0  0  0
   18.4120   61.9180  -10.5040 H   0  0  0  0  0  0  0  0  0  0  0  0
   22.8740   65.0770  -10.7160 H   0  0  0  0  0  0  0  0  0  0  0  0
   22.0120   64.2240   -5.2580 H   0  0  0  0  0  0  0  0  0  0  0  0
   22.9640   63.4270   -2.5950 H   0  0  0  0  0  0  0  0  0  0  0  0
   24.9780   62.5540   -1.4220 H   0  0  0  0  0  0  0  0  0  0  0  0
   27.0070   62.1130   -2.6150 H   0  0  0  0  0  0  0  0  0  0  0  0
   28.2470   61.7140   -6.9080 H   0  0  0  0  0  0  0  0  0  0  0  0
   27.8870   60.5560   -5.5350 H   0  0  0  0  0  0  0  0  0  0  0  0
   26.5930   61.1070   -6.6610 H   0  0  0  0  0  0  0  0  0  0  0  0
   22.5790   64.0870  -13.1300 H   0  0  0  0  0  0  0  0  0  0  0  0
   23.0250   62.3790  -13.2560 H   0  0  0  0  0  0  0  0  0  0  0  0
   25.4380   63.2910  -12.4700 H   0  0  0  0  0  0  0  0  0  0  0  0
   24.8790   64.7770  -13.2410 H   0  0  0  0  0  0  0  0  0  0  0  0
   24.8790   62.1140  -14.4960 H   0  0  0  0  0  0  0  0  0  0  0  0
   23.1560   63.2150  -15.4740 H   0  0  0  0  0  0  0  0  0  0  0  0
   24.1810   64.7270  -15.7320 H   0  0  0  0  0  0  0  0  0  0  0  0
   24.5880   63.1970  -16.5370 H   0  0  0  0  0  0  0  0  0  0  0  0
   26.5630   64.3910  -15.2350 H   0  0  0  0  0  0  0  0  0  0  0  0
   27.0360   63.2830  -13.9380 H   0  0  0  0  0  0  0  0  0  0  0  0
   26.7100   62.6110  -15.5990 H   0  0  0  0  0  0  0  0  0  0  0  0
  1  2  1  0  0  0  0
  2  7  1  0  0  0  0
  3  2  2  0  0  0  0
  3  4  1  0  0  0  0
  4  5  2  0  0  0  0
  5  6  1  0  0  0  0
  5  8  1  0  0  0  0
  6 35  1  0  0  0  0
  7 36  1  0  0  0  0
  7  6  2  0  0  0  0
  8 37  1  6  0  0  0
  8 14  1  0  0  0  0
  9 10  1  0  0  0  0
  9  8  1  0  0  0  0
 10 12  1  0  0  0  0
 11 10  2  0  0  0  0
 12 14  1  0  0  0  0
 12 13  2  0  0  0  0
 14 15  2  0  0  0  0
 15 17  1  0  0  0  0
 16 15  1  0  0  0  0
 17 18  1  0  0  0  0
 17 21  2  0  0  0  0
 18 19  1  0  0  0  0
 19 25  2  0  0  0  0
 19 20  1  0  0  0  0
 20 22  2  0  0  0  0
 21 38  1  0  0  0  0
 21 20  1  0  0  0  0
 22 39  1  0  0  0  0
 22 23  1  0  0  0  0
 23 40  1  0  0  0  0
 24 41  1  0  0  0  0
 24 23  2  0  0  0  0
 25 24  1  0  0  0  0
 26 25  1  0  0  0  0
 27 43  1  0  0  0  0
 27 26  1  0  0  0  0
 28  9  1  0  0  0  0
 29 28  1  0  0  0  0
 29 47  1  0  0  0  0
 30 49  1  0  0  0  0
 30 29  1  0  0  0  0
 31 50  1  0  0  0  0
 31 30  1  0  0  0  0
 32 30  1  0  0  0  0
 32 54  1  0  0  0  0
 33  3  1  0  0  0  0
 34  4  1  0  0  0  0
 42 27  1  0  0  0  0
 44 27  1  0  0  0  0
 45 28  1  0  0  0  0
 46 28  1  0  0  0  0
 48 29  1  0  0  0  0
 51 31  1  0  0  0  0
 52 31  1  0  0  0  0
 53 32  1  0  0  0  0
 55 32  1  0  0  0  0
M  END
>  <Pose>
1

>  <Score>
-5.60

$$$$
