
 OpenBabel03202210193D

 53 56  0  0  1  0  0  0  0  0999 V2000
   18.1400   60.9640   -9.7500 S   0  0  0  0  0  0  0  0  0  0  0  0
   18.0420   59.5160  -10.1960 O   0  0  0  0  0  0  0  0  0  0  0  0
   18.1130   60.9220   -8.2370 O   0  0  0  0  0  0  0  0  0  0  0  0
   19.5210   61.6270  -10.3850 N   0  0  0  0  0  0  0  0  0  0  0  0
   20.7310   60.9410  -10.4130 C   0  0  0  0  0  0  0  0  0  0  0  0
   21.8390   61.9030  -10.8610 C   0  0  0  0  0  0  0  0  0  0  0  0
   21.6360   63.2080  -10.2290 N   0  0  0  0  0  0  0  0  0  0  0  0
   20.3610   63.8500  -10.4860 C   0  0  0  0  0  0  0  0  0  0  0  0
   19.4770   62.7930  -11.1640 C   0  0  0  0  0  0  0  0  0  0  0  0
   22.6470   63.7720   -9.4030 C   0  0  0  0  0  0  0  0  0  0  0  0
   23.5690   63.0150   -9.0200 O   0  0  0  0  0  0  0  0  0  0  0  0
   22.6000   65.1830   -9.0190 C   0  0  0  0  0  0  0  0  0  0  0  0
   21.9470   65.4390   -7.6680 C   0  0  2  0  0  0  0  0  0  0  0  0
   21.2680   66.7050   -7.5880 N   0  0  0  0  0  0  0  0  0  0  0  0
   21.5440   67.8960   -6.8660 C   0  0  0  0  0  0  0  0  0  0  0  0
   20.6230   68.7230   -6.6360 O   0  0  0  0  0  0  0  0  0  0  0  0
   22.8490   68.3200   -6.3130 C   0  0  0  0  0  0  0  0  0  0  0  0
   23.9170   67.4900   -5.9570 C   0  0  0  0  0  0  0  0  0  0  0  0
   25.0650   68.0440   -5.4650 C   0  0  0  0  0  0  0  0  0  0  0  0
   25.2260   69.4210   -5.3010 C   0  0  0  0  0  0  0  0  0  0  0  0
   24.1440   70.2220   -5.6670 C   0  0  0  0  0  0  0  0  0  0  0  0
   22.9800   69.6770   -6.1630 C   0  0  0  0  0  0  0  0  0  0  0  0
   23.9400   66.0740   -6.0540 N   0  0  0  0  0  0  0  0  0  0  0  0
   22.9380   65.2070   -6.5960 C   0  0  0  0  0  0  0  0  0  0  0  0
   22.9340   64.0560   -6.0310 O   0  0  0  0  0  0  0  0  0  0  0  0
   16.6530   61.7500  -10.2900 C   0  0  0  0  0  0  0  0  0  0  0  0
   15.5320   61.0230  -10.6200 C   0  0  0  0  0  0  0  0  0  0  0  0
   14.3970   61.6810  -11.0400 C   0  0  0  0  0  0  0  0  0  0  0  0
   14.3160   63.0570  -11.1510 C   0  0  0  0  0  0  0  0  0  0  0  0
   15.4490   63.7890  -10.8170 C   0  0  0  0  0  0  0  0  0  0  0  0
   16.5810   63.1260  -10.3980 C   0  0  0  0  0  0  0  0  0  0  0  0
   12.8920   63.8930  -11.6770 Cl  0  0  0  0  0  0  0  0  0  0  0  0
   20.7640   60.0690  -11.1320 H   0  0  0  0  0  0  0  0  0  0  0  0
   21.0910   60.5570   -9.4290 H   0  0  0  0  0  0  0  0  0  0  0  0
   21.8070   62.0590  -11.9510 H   0  0  0  0  0  0  0  0  0  0  0  0
   22.8400   61.5010  -10.6180 H   0  0  0  0  0  0  0  0  0  0  0  0
   19.8300   64.0900   -9.5360 H   0  0  0  0  0  0  0  0  0  0  0  0
   20.4620   64.7030  -11.1530 H   0  0  0  0  0  0  0  0  0  0  0  0
   19.9110   62.6440  -12.1970 H   0  0  0  0  0  0  0  0  0  0  0  0
   18.4500   63.2050  -11.3210 H   0  0  0  0  0  0  0  0  0  0  0  0
   23.6540   65.5900   -8.9000 H   0  0  0  0  0  0  0  0  0  0  0  0
   22.1370   65.8190   -9.7980 H   0  0  0  0  0  0  0  0  0  0  0  0
   21.1560   64.6340   -7.5620 H   0  0  0  0  0  0  0  0  0  0  0  0
   20.3770   66.8160   -8.1680 H   0  0  0  0  0  0  0  0  0  0  0  0
   25.8800   67.4050   -5.1890 H   0  0  0  0  0  0  0  0  0  0  0  0
   26.1310   69.8450   -4.9150 H   0  0  0  0  0  0  0  0  0  0  0  0
   24.2750   71.2870   -5.5400 H   0  0  0  0  0  0  0  0  0  0  0  0
   22.1450   70.2920   -6.4450 H   0  0  0  0  0  0  0  0  0  0  0  0
   24.7840   65.6300   -5.6920 H   0  0  0  0  0  0  0  0  0  0  0  0
   15.5110   59.9540  -10.5600 H   0  0  0  0  0  0  0  0  0  0  0  0
   13.4940   61.1050  -11.3040 H   0  0  0  0  0  0  0  0  0  0  0  0
   15.3990   64.8600  -10.9030 H   0  0  0  0  0  0  0  0  0  0  0  0
   17.4390   63.7250  -10.1500 H   0  0  0  0  0  0  0  0  0  0  0  0
  1  3  2  0  0  0  0
  2  1  2  0  0  0  0
  4  1  1  0  0  0  0
  5  4  1  0  0  0  0
  5 34  1  0  0  0  0
  6 36  1  0  0  0  0
  6  5  1  0  0  0  0
  6  7  1  0  0  0  0
  7 10  1  0  0  0  0
  8  7  1  0  0  0  0
  8 37  1  0  0  0  0
  9  8  1  0  0  0  0
  9  4  1  0  0  0  0
 10 11  2  0  0  0  0
 10 12  1  0  0  0  0
 12 41  1  0  0  0  0
 12 13  1  0  0  0  0
 13 14  1  0  0  0  0
 13 43  1  1  0  0  0
 13 24  1  0  0  0  0
 14 15  1  0  0  0  0
 15 16  2  0  0  0  0
 15 17  1  0  0  0  0
 17 22  2  0  0  0  0
 17 18  1  0  0  0  0
 18 19  2  0  0  0  0
 19 20  1  0  0  0  0
 19 45  1  0  0  0  0
 20 46  1  0  0  0  0
 21 47  1  0  0  0  0
 21 20  2  0  0  0  0
 22 21  1  0  0  0  0
 23 18  1  0  0  0  0
 23 49  1  0  0  0  0
 24 23  1  0  0  0  0
 24 25  2  0  0  0  0
 26  1  1  0  0  0  0
 27 50  1  0  0  0  0
 27 26  2  0  0  0  0
 28 27  1  0  0  0  0
 29 28  2  0  0  0  0
 29 30  1  0  0  0  0
 30 31  2  0  0  0  0
 31 26  1  0  0  0  0
 31 53  1  0  0  0  0
 32 29  1  0  0  0  0
 33  5  1  0  0  0  0
 35  6  1  0  0  0  0
 38  8  1  0  0  0  0
 39  9  1  0  0  0  0
 40  9  1  0  0  0  0
 42 12  1  0  0  0  0
 44 14  1  0  0  0  0
 48 22  1  0  0  0  0
 51 28  1  0  0  0  0
 52 30  1  0  0  0  0
M  END
>  <Pose>
1

>  <Score>
-5.65

$$$$
