
 OpenBabel03202210193D

 53 56  0  0  1  0  0  0  0  0999 V2000
   17.0260   64.6500  -10.6450 Cl  0  0  0  0  0  0  0  0  0  0  0  0
   16.3010   63.0460  -10.6200 C   0  0  0  0  0  0  0  0  0  0  0  0
   17.0880   61.9980  -10.2080 C   0  0  0  0  0  0  0  0  0  0  0  0
   16.4910   60.7630  -10.0950 C   0  0  0  0  0  0  0  0  0  0  0  0
   17.4920   59.9230   -9.7530 N   0  0  0  0  0  0  0  0  0  0  0  0
   18.6160   60.5850   -9.6810 N   0  0  0  0  0  0  0  0  0  0  0  0
   18.4400   61.9280   -9.9590 C   0  0  0  0  0  0  0  0  0  0  0  0
   19.4340   62.9650   -9.8360 C   0  0  0  0  0  0  0  0  0  0  0  0
   20.7490   62.5700   -9.3090 N   0  0  0  0  0  0  0  0  0  0  0  0
   20.6630   62.7280   -7.8390 C   0  0  0  0  0  0  0  0  0  0  0  0
   21.1930   64.0730   -7.6300 C   0  0  2  0  0  0  0  0  0  0  0  0
   22.5000   63.9850   -8.4010 C   0  0  2  0  0  0  0  0  0  0  0  0
   21.8770   63.3050   -9.6930 C   0  0  0  0  0  0  0  0  0  0  0  0
   23.3980   62.9200   -7.8410 C   0  0  0  0  0  0  0  0  0  0  0  0
   24.3990   63.5290   -7.0390 O   0  0  0  0  0  0  0  0  0  0  0  0
   21.4560   64.4620   -6.1960 C   0  0  0  0  0  0  0  0  0  0  0  0
   21.4130   65.8870   -6.1000 N   0  0  0  0  0  0  0  0  0  0  0  0
   22.7230   66.4830   -5.9440 C   0  0  0  0  0  0  0  0  0  0  0  0
   23.0710   67.4740   -7.0300 C   0  0  0  0  0  0  0  0  0  0  0  0
   22.1320   68.4640   -7.2080 O   0  0  0  0  0  0  0  0  0  0  0  0
   20.8290   68.0120   -7.0190 C   0  0  0  0  0  0  0  0  0  0  0  0
   20.7820   66.5300   -7.2290 C   0  0  0  0  0  0  0  0  0  0  0  0
   17.2960   58.5060   -9.4000 C   0  0  0  0  0  0  0  0  0  0  0  0
   15.1780   60.5500  -10.3840 C   0  0  0  0  0  0  0  0  0  0  0  0
   14.3940   61.6270  -10.8080 C   0  0  0  0  0  0  0  0  0  0  0  0
   14.9760   62.8840  -10.9270 C   0  0  0  0  0  0  0  0  0  0  0  0
   19.5670   63.7280  -10.5590 H   0  0  0  0  0  0  0  0  0  0  0  0
   19.0650   63.5860   -8.9030 H   0  0  0  0  0  0  0  0  0  0  0  0
   19.7010   62.4540   -7.4170 H   0  0  0  0  0  0  0  0  0  0  0  0
   21.3670   61.9530   -7.4180 H   0  0  0  0  0  0  0  0  0  0  0  0
   20.6410   64.8840   -8.0830 H   0  0  0  0  0  0  0  0  0  0  0  0
   22.9190   64.9370   -8.6460 H   0  0  0  0  0  0  0  0  0  0  0  0
   21.8110   64.1060  -10.3850 H   0  0  0  0  0  0  0  0  0  0  0  0
   22.7180   62.6160  -10.0530 H   0  0  0  0  0  0  0  0  0  0  0  0
   24.0390   62.4970   -8.7110 H   0  0  0  0  0  0  0  0  0  0  0  0
   22.9900   62.0730   -7.3590 H   0  0  0  0  0  0  0  0  0  0  0  0
   25.2960   63.1750   -7.4110 H   0  0  0  0  0  0  0  0  0  0  0  0
   20.6220   64.0510   -5.6110 H   0  0  0  0  0  0  0  0  0  0  0  0
   22.3950   64.0380   -5.8180 H   0  0  0  0  0  0  0  0  0  0  0  0
   22.7720   66.9600   -4.9570 H   0  0  0  0  0  0  0  0  0  0  0  0
   23.5300   65.6950   -5.9770 H   0  0  0  0  0  0  0  0  0  0  0  0
   23.3230   66.9160   -7.9350 H   0  0  0  0  0  0  0  0  0  0  0  0
   24.0050   67.9810   -6.6720 H   0  0  0  0  0  0  0  0  0  0  0  0
   20.5410   68.2770   -5.9890 H   0  0  0  0  0  0  0  0  0  0  0  0
   20.1720   68.5390   -7.7610 H   0  0  0  0  0  0  0  0  0  0  0  0
   19.7380   66.1740   -7.3500 H   0  0  0  0  0  0  0  0  0  0  0  0
   21.3980   66.2790   -8.1140 H   0  0  0  0  0  0  0  0  0  0  0  0
   16.4450   58.4670   -8.6320 H   0  0  0  0  0  0  0  0  0  0  0  0
   18.1510   58.1220   -8.8210 H   0  0  0  0  0  0  0  0  0  0  0  0
   16.9480   57.9660  -10.2480 H   0  0  0  0  0  0  0  0  0  0  0  0
   14.7090   59.5400  -10.4090 H   0  0  0  0  0  0  0  0  0  0  0  0
   13.3840   61.5090  -11.0920 H   0  0  0  0  0  0  0  0  0  0  0  0
   14.4320   63.7460  -11.2340 H   0  0  0  0  0  0  0  0  0  0  0  0
  1  2  1  0  0  0  0
  2  3  1  0  0  0  0
  3  4  2  0  0  0  0
  3  7  1  0  0  0  0
  4  5  1  0  0  0  0
  5  6  1  0  0  0  0
  5 23  1  0  0  0  0
  7  8  1  0  0  0  0
  7  6  2  0  0  0  0
  8  9  1  0  0  0  0
  8 28  1  0  0  0  0
  9 10  1  0  0  0  0
 10 11  1  0  0  0  0
 10 30  1  0  0  0  0
 10 29  1  0  0  0  0
 11 31  1  6  0  0  0
 11 16  1  0  0  0  0
 12 32  1  6  0  0  0
 12 14  1  0  0  0  0
 12 11  1  0  0  0  0
 13  9  1  0  0  0  0
 13 12  1  0  0  0  0
 14 36  1  0  0  0  0
 14 15  1  0  0  0  0
 16 17  1  0  0  0  0
 16 39  1  0  0  0  0
 16 38  1  0  0  0  0
 17 18  1  0  0  0  0
 18 40  1  0  0  0  0
 19 43  1  0  0  0  0
 19 18  1  0  0  0  0
 20 19  1  0  0  0  0
 20 21  1  0  0  0  0
 21 44  1  0  0  0  0
 22 21  1  0  0  0  0
 22 17  1  0  0  0  0
 23 49  1  0  0  0  0
 23 48  1  0  0  0  0
 24  4  1  0  0  0  0
 25 24  2  0  0  0  0
 26 25  1  0  0  0  0
 26  2  2  0  0  0  0
 27  8  1  0  0  0  0
 33 13  1  0  0  0  0
 34 13  1  0  0  0  0
 35 14  1  0  0  0  0
 37 15  1  0  0  0  0
 41 18  1  0  0  0  0
 42 19  1  0  0  0  0
 45 21  1  0  0  0  0
 46 22  1  0  0  0  0
 47 22  1  0  0  0  0
 50 23  1  0  0  0  0
 51 24  1  0  0  0  0
 52 25  1  0  0  0  0
 53 26  1  0  0  0  0
M  END
>  <Pose>
1

>  <Score>
-6.09

$$$$
