
 OpenBabel03202210193D

 55 59  0  0  1  0  0  0  0  0999 V2000
   14.9740   62.9060  -10.5160 B   0  0  0  0  0  0  0  0  0  0  0  0
   16.8690   62.9270  -10.5810 C   0  0  0  0  0  0  0  0  0  0  0  0
   17.5630   64.0280  -10.9930 C   0  0  0  0  0  0  0  0  0  0  0  0
   18.9430   64.0070  -11.0270 C   0  0  0  0  0  0  0  0  0  0  0  0
   19.7100   62.9020  -10.6580 C   0  0  0  0  0  0  0  0  0  0  0  0
   19.0080   61.8110  -10.2490 C   0  0  0  0  0  0  0  0  0  0  0  0
   17.5920   61.8260  -10.2120 C   0  0  0  0  0  0  0  0  0  0  0  0
   21.1700   63.0060  -10.7530 C   0  0  0  0  0  0  0  0  0  0  0  0
   21.8280   63.0670  -11.9950 C   0  0  0  0  0  0  0  0  0  0  0  0
   23.1380   63.1790  -11.7870 N   0  0  0  0  0  0  0  0  0  0  0  0
   24.3270   63.2900  -12.4350 C   0  0  0  0  0  0  0  0  0  0  0  0
   25.2830   63.3740  -11.4810 C   0  0  0  0  0  0  0  0  0  0  0  0
   24.6630   63.3120  -10.2940 N   0  0  0  0  0  0  0  0  0  0  0  0
   23.3280   63.1900  -10.4670 C   0  0  1  0  0  0  0  0  0  0  0  0
   22.1240   63.0840   -9.8150 N   0  0  0  0  0  0  0  0  0  0  0  0
   21.9860   63.0900   -8.3960 C   0  0  0  0  0  0  0  0  0  0  0  0
   22.9870   63.9330   -7.6480 C   0  0  0  0  0  0  0  0  0  0  0  0
   24.0650   63.2280   -6.9540 C   0  0  0  0  0  0  0  0  0  0  0  0
   24.7380   63.8610   -5.8590 N   0  0  0  0  0  4  0  0  0  0  0  0
   23.8360   64.2020   -4.7740 C   0  0  0  0  0  0  0  0  0  0  0  0
   23.6110   63.1610   -3.7610 C   0  0  0  0  0  0  0  0  0  0  0  0
   24.5170   61.9870   -3.7960 C   0  0  0  0  0  0  0  0  0  0  0  0
   25.8830   62.3730   -4.2430 C   0  0  0  0  0  0  0  0  0  0  0  0
   25.9450   63.2360   -5.4470 C   0  0  0  0  0  0  0  0  0  0  0  0
   26.6160   63.4960  -11.8300 C   0  0  0  0  0  0  0  0  0  0  0  0
   26.9980   63.5370  -13.1610 C   0  0  0  0  0  0  0  0  0  0  0  0
   26.0170   63.4510  -14.1390 C   0  0  0  0  0  0  0  0  0  0  0  0
   24.7000   63.3290  -13.7560 C   0  0  0  0  0  0  0  0  0  0  0  0
   17.0010   64.9020  -11.2860 H   0  0  0  0  0  0  0  0  0  0  0  0
   19.4390   64.9150  -11.3610 H   0  0  0  0  0  0  0  0  0  0  0  0
   19.4890   60.9220   -9.9540 H   0  0  0  0  0  0  0  0  0  0  0  0
   17.0800   60.9410   -9.8810 H   0  0  0  0  0  0  0  0  0  0  0  0
   21.4060   63.0330  -12.9850 H   0  0  0  0  0  0  0  0  0  0  0  0
   25.1370   63.3620   -9.3540 H   0  0  0  0  0  0  0  0  0  0  0  0
   21.8660   62.0920   -7.9520 H   0  0  0  0  0  0  0  0  0  0  0  0
   20.9370   63.5360   -8.2170 H   0  0  0  0  0  0  0  0  0  0  0  0
   22.3770   64.4490   -6.8340 H   0  0  0  0  0  0  0  0  0  0  0  0
   23.3180   64.8130   -8.2550 H   0  0  0  0  0  0  0  0  0  0  0  0
   24.8740   63.0190   -7.7200 H   0  0  0  0  0  0  0  0  0  0  0  0
   23.7280   62.1840   -6.6780 H   0  0  0  0  0  0  0  0  0  0  0  0
   25.0010   64.8030   -6.2250 H   0  0  0  0  0  0  0  0  0  0  0  0
   24.1190   65.1450   -4.2570 H   0  0  0  0  0  0  0  0  0  0  0  0
   22.8610   64.4620   -5.2890 H   0  0  0  0  0  0  0  0  0  0  0  0
   22.5550   62.7630   -3.8450 H   0  0  0  0  0  0  0  0  0  0  0  0
   23.6350   63.5810   -2.7110 H   0  0  0  0  0  0  0  0  0  0  0  0
   24.5850   61.5470   -2.7790 H   0  0  0  0  0  0  0  0  0  0  0  0
   24.0760   61.1560   -4.4250 H   0  0  0  0  0  0  0  0  0  0  0  0
   26.4610   61.4270   -4.4140 H   0  0  0  0  0  0  0  0  0  0  0  0
   26.4010   62.8550   -3.3680 H   0  0  0  0  0  0  0  0  0  0  0  0
   26.3050   62.6170   -6.3190 H   0  0  0  0  0  0  0  0  0  0  0  0
   26.7830   63.9700   -5.2840 H   0  0  0  0  0  0  0  0  0  0  0  0
   27.3820   63.5630  -11.0710 H   0  0  0  0  0  0  0  0  0  0  0  0
   28.0350   63.6330  -13.4630 H   0  0  0  0  0  0  0  0  0  0  0  0
   26.3430   63.4850  -15.1650 H   0  0  0  0  0  0  0  0  0  0  0  0
   23.9530   63.2640  -14.5120 H   0  0  0  0  0  0  0  0  0  0  0  0
  2  1  1  0  0  0  0
  2  7  1  0  0  0  0
  3  2  2  0  0  0  0
  4  3  1  0  0  0  0
  4  5  2  0  0  0  0
  5  6  1  0  0  0  0
  6  7  2  0  0  0  0
  6 31  1  0  0  0  0
  7 32  1  0  0  0  0
  8  5  1  0  0  0  0
  8 15  1  0  0  0  0
  9 10  1  0  0  0  0
  9  8  2  0  0  0  0
 11 10  1  0  0  0  0
 11 12  1  0  0  0  0
 12 13  1  0  0  0  0
 13 34  1  0  0  0  0
 14 10  1  6  0  0  0
 14 13  1  0  0  0  0
 14 15  1  0  0  0  0
 15 16  1  0  0  0  0
 16 36  1  0  0  0  0
 16 35  1  0  0  0  0
 16 17  1  0  0  0  0
 17 18  1  0  0  0  0
 17 37  1  0  0  0  0
 18 40  1  0  0  0  0
 18 19  1  0  0  0  0
 19 24  1  0  0  0  0
 19 20  1  0  0  0  0
 20 42  1  0  0  0  0
 20 21  1  0  0  0  0
 21 45  1  0  0  0  0
 22 21  1  0  0  0  0
 22 46  1  0  0  0  0
 23 22  1  0  0  0  0
 23 49  1  0  0  0  0
 24 51  1  0  0  0  0
 24 23  1  0  0  0  0
 25 12  2  0  0  0  0
 25 52  1  0  0  0  0
 26 25  1  0  0  0  0
 27 28  1  0  0  0  0
 27 26  2  0  0  0  0
 28 11  2  0  0  0  0
 29  3  1  0  0  0  0
 30  4  1  0  0  0  0
 33  9  1  0  0  0  0
 38 17  1  0  0  0  0
 39 18  1  0  0  0  0
 41 19  1  0  0  0  0
 43 20  1  0  0  0  0
 44 21  1  0  0  0  0
 47 22  1  0  0  0  0
 48 23  1  0  0  0  0
 50 24  1  0  0  0  0
 53 26  1  0  0  0  0
 54 27  1  0  0  0  0
 55 28  1  0  0  0  0
M  END
>  <Pose>
1

>  <Score>
-6.47

$$$$
