
 OpenBabel03202210193D

 52 55  0  0  1  0  0  0  0  0999 V2000
   15.5750   60.3740  -10.6420 Cl  0  0  0  0  0  0  0  0  0  0  0  0
   16.2480   61.9840  -10.4020 C   0  0  0  0  0  0  0  0  0  0  0  0
   17.6230   62.0710  -10.1400 C   0  0  0  0  0  0  0  0  0  0  0  0
   18.1420   63.3240   -9.9550 C   0  0  0  0  0  0  0  0  0  0  0  0
   17.3290   64.4750  -10.0250 C   0  0  0  0  0  0  0  0  0  0  0  0
   15.9850   64.3770  -10.2810 C   0  0  0  0  0  0  0  0  0  0  0  0
   15.4680   63.1130  -10.4670 C   0  0  0  0  0  0  0  0  0  0  0  0
   19.5840   63.1820   -9.7100 C   0  0  2  0  0  0  0  0  0  0  0  0
   20.0520   63.8340   -8.5400 N   0  0  0  0  0  0  0  0  0  0  0  0
   21.3840   64.2330   -8.6700 C   0  0  1  0  0  0  0  0  0  0  0  0
   21.6590   64.2040  -10.1570 C   0  0  2  0  0  0  0  0  0  0  0  0
   20.3870   63.8220  -10.8410 C   0  0  1  0  0  0  0  0  0  0  0  0
   20.7270   62.8460  -11.9100 C   0  0  0  0  0  0  0  0  0  0  0  0
   19.9010   62.4020  -12.7420 O   0  0  0  0  0  0  0  0  0  0  0  0
   22.1160   62.5370  -11.7960 N   0  0  0  0  0  0  0  0  0  0  0  0
   22.5640   63.1050  -10.5560 C   0  0  0  0  0  0  0  0  0  0  0  0
   23.5630   62.7180   -9.9290 O   0  0  0  0  0  0  0  0  0  0  0  0
   22.9380   61.8140  -12.7170 C   0  0  0  0  0  0  0  0  0  0  0  0
   23.3780   62.5600  -13.9250 C   0  0  0  0  0  0  0  0  0  0  0  0
   24.5180   63.4990  -13.7490 C   0  0  0  0  0  0  0  0  0  0  0  0
   25.6300   63.2390  -14.7590 C   0  0  0  0  0  0  0  0  0  0  0  0
   21.8330   65.4810   -8.0160 C   0  0  0  0  0  0  0  0  0  0  0  0
   22.3830   65.3990   -6.6480 C   0  0  0  0  0  0  0  0  0  0  0  0
   23.5950   64.5960   -6.4520 C   0  0  0  0  0  0  0  0  0  0  0  0
   24.6880   64.9770   -6.9100 O   0  0  0  0  0  0  0  0  0  0  0  0
   23.5980   63.3610   -5.7400 N   0  0  0  0  0  0  0  0  0  0  0  0
   19.8420   61.7390   -9.7300 C   0  0  0  0  0  0  0  0  0  0  0  0
   20.9360   61.1220   -9.5380 O   0  0  0  0  0  0  0  0  0  0  0  0
   18.6280   61.0720  -10.0130 N   0  0  0  0  0  0  0  0  0  0  0  0
   17.7770   65.4530   -9.8710 H   0  0  0  0  0  0  0  0  0  0  0  0
   15.3330   65.2380  -10.3410 H   0  0  0  0  0  0  0  0  0  0  0  0
   14.4110   63.0120  -10.6720 H   0  0  0  0  0  0  0  0  0  0  0  0
   19.7560   63.4200   -7.6400 H   0  0  0  0  0  0  0  0  0  0  0  0
   22.0240   63.4030   -8.2380 H   0  0  0  0  0  0  0  0  0  0  0  0
   22.0990   65.1440  -10.5290 H   0  0  0  0  0  0  0  0  0  0  0  0
   19.8470   64.6500  -11.3000 H   0  0  0  0  0  0  0  0  0  0  0  0
   22.3390   60.9320  -13.0940 H   0  0  0  0  0  0  0  0  0  0  0  0
   23.8150   61.3400  -12.2110 H   0  0  0  0  0  0  0  0  0  0  0  0
   23.7200   61.7910  -14.6810 H   0  0  0  0  0  0  0  0  0  0  0  0
   22.5020   63.0390  -14.4310 H   0  0  0  0  0  0  0  0  0  0  0  0
   25.0010   63.5100  -12.7700 H   0  0  0  0  0  0  0  0  0  0  0  0
   24.1110   64.5350  -13.9300 H   0  0  0  0  0  0  0  0  0  0  0  0
   25.7700   62.1570  -14.9560 H   0  0  0  0  0  0  0  0  0  0  0  0
   26.5990   63.6610  -14.4070 H   0  0  0  0  0  0  0  0  0  0  0  0
   25.3950   63.7010  -15.7380 H   0  0  0  0  0  0  0  0  0  0  0  0
   22.5120   66.0100   -8.7370 H   0  0  0  0  0  0  0  0  0  0  0  0
   20.9410   66.1770   -7.9680 H   0  0  0  0  0  0  0  0  0  0  0  0
   22.6440   66.4310   -6.2500 H   0  0  0  0  0  0  0  0  0  0  0  0
   21.6400   65.0300   -5.8990 H   0  0  0  0  0  0  0  0  0  0  0  0
   22.8760   62.6290   -5.8610 H   0  0  0  0  0  0  0  0  0  0  0  0
   24.3600   63.1820   -5.0650 H   0  0  0  0  0  0  0  0  0  0  0  0
   18.4520   60.0450  -10.1180 H   0  0  0  0  0  0  0  0  0  0  0  0
  1  2  1  0  0  0  0
  2  3  1  0  0  0  0
  3 29  1  0  0  0  0
  3  4  2  0  0  0  0
  5  4  1  0  0  0  0
  5 30  1  0  0  0  0
  6  5  2  0  0  0  0
  7  2  2  0  0  0  0
  7  6  1  0  0  0  0
  8  4  1  6  0  0  0
  8  9  1  0  0  0  0
  9 33  1  0  0  0  0
 10  9  1  0  0  0  0
 10 34  1  1  0  0  0
 10 22  1  0  0  0  0
 11 35  1  6  0  0  0
 11 10  1  0  0  0  0
 12 36  1  6  0  0  0
 12 11  1  0  0  0  0
 12  8  1  0  0  0  0
 13 15  1  0  0  0  0
 13 12  1  0  0  0  0
 14 13  2  0  0  0  0
 15 16  1  0  0  0  0
 16 11  1  0  0  0  0
 16 17  2  0  0  0  0
 18 38  1  0  0  0  0
 18 15  1  0  0  0  0
 19 20  1  0  0  0  0
 19 18  1  0  0  0  0
 20 41  1  0  0  0  0
 21 44  1  0  0  0  0
 21 20  1  0  0  0  0
 22 47  1  0  0  0  0
 22 23  1  0  0  0  0
 23 24  1  0  0  0  0
 23 48  1  0  0  0  0
 23 49  1  0  0  0  0
 24 26  1  0  0  0  0
 25 24  2  0  0  0  0
 26 51  1  0  0  0  0
 27  8  1  0  0  0  0
 27 28  2  0  0  0  0
 29 27  1  0  0  0  0
 31  6  1  0  0  0  0
 32  7  1  0  0  0  0
 37 18  1  0  0  0  0
 39 19  1  0  0  0  0
 40 19  1  0  0  0  0
 42 20  1  0  0  0  0
 43 21  1  0  0  0  0
 45 21  1  0  0  0  0
 46 22  1  0  0  0  0
 50 26  1  0  0  0  0
 52 29  1  0  0  0  0
M  END
>  <Pose>
1

>  <Score>
-7.42

$$$$
