
 OpenBabel03202209553D

 52 55  0  0  0  0  0  0  0  0999 V2000
   18.4860    7.2850   33.2520 B   0  0  0  0  0  0  0  0  0  0  0  0
   20.1850    7.3980   32.3860 C   0  0  0  0  0  0  0  0  0  0  0  0
   20.6980    8.6570   32.1410 C   0  0  0  0  0  0  0  0  0  0  0  0
   21.9230    8.7440   31.5170 C   0  0  0  0  0  0  0  0  0  0  0  0
   22.6260    7.6110   31.1440 C   0  0  0  0  0  0  0  0  0  0  0  0
   22.1240    6.3540   31.3840 C   0  0  0  0  0  0  0  0  0  0  0  0
   20.8970    6.2690   32.0090 C   0  0  0  0  0  0  0  0  0  0  0  0
   20.3760    5.0220   32.2600 O   0  0  0  0  0  0  0  0  0  0  0  0
   22.8830    5.1820   30.9820 C   0  0  0  0  0  0  0  0  0  0  0  0
   23.2870    4.2800   31.7860 N   0  0  0  0  0  0  0  0  0  0  0  0
   24.0210    3.1510   31.3720 N   0  0  0  0  0  0  0  0  0  0  0  0
   25.1160    2.7100   32.1650 C   0  0  0  0  0  0  0  0  0  0  0  0
   24.9240    1.9090   33.2110 N   0  0  0  0  0  4  0  0  0  0  0  0
   25.9480    1.4650   33.9950 C   0  0  0  0  0  0  0  0  0  0  0  0
   27.1670    1.8780   33.6570 N   0  0  0  0  0  0  0  0  0  0  0  0
   27.4510    2.6900   32.6130 C   0  0  0  0  0  0  0  0  0  0  0  0
   26.3680    3.0880   31.8810 N   0  0  0  0  0  0  0  0  0  0  0  0
   28.7570    3.1020   32.2930 N   0  0  0  0  0  0  0  0  0  0  0  0
   29.8240    2.9500   33.2330 C   0  0  0  0  0  0  0  0  0  0  0  0
   30.5200    4.3090   33.3490 C   0  0  0  0  0  0  0  0  0  0  0  0
   29.8900    5.2780   32.5990 O   0  0  0  0  0  0  0  0  0  0  0  0
   29.7860    4.9850   31.2620 C   0  0  0  0  0  0  0  0  0  0  0  0
   29.0360    3.6810   31.0160 C   0  0  0  0  0  0  0  0  0  0  0  0
   25.7230    0.6170   35.1000 N   0  0  0  0  0  0  0  0  0  0  0  0
   25.0050    1.0960   36.2480 C   0  0  0  0  0  0  0  0  0  0  0  0
   25.7980    0.6860   37.4800 C   0  0  0  0  0  0  0  0  0  0  0  0
   26.1950   -0.6440   37.4240 O   0  0  0  0  0  0  0  0  0  0  0  0
   27.0260   -0.9250   36.3630 C   0  0  0  0  0  0  0  0  0  0  0  0
   26.2120   -0.7320   35.0770 C   0  0  0  0  0  0  0  0  0  0  0  0
   22.6450   10.4830   31.1700 B   0  0  0  0  0  0  0  0  0  0  0  0
   19.9760    9.7860   32.5220 O   0  0  0  0  0  0  0  0  0  0  0  0
   23.5990    7.7000   30.6480 H   0  0  0  0  0  0  0  0  0  0  0  0
   20.9650    4.2750   32.6390 H   0  0  0  0  0  0  0  0  0  0  0  0
   23.1220    5.0630   29.9380 H   0  0  0  0  0  0  0  0  0  0  0  0
   23.7180    2.7000   30.5030 H   0  0  0  0  0  0  0  0  0  0  0  0
   30.5780    2.2600   32.7850 H   0  0  0  0  0  0  0  0  0  0  0  0
   29.4610    2.5920   34.2130 H   0  0  0  0  0  0  0  0  0  0  0  0
   31.5920    4.2430   33.1350 H   0  0  0  0  0  0  0  0  0  0  0  0
   30.4290    4.6180   34.4220 H   0  0  0  0  0  0  0  0  0  0  0  0
   30.7690    4.9820   30.7470 H   0  0  0  0  0  0  0  0  0  0  0  0
   29.1860    5.7890   30.7860 H   0  0  0  0  0  0  0  0  0  0  0  0
   28.1010    3.8440   30.4440 H   0  0  0  0  0  0  0  0  0  0  0  0
   29.6790    3.0430   30.3750 H   0  0  0  0  0  0  0  0  0  0  0  0
   24.9400    2.2140   36.2880 H   0  0  0  0  0  0  0  0  0  0  0  0
   24.0050    0.6260   36.3370 H   0  0  0  0  0  0  0  0  0  0  0  0
   26.6550    1.3670   37.6130 H   0  0  0  0  0  0  0  0  0  0  0  0
   25.1350    0.7920   38.3650 H   0  0  0  0  0  0  0  0  0  0  0  0
   27.8370   -0.1760   36.3270 H   0  0  0  0  0  0  0  0  0  0  0  0
   27.3850   -1.9560   36.4600 H   0  0  0  0  0  0  0  0  0  0  0  0
   25.3270   -1.4140   35.1900 H   0  0  0  0  0  0  0  0  0  0  0  0
   26.8130   -0.9650   34.1840 H   0  0  0  0  0  0  0  0  0  0  0  0
   19.0430    9.9200   32.1710 H   0  0  0  0  0  0  0  0  0  0  0  0
  2  1  1  0  0  0  0
  3  2  1  0  0  0  0
  3 31  1  0  0  0  0
  4  3  2  0  0  0  0
  5  6  2  0  0  0  0
  5  4  1  0  0  0  0
  6  7  1  0  0  0  0
  7  8  1  0  0  0  0
  7  2  2  0  0  0  0
  8 33  1  0  0  0  0
  9  6  1  0  0  0  0
  9 10  2  0  0  0  0
 11 10  1  0  0  0  0
 11 12  1  0  0  0  0
 12 13  2  0  0  0  0
 13 14  2  0  0  0  0
 14 24  1  0  0  0  0
 15 14  1  0  0  0  0
 16 15  2  0  0  0  0
 17 12  1  0  0  0  0
 17 16  1  0  0  0  0
 18 16  1  0  0  0  0
 18 19  1  0  0  0  0
 19 20  1  0  0  0  0
 19 37  1  0  0  0  0
 20 39  1  0  0  0  0
 21 20  1  0  0  0  0
 22 21  1  0  0  0  0
 23 22  1  0  0  0  0
 23 18  1  0  0  0  0
 24 25  1  0  0  0  0
 25 44  1  0  0  0  0
 25 45  1  0  0  0  0
 25 26  1  0  0  0  0
 26 46  1  0  0  0  0
 26 47  1  0  0  0  0
 27 26  1  0  0  0  0
 28 49  1  0  0  0  0
 28 27  1  0  0  0  0
 29 24  1  0  0  0  0
 29 50  1  0  0  0  0
 29 28  1  0  0  0  0
 30  4  1  0  0  0  0
 32  5  1  0  0  0  0
 34  9  1  0  0  0  0
 35 11  1  0  0  0  0
 36 19  1  0  0  0  0
 38 20  1  0  0  0  0
 40 22  1  0  0  0  0
 41 22  1  0  0  0  0
 42 23  1  0  0  0  0
 43 23  1  0  0  0  0
 48 28  1  0  0  0  0
 51 29  1  0  0  0  0
 52 31  1  0  0  0  0
M  END
>  <Pose>
1

>  <Score>
-7.34

$$$$
