
 OpenBabel03202209553D

 53 56  0  0  0  0  0  0  0  0999 V2000
   18.7010   15.2030   30.5120 B   0  0  0  0  0  0  0  0  0  0  0  0
   20.4570   14.7920   31.2000 C   0  0  0  0  0  0  0  0  0  0  0  0
   21.1730   15.7890   31.8280 C   0  0  0  0  0  0  0  0  0  0  0  0
   22.4110   15.5210   32.3430 C   0  0  0  0  0  0  0  0  0  0  0  0
   22.9030   14.2430   32.2060 C   0  0  0  0  0  0  0  0  0  0  0  0
   22.2280   13.2090   31.5830 C   0  0  0  0  0  0  0  0  0  0  0  0
   20.9260   13.5570   31.0650 C   0  0  0  0  0  0  0  0  0  0  0  0
   22.6210   11.9140   31.3930 C   0  0  0  0  0  0  0  0  0  0  0  0
   22.2570   10.6990   30.9420 N   0  0  0  0  0  0  0  0  0  0  0  0
   23.6530    9.9970   31.2680 N   0  0  0  0  0  0  0  0  0  0  0  0
   24.2310    9.8420   29.9520 C   0  0  0  0  0  0  0  0  0  0  0  0
   23.8510   10.5520   29.0220 O   0  0  0  0  0  0  0  0  0  0  0  0
   25.3220    8.9180   29.7380 C   0  0  0  0  0  0  0  0  0  0  0  0
   26.4970    8.9840   29.2180 N   0  0  0  0  0  0  0  0  0  0  0  0
   26.8840    7.7840   28.8210 N   0  0  0  0  0  0  0  0  0  0  0  0
   25.9260    6.9130   29.1040 N   0  0  0  0  0  0  0  0  0  0  0  0
   24.8920    7.4920   29.6980 C   0  0  0  0  0  0  0  0  0  0  0  0
   23.5730    7.0760   30.0790 C   0  0  0  0  0  0  0  0  0  0  0  0
   23.2520    5.6490   30.0020 N   0  0  0  0  0  0  0  0  0  0  0  0
   21.8540    5.3980   30.1300 C   0  0  0  0  0  0  0  0  0  0  0  0
   21.2820    5.6860   31.4890 C   0  0  0  0  0  0  0  0  0  0  0  0
   21.6800    4.7020   32.3780 O   0  0  0  0  0  0  0  0  0  0  0  0
   22.8660    4.0980   31.9460 C   0  0  0  0  0  0  0  0  0  0  0  0
   23.7630    5.1270   31.3430 C   0  0  0  0  0  0  0  0  0  0  0  0
   25.8810    5.6350   28.4230 C   0  0  0  0  0  0  0  0  0  0  0  0
   25.5030    5.2590   27.2730 N   0  0  0  0  0  0  0  0  0  0  0  0
   25.6040    3.9390   27.1100 O   0  0  0  0  0  0  0  0  0  0  0  0
   26.0700    3.4740   28.2120 N   0  0  0  0  0  0  0  0  0  0  0  0
   26.2790    4.4430   29.1040 C   0  0  0  0  0  0  0  0  0  0  0  0
   26.7600    4.3290   30.4180 N   0  0  0  0  0  0  0  0  0  0  0  0
   23.1610   16.5010   33.0030 O   0  0  0  0  0  0  0  0  0  0  0  0
   23.5500   16.2710   34.3720 C   0  0  0  0  0  0  0  0  0  0  0  0
   20.6250   17.0700   31.9340 O   0  0  0  0  0  0  0  0  0  0  0  0
   23.8990   14.0320   32.6350 H   0  0  0  0  0  0  0  0  0  0  0  0
   20.3410   12.7700   30.5790 H   0  0  0  0  0  0  0  0  0  0  0  0
   23.7350   11.7240   31.7770 H   0  0  0  0  0  0  0  0  0  0  0  0
   23.7750    9.8690   32.1820 H   0  0  0  0  0  0  0  0  0  0  0  0
   23.0730    7.5290   30.9410 H   0  0  0  0  0  0  0  0  0  0  0  0
   22.8420    7.4720   29.2290 H   0  0  0  0  0  0  0  0  0  0  0  0
   21.3190    5.9860   29.3740 H   0  0  0  0  0  0  0  0  0  0  0  0
   21.6300    4.2970   29.9260 H   0  0  0  0  0  0  0  0  0  0  0  0
   21.4400    6.7070   31.8370 H   0  0  0  0  0  0  0  0  0  0  0  0
   20.1630    5.5570   31.4040 H   0  0  0  0  0  0  0  0  0  0  0  0
   22.7750    3.1660   31.4210 H   0  0  0  0  0  0  0  0  0  0  0  0
   23.3830    3.8140   32.9360 H   0  0  0  0  0  0  0  0  0  0  0  0
   24.7750    4.7570   31.2580 H   0  0  0  0  0  0  0  0  0  0  0  0
   23.6470    6.0090   32.0440 H   0  0  0  0  0  0  0  0  0  0  0  0
   26.6940    3.4530   30.9680 H   0  0  0  0  0  0  0  0  0  0  0  0
   27.2400    5.1480   30.9240 H   0  0  0  0  0  0  0  0  0  0  0  0
   24.1640   17.0910   34.7630 H   0  0  0  0  0  0  0  0  0  0  0  0
   22.5770   16.1770   34.9740 H   0  0  0  0  0  0  0  0  0  0  0  0
   24.0730   15.3190   34.4140 H   0  0  0  0  0  0  0  0  0  0  0  0
   19.7750   17.1910   32.5240 H   0  0  0  0  0  0  0  0  0  0  0  0
  1  2  1  0  0  0  0
  2  3  1  0  0  0  0
  3 33  1  0  0  0  0
  3  4  2  0  0  0  0
  4 31  1  0  0  0  0
  5  4  1  0  0  0  0
  5 34  1  0  0  0  0
  6  5  2  0  0  0  0
  7  2  2  0  0  0  0
  7  6  1  0  0  0  0
  8  6  1  0  0  0  0
  8 36  1  0  0  0  0
  9 10  1  0  0  0  0
  9  8  1  0  0  0  0
 10 37  1  0  0  0  0
 11 10  1  0  0  0  0
 12 11  2  0  0  0  0
 13 11  1  0  0  0  0
 14 13  1  0  0  0  0
 15 16  1  0  0  0  0
 15 14  2  0  0  0  0
 16 17  1  0  0  0  0
 17 13  2  0  0  0  0
 17 18  1  0  0  0  0
 18 38  1  0  0  0  0
 19 18  1  0  0  0  0
 19 20  1  0  0  0  0
 19 24  1  0  0  0  0
 20 21  1  0  0  0  0
 21 42  1  0  0  0  0
 21 22  1  0  0  0  0
 23 22  1  0  0  0  0
 23 45  1  0  0  0  0
 24 23  1  0  0  0  0
 24 47  1  0  0  0  0
 25 29  1  0  0  0  0
 25 16  1  0  0  0  0
 26 25  2  0  0  0  0
 27 26  1  0  0  0  0
 27 28  1  0  0  0  0
 28 29  2  0  0  0  0
 29 30  1  0  0  0  0
 30 49  1  0  0  0  0
 30 48  1  0  0  0  0
 31 32  1  0  0  0  0
 32 52  1  0  0  0  0
 32 50  1  0  0  0  0
 32 51  1  0  0  0  0
 33 53  1  0  0  0  0
 35  7  1  0  0  0  0
 39 18  1  0  0  0  0
 40 20  1  0  0  0  0
 41 20  1  0  0  0  0
 43 21  1  0  0  0  0
 44 23  1  0  0  0  0
 46 24  1  0  0  0  0
M  END
>  <Pose>
1

>  <Score>
-8.90

$$$$
