
 OpenBabel03202209553D

 47 50  0  0  1  0  0  0  0  0999 V2000
   23.6540    3.7850   31.6880 B   0  0  0  0  0  0  0  0  0  0  0  0
   24.3660    5.3100   30.7630 C   0  0  0  0  0  0  0  0  0  0  0  0
   23.7710    6.5190   30.8420 C   0  0  0  0  0  0  0  0  0  0  0  0
   24.2730    7.6280   30.1000 C   0  0  0  0  0  0  0  0  0  0  0  0
   25.3530    7.4210   29.3140 C   0  0  0  0  0  0  0  0  0  0  0  0
   25.9390    6.1730   29.2370 C   0  0  0  0  0  0  0  0  0  0  0  0
   25.4630    5.1160   29.9510 C   0  0  0  0  0  0  0  0  0  0  0  0
   23.3000    8.7310   29.9800 C   0  0  0  0  0  0  0  0  0  0  0  0
   23.6660   10.0660   30.2260 N   0  0  2  0  0  4  0  0  0  0  0  0
   24.9600   10.5090   30.0900 C   0  0  0  0  0  0  0  0  0  0  0  0
   25.0700   11.9560   30.2660 N   0  0  2  0  0  0  0  0  0  0  0  0
   24.5640   12.2740   31.5900 C   0  0  0  0  0  0  0  0  0  0  0  0
   23.2130   11.7920   31.7900 N   0  0  2  0  0  0  0  0  0  0  0  0
   23.0640   10.4100   31.5600 C   0  0  0  0  0  0  0  0  0  0  0  0
   22.3370   12.5400   30.9120 C   0  0  0  0  0  0  0  0  0  0  0  0
   22.8270   12.2860   29.5080 C   0  0  2  0  0  0  0  0  0  0  0  0
   22.7810   10.8220   29.2720 C   0  0  0  0  0  0  0  0  0  0  0  0
   24.2820   12.7090   29.3210 C   0  0  0  0  0  0  0  0  0  0  0  0
   22.6880    6.7170   31.6220 O   0  0  0  0  0  0  0  0  0  0  0  0
   21.4080    6.0970   31.3900 C   0  0  0  0  0  0  0  0  0  0  0  0
   20.3500    6.3590   32.3630 C   0  0  0  0  0  0  0  0  0  0  0  0
   19.7590    5.5060   33.0090 O   0  0  0  0  0  0  0  0  0  0  0  0
   20.0120    7.6960   32.5980 O   0  0  0  0  0  0  0  0  0  0  0  0
   18.7480    8.0980   33.0530 C   0  0  0  0  0  0  0  0  0  0  0  0
   25.7390    8.2300   28.6960 H   0  0  0  0  0  0  0  0  0  0  0  0
   26.8150    6.0480   28.5620 H   0  0  0  0  0  0  0  0  0  0  0  0
   25.9480    4.1540   29.9260 H   0  0  0  0  0  0  0  0  0  0  0  0
   22.2500    8.4580   30.1240 H   0  0  0  0  0  0  0  0  0  0  0  0
   23.2110    8.8280   28.7240 H   0  0  0  0  0  0  0  0  0  0  0  0
   25.4250   10.1700   29.1600 H   0  0  0  0  0  0  0  0  0  0  0  0
   25.5700   10.0760   30.9260 H   0  0  0  0  0  0  0  0  0  0  0  0
   24.4980   13.3830   31.6570 H   0  0  0  0  0  0  0  0  0  0  0  0
   25.2530   11.9400   32.3800 H   0  0  0  0  0  0  0  0  0  0  0  0
   23.5310    9.8220   32.3580 H   0  0  0  0  0  0  0  0  0  0  0  0
   21.9740   10.1670   31.4400 H   0  0  0  0  0  0  0  0  0  0  0  0
   21.3220   12.0610   30.9720 H   0  0  0  0  0  0  0  0  0  0  0  0
   22.3200   13.6060   31.1230 H   0  0  0  0  0  0  0  0  0  0  0  0
   22.1780   12.7570   28.7360 H   0  0  0  0  0  0  0  0  0  0  0  0
   21.7720   10.3650   29.3820 H   0  0  0  0  0  0  0  0  0  0  0  0
   23.2010   10.5350   28.2660 H   0  0  0  0  0  0  0  0  0  0  0  0
   24.3380   13.7690   29.5750 H   0  0  0  0  0  0  0  0  0  0  0  0
   24.5390   12.4610   28.2830 H   0  0  0  0  0  0  0  0  0  0  0  0
   21.5900    4.9950   31.1830 H   0  0  0  0  0  0  0  0  0  0  0  0
   21.0220    6.4920   30.3940 H   0  0  0  0  0  0  0  0  0  0  0  0
   18.7880    9.1290   33.4650 H   0  0  0  0  0  0  0  0  0  0  0  0
   18.3860    7.3650   33.8080 H   0  0  0  0  0  0  0  0  0  0  0  0
   18.0810    8.0750   32.1450 H   0  0  0  0  0  0  0  0  0  0  0  0
  2  3  1  0  0  0  0
  2  1  1  0  0  0  0
  3 19  1  0  0  0  0
  4  3  2  0  0  0  0
  5  4  1  0  0  0  0
  6  5  2  0  0  0  0
  6  7  1  0  0  0  0
  7  2  2  0  0  0  0
  8  4  1  0  0  0  0
  8 28  1  0  0  0  0
  9  8  1  6  0  0  0
  9 14  1  0  0  0  0
 10  9  1  0  0  0  0
 10 11  1  0  0  0  0
 10 31  1  0  0  0  0
 11 18  1  6  0  0  0
 11 12  1  0  0  0  0
 12 32  1  0  0  0  0
 12 13  1  0  0  0  0
 12 33  1  0  0  0  0
 13 15  1  6  0  0  0
 14 13  1  0  0  0  0
 14 34  1  0  0  0  0
 15 36  1  0  0  0  0
 15 37  1  0  0  0  0
 16 38  1  6  0  0  0
 16 15  1  0  0  0  0
 17 39  1  0  0  0  0
 17 16  1  0  0  0  0
 17  9  1  0  0  0  0
 18 16  1  0  0  0  0
 18 41  1  0  0  0  0
 20 19  1  0  0  0  0
 20 21  1  0  0  0  0
 21 23  1  0  0  0  0
 21 22  2  0  0  0  0
 23 24  1  0  0  0  0
 24 45  1  0  0  0  0
 24 46  1  0  0  0  0
 25  5  1  0  0  0  0
 26  6  1  0  0  0  0
 27  7  1  0  0  0  0
 29  8  1  0  0  0  0
 30 10  1  0  0  0  0
 35 14  1  0  0  0  0
 40 17  1  0  0  0  0
 42 18  1  0  0  0  0
 43 20  1  0  0  0  0
 44 20  1  0  0  0  0
 47 24  1  0  0  0  0
M  END
>  <Pose>
1

>  <Score>
-5.53

$$$$
