
 OpenBabel03202209553D

 52 55  0  0  0  0  0  0  0  0999 V2000
   28.0070   10.4080   28.0030 B   0  0  0  0  0  0  0  0  0  0  0  0
   28.0430    8.6260   27.3270 C   0  0  0  0  0  0  0  0  0  0  0  0
   28.5540    8.3630   26.0690 C   0  0  0  0  0  0  0  0  0  0  0  0
   28.5690    7.0580   25.6000 C   0  0  0  0  0  0  0  0  0  0  0  0
   28.0740    6.0450   26.3910 C   0  0  0  0  0  0  0  0  0  0  0  0
   27.5690    6.3490   27.6460 C   0  0  0  0  0  0  0  0  0  0  0  0
   27.5430    7.6330   28.1350 C   0  0  0  0  0  0  0  0  0  0  0  0
   27.0020    7.9030   29.4440 C   0  0  0  0  0  0  0  0  0  0  0  0
   25.7500    7.8170   29.7520 N   0  0  0  0  0  0  0  0  0  0  0  0
   25.3100    8.1040   31.0740 N   0  0  0  0  0  0  0  0  0  0  0  0
   24.2100    8.9510   31.3260 C   0  0  0  0  0  0  0  0  0  0  0  0
   24.2800   10.2370   30.9730 N   0  0  0  0  0  4  0  0  0  0  0  0
   23.2570   11.1060   31.1960 C   0  0  0  0  0  0  0  0  0  0  0  0
   22.1420   10.6530   31.7890 N   0  0  0  0  0  0  0  0  0  0  0  0
   22.0410    9.3660   32.1560 C   0  0  0  0  0  0  0  0  0  0  0  0
   23.0890    8.5240   31.9160 N   0  0  0  0  0  0  0  0  0  0  0  0
   20.8580    8.8760   32.7860 N   0  0  0  0  0  0  0  0  0  0  0  0
   20.4970    7.4790   32.8270 C   0  0  0  0  0  0  0  0  0  0  0  0
   19.0360    7.2910   32.4810 C   0  0  0  0  0  0  0  0  0  0  0  0
   18.4010    8.4880   32.1870 O   0  0  0  0  0  0  0  0  0  0  0  0
   18.5270    9.3550   33.2900 C   0  0  0  0  0  0  0  0  0  0  0  0
   19.9620    9.8250   33.4160 C   0  0  0  0  0  0  0  0  0  0  0  0
   23.4320   12.4420   30.7800 N   0  0  0  0  0  0  0  0  0  0  0  0
   24.2730   12.7230   29.6480 C   0  0  0  0  0  0  0  0  0  0  0  0
   23.3820   13.5020   28.6680 C   0  0  0  0  0  0  0  0  0  0  0  0
   23.0320   14.6750   29.3380 O   0  0  0  0  0  0  0  0  0  0  0  0
   22.1690   14.4320   30.4020 C   0  0  0  0  0  0  0  0  0  0  0  0
   22.7970   13.5450   31.4580 C   0  0  0  0  0  0  0  0  0  0  0  0
   28.1060    4.7560   25.8830 O   0  0  0  0  0  0  0  0  0  0  0  0
   29.0500    9.3840   25.2780 O   0  0  0  0  0  0  0  0  0  0  0  0
   28.9740    6.8710   24.6140 H   0  0  0  0  0  0  0  0  0  0  0  0
   27.1970    5.5070   28.2140 H   0  0  0  0  0  0  0  0  0  0  0  0
   27.6600    8.2030   30.2590 H   0  0  0  0  0  0  0  0  0  0  0  0
   25.8010    7.6840   31.8910 H   0  0  0  0  0  0  0  0  0  0  0  0
   20.6220    7.1440   33.8980 H   0  0  0  0  0  0  0  0  0  0  0  0
   21.1260    6.8470   32.1700 H   0  0  0  0  0  0  0  0  0  0  0  0
   18.4650    6.8230   33.3240 H   0  0  0  0  0  0  0  0  0  0  0  0
   18.9300    6.6430   31.5680 H   0  0  0  0  0  0  0  0  0  0  0  0
   17.8500   10.2150   33.0900 H   0  0  0  0  0  0  0  0  0  0  0  0
   18.2000    8.8400   34.2380 H   0  0  0  0  0  0  0  0  0  0  0  0
   20.2450    9.8850   34.4790 H   0  0  0  0  0  0  0  0  0  0  0  0
   20.0530   10.8370   32.9240 H   0  0  0  0  0  0  0  0  0  0  0  0
   24.6270   11.7810   29.1790 H   0  0  0  0  0  0  0  0  0  0  0  0
   25.1210   13.3650   29.9850 H   0  0  0  0  0  0  0  0  0  0  0  0
   23.8850   13.7470   27.7360 H   0  0  0  0  0  0  0  0  0  0  0  0
   22.4790   12.8470   28.5220 H   0  0  0  0  0  0  0  0  0  0  0  0
   21.1820   14.0570   30.0860 H   0  0  0  0  0  0  0  0  0  0  0  0
   22.0110   15.4200   30.9000 H   0  0  0  0  0  0  0  0  0  0  0  0
   23.5980   14.1430   31.9680 H   0  0  0  0  0  0  0  0  0  0  0  0
   22.0150   13.2230   32.1650 H   0  0  0  0  0  0  0  0  0  0  0  0
   28.5590    4.4970   25.0170 H   0  0  0  0  0  0  0  0  0  0  0  0
   29.1550    9.2130   24.2870 H   0  0  0  0  0  0  0  0  0  0  0  0
  2  1  1  0  0  0  0
  2  7  1  0  0  0  0
  3  2  2  0  0  0  0
  4  3  1  0  0  0  0
  4  5  2  0  0  0  0
  5  6  1  0  0  0  0
  6  7  2  0  0  0  0
  6 32  1  0  0  0  0
  7  8  1  0  0  0  0
  8  9  2  0  0  0  0
  8 33  1  0  0  0  0
  9 10  1  0  0  0  0
 10 11  1  0  0  0  0
 10 34  1  0  0  0  0
 11 16  1  0  0  0  0
 12 13  2  0  0  0  0
 12 11  2  0  0  0  0
 13 14  1  0  0  0  0
 14 15  2  0  0  0  0
 15 17  1  0  0  0  0
 16 15  1  0  0  0  0
 17 18  1  0  0  0  0
 17 22  1  0  0  0  0
 18 35  1  0  0  0  0
 19 18  1  0  0  0  0
 19 37  1  0  0  0  0
 20 19  1  0  0  0  0
 20 21  1  0  0  0  0
 21 22  1  0  0  0  0
 21 40  1  0  0  0  0
 22 41  1  0  0  0  0
 23 13  1  0  0  0  0
 23 28  1  0  0  0  0
 24 44  1  0  0  0  0
 24 23  1  0  0  0  0
 25 26  1  0  0  0  0
 25 24  1  0  0  0  0
 26 27  1  0  0  0  0
 27 48  1  0  0  0  0
 27 28  1  0  0  0  0
 28 49  1  0  0  0  0
 28 50  1  0  0  0  0
 29  5  1  0  0  0  0
 30  3  1  0  0  0  0
 31  4  1  0  0  0  0
 36 18  1  0  0  0  0
 38 19  1  0  0  0  0
 39 21  1  0  0  0  0
 42 22  1  0  0  0  0
 43 24  1  0  0  0  0
 45 25  1  0  0  0  0
 46 25  1  0  0  0  0
 47 27  1  0  0  0  0
 51 29  1  0  0  0  0
 52 30  1  0  0  0  0
M  END
>  <Pose>
1

>  <Score>
-7.03

$$$$
