
 OpenBabel03202209553D

 41 43  0  0  1  0  0  0  0  0999 V2000
   21.7570   16.1010   30.9070 B   0  0  0  0  0  0  0  0  0  0  0  0
   22.6100   16.4060   29.2110 C   0  0  0  0  0  0  0  0  0  0  0  0
   23.1800   15.2810   28.5980 C   0  0  0  0  0  0  0  0  0  0  0  0
   23.7830   15.5270   27.3830 C   0  0  0  0  0  0  0  0  0  0  0  0
   23.8160   16.8070   26.8240 C   0  0  0  0  0  0  0  0  0  0  0  0
   23.2500   17.8950   27.4440 C   0  0  0  0  0  0  0  0  0  0  0  0
   22.6450   17.6610   28.6550 C   0  0  0  0  0  0  0  0  0  0  0  0
   23.2940   19.2560   26.8300 C   0  0  0  0  0  0  0  0  0  0  0  0
   23.1110   14.0130   29.2210 N   0  0  0  0  0  0  0  0  0  0  0  0
   23.5230   13.6510   30.5040 C   0  0  0  0  0  0  0  0  0  0  0  0
   23.1010   14.2400   31.5100 O   0  0  0  0  0  0  0  0  0  0  0  0
   24.4840   12.5420   30.6600 C   0  0  0  0  0  0  0  0  0  0  0  0
   23.9230   11.2300   30.6940 N   0  0  1  0  0  4  0  0  0  0  0  0
   24.9920   10.2820   30.3420 C   0  0  0  0  0  0  0  0  0  0  0  0
   24.6120    8.9460   30.9310 C   0  0  0  0  0  0  0  0  0  0  0  0
   23.1670    8.8210   30.7460 N   0  0  1  0  0  0  0  0  0  0  0  0
   22.5670    9.5910   31.8320 C   0  0  0  0  0  0  0  0  0  0  0  0
   23.3740   10.8710   31.9990 C   0  0  0  0  0  0  0  0  0  0  0  0
   22.7860    9.4790   29.5060 C   0  0  0  0  0  0  0  0  0  0  0  0
   22.8770   10.9990   29.7190 C   0  0  0  0  0  0  0  0  0  0  0  0
   24.2500   14.7110   26.8420 H   0  0  0  0  0  0  0  0  0  0  0  0
   24.2980   16.9860   25.8620 H   0  0  0  0  0  0  0  0  0  0  0  0
   22.1880   18.5000   29.1740 H   0  0  0  0  0  0  0  0  0  0  0  0
   23.1670   20.0460   27.5990 H   0  0  0  0  0  0  0  0  0  0  0  0
   22.5200   19.3900   26.0710 H   0  0  0  0  0  0  0  0  0  0  0  0
   24.3260   19.3800   26.4360 H   0  0  0  0  0  0  0  0  0  0  0  0
   22.6890   13.2340   28.6320 H   0  0  0  0  0  0  0  0  0  0  0  0
   25.0620   12.6540   31.6270 H   0  0  0  0  0  0  0  0  0  0  0  0
   25.2500   12.5350   29.8440 H   0  0  0  0  0  0  0  0  0  0  0  0
   25.0480   10.2760   29.2380 H   0  0  0  0  0  0  0  0  0  0  0  0
   25.9610   10.6550   30.7320 H   0  0  0  0  0  0  0  0  0  0  0  0
   24.8840    8.9580   32.0000 H   0  0  0  0  0  0  0  0  0  0  0  0
   25.1280    8.1030   30.3890 H   0  0  0  0  0  0  0  0  0  0  0  0
   22.6730    9.0220   32.7780 H   0  0  0  0  0  0  0  0  0  0  0  0
   21.4970    9.8310   31.6220 H   0  0  0  0  0  0  0  0  0  0  0  0
   22.6660   11.6480   32.2930 H   0  0  0  0  0  0  0  0  0  0  0  0
   24.2230   10.7550   32.6890 H   0  0  0  0  0  0  0  0  0  0  0  0
   23.4650    9.1240   28.7180 H   0  0  0  0  0  0  0  0  0  0  0  0
   21.7440    9.1890   29.2530 H   0  0  0  0  0  0  0  0  0  0  0  0
   21.8870   11.3010   30.1310 H   0  0  0  0  0  0  0  0  0  0  0  0
   23.0930   11.4280   28.7350 H   0  0  0  0  0  0  0  0  0  0  0  0
  2  1  1  0  0  0  0
  3  2  2  0  0  0  0
  3  9  1  0  0  0  0
  4  3  1  0  0  0  0
  5  4  2  0  0  0  0
  5  6  1  0  0  0  0
  6  7  2  0  0  0  0
  7 23  1  0  0  0  0
  7  2  1  0  0  0  0
  8  6  1  0  0  0  0
  8 24  1  0  0  0  0
  9 10  1  0  0  0  0
 10 12  1  0  0  0  0
 10 11  2  0  0  0  0
 12 28  1  0  0  0  0
 13 12  1  6  0  0  0
 13 18  1  0  0  0  0
 14 13  1  0  0  0  0
 14 31  1  0  0  0  0
 14 15  1  0  0  0  0
 15 32  1  0  0  0  0
 16 19  1  6  0  0  0
 16 15  1  0  0  0  0
 16 17  1  0  0  0  0
 17 18  1  0  0  0  0
 17 34  1  0  0  0  0
 18 36  1  0  0  0  0
 18 37  1  0  0  0  0
 19 20  1  0  0  0  0
 20 40  1  0  0  0  0
 20 13  1  0  0  0  0
 21  4  1  0  0  0  0
 22  5  1  0  0  0  0
 25  8  1  0  0  0  0
 26  8  1  0  0  0  0
 27  9  1  0  0  0  0
 29 12  1  0  0  0  0
 30 14  1  0  0  0  0
 33 15  1  0  0  0  0
 35 17  1  0  0  0  0
 38 19  1  0  0  0  0
 39 19  1  0  0  0  0
 41 20  1  0  0  0  0
M  END
>  <Pose>
1

>  <Score>
-5.10

$$$$
