
 OpenBabel03202209553D

 33 36  0  0  1  0  0  0  0  0999 V2000
   20.4130    8.6050   32.4750 B   0  0  0  0  0  0  0  0  0  0  0  0
   21.9460    8.0090   31.5070 C   0  0  0  0  0  0  0  0  0  0  0  0
   22.8930    8.8860   31.0410 C   0  0  0  0  0  0  0  0  0  0  0  0
   23.9810    8.4210   30.3420 C   0  0  0  0  0  0  0  0  0  0  0  0
   24.1550    7.0670   30.0890 C   0  0  0  0  0  0  0  0  0  0  0  0
   23.2200    6.1710   30.5460 C   0  0  0  0  0  0  0  0  0  0  0  0
   22.1150    6.6540   31.2570 C   0  0  0  0  0  0  0  0  0  0  0  0
   22.7940   10.3510   31.2700 C   0  0  1  0  0  0  0  0  0  0  0  0
   23.7770   11.1530   30.6890 C   0  0  1  0  0  0  0  0  0  0  0  0
   24.1760   11.5830   29.3210 C   0  0  0  0  0  0  0  0  0  0  0  0
   23.4210   12.8600   29.3790 N   0  0  0  0  0  0  0  0  0  0  0  0
   22.2930   12.6270   29.9740 C   0  0  2  0  0  0  0  0  0  0  0  0
   22.2680   11.2360   30.3040 C   0  0  2  0  0  0  0  0  0  0  0  0
   21.8310   10.4940   29.0840 C   0  0  0  0  0  0  0  0  0  0  0  0
   21.4730    9.8880   28.1330 N   0  0  0  0  0  0  0  0  0  0  0  0
   21.2640   13.6050   30.2430 N   0  0  0  0  0  0  0  0  0  0  0  0
   25.5470   11.8630   29.3360 O   0  0  0  0  0  0  0  0  0  0  0  0
   26.1100   11.1820   28.2740 C   0  0  0  0  0  0  0  0  0  0  0  0
   24.9330   11.0330   27.3240 C   0  0  0  0  0  0  0  0  0  0  0  0
   23.9070   10.7990   28.2720 O   0  0  0  0  0  0  0  0  0  0  0  0
   24.2520   12.2390   31.6190 C   0  0  0  0  0  0  0  0  0  0  0  0
   24.6060   13.0880   32.3600 N   0  0  0  0  0  0  0  0  0  0  0  0
   24.7700    9.0770   29.9450 H   0  0  0  0  0  0  0  0  0  0  0  0
   25.0000    6.6860   29.5440 H   0  0  0  0  0  0  0  0  0  0  0  0
   23.3390    5.1320   30.3630 H   0  0  0  0  0  0  0  0  0  0  0  0
   21.3510    5.9820   31.6390 H   0  0  0  0  0  0  0  0  0  0  0  0
   22.4500   10.5250   32.3290 H   0  0  0  0  0  0  0  0  0  0  0  0
   21.1650   14.4550   29.6560 H   0  0  0  0  0  0  0  0  0  0  0  0
   20.6030   13.4740   31.0320 H   0  0  0  0  0  0  0  0  0  0  0  0
   26.4280   10.1780   28.6250 H   0  0  0  0  0  0  0  0  0  0  0  0
   26.9530   11.7400   27.8120 H   0  0  0  0  0  0  0  0  0  0  0  0
   24.7500   11.9910   26.7900 H   0  0  0  0  0  0  0  0  0  0  0  0
   25.0430   10.1910   26.6280 H   0  0  0  0  0  0  0  0  0  0  0  0
  2  1  1  0  0  0  0
  3  8  1  0  0  0  0
  3  2  2  0  0  0  0
  4  3  1  0  0  0  0
  5  4  2  0  0  0  0
  5  6  1  0  0  0  0
  6  7  2  0  0  0  0
  7  2  1  0  0  0  0
  7 26  1  0  0  0  0
  8 27  1  1  0  0  0
  9  8  1  0  0  0  0
  9 21  1  1  0  0  0
 10 17  1  0  0  0  0
 10 11  1  0  0  0  0
 10  9  1  0  0  0  0
 11 12  1  0  0  0  0
 12 16  1  6  0  0  0
 12 13  1  0  0  0  0
 13 14  1  6  0  0  0
 13  9  1  0  0  0  0
 13  8  1  0  0  0  0
 15 14  3  0  0  0  0
 16 29  1  0  0  0  0
 18 30  1  0  0  0  0
 18 17  1  0  0  0  0
 19 20  1  0  0  0  0
 19 18  1  0  0  0  0
 20 10  1  0  0  0  0
 21 22  3  0  0  0  0
 23  4  1  0  0  0  0
 24  5  1  0  0  0  0
 25  6  1  0  0  0  0
 28 16  1  0  0  0  0
 31 18  1  0  0  0  0
 32 19  1  0  0  0  0
 33 19  1  0  0  0  0
M  END
>  <Pose>
1

>  <Score>
-4.66

$$$$
