
 OpenBabel03202209553D

 35 38  0  0  0  0  0  0  0  0999 V2000
   19.6750    9.7170   33.4050 B   0  0  0  0  0  0  0  0  0  0  0  0
   20.3630    8.2190   32.4620 C   0  0  0  0  0  0  0  0  0  0  0  0
   21.4740    8.1960   31.6590 C   0  0  0  0  0  0  0  0  0  0  0  0
   21.5860    6.9410   31.2020 N   0  0  0  0  0  0  0  0  0  0  0  0
   20.6030    6.2080   31.6870 N   0  0  0  0  0  0  0  0  0  0  0  0
   19.8110    6.9650   32.4810 C   0  0  0  0  0  0  0  0  0  0  0  0
   18.5820    6.5030   33.2210 C   0  0  0  0  0  0  0  0  0  0  0  0
   22.6300    6.4800   30.3160 C   0  0  0  0  0  0  0  0  0  0  0  0
   23.3990    5.3380   30.9210 C   0  0  0  0  0  0  0  0  0  0  0  0
   24.7340    5.2340   31.0540 N   0  0  0  0  0  0  0  0  0  0  0  0
   25.0320    4.0720   31.6390 N   0  0  0  0  0  0  0  0  0  0  0  0
   23.8880    3.4050   31.8930 C   0  0  0  0  0  0  0  0  0  0  0  0
   22.9020    4.2030   31.4430 N   0  0  0  0  0  0  0  0  0  0  0  0
   23.9500    2.1670   32.5010 C   0  0  0  0  0  0  0  0  0  0  0  0
   25.1470    1.5800   32.8610 C   0  0  0  0  0  0  0  0  0  0  0  0
   24.9220    0.3800   33.4320 N   0  0  0  0  0  0  0  0  0  0  0  0
   23.6170    0.1920   33.4430 N   0  0  0  0  0  0  0  0  0  0  0  0
   22.9800    1.2620   32.8820 C   0  0  0  0  0  0  0  0  0  0  0  0
   25.8990   -0.5630   33.9520 C   0  0  0  0  0  0  0  0  0  0  0  0
   26.2650    2.2790   32.5900 N   0  0  0  0  0  0  0  0  0  0  0  0
   26.1960    3.4970   31.9910 C   0  0  0  0  0  0  0  0  0  0  0  0
   22.3600    9.3700   31.3770 C   0  0  0  0  0  0  0  0  0  0  0  0
   17.7670    7.1920   32.9590 H   0  0  0  0  0  0  0  0  0  0  0  0
   18.7290    6.5280   34.3060 H   0  0  0  0  0  0  0  0  0  0  0  0
   18.3000    5.5000   32.8400 H   0  0  0  0  0  0  0  0  0  0  0  0
   23.3340    7.3260   30.0800 H   0  0  0  0  0  0  0  0  0  0  0  0
   22.2190    6.1380   29.3530 H   0  0  0  0  0  0  0  0  0  0  0  0
   21.9270    1.3930   32.7530 H   0  0  0  0  0  0  0  0  0  0  0  0
   26.0470   -0.4470   35.0510 H   0  0  0  0  0  0  0  0  0  0  0  0
   25.6700   -1.6070   33.6670 H   0  0  0  0  0  0  0  0  0  0  0  0
   26.9060   -0.3460   33.4930 H   0  0  0  0  0  0  0  0  0  0  0  0
   27.1060    4.0640   31.7710 H   0  0  0  0  0  0  0  0  0  0  0  0
   23.2220    9.2910   32.0480 H   0  0  0  0  0  0  0  0  0  0  0  0
   21.8140   10.3120   31.5800 H   0  0  0  0  0  0  0  0  0  0  0  0
   22.6420    9.4140   30.2950 H   0  0  0  0  0  0  0  0  0  0  0  0
  2  6  1  0  0  0  0
  2  1  1  0  0  0  0
  3  2  2  0  0  0  0
  4  3  1  0  0  0  0
  4  5  1  0  0  0  0
  5  6  2  0  0  0  0
  6  7  1  0  0  0  0
  7 24  1  0  0  0  0
  8  9  1  0  0  0  0
  8  4  1  0  0  0  0
  9 10  2  0  0  0  0
  9 13  1  0  0  0  0
 10 11  1  0  0  0  0
 11 12  1  0  0  0  0
 11 21  1  0  0  0  0
 12 14  1  0  0  0  0
 13 12  2  0  0  0  0
 14 15  2  0  0  0  0
 14 18  1  0  0  0  0
 15 16  1  0  0  0  0
 16 17  1  0  0  0  0
 16 19  1  0  0  0  0
 18 17  2  0  0  0  0
 19 29  1  0  0  0  0
 20 15  1  0  0  0  0
 21 20  2  0  0  0  0
 22 34  1  0  0  0  0
 22  3  1  0  0  0  0
 22 33  1  0  0  0  0
 23  7  1  0  0  0  0
 25  7  1  0  0  0  0
 26  8  1  0  0  0  0
 27  8  1  0  0  0  0
 28 18  1  0  0  0  0
 30 19  1  0  0  0  0
 31 19  1  0  0  0  0
 32 21  1  0  0  0  0
 35 22  1  0  0  0  0
M  END
>  <Pose>
1

>  <Score>
-5.49

$$$$
