
 OpenBabel03202209553D

 36 39  0  0  0  0  0  0  0  0999 V2000
   17.6710    7.8330   33.5640 B   0  0  0  0  0  0  0  0  0  0  0  0
   19.3520    7.6660   32.7110 C   0  0  0  0  0  0  0  0  0  0  0  0
   19.8480    6.3920   32.4060 C   0  0  0  0  0  0  0  0  0  0  0  0
   21.0670    6.2910   31.7860 C   0  0  0  0  0  0  0  0  0  0  0  0
   21.7950    7.4070   31.4690 C   0  0  0  0  0  0  0  0  0  0  0  0
   21.3010    8.6870   31.7720 C   0  0  0  0  0  0  0  0  0  0  0  0
   20.0740    8.7910   32.3960 C   0  0  0  0  0  0  0  0  0  0  0  0
   23.0490    7.2260   30.8370 N   0  0  0  0  0  0  0  0  0  0  0  0
   24.2070    7.4300   31.4350 N   0  0  0  0  0  0  0  0  0  0  0  0
   25.2070    7.1850   30.6150 N   0  0  0  0  0  0  0  0  0  0  0  0
   24.7020    6.8130   29.4500 N   0  0  0  0  0  0  0  0  0  0  0  0
   23.3730    6.8400   29.5940 C   0  0  0  0  0  0  0  0  0  0  0  0
   21.6530    4.9470   31.4190 C   0  0  0  0  0  0  0  0  0  0  0  0
   21.3400    4.5130   30.2640 O   0  0  0  0  0  0  0  0  0  0  0  0
   22.4570    4.3090   32.3340 N   0  0  0  0  0  0  0  0  0  0  0  0
   23.2570    3.6760   33.2420 C   0  0  0  0  0  0  0  0  0  0  0  0
   23.4780    2.2010   32.9490 C   0  0  0  0  0  0  0  0  0  0  0  0
   24.4580    1.7060   32.1620 N   0  0  0  0  0  0  0  0  0  0  0  0
   24.3790    0.3700   32.1100 C   0  0  0  0  0  0  0  0  0  0  0  0
   23.3320    0.0370   32.8810 N   0  0  0  0  0  0  0  0  0  0  0  0
   22.7820    1.1480   33.3920 N   0  0  0  0  0  0  0  0  0  0  0  0
   25.2960   -0.3700   31.3520 C   0  0  0  0  0  0  0  0  0  0  0  0
   26.2850    0.2660   30.6550 C   0  0  0  0  0  0  0  0  0  0  0  0
   26.3660    1.6430   30.7090 C   0  0  0  0  0  0  0  0  0  0  0  0
   25.4420    2.3460   31.4680 C   0  0  0  0  0  0  0  0  0  0  0  0
   19.2890    5.5010   32.6520 H   0  0  0  0  0  0  0  0  0  0  0  0
   21.9030    9.5380   31.5050 H   0  0  0  0  0  0  0  0  0  0  0  0
   19.6940    9.7800   32.6320 H   0  0  0  0  0  0  0  0  0  0  0  0
   22.6700    6.5860   28.8250 H   0  0  0  0  0  0  0  0  0  0  0  0
   23.3280    5.3550   32.3160 H   0  0  0  0  0  0  0  0  0  0  0  0
   22.9310    3.7160   34.3210 H   0  0  0  0  0  0  0  0  0  0  0  0
   24.3220    4.0670   33.3060 H   0  0  0  0  0  0  0  0  0  0  0  0
   25.1820   -1.4430   31.3420 H   0  0  0  0  0  0  0  0  0  0  0  0
   27.0210   -0.2820   30.0490 H   0  0  0  0  0  0  0  0  0  0  0  0
   27.1140    2.2000   30.1920 H   0  0  0  0  0  0  0  0  0  0  0  0
   25.4690    3.4210   31.5350 H   0  0  0  0  0  0  0  0  0  0  0  0
  2  1  1  0  0  0  0
  3 26  1  0  0  0  0
  3  2  1  0  0  0  0
  4  3  2  0  0  0  0
  5  6  2  0  0  0  0
  5  4  1  0  0  0  0
  6  7  1  0  0  0  0
  7 28  1  0  0  0  0
  7  2  2  0  0  0  0
  8  9  1  0  0  0  0
  8  5  1  0  0  0  0
 10  9  2  0  0  0  0
 11 12  2  0  0  0  0
 11 10  1  0  0  0  0
 12  8  1  0  0  0  0
 13  4  1  0  0  0  0
 13 15  1  0  0  0  0
 14 13  2  0  0  0  0
 15 16  1  0  0  0  0
 16 32  1  0  0  0  0
 16 31  1  0  0  0  0
 17 16  1  0  0  0  0
 17 21  2  0  0  0  0
 18 17  1  0  0  0  0
 19 18  1  0  0  0  0
 19 20  2  0  0  0  0
 20 21  1  0  0  0  0
 22 19  1  0  0  0  0
 23 24  1  0  0  0  0
 23 22  2  0  0  0  0
 24 25  2  0  0  0  0
 25 36  1  0  0  0  0
 25 18  1  0  0  0  0
 27  6  1  0  0  0  0
 29 12  1  0  0  0  0
 30 15  1  0  0  0  0
 33 22  1  0  0  0  0
 34 23  1  0  0  0  0
 35 24  1  0  0  0  0
M  END
>  <Pose>
1

>  <Score>
-6.10

$$$$
