
 OpenBabel03202209553D

 54 57  0  0  0  0  0  0  0  0999 V2000
   20.8200   15.7600   34.0360 B   0  0  0  0  0  0  0  0  0  0  0  0
   21.4730   15.7600   32.2450 C   0  0  0  0  0  0  0  0  0  0  0  0
   21.5840   14.5880   31.5300 C   0  0  0  0  0  0  0  0  0  0  0  0
   22.0530   14.5880   30.2390 C   0  0  0  0  0  0  0  0  0  0  0  0
   22.4100   15.7950   29.6780 C   0  0  0  0  0  0  0  0  0  0  0  0
   22.3030   16.9900   30.3930 C   0  0  0  0  0  0  0  0  0  0  0  0
   21.8280   16.9840   31.6940 C   0  0  0  0  0  0  0  0  0  0  0  0
   22.8830   15.7660   28.3710 O   0  0  0  0  0  0  0  0  0  0  0  0
   23.3110   16.9080   27.6670 C   0  0  0  0  0  0  0  0  0  0  0  0
   22.1750   13.3540   29.4710 C   0  0  0  0  0  0  0  0  0  0  0  0
   22.5270   12.2380   29.9890 N   0  0  0  0  0  0  0  0  0  0  0  0
   22.6490   11.0480   29.2690 N   0  0  0  0  0  0  0  0  0  0  0  0
   22.6740    9.7710   29.8930 C   0  0  0  0  0  0  0  0  0  0  0  0
   23.5740    8.8130   29.5790 N   0  0  0  0  0  4  0  0  0  0  0  0
   23.5700    7.6210   30.1850 C   0  0  0  0  0  0  0  0  0  0  0  0
   22.6440    7.3850   31.1280 N   0  0  0  0  0  0  0  0  0  0  0  0
   21.7080    8.3020   31.4930 C   0  0  0  0  0  0  0  0  0  0  0  0
   21.7730    9.4920   30.8350 N   0  0  0  0  0  0  0  0  0  0  0  0
   20.7400    8.0490   32.4820 N   0  0  0  0  0  0  0  0  0  0  0  0
   20.3080    6.7160   32.7790 C   0  0  0  0  0  0  0  0  0  0  0  0
   18.7840    6.7090   32.6810 C   0  0  0  0  0  0  0  0  0  0  0  0
   18.3180    7.6840   33.5460 O   0  0  0  0  0  0  0  0  0  0  0  0
   18.6450    8.9580   33.1470 C   0  0  0  0  0  0  0  0  0  0  0  0
   20.1620    9.1370   33.2140 C   0  0  0  0  0  0  0  0  0  0  0  0
   24.5170    6.6140   29.8560 N   0  0  0  0  0  0  0  0  0  0  0  0
   25.7180    6.8970   29.1020 C   0  0  0  0  0  0  0  0  0  0  0  0
   25.9850    5.8160   28.0650 C   0  0  0  0  0  0  0  0  0  0  0  0
   25.8120    4.5460   28.6250 O   0  0  0  0  0  0  0  0  0  0  0  0
   24.5250    4.3570   29.0690 C   0  0  0  0  0  0  0  0  0  0  0  0
   24.3030    5.2460   30.2730 C   0  0  0  0  0  0  0  0  0  0  0  0
   21.3040   13.6190   31.9610 H   0  0  0  0  0  0  0  0  0  0  0  0
   22.5910   17.9370   29.9290 H   0  0  0  0  0  0  0  0  0  0  0  0
   21.7530   17.9180   32.2260 H   0  0  0  0  0  0  0  0  0  0  0  0
   22.4140   17.3130   27.1320 H   0  0  0  0  0  0  0  0  0  0  0  0
   23.8090   17.6560   28.3030 H   0  0  0  0  0  0  0  0  0  0  0  0
   24.0250   16.5880   26.8750 H   0  0  0  0  0  0  0  0  0  0  0  0
   21.9620   13.3620   28.4120 H   0  0  0  0  0  0  0  0  0  0  0  0
   22.7240   11.1420   28.2190 H   0  0  0  0  0  0  0  0  0  0  0  0
   20.7550    5.9680   32.0740 H   0  0  0  0  0  0  0  0  0  0  0  0
   20.5670    6.4710   33.8340 H   0  0  0  0  0  0  0  0  0  0  0  0
   18.4640    5.7200   33.0660 H   0  0  0  0  0  0  0  0  0  0  0  0
   18.4520    6.8390   31.6480 H   0  0  0  0  0  0  0  0  0  0  0  0
   18.3610    9.1520   32.0850 H   0  0  0  0  0  0  0  0  0  0  0  0
   18.1750    9.6790   33.8230 H   0  0  0  0  0  0  0  0  0  0  0  0
   20.4620   10.1290   32.8300 H   0  0  0  0  0  0  0  0  0  0  0  0
   20.4220    9.0220   34.2930 H   0  0  0  0  0  0  0  0  0  0  0  0
   26.5670    6.8090   29.8390 H   0  0  0  0  0  0  0  0  0  0  0  0
   25.7000    7.8730   28.6100 H   0  0  0  0  0  0  0  0  0  0  0  0
   25.3190    5.9990   27.2120 H   0  0  0  0  0  0  0  0  0  0  0  0
   27.0710    5.8770   27.7980 H   0  0  0  0  0  0  0  0  0  0  0  0
   23.8280    4.5990   28.2420 H   0  0  0  0  0  0  0  0  0  0  0  0
   24.3910    3.2970   29.3080 H   0  0  0  0  0  0  0  0  0  0  0  0
   25.0650    4.9900   31.0160 H   0  0  0  0  0  0  0  0  0  0  0  0
   23.3000    5.1120   30.7100 H   0  0  0  0  0  0  0  0  0  0  0  0
  2  1  1  0  0  0  0
  3 31  1  0  0  0  0
  3  2  2  0  0  0  0
  4  3  1  0  0  0  0
  5  4  2  0  0  0  0
  5  6  1  0  0  0  0
  6  7  2  0  0  0  0
  7 33  1  0  0  0  0
  7  2  1  0  0  0  0
  8  5  1  0  0  0  0
  9 35  1  0  0  0  0
  9  8  1  0  0  0  0
 10 11  2  0  0  0  0
 10  4  1  0  0  0  0
 12 13  1  0  0  0  0
 12 11  1  0  0  0  0
 13 18  1  0  0  0  0
 14 13  2  0  0  0  0
 14 15  2  0  0  0  0
 15 16  1  0  0  0  0
 16 17  2  0  0  0  0
 17 19  1  0  0  0  0
 18 17  1  0  0  0  0
 19 20  1  0  0  0  0
 19 24  1  0  0  0  0
 20 40  1  0  0  0  0
 21 20  1  0  0  0  0
 21 41  1  0  0  0  0
 21 22  1  0  0  0  0
 23 24  1  0  0  0  0
 23 22  1  0  0  0  0
 23 44  1  0  0  0  0
 24 46  1  0  0  0  0
 25 15  1  0  0  0  0
 25 30  1  0  0  0  0
 26 47  1  0  0  0  0
 26 25  1  0  0  0  0
 27 28  1  0  0  0  0
 27 26  1  0  0  0  0
 28 29  1  0  0  0  0
 29 52  1  0  0  0  0
 29 30  1  0  0  0  0
 30 54  1  0  0  0  0
 30 53  1  0  0  0  0
 32  6  1  0  0  0  0
 34  9  1  0  0  0  0
 36  9  1  0  0  0  0
 37 10  1  0  0  0  0
 38 12  1  0  0  0  0
 39 20  1  0  0  0  0
 42 21  1  0  0  0  0
 43 23  1  0  0  0  0
 45 24  1  0  0  0  0
 48 26  1  0  0  0  0
 49 27  1  0  0  0  0
 50 27  1  0  0  0  0
 51 29  1  0  0  0  0
M  END
>  <Pose>
1

>  <Score>
-6.86

$$$$
