
 OpenBabel03202209553D

 45 48  0  0  0  0  0  0  0  0999 V2000
   21.3090   14.3750   31.9750 B   0  0  0  0  0  0  0  0  0  0  0  0
   22.4870   13.2680   30.9620 C   0  0  0  0  0  0  0  0  0  0  0  0
   22.3460   11.9110   31.0080 C   0  0  0  0  0  0  0  0  0  0  0  0
   23.1060   10.9970   30.3440 C   0  0  0  0  0  0  0  0  0  0  0  0
   24.1160   11.5910   29.5530 C   0  0  0  0  0  0  0  0  0  0  0  0
   24.2950   12.9520   29.4770 C   0  0  0  0  0  0  0  0  0  0  0  0
   23.4710   13.8090   30.1900 C   0  0  0  0  0  0  0  0  0  0  0  0
   24.9600   10.7700   28.8250 O   0  0  0  0  0  0  0  0  0  0  0  0
   26.3120   10.5810   29.1060 C   0  0  0  0  0  0  0  0  0  0  0  0
   22.9980    9.5650   30.3370 C   0  0  0  0  0  0  0  0  0  0  0  0
   22.2980    8.6160   30.9200 N   0  0  0  0  0  0  0  0  0  0  0  0
   22.6920    7.3830   30.4690 C   0  0  0  0  0  0  0  0  0  0  0  0
   23.6740    7.6050   29.5650 N   0  0  0  0  0  0  0  0  0  0  0  0
   23.8630    8.8770   29.4760 N   0  0  0  0  0  0  0  0  0  0  0  0
   21.9720    6.4330   31.0690 N   0  0  0  0  0  0  0  0  0  0  0  0
   21.1160    7.0530   31.8970 C   0  0  0  0  0  0  0  0  0  0  0  0
   21.2980    8.4290   31.8190 C   0  0  0  0  0  0  0  0  0  0  0  0
   20.5720    9.2850   32.5120 N   0  0  0  0  0  0  0  0  0  0  0  0
   19.6140    8.7560   33.3360 C   0  0  0  0  0  0  0  0  0  0  0  0
   18.8680    9.4800   34.0430 O   0  0  0  0  0  0  0  0  0  0  0  0
   19.4120    7.4260   33.4410 N   0  0  0  0  0  0  0  0  0  0  0  0
   20.1380    6.5620   32.7420 C   0  0  0  0  0  0  0  0  0  0  0  0
   19.9980    5.3140   32.7950 O   0  0  0  0  0  0  0  0  0  0  0  0
   20.5890   10.7170   32.4770 C   0  0  0  0  0  0  0  0  0  0  0  0
   22.0720    5.0150   30.8850 C   0  0  0  0  0  0  0  0  0  0  0  0
   23.3070    4.5000   31.5940 C   0  0  0  0  0  0  0  0  0  0  0  0
   22.9070    3.8710   32.7570 O   0  0  0  0  0  0  0  0  0  0  0  0
   23.7210    2.7630   33.0520 C   0  0  0  0  0  0  0  0  0  0  0  0
   21.5740   11.4850   31.6310 H   0  0  0  0  0  0  0  0  0  0  0  0
   25.0560   13.4250   28.8820 H   0  0  0  0  0  0  0  0  0  0  0  0
   23.5980   14.8750   30.1400 H   0  0  0  0  0  0  0  0  0  0  0  0
   26.5380   10.5380   30.1900 H   0  0  0  0  0  0  0  0  0  0  0  0
   26.7080    9.6230   28.6800 H   0  0  0  0  0  0  0  0  0  0  0  0
   26.8960   11.3970   28.6240 H   0  0  0  0  0  0  0  0  0  0  0  0
   18.6810    7.0390   34.0740 H   0  0  0  0  0  0  0  0  0  0  0  0
   20.6550   11.1290   31.4610 H   0  0  0  0  0  0  0  0  0  0  0  0
   19.6030   11.0810   32.9310 H   0  0  0  0  0  0  0  0  0  0  0  0
   21.3560   11.1260   33.1270 H   0  0  0  0  0  0  0  0  0  0  0  0
   22.0210    4.7030   29.8260 H   0  0  0  0  0  0  0  0  0  0  0  0
   21.2000    4.5520   31.4350 H   0  0  0  0  0  0  0  0  0  0  0  0
   23.9780    5.3410   31.8970 H   0  0  0  0  0  0  0  0  0  0  0  0
   23.8240    3.8110   30.8980 H   0  0  0  0  0  0  0  0  0  0  0  0
   23.6410    2.0500   32.2020 H   0  0  0  0  0  0  0  0  0  0  0  0
   23.3350    2.2380   33.9370 H   0  0  0  0  0  0  0  0  0  0  0  0
   24.7650    3.0410   33.2040 H   0  0  0  0  0  0  0  0  0  0  0  0
  2  3  1  0  0  0  0
  2  1  1  0  0  0  0
  3 29  1  0  0  0  0
  4  3  2  0  0  0  0
  5  4  1  0  0  0  0
  6  5  2  0  0  0  0
  6  7  1  0  0  0  0
  7  2  2  0  0  0  0
  8  9  1  0  0  0  0
  8  5  1  0  0  0  0
  9 32  1  0  0  0  0
 10  4  1  0  0  0  0
 10 11  1  0  0  0  0
 11 17  1  0  0  0  0
 12 11  1  0  0  0  0
 12 15  1  0  0  0  0
 13 12  2  0  0  0  0
 14 13  1  0  0  0  0
 14 10  2  0  0  0  0
 15 16  1  0  0  0  0
 16 22  1  0  0  0  0
 17 16  2  0  0  0  0
 17 18  1  0  0  0  0
 18 19  1  0  0  0  0
 19 21  1  0  0  0  0
 19 20  2  0  0  0  0
 21 35  1  0  0  0  0
 22 23  2  0  0  0  0
 22 21  1  0  0  0  0
 24 18  1  0  0  0  0
 24 37  1  0  0  0  0
 24 38  1  0  0  0  0
 25 15  1  0  0  0  0
 25 40  1  0  0  0  0
 25 26  1  0  0  0  0
 26 41  1  0  0  0  0
 26 27  1  0  0  0  0
 27 28  1  0  0  0  0
 28 45  1  0  0  0  0
 28 44  1  0  0  0  0
 30  6  1  0  0  0  0
 31  7  1  0  0  0  0
 33  9  1  0  0  0  0
 34  9  1  0  0  0  0
 36 24  1  0  0  0  0
 39 25  1  0  0  0  0
 42 26  1  0  0  0  0
 43 28  1  0  0  0  0
M  END
>  <Pose>
1

>  <Score>
-6.77

$$$$
