
 OpenBabel03202209553D

 52 55  0  0  1  0  0  0  0  0999 V2000
   26.6140   15.7860   25.6450 B   0  0  0  0  0  0  0  0  0  0  0  0
   27.5610   14.4300   26.6340 C   0  0  0  0  0  0  0  0  0  0  0  0
   26.8590   13.4080   27.2260 C   0  0  0  0  0  0  0  0  0  0  0  0
   27.5400   12.4460   27.9410 C   0  0  0  0  0  0  0  0  0  0  0  0
   28.8920   12.5000   28.0600 C   0  0  0  0  0  0  0  0  0  0  0  0
   29.5730   13.5240   27.4610 C   0  0  0  0  0  0  0  0  0  0  0  0
   28.9340   14.5260   26.7280 C   0  0  0  0  0  0  0  0  0  0  0  0
   26.7250   11.3210   28.5340 C   0  0  0  0  0  0  0  0  0  0  0  0
   26.6320   10.3130   27.8560 O   0  0  0  0  0  0  0  0  0  0  0  0
   26.2090   11.6170   29.7920 N   0  0  0  0  0  0  0  0  0  0  0  0
   25.0520   11.0270   30.3590 C   0  0  1  0  0  0  0  0  0  0  0  0
   24.7470   11.4580   31.7850 C   0  0  0  0  0  0  0  0  0  0  0  0
   23.8540   11.1490   29.5420 C   0  0  0  0  0  0  0  0  0  0  0  0
   23.6290   10.2110   28.7150 O   0  0  0  0  0  0  0  0  0  0  0  0
   22.9680   12.2610   29.6320 N   0  0  0  0  0  0  0  0  0  0  0  0
   21.7840   12.2460   30.4520 C   0  0  0  0  0  0  0  0  0  0  0  0
   22.0980   13.3110   31.5300 C   0  0  0  0  0  0  0  0  0  0  0  0
   21.9650   14.6280   30.8120 C   0  0  2  0  0  0  0  0  0  0  0  0
   22.6030   15.6290   31.6650 N   0  0  0  0  0  0  0  0  0  0  0  0
   22.0560   15.6860   32.9690 C   0  0  0  0  0  0  0  0  0  0  0  0
   20.6010   16.1170   32.9870 C   0  0  0  0  0  0  0  0  0  0  0  0
   19.8710   15.6360   31.7990 C   0  0  0  0  0  0  0  0  0  0  0  0
   18.5680   15.7580   31.4950 N   0  0  0  0  0  0  0  0  0  0  0  0
   18.3780   15.1630   30.2970 C   0  0  0  0  0  0  0  0  0  0  0  0
   19.5720   14.6760   29.8740 N   0  0  0  0  0  0  0  0  0  0  0  0
   20.5210   14.9530   30.7900 C   0  0  0  0  0  0  0  0  0  0  0  0
   22.6020   14.6910   29.4690 C   0  0  0  0  0  0  0  0  0  0  0  0
   23.2300   13.4580   28.9150 C   0  0  0  0  0  0  0  0  0  0  0  0
   25.7650   13.3150   27.1490 H   0  0  0  0  0  0  0  0  0  0  0  0
   29.4270   11.7090   28.6280 H   0  0  0  0  0  0  0  0  0  0  0  0
   30.6610   13.6010   27.5340 H   0  0  0  0  0  0  0  0  0  0  0  0
   29.4640   15.3330   26.2380 H   0  0  0  0  0  0  0  0  0  0  0  0
   26.6690   12.3780   30.3780 H   0  0  0  0  0  0  0  0  0  0  0  0
   25.3310    9.9400   30.5120 H   0  0  0  0  0  0  0  0  0  0  0  0
   23.6260   11.3940   31.9540 H   0  0  0  0  0  0  0  0  0  0  0  0
   25.1570   10.6890   32.5370 H   0  0  0  0  0  0  0  0  0  0  0  0
   25.0670   12.4440   32.0410 H   0  0  0  0  0  0  0  0  0  0  0  0
   21.5770   11.3240   31.0160 H   0  0  0  0  0  0  0  0  0  0  0  0
   20.8700   12.5880   29.9800 H   0  0  0  0  0  0  0  0  0  0  0  0
   21.2710   13.1850   32.2530 H   0  0  0  0  0  0  0  0  0  0  0  0
   23.0360   13.1290   32.0330 H   0  0  0  0  0  0  0  0  0  0  0  0
   22.6510   16.5720   31.2000 H   0  0  0  0  0  0  0  0  0  0  0  0
   22.2220   14.7440   33.5010 H   0  0  0  0  0  0  0  0  0  0  0  0
   22.6020   16.4650   33.5430 H   0  0  0  0  0  0  0  0  0  0  0  0
   20.5200   17.2390   33.0000 H   0  0  0  0  0  0  0  0  0  0  0  0
   20.1550   15.7180   33.9250 H   0  0  0  0  0  0  0  0  0  0  0  0
   17.4170   15.0970   29.7720 H   0  0  0  0  0  0  0  0  0  0  0  0
   19.6190   14.1830   28.9600 H   0  0  0  0  0  0  0  0  0  0  0  0
   21.8340   15.0220   28.7390 H   0  0  0  0  0  0  0  0  0  0  0  0
   23.3870   15.5050   29.4390 H   0  0  0  0  0  0  0  0  0  0  0  0
   24.3210   13.5620   28.8340 H   0  0  0  0  0  0  0  0  0  0  0  0
   22.8730   13.2710   27.8530 H   0  0  0  0  0  0  0  0  0  0  0  0
  1  2  1  0  0  0  0
  2  7  2  0  0  0  0
  2  3  1  0  0  0  0
  3  4  2  0  0  0  0
  4  5  1  0  0  0  0
  4  8  1  0  0  0  0
  5 30  1  0  0  0  0
  6 31  1  0  0  0  0
  6  5  2  0  0  0  0
  7  6  1  0  0  0  0
  8 10  1  0  0  0  0
  9  8  2  0  0  0  0
 10 11  1  0  0  0  0
 10 33  1  0  0  0  0
 11 34  1  1  0  0  0
 11 12  1  0  0  0  0
 12 35  1  0  0  0  0
 12 37  1  0  0  0  0
 12 36  1  0  0  0  0
 13 15  1  0  0  0  0
 13 11  1  0  0  0  0
 14 13  2  0  0  0  0
 15 16  1  0  0  0  0
 16 38  1  0  0  0  0
 16 17  1  0  0  0  0
 17 41  1  0  0  0  0
 17 40  1  0  0  0  0
 18 26  1  6  0  0  0
 18 17  1  0  0  0  0
 18 19  1  0  0  0  0
 19 20  1  0  0  0  0
 20 21  1  0  0  0  0
 20 43  1  0  0  0  0
 20 44  1  0  0  0  0
 21 45  1  0  0  0  0
 21 46  1  0  0  0  0
 22 21  1  0  0  0  0
 23 22  1  0  0  0  0
 24 23  2  0  0  0  0
 25 24  1  0  0  0  0
 25 26  1  0  0  0  0
 26 22  2  0  0  0  0
 27 18  1  0  0  0  0
 28 27  1  0  0  0  0
 28 15  1  0  0  0  0
 29  3  1  0  0  0  0
 32  7  1  0  0  0  0
 39 16  1  0  0  0  0
 42 19  1  0  0  0  0
 47 24  1  0  0  0  0
 48 25  1  0  0  0  0
 49 27  1  0  0  0  0
 50 27  1  0  0  0  0
 51 28  1  0  0  0  0
 52 28  1  0  0  0  0
M  END
>  <Pose>
1

>  <Score>
-6.43

$$$$
