
 OpenBabel03202209553D

 49 52  0  0  0  0  0  0  0  0999 V2000
   22.1430   19.9680   26.3070 B   0  0  0  0  0  0  0  0  0  0  0  0
   22.5930   18.3760   27.2140 C   0  0  0  0  0  0  0  0  0  0  0  0
   22.2470   18.2290   28.5490 C   0  0  0  0  0  0  0  0  0  0  0  0
   22.5640   17.0870   29.2370 C   0  0  0  0  0  0  0  0  0  0  0  0
   23.2270   16.0480   28.6570 C   0  0  0  0  0  0  0  0  0  0  0  0
   23.5790   16.1880   27.3110 C   0  0  0  0  0  0  0  0  0  0  0  0
   23.2600   17.3380   26.6120 C   0  0  0  0  0  0  0  0  0  0  0  0
   22.1620   16.9000   30.6760 C   0  0  0  0  0  0  0  0  0  0  0  0
   22.2720   17.9690   31.3740 O   0  0  0  0  0  0  0  0  0  0  0  0
   21.7530   15.7020   31.0590 N   0  0  0  0  0  0  0  0  0  0  0  0
   21.3240   14.4470   31.4610 C   0  0  0  0  0  0  0  0  0  0  0  0
   21.8380   13.3660   30.5440 C   0  0  0  0  0  0  0  0  0  0  0  0
   20.9790   12.9350   29.6980 O   0  0  0  0  0  0  0  0  0  0  0  0
   23.1410   12.8540   30.5880 N   0  0  0  0  0  0  0  0  0  0  0  0
   23.8690   12.6850   31.8050 C   0  0  0  0  0  0  0  0  0  0  0  0
   24.7430   11.4630   31.7950 C   0  0  0  0  0  0  0  0  0  0  0  0
   24.3350   10.3990   30.8000 C   0  0  0  0  0  0  0  0  0  0  0  0
   25.4750    9.4920   30.7770 N   0  0  0  0  0  0  0  0  0  0  0  0
   25.2890    8.2760   30.0810 C   0  0  0  0  0  0  0  0  0  0  0  0
   23.8980    7.8430   29.7960 C   0  0  0  0  0  0  0  0  0  0  0  0
   22.9330    8.3770   30.8070 C   0  0  0  0  0  0  0  0  0  0  0  0
   21.8400    7.8500   31.3570 N   0  0  0  0  0  0  0  0  0  0  0  0
   21.3690    8.7870   32.2070 C   0  0  0  0  0  0  0  0  0  0  0  0
   22.1590    9.8820   32.1820 N   0  0  0  0  0  0  0  0  0  0  0  0
   23.1650    9.6390   31.2920 C   0  0  0  0  0  0  0  0  0  0  0  0
   24.0590   10.9300   29.4170 C   0  0  0  0  0  0  0  0  0  0  0  0
   23.8390   12.4310   29.3790 C   0  0  0  0  0  0  0  0  0  0  0  0
   21.7270   19.0130   29.0480 H   0  0  0  0  0  0  0  0  0  0  0  0
   23.4600   15.1670   29.2190 H   0  0  0  0  0  0  0  0  0  0  0  0
   24.1040   15.3910   26.8160 H   0  0  0  0  0  0  0  0  0  0  0  0
   23.5310   17.4440   25.5720 H   0  0  0  0  0  0  0  0  0  0  0  0
   21.7700   15.2620   29.7480 H   0  0  0  0  0  0  0  0  0  0  0  0
   20.1810   14.3820   31.4510 H   0  0  0  0  0  0  0  0  0  0  0  0
   21.5680   14.2240   32.5290 H   0  0  0  0  0  0  0  0  0  0  0  0
   24.5720   13.5720   31.8630 H   0  0  0  0  0  0  0  0  0  0  0  0
   23.2510   12.7810   32.7170 H   0  0  0  0  0  0  0  0  0  0  0  0
   25.7840   11.7450   31.5980 H   0  0  0  0  0  0  0  0  0  0  0  0
   24.6440   10.9990   32.8000 H   0  0  0  0  0  0  0  0  0  0  0  0
   26.2520   10.0730   30.3510 H   0  0  0  0  0  0  0  0  0  0  0  0
   25.7640    7.4600   30.7050 H   0  0  0  0  0  0  0  0  0  0  0  0
   25.9070    8.2980   29.1340 H   0  0  0  0  0  0  0  0  0  0  0  0
   23.6080    8.1600   28.7670 H   0  0  0  0  0  0  0  0  0  0  0  0
   23.8590    6.7180   29.7590 H   0  0  0  0  0  0  0  0  0  0  0  0
   20.4860    8.6410   32.7990 H   0  0  0  0  0  0  0  0  0  0  0  0
   22.0180   10.7410   32.7400 H   0  0  0  0  0  0  0  0  0  0  0  0
   23.0940   10.4740   29.0400 H   0  0  0  0  0  0  0  0  0  0  0  0
   24.8510   10.7020   28.6860 H   0  0  0  0  0  0  0  0  0  0  0  0
   24.7980   12.9850   29.2510 H   0  0  0  0  0  0  0  0  0  0  0  0
   23.1780   12.6420   28.5180 H   0  0  0  0  0  0  0  0  0  0  0  0
  1  2  1  0  0  0  0
  2  3  1  0  0  0  0
  3 28  1  0  0  0  0
  3  4  2  0  0  0  0
  4  8  1  0  0  0  0
  5 29  1  0  0  0  0
  5  4  1  0  0  0  0
  6  5  2  0  0  0  0
  7  2  2  0  0  0  0
  7  6  1  0  0  0  0
  8 10  1  0  0  0  0
  8  9  2  0  0  0  0
 10 11  1  0  0  0  0
 11 34  1  0  0  0  0
 12 14  1  0  0  0  0
 12 11  1  0  0  0  0
 13 12  2  0  0  0  0
 14 15  1  0  0  0  0
 15 35  1  0  0  0  0
 15 36  1  0  0  0  0
 16 15  1  0  0  0  0
 16 38  1  0  0  0  0
 17 25  1  0  0  0  0
 17 16  1  0  0  0  0
 18 17  1  0  0  0  0
 19 40  1  0  0  0  0
 19 18  1  0  0  0  0
 20 19  1  0  0  0  0
 20 21  1  0  0  0  0
 21 25  2  0  0  0  0
 21 22  1  0  0  0  0
 22 23  2  0  0  0  0
 23 44  1  0  0  0  0
 24 23  1  0  0  0  0
 24 45  1  0  0  0  0
 25 24  1  0  0  0  0
 26 17  1  0  0  0  0
 27 26  1  0  0  0  0
 27 14  1  0  0  0  0
 30  6  1  0  0  0  0
 31  7  1  0  0  0  0
 32 10  1  0  0  0  0
 33 11  1  0  0  0  0
 37 16  1  0  0  0  0
 39 18  1  0  0  0  0
 41 19  1  0  0  0  0
 42 20  1  0  0  0  0
 43 20  1  0  0  0  0
 46 26  1  0  0  0  0
 47 26  1  0  0  0  0
 48 27  1  0  0  0  0
 49 27  1  0  0  0  0
M  END
>  <Pose>
1

>  <Score>
-7.31

$$$$
