
 OpenBabel03202209553D

 48 51  0  0  1  0  0  0  0  0999 V2000
   23.3790    2.1190   33.2450 B   0  0  0  0  0  0  0  0  0  0  0  0
   24.7370    2.7040   32.0320 C   0  0  0  0  0  0  0  0  0  0  0  0
   24.5530    3.8360   31.2870 C   0  0  0  0  0  0  0  0  0  0  0  0
   25.5340    4.2690   30.4030 C   0  0  0  0  0  0  0  0  0  0  0  0
   26.6740    3.5350   30.3030 C   0  0  0  0  0  0  0  0  0  0  0  0
   26.8510    2.3890   31.0620 C   0  0  0  0  0  0  0  0  0  0  0  0
   25.8800    1.9640   31.9350 C   0  0  0  0  0  0  0  0  0  0  0  0
   25.3310    5.4700   29.6100 C   0  0  0  0  0  0  0  0  0  0  0  0
   24.8160    5.3480   28.4390 O   0  0  0  0  0  0  0  0  0  0  0  0
   25.6800    6.7510   30.0840 N   0  0  0  0  0  0  0  0  0  0  0  0
   24.6820    7.7990   29.9750 C   0  0  2  0  0  0  0  0  0  0  0  0
   25.1530    9.0850   30.6270 C   0  0  0  0  0  0  0  0  0  0  0  0
   23.9110    9.7580   30.9520 N   0  0  0  0  0  0  0  0  0  0  0  0
   22.7750    8.8860   30.7320 C   0  0  1  0  0  0  0  0  0  0  0  0
   23.4350    7.5010   30.7600 C   0  0  0  0  0  0  0  0  0  0  0  0
   21.8330    9.0590   31.8370 C   0  0  0  0  0  0  0  0  0  0  0  0
   21.4170    8.0930   32.4920 O   0  0  0  0  0  0  0  0  0  0  0  0
   21.4040   10.3770   32.1400 N   0  0  0  0  0  0  0  0  0  0  0  0
   22.2610   11.4960   31.8220 C   0  0  1  0  0  0  0  0  0  0  0  0
   23.6270   11.0800   31.4310 C   0  0  0  0  0  0  0  0  0  0  0  0
   24.5770   11.9020   31.5170 O   0  0  0  0  0  0  0  0  0  0  0  0
   21.6400   12.4330   30.8080 C   0  0  0  0  0  0  0  0  0  0  0  0
   21.5640   13.8270   31.2750 C   0  0  0  0  0  0  0  0  0  0  0  0
   20.3770   14.5280   31.1600 C   0  0  0  0  0  0  0  0  0  0  0  0
   20.2990   15.8310   31.5940 C   0  0  0  0  0  0  0  0  0  0  0  0
   21.3730   16.4970   32.1540 C   0  0  0  0  0  0  0  0  0  0  0  0
   22.5570   15.8010   32.2690 C   0  0  0  0  0  0  0  0  0  0  0  0
   22.6550   14.4920   31.8390 C   0  0  0  0  0  0  0  0  0  0  0  0
   23.6470    4.4460   31.3460 H   0  0  0  0  0  0  0  0  0  0  0  0
   27.4620    3.8480   29.6140 H   0  0  0  0  0  0  0  0  0  0  0  0
   27.7540    1.8060   30.9830 H   0  0  0  0  0  0  0  0  0  0  0  0
   25.9910    1.0660   32.5450 H   0  0  0  0  0  0  0  0  0  0  0  0
   26.6110    6.9100   30.4920 H   0  0  0  0  0  0  0  0  0  0  0  0
   24.4200    8.0330   28.9460 H   0  0  0  0  0  0  0  0  0  0  0  0
   25.7220    8.9000   31.5640 H   0  0  0  0  0  0  0  0  0  0  0  0
   25.7760    9.6930   29.9340 H   0  0  0  0  0  0  0  0  0  0  0  0
   22.2870    9.0530   29.7490 H   0  0  0  0  0  0  0  0  0  0  0  0
   22.7350    6.8260   30.2440 H   0  0  0  0  0  0  0  0  0  0  0  0
   23.6210    7.2520   31.8110 H   0  0  0  0  0  0  0  0  0  0  0  0
   20.4830   10.5780   32.5920 H   0  0  0  0  0  0  0  0  0  0  0  0
   22.3200   12.1010   32.7760 H   0  0  0  0  0  0  0  0  0  0  0  0
   22.2160   12.3560   29.8670 H   0  0  0  0  0  0  0  0  0  0  0  0
   20.6110   12.0800   30.6300 H   0  0  0  0  0  0  0  0  0  0  0  0
   19.4780   14.0970   30.7350 H   0  0  0  0  0  0  0  0  0  0  0  0
   19.3740   16.3850   31.5060 H   0  0  0  0  0  0  0  0  0  0  0  0
   21.2700   17.5330   32.4860 H   0  0  0  0  0  0  0  0  0  0  0  0
   23.4060   16.3270   32.7120 H   0  0  0  0  0  0  0  0  0  0  0  0
   23.6010   13.9750   31.9450 H   0  0  0  0  0  0  0  0  0  0  0  0
  2  1  1  0  0  0  0
  3 29  1  0  0  0  0
  3  2  2  0  0  0  0
  4  3  1  0  0  0  0
  5  4  2  0  0  0  0
  5  6  1  0  0  0  0
  6  7  2  0  0  0  0
  7  2  1  0  0  0  0
  7 32  1  0  0  0  0
  8 10  1  0  0  0  0
  8  4  1  0  0  0  0
  9  8  2  0  0  0  0
 10 33  1  0  0  0  0
 11 34  1  6  0  0  0
 11 10  1  0  0  0  0
 11 12  1  0  0  0  0
 11 15  1  0  0  0  0
 12 13  1  0  0  0  0
 12 35  1  0  0  0  0
 13 20  1  0  0  0  0
 14 37  1  6  0  0  0
 14 15  1  0  0  0  0
 14 13  1  0  0  0  0
 14 16  1  0  0  0  0
 15 39  1  0  0  0  0
 16 18  1  0  0  0  0
 16 17  2  0  0  0  0
 18 40  1  0  0  0  0
 19 18  1  0  0  0  0
 19 41  1  1  0  0  0
 20 21  2  0  0  0  0
 20 19  1  0  0  0  0
 22 23  1  0  0  0  0
 22 19  1  0  0  0  0
 23 28  1  0  0  0  0
 24 23  2  0  0  0  0
 24 25  1  0  0  0  0
 25 26  2  0  0  0  0
 26 27  1  0  0  0  0
 26 46  1  0  0  0  0
 27 47  1  0  0  0  0
 28 48  1  0  0  0  0
 28 27  2  0  0  0  0
 30  5  1  0  0  0  0
 31  6  1  0  0  0  0
 36 12  1  0  0  0  0
 38 15  1  0  0  0  0
 42 22  1  0  0  0  0
 43 22  1  0  0  0  0
 44 24  1  0  0  0  0
 45 25  1  0  0  0  0
M  END
>  <Pose>
1

>  <Score>
-7.16

$$$$
