
 OpenBabel03202209553D

 42 45  0  0  1  0  0  0  0  0999 V2000
   24.1720    6.3200   30.4310 B   0  0  0  0  0  0  0  0  0  0  0  0
   23.9300    8.1490   30.8880 C   0  0  0  0  0  0  0  0  0  0  0  0
   24.6700    9.1560   30.3190 C   0  0  0  0  0  0  0  0  0  0  0  0
   24.5090   10.4750   30.6650 C   0  0  0  0  0  0  0  0  0  0  0  0
   23.5760   10.8070   31.6140 C   0  0  0  0  0  0  0  0  0  0  0  0
   22.8060    9.8190   32.2150 C   0  0  0  0  0  0  0  0  0  0  0  0
   22.9900    8.5160   31.8470 C   0  0  0  0  0  0  0  0  0  0  0  0
   25.3440   11.5600   30.0200 C   0  0  0  0  0  0  0  0  0  0  0  0
   26.5790   11.3770   30.2480 O   0  0  0  0  0  0  0  0  0  0  0  0
   24.7160   12.5530   29.3090 N   0  0  0  0  0  0  0  0  0  0  0  0
   24.1140   13.5160   28.6220 C   0  0  2  0  0  0  0  0  0  0  0  0
   25.1220   14.5110   27.9350 C   0  0  0  0  0  0  0  0  0  0  0  0
   24.3020   15.6130   27.5630 N   0  0  0  0  0  0  0  0  0  0  0  0
   23.0870   15.5960   28.3650 C   0  0  1  0  0  0  0  0  0  0  0  0
   23.3530   14.6120   29.4290 C   0  0  0  0  0  0  0  0  0  0  0  0
   22.7310   16.9620   28.7780 C   0  0  0  0  0  0  0  0  0  0  0  0
   22.2990   17.1600   29.9280 O   0  0  0  0  0  0  0  0  0  0  0  0
   22.8770   18.0420   27.8780 N   0  0  0  0  0  0  0  0  0  0  0  0
   23.9370   18.0140   26.8950 C   0  0  2  0  0  0  0  0  0  0  0  0
   23.3880   18.7430   25.6850 C   0  0  0  0  0  0  0  0  0  0  0  0
   22.0560   19.2500   26.1120 C   0  0  0  0  0  0  0  0  0  0  0  0
   22.1750   19.2990   27.6430 C   0  0  0  0  0  0  0  0  0  0  0  0
   24.4290   16.6690   26.6180 C   0  0  0  0  0  0  0  0  0  0  0  0
   24.9940   16.4130   25.4970 O   0  0  0  0  0  0  0  0  0  0  0  0
   25.4110    8.9240   29.5640 H   0  0  0  0  0  0  0  0  0  0  0  0
   23.4050   11.8100   31.9350 H   0  0  0  0  0  0  0  0  0  0  0  0
   22.0670   10.1160   32.9700 H   0  0  0  0  0  0  0  0  0  0  0  0
   22.3950    7.7240   32.3060 H   0  0  0  0  0  0  0  0  0  0  0  0
   25.8250   13.3500   29.4840 H   0  0  0  0  0  0  0  0  0  0  0  0
   23.4100   13.3220   27.7640 H   0  0  0  0  0  0  0  0  0  0  0  0
   25.8770   14.7070   28.6930 H   0  0  0  0  0  0  0  0  0  0  0  0
   25.5740   13.9640   27.0940 H   0  0  0  0  0  0  0  0  0  0  0  0
   22.2280   15.2240   27.7500 H   0  0  0  0  0  0  0  0  0  0  0  0
   22.4590   14.1500   29.8890 H   0  0  0  0  0  0  0  0  0  0  0  0
   24.0700   14.9540   30.1920 H   0  0  0  0  0  0  0  0  0  0  0  0
   24.8100   18.6540   27.2320 H   0  0  0  0  0  0  0  0  0  0  0  0
   23.2990   18.0160   24.8190 H   0  0  0  0  0  0  0  0  0  0  0  0
   24.0100   19.6020   25.3750 H   0  0  0  0  0  0  0  0  0  0  0  0
   21.2830   18.5030   25.8110 H   0  0  0  0  0  0  0  0  0  0  0  0
   21.7930   20.2460   25.6990 H   0  0  0  0  0  0  0  0  0  0  0  0
   22.7490   20.1770   27.9270 H   0  0  0  0  0  0  0  0  0  0  0  0
   21.1690   19.3440   28.0460 H   0  0  0  0  0  0  0  0  0  0  0  0
  1  2  1  0  0  0  0
  2  7  1  0  0  0  0
  3  4  1  0  0  0  0
  3  2  2  0  0  0  0
  4  5  2  0  0  0  0
  5 26  1  0  0  0  0
  5  6  1  0  0  0  0
  6 27  1  0  0  0  0
  7  6  2  0  0  0  0
  7 28  1  0  0  0  0
  8  9  2  0  0  0  0
  8  4  1  0  0  0  0
 10 29  1  0  0  0  0
 10  8  1  0  0  0  0
 11 30  1  6  0  0  0
 11 10  1  0  0  0  0
 11 15  1  0  0  0  0
 12 11  1  0  0  0  0
 12 31  1  0  0  0  0
 13 12  1  0  0  0  0
 13 14  1  0  0  0  0
 14 33  1  6  0  0  0
 14 16  1  0  0  0  0
 14 15  1  0  0  0  0
 15 34  1  0  0  0  0
 15 35  1  0  0  0  0
 16 17  2  0  0  0  0
 18 16  1  0  0  0  0
 19 36  1  1  0  0  0
 19 18  1  0  0  0  0
 20 21  1  0  0  0  0
 20 19  1  0  0  0  0
 21 22  1  0  0  0  0
 22 18  1  0  0  0  0
 22 41  1  0  0  0  0
 22 42  1  0  0  0  0
 23 19  1  0  0  0  0
 23 13  1  0  0  0  0
 24 23  2  0  0  0  0
 25  3  1  0  0  0  0
 32 12  1  0  0  0  0
 37 20  1  0  0  0  0
 38 20  1  0  0  0  0
 39 21  1  0  0  0  0
 40 21  1  0  0  0  0
M  END
>  <Pose>
1

>  <Score>
-7.12

$$$$
