
 OpenBabel03202209553D

 42 45  0  0  1  0  0  0  0  0999 V2000
   20.9770   16.0090   31.4780 B   0  0  0  0  0  0  0  0  0  0  0  0
   22.2500   15.5510   30.1430 C   0  0  0  0  0  0  0  0  0  0  0  0
   22.8440   14.3170   30.0860 C   0  0  0  0  0  0  0  0  0  0  0  0
   23.7650   13.9600   29.1330 C   0  0  0  0  0  0  0  0  0  0  0  0
   24.0920   14.9120   28.1980 C   0  0  0  0  0  0  0  0  0  0  0  0
   23.5080   16.1870   28.2200 C   0  0  0  0  0  0  0  0  0  0  0  0
   22.5810   16.5010   29.2010 C   0  0  0  0  0  0  0  0  0  0  0  0
   24.3860   12.6480   29.0860 C   0  0  0  0  0  0  0  0  0  0  0  0
   24.0090   11.8960   28.1200 O   0  0  0  0  0  0  0  0  0  0  0  0
   25.3450   12.1650   30.0040 N   0  0  0  0  0  0  0  0  0  0  0  0
   25.1680   10.9060   30.6260 C   0  0  2  0  0  0  0  0  0  0  0  0
   25.3940    9.7210   29.7480 C   0  0  0  0  0  0  0  0  0  0  0  0
   24.6880    8.6440   30.4630 N   0  0  0  0  0  0  0  0  0  0  0  0
   23.8390    9.2290   31.4910 C   0  0  1  0  0  0  0  0  0  0  0  0
   23.7180   10.6610   31.0690 C   0  0  0  0  0  0  0  0  0  0  0  0
   22.5770    8.4940   31.5040 C   0  0  0  0  0  0  0  0  0  0  0  0
   21.5060    9.0690   31.7290 O   0  0  0  0  0  0  0  0  0  0  0  0
   22.5770    7.0820   31.2530 N   0  0  0  0  0  0  0  0  0  0  0  0
   23.8670    6.4360   31.2570 C   0  0  1  0  0  0  0  0  0  0  0  0
   23.7330    5.0160   30.8880 C   0  0  0  0  0  0  0  0  0  0  0  0
   22.2510    4.7660   31.0930 C   0  0  0  0  0  0  0  0  0  0  0  0
   21.5790    6.0930   30.9840 C   0  0  0  0  0  0  0  0  0  0  0  0
   24.7150    7.2290   30.3010 C   0  0  0  0  0  0  0  0  0  0  0  0
   25.4050    6.6740   29.4150 O   0  0  0  0  0  0  0  0  0  0  0  0
   22.5890   13.5580   30.8260 H   0  0  0  0  0  0  0  0  0  0  0  0
   24.8070   14.7170   27.4130 H   0  0  0  0  0  0  0  0  0  0  0  0
   23.7640   16.9350   27.4830 H   0  0  0  0  0  0  0  0  0  0  0  0
   22.1570   17.4960   29.1790 H   0  0  0  0  0  0  0  0  0  0  0  0
   26.1770   12.7460   30.2150 H   0  0  0  0  0  0  0  0  0  0  0  0
   25.7770   10.7730   31.5420 H   0  0  0  0  0  0  0  0  0  0  0  0
   24.8490    9.9240   28.7820 H   0  0  0  0  0  0  0  0  0  0  0  0
   26.4360    9.4730   29.5510 H   0  0  0  0  0  0  0  0  0  0  0  0
   24.3990    9.1420   32.4580 H   0  0  0  0  0  0  0  0  0  0  0  0
   23.0260   10.7340   30.2280 H   0  0  0  0  0  0  0  0  0  0  0  0
   23.4800   11.3340   31.9170 H   0  0  0  0  0  0  0  0  0  0  0  0
   24.3590    6.6010   32.2550 H   0  0  0  0  0  0  0  0  0  0  0  0
   24.2750    4.3970   31.6460 H   0  0  0  0  0  0  0  0  0  0  0  0
   24.0850    4.7360   29.8880 H   0  0  0  0  0  0  0  0  0  0  0  0
   22.0740    4.3690   32.1330 H   0  0  0  0  0  0  0  0  0  0  0  0
   21.9290    4.0160   30.3590 H   0  0  0  0  0  0  0  0  0  0  0  0
   21.1490    6.1730   29.9590 H   0  0  0  0  0  0  0  0  0  0  0  0
   20.7290    6.1330   31.7260 H   0  0  0  0  0  0  0  0  0  0  0  0
  2  1  1  0  0  0  0
  3  2  1  0  0  0  0
  3 25  1  0  0  0  0
  4  3  2  0  0  0  0
  5  6  2  0  0  0  0
  5  4  1  0  0  0  0
  6  7  1  0  0  0  0
  7  2  2  0  0  0  0
  8  4  1  0  0  0  0
  8 10  1  0  0  0  0
  9  8  2  0  0  0  0
 10 29  1  0  0  0  0
 10 11  1  0  0  0  0
 11 15  1  0  0  0  0
 11 30  1  1  0  0  0
 12 13  1  0  0  0  0
 12 11  1  0  0  0  0
 13 14  1  0  0  0  0
 14 16  1  0  0  0  0
 14 33  1  1  0  0  0
 15 14  1  0  0  0  0
 15 35  1  0  0  0  0
 16 17  2  0  0  0  0
 18 19  1  0  0  0  0
 18 16  1  0  0  0  0
 19 36  1  1  0  0  0
 20 21  1  0  0  0  0
 20 19  1  0  0  0  0
 20 37  1  0  0  0  0
 21 39  1  0  0  0  0
 22 21  1  0  0  0  0
 22 18  1  0  0  0  0
 22 42  1  0  0  0  0
 23 13  1  0  0  0  0
 23 19  1  0  0  0  0
 24 23  2  0  0  0  0
 26  5  1  0  0  0  0
 27  6  1  0  0  0  0
 28  7  1  0  0  0  0
 31 12  1  0  0  0  0
 32 12  1  0  0  0  0
 34 15  1  0  0  0  0
 38 20  1  0  0  0  0
 40 21  1  0  0  0  0
 41 22  1  0  0  0  0
M  END
>  <Pose>
1

>  <Score>
-6.19

$$$$
