
 OpenBabel03202209553D

 35 38  0  0  1  0  0  0  0  0999 V2000
   21.5740    5.1040   31.2400 B   0  0  0  0  0  0  0  0  0  0  0  0
   23.4440    4.9530   30.9150 C   0  0  0  0  0  0  0  0  0  0  0  0
   24.0890    5.9900   30.2870 C   0  0  0  0  0  0  0  0  0  0  0  0
   25.4570    5.9300   30.0310 C   0  0  0  0  0  0  0  0  0  0  0  0
   26.1350    4.8160   30.4190 C   0  0  0  0  0  0  0  0  0  0  0  0
   25.4820    3.7800   31.0480 C   0  0  0  0  0  0  0  0  0  0  0  0
   24.1350    3.8150   31.3120 C   0  0  0  0  0  0  0  0  0  0  0  0
   26.0940    7.0460   29.3600 C   0  0  0  0  0  0  0  0  0  0  0  0
   26.4390    6.8840   28.1770 O   0  0  0  0  0  0  0  0  0  0  0  0
   26.3120    8.2680   30.0200 N   0  0  0  0  0  0  0  0  0  0  0  0
   25.5390    9.4350   29.8610 N   0  0  0  0  0  0  0  0  0  0  0  0
   26.1630   10.7110   29.6190 C   0  0  0  0  0  0  0  0  0  0  0  0
   27.4040   10.9680   29.5180 O   0  0  0  0  0  0  0  0  0  0  0  0
   25.1210   11.7130   29.5010 C   0  0  1  0  0  0  0  0  0  0  0  0
   23.8170   10.9470   29.2050 C   0  0  2  0  0  0  0  0  0  0  0  0
   22.7510   11.6370   29.9920 C   0  0  2  0  0  0  0  0  0  0  0  0
   23.4060   13.0020   30.2870 C   0  0  0  0  0  0  0  0  0  0  0  0
   24.7060   12.3570   30.8160 C   0  0  1  0  0  0  0  0  0  0  0  0
   24.1070   11.3430   31.7310 C   0  0  0  0  0  0  0  0  0  0  0  0
   22.8330   11.0960   31.3980 C   0  0  0  0  0  0  0  0  0  0  0  0
   24.1540    9.6410   29.8970 C   0  0  0  0  0  0  0  0  0  0  0  0
   23.3020    8.8840   30.4140 O   0  0  0  0  0  0  0  0  0  0  0  0
   23.5250    6.8700   29.9880 H   0  0  0  0  0  0  0  0  0  0  0  0
   27.1830    4.7180   30.2440 H   0  0  0  0  0  0  0  0  0  0  0  0
   26.0170    2.8750   31.3660 H   0  0  0  0  0  0  0  0  0  0  0  0
   23.5800    3.0430   31.7950 H   0  0  0  0  0  0  0  0  0  0  0  0
   27.1420    8.2780   30.6940 H   0  0  0  0  0  0  0  0  0  0  0  0
   25.3080   12.5080   28.7770 H   0  0  0  0  0  0  0  0  0  0  0  0
   23.6300   10.8130   28.1460 H   0  0  0  0  0  0  0  0  0  0  0  0
   21.7800   11.6860   29.5710 H   0  0  0  0  0  0  0  0  0  0  0  0
   22.8840   13.5280   31.0950 H   0  0  0  0  0  0  0  0  0  0  0  0
   23.5780   13.5910   29.3880 H   0  0  0  0  0  0  0  0  0  0  0  0
   25.3880   13.0530   31.2400 H   0  0  0  0  0  0  0  0  0  0  0  0
   24.6060   10.8470   32.5690 H   0  0  0  0  0  0  0  0  0  0  0  0
   22.0200   10.6480   31.9030 H   0  0  0  0  0  0  0  0  0  0  0  0
  2  1  1  0  0  0  0
  2  7  1  0  0  0  0
  3  2  2  0  0  0  0
  4  3  1  0  0  0  0
  4  5  2  0  0  0  0
  5  6  1  0  0  0  0
  6  7  2  0  0  0  0
  6 25  1  0  0  0  0
  7 26  1  0  0  0  0
  8 10  1  0  0  0  0
  8  4  1  0  0  0  0
  9  8  2  0  0  0  0
 10 27  1  0  0  0  0
 11 21  1  0  0  0  0
 11 10  1  0  0  0  0
 12 11  1  0  0  0  0
 13 12  2  0  0  0  0
 14 28  1  6  0  0  0
 14 12  1  0  0  0  0
 14 18  1  0  0  0  0
 15 29  1  6  0  0  0
 15 14  1  0  0  0  0
 15 21  1  0  0  0  0
 15 16  1  0  0  0  0
 16 30  1  6  0  0  0
 16 17  1  0  0  0  0
 16 20  1  0  0  0  0
 17 18  1  0  0  0  0
 17 31  1  0  0  0  0
 18 33  1  1  0  0  0
 18 19  1  0  0  0  0
 19 34  1  0  0  0  0
 20 19  1  0  0  0  0
 20 35  1  0  0  0  0
 21 22  2  0  0  0  0
 23  3  1  0  0  0  0
 24  5  1  0  0  0  0
 32 17  1  0  0  0  0
M  END
>  <Pose>
1

>  <Score>
-5.93

$$$$
