
 OpenBabel03202209553D

 52 55  0  0  0  0  0  0  0  0999 V2000
   27.1300   13.8040   22.2010 B   0  0  0  0  0  0  0  0  0  0  0  0
   27.1770   14.5690   23.9590 C   0  0  0  0  0  0  0  0  0  0  0  0
   27.2070   13.7710   25.1020 C   0  0  0  0  0  0  0  0  0  0  0  0
   27.2070   14.3720   26.3460 C   0  0  0  0  0  0  0  0  0  0  0  0
   27.1840   15.7540   26.4010 C   0  0  0  0  0  0  0  0  0  0  0  0
   27.1580   16.4950   25.2560 C   0  0  0  0  0  0  0  0  0  0  0  0
   27.1450   15.9580   23.9950 C   0  0  0  0  0  0  0  0  0  0  0  0
   27.0980   13.6590   27.6340 C   0  0  0  0  0  0  0  0  0  0  0  0
   25.9720   13.1770   28.0790 N   0  0  0  0  0  0  0  0  0  0  0  0
   25.7520   12.5440   29.2100 N   0  0  0  0  0  0  0  0  0  0  0  0
   25.0030   11.8310   30.1010 C   0  0  0  0  0  0  0  0  0  0  0  0
   24.9870   10.5940   30.2840 O   0  0  0  0  0  0  0  0  0  0  0  0
   24.0930   12.6660   30.9900 C   0  0  0  0  0  0  0  0  0  0  0  0
   24.3550   13.4930   31.9440 N   0  0  0  0  0  0  0  0  0  0  0  0
   23.2510   14.1430   32.2970 N   0  0  0  0  0  0  0  0  0  0  0  0
   22.2250   13.7130   31.5170 N   0  0  0  0  0  0  0  0  0  0  0  0
   22.6740   12.7960   30.7250 C   0  0  0  0  0  0  0  0  0  0  0  0
   22.1000   11.9110   29.7160 C   0  0  0  0  0  0  0  0  0  0  0  0
   21.6930   10.6080   29.9810 N   0  0  0  0  0  0  0  0  0  0  0  0
   22.2580    9.3900   29.9400 C   0  0  0  0  0  0  0  0  0  0  0  0
   22.4630    8.8950   31.3980 C   0  0  0  0  0  0  0  0  0  0  0  0
   22.5470   10.0450   32.2250 N   0  0  0  0  0  0  0  0  0  0  0  0
   21.2740   10.6890   32.3410 C   0  0  0  0  0  0  0  0  0  0  0  0
   20.5800   10.5950   30.9760 C   0  0  0  0  0  0  0  0  0  0  0  0
   23.3460   10.0160   33.3770 C   0  0  0  0  0  0  0  0  0  0  0  0
   21.0760   14.5990   31.4010 C   0  0  0  0  0  0  0  0  0  0  0  0
   19.8740   13.9270   30.9670 N   0  0  0  0  0  0  0  0  0  0  0  0
   18.9210   14.7270   30.8780 O   0  0  0  0  0  0  0  0  0  0  0  0
   19.3300   15.9150   31.2020 N   0  0  0  0  0  0  0  0  0  0  0  0
   20.6820   15.8180   31.5300 C   0  0  0  0  0  0  0  0  0  0  0  0
   21.3800   16.9750   31.9300 N   0  0  0  0  0  0  0  0  0  0  0  0
   27.2200   12.7110   25.0110 H   0  0  0  0  0  0  0  0  0  0  0  0
   27.1920   16.2030   27.3880 H   0  0  0  0  0  0  0  0  0  0  0  0
   27.1540   17.6080   25.3050 H   0  0  0  0  0  0  0  0  0  0  0  0
   27.1130   16.5800   23.1240 H   0  0  0  0  0  0  0  0  0  0  0  0
   27.9230   13.5910   28.3090 H   0  0  0  0  0  0  0  0  0  0  0  0
   26.8560   12.5650   29.7350 H   0  0  0  0  0  0  0  0  0  0  0  0
   21.0590   12.5300   29.4560 H   0  0  0  0  0  0  0  0  0  0  0  0
   22.5520   11.9730   28.7220 H   0  0  0  0  0  0  0  0  0  0  0  0
   23.1330    9.1830   29.3560 H   0  0  0  0  0  0  0  0  0  0  0  0
   21.4690    8.6460   29.5140 H   0  0  0  0  0  0  0  0  0  0  0  0
   21.6290    8.2790   31.6800 H   0  0  0  0  0  0  0  0  0  0  0  0
   23.4200    8.3650   31.4030 H   0  0  0  0  0  0  0  0  0  0  0  0
   21.3270   11.7860   32.6210 H   0  0  0  0  0  0  0  0  0  0  0  0
   20.6730   10.2010   33.1160 H   0  0  0  0  0  0  0  0  0  0  0  0
   19.8760   11.3600   30.7710 H   0  0  0  0  0  0  0  0  0  0  0  0
   20.1140    9.6320   30.8880 H   0  0  0  0  0  0  0  0  0  0  0  0
   23.8140    8.9910   33.4470 H   0  0  0  0  0  0  0  0  0  0  0  0
   24.1970   10.7550   33.2340 H   0  0  0  0  0  0  0  0  0  0  0  0
   22.8060   10.2280   34.3000 H   0  0  0  0  0  0  0  0  0  0  0  0
   20.9550   17.4330   32.8110 H   0  0  0  0  0  0  0  0  0  0  0  0
   22.1820   17.4430   31.5540 H   0  0  0  0  0  0  0  0  0  0  0  0
  1  2  1  0  0  0  0
  2  7  2  0  0  0  0
  2  3  1  0  0  0  0
  3  4  2  0  0  0  0
  4  5  1  0  0  0  0
  4  8  1  0  0  0  0
  5 33  1  0  0  0  0
  6 34  1  0  0  0  0
  6  5  2  0  0  0  0
  7  6  1  0  0  0  0
  8  9  2  0  0  0  0
  8 36  1  0  0  0  0
  9 10  1  0  0  0  0
 10 37  1  0  0  0  0
 10 11  1  0  0  0  0
 11 12  2  0  0  0  0
 11 13  1  0  0  0  0
 13 14  1  0  0  0  0
 14 15  2  0  0  0  0
 16 15  1  0  0  0  0
 17 13  2  0  0  0  0
 17 16  1  0  0  0  0
 18 19  1  0  0  0  0
 18 17  1  0  0  0  0
 19 24  1  0  0  0  0
 20 19  1  0  0  0  0
 20 21  1  0  0  0  0
 21 43  1  0  0  0  0
 21 42  1  0  0  0  0
 21 22  1  0  0  0  0
 22 23  1  0  0  0  0
 22 25  1  0  0  0  0
 23 44  1  0  0  0  0
 23 45  1  0  0  0  0
 24 23  1  0  0  0  0
 25 48  1  0  0  0  0
 25 50  1  0  0  0  0
 26 16  1  0  0  0  0
 26 30  1  0  0  0  0
 27 26  2  0  0  0  0
 28 27  1  0  0  0  0
 28 29  1  0  0  0  0
 29 30  2  0  0  0  0
 30 31  1  0  0  0  0
 31 51  1  0  0  0  0
 32  3  1  0  0  0  0
 35  7  1  0  0  0  0
 38 18  1  0  0  0  0
 39 18  1  0  0  0  0
 40 20  1  0  0  0  0
 41 20  1  0  0  0  0
 46 24  1  0  0  0  0
 47 24  1  0  0  0  0
 49 25  1  0  0  0  0
 52 31  1  0  0  0  0
M  END
>  <Pose>
1

>  <Score>
-7.08

$$$$
