
 OpenBabel03202209553D

 50 53  0  0  0  0  0  0  0  0999 V2000
   28.1170    6.6190   24.6660 B   0  0  0  0  0  0  0  0  0  0  0  0
   27.9540    5.9260   26.4440 C   0  0  0  0  0  0  0  0  0  0  0  0
   26.7400    5.8840   27.0860 C   0  0  0  0  0  0  0  0  0  0  0  0
   26.5720    5.3940   28.3690 C   0  0  0  0  0  0  0  0  0  0  0  0
   27.7060    4.9320   29.0030 C   0  0  0  0  0  0  0  0  0  0  0  0
   28.9540    4.9570   28.3860 C   0  0  0  0  0  0  0  0  0  0  0  0
   29.0700    5.4560   27.1060 C   0  0  0  0  0  0  0  0  0  0  0  0
   25.2700    5.3630   29.0220 C   0  0  0  0  0  0  0  0  0  0  0  0
   24.3740    6.2540   28.8540 N   0  0  0  0  0  0  0  0  0  0  0  0
   23.1190    6.2510   29.4670 N   0  0  0  0  0  0  0  0  0  0  0  0
   22.6520    7.3710   30.2100 C   0  0  0  0  0  0  0  0  0  0  0  0
   21.6950    7.2140   31.1300 N   0  0  0  0  0  4  0  0  0  0  0  0
   21.2030    8.2440   31.8740 C   0  0  0  0  0  0  0  0  0  0  0  0
   21.7480    9.4550   31.6240 N   0  0  0  0  0  0  0  0  0  0  0  0
   22.7110    9.6760   30.7140 C   0  0  0  0  0  0  0  0  0  0  0  0
   23.1410    8.5940   30.0180 N   0  0  0  0  0  0  0  0  0  0  0  0
   23.2610   10.9460   30.4740 N   0  0  0  0  0  0  0  0  0  0  0  0
   22.7320   12.1360   31.0850 C   0  0  0  0  0  0  0  0  0  0  0  0
   23.9480   13.0130   31.4130 C   0  0  0  0  0  0  0  0  0  0  0  0
   25.0790   12.2220   31.5980 O   0  0  0  0  0  0  0  0  0  0  0  0
   25.5400   11.6240   30.4530 C   0  0  0  0  0  0  0  0  0  0  0  0
   24.3870   11.0870   29.5940 C   0  0  0  0  0  0  0  0  0  0  0  0
   20.1920    8.0540   32.8400 N   0  0  0  0  0  0  0  0  0  0  0  0
   19.7430    9.1460   33.6580 C   0  0  0  0  0  0  0  0  0  0  0  0
   18.2280    9.2240   33.4990 C   0  0  0  0  0  0  0  0  0  0  0  0
   17.7270    8.0010   33.9360 O   0  0  0  0  0  0  0  0  0  0  0  0
   18.0730    6.9600   33.0940 C   0  0  0  0  0  0  0  0  0  0  0  0
   19.5850    6.7660   33.0350 C   0  0  0  0  0  0  0  0  0  0  0  0
   25.8400    6.2490   26.5880 H   0  0  0  0  0  0  0  0  0  0  0  0
   27.6520    4.5310   30.0140 H   0  0  0  0  0  0  0  0  0  0  0  0
   29.8470    4.5960   28.8800 H   0  0  0  0  0  0  0  0  0  0  0  0
   30.0430    5.4660   26.6480 H   0  0  0  0  0  0  0  0  0  0  0  0
   25.0570    4.5370   29.6850 H   0  0  0  0  0  0  0  0  0  0  0  0
   22.5270    5.4000   29.3690 H   0  0  0  0  0  0  0  0  0  0  0  0
   22.1420   11.9280   31.9980 H   0  0  0  0  0  0  0  0  0  0  0  0
   22.1580   12.6820   30.3170 H   0  0  0  0  0  0  0  0  0  0  0  0
   23.7290   13.4890   32.3810 H   0  0  0  0  0  0  0  0  0  0  0  0
   24.1200   13.7710   30.6400 H   0  0  0  0  0  0  0  0  0  0  0  0
   26.2330   12.2250   29.8620 H   0  0  0  0  0  0  0  0  0  0  0  0
   26.1090   10.7000   30.7690 H   0  0  0  0  0  0  0  0  0  0  0  0
   24.6360   10.1130   29.1640 H   0  0  0  0  0  0  0  0  0  0  0  0
   24.1790   11.8530   28.7870 H   0  0  0  0  0  0  0  0  0  0  0  0
   20.2290   10.1050   33.4200 H   0  0  0  0  0  0  0  0  0  0  0  0
   19.9130    8.8450   34.7280 H   0  0  0  0  0  0  0  0  0  0  0  0
   18.0290    9.2920   32.4170 H   0  0  0  0  0  0  0  0  0  0  0  0
   17.7870   10.0300   34.0890 H   0  0  0  0  0  0  0  0  0  0  0  0
   17.6610    7.2130   32.0850 H   0  0  0  0  0  0  0  0  0  0  0  0
   17.5930    6.0420   33.4870 H   0  0  0  0  0  0  0  0  0  0  0  0
   19.8850    6.3720   34.0280 H   0  0  0  0  0  0  0  0  0  0  0  0
   19.8140    6.0430   32.2350 H   0  0  0  0  0  0  0  0  0  0  0  0
  1  2  1  0  0  0  0
  2  3  2  0  0  0  0
  2  7  1  0  0  0  0
  3  4  1  0  0  0  0
  4  5  2  0  0  0  0
  4  8  1  0  0  0  0
  5 30  1  0  0  0  0
  6 31  1  0  0  0  0
  6  5  1  0  0  0  0
  7  6  2  0  0  0  0
  8 33  1  0  0  0  0
  9  8  2  0  0  0  0
  9 10  1  0  0  0  0
 10 11  1  0  0  0  0
 11 12  2  0  0  0  0
 12 13  2  0  0  0  0
 13 23  1  0  0  0  0
 14 13  1  0  0  0  0
 15 14  2  0  0  0  0
 16 11  1  0  0  0  0
 16 15  1  0  0  0  0
 17 15  1  0  0  0  0
 17 18  1  0  0  0  0
 18 19  1  0  0  0  0
 18 35  1  0  0  0  0
 19 20  1  0  0  0  0
 19 37  1  0  0  0  0
 21 40  1  0  0  0  0
 21 20  1  0  0  0  0
 22 21  1  0  0  0  0
 22 17  1  0  0  0  0
 23 28  1  0  0  0  0
 23 24  1  0  0  0  0
 24 44  1  0  0  0  0
 25 24  1  0  0  0  0
 25 26  1  0  0  0  0
 25 46  1  0  0  0  0
 27 48  1  0  0  0  0
 27 26  1  0  0  0  0
 28 27  1  0  0  0  0
 28 49  1  0  0  0  0
 29  3  1  0  0  0  0
 32  7  1  0  0  0  0
 34 10  1  0  0  0  0
 36 18  1  0  0  0  0
 38 19  1  0  0  0  0
 39 21  1  0  0  0  0
 41 22  1  0  0  0  0
 42 22  1  0  0  0  0
 43 24  1  0  0  0  0
 45 25  1  0  0  0  0
 47 27  1  0  0  0  0
 50 28  1  0  0  0  0
M  END
>  <Pose>
1

>  <Score>
-6.56

$$$$
