
 OpenBabel03202209553D

 61 64  0  0  1  0  0  0  0  0999 V2000
   28.4910    7.7300   25.2900 B   0  0  0  0  0  0  0  0  0  0  0  0
   28.2780    7.4100   27.1600 C   0  0  0  0  0  0  0  0  0  0  0  0
   27.8390    6.2320   27.6830 C   0  0  0  0  0  0  0  0  0  0  0  0
   27.6700    5.9610   29.0300 C   0  0  0  0  0  0  0  0  0  0  0  0
   27.9770    6.9800   29.9280 C   0  0  0  0  0  0  0  0  0  0  0  0
   28.4270    8.1880   29.4320 C   0  0  0  0  0  0  0  0  0  0  0  0
   28.5840    8.4280   28.0780 C   0  0  0  0  0  0  0  0  0  0  0  0
   27.1650    4.6390   29.4170 C   0  0  1  0  0  0  0  0  0  0  0  0
   28.0660    3.9880   30.2920 N   0  0  0  0  0  0  0  0  0  0  0  0
   27.4680    3.8370   31.5690 C   0  0  0  0  0  0  0  0  0  0  0  0
   28.0540    3.3750   32.5970 O   0  0  0  0  0  0  0  0  0  0  0  0
   26.0960    4.2880   31.4900 C   0  0  0  0  0  0  0  0  0  0  0  0
   25.3330    4.2650   32.4940 O   0  0  0  0  0  0  0  0  0  0  0  0
   25.8620    4.7250   30.1270 C   0  0  0  0  0  0  0  0  0  0  0  0
   24.7100    5.1590   29.6700 C   0  0  0  0  0  0  0  0  0  0  0  0
   24.6300    5.6100   28.3730 O   0  0  0  0  0  0  0  0  0  0  0  0
   23.5300    5.1640   30.4990 C   0  0  0  0  0  0  0  0  0  0  0  0
   22.8150    6.3250   30.8400 C   0  0  0  0  0  0  0  0  0  0  0  0
   21.7560    5.9850   31.5860 N   0  0  0  0  0  0  0  0  0  0  0  0
   21.7840    4.6720   31.7200 N   0  0  0  0  0  0  0  0  0  0  0  0
   22.8360    4.1390   31.0800 C   0  0  0  0  0  0  0  0  0  0  0  0
   20.7700    6.8520   32.1260 C   0  0  0  0  0  0  0  0  0  0  0  0
   19.5410    6.3200   32.4920 C   0  0  0  0  0  0  0  0  0  0  0  0
   18.5400    7.1020   33.0340 C   0  0  0  0  0  0  0  0  0  0  0  0
   18.7270    8.4700   33.2350 C   0  0  0  0  0  0  0  0  0  0  0  0
   19.9520    9.0000   32.8700 C   0  0  0  0  0  0  0  0  0  0  0  0
   20.9290    8.2030   32.3340 C   0  0  0  0  0  0  0  0  0  0  0  0
   23.2100    7.6990   30.4140 C   0  0  0  0  0  0  0  0  0  0  0  0
   29.4330    3.4930   29.9620 C   0  0  0  0  0  0  0  0  0  0  0  0
   29.3410    2.4130   28.9150 C   0  0  0  0  0  0  0  0  0  0  0  0
   28.8960    2.9150   27.5770 C   0  0  0  0  0  0  0  0  0  0  0  0
   27.9390    2.1140   26.8890 N   0  0  0  0  0  4  0  0  0  0  0  0
   28.0420    0.7040   27.0720 C   0  0  0  0  0  0  0  0  0  0  0  0
   26.5750    2.5140   27.2730 C   0  0  0  0  0  0  0  0  0  0  0  0
   27.6010    5.4450   26.9410 H   0  0  0  0  0  0  0  0  0  0  0  0
   27.8560    6.8070   30.9820 H   0  0  0  0  0  0  0  0  0  0  0  0
   28.6670    8.9850   30.1410 H   0  0  0  0  0  0  0  0  0  0  0  0
   28.9350    9.3770   27.6860 H   0  0  0  0  0  0  0  0  0  0  0  0
   27.0590    4.0140   28.4930 H   0  0  0  0  0  0  0  0  0  0  0  0
   23.0880    3.0790   31.0160 H   0  0  0  0  0  0  0  0  0  0  0  0
   19.4170    5.2370   32.3240 H   0  0  0  0  0  0  0  0  0  0  0  0
   17.5930    6.6560   33.3130 H   0  0  0  0  0  0  0  0  0  0  0  0
   17.9170    9.0660   33.6630 H   0  0  0  0  0  0  0  0  0  0  0  0
   20.0830   10.0720   33.0320 H   0  0  0  0  0  0  0  0  0  0  0  0
   21.8720    8.6580   32.0670 H   0  0  0  0  0  0  0  0  0  0  0  0
   23.6050    7.6860   29.3690 H   0  0  0  0  0  0  0  0  0  0  0  0
   23.9130    8.1680   31.1270 H   0  0  0  0  0  0  0  0  0  0  0  0
   22.3070    8.3550   30.3770 H   0  0  0  0  0  0  0  0  0  0  0  0
   30.0830    4.3410   29.6790 H   0  0  0  0  0  0  0  0  0  0  0  0
   29.8270    2.9890   30.8910 H   0  0  0  0  0  0  0  0  0  0  0  0
   30.4160    2.0920   28.7590 H   0  0  0  0  0  0  0  0  0  0  0  0
   28.8410    1.5100   29.2690 H   0  0  0  0  0  0  0  0  0  0  0  0
   29.7840    3.0400   26.8800 H   0  0  0  0  0  0  0  0  0  0  0  0
   28.4870    3.9630   27.6860 H   0  0  0  0  0  0  0  0  0  0  0  0
   27.9860    2.3220   25.8460 H   0  0  0  0  0  0  0  0  0  0  0  0
   27.0790    0.2520   27.4350 H   0  0  0  0  0  0  0  0  0  0  0  0
   28.9060    0.3460   27.6640 H   0  0  0  0  0  0  0  0  0  0  0  0
   28.1870    0.2310   26.0560 H   0  0  0  0  0  0  0  0  0  0  0  0
   25.9890    2.8460   26.4000 H   0  0  0  0  0  0  0  0  0  0  0  0
   26.6750    3.3620   27.9870 H   0  0  0  0  0  0  0  0  0  0  0  0
   26.0790    1.6890   27.8340 H   0  0  0  0  0  0  0  0  0  0  0  0
  1  2  1  0  0  0  0
  2  3  2  0  0  0  0
  2  7  1  0  0  0  0
  3  4  1  0  0  0  0
  4  8  1  0  0  0  0
  4  5  2  0  0  0  0
  5 36  1  0  0  0  0
  6  5  1  0  0  0  0
  6 37  1  0  0  0  0
  7  6  2  0  0  0  0
  8 39  1  6  0  0  0
  8 14  1  0  0  0  0
  8  9  1  0  0  0  0
  9 10  1  0  0  0  0
 10 11  2  0  0  0  0
 12 10  1  0  0  0  0
 12 13  2  0  0  0  0
 14 12  1  0  0  0  0
 15 14  2  0  0  0  0
 15 17  1  0  0  0  0
 16 15  1  0  0  0  0
 17 18  2  0  0  0  0
 17 21  1  0  0  0  0
 18 19  1  0  0  0  0
 19 20  1  0  0  0  0
 19 22  1  0  0  0  0
 21 20  2  0  0  0  0
 22 27  2  0  0  0  0
 22 23  1  0  0  0  0
 23 24  2  0  0  0  0
 24 25  1  0  0  0  0
 24 42  1  0  0  0  0
 25 43  1  0  0  0  0
 26 44  1  0  0  0  0
 26 25  2  0  0  0  0
 27 26  1  0  0  0  0
 28 18  1  0  0  0  0
 28 47  1  0  0  0  0
 29  9  1  0  0  0  0
 29 50  1  0  0  0  0
 30 52  1  0  0  0  0
 30 29  1  0  0  0  0
 31 54  1  0  0  0  0
 31 30  1  0  0  0  0
 32 33  1  0  0  0  0
 32 34  1  0  0  0  0
 32 31  1  0  0  0  0
 33 56  1  0  0  0  0
 33 57  1  0  0  0  0
 34 61  1  0  0  0  0
 34 60  1  0  0  0  0
 35  3  1  0  0  0  0
 38  7  1  0  0  0  0
 40 21  1  0  0  0  0
 41 23  1  0  0  0  0
 45 27  1  0  0  0  0
 46 28  1  0  0  0  0
 48 28  1  0  0  0  0
 49 29  1  0  0  0  0
 51 30  1  0  0  0  0
 53 31  1  0  0  0  0
 55 32  1  0  0  0  0
 58 33  1  0  0  0  0
 59 34  1  0  0  0  0
M  END
>  <Pose>
1

>  <Score>
-6.16

$$$$
