
 OpenBabel03202209553D

 63 66  0  0  1  0  0  0  0  0999 V2000
   18.9030    8.9030   33.4580 B   0  0  0  0  0  0  0  0  0  0  0  0
   20.2430    7.9150   32.5320 C   0  0  0  0  0  0  0  0  0  0  0  0
   21.1140    8.5570   31.6590 C   0  0  0  0  0  0  0  0  0  0  0  0
   22.0890    7.8580   30.9840 C   0  0  0  0  0  0  0  0  0  0  0  0
   22.1900    6.5000   31.1850 C   0  0  0  0  0  0  0  0  0  0  0  0
   21.3280    5.8570   32.0510 C   0  0  0  0  0  0  0  0  0  0  0  0
   20.3490    6.5480   32.7320 C   0  0  0  0  0  0  0  0  0  0  0  0
   23.0220    8.5180   30.0540 C   0  0  1  0  0  0  0  0  0  0  0  0
   23.3070    9.8940   30.4120 N   0  0  0  0  0  0  0  0  0  0  0  0
   24.4500    9.9710   31.2350 C   0  0  0  0  0  0  0  0  0  0  0  0
   24.8600   10.8830   31.9980 O   0  0  0  0  0  0  0  0  0  0  0  0
   25.1670    8.6850   31.0460 C   0  0  0  0  0  0  0  0  0  0  0  0
   26.2360    8.4000   31.6220 O   0  0  0  0  0  0  0  0  0  0  0  0
   24.3920    7.8980   30.1050 C   0  0  0  0  0  0  0  0  0  0  0  0
   24.8330    6.8840   29.4060 C   0  0  0  0  0  0  0  0  0  0  0  0
   23.9770    6.2650   28.4790 O   0  0  0  0  0  0  0  0  0  0  0  0
   26.1680    6.3680   29.5550 C   0  0  0  0  0  0  0  0  0  0  0  0
   27.2080    7.1470   29.0250 C   0  0  0  0  0  0  0  0  0  0  0  0
   28.5030    6.7150   29.0850 C   0  0  0  0  0  0  0  0  0  0  0  0
   28.8480    5.5010   29.6650 C   0  0  0  0  0  0  0  0  0  0  0  0
   27.8240    4.7630   30.1720 C   0  0  0  0  0  0  0  0  0  0  0  0
   26.5100    5.1820   30.1190 C   0  0  0  0  0  0  0  0  0  0  0  0
   30.1790    5.1380   29.6860 O   0  0  0  0  0  0  0  0  0  0  0  0
   30.9610    5.3050   30.8590 C   0  0  0  0  0  0  0  0  0  0  0  0
   29.6020    7.5590   28.5130 C   0  0  0  0  0  0  0  0  0  0  0  0
   22.5360   11.0730   29.9850 C   0  0  0  0  0  0  0  0  0  0  0  0
   23.4730   12.1660   29.5530 C   0  0  0  0  0  0  0  0  0  0  0  0
   23.3210   13.4560   30.2860 C   0  0  0  0  0  0  0  0  0  0  0  0
   21.9990   14.0340   30.1770 N   0  0  0  0  0  4  0  0  0  0  0  0
   21.0940   13.5010   31.1770 C   0  0  0  0  0  0  0  0  0  0  0  0
   20.6560   14.5800   32.1300 C   0  0  0  0  0  0  0  0  0  0  0  0
   19.9710   15.5590   31.3830 O   0  0  0  0  0  0  0  0  0  0  0  0
   20.8320   16.1720   30.4750 C   0  0  0  0  0  0  0  0  0  0  0  0
   22.1510   15.4830   30.3330 C   0  0  0  0  0  0  0  0  0  0  0  0
   21.0280    9.6130   31.5090 H   0  0  0  0  0  0  0  0  0  0  0  0
   22.9370    5.8930   30.6820 H   0  0  0  0  0  0  0  0  0  0  0  0
   21.4190    4.7910   32.1990 H   0  0  0  0  0  0  0  0  0  0  0  0
   19.6740    6.0450   33.4080 H   0  0  0  0  0  0  0  0  0  0  0  0
   22.6330    8.5470   29.0130 H   0  0  0  0  0  0  0  0  0  0  0  0
   26.9690    8.1140   28.5570 H   0  0  0  0  0  0  0  0  0  0  0  0
   28.0520    3.8060   30.6340 H   0  0  0  0  0  0  0  0  0  0  0  0
   25.7060    4.5400   30.5130 H   0  0  0  0  0  0  0  0  0  0  0  0
   31.9150    4.7680   30.8000 H   0  0  0  0  0  0  0  0  0  0  0  0
   30.4060    4.9980   31.7800 H   0  0  0  0  0  0  0  0  0  0  0  0
   31.2110    6.3900   31.0190 H   0  0  0  0  0  0  0  0  0  0  0  0
   29.3260    7.7110   27.4400 H   0  0  0  0  0  0  0  0  0  0  0  0
   30.5480    7.0260   28.5450 H   0  0  0  0  0  0  0  0  0  0  0  0
   29.6860    8.5370   29.0370 H   0  0  0  0  0  0  0  0  0  0  0  0
   21.8780   11.4200   30.8000 H   0  0  0  0  0  0  0  0  0  0  0  0
   21.9420   10.7700   29.0800 H   0  0  0  0  0  0  0  0  0  0  0  0
   24.5460   11.8540   29.6840 H   0  0  0  0  0  0  0  0  0  0  0  0
   23.3330   12.3980   28.4620 H   0  0  0  0  0  0  0  0  0  0  0  0
   24.0960   14.1540   29.8750 H   0  0  0  0  0  0  0  0  0  0  0  0
   23.5480   13.3770   31.3670 H   0  0  0  0  0  0  0  0  0  0  0  0
   21.5680   13.9070   29.2370 H   0  0  0  0  0  0  0  0  0  0  0  0
   21.5800   12.7020   31.7750 H   0  0  0  0  0  0  0  0  0  0  0  0
   20.1500   13.1170   30.6900 H   0  0  0  0  0  0  0  0  0  0  0  0
   19.9420   14.1980   32.8620 H   0  0  0  0  0  0  0  0  0  0  0  0
   21.5140   15.0400   32.6630 H   0  0  0  0  0  0  0  0  0  0  0  0
   20.3630   16.2240   29.4700 H   0  0  0  0  0  0  0  0  0  0  0  0
   21.0360   17.2080   30.8430 H   0  0  0  0  0  0  0  0  0  0  0  0
   22.5740   15.8200   29.3400 H   0  0  0  0  0  0  0  0  0  0  0  0
   22.8890   15.7380   31.1130 H   0  0  0  0  0  0  0  0  0  0  0  0
  2  7  1  0  0  0  0
  2  1  1  0  0  0  0
  3  2  2  0  0  0  0
  4  5  2  0  0  0  0
  4  3  1  0  0  0  0
  5  6  1  0  0  0  0
  6 37  1  0  0  0  0
  6  7  2  0  0  0  0
  7 38  1  0  0  0  0
  8 39  1  6  0  0  0
  8 14  1  0  0  0  0
  8  9  1  0  0  0  0
  8  4  1  0  0  0  0
  9 10  1  0  0  0  0
 10 11  2  0  0  0  0
 12 10  1  0  0  0  0
 12 13  2  0  0  0  0
 14 12  1  0  0  0  0
 15 17  1  0  0  0  0
 15 14  2  0  0  0  0
 16 15  1  0  0  0  0
 17 22  1  0  0  0  0
 18 19  1  0  0  0  0
 18 17  2  0  0  0  0
 19 20  2  0  0  0  0
 20 23  1  0  0  0  0
 20 21  1  0  0  0  0
 21 41  1  0  0  0  0
 22 21  2  0  0  0  0
 22 42  1  0  0  0  0
 23 24  1  0  0  0  0
 24 45  1  0  0  0  0
 24 44  1  0  0  0  0
 25 47  1  0  0  0  0
 25 48  1  0  0  0  0
 25 19  1  0  0  0  0
 26  9  1  0  0  0  0
 26 49  1  0  0  0  0
 27 51  1  0  0  0  0
 27 26  1  0  0  0  0
 27 28  1  0  0  0  0
 28 54  1  0  0  0  0
 29 28  1  0  0  0  0
 29 34  1  0  0  0  0
 29 30  1  0  0  0  0
 30 56  1  0  0  0  0
 30 31  1  0  0  0  0
 31 59  1  0  0  0  0
 31 58  1  0  0  0  0
 32 31  1  0  0  0  0
 33 61  1  0  0  0  0
 33 32  1  0  0  0  0
 34 33  1  0  0  0  0
 34 63  1  0  0  0  0
 35  3  1  0  0  0  0
 36  5  1  0  0  0  0
 40 18  1  0  0  0  0
 43 24  1  0  0  0  0
 46 25  1  0  0  0  0
 50 26  1  0  0  0  0
 52 27  1  0  0  0  0
 53 28  1  0  0  0  0
 55 29  1  0  0  0  0
 57 30  1  0  0  0  0
 60 33  1  0  0  0  0
 62 34  1  0  0  0  0
M  END
>  <Pose>
1

>  <Score>
-6.51

$$$$
