
 OpenBabel03202209553D

 56 59  0  0  1  0  0  0  0  0999 V2000
   28.7470    9.4020   28.5830 B   0  0  0  0  0  0  0  0  0  0  0  0
   27.4910   10.8280   28.3860 C   0  0  0  0  0  0  0  0  0  0  0  0
   26.2870   10.8270   29.0820 C   0  0  0  0  0  0  0  0  0  0  0  0
   25.3600   11.8410   28.9620 C   0  0  0  0  0  0  0  0  0  0  0  0
   25.6890   12.8780   28.1000 C   0  0  0  0  0  0  0  0  0  0  0  0
   26.8760   12.8980   27.4000 C   0  0  0  0  0  0  0  0  0  0  0  0
   27.7670   11.8660   27.5530 C   0  0  0  0  0  0  0  0  0  0  0  0
   24.0720   11.8380   29.7100 C   0  0  2  0  0  0  0  0  0  0  0  0
   24.1050   12.6650   30.8790 N   0  0  0  0  0  0  0  0  0  0  0  0
   24.5410   11.8330   31.9430 C   0  0  0  0  0  0  0  0  0  0  0  0
   25.0180   12.2280   33.0360 O   0  0  0  0  0  0  0  0  0  0  0  0
   24.3450   10.4140   31.5650 C   0  0  0  0  0  0  0  0  0  0  0  0
   24.6070    9.4030   32.2380 O   0  0  0  0  0  0  0  0  0  0  0  0
   23.7780   10.4550   30.2300 C   0  0  0  0  0  0  0  0  0  0  0  0
   23.1000    9.5150   29.6090 C   0  0  0  0  0  0  0  0  0  0  0  0
   22.5750    9.7600   28.3580 O   0  0  0  0  0  0  0  0  0  0  0  0
   22.8920    8.2170   30.1980 C   0  0  0  0  0  0  0  0  0  0  0  0
   22.0100    7.9070   31.1930 C   0  0  0  0  0  0  0  0  0  0  0  0
   21.8860    6.6040   31.6370 C   0  0  0  0  0  0  0  0  0  0  0  0
   22.6160    5.5540   31.1280 C   0  0  0  0  0  0  0  0  0  0  0  0
   23.5070    5.8690   30.1230 C   0  0  0  0  0  0  0  0  0  0  0  0
   23.6460    7.1570   29.6690 C   0  0  0  0  0  0  0  0  0  0  0  0
   22.4630    4.1580   31.6240 C   0  0  0  0  0  0  0  0  0  0  0  0
   23.7650   14.0970   30.9960 C   0  0  0  0  0  0  0  0  0  0  0  0
   22.8650   14.4380   29.8420 C   0  0  0  0  0  0  0  0  0  0  0  0
   21.5870   14.9370   30.1980 N   0  0  0  0  0  4  0  0  0  0  0  0
   20.9530   14.3060   31.3180 C   0  0  0  0  0  0  0  0  0  0  0  0
   21.2420   14.9590   32.6420 C   0  0  0  0  0  0  0  0  0  0  0  0
   21.2250   16.3350   32.5990 O   0  0  0  0  0  0  0  0  0  0  0  0
   22.0990   16.8400   31.6650 C   0  0  0  0  0  0  0  0  0  0  0  0
   21.6430   16.3730   30.3080 C   0  0  0  0  0  0  0  0  0  0  0  0
   26.0960   10.0060   29.7260 H   0  0  0  0  0  0  0  0  0  0  0  0
   25.0010   13.6930   27.9690 H   0  0  0  0  0  0  0  0  0  0  0  0
   27.1010   13.7210   26.7360 H   0  0  0  0  0  0  0  0  0  0  0  0
   28.7090   11.8800   27.0000 H   0  0  0  0  0  0  0  0  0  0  0  0
   23.2860   12.1990   29.0460 H   0  0  0  0  0  0  0  0  0  0  0  0
   21.4420    8.7190   31.6360 H   0  0  0  0  0  0  0  0  0  0  0  0
   21.1780    6.3860   32.4280 H   0  0  0  0  0  0  0  0  0  0  0  0
   24.0940    5.0400   29.7130 H   0  0  0  0  0  0  0  0  0  0  0  0
   24.3670    7.3360   28.8750 H   0  0  0  0  0  0  0  0  0  0  0  0
   21.4140    3.9570   31.9720 H   0  0  0  0  0  0  0  0  0  0  0  0
   22.6000    3.4480   30.7570 H   0  0  0  0  0  0  0  0  0  0  0  0
   23.2010    3.8820   32.3770 H   0  0  0  0  0  0  0  0  0  0  0  0
   23.1780   14.2480   31.9300 H   0  0  0  0  0  0  0  0  0  0  0  0
   24.7250   14.6170   30.9900 H   0  0  0  0  0  0  0  0  0  0  0  0
   22.8150   13.5070   29.2040 H   0  0  0  0  0  0  0  0  0  0  0  0
   23.4220   15.1710   29.2070 H   0  0  0  0  0  0  0  0  0  0  0  0
   20.9520   14.7640   29.3610 H   0  0  0  0  0  0  0  0  0  0  0  0
   21.2360   13.2390   31.4170 H   0  0  0  0  0  0  0  0  0  0  0  0
   19.8470   14.3100   31.2000 H   0  0  0  0  0  0  0  0  0  0  0  0
   20.4460   14.6460   33.3680 H   0  0  0  0  0  0  0  0  0  0  0  0
   22.1930   14.6330   33.0970 H   0  0  0  0  0  0  0  0  0  0  0  0
   23.1590   16.5980   31.8710 H   0  0  0  0  0  0  0  0  0  0  0  0
   22.0170   17.9460   31.6760 H   0  0  0  0  0  0  0  0  0  0  0  0
   22.3180   16.7280   29.4910 H   0  0  0  0  0  0  0  0  0  0  0  0
   20.6510   16.8280   30.1080 H   0  0  0  0  0  0  0  0  0  0  0  0
  2  1  1  0  0  0  0
  2  3  1  0  0  0  0
  3 32  1  0  0  0  0
  4  3  2  0  0  0  0
  4  8  1  0  0  0  0
  5  4  1  0  0  0  0
  6  7  1  0  0  0  0
  6  5  2  0  0  0  0
  7  2  2  0  0  0  0
  8 36  1  6  0  0  0
  8 14  1  0  0  0  0
  8  9  1  0  0  0  0
  9 24  1  0  0  0  0
  9 10  1  0  0  0  0
 10 11  2  0  0  0  0
 12 10  1  0  0  0  0
 12 13  2  0  0  0  0
 14 12  1  0  0  0  0
 15 17  1  0  0  0  0
 15 14  2  0  0  0  0
 16 15  1  0  0  0  0
 17 18  1  0  0  0  0
 18 37  1  0  0  0  0
 18 19  2  0  0  0  0
 19 38  1  0  0  0  0
 20 23  1  0  0  0  0
 20 19  1  0  0  0  0
 21 20  2  0  0  0  0
 22 21  1  0  0  0  0
 22 17  2  0  0  0  0
 23 41  1  0  0  0  0
 23 43  1  0  0  0  0
 24 44  1  0  0  0  0
 25 26  1  0  0  0  0
 25 24  1  0  0  0  0
 26 31  1  0  0  0  0
 26 27  1  0  0  0  0
 27 49  1  0  0  0  0
 27 28  1  0  0  0  0
 28 52  1  0  0  0  0
 28 51  1  0  0  0  0
 29 28  1  0  0  0  0
 30 54  1  0  0  0  0
 30 53  1  0  0  0  0
 30 29  1  0  0  0  0
 31 30  1  0  0  0  0
 33  5  1  0  0  0  0
 34  6  1  0  0  0  0
 35  7  1  0  0  0  0
 39 21  1  0  0  0  0
 40 22  1  0  0  0  0
 42 23  1  0  0  0  0
 45 24  1  0  0  0  0
 46 25  1  0  0  0  0
 47 25  1  0  0  0  0
 48 26  1  0  0  0  0
 50 27  1  0  0  0  0
 55 31  1  0  0  0  0
 56 31  1  0  0  0  0
M  END
>  <Pose>
1

>  <Score>
-6.22

$$$$
