
 OpenBabel03202209553D

 53 56  0  0  1  0  0  0  0  0999 V2000
   29.3740   13.3040   28.0240 B   0  0  0  0  0  0  0  0  0  0  0  0
   28.3640   11.7170   28.3990 C   0  0  0  0  0  0  0  0  0  0  0  0
   26.9940   11.7640   28.6070 C   0  0  0  0  0  0  0  0  0  0  0  0
   26.2400   10.6440   28.8800 C   0  0  0  0  0  0  0  0  0  0  0  0
   26.9010    9.4320   28.9440 C   0  0  0  0  0  0  0  0  0  0  0  0
   28.2810    9.3670   28.7380 C   0  0  0  0  0  0  0  0  0  0  0  0
   29.0180   10.5040   28.4650 C   0  0  0  0  0  0  0  0  0  0  0  0
   24.7670   10.7550   29.0950 C   0  0  2  0  0  0  0  0  0  0  0  0
   24.4570   11.7190   30.1390 N   0  0  0  0  0  0  0  0  0  0  0  0
   24.8190   11.0170   31.3520 C   0  0  0  0  0  0  0  0  0  0  0  0
   25.1400   11.5330   32.4440 O   0  0  0  0  0  0  0  0  0  0  0  0
   24.7530    9.5840   31.1000 C   0  0  0  0  0  0  0  0  0  0  0  0
   24.9830    8.6000   31.8490 O   0  0  0  0  0  0  0  0  0  0  0  0
   24.3400    9.4430   29.7040 C   0  0  0  0  0  0  0  0  0  0  0  0
   23.7690    8.4370   29.1060 C   0  0  0  0  0  0  0  0  0  0  0  0
   23.5060    8.5490   27.7240 O   0  0  0  0  0  0  0  0  0  0  0  0
   23.4120    7.2400   29.8450 C   0  0  0  0  0  0  0  0  0  0  0  0
   22.1790    6.8510   30.0330 O   0  0  0  0  0  0  0  0  0  0  0  0
   22.1310    5.7500   30.7310 C   0  0  0  0  0  0  0  0  0  0  0  0
   23.4080    5.3800   31.0270 C   0  0  0  0  0  0  0  0  0  0  0  0
   24.2460    6.3450   30.4560 C   0  0  0  0  0  0  0  0  0  0  0  0
   23.9400   13.0610   30.0760 C   0  0  0  0  0  0  0  0  0  0  0  0
   22.4540   13.1560   30.3320 C   0  0  0  0  0  0  0  0  0  0  0  0
   22.2170   13.7040   31.6830 C   0  0  0  0  0  0  0  0  0  0  0  0
   21.3270   14.8420   31.7370 N   0  0  0  0  0  4  0  0  0  0  0  0
   21.6360   15.7360   32.8290 C   0  0  0  0  0  0  0  0  0  0  0  0
   22.4950   16.8940   32.4660 C   0  0  0  0  0  0  0  0  0  0  0  0
   22.1980   17.5020   31.2640 O   0  0  0  0  0  0  0  0  0  0  0  0
   22.0800   16.6140   30.2040 C   0  0  0  0  0  0  0  0  0  0  0  0
   21.1020   15.5060   30.4980 C   0  0  0  0  0  0  0  0  0  0  0  0
   26.4820   12.7230   28.5540 H   0  0  0  0  0  0  0  0  0  0  0  0
   26.3230    8.5480   29.1570 H   0  0  0  0  0  0  0  0  0  0  0  0
   28.7810    8.4190   28.7910 H   0  0  0  0  0  0  0  0  0  0  0  0
   30.0880   10.4830   28.3010 H   0  0  0  0  0  0  0  0  0  0  0  0
   24.2070   10.8720   28.1750 H   0  0  0  0  0  0  0  0  0  0  0  0
   21.2050    5.2410   31.0090 H   0  0  0  0  0  0  0  0  0  0  0  0
   23.7150    4.5200   31.5880 H   0  0  0  0  0  0  0  0  0  0  0  0
   25.3190    6.3240   30.5340 H   0  0  0  0  0  0  0  0  0  0  0  0
   24.4420   13.6870   30.8740 H   0  0  0  0  0  0  0  0  0  0  0  0
   24.2260   13.5780   29.1280 H   0  0  0  0  0  0  0  0  0  0  0  0
   22.0210   12.1300   30.2880 H   0  0  0  0  0  0  0  0  0  0  0  0
   22.0730   13.7960   29.5040 H   0  0  0  0  0  0  0  0  0  0  0  0
   23.1590   14.0590   32.1770 H   0  0  0  0  0  0  0  0  0  0  0  0
   21.8180   12.9000   32.3330 H   0  0  0  0  0  0  0  0  0  0  0  0
   20.3850   14.4150   32.0090 H   0  0  0  0  0  0  0  0  0  0  0  0
   20.7080   16.1200   33.3120 H   0  0  0  0  0  0  0  0  0  0  0  0
   22.1590   15.1430   33.6110 H   0  0  0  0  0  0  0  0  0  0  0  0
   22.3360   17.6860   33.2590 H   0  0  0  0  0  0  0  0  0  0  0  0
   23.5990   16.6700   32.5560 H   0  0  0  0  0  0  0  0  0  0  0  0
   21.6460   17.1990   29.3510 H   0  0  0  0  0  0  0  0  0  0  0  0
   23.0270   16.2010   29.8480 H   0  0  0  0  0  0  0  0  0  0  0  0
   20.0880   16.0110   30.5260 H   0  0  0  0  0  0  0  0  0  0  0  0
   21.0480   14.8160   29.6610 H   0  0  0  0  0  0  0  0  0  0  0  0
  1  2  1  0  0  0  0
  2  7  2  0  0  0  0
  2  3  1  0  0  0  0
  3  4  2  0  0  0  0
  4  5  1  0  0  0  0
  4  8  1  0  0  0  0
  5 32  1  0  0  0  0
  6 33  1  0  0  0  0
  6  5  2  0  0  0  0
  7  6  1  0  0  0  0
  8 35  1  6  0  0  0
  8 14  1  0  0  0  0
  8  9  1  0  0  0  0
  9 10  1  0  0  0  0
 10 11  2  0  0  0  0
 12 10  1  0  0  0  0
 12 13  2  0  0  0  0
 14 12  1  0  0  0  0
 15 14  2  0  0  0  0
 15 17  1  0  0  0  0
 16 15  1  0  0  0  0
 17 18  1  0  0  0  0
 17 21  2  0  0  0  0
 18 19  1  0  0  0  0
 19 36  1  0  0  0  0
 19 20  2  0  0  0  0
 20 37  1  0  0  0  0
 21 38  1  0  0  0  0
 21 20  1  0  0  0  0
 22  9  1  0  0  0  0
 22 23  1  0  0  0  0
 22 39  1  0  0  0  0
 23 24  1  0  0  0  0
 24 25  1  0  0  0  0
 24 43  1  0  0  0  0
 24 44  1  0  0  0  0
 25 45  1  0  0  0  0
 25 26  1  0  0  0  0
 26 46  1  0  0  0  0
 26 47  1  0  0  0  0
 27 49  1  0  0  0  0
 27 26  1  0  0  0  0
 27 48  1  0  0  0  0
 28 27  1  0  0  0  0
 29 30  1  0  0  0  0
 29 28  1  0  0  0  0
 30 52  1  0  0  0  0
 30 25  1  0  0  0  0
 31  3  1  0  0  0  0
 34  7  1  0  0  0  0
 40 22  1  0  0  0  0
 41 23  1  0  0  0  0
 42 23  1  0  0  0  0
 50 29  1  0  0  0  0
 51 29  1  0  0  0  0
 53 30  1  0  0  0  0
M  END
>  <Pose>
1

>  <Score>
-5.17

$$$$
