
 OpenBabel03202209553D

 58 61  0  0  1  0  0  0  0  0999 V2000
   26.7960   15.4550   26.4570 B   0  0  0  0  0  0  0  0  0  0  0  0
   26.6590   13.8600   27.5270 C   0  0  0  0  0  0  0  0  0  0  0  0
   25.5010   13.5720   28.1910 C   0  0  0  0  0  0  0  0  0  0  0  0
   25.3340   12.4350   28.9840 C   0  0  0  0  0  0  0  0  0  0  0  0
   26.4320   11.6060   29.0580 C   0  0  0  0  0  0  0  0  0  0  0  0
   27.6180   11.8900   28.3860 C   0  0  0  0  0  0  0  0  0  0  0  0
   27.7260   13.0170   27.6230 C   0  0  0  0  0  0  0  0  0  0  0  0
   24.0540   12.1610   29.6850 C   0  0  2  0  0  0  0  0  0  0  0  0
   23.9630   12.7910   30.9860 N   0  0  0  0  0  0  0  0  0  0  0  0
   24.6210   11.8910   31.9030 C   0  0  0  0  0  0  0  0  0  0  0  0
   25.1110   12.2110   33.0130 O   0  0  0  0  0  0  0  0  0  0  0  0
   24.5950   10.5640   31.2800 C   0  0  0  0  0  0  0  0  0  0  0  0
   25.0550    9.4810   31.7250 O   0  0  0  0  0  0  0  0  0  0  0  0
   23.9190   10.6890   29.9930 C   0  0  0  0  0  0  0  0  0  0  0  0
   23.3490    9.7310   29.2820 C   0  0  0  0  0  0  0  0  0  0  0  0
   22.7750   10.0420   28.0750 O   0  0  0  0  0  0  0  0  0  0  0  0
   23.3130    8.3360   29.7610 C   0  0  0  0  0  0  0  0  0  0  0  0
   22.3000    7.7620   30.3490 O   0  0  0  0  0  0  0  0  0  0  0  0
   22.5180    6.5310   30.6730 C   0  0  0  0  0  0  0  0  0  0  0  0
   23.7980    6.2370   30.2710 C   0  0  0  0  0  0  0  0  0  0  0  0
   24.3010    7.3830   29.6930 C   0  0  0  0  0  0  0  0  0  0  0  0
   24.2800    4.9680   30.5070 C   0  0  0  0  0  0  0  0  0  0  0  0
   23.5130    4.0040   31.1310 C   0  0  0  0  0  0  0  0  0  0  0  0
   22.2150    4.3480   31.5220 C   0  0  0  0  0  0  0  0  0  0  0  0
   21.7020    5.6010   31.3040 C   0  0  0  0  0  0  0  0  0  0  0  0
   20.4230    5.8970   31.7020 O   0  0  0  0  0  0  0  0  0  0  0  0
   20.0470    6.6710   32.7960 C   0  0  0  0  0  0  0  0  0  0  0  0
   23.3700   14.0600   31.3320 C   0  0  0  0  0  0  0  0  0  0  0  0
   21.8850   13.9320   31.5710 C   0  0  0  0  0  0  0  0  0  0  0  0
   21.1170   13.3120   30.4600 C   0  0  0  0  0  0  0  0  0  0  0  0
   19.8580   13.9260   30.1770 N   0  0  0  0  0  4  0  0  0  0  0  0
   19.6890   15.1490   30.9680 C   0  0  0  0  0  0  0  0  0  0  0  0
   18.7480   13.0530   30.4060 C   0  0  0  0  0  0  0  0  0  0  0  0
   24.6410   14.2250   28.1310 H   0  0  0  0  0  0  0  0  0  0  0  0
   26.4240   10.7150   29.6280 H   0  0  0  0  0  0  0  0  0  0  0  0
   28.4820   11.2400   28.4440 H   0  0  0  0  0  0  0  0  0  0  0  0
   28.6280   13.2900   27.0770 H   0  0  0  0  0  0  0  0  0  0  0  0
   23.2530   12.5150   29.0040 H   0  0  0  0  0  0  0  0  0  0  0  0
   25.2810    7.5100   29.2670 H   0  0  0  0  0  0  0  0  0  0  0  0
   25.2870    4.7460   30.1890 H   0  0  0  0  0  0  0  0  0  0  0  0
   23.9090    3.0150   31.3070 H   0  0  0  0  0  0  0  0  0  0  0  0
   21.6520    3.5420   32.0130 H   0  0  0  0  0  0  0  0  0  0  0  0
   20.7110    6.5830   33.6770 H   0  0  0  0  0  0  0  0  0  0  0  0
   18.9930    6.4900   33.1140 H   0  0  0  0  0  0  0  0  0  0  0  0
   20.1000    7.7410   32.4910 H   0  0  0  0  0  0  0  0  0  0  0  0
   23.8490   14.4540   32.2510 H   0  0  0  0  0  0  0  0  0  0  0  0
   23.5090   14.7390   30.4640 H   0  0  0  0  0  0  0  0  0  0  0  0
   21.7120   13.3250   32.5120 H   0  0  0  0  0  0  0  0  0  0  0  0
   21.4710   14.9430   31.8540 H   0  0  0  0  0  0  0  0  0  0  0  0
   20.9850   12.2330   30.7230 H   0  0  0  0  0  0  0  0  0  0  0  0
   21.7460   13.3420   29.5340 H   0  0  0  0  0  0  0  0  0  0  0  0
   19.7880   14.2610   29.1730 H   0  0  0  0  0  0  0  0  0  0  0  0
   18.9040   15.7610   30.4890 H   0  0  0  0  0  0  0  0  0  0  0  0
   19.4900   14.9330   32.0300 H   0  0  0  0  0  0  0  0  0  0  0  0
   20.6540   15.7290   30.9590 H   0  0  0  0  0  0  0  0  0  0  0  0
   18.8320   12.1730   29.7390 H   0  0  0  0  0  0  0  0  0  0  0  0
   18.7180   12.7000   31.4570 H   0  0  0  0  0  0  0  0  0  0  0  0
   17.8020   13.6230   30.2080 H   0  0  0  0  0  0  0  0  0  0  0  0
  1  2  1  0  0  0  0
  2  7  2  0  0  0  0
  2  3  1  0  0  0  0
  3  4  2  0  0  0  0
  4  5  1  0  0  0  0
  4  8  1  0  0  0  0
  5 35  1  0  0  0  0
  6 36  1  0  0  0  0
  6  5  2  0  0  0  0
  7  6  1  0  0  0  0
  8 38  1  6  0  0  0
  8 14  1  0  0  0  0
  8  9  1  0  0  0  0
  9 28  1  0  0  0  0
  9 10  1  0  0  0  0
 10 11  2  0  0  0  0
 12 13  2  0  0  0  0
 12 10  1  0  0  0  0
 14 12  1  0  0  0  0
 15 17  1  0  0  0  0
 15 14  2  0  0  0  0
 16 15  1  0  0  0  0
 17 18  1  0  0  0  0
 18 19  1  0  0  0  0
 19 25  1  0  0  0  0
 20 22  1  0  0  0  0
 20 19  2  0  0  0  0
 21 17  2  0  0  0  0
 21 20  1  0  0  0  0
 22 23  2  0  0  0  0
 23 41  1  0  0  0  0
 23 24  1  0  0  0  0
 24 42  1  0  0  0  0
 25 24  2  0  0  0  0
 25 26  1  0  0  0  0
 26 27  1  0  0  0  0
 27 44  1  0  0  0  0
 27 43  1  0  0  0  0
 28 29  1  0  0  0  0
 28 46  1  0  0  0  0
 29 49  1  0  0  0  0
 29 48  1  0  0  0  0
 30 50  1  0  0  0  0
 30 29  1  0  0  0  0
 31 33  1  0  0  0  0
 31 30  1  0  0  0  0
 31 32  1  0  0  0  0
 32 54  1  0  0  0  0
 33 57  1  0  0  0  0
 34  3  1  0  0  0  0
 37  7  1  0  0  0  0
 39 21  1  0  0  0  0
 40 22  1  0  0  0  0
 45 27  1  0  0  0  0
 47 28  1  0  0  0  0
 51 30  1  0  0  0  0
 52 31  1  0  0  0  0
 53 32  1  0  0  0  0
 55 32  1  0  0  0  0
 56 33  1  0  0  0  0
 58 33  1  0  0  0  0
M  END
>  <Pose>
1

>  <Score>
-6.79

$$$$
