
 OpenBabel03202209553D

 38 41  0  0  0  0  0  0  0  0999 V2000
   18.3500    7.7780   33.2110 B   0  0  0  0  0  0  0  0  0  0  0  0
   20.0100    7.4980   32.3160 C   0  0  0  0  0  0  0  0  0  0  0  0
   20.6930    8.5640   31.7220 C   0  0  0  0  0  0  0  0  0  0  0  0
   21.8900    8.3600   31.0790 C   0  0  0  0  0  0  0  0  0  0  0  0
   22.3920    7.0780   31.0380 C   0  0  0  0  0  0  0  0  0  0  0  0
   21.7180    6.0030   31.6280 C   0  0  0  0  0  0  0  0  0  0  0  0
   20.5200    6.2190   32.2710 C   0  0  0  0  0  0  0  0  0  0  0  0
   22.6290    9.4180   30.4530 N   0  0  0  0  0  0  0  0  0  0  0  0
   23.0690    9.5100   29.2260 N   0  0  0  0  0  0  0  0  0  0  0  0
   23.7090   10.6530   29.0440 N   0  0  0  0  0  0  0  0  0  0  0  0
   23.6860   11.3440   30.2100 C   0  0  0  0  0  0  0  0  0  0  0  0
   22.9950   10.5430   31.0910 C   0  0  0  0  0  0  0  0  0  0  0  0
   24.2620   12.6530   30.4870 C   0  0  0  0  0  0  0  0  0  0  0  0
   24.2230   13.0820   31.6670 O   0  0  0  0  0  0  0  0  0  0  0  0
   24.8590   13.4530   29.4910 N   0  0  0  0  0  0  0  0  0  0  0  0
   24.1720   13.9510   28.3210 C   0  0  0  0  0  0  0  0  0  0  0  0
   23.4440   15.2320   28.6250 C   0  0  0  0  0  0  0  0  0  0  0  0
   23.3290   16.3360   27.8470 N   0  0  0  0  0  0  0  0  0  0  0  0
   22.5970   17.2560   28.4830 C   0  0  0  0  0  0  0  0  0  0  0  0
   22.2590   16.7040   29.6740 N   0  0  0  0  0  0  0  0  0  0  0  0
   22.7670   15.4910   29.7580 N   0  0  0  0  0  0  0  0  0  0  0  0
   22.4470   18.5020   27.6470 C   0  0  0  0  0  0  0  0  0  0  0  0
   23.5710   18.3150   26.6510 C   0  0  0  0  0  0  0  0  0  0  0  0
   23.7620   16.8140   26.5450 C   0  0  0  0  0  0  0  0  0  0  0  0
   20.2990    9.5670   31.7550 H   0  0  0  0  0  0  0  0  0  0  0  0
   23.3300    6.9100   30.5340 H   0  0  0  0  0  0  0  0  0  0  0  0
   22.1240    4.9890   31.5910 H   0  0  0  0  0  0  0  0  0  0  0  0
   19.9940    5.3920   32.7300 H   0  0  0  0  0  0  0  0  0  0  0  0
   22.7890   10.7910   32.1270 H   0  0  0  0  0  0  0  0  0  0  0  0
   25.8670   13.7020   29.6060 H   0  0  0  0  0  0  0  0  0  0  0  0
   24.8750   14.0900   27.4800 H   0  0  0  0  0  0  0  0  0  0  0  0
   23.3650   13.2160   28.0340 H   0  0  0  0  0  0  0  0  0  0  0  0
   22.5560   19.3950   28.2670 H   0  0  0  0  0  0  0  0  0  0  0  0
   21.4800   18.4620   27.0860 H   0  0  0  0  0  0  0  0  0  0  0  0
   23.3030   18.6670   25.6370 H   0  0  0  0  0  0  0  0  0  0  0  0
   24.4630   18.8250   27.0710 H   0  0  0  0  0  0  0  0  0  0  0  0
   23.2000   16.3830   25.7020 H   0  0  0  0  0  0  0  0  0  0  0  0
   24.8390   16.6320   26.3580 H   0  0  0  0  0  0  0  0  0  0  0  0
  2  1  1  0  0  0  0
  3 25  1  0  0  0  0
  3  2  2  0  0  0  0
  4  3  1  0  0  0  0
  5  4  2  0  0  0  0
  5  6  1  0  0  0  0
  6  7  2  0  0  0  0
  7  2  1  0  0  0  0
  7 28  1  0  0  0  0
  8  4  1  0  0  0  0
  8 12  1  0  0  0  0
  9  8  1  0  0  0  0
 10  9  2  0  0  0  0
 10 11  1  0  0  0  0
 11 13  1  0  0  0  0
 11 12  2  0  0  0  0
 12 29  1  0  0  0  0
 13 14  2  0  0  0  0
 15 30  1  0  0  0  0
 15 13  1  0  0  0  0
 16 17  1  0  0  0  0
 16 15  1  0  0  0  0
 17 21  2  0  0  0  0
 18 19  1  0  0  0  0
 18 17  1  0  0  0  0
 19 20  2  0  0  0  0
 20 21  1  0  0  0  0
 22 33  1  0  0  0  0
 22 19  1  0  0  0  0
 23 36  1  0  0  0  0
 23 22  1  0  0  0  0
 24 23  1  0  0  0  0
 24 18  1  0  0  0  0
 26  5  1  0  0  0  0
 27  6  1  0  0  0  0
 31 16  1  0  0  0  0
 32 16  1  0  0  0  0
 34 22  1  0  0  0  0
 35 23  1  0  0  0  0
 37 24  1  0  0  0  0
 38 24  1  0  0  0  0
M  END
>  <Pose>
1

>  <Score>
-7.33

$$$$
