
 OpenBabel03202209553D

 37 40  0  0  1  0  0  0  0  0999 V2000
   22.6770    6.6630   30.4890 B   0  0  0  0  0  0  0  0  0  0  0  0
   22.3740    8.4920   30.9370 C   0  0  0  0  0  0  0  0  0  0  0  0
   22.9560    9.5290   30.2520 C   0  0  0  0  0  0  0  0  0  0  0  0
   22.7500   10.8730   30.5560 C   0  0  0  0  0  0  0  0  0  0  0  0
   21.8980   11.1170   31.6220 C   0  0  0  0  0  0  0  0  0  0  0  0
   21.3110   10.0860   32.3150 C   0  0  0  0  0  0  0  0  0  0  0  0
   21.5280    8.7490   31.9960 C   0  0  0  0  0  0  0  0  0  0  0  0
   23.3720   11.9090   29.8240 N   0  0  0  0  0  0  0  0  0  0  0  0
   24.7430   12.0300   29.3940 C   0  0  0  0  0  0  0  0  0  0  0  0
   25.7020   11.4070   29.9300 O   0  0  0  0  0  0  0  0  0  0  0  0
   24.8130   12.9620   28.2700 C   0  0  2  0  0  0  0  0  0  0  0  0
   25.9060   13.7780   28.1790 O   0  0  0  0  0  0  0  0  0  0  0  0
   25.3600   14.9390   27.6360 N   0  0  0  0  0  0  0  0  0  0  0  0
   24.1000   15.1480   28.2280 C   0  0  0  0  0  0  0  0  0  0  0  0
   23.7200   13.9330   28.6480 C   0  0  0  0  0  0  0  0  0  0  0  0
   22.7410   13.1110   29.3480 C   0  0  0  0  0  0  0  0  0  0  0  0
   21.5380   13.4060   29.5120 O   0  0  0  0  0  0  0  0  0  0  0  0
   23.3230   16.3730   28.3320 C   0  0  0  0  0  0  0  0  0  0  0  0
   23.2760   17.3700   27.3530 C   0  0  0  0  0  0  0  0  0  0  0  0
   22.4580   18.3190   27.7640 N   0  0  0  0  0  0  0  0  0  0  0  0
   21.9820   17.9750   28.9580 N   0  0  0  0  0  0  0  0  0  0  0  0
   22.4890   16.8100   29.3230 C   0  0  0  0  0  0  0  0  0  0  0  0
   22.1180   19.5510   27.0540 C   0  0  0  0  0  0  0  0  0  0  0  0
   24.0350   17.3810   26.0810 C   0  0  0  0  0  0  0  0  0  0  0  0
   23.6270    9.3380   29.4210 H   0  0  0  0  0  0  0  0  0  0  0  0
   21.7080   12.1500   31.8960 H   0  0  0  0  0  0  0  0  0  0  0  0
   20.6330   10.2500   33.1640 H   0  0  0  0  0  0  0  0  0  0  0  0
   21.0630    7.9500   32.5480 H   0  0  0  0  0  0  0  0  0  0  0  0
   24.5670   12.4660   27.3040 H   0  0  0  0  0  0  0  0  0  0  0  0
   25.8020   15.5390   26.9280 H   0  0  0  0  0  0  0  0  0  0  0  0
   22.2860   16.2850   30.2380 H   0  0  0  0  0  0  0  0  0  0  0  0
   21.0050   19.6410   26.9740 H   0  0  0  0  0  0  0  0  0  0  0  0
   22.5450   20.4510   27.5290 H   0  0  0  0  0  0  0  0  0  0  0  0
   22.5220   19.4800   26.0140 H   0  0  0  0  0  0  0  0  0  0  0  0
   24.8130   16.5780   26.0680 H   0  0  0  0  0  0  0  0  0  0  0  0
   23.3060   17.2990   25.2570 H   0  0  0  0  0  0  0  0  0  0  0  0
   24.5290   18.3670   26.0230 H   0  0  0  0  0  0  0  0  0  0  0  0
  1  2  1  0  0  0  0
  2  7  1  0  0  0  0
  3  4  1  0  0  0  0
  3  2  2  0  0  0  0
  4  5  2  0  0  0  0
  5 26  1  0  0  0  0
  5  6  1  0  0  0  0
  6 27  1  0  0  0  0
  7  6  2  0  0  0  0
  7 28  1  0  0  0  0
  8  4  1  0  0  0  0
  9  8  1  0  0  0  0
  9 10  2  0  0  0  0
 11 29  1  6  0  0  0
 11 15  1  0  0  0  0
 11  9  1  0  0  0  0
 12 11  1  0  0  0  0
 13 12  1  0  0  0  0
 13 14  1  0  0  0  0
 14 18  1  0  0  0  0
 14 15  2  0  0  0  0
 15 16  1  0  0  0  0
 16 17  2  0  0  0  0
 16  8  1  0  0  0  0
 18 22  1  0  0  0  0
 19 20  1  0  0  0  0
 19 18  2  0  0  0  0
 20 21  1  0  0  0  0
 21 22  2  0  0  0  0
 22 31  1  0  0  0  0
 23 33  1  0  0  0  0
 23 20  1  0  0  0  0
 24 19  1  0  0  0  0
 25  3  1  0  0  0  0
 30 13  1  0  0  0  0
 32 23  1  0  0  0  0
 34 23  1  0  0  0  0
 35 24  1  0  0  0  0
 36 24  1  0  0  0  0
 37 24  1  0  0  0  0
M  END
>  <Pose>
1

>  <Score>
-6.42

$$$$
