
 OpenBabel03202209553D

 33 36  0  0  1  0  0  0  0  0999 V2000
   22.9280    5.7840   30.4590 B   0  0  0  0  0  0  0  0  0  0  0  0
   22.0250    7.2560   31.2740 C   0  0  0  0  0  0  0  0  0  0  0  0
   22.5770    8.4960   31.2310 C   0  0  0  0  0  0  0  0  0  0  0  0
   22.0080    9.6310   31.7870 C   0  0  0  0  0  0  0  0  0  0  0  0
   20.8000    9.4560   32.4220 C   0  0  0  0  0  0  0  0  0  0  0  0
   20.2060    8.1940   32.4850 C   0  0  0  0  0  0  0  0  0  0  0  0
   20.8120    7.0940   31.9140 C   0  0  0  0  0  0  0  0  0  0  0  0
   22.6480   10.9260   31.7080 N   0  0  0  0  0  0  0  0  0  0  0  0
   24.0450   11.1820   31.6910 C   0  0  0  0  0  0  0  0  0  0  0  0
   24.9370   10.4080   32.2000 O   0  0  0  0  0  0  0  0  0  0  0  0
   24.2890   12.4580   31.0040 C   0  0  1  0  0  0  0  0  0  0  0  0
   24.5550   12.1710   29.5580 C   0  0  1  0  0  0  0  0  0  0  0  0
   23.2550   11.7760   29.1510 O   0  0  0  0  0  0  0  0  0  0  0  0
   22.6140   13.0050   29.4630 C   0  0  1  0  0  0  0  0  0  0  0  0
   22.9340   13.1040   30.9440 C   0  0  1  0  0  0  0  0  0  0  0  0
   22.0050   12.1880   31.6360 C   0  0  0  0  0  0  0  0  0  0  0  0
   20.8630   12.4870   32.0710 O   0  0  0  0  0  0  0  0  0  0  0  0
   23.4580   13.9360   28.6810 C   0  0  0  0  0  0  0  0  0  0  0  0
   24.6910   13.3950   28.7230 C   0  0  0  0  0  0  0  0  0  0  0  0
   25.5890   11.1450   29.2920 C   0  0  0  0  0  0  0  0  0  0  0  0
   26.8190   11.6200   29.7500 O   0  0  0  0  0  0  0  0  0  0  0  0
   23.5400    8.6220   30.7220 H   0  0  0  0  0  0  0  0  0  0  0  0
   20.2950   10.2860   32.8800 H   0  0  0  0  0  0  0  0  0  0  0  0
   19.2580    8.0240   32.9750 H   0  0  0  0  0  0  0  0  0  0  0  0
   20.4000    6.1040   31.9340 H   0  0  0  0  0  0  0  0  0  0  0  0
   25.0610   13.0900   31.4800 H   0  0  0  0  0  0  0  0  0  0  0  0
   21.5660   13.0100   29.2260 H   0  0  0  0  0  0  0  0  0  0  0  0
   22.9090   14.1340   31.3270 H   0  0  0  0  0  0  0  0  0  0  0  0
   23.1850   14.8520   28.1750 H   0  0  0  0  0  0  0  0  0  0  0  0
   25.5740   13.7990   28.2350 H   0  0  0  0  0  0  0  0  0  0  0  0
   25.4090   10.1960   29.8360 H   0  0  0  0  0  0  0  0  0  0  0  0
   25.6820   10.9100   28.2280 H   0  0  0  0  0  0  0  0  0  0  0  0
   26.7540   12.5810   29.9750 H   0  0  0  0  0  0  0  0  0  0  0  0
  1  2  1  0  0  0  0
  2  7  1  0  0  0  0
  3  2  2  0  0  0  0
  3  4  1  0  0  0  0
  4  5  2  0  0  0  0
  5  6  1  0  0  0  0
  5 23  1  0  0  0  0
  6 24  1  0  0  0  0
  7 25  1  0  0  0  0
  7  6  2  0  0  0  0
  8  4  1  0  0  0  0
  9  8  1  0  0  0  0
  9 10  2  0  0  0  0
 11 26  1  1  0  0  0
 11  9  1  0  0  0  0
 12 20  1  6  0  0  0
 12 11  1  0  0  0  0
 13 14  1  0  0  0  0
 13 12  1  0  0  0  0
 14 27  1  6  0  0  0
 14 15  1  0  0  0  0
 15 11  1  0  0  0  0
 15 28  1  1  0  0  0
 15 16  1  0  0  0  0
 16  8  1  0  0  0  0
 16 17  2  0  0  0  0
 18 19  2  0  0  0  0
 18 14  1  0  0  0  0
 19 12  1  0  0  0  0
 20 21  1  0  0  0  0
 20 31  1  0  0  0  0
 21 33  1  0  0  0  0
 22  3  1  0  0  0  0
 29 18  1  0  0  0  0
 30 19  1  0  0  0  0
 32 20  1  0  0  0  0
M  END
>  <Pose>
1

>  <Score>
-5.40

$$$$
