
 OpenBabel03202209553D

 45 48  0  0  1  0  0  0  0  0999 V2000
   22.0530   20.2890   26.5170 B   0  0  0  0  0  0  0  0  0  0  0  0
   23.1920   18.7680   26.3340 C   0  0  0  0  0  0  0  0  0  0  0  0
   23.0410   17.6510   27.1100 C   0  0  0  0  0  0  0  0  0  0  0  0
   23.8660   16.5170   26.9970 C   0  0  0  0  0  0  0  0  0  0  0  0
   24.8700   16.6160   26.0130 C   0  0  0  0  0  0  0  0  0  0  0  0
   25.0240   17.7350   25.2320 C   0  0  0  0  0  0  0  0  0  0  0  0
   24.1830   18.8180   25.3910 C   0  0  0  0  0  0  0  0  0  0  0  0
   23.6720   15.5020   27.7550 O   0  0  0  0  0  0  0  0  0  0  0  0
   23.3830   14.5010   28.5210 C   0  0  0  0  0  0  0  0  0  0  0  0
   24.6040   13.6040   28.7780 C   0  0  0  0  0  0  0  0  0  0  0  0
   24.3760   12.2890   28.2610 N   0  0  0  0  0  0  0  0  0  0  0  0
   24.9840   11.1280   28.8130 C   0  0  0  0  0  0  0  0  0  0  0  0
   24.1700   10.2760   29.3120 O   0  0  0  0  0  0  0  0  0  0  0  0
   26.4380   10.8650   28.8420 C   0  0  0  0  0  0  0  0  0  0  0  0
   27.1050   11.0390   27.5810 N   0  0  0  0  0  0  0  0  0  0  0  0
   27.5780    9.9220   26.8080 C   0  0  0  0  0  0  0  0  0  0  0  0
   27.7630    8.7410   27.1950 O   0  0  0  0  0  0  0  0  0  0  0  0
   27.8190   10.3980   25.4460 C   0  0  1  0  0  0  0  0  0  0  0  0
   27.4560   11.8960   25.4230 C   0  0  2  0  0  0  0  0  0  0  0  0
   28.6120   12.5930   24.7970 C   0  0  2  0  0  0  0  0  0  0  0  0
   29.1640   11.4760   23.8850 C   0  0  0  0  0  0  0  0  0  0  0  0
   29.2680   10.4660   25.0460 C   0  0  1  0  0  0  0  0  0  0  0  0
   29.9870   11.3370   26.0360 C   0  0  0  0  0  0  0  0  0  0  0  0
   29.7120   12.6140   25.7930 C   0  0  0  0  0  0  0  0  0  0  0  0
   27.4070   12.2450   26.8660 C   0  0  0  0  0  0  0  0  0  0  0  0
   27.5890   13.3580   27.3890 O   0  0  0  0  0  0  0  0  0  0  0  0
   22.2510   17.6090   27.8640 H   0  0  0  0  0  0  0  0  0  0  0  0
   25.5050   15.7570   25.9170 H   0  0  0  0  0  0  0  0  0  0  0  0
   25.7950   17.8010   24.4820 H   0  0  0  0  0  0  0  0  0  0  0  0
   24.3160   19.6880   24.7710 H   0  0  0  0  0  0  0  0  0  0  0  0
   23.0880   14.8630   29.5690 H   0  0  0  0  0  0  0  0  0  0  0  0
   22.5200   13.8250   28.2100 H   0  0  0  0  0  0  0  0  0  0  0  0
   25.5220   14.0770   28.3890 H   0  0  0  0  0  0  0  0  0  0  0  0
   24.7100   13.6090   29.9030 H   0  0  0  0  0  0  0  0  0  0  0  0
   23.7380   12.1710   27.4450 H   0  0  0  0  0  0  0  0  0  0  0  0
   26.5480    9.7770   29.1350 H   0  0  0  0  0  0  0  0  0  0  0  0
   26.9380   11.4670   29.6590 H   0  0  0  0  0  0  0  0  0  0  0  0
   27.2410    9.8470   24.6660 H   0  0  0  0  0  0  0  0  0  0  0  0
   26.4890   12.0570   24.9190 H   0  0  0  0  0  0  0  0  0  0  0  0
   28.4230   13.5080   24.2850 H   0  0  0  0  0  0  0  0  0  0  0  0
   28.4410   11.1660   23.1320 H   0  0  0  0  0  0  0  0  0  0  0  0
   30.1630   11.7280   23.5070 H   0  0  0  0  0  0  0  0  0  0  0  0
   29.7490    9.5540   24.7880 H   0  0  0  0  0  0  0  0  0  0  0  0
   30.6410   11.0270   26.8420 H   0  0  0  0  0  0  0  0  0  0  0  0
   30.1340   13.5300   26.1760 H   0  0  0  0  0  0  0  0  0  0  0  0
  2  1  1  0  0  0  0
  2  3  1  0  0  0  0
  3 27  1  0  0  0  0
  4  3  2  0  0  0  0
  4  8  1  0  0  0  0
  5  4  1  0  0  0  0
  6  7  1  0  0  0  0
  6  5  2  0  0  0  0
  7  2  2  0  0  0  0
  8  9  1  0  0  0  0
  9 10  1  0  0  0  0
  9 31  1  0  0  0  0
 10 34  1  0  0  0  0
 11 10  1  0  0  0  0
 11 12  1  0  0  0  0
 12 14  1  0  0  0  0
 12 13  2  0  0  0  0
 14 36  1  0  0  0  0
 14 37  1  0  0  0  0
 15 14  1  0  0  0  0
 16 17  2  0  0  0  0
 16 15  1  0  0  0  0
 18 38  1  6  0  0  0
 18 16  1  0  0  0  0
 19 39  1  6  0  0  0
 19 18  1  0  0  0  0
 19 25  1  0  0  0  0
 20 40  1  6  0  0  0
 20 19  1  0  0  0  0
 20 24  1  0  0  0  0
 21 20  1  0  0  0  0
 21 22  1  0  0  0  0
 22 43  1  6  0  0  0
 22 18  1  0  0  0  0
 22 23  1  0  0  0  0
 23 44  1  0  0  0  0
 24 23  2  0  0  0  0
 24 45  1  0  0  0  0
 25 26  2  0  0  0  0
 25 15  1  0  0  0  0
 28  5  1  0  0  0  0
 29  6  1  0  0  0  0
 30  7  1  0  0  0  0
 32  9  1  0  0  0  0
 33 10  1  0  0  0  0
 35 11  1  0  0  0  0
 41 21  1  0  0  0  0
 42 21  1  0  0  0  0
M  END
>  <Pose>
1

>  <Score>
-5.77

$$$$
