
 OpenBabel03202209553D

 42 45  0  0  1  0  0  0  0  0999 V2000
   24.2830    3.7610   31.2780 B   0  0  0  0  0  0  0  0  0  0  0  0
   23.9810    5.5870   30.8550 C   0  0  0  0  0  0  0  0  0  0  0  0
   25.0550    6.4130   30.5730 C   0  0  0  0  0  0  0  0  0  0  0  0
   24.8920    7.7450   30.2610 C   0  0  0  0  0  0  0  0  0  0  0  0
   23.6350    8.3050   30.2180 C   0  0  0  0  0  0  0  0  0  0  0  0
   22.5730    7.4980   30.4950 C   0  0  0  0  0  0  0  0  0  0  0  0
   22.7190    6.1490   30.8120 C   0  0  0  0  0  0  0  0  0  0  0  0
   23.4960    9.7360   29.8800 C   0  0  0  0  0  0  0  0  0  0  0  0
   23.2320   10.0570   28.7030 O   0  0  0  0  0  0  0  0  0  0  0  0
   23.6580   10.7440   30.8640 N   0  0  0  0  0  0  0  0  0  0  0  0
   24.5340   11.8410   30.6140 C   0  0  2  0  0  0  0  0  0  0  0  0
   24.5730   12.8460   31.7420 C   0  0  0  0  0  0  0  0  0  0  0  0
   23.4260   13.6920   31.4640 N   0  0  0  0  0  0  0  0  0  0  0  0
   23.1420   13.6530   30.0430 C   0  0  1  0  0  0  0  0  0  0  0  0
   24.0040   12.6040   29.4250 C   0  0  0  0  0  0  0  0  0  0  0  0
   21.6910   13.3700   29.9080 C   0  0  0  0  0  0  0  0  0  0  0  0
   21.2200   12.5250   29.1110 O   0  0  0  0  0  0  0  0  0  0  0  0
   20.7630   14.0760   30.7110 N   0  0  0  0  0  0  0  0  0  0  0  0
   21.1150   14.6270   32.0030 C   0  0  2  0  0  0  0  0  0  0  0  0
   20.6220   16.0320   31.8550 C   0  0  0  0  0  0  0  0  0  0  0  0
   19.2900   15.8130   31.1280 C   0  0  0  0  0  0  0  0  0  0  0  0
   19.3830   14.4160   30.5050 C   0  0  0  0  0  0  0  0  0  0  0  0
   22.5720   14.5070   32.2580 C   0  0  0  0  0  0  0  0  0  0  0  0
   23.1030   15.1520   33.2260 O   0  0  0  0  0  0  0  0  0  0  0  0
   26.0600    6.0260   30.5930 H   0  0  0  0  0  0  0  0  0  0  0  0
   25.7500    8.3920   30.0400 H   0  0  0  0  0  0  0  0  0  0  0  0
   21.5820    7.8730   30.4770 H   0  0  0  0  0  0  0  0  0  0  0  0
   21.8670    5.5200   31.0290 H   0  0  0  0  0  0  0  0  0  0  0  0
   23.1500   10.7150   31.7840 H   0  0  0  0  0  0  0  0  0  0  0  0
   25.5440   11.4550   30.3810 H   0  0  0  0  0  0  0  0  0  0  0  0
   25.5100   13.4140   31.6660 H   0  0  0  0  0  0  0  0  0  0  0  0
   24.5340   12.3480   32.7060 H   0  0  0  0  0  0  0  0  0  0  0  0
   23.3200   14.6480   29.5570 H   0  0  0  0  0  0  0  0  0  0  0  0
   23.5170   11.9700   28.6850 H   0  0  0  0  0  0  0  0  0  0  0  0
   24.8960   13.0860   28.9370 H   0  0  0  0  0  0  0  0  0  0  0  0
   20.5600   14.1370   32.8300 H   0  0  0  0  0  0  0  0  0  0  0  0
   20.4670   16.4860   32.8400 H   0  0  0  0  0  0  0  0  0  0  0  0
   21.3190   16.6400   31.2170 H   0  0  0  0  0  0  0  0  0  0  0  0
   19.1320   16.5910   30.3540 H   0  0  0  0  0  0  0  0  0  0  0  0
   18.4470   15.7980   31.8310 H   0  0  0  0  0  0  0  0  0  0  0  0
   18.6990   13.7110   31.0150 H   0  0  0  0  0  0  0  0  0  0  0  0
   19.0940   14.4540   29.4370 H   0  0  0  0  0  0  0  0  0  0  0  0
  2  1  1  0  0  0  0
  3 25  1  0  0  0  0
  3  2  2  0  0  0  0
  4  3  1  0  0  0  0
  5  4  2  0  0  0  0
  5  6  1  0  0  0  0
  6  7  2  0  0  0  0
  7  2  1  0  0  0  0
  7 28  1  0  0  0  0
  8  5  1  0  0  0  0
  8 10  1  0  0  0  0
  9  8  2  0  0  0  0
 10 29  1  0  0  0  0
 11 30  1  6  0  0  0
 11 10  1  0  0  0  0
 11 12  1  0  0  0  0
 12 32  1  0  0  0  0
 13 12  1  0  0  0  0
 13 23  1  0  0  0  0
 14 33  1  6  0  0  0
 14 13  1  0  0  0  0
 15 14  1  0  0  0  0
 15 11  1  0  0  0  0
 16 14  1  0  0  0  0
 16 18  1  0  0  0  0
 17 16  2  0  0  0  0
 18 19  1  0  0  0  0
 19 23  1  0  0  0  0
 19 36  1  1  0  0  0
 20 19  1  0  0  0  0
 20 37  1  0  0  0  0
 21 40  1  0  0  0  0
 21 20  1  0  0  0  0
 22 18  1  0  0  0  0
 22 41  1  0  0  0  0
 22 21  1  0  0  0  0
 23 24  2  0  0  0  0
 26  4  1  0  0  0  0
 27  6  1  0  0  0  0
 31 12  1  0  0  0  0
 34 15  1  0  0  0  0
 35 15  1  0  0  0  0
 38 20  1  0  0  0  0
 39 21  1  0  0  0  0
 42 22  1  0  0  0  0
M  END
>  <Pose>
1

>  <Score>
-5.41

$$$$
