
 OpenBabel03202209553D

 35 38  0  0  1  0  0  0  0  0999 V2000
   23.5930    1.6390   33.5920 B   0  0  0  0  0  0  0  0  0  0  0  0
   24.0940    3.0090   32.3550 C   0  0  0  0  0  0  0  0  0  0  0  0
   23.1930    3.9760   32.0150 C   0  0  0  0  0  0  0  0  0  0  0  0
   23.5380    4.9730   31.1260 C   0  0  0  0  0  0  0  0  0  0  0  0
   24.8070    5.0200   30.5570 C   0  0  0  0  0  0  0  0  0  0  0  0
   25.7020    4.0370   30.9120 C   0  0  0  0  0  0  0  0  0  0  0  0
   25.3700    3.0410   31.7930 C   0  0  0  0  0  0  0  0  0  0  0  0
   25.1240    6.0900   29.6430 C   0  0  0  0  0  0  0  0  0  0  0  0
   24.9310    5.8840   28.4010 O   0  0  0  0  0  0  0  0  0  0  0  0
   25.6330    7.3160   30.1200 N   0  0  0  0  0  0  0  0  0  0  0  0
   25.0070    8.5500   29.8040 N   0  0  0  0  0  0  0  0  0  0  0  0
   23.6210    8.8690   29.7680 C   0  0  0  0  0  0  0  0  0  0  0  0
   22.7250    7.9640   29.8780 O   0  0  0  0  0  0  0  0  0  0  0  0
   23.4250   10.3310   29.5920 C   0  0  2  0  0  0  0  0  0  0  0  0
   24.8450   10.8530   29.6960 C   0  0  1  0  0  0  0  0  0  0  0  0
   24.8700   11.3170   31.1360 C   0  0  1  0  0  0  0  0  0  0  0  0
   23.5760   12.1570   31.0920 C   0  0  0  0  0  0  0  0  0  0  0  0
   22.7030   10.9310   30.7660 C   0  0  2  0  0  0  0  0  0  0  0  0
   23.0860   10.0920   31.9570 C   0  0  0  0  0  0  0  0  0  0  0  0
   24.4010   10.2440   32.0560 C   0  0  0  0  0  0  0  0  0  0  0  0
   25.7420    9.7080   29.4600 C   0  0  0  0  0  0  0  0  0  0  0  0
   26.9160    9.7750   29.0370 O   0  0  0  0  0  0  0  0  0  0  0  0
   22.2120    3.9710   32.4320 H   0  0  0  0  0  0  0  0  0  0  0  0
   22.7880    5.7170   30.8800 H   0  0  0  0  0  0  0  0  0  0  0  0
   26.7080    4.0560   30.4740 H   0  0  0  0  0  0  0  0  0  0  0  0
   26.0590    2.2570   32.0850 H   0  0  0  0  0  0  0  0  0  0  0  0
   26.4840    7.3300   30.7100 H   0  0  0  0  0  0  0  0  0  0  0  0
   22.9480   10.5680   28.6220 H   0  0  0  0  0  0  0  0  0  0  0  0
   24.9880   11.6930   29.0240 H   0  0  0  0  0  0  0  0  0  0  0  0
   25.7270   11.8710   31.4370 H   0  0  0  0  0  0  0  0  0  0  0  0
   23.3520   12.5720   32.0800 H   0  0  0  0  0  0  0  0  0  0  0  0
   23.6100   12.8740   30.2760 H   0  0  0  0  0  0  0  0  0  0  0  0
   21.6700   11.1450   30.6640 H   0  0  0  0  0  0  0  0  0  0  0  0
   22.3730    9.5330   32.5300 H   0  0  0  0  0  0  0  0  0  0  0  0
   25.0260    9.6630   32.7140 H   0  0  0  0  0  0  0  0  0  0  0  0
  2  1  1  0  0  0  0
  3  2  1  0  0  0  0
  3 23  1  0  0  0  0
  4  3  2  0  0  0  0
  5  6  2  0  0  0  0
  5  4  1  0  0  0  0
  6  7  1  0  0  0  0
  7 26  1  0  0  0  0
  7  2  2  0  0  0  0
  8 10  1  0  0  0  0
  8  5  1  0  0  0  0
  9  8  2  0  0  0  0
 10 27  1  0  0  0  0
 11 10  1  0  0  0  0
 12 11  1  0  0  0  0
 12 13  2  0  0  0  0
 14 28  1  6  0  0  0
 14 15  1  0  0  0  0
 14 12  1  0  0  0  0
 14 18  1  0  0  0  0
 15 29  1  6  0  0  0
 15 16  1  0  0  0  0
 16 30  1  1  0  0  0
 16 20  1  0  0  0  0
 17 16  1  0  0  0  0
 17 31  1  0  0  0  0
 18 33  1  6  0  0  0
 18 17  1  0  0  0  0
 18 19  1  0  0  0  0
 19 20  2  0  0  0  0
 19 34  1  0  0  0  0
 20 35  1  0  0  0  0
 21 15  1  0  0  0  0
 21 11  1  0  0  0  0
 22 21  2  0  0  0  0
 24  4  1  0  0  0  0
 25  6  1  0  0  0  0
 32 17  1  0  0  0  0
M  END
>  <Pose>
1

>  <Score>
-6.06

$$$$
