
 OpenBabel03202209553D

 53 56  0  0  1  0  0  0  0  0999 V2000
   28.0680    6.3630   26.9310 B   0  0  0  0  0  0  0  0  0  0  0  0
   26.9230    7.0830   28.2910 C   0  0  0  0  0  0  0  0  0  0  0  0
   25.8090    6.4000   28.7210 C   0  0  0  0  0  0  0  0  0  0  0  0
   24.9850    6.9280   29.7040 C   0  0  0  0  0  0  0  0  0  0  0  0
   25.2450    8.1480   30.2880 C   0  0  0  0  0  0  0  0  0  0  0  0
   26.3610    8.8280   29.8580 C   0  0  0  0  0  0  0  0  0  0  0  0
   27.1950    8.3020   28.8670 C   0  0  0  0  0  0  0  0  0  0  0  0
   24.3960    8.6820   31.3390 C   0  0  0  0  0  0  0  0  0  0  0  0
   23.3530    9.4640   31.1410 C   0  0  0  0  0  0  0  0  0  0  0  0
   22.4140   10.0760   32.1250 C   0  0  1  0  0  0  0  0  0  0  0  0
   22.0760   11.3650   31.4980 N   0  0  0  0  0  0  0  0  0  0  0  0
   22.0450   11.0940   30.1100 C   0  0  0  0  0  0  0  0  0  0  0  0
   21.4380   11.7720   29.2710 O   0  0  0  0  0  0  0  0  0  0  0  0
   22.8390    9.9000   29.8450 C   0  0  0  0  0  0  0  0  0  0  0  0
   23.0800    9.3020   28.7660 O   0  0  0  0  0  0  0  0  0  0  0  0
   21.8490   12.5450   32.2490 C   0  0  0  0  0  0  0  0  0  0  0  0
   22.4220   13.8140   31.7680 C   0  0  0  0  0  0  0  0  0  0  0  0
   21.7140   14.4740   30.7140 N   0  0  0  0  0  4  0  0  0  0  0  0
   22.5130   15.1770   29.7730 C   0  0  0  0  0  0  0  0  0  0  0  0
   22.3670   16.6630   30.0200 C   0  0  0  0  0  0  0  0  0  0  0  0
   22.3360   16.9720   31.3770 O   0  0  0  0  0  0  0  0  0  0  0  0
   21.1970   16.5000   32.0020 C   0  0  0  0  0  0  0  0  0  0  0  0
   20.6590   15.3400   31.1930 C   0  0  0  0  0  0  0  0  0  0  0  0
   21.2370    9.2580   32.4220 C   0  0  0  0  0  0  0  0  0  0  0  0
   21.1970    7.9030   32.0720 C   0  0  0  0  0  0  0  0  0  0  0  0
   20.1350    7.0890   32.3210 C   0  0  0  0  0  0  0  0  0  0  0  0
   19.0140    7.5950   32.9520 C   0  0  0  0  0  0  0  0  0  0  0  0
   19.0220    8.9140   33.3050 C   0  0  0  0  0  0  0  0  0  0  0  0
   20.1140    9.7490   33.0490 C   0  0  0  0  0  0  0  0  0  0  0  0
   24.7080    8.3420   32.6700 O   0  0  0  0  0  0  0  0  0  0  0  0
   25.5910    5.4440   28.2730 H   0  0  0  0  0  0  0  0  0  0  0  0
   24.1030    6.4040   30.0550 H   0  0  0  0  0  0  0  0  0  0  0  0
   26.6800    9.7820   30.2500 H   0  0  0  0  0  0  0  0  0  0  0  0
   28.0730    8.8460   28.5320 H   0  0  0  0  0  0  0  0  0  0  0  0
   22.9610   10.2430   33.0770 H   0  0  0  0  0  0  0  0  0  0  0  0
   20.7370   12.6480   32.3820 H   0  0  0  0  0  0  0  0  0  0  0  0
   22.1960   12.3300   33.3040 H   0  0  0  0  0  0  0  0  0  0  0  0
   23.4380   13.5600   31.3330 H   0  0  0  0  0  0  0  0  0  0  0  0
   22.6390   14.5590   32.5490 H   0  0  0  0  0  0  0  0  0  0  0  0
   21.2200   13.6910   30.1840 H   0  0  0  0  0  0  0  0  0  0  0  0
   23.5770   14.8620   29.7560 H   0  0  0  0  0  0  0  0  0  0  0  0
   22.1220   14.9940   28.7290 H   0  0  0  0  0  0  0  0  0  0  0  0
   21.4480   16.9900   29.4860 H   0  0  0  0  0  0  0  0  0  0  0  0
   23.2240   17.1610   29.5160 H   0  0  0  0  0  0  0  0  0  0  0  0
   20.4200   17.2890   32.0450 H   0  0  0  0  0  0  0  0  0  0  0  0
   21.4110   16.2140   33.0510 H   0  0  0  0  0  0  0  0  0  0  0  0
   19.8930   14.7570   31.7840 H   0  0  0  0  0  0  0  0  0  0  0  0
   20.0820   15.7760   30.3550 H   0  0  0  0  0  0  0  0  0  0  0  0
   22.0660    7.4820   31.5760 H   0  0  0  0  0  0  0  0  0  0  0  0
   20.1490    6.0490   32.0330 H   0  0  0  0  0  0  0  0  0  0  0  0
   18.1710    6.9390   33.1460 H   0  0  0  0  0  0  0  0  0  0  0  0
   18.1780    9.3570   33.7980 H   0  0  0  0  0  0  0  0  0  0  0  0
   20.0590   10.7660   33.3480 H   0  0  0  0  0  0  0  0  0  0  0  0
  1  2  1  0  0  0  0
  2  3  2  0  0  0  0
  2  7  1  0  0  0  0
  3  4  1  0  0  0  0
  4 32  1  0  0  0  0
  4  5  2  0  0  0  0
  5  8  1  0  0  0  0
  6 33  1  0  0  0  0
  6  5  1  0  0  0  0
  7  6  2  0  0  0  0
  8 30  1  0  0  0  0
  9  8  2  0  0  0  0
  9 10  1  0  0  0  0
 10 24  1  0  0  0  0
 10 35  1  1  0  0  0
 11 10  1  0  0  0  0
 11 16  1  0  0  0  0
 12 11  1  0  0  0  0
 13 12  2  0  0  0  0
 14 12  1  0  0  0  0
 14  9  1  0  0  0  0
 15 14  2  0  0  0  0
 16 36  1  0  0  0  0
 16 37  1  0  0  0  0
 17 16  1  0  0  0  0
 17 39  1  0  0  0  0
 18 23  1  0  0  0  0
 18 17  1  0  0  0  0
 19 20  1  0  0  0  0
 19 18  1  0  0  0  0
 20 21  1  0  0  0  0
 21 22  1  0  0  0  0
 22 45  1  0  0  0  0
 22 46  1  0  0  0  0
 23 47  1  0  0  0  0
 23 22  1  0  0  0  0
 24 29  1  0  0  0  0
 25 26  1  0  0  0  0
 25 24  2  0  0  0  0
 26 27  2  0  0  0  0
 27 51  1  0  0  0  0
 27 28  1  0  0  0  0
 28 52  1  0  0  0  0
 29 28  2  0  0  0  0
 29 53  1  0  0  0  0
 31  3  1  0  0  0  0
 34  7  1  0  0  0  0
 38 17  1  0  0  0  0
 40 18  1  0  0  0  0
 41 19  1  0  0  0  0
 42 19  1  0  0  0  0
 43 20  1  0  0  0  0
 44 20  1  0  0  0  0
 48 23  1  0  0  0  0
 49 25  1  0  0  0  0
 50 26  1  0  0  0  0
M  END
>  <Pose>
1

>  <Score>
-5.23

$$$$
