
 OpenBabel03202209553D

 50 54  0  0  1  0  0  0  0  0999 V2000
   17.5930    7.7020   33.6480 B   0  0  0  0  0  0  0  0  0  0  0  0
   19.3040    7.8520   32.8420 C   0  0  0  0  0  0  0  0  0  0  0  0
   19.9240    9.0830   32.7430 C   0  0  0  0  0  0  0  0  0  0  0  0
   21.1800    9.1900   32.1520 C   0  0  0  0  0  0  0  0  0  0  0  0
   21.8420    8.0920   31.6510 C   0  0  0  0  0  0  0  0  0  0  0  0
   21.2170    6.8690   31.7540 C   0  0  0  0  0  0  0  0  0  0  0  0
   19.9570    6.7430   32.3440 C   0  0  0  0  0  0  0  0  0  0  0  0
   23.1580    8.2030   31.0300 C   0  0  0  0  0  0  0  0  0  0  0  0
   23.7810    9.3410   30.6590 N   0  0  0  0  0  0  0  0  0  0  0  0
   24.9900    9.0540   30.1180 C   0  0  1  0  0  0  0  0  0  0  0  0
   25.1540    7.7200   30.1360 N   0  0  0  0  0  0  0  0  0  0  0  0
   24.0380    7.1960   30.6930 C   0  0  0  0  0  0  0  0  0  0  0  0
   26.3630    7.4860   29.5900 C   0  0  0  0  0  0  0  0  0  0  0  0
   26.9580    8.6750   29.2280 C   0  0  0  0  0  0  0  0  0  0  0  0
   28.2170    8.7240   28.6400 C   0  0  0  0  0  0  0  0  0  0  0  0
   28.9020    7.5540   28.4040 C   0  0  0  0  0  0  0  0  0  0  0  0
   28.2990    6.3700   28.7690 C   0  0  0  0  0  0  0  0  0  0  0  0
   27.0530    6.2930   29.3530 C   0  0  0  0  0  0  0  0  0  0  0  0
   26.0680    9.6420   29.5750 N   0  0  0  0  0  0  0  0  0  0  0  0
   26.3250   11.0510   29.3540 C   0  0  0  0  0  0  0  0  0  0  0  0
   25.0420   11.8380   29.2110 C   0  0  0  0  0  0  0  0  0  0  0  0
   25.3300   13.2130   28.9180 N   0  0  0  0  0  4  0  0  0  0  0  0
   24.1050   13.9820   28.8510 C   0  0  0  0  0  0  0  0  0  0  0  0
   24.0650   14.9130   27.6640 C   0  0  0  0  0  0  0  0  0  0  0  0
   25.2380   15.6710   27.6460 O   0  0  0  0  0  0  0  0  0  0  0  0
   26.3670   14.8850   27.5710 C   0  0  0  0  0  0  0  0  0  0  0  0
   26.0470   13.4180   27.6950 C   0  0  0  0  0  0  0  0  0  0  0  0
   19.4090    9.9560   33.1370 H   0  0  0  0  0  0  0  0  0  0  0  0
   21.6260   10.1610   32.0940 H   0  0  0  0  0  0  0  0  0  0  0  0
   21.6850    5.9730   31.3800 H   0  0  0  0  0  0  0  0  0  0  0  0
   19.4750    5.7660   32.4180 H   0  0  0  0  0  0  0  0  0  0  0  0
   23.4100   10.3070   30.7640 H   0  0  0  0  0  0  0  0  0  0  0  0
   23.8490    6.1440   30.8540 H   0  0  0  0  0  0  0  0  0  0  0  0
   28.6240    9.6820   28.3820 H   0  0  0  0  0  0  0  0  0  0  0  0
   29.9010    7.5540   27.9390 H   0  0  0  0  0  0  0  0  0  0  0  0
   28.8270    5.4510   28.5880 H   0  0  0  0  0  0  0  0  0  0  0  0
   26.5720    5.3890   29.6420 H   0  0  0  0  0  0  0  0  0  0  0  0
   26.8830   11.4690   30.2270 H   0  0  0  0  0  0  0  0  0  0  0  0
   26.9740   11.1680   28.4650 H   0  0  0  0  0  0  0  0  0  0  0  0
   24.4450   11.7950   30.1230 H   0  0  0  0  0  0  0  0  0  0  0  0
   24.4780   11.3990   28.3650 H   0  0  0  0  0  0  0  0  0  0  0  0
   25.9030   13.6400   29.6890 H   0  0  0  0  0  0  0  0  0  0  0  0
   23.2110   13.2980   28.7980 H   0  0  0  0  0  0  0  0  0  0  0  0
   23.9520   14.6060   29.7590 H   0  0  0  0  0  0  0  0  0  0  0  0
   23.2070   15.5980   27.8230 H   0  0  0  0  0  0  0  0  0  0  0  0
   23.9040   14.3450   26.7320 H   0  0  0  0  0  0  0  0  0  0  0  0
   26.8100   15.0590   26.5500 H   0  0  0  0  0  0  0  0  0  0  0  0
   27.1350   15.1550   28.3310 H   0  0  0  0  0  0  0  0  0  0  0  0
   27.0380   12.8910   27.7920 H   0  0  0  0  0  0  0  0  0  0  0  0
   25.5090   13.0880   26.7960 H   0  0  0  0  0  0  0  0  0  0  0  0
  2  1  1  0  0  0  0
  3  2  1  0  0  0  0
  3 28  1  0  0  0  0
  4  3  2  0  0  0  0
  5  6  2  0  0  0  0
  5  4  1  0  0  0  0
  6  7  1  0  0  0  0
  7 31  1  0  0  0  0
  7  2  2  0  0  0  0
  8  5  1  0  0  0  0
  9 32  1  0  0  0  0
  9  8  1  0  0  0  0
 10 19  1  6  0  0  0
 10 11  1  0  0  0  0
 10  9  1  0  0  0  0
 11 12  1  0  0  0  0
 12 33  1  0  0  0  0
 12  8  2  0  0  0  0
 13 11  1  0  0  0  0
 14 19  1  0  0  0  0
 14 13  2  0  0  0  0
 15 14  1  0  0  0  0
 16 15  2  0  0  0  0
 16 17  1  0  0  0  0
 17 18  2  0  0  0  0
 18 13  1  0  0  0  0
 18 37  1  0  0  0  0
 20 19  1  0  0  0  0
 20 38  1  0  0  0  0
 21 20  1  0  0  0  0
 21 40  1  0  0  0  0
 22 21  1  0  0  0  0
 22 42  1  0  0  0  0
 23 22  1  0  0  0  0
 23 44  1  0  0  0  0
 24 45  1  0  0  0  0
 24 23  1  0  0  0  0
 25 24  1  0  0  0  0
 26 25  1  0  0  0  0
 26 27  1  0  0  0  0
 26 48  1  0  0  0  0
 27 49  1  0  0  0  0
 27 22  1  0  0  0  0
 29  4  1  0  0  0  0
 30  6  1  0  0  0  0
 34 15  1  0  0  0  0
 35 16  1  0  0  0  0
 36 17  1  0  0  0  0
 39 20  1  0  0  0  0
 41 21  1  0  0  0  0
 43 23  1  0  0  0  0
 46 24  1  0  0  0  0
 47 26  1  0  0  0  0
 50 27  1  0  0  0  0
M  END
>  <Pose>
1

>  <Score>
-6.64

$$$$
