
 OpenBabel03202209553D

 41 44  0  0  0  0  0  0  0  0999 V2000
   27.3510   11.6440   27.7070 B   0  0  0  0  0  0  0  0  0  0  0  0
   25.8550   11.1440   28.7560 C   0  0  0  0  0  0  0  0  0  0  0  0
   24.6650   11.8260   28.6180 C   0  0  0  0  0  0  0  0  0  0  0  0
   23.5890   11.4680   29.3700 C   0  0  0  0  0  0  0  0  0  0  0  0
   23.6370   10.4210   30.2940 C   0  0  0  0  0  0  0  0  0  0  0  0
   24.8500    9.7870   30.3830 C   0  0  0  0  0  0  0  0  0  0  0  0
   25.9670   10.1030   29.6510 C   0  0  0  0  0  0  0  0  0  0  0  0
   22.4860   10.2330   31.1560 C   0  0  0  0  0  0  0  0  0  0  0  0
   21.7690    9.2100   31.6020 N   0  0  0  0  0  0  0  0  0  0  0  0
   20.7740    9.6400   32.4160 C   0  0  0  0  0  0  0  0  0  0  0  0
   20.8820   10.9810   32.4630 N   0  0  0  0  0  0  0  0  0  0  0  0
   21.8780   11.3530   31.7280 N   0  0  0  0  0  0  0  0  0  0  0  0
   20.0310    8.6280   32.8770 N   0  0  0  0  0  0  0  0  0  0  0  0
   20.5620    7.5260   32.3360 C   0  0  0  0  0  0  0  0  0  0  0  0
   21.6550    7.8550   31.5230 C   0  0  0  0  0  0  0  0  0  0  0  0
   22.3140    6.9230   30.8530 N   0  0  0  0  0  0  0  0  0  0  0  0
   21.8950    5.6280   30.9950 C   0  0  0  0  0  0  0  0  0  0  0  0
   22.4950    4.7140   30.3810 O   0  0  0  0  0  0  0  0  0  0  0  0
   20.8610    5.2810   31.7710 N   0  0  0  0  0  0  0  0  0  0  0  0
   20.1740    6.2120   32.4530 C   0  0  0  0  0  0  0  0  0  0  0  0
   19.1960    5.9240   33.1910 O   0  0  0  0  0  0  0  0  0  0  0  0
   23.3660    7.1270   29.8910 C   0  0  0  0  0  0  0  0  0  0  0  0
   18.8990    8.7040   33.7730 C   0  0  0  0  0  0  0  0  0  0  0  0
   17.5820    8.4530   33.0710 C   0  0  0  0  0  0  0  0  0  0  0  0
   16.6270    7.9250   33.9320 O   0  0  0  0  0  0  0  0  0  0  0  0
   15.7740    8.9660   34.2950 C   0  0  0  0  0  0  0  0  0  0  0  0
   24.5710   12.6470   27.9150 H   0  0  0  0  0  0  0  0  0  0  0  0
   22.6550   12.0200   29.2450 H   0  0  0  0  0  0  0  0  0  0  0  0
   24.9440    8.9790   31.1340 H   0  0  0  0  0  0  0  0  0  0  0  0
   26.8760    9.5620   29.7760 H   0  0  0  0  0  0  0  0  0  0  0  0
   20.5440    4.2960   31.8810 H   0  0  0  0  0  0  0  0  0  0  0  0
   23.1620    7.9610   29.2020 H   0  0  0  0  0  0  0  0  0  0  0  0
   24.3860    7.0400   30.2870 H   0  0  0  0  0  0  0  0  0  0  0  0
   23.3410    6.2360   29.1430 H   0  0  0  0  0  0  0  0  0  0  0  0
   18.8450    9.6630   34.2720 H   0  0  0  0  0  0  0  0  0  0  0  0
   19.0610    7.8990   34.5270 H   0  0  0  0  0  0  0  0  0  0  0  0
   17.7510    7.7070   32.2530 H   0  0  0  0  0  0  0  0  0  0  0  0
   17.2510    9.3820   32.6060 H   0  0  0  0  0  0  0  0  0  0  0  0
   15.2820    9.3900   33.3830 H   0  0  0  0  0  0  0  0  0  0  0  0
   16.2910    9.7660   34.8640 H   0  0  0  0  0  0  0  0  0  0  0  0
   14.9530    8.5860   34.9650 H   0  0  0  0  0  0  0  0  0  0  0  0
  1  2  1  0  0  0  0
  2  7  1  0  0  0  0
  3  2  2  0  0  0  0
  3  4  1  0  0  0  0
  4  5  2  0  0  0  0
  5  6  1  0  0  0  0
  5  8  1  0  0  0  0
  6 29  1  0  0  0  0
  7 30  1  0  0  0  0
  7  6  2  0  0  0  0
  8  9  1  0  0  0  0
  8 12  2  0  0  0  0
  9 10  1  0  0  0  0
 10 11  2  0  0  0  0
 10 13  1  0  0  0  0
 12 11  1  0  0  0  0
 13 23  1  0  0  0  0
 14 20  1  0  0  0  0
 14 13  1  0  0  0  0
 15  9  1  0  0  0  0
 15 14  2  0  0  0  0
 16 17  1  0  0  0  0
 16 15  1  0  0  0  0
 17 19  1  0  0  0  0
 18 17  2  0  0  0  0
 19 31  1  0  0  0  0
 19 20  1  0  0  0  0
 20 21  2  0  0  0  0
 22 33  1  0  0  0  0
 22 16  1  0  0  0  0
 23 35  1  0  0  0  0
 23 36  1  0  0  0  0
 24 23  1  0  0  0  0
 24 25  1  0  0  0  0
 25 26  1  0  0  0  0
 26 40  1  0  0  0  0
 26 41  1  0  0  0  0
 27  3  1  0  0  0  0
 28  4  1  0  0  0  0
 32 22  1  0  0  0  0
 34 22  1  0  0  0  0
 37 24  1  0  0  0  0
 38 24  1  0  0  0  0
 39 26  1  0  0  0  0
M  END
>  <Pose>
1

>  <Score>
-7.23

$$$$
