
 OpenBabel03202209553D

 61 65  0  0  1  0  0  0  0  0999 V2000
   17.4230    7.9440   33.8330 B   0  0  0  0  0  0  0  0  0  0  0  0
   19.1360    7.8940   32.9700 C   0  0  0  0  0  0  0  0  0  0  0  0
   19.6500    6.7160   32.4930 C   0  0  0  0  0  0  0  0  0  0  0  0
   20.9040    6.6810   31.8620 C   0  0  0  0  0  0  0  0  0  0  0  0
   21.6740    7.7860   31.6870 C   0  0  0  0  0  0  0  0  0  0  0  0
   21.1310    8.9730   32.1800 C   0  0  0  0  0  0  0  0  0  0  0  0
   19.8940    9.0180   32.8030 C   0  0  0  0  0  0  0  0  0  0  0  0
   23.0050    7.8240   31.0840 C   0  0  0  0  0  0  0  0  0  0  0  0
   23.6500    6.6910   30.5520 C   0  0  0  0  0  0  0  0  0  0  0  0
   24.8390    7.0200   30.0340 N   0  0  0  0  0  0  0  0  0  0  0  0
   25.9340    6.5310   29.4030 C   0  0  0  0  0  0  0  0  0  0  0  0
   26.7690    7.6030   29.1990 C   0  0  0  0  0  0  0  0  0  0  0  0
   26.1620    8.7100   29.7100 N   0  0  0  0  0  0  0  0  0  0  0  0
   24.9760    8.3300   30.2190 C   0  0  1  0  0  0  0  0  0  0  0  0
   23.8580    8.8260   30.8600 N   0  0  0  0  0  0  0  0  0  0  0  0
   23.7000   10.2290   31.1820 C   0  0  0  0  0  0  0  0  0  0  0  0
   22.3820   10.8170   30.7360 C   0  0  0  0  0  0  0  0  0  0  0  0
   22.1230   12.1450   31.4020 C   0  0  0  0  0  0  0  0  0  0  0  0
   21.4540   13.1140   30.5780 N   0  0  0  0  0  0  0  0  0  0  0  0
   22.4640   14.0990   30.2240 C   0  0  0  0  0  0  0  0  0  0  0  0
   22.0300   15.5100   30.3570 C   0  0  0  0  0  0  0  0  0  0  0  0
   21.3150   15.8400   31.5600 N   0  0  0  0  0  4  0  0  0  0  0  0
   20.7080   14.6950   32.2040 C   0  0  0  0  0  0  0  0  0  0  0  0
   20.2850   13.7130   31.1310 C   0  0  0  0  0  0  0  0  0  0  0  0
   22.0780   16.6810   32.4260 C   0  0  0  0  0  0  0  0  0  0  0  0
   22.9210   15.9850   33.4400 C   0  0  0  0  0  0  0  0  0  0  0  0
   24.1620   16.5850   33.6450 O   0  0  0  0  0  0  0  0  0  0  0  0
   27.9720    7.3760   28.5650 C   0  0  0  0  0  0  0  0  0  0  0  0
   28.3460    6.1080   28.1370 C   0  0  0  0  0  0  0  0  0  0  0  0
   27.5110    5.0390   28.3410 C   0  0  0  0  0  0  0  0  0  0  0  0
   26.2900    5.2710   28.9850 C   0  0  0  0  0  0  0  0  0  0  0  0
   19.0800    5.8050   32.6050 H   0  0  0  0  0  0  0  0  0  0  0  0
   21.2020    5.7230   31.5130 H   0  0  0  0  0  0  0  0  0  0  0  0
   21.7130    9.8710   32.0630 H   0  0  0  0  0  0  0  0  0  0  0  0
   19.5180    9.9570   33.1680 H   0  0  0  0  0  0  0  0  0  0  0  0
   23.2260    5.6820   30.5710 H   0  0  0  0  0  0  0  0  0  0  0  0
   26.5730    9.6690   29.6930 H   0  0  0  0  0  0  0  0  0  0  0  0
   23.6590   10.3190   32.3340 H   0  0  0  0  0  0  0  0  0  0  0  0
   24.5240   10.8620   30.9160 H   0  0  0  0  0  0  0  0  0  0  0  0
   22.5330   11.0630   29.6430 H   0  0  0  0  0  0  0  0  0  0  0  0
   21.5330   10.1430   30.7730 H   0  0  0  0  0  0  0  0  0  0  0  0
   23.0750   12.6080   31.7340 H   0  0  0  0  0  0  0  0  0  0  0  0
   21.5560   11.9560   32.3600 H   0  0  0  0  0  0  0  0  0  0  0  0
   23.4370   13.9340   30.7170 H   0  0  0  0  0  0  0  0  0  0  0  0
   22.6660   13.9190   29.1270 H   0  0  0  0  0  0  0  0  0  0  0  0
   21.4740   15.8140   29.4220 H   0  0  0  0  0  0  0  0  0  0  0  0
   22.9680   16.1390   30.3140 H   0  0  0  0  0  0  0  0  0  0  0  0
   20.4860   16.4360   31.2460 H   0  0  0  0  0  0  0  0  0  0  0  0
   19.7790   15.0200   32.7310 H   0  0  0  0  0  0  0  0  0  0  0  0
   21.3420   14.1730   32.9130 H   0  0  0  0  0  0  0  0  0  0  0  0
   19.7230   14.2350   30.3120 H   0  0  0  0  0  0  0  0  0  0  0  0
   19.5930   13.0000   31.5690 H   0  0  0  0  0  0  0  0  0  0  0  0
   21.4490   17.4270   32.9920 H   0  0  0  0  0  0  0  0  0  0  0  0
   22.7630   17.3230   31.8060 H   0  0  0  0  0  0  0  0  0  0  0  0
   22.3780   16.0970   34.4250 H   0  0  0  0  0  0  0  0  0  0  0  0
   23.0030   14.8940   33.2840 H   0  0  0  0  0  0  0  0  0  0  0  0
   24.6370   16.1250   34.3590 H   0  0  0  0  0  0  0  0  0  0  0  0
   28.6560    8.1900   28.3860 H   0  0  0  0  0  0  0  0  0  0  0  0
   29.2810    5.9240   27.6430 H   0  0  0  0  0  0  0  0  0  0  0  0
   27.7970    4.0510   28.0090 H   0  0  0  0  0  0  0  0  0  0  0  0
   25.6200    4.4430   29.1540 H   0  0  0  0  0  0  0  0  0  0  0  0
  2  1  1  0  0  0  0
  3 32  1  0  0  0  0
  3  2  2  0  0  0  0
  4  3  1  0  0  0  0
  5  4  2  0  0  0  0
  5  6  1  0  0  0  0
  6  7  2  0  0  0  0
  7  2  1  0  0  0  0
  7 35  1  0  0  0  0
  8  5  1  0  0  0  0
  9 36  1  0  0  0  0
  9  8  2  0  0  0  0
 10 14  1  0  0  0  0
 10  9  1  0  0  0  0
 11 10  1  0  0  0  0
 12 11  1  0  0  0  0
 12 13  1  0  0  0  0
 14 13  1  6  0  0  0
 14 15  1  0  0  0  0
 15  8  1  0  0  0  0
 15 16  1  0  0  0  0
 16 38  1  0  0  0  0
 17 41  1  0  0  0  0
 17 16  1  0  0  0  0
 17 18  1  0  0  0  0
 18 42  1  0  0  0  0
 18 43  1  0  0  0  0
 19 24  1  0  0  0  0
 19 18  1  0  0  0  0
 20 21  1  0  0  0  0
 20 19  1  0  0  0  0
 20 44  1  0  0  0  0
 21 22  1  0  0  0  0
 22 23  1  0  0  0  0
 22 25  1  0  0  0  0
 23 49  1  0  0  0  0
 23 50  1  0  0  0  0
 24 52  1  0  0  0  0
 24 23  1  0  0  0  0
 25 53  1  0  0  0  0
 25 26  1  0  0  0  0
 26 27  1  0  0  0  0
 26 55  1  0  0  0  0
 27 57  1  0  0  0  0
 28 12  2  0  0  0  0
 29 30  2  0  0  0  0
 29 28  1  0  0  0  0
 30 31  1  0  0  0  0
 31 61  1  0  0  0  0
 31 11  2  0  0  0  0
 33  4  1  0  0  0  0
 34  6  1  0  0  0  0
 37 13  1  0  0  0  0
 39 16  1  0  0  0  0
 40 17  1  0  0  0  0
 45 20  1  0  0  0  0
 46 21  1  0  0  0  0
 47 21  1  0  0  0  0
 48 22  1  0  0  0  0
 51 24  1  0  0  0  0
 54 25  1  0  0  0  0
 56 26  1  0  0  0  0
 58 28  1  0  0  0  0
 59 29  1  0  0  0  0
 60 30  1  0  0  0  0
M  END
>  <Pose>
1

>  <Score>
-8.19

$$$$
