
 OpenBabel03202209553D

 63 66  0  0  1  0  0  0  0  0999 V2000
   24.8410   11.4800   30.3250 B   0  0  0  0  0  0  0  0  0  0  0  0
   24.5590    9.5810   30.2600 C   0  0  0  0  0  0  0  0  0  0  0  0
   25.3490    8.7500   31.0220 C   0  0  0  0  0  0  0  0  0  0  0  0
   25.1620    7.3640   30.9940 C   0  0  0  0  0  0  0  0  0  0  0  0
   24.1870    6.7940   30.2050 C   0  0  0  0  0  0  0  0  0  0  0  0
   23.4190    7.6590   29.4580 C   0  0  0  0  0  0  0  0  0  0  0  0
   23.5890    9.0240   29.4740 C   0  0  0  0  0  0  0  0  0  0  0  0
   23.9930    5.3420   30.1790 C   0  0  2  0  0  0  0  0  0  0  0  0
   22.9130    4.8970   31.0170 N   0  0  0  0  0  0  0  0  0  0  0  0
   23.3550    3.9240   31.9440 C   0  0  0  0  0  0  0  0  0  0  0  0
   22.6720    3.3010   32.8150 O   0  0  0  0  0  0  0  0  0  0  0  0
   24.8080    3.7100   31.7610 C   0  0  0  0  0  0  0  0  0  0  0  0
   25.5080    2.9110   32.4220 O   0  0  0  0  0  0  0  0  0  0  0  0
   25.1940    4.6010   30.6870 C   0  0  0  0  0  0  0  0  0  0  0  0
   26.4240    4.6750   30.2280 C   0  0  0  0  0  0  0  0  0  0  0  0
   26.6640    5.5320   29.1340 O   0  0  0  0  0  0  0  0  0  0  0  0
   27.5680    3.9640   30.7420 C   0  0  0  0  0  0  0  0  0  0  0  0
   27.9850    3.9230   32.0260 C   0  0  0  0  0  0  0  0  0  0  0  0
   29.0830    3.1710   32.3890 C   0  0  0  0  0  0  0  0  0  0  0  0
   29.8170    2.4240   31.4920 C   0  0  0  0  0  0  0  0  0  0  0  0
   29.3700    2.4840   30.1870 C   0  0  0  0  0  0  0  0  0  0  0  0
   28.2860    3.2200   29.7930 C   0  0  0  0  0  0  0  0  0  0  0  0
   30.9220    1.6690   31.8650 O   0  0  0  0  0  0  0  0  0  0  0  0
   32.0580    2.3050   32.4340 C   0  0  0  0  0  0  0  0  0  0  0  0
   29.5070    3.1570   33.8280 C   0  0  0  0  0  0  0  0  0  0  0  0
   21.5530    5.3910   30.9010 C   0  0  0  0  0  0  0  0  0  0  0  0
   21.0310    6.0070   32.1710 C   0  0  0  0  0  0  0  0  0  0  0  0
   21.0160    7.5030   32.0970 C   0  0  0  0  0  0  0  0  0  0  0  0
   19.7770    8.0800   32.5310 N   0  0  0  0  0  4  0  0  0  0  0  0
   19.9490    9.1820   33.4540 C   0  0  0  0  0  0  0  0  0  0  0  0
   18.5730    9.8350   33.6220 C   0  0  0  0  0  0  0  0  0  0  0  0
   17.5820    9.0420   33.0630 O   0  0  0  0  0  0  0  0  0  0  0  0
   17.6590    7.7290   33.5770 C   0  0  0  0  0  0  0  0  0  0  0  0
   18.9260    7.0540   33.0640 C   0  0  0  0  0  0  0  0  0  0  0  0
   26.1170    9.1830   31.6470 H   0  0  0  0  0  0  0  0  0  0  0  0
   25.7790    6.7100   31.5900 H   0  0  0  0  0  0  0  0  0  0  0  0
   22.6430    7.1920   28.8310 H   0  0  0  0  0  0  0  0  0  0  0  0
   22.9630    9.6510   28.8730 H   0  0  0  0  0  0  0  0  0  0  0  0
   23.7430    5.0400   29.1430 H   0  0  0  0  0  0  0  0  0  0  0  0
   27.4410    4.5210   32.7630 H   0  0  0  0  0  0  0  0  0  0  0  0
   29.9610    1.8870   29.4730 H   0  0  0  0  0  0  0  0  0  0  0  0
   27.9940    3.2180   28.7470 H   0  0  0  0  0  0  0  0  0  0  0  0
   31.7130    2.8450   33.3550 H   0  0  0  0  0  0  0  0  0  0  0  0
   32.8280    1.5970   32.7420 H   0  0  0  0  0  0  0  0  0  0  0  0
   32.4340    3.1120   31.7450 H   0  0  0  0  0  0  0  0  0  0  0  0
   29.2840    4.1210   34.3280 H   0  0  0  0  0  0  0  0  0  0  0  0
   30.5820    2.9050   33.8510 H   0  0  0  0  0  0  0  0  0  0  0  0
   28.9650    2.2980   34.2890 H   0  0  0  0  0  0  0  0  0  0  0  0
   20.8820    4.5390   30.6340 H   0  0  0  0  0  0  0  0  0  0  0  0
   21.4600    6.1510   30.0970 H   0  0  0  0  0  0  0  0  0  0  0  0
   21.6650    5.6470   33.0160 H   0  0  0  0  0  0  0  0  0  0  0  0
   19.9880    5.6570   32.2910 H   0  0  0  0  0  0  0  0  0  0  0  0
   21.8090    7.9580   32.7260 H   0  0  0  0  0  0  0  0  0  0  0  0
   21.2250    7.8100   31.0520 H   0  0  0  0  0  0  0  0  0  0  0  0
   19.2810    8.4850   31.6820 H   0  0  0  0  0  0  0  0  0  0  0  0
   20.6030    9.9300   33.0020 H   0  0  0  0  0  0  0  0  0  0  0  0
   20.2560    8.8290   34.4450 H   0  0  0  0  0  0  0  0  0  0  0  0
   18.3570   10.0590   34.6750 H   0  0  0  0  0  0  0  0  0  0  0  0
   18.5300   10.8120   33.0660 H   0  0  0  0  0  0  0  0  0  0  0  0
   16.7720    7.2040   33.1420 H   0  0  0  0  0  0  0  0  0  0  0  0
   17.5680    7.6980   34.6650 H   0  0  0  0  0  0  0  0  0  0  0  0
   19.4750    6.5510   33.8900 H   0  0  0  0  0  0  0  0  0  0  0  0
   18.6760    6.3630   32.2260 H   0  0  0  0  0  0  0  0  0  0  0  0
  2  1  1  0  0  0  0
  2  3  1  0  0  0  0
  3 35  1  0  0  0  0
  4  3  2  0  0  0  0
  4 36  1  0  0  0  0
  5  4  1  0  0  0  0
  6  7  1  0  0  0  0
  6  5  2  0  0  0  0
  7  2  2  0  0  0  0
  8 39  1  6  0  0  0
  8  5  1  0  0  0  0
  8 14  1  0  0  0  0
  8  9  1  0  0  0  0
  9 10  1  0  0  0  0
 10 11  2  0  0  0  0
 12 10  1  0  0  0  0
 12 13  2  0  0  0  0
 14 12  1  0  0  0  0
 15 14  2  0  0  0  0
 15 17  1  0  0  0  0
 16 15  1  0  0  0  0
 17 18  1  0  0  0  0
 18 19  2  0  0  0  0
 18 40  1  0  0  0  0
 19 25  1  0  0  0  0
 20 23  1  0  0  0  0
 20 19  1  0  0  0  0
 21 20  2  0  0  0  0
 22 21  1  0  0  0  0
 22 17  2  0  0  0  0
 23 24  1  0  0  0  0
 24 44  1  0  0  0  0
 24 43  1  0  0  0  0
 25 47  1  0  0  0  0
 25 48  1  0  0  0  0
 25 46  1  0  0  0  0
 26  9  1  0  0  0  0
 26 27  1  0  0  0  0
 27 52  1  0  0  0  0
 27 51  1  0  0  0  0
 28 27  1  0  0  0  0
 28 29  1  0  0  0  0
 28 53  1  0  0  0  0
 29 34  1  0  0  0  0
 29 30  1  0  0  0  0
 30 31  1  0  0  0  0
 30 57  1  0  0  0  0
 31 58  1  0  0  0  0
 32 33  1  0  0  0  0
 32 31  1  0  0  0  0
 33 61  1  0  0  0  0
 34 33  1  0  0  0  0
 34 62  1  0  0  0  0
 37  6  1  0  0  0  0
 38  7  1  0  0  0  0
 41 21  1  0  0  0  0
 42 22  1  0  0  0  0
 45 24  1  0  0  0  0
 49 26  1  0  0  0  0
 50 26  1  0  0  0  0
 54 28  1  0  0  0  0
 55 29  1  0  0  0  0
 56 30  1  0  0  0  0
 59 31  1  0  0  0  0
 60 33  1  0  0  0  0
 63 34  1  0  0  0  0
M  END
>  <Pose>
1

>  <Score>
-5.99

$$$$
