
 OpenBabel03202209553D

 44 47  0  0  0  0  0  0  0  0999 V2000
   28.2910    7.9010   25.3130 B   0  0  0  0  0  0  0  0  0  0  0  0
   27.9820    9.6340   26.0540 C   0  0  0  0  0  0  0  0  0  0  0  0
   27.5850   10.6930   25.2790 C   0  0  0  0  0  0  0  0  0  0  0  0
   27.3650   11.9610   25.8350 C   0  0  0  0  0  0  0  0  0  0  0  0
   27.5270   12.2290   27.1710 C   0  0  0  0  0  0  0  0  0  0  0  0
   27.9330   11.1190   27.9380 C   0  0  0  0  0  0  0  0  0  0  0  0
   28.1510    9.8790   27.4020 C   0  0  0  0  0  0  0  0  0  0  0  0
   27.3590   13.4580   27.8140 N   0  0  0  0  0  0  0  0  0  0  0  0
   27.2410   14.7020   27.1840 C   0  0  0  0  0  0  0  0  0  0  0  0
   27.7650   15.7430   27.7490 O   0  0  0  0  0  0  0  0  0  0  0  0
   26.5790   15.0090   25.9160 C   0  0  0  0  0  0  0  0  0  0  0  0
   25.5680   16.0630   26.0980 N   0  0  0  0  0  0  0  0  0  0  0  0
   24.7110   16.0600   27.1150 N   0  0  0  0  0  0  0  0  0  0  0  0
   23.7590   17.0270   27.2540 C   0  0  0  0  0  0  0  0  0  0  0  0
   23.6840   18.0090   26.3430 N   0  0  0  0  0  0  0  0  0  0  0  0
   22.6300   18.9380   26.6860 C   0  0  0  0  0  0  0  0  0  0  0  0
   22.0000   18.4350   27.9510 C   0  0  0  0  0  0  0  0  0  0  0  0
   22.7270   17.2080   28.2160 N   0  0  0  0  0  0  0  0  0  0  0  0
   22.4110   16.3490   29.2950 C   0  0  0  0  0  0  0  0  0  0  0  0
   22.6510   15.0010   29.2910 C   0  0  0  0  0  0  0  0  0  0  0  0
   22.3150   14.1850   30.3560 C   0  0  0  0  0  0  0  0  0  0  0  0
   21.7150   14.7330   31.4740 C   0  0  0  0  0  0  0  0  0  0  0  0
   21.4700   16.0700   31.4980 C   0  0  0  0  0  0  0  0  0  0  0  0
   21.8070   16.8760   30.4320 C   0  0  0  0  0  0  0  0  0  0  0  0
   24.5200   18.0660   25.2970 C   0  0  0  0  0  0  0  0  0  0  0  0
   24.4470   18.9850   24.4470 O   0  0  0  0  0  0  0  0  0  0  0  0
   25.4630   17.0620   25.2040 C   0  0  0  0  0  0  0  0  0  0  0  0
   26.2700   17.0740   24.2400 O   0  0  0  0  0  0  0  0  0  0  0  0
   27.4420   10.5380   24.2190 H   0  0  0  0  0  0  0  0  0  0  0  0
   27.0380   12.7690   25.1860 H   0  0  0  0  0  0  0  0  0  0  0  0
   28.0740   11.2800   28.9980 H   0  0  0  0  0  0  0  0  0  0  0  0
   28.4700    9.0270   28.0080 H   0  0  0  0  0  0  0  0  0  0  0  0
   27.3200   13.4620   28.8730 H   0  0  0  0  0  0  0  0  0  0  0  0
   26.0190   14.1380   25.4980 H   0  0  0  0  0  0  0  0  0  0  0  0
   27.3080   15.3720   25.1710 H   0  0  0  0  0  0  0  0  0  0  0  0
   23.1310   19.9010   26.9450 H   0  0  0  0  0  0  0  0  0  0  0  0
   21.8960   19.0800   25.8590 H   0  0  0  0  0  0  0  0  0  0  0  0
   20.9400   18.1800   27.6860 H   0  0  0  0  0  0  0  0  0  0  0  0
   22.0480   19.1430   28.8040 H   0  0  0  0  0  0  0  0  0  0  0  0
   23.1120   14.5770   28.4310 H   0  0  0  0  0  0  0  0  0  0  0  0
   22.5130   13.1200   30.3230 H   0  0  0  0  0  0  0  0  0  0  0  0
   21.4500   14.0790   32.3150 H   0  0  0  0  0  0  0  0  0  0  0  0
   21.0030   16.5210   32.3550 H   0  0  0  0  0  0  0  0  0  0  0  0
   21.6080   17.9180   30.4610 H   0  0  0  0  0  0  0  0  0  0  0  0
  1  2  1  0  0  0  0
  2  7  1  0  0  0  0
  3  4  1  0  0  0  0
  3  2  2  0  0  0  0
  4  5  2  0  0  0  0
  5  8  1  0  0  0  0
  5  6  1  0  0  0  0
  6 31  1  0  0  0  0
  7  6  2  0  0  0  0
  7 32  1  0  0  0  0
  8 33  1  0  0  0  0
  9 10  2  0  0  0  0
  9  8  1  0  0  0  0
 11 12  1  0  0  0  0
 11  9  1  0  0  0  0
 12 13  1  0  0  0  0
 13 14  2  0  0  0  0
 14 18  1  0  0  0  0
 15 16  1  0  0  0  0
 15 14  1  0  0  0  0
 16 36  1  0  0  0  0
 16 17  1  0  0  0  0
 17 18  1  0  0  0  0
 17 39  1  0  0  0  0
 18 19  1  0  0  0  0
 19 24  1  0  0  0  0
 20 19  2  0  0  0  0
 20 21  1  0  0  0  0
 21 22  2  0  0  0  0
 22 23  1  0  0  0  0
 22 42  1  0  0  0  0
 23 43  1  0  0  0  0
 24 44  1  0  0  0  0
 24 23  2  0  0  0  0
 25 15  1  0  0  0  0
 26 25  2  0  0  0  0
 27 25  1  0  0  0  0
 27 12  1  0  0  0  0
 28 27  2  0  0  0  0
 29  3  1  0  0  0  0
 30  4  1  0  0  0  0
 34 11  1  0  0  0  0
 35 11  1  0  0  0  0
 37 16  1  0  0  0  0
 38 17  1  0  0  0  0
 40 20  1  0  0  0  0
 41 21  1  0  0  0  0
M  END
>  <Pose>
1

>  <Score>
-7.49

$$$$
