
 OpenBabel03202209553D

 44 47  0  0  0  0  0  0  0  0999 V2000
   27.5540    2.3500   32.2720 B   0  0  0  0  0  0  0  0  0  0  0  0
   25.7710    2.9910   32.1260 C   0  0  0  0  0  0  0  0  0  0  0  0
   24.7350    2.4690   32.8580 C   0  0  0  0  0  0  0  0  0  0  0  0
   23.4490    2.9720   32.7130 C   0  0  0  0  0  0  0  0  0  0  0  0
   23.1340    3.9990   31.8500 C   0  0  0  0  0  0  0  0  0  0  0  0
   24.2210    4.5090   31.1160 C   0  0  0  0  0  0  0  0  0  0  0  0
   25.4800    4.0180   31.2560 C   0  0  0  0  0  0  0  0  0  0  0  0
   21.8400    4.5300   31.6460 N   0  0  0  0  0  0  0  0  0  0  0  0
   21.5370    5.8570   31.3120 C   0  0  0  0  0  0  0  0  0  0  0  0
   20.7430    6.5300   32.0020 O   0  0  0  0  0  0  0  0  0  0  0  0
   22.1750    6.4970   30.0910 C   0  0  0  0  0  0  0  0  0  0  0  0
   23.2480    7.3650   30.5340 N   0  0  0  0  0  0  0  0  0  0  0  0
   24.3700    6.9420   31.1170 N   0  0  0  0  0  0  0  0  0  0  0  0
   25.1350    7.9720   31.3930 N   0  0  0  0  0  0  0  0  0  0  0  0
   24.5020    9.0980   30.9840 C   0  0  0  0  0  0  0  0  0  0  0  0
   23.3370    8.7040   30.4550 C   0  0  0  0  0  0  0  0  0  0  0  0
   22.7250    9.8730   30.0530 C   0  0  0  0  0  0  0  0  0  0  0  0
   21.5860    9.8910   29.4990 O   0  0  0  0  0  0  0  0  0  0  0  0
   23.4770   10.9530   30.3190 N   0  0  0  0  0  0  0  0  0  0  0  0
   24.6060   10.4670   30.9090 C   0  0  0  0  0  0  0  0  0  0  0  0
   25.5480   11.2100   31.2980 O   0  0  0  0  0  0  0  0  0  0  0  0
   23.1930   12.3350   30.0580 C   0  0  0  0  0  0  0  0  0  0  0  0
   22.2600   13.0210   30.8060 C   0  0  0  0  0  0  0  0  0  0  0  0
   21.9890   14.3530   30.5680 C   0  0  0  0  0  0  0  0  0  0  0  0
   22.6330   15.0660   29.5730 C   0  0  0  0  0  0  0  0  0  0  0  0
   23.5670   14.3830   28.8230 C   0  0  0  0  0  0  0  0  0  0  0  0
   23.8350   13.0460   29.0670 C   0  0  0  0  0  0  0  0  0  0  0  0
   22.3210   16.5030   29.3470 C   0  0  0  0  0  0  0  0  0  0  0  0
   24.9370    1.6680   33.5440 H   0  0  0  0  0  0  0  0  0  0  0  0
   22.6360    2.5430   33.3210 H   0  0  0  0  0  0  0  0  0  0  0  0
   23.9790    5.3330   30.4220 H   0  0  0  0  0  0  0  0  0  0  0  0
   26.2940    4.4430   30.6650 H   0  0  0  0  0  0  0  0  0  0  0  0
   21.0330    3.8380   31.7600 H   0  0  0  0  0  0  0  0  0  0  0  0
   21.4320    7.0950   29.5560 H   0  0  0  0  0  0  0  0  0  0  0  0
   22.6080    5.6680   29.4770 H   0  0  0  0  0  0  0  0  0  0  0  0
   24.5670    5.9370   31.3050 H   0  0  0  0  0  0  0  0  0  0  0  0
   26.0810    7.9820   31.8500 H   0  0  0  0  0  0  0  0  0  0  0  0
   21.7470   12.4740   31.5900 H   0  0  0  0  0  0  0  0  0  0  0  0
   21.2510   14.9080   31.1580 H   0  0  0  0  0  0  0  0  0  0  0  0
   24.0910   14.9260   28.0300 H   0  0  0  0  0  0  0  0  0  0  0  0
   24.5700   12.5050   28.4770 H   0  0  0  0  0  0  0  0  0  0  0  0
   21.2440   16.6700   29.1190 H   0  0  0  0  0  0  0  0  0  0  0  0
   22.8710   16.8140   28.4250 H   0  0  0  0  0  0  0  0  0  0  0  0
   22.6670   17.1460   30.1710 H   0  0  0  0  0  0  0  0  0  0  0  0
  2  1  1  0  0  0  0
  2  3  1  0  0  0  0
  3 29  1  0  0  0  0
  4  3  2  0  0  0  0
  4 30  1  0  0  0  0
  5  4  1  0  0  0  0
  6  7  1  0  0  0  0
  6  5  2  0  0  0  0
  7  2  2  0  0  0  0
  8 33  1  0  0  0  0
  8  5  1  0  0  0  0
  9  8  1  0  0  0  0
  9 10  2  0  0  0  0
 11 12  1  0  0  0  0
 11  9  1  0  0  0  0
 12 13  1  0  0  0  0
 13 36  1  0  0  0  0
 13 14  1  0  0  0  0
 14 37  1  0  0  0  0
 15 14  1  0  0  0  0
 16 12  1  0  0  0  0
 16 15  2  0  0  0  0
 17 19  1  0  0  0  0
 17 16  1  0  0  0  0
 18 17  2  0  0  0  0
 19 20  1  0  0  0  0
 20 15  1  0  0  0  0
 20 21  2  0  0  0  0
 22 19  1  0  0  0  0
 22 23  1  0  0  0  0
 23 38  1  0  0  0  0
 24 23  2  0  0  0  0
 24 39  1  0  0  0  0
 25 24  1  0  0  0  0
 26 27  1  0  0  0  0
 26 25  2  0  0  0  0
 27 22  2  0  0  0  0
 28 25  1  0  0  0  0
 28 44  1  0  0  0  0
 31  6  1  0  0  0  0
 32  7  1  0  0  0  0
 34 11  1  0  0  0  0
 35 11  1  0  0  0  0
 40 26  1  0  0  0  0
 41 27  1  0  0  0  0
 42 28  1  0  0  0  0
 43 28  1  0  0  0  0
M  END
>  <Pose>
1

>  <Score>
-7.51

$$$$
