
 OpenBabel03202209553D

 47 50  0  0  1  0  0  0  0  0999 V2000
   24.3010   19.0390   25.2650 B   0  0  0  0  0  0  0  0  0  0  0  0
   23.6930   17.9380   26.7080 C   0  0  0  0  0  0  0  0  0  0  0  0
   22.8220   18.4080   27.6520 C   0  0  0  0  0  0  0  0  0  0  0  0
   22.3820   17.5980   28.7050 C   0  0  0  0  0  0  0  0  0  0  0  0
   22.8020   16.3060   28.8330 C   0  0  0  0  0  0  0  0  0  0  0  0
   23.6720   15.8330   27.8940 C   0  0  0  0  0  0  0  0  0  0  0  0
   24.1210   16.6360   26.8340 C   0  0  0  0  0  0  0  0  0  0  0  0
   22.3540   15.4750   29.9060 N   0  0  0  0  0  0  0  0  0  0  0  0
   22.0370   14.0870   29.8930 C   0  0  0  0  0  0  0  0  0  0  0  0
   21.9960   13.3710   28.8700 O   0  0  0  0  0  0  0  0  0  0  0  0
   21.7560   13.5920   31.2490 C   0  0  2  0  0  0  0  0  0  0  0  0
   21.3440   14.8670   31.9750 C   0  0  0  0  0  0  0  0  0  0  0  0
   22.1400   15.9160   31.2610 C   0  0  0  0  0  0  0  0  0  0  0  0
   22.5010   16.9560   31.8420 O   0  0  0  0  0  0  0  0  0  0  0  0
   22.8740   12.9700   31.9210 N   0  0  0  0  0  4  0  0  0  0  0  0
   22.4550   12.0120   32.9160 C   0  0  0  0  0  0  0  0  0  0  0  0
   22.4730   10.5750   32.4440 C   0  0  0  0  0  0  0  0  0  0  0  0
   23.6370   10.3000   31.6410 N   0  0  0  0  0  0  0  0  0  0  0  0
   24.6350   11.3430   31.6580 C   0  0  0  0  0  0  0  0  0  0  0  0
   23.9130   12.5600   31.0480 C   0  0  0  0  0  0  0  0  0  0  0  0
   23.8050    9.1370   30.8820 C   0  0  0  0  0  0  0  0  0  0  0  0
   22.8190    8.2120   30.6050 C   0  0  0  0  0  0  0  0  0  0  0  0
   23.0460    7.0620   29.8660 C   0  0  0  0  0  0  0  0  0  0  0  0
   24.2960    6.7980   29.3740 C   0  0  0  0  0  0  0  0  0  0  0  0
   25.3200    7.6890   29.6220 C   0  0  0  0  0  0  0  0  0  0  0  0
   25.0680    8.8310   30.3620 C   0  0  0  0  0  0  0  0  0  0  0  0
   24.5920    5.6600   28.6240 O   0  0  0  0  0  0  0  0  0  0  0  0
   22.4800   19.4160   27.5720 H   0  0  0  0  0  0  0  0  0  0  0  0
   21.7070   18.0510   29.3860 H   0  0  0  0  0  0  0  0  0  0  0  0
   24.0670   14.8480   27.8920 H   0  0  0  0  0  0  0  0  0  0  0  0
   24.8070   16.2550   26.0950 H   0  0  0  0  0  0  0  0  0  0  0  0
   20.8520   12.9380   31.2880 H   0  0  0  0  0  0  0  0  0  0  0  0
   20.2600   15.0460   31.8910 H   0  0  0  0  0  0  0  0  0  0  0  0
   21.6550   14.7830   33.0310 H   0  0  0  0  0  0  0  0  0  0  0  0
   23.2890   13.7720   32.5070 H   0  0  0  0  0  0  0  0  0  0  0  0
   21.4110   12.2550   33.2090 H   0  0  0  0  0  0  0  0  0  0  0  0
   23.0660   12.0770   33.8440 H   0  0  0  0  0  0  0  0  0  0  0  0
   22.5640    9.9430   33.3760 H   0  0  0  0  0  0  0  0  0  0  0  0
   21.5110   10.3620   32.0010 H   0  0  0  0  0  0  0  0  0  0  0  0
   24.8630   11.5950   32.7140 H   0  0  0  0  0  0  0  0  0  0  0  0
   25.5520   11.1460   31.1310 H   0  0  0  0  0  0  0  0  0  0  0  0
   23.4630   12.2640   30.0680 H   0  0  0  0  0  0  0  0  0  0  0  0
   24.6200   13.3820   30.8770 H   0  0  0  0  0  0  0  0  0  0  0  0
   21.8050    8.4160   30.9900 H   0  0  0  0  0  0  0  0  0  0  0  0
   22.2380    6.3970   29.6920 H   0  0  0  0  0  0  0  0  0  0  0  0
   26.3220    7.5080   29.2490 H   0  0  0  0  0  0  0  0  0  0  0  0
   25.8590    9.5490   30.5730 H   0  0  0  0  0  0  0  0  0  0  0  0
  1  2  1  0  0  0  0
  2  7  2  0  0  0  0
  2  3  1  0  0  0  0
  3  4  2  0  0  0  0
  4  5  1  0  0  0  0
  4 29  1  0  0  0  0
  5  8  1  0  0  0  0
  6  5  2  0  0  0  0
  7  6  1  0  0  0  0
  8 13  1  0  0  0  0
  9  8  1  0  0  0  0
  9 11  1  0  0  0  0
 10  9  2  0  0  0  0
 11 32  1  6  0  0  0
 11 15  1  0  0  0  0
 11 12  1  0  0  0  0
 12 34  1  0  0  0  0
 13 14  2  0  0  0  0
 13 12  1  0  0  0  0
 15 35  1  0  0  0  0
 15 16  1  0  0  0  0
 16 36  1  0  0  0  0
 16 37  1  0  0  0  0
 17 16  1  0  0  0  0
 17 38  1  0  0  0  0
 18 19  1  0  0  0  0
 18 17  1  0  0  0  0
 19 40  1  0  0  0  0
 20 19  1  0  0  0  0
 20 15  1  0  0  0  0
 21 18  1  0  0  0  0
 22 21  1  0  0  0  0
 22 44  1  0  0  0  0
 23 22  2  0  0  0  0
 24 25  2  0  0  0  0
 24 23  1  0  0  0  0
 25 26  1  0  0  0  0
 26 47  1  0  0  0  0
 26 21  2  0  0  0  0
 27 24  1  0  0  0  0
 28  3  1  0  0  0  0
 30  6  1  0  0  0  0
 31  7  1  0  0  0  0
 33 12  1  0  0  0  0
 39 17  1  0  0  0  0
 41 19  1  0  0  0  0
 42 20  1  0  0  0  0
 43 20  1  0  0  0  0
 45 23  1  0  0  0  0
 46 25  1  0  0  0  0
M  END
>  <Pose>
1

>  <Score>
-6.20

$$$$
