
 OpenBabel03202209553D

 49 52  0  0  0  0  0  0  0  0999 V2000
   24.9300    4.3140   30.7240 B   0  0  0  0  0  0  0  0  0  0  0  0
   24.2900    6.1170   30.6370 C   0  0  0  0  0  0  0  0  0  0  0  0
   25.1620    7.1880   30.6380 C   0  0  0  0  0  0  0  0  0  0  0  0
   24.6920    8.4960   30.5740 C   0  0  0  0  0  0  0  0  0  0  0  0
   23.3420    8.7730   30.5100 C   0  0  0  0  0  0  0  0  0  0  0  0
   22.4770    7.7000   30.5100 C   0  0  0  0  0  0  0  0  0  0  0  0
   22.9410    6.4020   30.5720 C   0  0  0  0  0  0  0  0  0  0  0  0
   22.8250   10.0970   30.4440 N   0  0  0  0  0  0  0  0  0  0  0  0
   22.2980   10.8680   31.4090 C   0  0  0  0  0  0  0  0  0  0  0  0
   22.1850   10.4780   32.5990 O   0  0  0  0  0  0  0  0  0  0  0  0
   21.9150   12.1020   30.9100 C   0  0  0  0  0  0  0  0  0  0  0  0
   22.2170   12.0790   29.6180 C   0  0  0  0  0  0  0  0  0  0  0  0
   21.8460   13.2750   29.1350 N   0  0  0  0  0  0  0  0  0  0  0  0
   21.3320   14.0080   30.1060 N   0  0  0  0  0  0  0  0  0  0  0  0
   21.3660   13.3050   31.2060 N   0  0  0  0  0  0  0  0  0  0  0  0
   20.9100   13.6970   32.5180 C   0  0  0  0  0  0  0  0  0  0  0  0
   19.7820   12.7870   32.9430 C   0  0  0  0  0  0  0  0  0  0  0  0
   18.6020   13.1210   32.6940 O   0  0  0  0  0  0  0  0  0  0  0  0
   20.0600   11.5840   33.6090 N   0  0  0  0  0  0  0  0  0  0  0  0
   19.4050   10.3550   33.4020 C   0  0  0  0  0  0  0  0  0  0  0  0
   19.9200    9.2680   32.7420 C   0  0  0  0  0  0  0  0  0  0  0  0
   19.2180    8.0950   32.5570 C   0  0  0  0  0  0  0  0  0  0  0  0
   17.9370    8.0200   33.0630 C   0  0  0  0  0  0  0  0  0  0  0  0
   17.3800    9.0940   33.7370 C   0  0  0  0  0  0  0  0  0  0  0  0
   18.0940   10.2490   33.9070 C   0  0  0  0  0  0  0  0  0  0  0  0
   17.2110    6.8450   32.8880 O   0  0  0  0  0  0  0  0  0  0  0  0
   15.8010    6.8840   32.9870 C   0  0  0  0  0  0  0  0  0  0  0  0
   19.7680    7.0070   31.8830 O   0  0  0  0  0  0  0  0  0  0  0  0
   20.5320    6.0690   32.6510 C   0  0  0  0  0  0  0  0  0  0  0  0
   22.7750   10.8530   29.3240 C   0  0  0  0  0  0  0  0  0  0  0  0
   23.1830   10.4840   28.1730 O   0  0  0  0  0  0  0  0  0  0  0  0
   26.2260    6.9610   30.6890 H   0  0  0  0  0  0  0  0  0  0  0  0
   25.3780    9.3250   30.5760 H   0  0  0  0  0  0  0  0  0  0  0  0
   21.4140    7.9260   30.4580 H   0  0  0  0  0  0  0  0  0  0  0  0
   22.2310    5.5720   30.5710 H   0  0  0  0  0  0  0  0  0  0  0  0
   21.9330   13.6090   28.1550 H   0  0  0  0  0  0  0  0  0  0  0  0
   20.9510   14.9980   30.0330 H   0  0  0  0  0  0  0  0  0  0  0  0
   20.5170   14.7400   32.5450 H   0  0  0  0  0  0  0  0  0  0  0  0
   21.7030   13.5750   33.2730 H   0  0  0  0  0  0  0  0  0  0  0  0
   20.8480   11.6090   34.3360 H   0  0  0  0  0  0  0  0  0  0  0  0
   20.9250    9.2980   32.3430 H   0  0  0  0  0  0  0  0  0  0  0  0
   16.3640    9.0010   34.1240 H   0  0  0  0  0  0  0  0  0  0  0  0
   17.6380   11.0980   34.4450 H   0  0  0  0  0  0  0  0  0  0  0  0
   15.4600    7.6730   32.2760 H   0  0  0  0  0  0  0  0  0  0  0  0
   15.5120    7.1720   34.0060 H   0  0  0  0  0  0  0  0  0  0  0  0
   15.3900    5.8950   32.6790 H   0  0  0  0  0  0  0  0  0  0  0  0
   19.8650    5.5510   33.3940 H   0  0  0  0  0  0  0  0  0  0  0  0
   21.0040    5.3160   31.9900 H   0  0  0  0  0  0  0  0  0  0  0  0
   21.3320    6.5920   33.2160 H   0  0  0  0  0  0  0  0  0  0  0  0
  2  3  1  0  0  0  0
  2  1  1  0  0  0  0
  3 32  1  0  0  0  0
  4 33  1  0  0  0  0
  4  3  2  0  0  0  0
  5  4  1  0  0  0  0
  6  5  2  0  0  0  0
  6  7  1  0  0  0  0
  7  2  2  0  0  0  0
  8  5  1  0  0  0  0
  8  9  1  0  0  0  0
  9 10  2  0  0  0  0
 11 15  1  0  0  0  0
 11  9  1  0  0  0  0
 12 11  2  0  0  0  0
 13 12  1  0  0  0  0
 13 14  1  0  0  0  0
 14 15  1  0  0  0  0
 15 16  1  0  0  0  0
 16 38  1  0  0  0  0
 16 17  1  0  0  0  0
 16 39  1  0  0  0  0
 17 19  1  0  0  0  0
 18 17  2  0  0  0  0
 19 40  1  0  0  0  0
 20 19  1  0  0  0  0
 20 25  1  0  0  0  0
 21 20  2  0  0  0  0
 22 21  1  0  0  0  0
 22 23  2  0  0  0  0
 23 24  1  0  0  0  0
 24 25  2  0  0  0  0
 24 42  1  0  0  0  0
 25 43  1  0  0  0  0
 26 27  1  0  0  0  0
 26 23  1  0  0  0  0
 27 45  1  0  0  0  0
 28 22  1  0  0  0  0
 28 29  1  0  0  0  0
 29 49  1  0  0  0  0
 29 47  1  0  0  0  0
 30 12  1  0  0  0  0
 30  8  1  0  0  0  0
 31 30  2  0  0  0  0
 34  6  1  0  0  0  0
 35  7  1  0  0  0  0
 36 13  1  0  0  0  0
 37 14  1  0  0  0  0
 41 21  1  0  0  0  0
 44 27  1  0  0  0  0
 46 27  1  0  0  0  0
 48 29  1  0  0  0  0
M  END
>  <Pose>
1

>  <Score>
-6.99

$$$$
