
 OpenBabel03202209553D

 50 53  0  0  0  0  0  0  0  0999 V2000
   27.1070    7.1940   28.7610 B   0  0  0  0  0  0  0  0  0  0  0  0
   25.5120    7.6820   29.6750 C   0  0  0  0  0  0  0  0  0  0  0  0
   24.2670    7.2050   29.3260 C   0  0  0  0  0  0  0  0  0  0  0  0
   23.1440    7.5730   30.0000 C   0  0  0  0  0  0  0  0  0  0  0  0
   23.2070    8.4490   31.0730 C   0  0  0  0  0  0  0  0  0  0  0  0
   24.4400    8.9310   31.4310 C   0  0  0  0  0  0  0  0  0  0  0  0
   25.5610    8.5510   30.7430 C   0  0  0  0  0  0  0  0  0  0  0  0
   22.0100    8.8120   31.7560 N   0  0  0  0  0  0  0  0  0  0  0  0
   21.7720   10.0540   32.2490 C   0  0  0  0  0  0  0  0  0  0  0  0
   22.5570   11.0510   32.1800 O   0  0  0  0  0  0  0  0  0  0  0  0
   20.5270   10.0830   32.8530 C   0  0  0  0  0  0  0  0  0  0  0  0
   20.0330    8.8550   32.7120 C   0  0  0  0  0  0  0  0  0  0  0  0
   18.8110    8.8560   33.2970 N   0  0  0  0  0  0  0  0  0  0  0  0
   18.5980   10.0790   33.7720 N   0  0  0  0  0  0  0  0  0  0  0  0
   19.6310   10.8600   33.5190 N   0  0  0  0  0  0  0  0  0  0  0  0
   19.8310   12.2650   33.8530 C   0  0  0  0  0  0  0  0  0  0  0  0
   19.9800   13.0580   32.5770 C   0  0  0  0  0  0  0  0  0  0  0  0
   18.9610   13.7430   32.3140 O   0  0  0  0  0  0  0  0  0  0  0  0
   21.1600   12.9730   31.8400 N   0  0  0  0  0  0  0  0  0  0  0  0
   21.7240   13.9710   31.0070 C   0  0  0  0  0  0  0  0  0  0  0  0
   21.5700   15.3260   31.1780 C   0  0  0  0  0  0  0  0  0  0  0  0
   22.1620   16.2520   30.3070 C   0  0  0  0  0  0  0  0  0  0  0  0
   22.9250   15.8430   29.2400 C   0  0  0  0  0  0  0  0  0  0  0  0
   23.0850   14.4910   29.0590 C   0  0  0  0  0  0  0  0  0  0  0  0
   22.5010   13.5800   29.9190 C   0  0  0  0  0  0  0  0  0  0  0  0
   23.5210   16.8430   28.3600 C   0  0  0  0  0  0  0  0  0  0  0  0
   24.6770   16.6270   27.9170 O   0  0  0  0  0  0  0  0  0  0  0  0
   22.9070   18.0040   27.9810 O   0  0  0  0  0  0  0  0  0  0  0  0
   22.8410   18.5220   26.6840 C   0  0  0  0  0  0  0  0  0  0  0  0
   22.1770   19.9010   26.7980 C   0  0  0  0  0  0  0  0  0  0  0  0
   20.9350    8.0640   32.0400 C   0  0  0  0  0  0  0  0  0  0  0  0
   20.8010    6.8580   31.7350 O   0  0  0  0  0  0  0  0  0  0  0  0
   24.2180    6.5200   28.4870 H   0  0  0  0  0  0  0  0  0  0  0  0
   22.1670    7.1700   29.6890 H   0  0  0  0  0  0  0  0  0  0  0  0
   24.5260    9.6160   32.2640 H   0  0  0  0  0  0  0  0  0  0  0  0
   26.5530    8.9290   31.0190 H   0  0  0  0  0  0  0  0  0  0  0  0
   18.1670    8.0410   33.3540 H   0  0  0  0  0  0  0  0  0  0  0  0
   17.7400   10.3710   34.2720 H   0  0  0  0  0  0  0  0  0  0  0  0
   19.0070   12.6590   34.4760 H   0  0  0  0  0  0  0  0  0  0  0  0
   20.7570   12.3140   34.4630 H   0  0  0  0  0  0  0  0  0  0  0  0
   21.6890   12.0480   31.9210 H   0  0  0  0  0  0  0  0  0  0  0  0
   20.9810   15.6740   32.0000 H   0  0  0  0  0  0  0  0  0  0  0  0
   22.0160   17.3210   30.4760 H   0  0  0  0  0  0  0  0  0  0  0  0
   23.6940   14.1780   28.2100 H   0  0  0  0  0  0  0  0  0  0  0  0
   22.6520   12.5060   29.7430 H   0  0  0  0  0  0  0  0  0  0  0  0
   23.8300   18.6890   26.2150 H   0  0  0  0  0  0  0  0  0  0  0  0
   22.2420   17.9120   25.9810 H   0  0  0  0  0  0  0  0  0  0  0  0
   22.9140   20.6000   27.2900 H   0  0  0  0  0  0  0  0  0  0  0  0
   21.2960   19.8660   27.4600 H   0  0  0  0  0  0  0  0  0  0  0  0
   21.8680   20.2930   25.8270 H   0  0  0  0  0  0  0  0  0  0  0  0
  1  2  1  0  0  0  0
  2  7  1  0  0  0  0
  3  2  2  0  0  0  0
  3  4  1  0  0  0  0
  4  5  2  0  0  0  0
  5  6  1  0  0  0  0
  5  8  1  0  0  0  0
  6 35  1  0  0  0  0
  7 36  1  0  0  0  0
  7  6  2  0  0  0  0
  8 31  1  0  0  0  0
  8  9  1  0  0  0  0
  9 11  1  0  0  0  0
 10  9  2  0  0  0  0
 11 15  1  0  0  0  0
 12 11  2  0  0  0  0
 12 13  1  0  0  0  0
 13 37  1  0  0  0  0
 13 14  1  0  0  0  0
 14 38  1  0  0  0  0
 15 14  1  0  0  0  0
 15 16  1  0  0  0  0
 16 40  1  0  0  0  0
 16 39  1  0  0  0  0
 17 16  1  0  0  0  0
 18 17  2  0  0  0  0
 19 41  1  0  0  0  0
 19 17  1  0  0  0  0
 20 21  1  0  0  0  0
 20 19  1  0  0  0  0
 21 42  1  0  0  0  0
 22 43  1  0  0  0  0
 22 21  2  0  0  0  0
 23 22  1  0  0  0  0
 24 23  2  0  0  0  0
 24 25  1  0  0  0  0
 25 20  2  0  0  0  0
 26 23  1  0  0  0  0
 27 26  2  0  0  0  0
 28 26  1  0  0  0  0
 29 30  1  0  0  0  0
 29 28  1  0  0  0  0
 30 48  1  0  0  0  0
 30 49  1  0  0  0  0
 31 12  1  0  0  0  0
 32 31  2  0  0  0  0
 33  3  1  0  0  0  0
 34  4  1  0  0  0  0
 44 24  1  0  0  0  0
 45 25  1  0  0  0  0
 46 29  1  0  0  0  0
 47 29  1  0  0  0  0
 50 30  1  0  0  0  0
M  END
>  <Pose>
1

>  <Score>
-7.19

$$$$
