
 OpenBabel03202209553D

 48 51  0  0  0  0  0  0  0  0999 V2000
   23.3230   19.0100   26.6450 B   0  0  0  0  0  0  0  0  0  0  0  0
   23.0990   17.4410   27.7080 C   0  0  0  0  0  0  0  0  0  0  0  0
   22.4120   17.4550   28.9040 C   0  0  0  0  0  0  0  0  0  0  0  0
   22.2550   16.3050   29.6620 C   0  0  0  0  0  0  0  0  0  0  0  0
   22.7760   15.0910   29.2640 C   0  0  0  0  0  0  0  0  0  0  0  0
   23.4670   15.0730   28.0660 C   0  0  0  0  0  0  0  0  0  0  0  0
   23.6240   16.2170   27.3110 C   0  0  0  0  0  0  0  0  0  0  0  0
   22.6330   13.8870   30.0110 N   0  0  0  0  0  0  0  0  0  0  0  0
   23.5840   12.9460   30.2690 C   0  0  0  0  0  0  0  0  0  0  0  0
   24.7690   13.0250   29.8650 O   0  0  0  0  0  0  0  0  0  0  0  0
   23.0660   11.9150   31.0220 C   0  0  0  0  0  0  0  0  0  0  0  0
   21.7940   12.2220   31.2280 C   0  0  0  0  0  0  0  0  0  0  0  0
   21.2590   11.2290   31.9630 N   0  0  0  0  0  0  0  0  0  0  0  0
   22.2080   10.3330   32.1940 N   0  0  0  0  0  0  0  0  0  0  0  0
   23.3340   10.7250   31.6280 N   0  0  0  0  0  0  0  0  0  0  0  0
   24.6020   10.0540   31.6200 C   0  0  0  0  0  0  0  0  0  0  0  0
   24.8090    9.1780   30.4060 C   0  0  0  0  0  0  0  0  0  0  0  0
   24.0780    9.4340   29.4240 O   0  0  0  0  0  0  0  0  0  0  0  0
   25.7560    8.1570   30.3880 N   0  0  0  0  0  0  0  0  0  0  0  0
   25.8160    6.9910   29.6060 C   0  0  0  0  0  0  0  0  0  0  0  0
   26.6100    6.9590   28.4590 C   0  0  0  0  0  0  0  0  0  0  0  0
   26.6840    5.8510   27.6580 C   0  0  0  0  0  0  0  0  0  0  0  0
   25.9530    4.7050   27.9730 C   0  0  0  0  0  0  0  0  0  0  0  0
   25.1830    4.7670   29.1090 C   0  0  0  0  0  0  0  0  0  0  0  0
   25.1060    5.8770   29.9180 C   0  0  0  0  0  0  0  0  0  0  0  0
   26.0530    3.6150   27.1390 O   0  0  0  0  0  0  0  0  0  0  0  0
   26.9230    2.5390   27.2740 C   0  0  0  0  0  0  0  0  0  0  0  0
   26.3880    1.4130   28.0910 C   0  0  0  0  0  0  0  0  0  0  0  0
   21.5280   13.4240   30.6130 C   0  0  0  0  0  0  0  0  0  0  0  0
   20.4150   14.0380   30.5940 O   0  0  0  0  0  0  0  0  0  0  0  0
   22.0000   18.4120   29.2190 H   0  0  0  0  0  0  0  0  0  0  0  0
   21.7170   16.3190   30.5970 H   0  0  0  0  0  0  0  0  0  0  0  0
   23.8760   14.1170   27.7560 H   0  0  0  0  0  0  0  0  0  0  0  0
   24.1660   16.1760   26.3800 H   0  0  0  0  0  0  0  0  0  0  0  0
   20.2870   11.1460   32.3070 H   0  0  0  0  0  0  0  0  0  0  0  0
   22.0720    9.4410   32.7520 H   0  0  0  0  0  0  0  0  0  0  0  0
   25.4360   10.8050   31.6270 H   0  0  0  0  0  0  0  0  0  0  0  0
   24.7340    9.3670   32.4990 H   0  0  0  0  0  0  0  0  0  0  0  0
   26.5730    8.2760   31.0840 H   0  0  0  0  0  0  0  0  0  0  0  0
   27.1810    7.8310   28.1950 H   0  0  0  0  0  0  0  0  0  0  0  0
   27.3180    5.8590   26.7620 H   0  0  0  0  0  0  0  0  0  0  0  0
   24.6010    3.9060   29.3920 H   0  0  0  0  0  0  0  0  0  0  0  0
   24.4740    5.8580   30.8160 H   0  0  0  0  0  0  0  0  0  0  0  0
   27.1230    2.1270   26.2390 H   0  0  0  0  0  0  0  0  0  0  0  0
   27.9070    2.8470   27.6880 H   0  0  0  0  0  0  0  0  0  0  0  0
   26.2060    0.4720   27.5340 H   0  0  0  0  0  0  0  0  0  0  0  0
   27.1090    1.1380   28.8960 H   0  0  0  0  0  0  0  0  0  0  0  0
   25.4360    1.6570   28.6320 H   0  0  0  0  0  0  0  0  0  0  0  0
  1  2  1  0  0  0  0
  2  3  1  0  0  0  0
  3 31  1  0  0  0  0
  3  4  2  0  0  0  0
  4 32  1  0  0  0  0
  5  4  1  0  0  0  0
  5  8  1  0  0  0  0
  6  5  2  0  0  0  0
  7  2  2  0  0  0  0
  7  6  1  0  0  0  0
  8  9  1  0  0  0  0
  8 29  1  0  0  0  0
  9 11  1  0  0  0  0
 10  9  2  0  0  0  0
 11 12  2  0  0  0  0
 11 15  1  0  0  0  0
 12 13  1  0  0  0  0
 13 14  1  0  0  0  0
 13 35  1  0  0  0  0
 14 36  1  0  0  0  0
 15 14  1  0  0  0  0
 16 37  1  0  0  0  0
 16 15  1  0  0  0  0
 16 38  1  0  0  0  0
 17 16  1  0  0  0  0
 18 17  2  0  0  0  0
 19 17  1  0  0  0  0
 19 39  1  0  0  0  0
 20 25  1  0  0  0  0
 20 19  1  0  0  0  0
 21 20  2  0  0  0  0
 22 23  2  0  0  0  0
 22 21  1  0  0  0  0
 23 24  1  0  0  0  0
 24 42  1  0  0  0  0
 24 25  2  0  0  0  0
 25 43  1  0  0  0  0
 26 27  1  0  0  0  0
 26 23  1  0  0  0  0
 27 45  1  0  0  0  0
 27 28  1  0  0  0  0
 28 48  1  0  0  0  0
 28 47  1  0  0  0  0
 29 12  1  0  0  0  0
 30 29  2  0  0  0  0
 33  6  1  0  0  0  0
 34  7  1  0  0  0  0
 40 21  1  0  0  0  0
 41 22  1  0  0  0  0
 44 27  1  0  0  0  0
 46 28  1  0  0  0  0
M  END
>  <Pose>
1

>  <Score>
-7.41

$$$$
