
 OpenBabel03202209553D

 41 44  0  0  1  0  0  0  0  0999 V2000
   25.2300    4.2240   30.5120 B   0  0  0  0  0  0  0  0  0  0  0  0
   24.6180    6.0490   30.4040 C   0  0  0  0  0  0  0  0  0  0  0  0
   23.2800    6.3230   30.5290 C   0  0  0  0  0  0  0  0  0  0  0  0
   22.8680    7.6150   30.4490 C   0  0  0  0  0  0  0  0  0  0  0  0
   23.7290    8.7000   30.2450 C   0  0  0  0  0  0  0  0  0  0  0  0
   25.0590    8.4000   30.1240 C   0  0  0  0  0  0  0  0  0  0  0  0
   25.5010    7.0930   30.2020 C   0  0  0  0  0  0  0  0  0  0  0  0
   23.2130   10.0130   30.1750 N   0  0  0  0  0  0  0  0  0  0  0  0
   22.2750   10.6560   31.0600 C   0  0  0  0  0  0  0  0  0  0  0  0
   22.0650   10.3580   32.2700 O   0  0  0  0  0  0  0  0  0  0  0  0
   21.6120   11.7250   30.2780 C   0  0  1  0  0  0  0  0  0  0  0  0
   21.2690   12.9050   31.0460 N   0  0  0  0  0  0  0  0  0  0  0  0
   21.5250   13.8950   30.0480 N   0  0  0  0  0  0  0  0  0  0  0  0
   22.7170   13.5370   29.3490 C   0  0  0  0  0  0  0  0  0  0  0  0
   22.7950   12.2170   29.4740 C   0  0  0  0  0  0  0  0  0  0  0  0
   23.5360   10.9960   29.1840 C   0  0  0  0  0  0  0  0  0  0  0  0
   24.3140   10.9150   28.1930 O   0  0  0  0  0  0  0  0  0  0  0  0
   23.6490   14.4110   28.6430 C   0  0  0  0  0  0  0  0  0  0  0  0
   24.8740   14.4180   28.9060 O   0  0  0  0  0  0  0  0  0  0  0  0
   23.2340   15.2800   27.6450 O   0  0  0  0  0  0  0  0  0  0  0  0
   22.9250   16.6390   27.9200 C   0  0  0  0  0  0  0  0  0  0  0  0
   23.5540   17.5120   26.8730 C   0  0  0  0  0  0  0  0  0  0  0  0
   24.3840   16.9570   25.9000 C   0  0  0  0  0  0  0  0  0  0  0  0
   24.9730   17.7160   24.9250 C   0  0  0  0  0  0  0  0  0  0  0  0
   24.7380   19.0880   24.9040 C   0  0  0  0  0  0  0  0  0  0  0  0
   23.9180   19.6320   25.8680 C   0  0  0  0  0  0  0  0  0  0  0  0
   23.3200   18.8480   26.8580 C   0  0  0  0  0  0  0  0  0  0  0  0
   22.5810    5.5030   30.6890 H   0  0  0  0  0  0  0  0  0  0  0  0
   21.8140    7.8350   30.5470 H   0  0  0  0  0  0  0  0  0  0  0  0
   25.7880    9.1860   29.9650 H   0  0  0  0  0  0  0  0  0  0  0  0
   26.5490    6.8480   30.1080 H   0  0  0  0  0  0  0  0  0  0  0  0
   20.7980   11.3760   29.6410 H   0  0  0  0  0  0  0  0  0  0  0  0
   22.0600   13.0200   31.7410 H   0  0  0  0  0  0  0  0  0  0  0  0
   20.9490   14.7370   29.8550 H   0  0  0  0  0  0  0  0  0  0  0  0
   21.8540   16.8250   28.0040 H   0  0  0  0  0  0  0  0  0  0  0  0
   23.4050   16.9080   28.8810 H   0  0  0  0  0  0  0  0  0  0  0  0
   24.5700   15.9060   25.9060 H   0  0  0  0  0  0  0  0  0  0  0  0
   25.6170   17.2940   24.1700 H   0  0  0  0  0  0  0  0  0  0  0  0
   25.1920   19.7220   24.1440 H   0  0  0  0  0  0  0  0  0  0  0  0
   23.6990   20.6800   25.9030 H   0  0  0  0  0  0  0  0  0  0  0  0
   22.6830   19.3060   27.5970 H   0  0  0  0  0  0  0  0  0  0  0  0
  2  1  1  0  0  0  0
  2  3  1  0  0  0  0
  3 28  1  0  0  0  0
  4  3  2  0  0  0  0
  4 29  1  0  0  0  0
  5  4  1  0  0  0  0
  6  7  1  0  0  0  0
  6  5  2  0  0  0  0
  7  2  2  0  0  0  0
  8  5  1  0  0  0  0
  8  9  1  0  0  0  0
  9 10  2  0  0  0  0
 11 32  1  6  0  0  0
 11 12  1  0  0  0  0
 11  9  1  0  0  0  0
 12 33  1  0  0  0  0
 13 12  1  0  0  0  0
 14 15  2  0  0  0  0
 14 13  1  0  0  0  0
 15 11  1  0  0  0  0
 16 15  1  0  0  0  0
 16  8  1  0  0  0  0
 17 16  2  0  0  0  0
 18 19  2  0  0  0  0
 18 14  1  0  0  0  0
 20 21  1  0  0  0  0
 20 18  1  0  0  0  0
 21 35  1  0  0  0  0
 21 36  1  0  0  0  0
 22 21  1  0  0  0  0
 23 37  1  0  0  0  0
 23 22  2  0  0  0  0
 24 23  1  0  0  0  0
 25 24  2  0  0  0  0
 25 26  1  0  0  0  0
 26 40  1  0  0  0  0
 26 27  2  0  0  0  0
 27 22  1  0  0  0  0
 27 41  1  0  0  0  0
 30  6  1  0  0  0  0
 31  7  1  0  0  0  0
 34 13  1  0  0  0  0
 38 24  1  0  0  0  0
 39 25  1  0  0  0  0
M  END
>  <Pose>
1

>  <Score>
-6.65

$$$$
