
 OpenBabel03202209553D

 45 48  0  0  1  0  0  0  0  0999 V2000
   23.0070   13.5480   30.7600 B   0  0  0  0  0  0  0  0  0  0  0  0
   23.2030   11.6520   30.6810 C   0  0  0  0  0  0  0  0  0  0  0  0
   24.0840   11.0380   31.5290 C   0  0  0  0  0  0  0  0  0  0  0  0
   24.2320    9.6570   31.4770 C   0  0  0  0  0  0  0  0  0  0  0  0
   23.5140    8.8830   30.5930 C   0  0  0  0  0  0  0  0  0  0  0  0
   22.6330    9.5220   29.7490 C   0  0  0  0  0  0  0  0  0  0  0  0
   22.4680   10.8970   29.7820 C   0  0  0  0  0  0  0  0  0  0  0  0
   23.7290    7.4790   30.6120 N   0  0  0  0  0  0  0  0  0  0  0  0
   22.6850    6.5890   31.0470 C   0  0  0  0  0  0  0  0  0  0  0  0
   21.5750    7.0640   31.4130 O   0  0  0  0  0  0  0  0  0  0  0  0
   22.9720    5.2090   31.0360 N   0  0  0  0  0  0  0  0  0  0  0  0
   24.0780    4.7090   30.6720 C   0  0  0  0  0  0  0  0  0  0  0  0
   25.2630    5.4650   30.1950 C   0  0  1  0  0  0  0  0  0  0  0  0
   26.4310    5.0780   31.0360 C   0  0  0  0  0  0  0  0  0  0  0  0
   27.7130    5.1610   30.4370 N   0  0  0  0  0  4  0  0  0  0  0  0
   27.7740    5.8310   29.1990 C   0  0  0  0  0  0  0  0  0  0  0  0
   26.6970    5.7700   28.3060 C   0  0  0  0  0  0  0  0  0  0  0  0
   26.7750    6.4260   27.1090 C   0  0  0  0  0  0  0  0  0  0  0  0
   27.8680    7.1610   26.7120 C   0  0  0  0  0  0  0  0  0  0  0  0
   28.9260    7.2190   27.5950 C   0  0  0  0  0  0  0  0  0  0  0  0
   28.8780    6.5630   28.8170 C   0  0  0  0  0  0  0  0  0  0  0  0
   27.9150    7.8610   25.4060 C   0  0  0  0  0  0  0  0  0  0  0  0
   25.5380    4.9670   28.7740 C   0  0  0  0  0  0  0  0  0  0  0  0
   28.3720    3.8470   30.3430 C   0  0  0  0  0  0  0  0  0  0  0  0
   24.9700    6.9140   30.2040 C   0  0  0  0  0  0  0  0  0  0  0  0
   25.8520    7.7570   29.8330 O   0  0  0  0  0  0  0  0  0  0  0  0
   24.2290    3.3060   30.7110 O   0  0  0  0  0  0  0  0  0  0  0  0
   24.6430   11.6540   32.2210 H   0  0  0  0  0  0  0  0  0  0  0  0
   24.9460    9.2330   32.1760 H   0  0  0  0  0  0  0  0  0  0  0  0
   22.0510    8.9440   29.0400 H   0  0  0  0  0  0  0  0  0  0  0  0
   21.7860   11.4260   29.1350 H   0  0  0  0  0  0  0  0  0  0  0  0
   26.3610    5.6460   31.9940 H   0  0  0  0  0  0  0  0  0  0  0  0
   26.2730    4.0010   31.3420 H   0  0  0  0  0  0  0  0  0  0  0  0
   28.3390    5.7100   31.1000 H   0  0  0  0  0  0  0  0  0  0  0  0
   25.9170    6.3560   26.4410 H   0  0  0  0  0  0  0  0  0  0  0  0
   29.8080    7.7870   27.3180 H   0  0  0  0  0  0  0  0  0  0  0  0
   29.7180    6.6210   29.4900 H   0  0  0  0  0  0  0  0  0  0  0  0
   28.9230    8.0710   25.0570 H   0  0  0  0  0  0  0  0  0  0  0  0
   27.2880    7.2930   24.6910 H   0  0  0  0  0  0  0  0  0  0  0  0
   27.3850    8.8440   25.5680 H   0  0  0  0  0  0  0  0  0  0  0  0
   24.6560    5.0840   28.1290 H   0  0  0  0  0  0  0  0  0  0  0  0
   25.8680    3.9180   28.8800 H   0  0  0  0  0  0  0  0  0  0  0  0
   28.1430    3.3460   29.3870 H   0  0  0  0  0  0  0  0  0  0  0  0
   28.0820    3.2440   31.2220 H   0  0  0  0  0  0  0  0  0  0  0  0
   29.4690    4.0080   30.3720 H   0  0  0  0  0  0  0  0  0  0  0  0
  2  1  1  0  0  0  0
  2  3  1  0  0  0  0
  3 28  1  0  0  0  0
  4  3  2  0  0  0  0
  4 29  1  0  0  0  0
  5  8  1  0  0  0  0
  5  4  1  0  0  0  0
  6  7  1  0  0  0  0
  6  5  2  0  0  0  0
  7  2  2  0  0  0  0
  8  9  1  0  0  0  0
  9 10  2  0  0  0  0
 11  9  1  0  0  0  0
 12 27  2  0  0  0  0
 12 11  1  0  0  0  0
 13 25  1  1  0  0  0
 13 12  1  0  0  0  0
 13 14  1  0  0  0  0
 14 33  1  0  0  0  0
 14 32  1  0  0  0  0
 15 14  1  0  0  0  0
 15 34  1  0  0  0  0
 16 15  1  0  0  0  0
 17 23  1  0  0  0  0
 17 16  2  0  0  0  0
 18 17  1  0  0  0  0
 19 18  2  0  0  0  0
 19 20  1  0  0  0  0
 20 21  2  0  0  0  0
 21 16  1  0  0  0  0
 21 37  1  0  0  0  0
 22 40  1  0  0  0  0
 22 19  1  0  0  0  0
 23 42  1  0  0  0  0
 23 13  1  0  0  0  0
 24 45  1  0  0  0  0
 24 15  1  0  0  0  0
 24 44  1  0  0  0  0
 25  8  1  0  0  0  0
 26 25  2  0  0  0  0
 30  6  1  0  0  0  0
 31  7  1  0  0  0  0
 35 18  1  0  0  0  0
 36 20  1  0  0  0  0
 38 22  1  0  0  0  0
 39 22  1  0  0  0  0
 41 23  1  0  0  0  0
 43 24  1  0  0  0  0
M  END
>  <Pose>
1

>  <Score>
-5.46

$$$$
