
 OpenBabel03202209553D

 49 52  0  0  1  0  0  0  0  0999 V2000
   25.7370   11.4510   29.8160 B   0  0  0  0  0  0  0  0  0  0  0  0
   24.1290   10.5570   30.3640 C   0  0  0  0  0  0  0  0  0  0  0  0
   23.1530   10.2780   29.4330 C   0  0  0  0  0  0  0  0  0  0  0  0
   21.9820    9.6270   29.8330 C   0  0  0  0  0  0  0  0  0  0  0  0
   21.7890    9.2600   31.1440 C   0  0  0  0  0  0  0  0  0  0  0  0
   22.7740    9.5470   32.0560 C   0  0  0  0  0  0  0  0  0  0  0  0
   23.9320   10.1870   31.6780 C   0  0  0  0  0  0  0  0  0  0  0  0
   20.6320    8.6180   31.5280 O   0  0  0  0  0  0  0  0  0  0  0  0
   20.6670    7.7030   32.5850 C   0  0  0  0  0  0  0  0  0  0  0  0
   20.0240    6.4160   32.2610 C   0  0  0  0  0  0  0  0  0  0  0  0
   18.9970    6.0650   32.8670 O   0  0  0  0  0  0  0  0  0  0  0  0
   20.5790    5.5900   31.2630 N   0  0  0  0  0  0  0  0  0  0  0  0
   21.9440    5.1790   31.2730 C   0  0  0  0  0  0  0  0  0  0  0  0
   22.3800    4.2270   32.1180 N   0  0  0  0  0  0  0  0  0  0  0  0
   23.6530    3.8680   32.0970 C   0  0  0  0  0  0  0  0  0  0  0  0
   24.3150    2.9590   32.8260 N   0  0  0  0  0  0  0  0  0  0  0  0
   25.5940    3.0020   32.3890 C   0  0  0  0  0  0  0  0  0  0  0  0
   25.7190    3.9110   31.4170 N   0  0  0  0  0  0  0  0  0  0  0  0
   24.5330    4.4820   31.1970 C   0  0  0  0  0  0  0  0  0  0  0  0
   24.0920    5.4600   30.3260 C   0  0  0  0  0  0  0  0  0  0  0  0
   22.7970    5.7820   30.3930 N   0  0  0  0  0  0  0  0  0  0  0  0
   25.0070    6.0350   29.4560 O   0  0  0  0  0  0  0  0  0  0  0  0
   23.8800    2.0910   33.8520 C   0  0  2  0  0  0  0  0  0  0  0  0
   24.7650    2.0810   34.9380 O   0  0  0  0  0  0  0  0  0  0  0  0
   25.5230    0.9370   34.7040 C   0  0  2  0  0  0  0  0  0  0  0  0
   24.4150   -0.0820   34.4850 C   0  0  1  0  0  0  0  0  0  0  0  0
   23.5660    0.7020   33.4870 C   0  0  1  0  0  0  0  0  0  0  0  0
   22.2000    0.3980   33.6760 O   0  0  0  0  0  0  0  0  0  0  0  0
   24.8590   -1.2800   34.0000 O   0  0  0  0  0  0  0  0  0  0  0  0
   26.4010    0.5800   35.8680 C   0  0  0  0  0  0  0  0  0  0  0  0
   27.1930    1.6080   36.3010 O   0  0  0  0  0  0  0  0  0  0  0  0
   23.3120   10.5680   28.4110 H   0  0  0  0  0  0  0  0  0  0  0  0
   21.2650    9.4430   29.0510 H   0  0  0  0  0  0  0  0  0  0  0  0
   22.6930    9.2860   33.1160 H   0  0  0  0  0  0  0  0  0  0  0  0
   24.7230   10.4240   32.3800 H   0  0  0  0  0  0  0  0  0  0  0  0
   20.0760    8.1490   33.4310 H   0  0  0  0  0  0  0  0  0  0  0  0
   21.6870    7.5580   32.9960 H   0  0  0  0  0  0  0  0  0  0  0  0
   19.9790    5.2470   30.4580 H   0  0  0  0  0  0  0  0  0  0  0  0
   26.4330    2.3930   32.7560 H   0  0  0  0  0  0  0  0  0  0  0  0
   24.6040    6.5210   28.6470 H   0  0  0  0  0  0  0  0  0  0  0  0
   22.9360    2.5350   34.2980 H   0  0  0  0  0  0  0  0  0  0  0  0
   26.0840    0.9840   33.7500 H   0  0  0  0  0  0  0  0  0  0  0  0
   23.8130   -0.1950   35.4110 H   0  0  0  0  0  0  0  0  0  0  0  0
   23.8190    0.3630   32.4980 H   0  0  0  0  0  0  0  0  0  0  0  0
   21.7040    1.1320   33.2350 H   0  0  0  0  0  0  0  0  0  0  0  0
   24.3270   -1.6100   33.2070 H   0  0  0  0  0  0  0  0  0  0  0  0
   26.9520   -0.3400   35.5910 H   0  0  0  0  0  0  0  0  0  0  0  0
   25.7200    0.2820   36.7040 H   0  0  0  0  0  0  0  0  0  0  0  0
   26.6970    2.4590   36.1830 H   0  0  0  0  0  0  0  0  0  0  0  0
  1  2  1  0  0  0  0
  2  7  1  0  0  0  0
  3  4  1  0  0  0  0
  3  2  2  0  0  0  0
  4  5  2  0  0  0  0
  5  8  1  0  0  0  0
  5  6  1  0  0  0  0
  6 34  1  0  0  0  0
  7  6  2  0  0  0  0
  7 35  1  0  0  0  0
  8  9  1  0  0  0  0
  9 37  1  0  0  0  0
  9 36  1  0  0  0  0
 10  9  1  0  0  0  0
 10 11  2  0  0  0  0
 12 13  1  0  0  0  0
 12 10  1  0  0  0  0
 13 14  2  0  0  0  0
 15 14  1  0  0  0  0
 15 16  1  0  0  0  0
 16 23  1  0  0  0  0
 17 39  1  0  0  0  0
 17 16  1  0  0  0  0
 18 17  2  0  0  0  0
 19 18  1  0  0  0  0
 19 15  2  0  0  0  0
 20 21  2  0  0  0  0
 20 19  1  0  0  0  0
 21 13  1  0  0  0  0
 22 20  1  0  0  0  0
 23 41  1  1  0  0  0
 23 24  1  0  0  0  0
 25 42  1  6  0  0  0
 25 24  1  0  0  0  0
 25 30  1  0  0  0  0
 26 25  1  0  0  0  0
 26 43  1  1  0  0  0
 27 44  1  6  0  0  0
 27 28  1  0  0  0  0
 27 23  1  0  0  0  0
 27 26  1  0  0  0  0
 29 26  1  0  0  0  0
 30 31  1  0  0  0  0
 30 48  1  0  0  0  0
 32  3  1  0  0  0  0
 33  4  1  0  0  0  0
 38 12  1  0  0  0  0
 40 22  1  0  0  0  0
 45 28  1  0  0  0  0
 46 29  1  0  0  0  0
 47 30  1  0  0  0  0
 49 31  1  0  0  0  0
M  END
>  <Pose>
1

>  <Score>
-7.71

$$$$
