
 OpenBabel03202209553D

 39 43  0  0  1  0  0  0  0  0999 V2000
   20.9830   15.8070   31.9480 B   0  0  0  0  0  0  0  0  0  0  0  0
   22.0470   15.7770   30.3580 C   0  0  0  0  0  0  0  0  0  0  0  0
   22.2140   16.9260   29.6080 C   0  0  0  0  0  0  0  0  0  0  0  0
   22.9740   16.9190   28.4560 C   0  0  0  0  0  0  0  0  0  0  0  0
   23.6070   15.8060   27.9580 C   0  0  0  0  0  0  0  0  0  0  0  0
   23.4370   14.6710   28.7040 C   0  0  0  0  0  0  0  0  0  0  0  0
   22.6820   14.6190   29.8780 C   0  0  0  0  0  0  0  0  0  0  0  0
   22.4010   13.3590   30.5660 C   0  0  0  0  0  0  0  0  0  0  0  0
   23.2130   12.2350   30.3490 N   0  0  2  0  0  4  0  0  0  0  0  0
   22.4740   11.1950   31.1510 C   0  0  0  0  0  0  0  0  0  0  0  0
   23.1920   10.0150   31.3850 N   0  0  2  0  0  0  0  0  0  0  0  0
   24.4320   10.3860   32.0440 C   0  0  0  0  0  0  0  0  0  0  0  0
   25.1930   11.1780   31.1090 N   0  0  2  0  0  0  0  0  0  0  0  0
   24.5670   12.4370   30.8640 C   0  0  0  0  0  0  0  0  0  0  0  0
   25.4140   10.5140   29.8190 C   0  0  0  0  0  0  0  0  0  0  0  0
   24.1070   10.3240   29.2110 N   0  0  2  0  0  0  0  0  0  0  0  0
   23.3820   11.6050   29.0770 C   0  0  0  0  0  0  0  0  0  0  0  0
   23.4050    9.4000   30.0690 C   0  0  0  0  0  0  0  0  0  0  0  0
   24.2340   16.2340   26.7990 O   0  0  0  0  0  0  0  0  0  0  0  0
   23.4740   17.3580   26.2760 C   0  0  0  0  0  0  0  0  0  0  0  0
   23.2480   18.0020   27.5660 O   0  0  0  0  0  0  0  0  0  0  0  0
   21.6990   17.7710   29.9990 H   0  0  0  0  0  0  0  0  0  0  0  0
   23.9470   13.7380   28.3240 H   0  0  0  0  0  0  0  0  0  0  0  0
   21.3490   13.0210   30.1940 H   0  0  0  0  0  0  0  0  0  0  0  0
   22.1820   13.6320   31.6290 H   0  0  0  0  0  0  0  0  0  0  0  0
   21.5990   10.9840   30.4630 H   0  0  0  0  0  0  0  0  0  0  0  0
   22.0550   11.6220   32.0550 H   0  0  0  0  0  0  0  0  0  0  0  0
   25.0050    9.5530   32.4620 H   0  0  0  0  0  0  0  0  0  0  0  0
   24.1140   11.0980   32.8630 H   0  0  0  0  0  0  0  0  0  0  0  0
   24.6490   13.0430   31.7420 H   0  0  0  0  0  0  0  0  0  0  0  0
   25.1090   12.8780   29.9680 H   0  0  0  0  0  0  0  0  0  0  0  0
   26.1070   11.1210   29.2540 H   0  0  0  0  0  0  0  0  0  0  0  0
   25.7870    9.5020   30.0690 H   0  0  0  0  0  0  0  0  0  0  0  0
   22.4400   11.3670   28.5260 H   0  0  0  0  0  0  0  0  0  0  0  0
   24.0380   12.2510   28.4290 H   0  0  0  0  0  0  0  0  0  0  0  0
   22.4420    9.0900   29.6940 H   0  0  0  0  0  0  0  0  0  0  0  0
   24.1140    8.5620   30.2480 H   0  0  0  0  0  0  0  0  0  0  0  0
   22.4230   17.0550   25.9960 H   0  0  0  0  0  0  0  0  0  0  0  0
   24.0120   17.9610   25.5810 H   0  0  0  0  0  0  0  0  0  0  0  0
  2  1  1  0  0  0  0
  3 22  1  0  0  0  0
  3  2  2  0  0  0  0
  4  3  1  0  0  0  0
  5  4  2  0  0  0  0
  5  6  1  0  0  0  0
  6  7  2  0  0  0  0
  7  2  1  0  0  0  0
  7  8  1  0  0  0  0
  8 25  1  0  0  0  0
  9  8  1  6  0  0  0
  9 14  1  0  0  0  0
  9 10  1  0  0  0  0
 10 11  1  0  0  0  0
 10 27  1  0  0  0  0
 11 18  1  6  0  0  0
 11 12  1  0  0  0  0
 12 28  1  0  0  0  0
 12 29  1  0  0  0  0
 13 15  1  6  0  0  0
 13 12  1  0  0  0  0
 14 13  1  0  0  0  0
 14 30  1  0  0  0  0
 15 33  1  0  0  0  0
 16 17  1  1  0  0  0
 16 15  1  0  0  0  0
 16 18  1  0  0  0  0
 17  9  1  0  0  0  0
 18 37  1  0  0  0  0
 19  5  1  0  0  0  0
 20 19  1  0  0  0  0
 20 21  1  0  0  0  0
 21  4  1  0  0  0  0
 23  6  1  0  0  0  0
 24  8  1  0  0  0  0
 26 10  1  0  0  0  0
 31 14  1  0  0  0  0
 32 15  1  0  0  0  0
 34 17  1  0  0  0  0
 35 17  1  0  0  0  0
 36 18  1  0  0  0  0
 38 20  1  0  0  0  0
 39 20  1  0  0  0  0
M  END
>  <Pose>
1

>  <Score>
-5.24

$$$$
