
 OpenBabel03202209553D

 53 57  0  0  1  0  0  0  0  0999 V2000
   22.3350   14.1000   30.5510 B   0  0  0  0  0  0  0  0  0  0  0  0
   23.1520   15.1410   29.1910 C   0  0  0  0  0  0  0  0  0  0  0  0
   22.5830   16.3040   28.7300 C   0  0  0  0  0  0  0  0  0  0  0  0
   23.1600   17.0580   27.7560 C   0  0  0  0  0  0  0  0  0  0  0  0
   24.3550   16.6520   27.2040 C   0  0  0  0  0  0  0  0  0  0  0  0
   24.9530   15.4700   27.6570 C   0  0  0  0  0  0  0  0  0  0  0  0
   24.3680   14.7010   28.6480 C   0  0  0  0  0  0  0  0  0  0  0  0
   24.9200   13.4970   29.1490 N   0  0  0  0  0  0  0  0  0  0  0  0
   24.3580   12.2130   28.9890 C   0  0  0  0  0  0  0  0  0  0  0  0
   24.7450   11.3470   28.1870 O   0  0  0  0  0  0  0  0  0  0  0  0
   23.1800   11.8520   29.8650 C   0  0  0  0  0  0  0  0  0  0  0  0
   23.0450   10.4210   30.0100 N   0  0  0  0  0  0  0  0  0  0  0  0
   22.6240    9.7320   28.8850 C   0  0  0  0  0  0  0  0  0  0  0  0
   21.8390    8.4830   29.0150 C   0  0  0  0  0  0  0  0  0  0  0  0
   22.0100    7.9610   30.3400 N   0  0  0  0  0  0  0  0  0  0  0  0
   21.6860    8.8970   31.3870 C   0  0  0  0  0  0  0  0  0  0  0  0
   22.7140    9.9960   31.3140 C   0  0  0  0  0  0  0  0  0  0  0  0
   22.4490    6.6720   30.6820 C   0  0  1  0  0  0  0  0  0  0  0  0
   21.7600    5.8280   31.4910 N   0  0  0  0  0  0  0  0  0  0  0  0
   22.2060    4.5970   31.7990 C   0  0  0  0  0  0  0  0  0  0  0  0
   23.3720    4.1390   31.3110 N   0  0  0  0  0  0  0  0  0  0  0  0
   24.1240    4.9080   30.4980 C   0  0  0  0  0  0  0  0  0  0  0  0
   25.3130    4.7130   29.8720 N   0  0  0  0  0  0  0  0  0  0  0  0
   25.5630    5.8230   29.2020 N   0  0  0  0  0  0  0  0  0  0  0  0
   24.5960    6.7290   29.3610 C   0  0  0  0  0  0  0  0  0  0  0  0
   23.6560    6.1610   30.1930 C   0  0  0  0  0  0  0  0  0  0  0  0
   26.1310    3.5010   29.9480 C   0  0  0  0  0  0  0  0  0  0  0  0
   24.9190   17.4280   26.2240 O   0  0  0  0  0  0  0  0  0  0  0  0
   24.1960   18.3100   25.4000 C   0  0  0  0  0  0  0  0  0  0  0  0
   22.7980   18.5500   25.8730 C   0  0  0  0  0  0  0  0  0  0  0  0
   22.6210   18.2380   27.2610 O   0  0  0  0  0  0  0  0  0  0  0  0
   21.6440   16.6330   29.1590 H   0  0  0  0  0  0  0  0  0  0  0  0
   25.8790   15.1870   27.2080 H   0  0  0  0  0  0  0  0  0  0  0  0
   25.8360   13.5650   29.6930 H   0  0  0  0  0  0  0  0  0  0  0  0
   23.4040   12.3000   30.8520 H   0  0  0  0  0  0  0  0  0  0  0  0
   22.2710   12.3360   29.4600 H   0  0  0  0  0  0  0  0  0  0  0  0
   22.0250   10.4330   28.2280 H   0  0  0  0  0  0  0  0  0  0  0  0
   23.5230    9.5110   28.2320 H   0  0  0  0  0  0  0  0  0  0  0  0
   20.7480    8.6470   28.8370 H   0  0  0  0  0  0  0  0  0  0  0  0
   22.1430    7.7690   28.2230 H   0  0  0  0  0  0  0  0  0  0  0  0
   21.6640    8.4390   32.3780 H   0  0  0  0  0  0  0  0  0  0  0  0
   20.6930    9.3830   31.1910 H   0  0  0  0  0  0  0  0  0  0  0  0
   23.6360    9.6950   31.8530 H   0  0  0  0  0  0  0  0  0  0  0  0
   22.2970   10.8620   31.8750 H   0  0  0  0  0  0  0  0  0  0  0  0
   21.5700    4.0100   32.4570 H   0  0  0  0  0  0  0  0  0  0  0  0
   24.4890    7.7260   28.9580 H   0  0  0  0  0  0  0  0  0  0  0  0
   26.5040    3.1860   28.9560 H   0  0  0  0  0  0  0  0  0  0  0  0
   27.0270    3.6530   30.5930 H   0  0  0  0  0  0  0  0  0  0  0  0
   25.5230    2.7100   30.4370 H   0  0  0  0  0  0  0  0  0  0  0  0
   24.7760   19.2660   25.3010 H   0  0  0  0  0  0  0  0  0  0  0  0
   24.1510   17.8520   24.3700 H   0  0  0  0  0  0  0  0  0  0  0  0
   22.1070   17.8520   25.3200 H   0  0  0  0  0  0  0  0  0  0  0  0
   22.4420   19.5640   25.6540 H   0  0  0  0  0  0  0  0  0  0  0  0
  2  1  1  0  0  0  0
  3 32  1  0  0  0  0
  3  2  1  0  0  0  0
  4  3  2  0  0  0  0
  5  6  2  0  0  0  0
  5  4  1  0  0  0  0
  6  7  1  0  0  0  0
  7  8  1  0  0  0  0
  7  2  2  0  0  0  0
  8 34  1  0  0  0  0
  9  8  1  0  0  0  0
  9 11  1  0  0  0  0
 10  9  2  0  0  0  0
 11 12  1  0  0  0  0
 11 35  1  0  0  0  0
 12 17  1  0  0  0  0
 13 14  1  0  0  0  0
 13 12  1  0  0  0  0
 14 15  1  0  0  0  0
 15 16  1  0  0  0  0
 16 41  1  0  0  0  0
 17 16  1  0  0  0  0
 17 43  1  0  0  0  0
 17 44  1  0  0  0  0
 18 15  1  6  0  0  0
 18 19  1  0  0  0  0
 19 20  2  0  0  0  0
 20 45  1  0  0  0  0
 21 20  1  0  0  0  0
 22 21  1  0  0  0  0
 23 27  1  0  0  0  0
 23 22  1  0  0  0  0
 24 25  2  0  0  0  0
 24 23  1  0  0  0  0
 25 26  1  0  0  0  0
 26 22  2  0  0  0  0
 26 18  1  0  0  0  0
 27 49  1  0  0  0  0
 27 48  1  0  0  0  0
 28  5  1  0  0  0  0
 29 30  1  0  0  0  0
 29 28  1  0  0  0  0
 30 31  1  0  0  0  0
 31  4  1  0  0  0  0
 33  6  1  0  0  0  0
 36 11  1  0  0  0  0
 37 13  1  0  0  0  0
 38 13  1  0  0  0  0
 39 14  1  0  0  0  0
 40 14  1  0  0  0  0
 42 16  1  0  0  0  0
 46 25  1  0  0  0  0
 47 27  1  0  0  0  0
 50 29  1  0  0  0  0
 51 29  1  0  0  0  0
 52 30  1  0  0  0  0
 53 30  1  0  0  0  0
M  END
>  <Pose>
1

>  <Score>
-7.38

$$$$
