
 OpenBabel03202209553D

 44 47  0  0  0  0  0  0  0  0999 V2000
   18.0610    8.2600   33.3820 B   0  0  0  0  0  0  0  0  0  0  0  0
   19.6580    7.6140   32.5620 C   0  0  0  0  0  0  0  0  0  0  0  0
   20.6940    8.4830   32.2670 C   0  0  0  0  0  0  0  0  0  0  0  0
   21.8670    8.0420   31.6710 C   0  0  0  0  0  0  0  0  0  0  0  0
   21.9380    6.6900   31.3930 C   0  0  0  0  0  0  0  0  0  0  0  0
   20.9250    5.8060   31.6750 C   0  0  0  0  0  0  0  0  0  0  0  0
   19.7740    6.2690   32.2650 C   0  0  0  0  0  0  0  0  0  0  0  0
   23.1040    6.2450   30.7990 C   0  0  0  0  0  0  0  0  0  0  0  0
   23.2340    5.0090   30.5150 O   0  0  0  0  0  0  0  0  0  0  0  0
   24.1040    7.1560   30.5280 C   0  0  0  0  0  0  0  0  0  0  0  0
   23.9750    8.4910   30.8300 C   0  0  0  0  0  0  0  0  0  0  0  0
   22.8510    8.8610   31.3910 O   0  0  0  0  0  0  0  0  0  0  0  0
   25.0670    9.4220   30.5220 C   0  0  0  0  0  0  0  0  0  0  0  0
   26.1130    8.9500   29.9880 O   0  0  0  0  0  0  0  0  0  0  0  0
   24.9940   10.8020   30.7960 N   0  0  0  0  0  0  0  0  0  0  0  0
   25.4580   11.7360   29.8010 C   0  0  0  0  0  0  0  0  0  0  0  0
   24.4130   12.7640   29.4260 C   0  0  0  0  0  0  0  0  0  0  0  0
   23.5920   13.0020   30.5550 N   0  0  0  0  0  0  0  0  0  0  0  0
   24.2860   12.8800   31.7760 C   0  0  0  0  0  0  0  0  0  0  0  0
   24.4790   11.3720   32.0170 C   0  0  0  0  0  0  0  0  0  0  0  0
   22.2690   12.5260   30.5010 C   0  0  0  0  0  0  0  0  0  0  0  0
   21.2980   13.2580   31.3100 C   0  0  0  0  0  0  0  0  0  0  0  0
   20.3960   12.7040   32.1360 N   0  0  0  0  0  0  0  0  0  0  0  0
   19.7260   13.6630   32.6680 O   0  0  0  0  0  0  0  0  0  0  0  0
   20.1370   14.8300   32.2370 N   0  0  0  0  0  0  0  0  0  0  0  0
   21.1450   14.6170   31.3630 C   0  0  0  0  0  0  0  0  0  0  0  0
   21.9210   15.6530   30.6180 C   0  0  0  0  0  0  0  0  0  0  0  0
   20.5850    9.5230   32.5070 H   0  0  0  0  0  0  0  0  0  0  0  0
   21.0510    4.7620   31.4280 H   0  0  0  0  0  0  0  0  0  0  0  0
   18.9620    5.5780   32.4940 H   0  0  0  0  0  0  0  0  0  0  0  0
   25.0160    6.7900   30.0610 H   0  0  0  0  0  0  0  0  0  0  0  0
   25.8370   11.2010   28.8880 H   0  0  0  0  0  0  0  0  0  0  0  0
   26.3470   12.2960   30.2210 H   0  0  0  0  0  0  0  0  0  0  0  0
   23.8320   12.4030   28.5380 H   0  0  0  0  0  0  0  0  0  0  0  0
   24.9310   13.7120   29.0940 H   0  0  0  0  0  0  0  0  0  0  0  0
   25.3030   13.3060   31.6580 H   0  0  0  0  0  0  0  0  0  0  0  0
   23.7980   13.2970   32.6580 H   0  0  0  0  0  0  0  0  0  0  0  0
   25.1970   11.2040   32.8470 H   0  0  0  0  0  0  0  0  0  0  0  0
   23.5250   10.9130   32.3380 H   0  0  0  0  0  0  0  0  0  0  0  0
   22.2500   11.4530   30.7790 H   0  0  0  0  0  0  0  0  0  0  0  0
   21.9250   12.5530   29.4270 H   0  0  0  0  0  0  0  0  0  0  0  0
   22.9560   15.2790   30.3900 H   0  0  0  0  0  0  0  0  0  0  0  0
   21.4080   15.8530   29.6750 H   0  0  0  0  0  0  0  0  0  0  0  0
   22.0660   16.5530   31.2530 H   0  0  0  0  0  0  0  0  0  0  0  0
  2  1  1  0  0  0  0
  3 28  1  0  0  0  0
  3  2  1  0  0  0  0
  4  3  2  0  0  0  0
  5  4  1  0  0  0  0
  5  6  2  0  0  0  0
  6  7  1  0  0  0  0
  7 30  1  0  0  0  0
  7  2  2  0  0  0  0
  8  5  1  0  0  0  0
  9  8  2  0  0  0  0
 10  8  1  0  0  0  0
 10 11  2  0  0  0  0
 11 12  1  0  0  0  0
 12  4  1  0  0  0  0
 13 15  1  0  0  0  0
 13 11  1  0  0  0  0
 14 13  2  0  0  0  0
 15 20  1  0  0  0  0
 16 33  1  0  0  0  0
 16 15  1  0  0  0  0
 17 16  1  0  0  0  0
 17 18  1  0  0  0  0
 18 19  1  0  0  0  0
 19 20  1  0  0  0  0
 19 37  1  0  0  0  0
 20 39  1  0  0  0  0
 20 38  1  0  0  0  0
 21 18  1  0  0  0  0
 21 40  1  0  0  0  0
 21 22  1  0  0  0  0
 22 26  1  0  0  0  0
 22 23  2  0  0  0  0
 23 24  1  0  0  0  0
 25 24  1  0  0  0  0
 26 25  2  0  0  0  0
 27 44  1  0  0  0  0
 27 26  1  0  0  0  0
 29  6  1  0  0  0  0
 31 10  1  0  0  0  0
 32 16  1  0  0  0  0
 34 17  1  0  0  0  0
 35 17  1  0  0  0  0
 36 19  1  0  0  0  0
 41 21  1  0  0  0  0
 42 27  1  0  0  0  0
 43 27  1  0  0  0  0
M  END
>  <Pose>
1

>  <Score>
-7.25

$$$$
