
 OpenBabel03202209553D

 36 39  0  0  1  0  0  0  0  0999 V2000
   22.7430    9.1790   31.3570 B   0  0  0  0  0  0  0  0  0  0  0  0
   23.0710   10.8960   30.5460 C   0  0  0  0  0  0  0  0  0  0  0  0
   22.4730   12.0310   31.0270 C   0  0  0  0  0  0  0  0  0  0  0  0
   22.7230   13.2490   30.4310 C   0  0  0  0  0  0  0  0  0  0  0  0
   23.5770   13.2690   29.3610 C   0  0  0  0  0  0  0  0  0  0  0  0
   24.1920   12.1010   28.8680 C   0  0  0  0  0  0  0  0  0  0  0  0
   23.9320   10.9000   29.4720 C   0  0  0  0  0  0  0  0  0  0  0  0
   23.7340   14.5920   28.8570 N   0  0  0  0  0  0  0  0  0  0  0  0
   22.9470   15.4480   29.6380 C   0  0  0  0  0  0  0  0  0  0  0  0
   22.8450   16.7010   29.4710 O   0  0  0  0  0  0  0  0  0  0  0  0
   22.2520   14.6310   30.6940 C   0  0  2  0  0  0  0  0  0  0  0  0
   22.7130   15.1580   31.9730 C   0  0  0  0  0  0  0  0  0  0  0  0
   21.8500   15.7460   32.8460 C   0  0  0  0  0  0  0  0  0  0  0  0
   22.5900   16.1240   33.9300 N   0  0  0  0  0  0  0  0  0  0  0  0
   23.8530   15.7970   33.7560 N   0  0  0  0  0  0  0  0  0  0  0  0
   23.9760   15.2030   32.5710 C   0  0  0  0  0  0  0  0  0  0  0  0
   25.2000   14.6500   31.9120 C   0  0  0  0  0  0  0  0  0  0  0  0
   20.4830   15.8820   32.5840 O   0  0  0  0  0  0  0  0  0  0  0  0
   20.0470   15.3780   31.3630 C   0  0  0  0  0  0  0  0  0  0  0  0
   20.8270   14.8040   30.4840 C   0  0  0  0  0  0  0  0  0  0  0  0
   20.1930   14.3280   29.2420 C   0  0  0  0  0  0  0  0  0  0  0  0
   19.7010   13.9300   28.2600 N   0  0  0  0  0  0  0  0  0  0  0  0
   18.6340   15.4910   31.0340 N   0  0  0  0  0  0  0  0  0  0  0  0
   24.5710   15.0010   27.7180 C   0  0  0  0  0  0  0  0  0  0  0  0
   21.8030   11.9960   31.8710 H   0  0  0  0  0  0  0  0  0  0  0  0
   24.8670   12.1210   28.0220 H   0  0  0  0  0  0  0  0  0  0  0  0
   24.3990    9.9720   29.1080 H   0  0  0  0  0  0  0  0  0  0  0  0
   24.6660   15.9540   34.4060 H   0  0  0  0  0  0  0  0  0  0  0  0
   26.0440   14.8310   32.6260 H   0  0  0  0  0  0  0  0  0  0  0  0
   25.1430   13.5380   31.8130 H   0  0  0  0  0  0  0  0  0  0  0  0
   25.4580   15.1660   30.9880 H   0  0  0  0  0  0  0  0  0  0  0  0
   18.3580   15.0350   30.1410 H   0  0  0  0  0  0  0  0  0  0  0  0
   17.9580   15.9760   31.6200 H   0  0  0  0  0  0  0  0  0  0  0  0
   23.9000   15.4570   26.9640 H   0  0  0  0  0  0  0  0  0  0  0  0
   25.2120   15.8220   28.1160 H   0  0  0  0  0  0  0  0  0  0  0  0
   25.1710   14.1730   27.3420 H   0  0  0  0  0  0  0  0  0  0  0  0
  2  3  1  0  0  0  0
  2  1  1  0  0  0  0
  3 25  1  0  0  0  0
  4 11  1  0  0  0  0
  4  3  2  0  0  0  0
  5  4  1  0  0  0  0
  6  5  2  0  0  0  0
  6  7  1  0  0  0  0
  7  2  2  0  0  0  0
  8  5  1  0  0  0  0
  8  9  1  0  0  0  0
 10  9  2  0  0  0  0
 11  9  1  6  0  0  0
 11 12  1  0  0  0  0
 12 16  2  0  0  0  0
 12 13  1  0  0  0  0
 13 14  2  0  0  0  0
 15 14  1  0  0  0  0
 15 28  1  0  0  0  0
 16 15  1  0  0  0  0
 17 16  1  0  0  0  0
 17 29  1  0  0  0  0
 18 13  1  0  0  0  0
 19 18  1  0  0  0  0
 20 11  1  0  0  0  0
 20 19  2  0  0  0  0
 21 20  1  0  0  0  0
 22 21  3  0  0  0  0
 23 19  1  0  0  0  0
 23 33  1  0  0  0  0
 24 35  1  0  0  0  0
 24  8  1  0  0  0  0
 26  6  1  0  0  0  0
 27  7  1  0  0  0  0
 30 17  1  0  0  0  0
 31 17  1  0  0  0  0
 32 23  1  0  0  0  0
 34 24  1  0  0  0  0
 36 24  1  0  0  0  0
M  END
>  <Pose>
1

>  <Score>
-4.50

$$$$
