
 OpenBabel03202209553D

 39 42  0  0  1  0  0  0  0  0999 V2000
   31.0650   13.7020   21.6370 B   0  0  0  0  0  0  0  0  0  0  0  0
   30.0050   13.6630   23.2170 C   0  0  0  0  0  0  0  0  0  0  0  0
   29.7450   14.8320   23.8970 C   0  0  0  0  0  0  0  0  0  0  0  0
   28.9690   14.8300   25.0610 C   0  0  0  0  0  0  0  0  0  0  0  0
   28.4840   13.6380   25.4930 C   0  0  0  0  0  0  0  0  0  0  0  0
   28.7520   12.4410   24.7960 C   0  0  0  0  0  0  0  0  0  0  0  0
   29.5150   12.4520   23.6520 C   0  0  0  0  0  0  0  0  0  0  0  0
   27.7290   13.8500   26.6790 N   0  0  0  0  0  0  0  0  0  0  0  0
   27.7360   15.2180   27.0080 C   0  0  0  0  0  0  0  0  0  0  0  0
   27.1770   15.7750   27.9850 O   0  0  0  0  0  0  0  0  0  0  0  0
   28.5430   15.9320   25.9740 C   0  0  1  0  0  0  0  0  0  0  0  0
   29.7020   16.5960   26.5800 C   0  0  0  0  0  0  0  0  0  0  0  0
   29.9320   17.9230   26.4100 C   0  0  0  0  0  0  0  0  0  0  0  0
   29.0560   18.6970   25.6440 O   0  0  0  0  0  0  0  0  0  0  0  0
   27.9490   18.1200   25.0530 C   0  0  0  0  0  0  0  0  0  0  0  0
   27.7060   16.8530   25.2000 C   0  0  0  0  0  0  0  0  0  0  0  0
   26.5060   16.3240   24.5360 C   0  0  0  0  0  0  0  0  0  0  0  0
   25.5740   15.9100   24.0280 N   0  0  0  0  0  0  0  0  0  0  0  0
   27.0940   18.9780   24.2800 N   0  0  0  0  0  0  0  0  0  0  0  0
   31.0510   18.5130   27.0060 C   0  0  0  0  0  0  0  0  0  0  0  0
   31.2500   19.7350   26.8420 O   0  0  0  0  0  0  0  0  0  0  0  0
   31.9030   17.7390   27.7570 C   0  0  0  0  0  0  0  0  0  0  0  0
   31.6200   16.3960   27.8940 C   0  0  0  0  0  0  0  0  0  0  0  0
   30.5730   15.9070   27.3210 O   0  0  0  0  0  0  0  0  0  0  0  0
   32.5440   15.5230   28.7170 C   0  0  0  0  0  0  0  0  0  0  0  0
   32.2380   15.6840   30.0680 O   0  0  0  0  0  0  0  0  0  0  0  0
   27.0600   12.7590   27.4130 C   0  0  0  0  0  0  0  0  0  0  0  0
   30.1150   15.8010   23.5810 H   0  0  0  0  0  0  0  0  0  0  0  0
   28.3580   11.4890   25.1510 H   0  0  0  0  0  0  0  0  0  0  0  0
   29.7220   11.5240   23.1130 H   0  0  0  0  0  0  0  0  0  0  0  0
   26.4330   18.5540   23.6310 H   0  0  0  0  0  0  0  0  0  0  0  0
   27.1770   19.9860   24.4070 H   0  0  0  0  0  0  0  0  0  0  0  0
   32.7830   18.1300   28.2430 H   0  0  0  0  0  0  0  0  0  0  0  0
   32.4520   14.4730   28.4380 H   0  0  0  0  0  0  0  0  0  0  0  0
   33.6020   15.8890   28.6040 H   0  0  0  0  0  0  0  0  0  0  0  0
   31.3620   15.2340   30.2610 H   0  0  0  0  0  0  0  0  0  0  0  0
   26.9630   11.8680   26.7650 H   0  0  0  0  0  0  0  0  0  0  0  0
   27.6790   12.5130   28.2910 H   0  0  0  0  0  0  0  0  0  0  0  0
   26.0250   13.0860   27.6890 H   0  0  0  0  0  0  0  0  0  0  0  0
  1  2  1  0  0  0  0
  2  7  2  0  0  0  0
  2  3  1  0  0  0  0
  3  4  2  0  0  0  0
  4  5  1  0  0  0  0
  5  8  1  0  0  0  0
  6 29  1  0  0  0  0
  6  5  2  0  0  0  0
  7  6  1  0  0  0  0
  8  9  1  0  0  0  0
  8 27  1  0  0  0  0
  9 10  2  0  0  0  0
 11  4  1  6  0  0  0
 11 12  1  0  0  0  0
 11  9  1  0  0  0  0
 12 24  1  0  0  0  0
 13 12  2  0  0  0  0
 13 20  1  0  0  0  0
 14 13  1  0  0  0  0
 15 16  2  0  0  0  0
 15 14  1  0  0  0  0
 16 11  1  0  0  0  0
 17 16  1  0  0  0  0
 18 17  3  0  0  0  0
 19 32  1  0  0  0  0
 19 15  1  0  0  0  0
 20 22  1  0  0  0  0
 21 20  2  0  0  0  0
 22 23  2  0  0  0  0
 22 33  1  0  0  0  0
 23 25  1  0  0  0  0
 24 23  1  0  0  0  0
 25 26  1  0  0  0  0
 26 36  1  0  0  0  0
 27 39  1  0  0  0  0
 27 38  1  0  0  0  0
 28  3  1  0  0  0  0
 30  7  1  0  0  0  0
 31 19  1  0  0  0  0
 34 25  1  0  0  0  0
 35 25  1  0  0  0  0
 37 27  1  0  0  0  0
M  END
>  <Pose>
1

>  <Score>
-5.04

$$$$
