
 OpenBabel03202209553D

 41 44  0  0  0  0  0  0  0  0999 V2000
   24.9220   18.1020   25.0400 B   0  0  0  0  0  0  0  0  0  0  0  0
   23.9170   17.6620   26.5890 C   0  0  0  0  0  0  0  0  0  0  0  0
   23.9400   16.4110   27.1360 C   0  0  0  0  0  0  0  0  0  0  0  0
   23.2020   16.1030   28.2580 C   0  0  0  0  0  0  0  0  0  0  0  0
   22.4150   17.0170   28.8840 C   0  0  0  0  0  0  0  0  0  0  0  0
   22.3860   18.3010   28.3310 C   0  0  0  0  0  0  0  0  0  0  0  0
   23.1190   18.6130   27.2130 C   0  0  0  0  0  0  0  0  0  0  0  0
   21.7610   16.4650   30.0060 N   0  0  0  0  0  0  0  0  0  0  0  0
   22.1330   15.0910   30.1340 C   0  0  0  0  0  0  0  0  0  0  0  0
   21.8010   14.2370   30.9600 O   0  0  0  0  0  0  0  0  0  0  0  0
   23.0720   14.8430   29.0000 C   0  0  0  0  0  0  0  0  0  0  0  0
   23.5710   13.7720   28.8470 N   0  0  0  0  0  0  0  0  0  0  0  0
   23.6060   12.5280   29.3670 N   0  0  0  0  0  0  0  0  0  0  0  0
   24.4610   11.5510   28.8240 C   0  0  0  0  0  0  0  0  0  0  0  0
   24.0380   10.3420   28.7660 O   0  0  0  0  0  0  0  0  0  0  0  0
   25.8120   11.7460   28.2900 C   0  0  0  0  0  0  0  0  0  0  0  0
   26.8690   11.8490   29.2560 N   0  0  0  0  0  0  0  0  0  0  0  0
   28.0520   11.0640   29.1560 C   0  0  0  0  0  0  0  0  0  0  0  0
   29.0920   11.5420   29.7550 O   0  0  0  0  0  0  0  0  0  0  0  0
   28.1900    9.8200   28.4640 C   0  0  0  0  0  0  0  0  0  0  0  0
   28.0430    9.6390   27.0970 C   0  0  0  0  0  0  0  0  0  0  0  0
   28.1960    8.4330   26.5020 C   0  0  0  0  0  0  0  0  0  0  0  0
   28.5100    7.3090   27.2400 C   0  0  0  0  0  0  0  0  0  0  0  0
   28.6600    7.4380   28.5850 C   0  0  0  0  0  0  0  0  0  0  0  0
   28.5090    8.6800   29.2180 C   0  0  0  0  0  0  0  0  0  0  0  0
   28.6130    6.2160   26.3640 O   0  0  0  0  0  0  0  0  0  0  0  0
   29.0870    6.8470   25.1500 C   0  0  0  0  0  0  0  0  0  0  0  0
   28.1170    7.9530   25.1420 O   0  0  0  0  0  0  0  0  0  0  0  0
   24.5400   15.6520   26.6900 H   0  0  0  0  0  0  0  0  0  0  0  0
   21.7790   19.0280   28.7990 H   0  0  0  0  0  0  0  0  0  0  0  0
   23.1310   19.5890   26.7560 H   0  0  0  0  0  0  0  0  0  0  0  0
   21.0980   16.9460   30.6610 H   0  0  0  0  0  0  0  0  0  0  0  0
   22.9910   12.2720   30.1870 H   0  0  0  0  0  0  0  0  0  0  0  0
   26.0470   10.8460   27.6600 H   0  0  0  0  0  0  0  0  0  0  0  0
   25.8290   12.6320   27.6170 H   0  0  0  0  0  0  0  0  0  0  0  0
   26.8090   12.4800   30.0700 H   0  0  0  0  0  0  0  0  0  0  0  0
   27.7830   10.5140   26.4730 H   0  0  0  0  0  0  0  0  0  0  0  0
   28.9080    6.5430   29.1850 H   0  0  0  0  0  0  0  0  0  0  0  0
   28.6210    8.7920   30.2490 H   0  0  0  0  0  0  0  0  0  0  0  0
   29.0430    6.2520   24.2720 H   0  0  0  0  0  0  0  0  0  0  0  0
   30.0800    7.2640   25.3330 H   0  0  0  0  0  0  0  0  0  0  0  0
  1  2  1  0  0  0  0
  2  3  2  0  0  0  0
  2  7  1  0  0  0  0
  3  4  1  0  0  0  0
  4  5  2  0  0  0  0
  4 11  1  0  0  0  0
  5  8  1  0  0  0  0
  6 30  1  0  0  0  0
  6  5  1  0  0  0  0
  7  6  2  0  0  0  0
  8  9  1  0  0  0  0
  8 32  1  0  0  0  0
  9 10  2  0  0  0  0
 11  9  1  0  0  0  0
 12 11  2  0  0  0  0
 12 13  1  0  0  0  0
 13 33  1  0  0  0  0
 14 13  1  0  0  0  0
 15 14  2  0  0  0  0
 16 14  1  0  0  0  0
 16 17  1  0  0  0  0
 17 36  1  0  0  0  0
 18 17  1  0  0  0  0
 18 19  2  0  0  0  0
 20 18  1  0  0  0  0
 20 25  1  0  0  0  0
 21 20  2  0  0  0  0
 22 21  1  0  0  0  0
 22 23  2  0  0  0  0
 23 24  1  0  0  0  0
 24 38  1  0  0  0  0
 24 25  2  0  0  0  0
 25 39  1  0  0  0  0
 26 23  1  0  0  0  0
 27 41  1  0  0  0  0
 27 26  1  0  0  0  0
 28 27  1  0  0  0  0
 28 22  1  0  0  0  0
 29  3  1  0  0  0  0
 31  7  1  0  0  0  0
 34 16  1  0  0  0  0
 35 16  1  0  0  0  0
 37 21  1  0  0  0  0
 40 27  1  0  0  0  0
M  END
>  <Pose>
1

>  <Score>
-7.12

$$$$
