
 OpenBabel03202209553D

 41 44  0  0  1  0  0  0  0  0999 V2000
   23.4400   16.0630   33.7830 B   0  0  0  0  0  0  0  0  0  0  0  0
   22.7180   15.0800   32.3170 C   0  0  0  0  0  0  0  0  0  0  0  0
   23.5080   14.0970   31.7720 C   0  0  0  0  0  0  0  0  0  0  0  0
   23.0220   13.3480   30.6950 C   0  0  0  0  0  0  0  0  0  0  0  0
   21.7820   13.6100   30.2110 C   0  0  0  0  0  0  0  0  0  0  0  0
   20.9570   14.6130   30.7550 C   0  0  0  0  0  0  0  0  0  0  0  0
   21.4600   15.3330   31.8120 C   0  0  0  0  0  0  0  0  0  0  0  0
   21.4770   12.7550   29.1240 N   0  0  0  0  0  0  0  0  0  0  0  0
   22.5790   11.9230   28.9210 C   0  0  0  0  0  0  0  0  0  0  0  0
   22.7080   11.0050   28.0210 O   0  0  0  0  0  0  0  0  0  0  0  0
   23.6210   12.2620   29.9350 C   0  0  2  0  0  0  0  0  0  0  0  0
   23.8980   11.0410   30.6460 C   0  0  0  0  0  0  0  0  0  0  0  0
   25.0860   10.4210   30.5390 C   0  0  0  0  0  0  0  0  0  0  0  0
   25.0240    9.3010   31.3330 N   0  0  0  0  0  0  0  0  0  0  0  0
   23.8360    9.2530   31.8960 N   0  0  0  0  0  0  0  0  0  0  0  0
   23.0870   10.2900   31.5220 C   0  0  0  0  0  0  0  0  0  0  0  0
   21.6880   10.6200   31.9210 C   0  0  0  0  0  0  0  0  0  0  0  0
   26.1400   10.9010   29.7400 O   0  0  0  0  0  0  0  0  0  0  0  0
   25.8930   12.0790   29.0460 C   0  0  0  0  0  0  0  0  0  0  0  0
   24.7660   12.7200   29.1110 C   0  0  0  0  0  0  0  0  0  0  0  0
   24.6040   13.9770   28.3250 C   0  0  0  0  0  0  0  0  0  0  0  0
   25.4560   14.2320   27.4550 O   0  0  0  0  0  0  0  0  0  0  0  0
   23.5700   14.8520   28.5140 O   0  0  0  0  0  0  0  0  0  0  0  0
   23.4600   16.1120   27.8970 C   0  0  0  0  0  0  0  0  0  0  0  0
   22.6710   17.0170   28.8490 C   0  0  0  0  0  0  0  0  0  0  0  0
   26.9270   12.6350   28.2040 N   0  0  0  0  0  0  0  0  0  0  0  0
   24.5100   13.8840   32.1620 H   0  0  0  0  0  0  0  0  0  0  0  0
   19.9770   14.8140   30.3670 H   0  0  0  0  0  0  0  0  0  0  0  0
   20.8670   16.1150   32.2680 H   0  0  0  0  0  0  0  0  0  0  0  0
   20.5890   12.7230   28.5470 H   0  0  0  0  0  0  0  0  0  0  0  0
   25.7940    8.6050   31.4630 H   0  0  0  0  0  0  0  0  0  0  0  0
   21.3460    9.9270   32.7160 H   0  0  0  0  0  0  0  0  0  0  0  0
   21.0500   10.4270   31.0340 H   0  0  0  0  0  0  0  0  0  0  0  0
   21.5890   11.6390   32.3280 H   0  0  0  0  0  0  0  0  0  0  0  0
   22.9920   16.0670   26.9080 H   0  0  0  0  0  0  0  0  0  0  0  0
   24.4740   16.5610   27.8150 H   0  0  0  0  0  0  0  0  0  0  0  0
   22.8820   16.7510   29.9040 H   0  0  0  0  0  0  0  0  0  0  0  0
   22.9330   18.0820   28.7060 H   0  0  0  0  0  0  0  0  0  0  0  0
   21.5850   16.9190   28.6110 H   0  0  0  0  0  0  0  0  0  0  0  0
   27.1900   12.1200   27.3600 H   0  0  0  0  0  0  0  0  0  0  0  0
   27.3640   13.5190   28.4670 H   0  0  0  0  0  0  0  0  0  0  0  0
  2  1  1  0  0  0  0
  3 27  1  0  0  0  0
  3  2  2  0  0  0  0
  4  3  1  0  0  0  0
  5  4  2  0  0  0  0
  5  6  1  0  0  0  0
  6  7  2  0  0  0  0
  7 29  1  0  0  0  0
  7  2  1  0  0  0  0
  8  5  1  0  0  0  0
  9  8  1  0  0  0  0
 10  9  2  0  0  0  0
 11  9  1  6  0  0  0
 11 12  1  0  0  0  0
 11  4  1  0  0  0  0
 12 16  1  0  0  0  0
 13 12  2  0  0  0  0
 13 14  1  0  0  0  0
 14 31  1  0  0  0  0
 14 15  1  0  0  0  0
 16 15  2  0  0  0  0
 16 17  1  0  0  0  0
 17 34  1  0  0  0  0
 17 32  1  0  0  0  0
 18 13  1  0  0  0  0
 19 20  2  0  0  0  0
 19 18  1  0  0  0  0
 20 11  1  0  0  0  0
 21 23  1  0  0  0  0
 21 20  1  0  0  0  0
 22 21  2  0  0  0  0
 24 23  1  0  0  0  0
 24 25  1  0  0  0  0
 25 37  1  0  0  0  0
 26 41  1  0  0  0  0
 26 19  1  0  0  0  0
 28  6  1  0  0  0  0
 30  8  1  0  0  0  0
 33 17  1  0  0  0  0
 35 24  1  0  0  0  0
 36 24  1  0  0  0  0
 38 25  1  0  0  0  0
 39 25  1  0  0  0  0
 40 26  1  0  0  0  0
M  END
>  <Pose>
1

>  <Score>
-6.39

$$$$
