
 OpenBabel03202209553D

 38 41  0  0  1  0  0  0  0  0999 V2000
   30.8600    5.9660   31.9930 B   0  0  0  0  0  0  0  0  0  0  0  0
   29.7890    6.0980   30.4300 C   0  0  0  0  0  0  0  0  0  0  0  0
   28.6560    5.3010   30.2360 C   0  0  0  0  0  0  0  0  0  0  0  0
   27.8890    5.4030   29.1070 C   0  0  0  0  0  0  0  0  0  0  0  0
   28.2370    6.3020   28.1420 C   0  0  0  0  0  0  0  0  0  0  0  0
   29.3640    7.1230   28.2890 C   0  0  0  0  0  0  0  0  0  0  0  0
   30.1140    6.9990   29.4340 C   0  0  0  0  0  0  0  0  0  0  0  0
   27.3250    6.2570   27.0570 N   0  0  0  0  0  0  0  0  0  0  0  0
   26.3600    5.2800   27.3590 C   0  0  0  0  0  0  0  0  0  0  0  0
   25.3730    4.9250   26.6630 O   0  0  0  0  0  0  0  0  0  0  0  0
   26.6730    4.6890   28.6790 C   0  0  1  0  0  0  0  0  0  0  0  0
   26.9450    3.2240   28.5170 C   0  0  0  0  0  0  0  0  0  0  0  0
   26.3230    2.2630   29.1490 C   0  0  0  0  0  0  0  0  0  0  0  0
   25.3050    2.6150   30.0670 N   0  0  0  0  0  0  0  0  0  0  0  0
   24.9770    3.9780   30.2860 C   0  0  0  0  0  0  0  0  0  0  0  0
   25.5980    4.9430   29.6540 C   0  0  0  0  0  0  0  0  0  0  0  0
   25.1990    6.3250   29.9380 C   0  0  0  0  0  0  0  0  0  0  0  0
   24.8670    7.4090   30.1670 N   0  0  0  0  0  0  0  0  0  0  0  0
   23.9270    4.3160   31.2330 N   0  0  0  0  0  0  0  0  0  0  0  0
   26.8880    0.9650   28.7070 C   0  0  0  0  0  0  0  0  0  0  0  0
   27.8900    1.2510   27.7660 O   0  0  0  0  0  0  0  0  0  0  0  0
   27.9520    2.6240   27.6250 C   0  0  0  0  0  0  0  0  0  0  0  0
   28.7530    3.2480   26.8480 O   0  0  0  0  0  0  0  0  0  0  0  0
   25.8330    0.1360   27.9710 C   0  0  0  0  0  0  0  0  0  0  0  0
   27.4380    0.1760   29.8870 C   0  0  0  0  0  0  0  0  0  0  0  0
   28.4260    4.6030   31.0320 H   0  0  0  0  0  0  0  0  0  0  0  0
   29.6680    7.8420   27.5520 H   0  0  0  0  0  0  0  0  0  0  0  0
   30.9900    7.6360   29.5510 H   0  0  0  0  0  0  0  0  0  0  0  0
   27.3790    6.8640   26.1800 H   0  0  0  0  0  0  0  0  0  0  0  0
   24.7700    1.8850   30.6040 H   0  0  0  0  0  0  0  0  0  0  0  0
   23.9690    5.1370   31.8590 H   0  0  0  0  0  0  0  0  0  0  0  0
   23.1010    3.6970   31.2740 H   0  0  0  0  0  0  0  0  0  0  0  0
   26.4030   -0.5780   27.3390 H   0  0  0  0  0  0  0  0  0  0  0  0
   25.2270   -0.4560   28.6640 H   0  0  0  0  0  0  0  0  0  0  0  0
   25.2610    0.7850   27.3010 H   0  0  0  0  0  0  0  0  0  0  0  0
   26.8370   -0.7470   30.0630 H   0  0  0  0  0  0  0  0  0  0  0  0
   28.4920   -0.1020   29.6210 H   0  0  0  0  0  0  0  0  0  0  0  0
   27.4770    0.8180   30.7800 H   0  0  0  0  0  0  0  0  0  0  0  0
  2  1  1  0  0  0  0
  3  2  1  0  0  0  0
  3 26  1  0  0  0  0
  4  3  2  0  0  0  0
  5  6  2  0  0  0  0
  5  4  1  0  0  0  0
  6  7  1  0  0  0  0
  7 28  1  0  0  0  0
  7  2  2  0  0  0  0
  8  9  1  0  0  0  0
  8  5  1  0  0  0  0
 10  9  2  0  0  0  0
 11  9  1  6  0  0  0
 11  4  1  0  0  0  0
 11 16  1  0  0  0  0
 12 11  1  0  0  0  0
 12 13  2  0  0  0  0
 13 14  1  0  0  0  0
 14 15  1  0  0  0  0
 14 30  1  0  0  0  0
 15 19  1  0  0  0  0
 16 17  1  0  0  0  0
 16 15  2  0  0  0  0
 17 18  3  0  0  0  0
 19 32  1  0  0  0  0
 19 31  1  0  0  0  0
 20 13  1  0  0  0  0
 20 25  1  0  0  0  0
 21 20  1  0  0  0  0
 22 21  1  0  0  0  0
 22 12  1  0  0  0  0
 23 22  2  0  0  0  0
 24 34  1  0  0  0  0
 24 20  1  0  0  0  0
 25 36  1  0  0  0  0
 25 38  1  0  0  0  0
 27  6  1  0  0  0  0
 29  8  1  0  0  0  0
 33 24  1  0  0  0  0
 35 24  1  0  0  0  0
 37 25  1  0  0  0  0
M  END
>  <Pose>
1

>  <Score>
-4.64

$$$$
