
 OpenBabel03202209553D

 49 52  0  0  1  0  0  0  0  0999 V2000
   24.1040   13.1660   29.1940 B   0  0  0  0  0  0  0  0  0  0  0  0
   24.9370   11.4530   29.4330 C   0  0  0  0  0  0  0  0  0  0  0  0
   26.0160   11.0550   28.6650 C   0  0  0  0  0  0  0  0  0  0  0  0
   26.6210    9.8260   28.8290 C   0  0  0  0  0  0  0  0  0  0  0  0
   26.0910    9.0070   29.8050 C   0  0  0  0  0  0  0  0  0  0  0  0
   25.0050    9.4040   30.5790 C   0  0  0  0  0  0  0  0  0  0  0  0
   24.4270   10.6230   30.3970 C   0  0  0  0  0  0  0  0  0  0  0  0
   26.8340    7.7780   29.8300 N   0  0  0  0  0  0  0  0  0  0  0  0
   27.8510    7.8320   28.8450 C   0  0  0  0  0  0  0  0  0  0  0  0
   28.6600    6.9030   28.6190 O   0  0  0  0  0  0  0  0  0  0  0  0
   27.7630    9.1470   28.1760 C   0  0  1  0  0  0  0  0  0  0  0  0
   27.5760    8.9940   26.7580 N   0  0  0  0  0  0  0  0  0  0  0  0
   28.9100    8.7330   26.2580 C   0  0  2  0  0  0  0  0  0  0  0  0
   29.7710    9.7050   27.0190 C   0  0  2  0  0  0  0  0  0  0  0  0
   29.0550    9.8650   28.3390 C   0  0  1  0  0  0  0  0  0  0  0  0
   28.9540   11.3150   28.5530 C   0  0  0  0  0  0  0  0  0  0  0  0
   28.5370   11.8960   29.5870 O   0  0  0  0  0  0  0  0  0  0  0  0
   29.4150   12.0160   27.3750 N   0  0  0  0  0  0  0  0  0  0  0  0
   29.8020   11.0520   26.4090 C   0  0  0  0  0  0  0  0  0  0  0  0
   30.1170   11.3290   25.2270 O   0  0  0  0  0  0  0  0  0  0  0  0
   29.4780   13.4440   27.1910 C   0  0  0  0  0  0  0  0  0  0  0  0
   30.2460   13.8200   25.9470 C   0  0  0  0  0  0  0  0  0  0  0  0
   28.0520   13.9950   27.1020 C   0  0  0  0  0  0  0  0  0  0  0  0
   30.1710   14.1080   28.3610 C   0  0  0  0  0  0  0  0  0  0  0  0
   28.9580    8.9220   24.7660 C   0  0  0  0  0  0  0  0  0  0  0  0
   28.6700    7.6610   24.0630 C   0  0  0  0  0  0  0  0  0  0  0  0
   29.3040    7.3990   23.0050 O   0  0  0  0  0  0  0  0  0  0  0  0
   27.7200    6.6980   24.4900 N   0  0  0  0  0  0  0  0  0  0  0  0
   26.3590   11.7580   27.9280 H   0  0  0  0  0  0  0  0  0  0  0  0
   24.5960    8.7530   31.3440 H   0  0  0  0  0  0  0  0  0  0  0  0
   23.5730   10.9040   31.0230 H   0  0  0  0  0  0  0  0  0  0  0  0
   26.6200    6.9980   30.4880 H   0  0  0  0  0  0  0  0  0  0  0  0
   27.2490    9.8910   26.3640 H   0  0  0  0  0  0  0  0  0  0  0  0
   29.2300    7.6800   26.4540 H   0  0  0  0  0  0  0  0  0  0  0  0
   30.7920    9.3440   27.2120 H   0  0  0  0  0  0  0  0  0  0  0  0
   29.6280    9.3910   29.1670 H   0  0  0  0  0  0  0  0  0  0  0  0
   31.2780   13.4260   26.0450 H   0  0  0  0  0  0  0  0  0  0  0  0
   30.3630   14.9300   25.8850 H   0  0  0  0  0  0  0  0  0  0  0  0
   29.7260   13.4880   25.0230 H   0  0  0  0  0  0  0  0  0  0  0  0
   27.5610   13.4330   26.2820 H   0  0  0  0  0  0  0  0  0  0  0  0
   28.0580   15.0690   26.8880 H   0  0  0  0  0  0  0  0  0  0  0  0
   27.5670   13.7320   28.0710 H   0  0  0  0  0  0  0  0  0  0  0  0
   30.6480   15.0390   27.9990 H   0  0  0  0  0  0  0  0  0  0  0  0
   29.4860   14.3730   29.1800 H   0  0  0  0  0  0  0  0  0  0  0  0
   30.9290   13.4060   28.7500 H   0  0  0  0  0  0  0  0  0  0  0  0
   28.0910    9.6080   24.5300 H   0  0  0  0  0  0  0  0  0  0  0  0
   29.8460    9.4550   24.4070 H   0  0  0  0  0  0  0  0  0  0  0  0
   27.8920    5.6850   24.5700 H   0  0  0  0  0  0  0  0  0  0  0  0
   26.7620    7.0560   24.7450 H   0  0  0  0  0  0  0  0  0  0  0  0
  1  2  1  0  0  0  0
  2  7  1  0  0  0  0
  3  4  1  0  0  0  0
  3  2  2  0  0  0  0
  4  5  2  0  0  0  0
  5  8  1  0  0  0  0
  5  6  1  0  0  0  0
  6 30  1  0  0  0  0
  7  6  2  0  0  0  0
  7 31  1  0  0  0  0
  8 32  1  0  0  0  0
  9  8  1  0  0  0  0
 10  9  2  0  0  0  0
 11 15  1  0  0  0  0
 11  4  1  1  0  0  0
 11  9  1  0  0  0  0
 12 11  1  0  0  0  0
 13 34  1  1  0  0  0
 13 12  1  0  0  0  0
 13 14  1  0  0  0  0
 14 35  1  1  0  0  0
 14 15  1  0  0  0  0
 15 16  1  0  0  0  0
 15 36  1  1  0  0  0
 16 17  2  0  0  0  0
 18 16  1  0  0  0  0
 19 14  1  0  0  0  0
 19 18  1  0  0  0  0
 20 19  2  0  0  0  0
 21 18  1  0  0  0  0
 21 24  1  0  0  0  0
 22 37  1  0  0  0  0
 22 21  1  0  0  0  0
 23 21  1  0  0  0  0
 23 42  1  0  0  0  0
 24 45  1  0  0  0  0
 24 44  1  0  0  0  0
 25 13  1  0  0  0  0
 26 28  1  0  0  0  0
 26 25  1  0  0  0  0
 27 26  2  0  0  0  0
 28 48  1  0  0  0  0
 28 49  1  0  0  0  0
 29  3  1  0  0  0  0
 33 12  1  0  0  0  0
 38 22  1  0  0  0  0
 39 22  1  0  0  0  0
 40 23  1  0  0  0  0
 41 23  1  0  0  0  0
 43 24  1  0  0  0  0
 46 25  1  0  0  0  0
 47 25  1  0  0  0  0
M  END
>  <Pose>
1

>  <Score>
-5.40

$$$$
