
 OpenBabel03202209553D

 45 48  0  0  1  0  0  0  0  0999 V2000
   19.5170    9.4750   33.8090 B   0  0  0  0  0  0  0  0  0  0  0  0
   20.4370    8.2580   32.6600 C   0  0  0  0  0  0  0  0  0  0  0  0
   21.5620    8.6180   31.9620 C   0  0  0  0  0  0  0  0  0  0  0  0
   22.2650    7.7500   31.1080 C   0  0  0  0  0  0  0  0  0  0  0  0
   21.7780    6.4830   30.9870 C   0  0  0  0  0  0  0  0  0  0  0  0
   20.6240    6.0960   31.6940 C   0  0  0  0  0  0  0  0  0  0  0  0
   19.9590    6.9690   32.5230 C   0  0  0  0  0  0  0  0  0  0  0  0
   22.5850    5.7150   30.1060 N   0  0  0  0  0  0  0  0  0  0  0  0
   23.6280    6.5500   29.6580 C   0  0  0  0  0  0  0  0  0  0  0  0
   24.5710    6.2050   28.8560 O   0  0  0  0  0  0  0  0  0  0  0  0
   23.4420    7.8760   30.2740 C   0  0  2  0  0  0  0  0  0  0  0  0
   24.6450    8.0390   31.1100 N   0  0  0  0  0  0  0  0  0  0  0  0
   25.5640    8.8910   30.4220 C   0  0  2  0  0  0  0  0  0  0  0  0
   24.7050    9.7600   29.5800 C   0  0  1  0  0  0  0  0  0  0  0  0
   23.4490    8.9850   29.2870 C   0  0  2  0  0  0  0  0  0  0  0  0
   22.4050    9.9820   29.3660 C   0  0  0  0  0  0  0  0  0  0  0  0
   21.2250    9.8340   28.9330 O   0  0  0  0  0  0  0  0  0  0  0  0
   22.9190   11.1440   30.0010 N   0  0  0  0  0  0  0  0  0  0  0  0
   24.2580   10.9180   30.4170 C   0  0  0  0  0  0  0  0  0  0  0  0
   24.8590   11.5770   31.2880 O   0  0  0  0  0  0  0  0  0  0  0  0
   22.1350   12.3600   30.1720 C   0  0  0  0  0  0  0  0  0  0  0  0
   21.7100   12.5580   31.5960 C   0  0  0  0  0  0  0  0  0  0  0  0
   20.9500   13.8390   31.8150 C   0  0  0  0  0  0  0  0  0  0  0  0
   21.9960   14.9150   32.1300 C   0  0  0  0  0  0  0  0  0  0  0  0
   26.6310    8.1660   29.6350 C   0  0  0  0  0  0  0  0  0  0  0  0
   21.9130    9.6230   32.0890 H   0  0  0  0  0  0  0  0  0  0  0  0
   20.2680    5.0670   31.5660 H   0  0  0  0  0  0  0  0  0  0  0  0
   19.0680    6.6880   33.0770 H   0  0  0  0  0  0  0  0  0  0  0  0
   22.4470    4.7000   29.8240 H   0  0  0  0  0  0  0  0  0  0  0  0
   24.3940    8.4130   32.0520 H   0  0  0  0  0  0  0  0  0  0  0  0
   26.0660    9.5490   31.2050 H   0  0  0  0  0  0  0  0  0  0  0  0
   25.2040   10.1150   28.6510 H   0  0  0  0  0  0  0  0  0  0  0  0
   23.5200    8.5020   28.2650 H   0  0  0  0  0  0  0  0  0  0  0  0
   22.7300   13.2400   29.8730 H   0  0  0  0  0  0  0  0  0  0  0  0
   21.2390   12.3030   29.5080 H   0  0  0  0  0  0  0  0  0  0  0  0
   22.6170   12.5990   32.2180 H   0  0  0  0  0  0  0  0  0  0  0  0
   21.0440   11.7140   31.8750 H   0  0  0  0  0  0  0  0  0  0  0  0
   20.2310   13.7490   32.6620 H   0  0  0  0  0  0  0  0  0  0  0  0
   20.3950   14.1220   30.9200 H   0  0  0  0  0  0  0  0  0  0  0  0
   21.5410   15.7500   32.6940 H   0  0  0  0  0  0  0  0  0  0  0  0
   22.8560   14.4540   32.6440 H   0  0  0  0  0  0  0  0  0  0  0  0
   22.3830   15.2510   31.1250 H   0  0  0  0  0  0  0  0  0  0  0  0
   27.6100    8.7230   29.7440 H   0  0  0  0  0  0  0  0  0  0  0  0
   26.8030    7.1930   30.0880 H   0  0  0  0  0  0  0  0  0  0  0  0
   26.4400    8.1770   28.5490 H   0  0  0  0  0  0  0  0  0  0  0  0
  2  1  1  0  0  0  0
  3 26  1  0  0  0  0
  3  2  2  0  0  0  0
  4  3  1  0  0  0  0
  5  4  2  0  0  0  0
  5  6  1  0  0  0  0
  6  7  2  0  0  0  0
  7  2  1  0  0  0  0
  7 28  1  0  0  0  0
  8  5  1  0  0  0  0
  9  8  1  0  0  0  0
 10  9  2  0  0  0  0
 11  9  1  6  0  0  0
 11  4  1  0  0  0  0
 11 12  1  0  0  0  0
 12 30  1  0  0  0  0
 13 12  1  0  0  0  0
 13 31  1  1  0  0  0
 14 32  1  6  0  0  0
 14 19  1  0  0  0  0
 14 13  1  0  0  0  0
 15 33  1  6  0  0  0
 15 16  1  0  0  0  0
 15 14  1  0  0  0  0
 15 11  1  0  0  0  0
 16 18  1  0  0  0  0
 17 16  2  0  0  0  0
 18 21  1  0  0  0  0
 18 19  1  0  0  0  0
 19 20  2  0  0  0  0
 21 22  1  0  0  0  0
 22 23  1  0  0  0  0
 22 37  1  0  0  0  0
 22 36  1  0  0  0  0
 23 24  1  0  0  0  0
 23 38  1  0  0  0  0
 24 41  1  0  0  0  0
 24 40  1  0  0  0  0
 25 43  1  0  0  0  0
 25 44  1  0  0  0  0
 25 13  1  0  0  0  0
 27  6  1  0  0  0  0
 29  8  1  0  0  0  0
 34 21  1  0  0  0  0
 35 21  1  0  0  0  0
 39 23  1  0  0  0  0
 42 24  1  0  0  0  0
 45 25  1  0  0  0  0
M  END
>  <Pose>
1

>  <Score>
-6.21

$$$$
