
 OpenBabel03202209553D

 47 50  0  0  1  0  0  0  0  0999 V2000
   22.5780   15.8190   33.0410 B   0  0  0  0  0  0  0  0  0  0  0  0
   22.7730   14.5520   31.6290 C   0  0  0  0  0  0  0  0  0  0  0  0
   22.6050   13.1970   31.8120 C   0  0  0  0  0  0  0  0  0  0  0  0
   22.7480   12.2760   30.7750 C   0  0  0  0  0  0  0  0  0  0  0  0
   23.0700   12.7260   29.5190 C   0  0  0  0  0  0  0  0  0  0  0  0
   23.2460   14.0830   29.3040 C   0  0  0  0  0  0  0  0  0  0  0  0
   23.0960   14.9870   30.3630 C   0  0  0  0  0  0  0  0  0  0  0  0
   23.1620   11.6240   28.6110 N   0  0  0  0  0  0  0  0  0  0  0  0
   22.8850   10.4340   29.3290 C   0  0  0  0  0  0  0  0  0  0  0  0
   22.8780    9.3040   28.8030 O   0  0  0  0  0  0  0  0  0  0  0  0
   22.6280   10.7900   30.7150 C   0  0  2  0  0  0  0  0  0  0  0  0
   21.2610   10.3720   31.0230 N   0  0  0  0  0  0  0  0  0  0  0  0
   21.3000    9.8780   32.3670 C   0  0  2  0  0  0  0  0  0  0  0  0
   22.6170    9.1960   32.4570 C   0  0  2  0  0  0  0  0  0  0  0  0
   23.5320   10.1490   31.7250 C   0  0  1  0  0  0  0  0  0  0  0  0
   24.5890    9.3040   31.1860 C   0  0  0  0  0  0  0  0  0  0  0  0
   25.7040    9.6950   30.7800 O   0  0  0  0  0  0  0  0  0  0  0  0
   24.1240    7.9600   31.2050 N   0  0  0  0  0  0  0  0  0  0  0  0
   22.7450    7.9610   31.6460 C   0  0  0  0  0  0  0  0  0  0  0  0
   21.9440    7.0610   31.3430 O   0  0  0  0  0  0  0  0  0  0  0  0
   24.9200    6.8230   30.8440 C   0  0  0  0  0  0  0  0  0  0  0  0
   24.6190    6.2300   29.5080 C   0  0  0  0  0  0  0  0  0  0  0  0
   25.3720    5.1020   29.2260 O   0  0  0  0  0  0  0  0  0  0  0  0
   25.9020    5.1460   27.9390 C   0  0  0  0  0  0  0  0  0  0  0  0
   20.1210    9.0460   32.7370 C   0  0  0  0  0  0  0  0  0  0  0  0
   19.1070    9.8810   33.3910 C   0  0  0  0  0  0  0  0  0  0  0  0
   19.2490   11.1360   33.4090 O   0  0  0  0  0  0  0  0  0  0  0  0
   17.9630    9.2940   34.0080 N   0  0  0  0  0  0  0  0  0  0  0  0
   22.3510   12.8760   32.8160 H   0  0  0  0  0  0  0  0  0  0  0  0
   23.4990   14.4230   28.3110 H   0  0  0  0  0  0  0  0  0  0  0  0
   23.2380   16.0430   30.1750 H   0  0  0  0  0  0  0  0  0  0  0  0
   23.3990   11.7160   27.5840 H   0  0  0  0  0  0  0  0  0  0  0  0
   20.9730    9.5820   30.3980 H   0  0  0  0  0  0  0  0  0  0  0  0
   21.3320   10.7250   33.1050 H   0  0  0  0  0  0  0  0  0  0  0  0
   22.9510    9.0290   33.5070 H   0  0  0  0  0  0  0  0  0  0  0  0
   23.8900   10.8770   32.4890 H   0  0  0  0  0  0  0  0  0  0  0  0
   24.7480    6.0170   31.5930 H   0  0  0  0  0  0  0  0  0  0  0  0
   26.0080    7.1000   30.8270 H   0  0  0  0  0  0  0  0  0  0  0  0
   24.7060    6.9660   28.6760 H   0  0  0  0  0  0  0  0  0  0  0  0
   23.5560    5.9130   29.5170 H   0  0  0  0  0  0  0  0  0  0  0  0
   26.4890    4.1920   27.8150 H   0  0  0  0  0  0  0  0  0  0  0  0
   25.1410    5.1330   27.1530 H   0  0  0  0  0  0  0  0  0  0  0  0
   26.6540    5.9580   27.8250 H   0  0  0  0  0  0  0  0  0  0  0  0
   19.6860    8.4540   31.9190 H   0  0  0  0  0  0  0  0  0  0  0  0
   20.4690    8.3000   33.4990 H   0  0  0  0  0  0  0  0  0  0  0  0
   17.3270    8.6810   33.4590 H   0  0  0  0  0  0  0  0  0  0  0  0
   17.7680    9.4850   35.0120 H   0  0  0  0  0  0  0  0  0  0  0  0
  2  3  1  0  0  0  0
  2  1  1  0  0  0  0
  3 29  1  0  0  0  0
  4  3  2  0  0  0  0
  5  4  1  0  0  0  0
  6  5  2  0  0  0  0
  6  7  1  0  0  0  0
  7  2  2  0  0  0  0
  8  9  1  0  0  0  0
  8  5  1  0  0  0  0
 10  9  2  0  0  0  0
 11  9  1  6  0  0  0
 11  4  1  0  0  0  0
 11 12  1  0  0  0  0
 11 15  1  0  0  0  0
 12 13  1  0  0  0  0
 13 14  1  0  0  0  0
 13 25  1  0  0  0  0
 13 34  1  1  0  0  0
 14 35  1  1  0  0  0
 15 14  1  0  0  0  0
 15 36  1  1  0  0  0
 16 18  1  0  0  0  0
 16 15  1  0  0  0  0
 17 16  2  0  0  0  0
 18 19  1  0  0  0  0
 19 14  1  0  0  0  0
 20 19  2  0  0  0  0
 21 18  1  0  0  0  0
 21 37  1  0  0  0  0
 22 40  1  0  0  0  0
 22 21  1  0  0  0  0
 23 22  1  0  0  0  0
 24 23  1  0  0  0  0
 25 26  1  0  0  0  0
 25 45  1  0  0  0  0
 26 27  2  0  0  0  0
 26 28  1  0  0  0  0
 28 47  1  0  0  0  0
 30  6  1  0  0  0  0
 31  7  1  0  0  0  0
 32  8  1  0  0  0  0
 33 12  1  0  0  0  0
 38 21  1  0  0  0  0
 39 22  1  0  0  0  0
 41 24  1  0  0  0  0
 42 24  1  0  0  0  0
 43 24  1  0  0  0  0
 44 25  1  0  0  0  0
 46 28  1  0  0  0  0
M  END
>  <Pose>
1

>  <Score>
-6.07

$$$$
