
 OpenBabel03202209553D

 39 42  0  0  1  0  0  0  0  0999 V2000
   28.1430   15.2110   26.6580 B   0  0  0  0  0  0  0  0  0  0  0  0
   26.7400   14.1980   27.4570 C   0  0  0  0  0  0  0  0  0  0  0  0
   25.5700   14.8350   27.7560 C   0  0  0  0  0  0  0  0  0  0  0  0
   24.5340   14.1240   28.3370 C   0  0  0  0  0  0  0  0  0  0  0  0
   24.6820   12.7700   28.6140 C   0  0  0  0  0  0  0  0  0  0  0  0
   25.8580   12.1120   28.3180 C   0  0  0  0  0  0  0  0  0  0  0  0
   26.8610   12.8600   27.7420 C   0  0  0  0  0  0  0  0  0  0  0  0
   23.6970   11.9450   29.2020 N   0  0  0  0  0  0  0  0  0  0  0  0
   23.7200   10.6170   29.0370 N   0  0  0  0  0  0  0  0  0  0  0  0
   22.6920   10.1560   29.6960 N   0  0  0  0  0  0  0  0  0  0  0  0
   22.0270   11.1460   30.2680 N   0  0  0  0  0  0  0  0  0  0  0  0
   22.6710   12.3070   29.9540 C   0  0  0  0  0  0  0  0  0  0  0  0
   22.1810   13.6410   30.4460 C   0  0  2  0  0  0  0  0  0  0  0  0
   22.2600   14.6440   29.3860 N   0  0  0  0  0  0  0  0  0  0  0  0
   23.3750   14.9920   28.5730 C   0  0  0  0  0  0  0  0  0  0  0  0
   23.3710   16.1250   28.0150 O   0  0  0  0  0  0  0  0  0  0  0  0
   23.1530   14.0760   31.5090 C   0  0  0  0  0  0  0  0  0  0  0  0
   22.5150   15.1020   32.3870 C   0  0  0  0  0  0  0  0  0  0  0  0
   21.4550   14.4990   33.0120 O   0  0  0  0  0  0  0  0  0  0  0  0
   20.4230   14.1230   32.1950 C   0  0  0  0  0  0  0  0  0  0  0  0
   20.7760   13.5090   30.9090 C   0  0  0  0  0  0  0  0  0  0  0  0
   23.5030   15.5120   33.4870 C   0  0  0  0  0  0  0  0  0  0  0  0
   22.1440   16.3670   31.6610 C   0  0  0  0  0  0  0  0  0  0  0  0
   25.3940   15.8870   27.5630 H   0  0  0  0  0  0  0  0  0  0  0  0
   25.9360   11.0600   28.5490 H   0  0  0  0  0  0  0  0  0  0  0  0
   27.7840   12.3590   27.5050 H   0  0  0  0  0  0  0  0  0  0  0  0
   21.3760   15.1990   29.1800 H   0  0  0  0  0  0  0  0  0  0  0  0
   24.0340   14.5320   31.0020 H   0  0  0  0  0  0  0  0  0  0  0  0
   23.4600   13.2250   32.1520 H   0  0  0  0  0  0  0  0  0  0  0  0
   19.7760   15.0400   32.0540 H   0  0  0  0  0  0  0  0  0  0  0  0
   19.7640   13.4380   32.8100 H   0  0  0  0  0  0  0  0  0  0  0  0
   20.4750   12.4190   30.9310 H   0  0  0  0  0  0  0  0  0  0  0  0
   20.0970   13.9380   30.1140 H   0  0  0  0  0  0  0  0  0  0  0  0
   24.1300   14.6630   33.8040 H   0  0  0  0  0  0  0  0  0  0  0  0
   23.0080   16.0530   34.2940 H   0  0  0  0  0  0  0  0  0  0  0  0
   24.1990   16.2450   32.9860 H   0  0  0  0  0  0  0  0  0  0  0  0
   22.1550   17.2100   32.4140 H   0  0  0  0  0  0  0  0  0  0  0  0
   21.1120   16.3610   31.2620 H   0  0  0  0  0  0  0  0  0  0  0  0
   22.8940   16.6430   30.9080 H   0  0  0  0  0  0  0  0  0  0  0  0
  1  2  1  0  0  0  0
  2  7  2  0  0  0  0
  2  3  1  0  0  0  0
  3  4  2  0  0  0  0
  4 15  1  0  0  0  0
  4  5  1  0  0  0  0
  5  8  1  0  0  0  0
  6 25  1  0  0  0  0
  6  5  2  0  0  0  0
  7  6  1  0  0  0  0
  8 12  1  0  0  0  0
  9  8  1  0  0  0  0
  9 10  2  0  0  0  0
 10 11  1  0  0  0  0
 12 11  2  0  0  0  0
 13 12  1  6  0  0  0
 13 21  1  0  0  0  0
 13 17  1  0  0  0  0
 14 13  1  0  0  0  0
 15 14  1  0  0  0  0
 16 15  2  0  0  0  0
 17 29  1  0  0  0  0
 17 18  1  0  0  0  0
 18 19  1  0  0  0  0
 18 22  1  0  0  0  0
 20 31  1  0  0  0  0
 20 19  1  0  0  0  0
 21 32  1  0  0  0  0
 21 20  1  0  0  0  0
 22 34  1  0  0  0  0
 22 35  1  0  0  0  0
 23 18  1  0  0  0  0
 23 37  1  0  0  0  0
 24  3  1  0  0  0  0
 26  7  1  0  0  0  0
 27 14  1  0  0  0  0
 28 17  1  0  0  0  0
 30 20  1  0  0  0  0
 33 21  1  0  0  0  0
 36 22  1  0  0  0  0
 38 23  1  0  0  0  0
 39 23  1  0  0  0  0
M  END
>  <Pose>
1

>  <Score>
-5.69

$$$$
