
 OpenBabel03202209553D

 33 36  0  0  1  0  0  0  0  0999 V2000
   21.0760    9.4070   32.3700 B   0  0  0  0  0  0  0  0  0  0  0  0
   21.9200   10.6230   31.1800 C   0  0  0  0  0  0  0  0  0  0  0  0
   21.6250   11.9550   31.2760 C   0  0  0  0  0  0  0  0  0  0  0  0
   22.2460   12.8500   30.3990 C   0  0  0  0  0  0  0  0  0  0  0  0
   23.1220   12.3690   29.4830 C   0  0  0  0  0  0  0  0  0  0  0  0
   23.4240   10.9950   29.3870 C   0  0  0  0  0  0  0  0  0  0  0  0
   22.8110   10.1180   30.2500 C   0  0  0  0  0  0  0  0  0  0  0  0
   23.7630   13.2130   28.5940 O   0  0  0  0  0  0  0  0  0  0  0  0
   23.4940   14.5630   28.6570 C   0  0  0  0  0  0  0  0  0  0  0  0
   22.6600   15.1010   29.5150 C   0  0  0  0  0  0  0  0  0  0  0  0
   21.9390   14.2930   30.4890 C   0  0  1  0  0  0  0  0  0  0  0  0
   20.4770   14.5380   30.4710 C   0  0  0  0  0  0  0  0  0  0  0  0
   20.1080   15.0600   31.6790 C   0  0  0  0  0  0  0  0  0  0  0  0
   18.7610   15.2850   31.6580 N   0  0  0  0  0  0  0  0  0  0  0  0
   18.3370   14.9060   30.4660 N   0  0  0  0  0  0  0  0  0  0  0  0
   19.3440   14.4460   29.7120 C   0  0  0  0  0  0  0  0  0  0  0  0
   19.1860   13.9420   28.3140 C   0  0  0  0  0  0  0  0  0  0  0  0
   21.2210   15.1950   32.5370 N   0  0  0  0  0  0  0  0  0  0  0  0
   22.3500   14.7350   31.8390 C   0  0  0  0  0  0  0  0  0  0  0  0
   23.5370   14.6900   32.2600 O   0  0  0  0  0  0  0  0  0  0  0  0
   22.4310   16.5260   29.5180 C   0  0  0  0  0  0  0  0  0  0  0  0
   22.2600   17.6710   29.5360 N   0  0  0  0  0  0  0  0  0  0  0  0
   24.1670   15.4270   27.7260 N   0  0  0  0  0  0  0  0  0  0  0  0
   20.9370   12.3830   31.9880 H   0  0  0  0  0  0  0  0  0  0  0  0
   24.1290   10.6380   28.6420 H   0  0  0  0  0  0  0  0  0  0  0  0
   22.9940    9.0530   30.2340 H   0  0  0  0  0  0  0  0  0  0  0  0
   17.3210   14.9780   30.1940 H   0  0  0  0  0  0  0  0  0  0  0  0
   20.1420   13.5710   27.9310 H   0  0  0  0  0  0  0  0  0  0  0  0
   18.7670   14.7650   27.6850 H   0  0  0  0  0  0  0  0  0  0  0  0
   18.4350   13.1140   28.2600 H   0  0  0  0  0  0  0  0  0  0  0  0
   21.1840   15.5820   33.5380 H   0  0  0  0  0  0  0  0  0  0  0  0
   24.0430   15.2750   26.7020 H   0  0  0  0  0  0  0  0  0  0  0  0
   24.7840   16.2110   28.0370 H   0  0  0  0  0  0  0  0  0  0  0  0
  2  3  1  0  0  0  0
  2  1  1  0  0  0  0
  3 24  1  0  0  0  0
  4 11  1  0  0  0  0
  4  3  2  0  0  0  0
  5  4  1  0  0  0  0
  6  5  2  0  0  0  0
  6  7  1  0  0  0  0
  7  2  2  0  0  0  0
  8  9  1  0  0  0  0
  8  5  1  0  0  0  0
  9 10  2  0  0  0  0
 10 21  1  0  0  0  0
 11 10  1  6  0  0  0
 11 19  1  0  0  0  0
 12 11  1  0  0  0  0
 12 13  1  0  0  0  0
 13 18  1  0  0  0  0
 14 13  2  0  0  0  0
 15 14  1  0  0  0  0
 16 15  1  0  0  0  0
 16 12  2  0  0  0  0
 17 16  1  0  0  0  0
 18 31  1  0  0  0  0
 19 20  2  0  0  0  0
 19 18  1  0  0  0  0
 21 22  3  0  0  0  0
 23 33  1  0  0  0  0
 23  9  1  0  0  0  0
 25  6  1  0  0  0  0
 26  7  1  0  0  0  0
 27 15  1  0  0  0  0
 28 17  1  0  0  0  0
 29 17  1  0  0  0  0
 30 17  1  0  0  0  0
 32 23  1  0  0  0  0
M  END
>  <Pose>
1

>  <Score>
-5.70

$$$$
