
 OpenBabel03202209553D

 50 53  0  0  0  0  0  0  0  0999 V2000
   21.7320   16.2350   31.3120 B   0  0  0  0  0  0  0  0  0  0  0  0
   22.2810   14.4530   30.8590 C   0  0  0  0  0  0  0  0  0  0  0  0
   21.8130   13.3570   31.5380 C   0  0  0  0  0  0  0  0  0  0  0  0
   22.2180   12.0630   31.2020 C   0  0  0  0  0  0  0  0  0  0  0  0
   23.1010   11.8720   30.1750 C   0  0  0  0  0  0  0  0  0  0  0  0
   23.3340   10.5290   30.0510 N   0  0  0  0  0  0  0  0  0  0  0  0
   22.6400    9.8330   30.9550 C   0  0  0  0  0  0  0  0  0  0  0  0
   21.9300   10.8180   31.6860 C   0  0  0  0  0  0  0  0  0  0  0  0
   22.5560    8.4120   31.2330 C   0  0  0  0  0  0  0  0  0  0  0  0
   21.5610    7.9820   31.9320 O   0  0  0  0  0  0  0  0  0  0  0  0
   23.4630    7.4400   30.8110 N   0  0  0  0  0  0  0  0  0  0  0  0
   23.1410    6.1390   30.2890 C   0  0  0  0  0  0  0  0  0  0  0  0
   24.3920    5.3580   29.8690 C   0  0  0  0  0  0  0  0  0  0  0  0
   25.2300    6.2270   29.0570 N   0  0  0  0  0  0  0  0  0  0  0  0
   25.4460    7.6160   29.4640 C   0  0  0  0  0  0  0  0  0  0  0  0
   24.9210    7.7210   30.8990 C   0  0  0  0  0  0  0  0  0  0  0  0
   25.8400    5.7580   27.8730 C   0  0  0  0  0  0  0  0  0  0  0  0
   25.3350    4.7460   27.3310 O   0  0  0  0  0  0  0  0  0  0  0  0
   27.0020    6.4540   27.3440 C   0  0  0  0  0  0  0  0  0  0  0  0
   27.4450    6.0040   26.0430 N   0  0  0  0  0  0  0  0  0  0  0  0
   28.6010    5.1210   26.2130 C   0  0  0  0  0  0  0  0  0  0  0  0
   29.8770    5.8650   26.0210 C   0  0  0  0  0  0  0  0  0  0  0  0
   29.7680    7.1650   26.5080 O   0  0  0  0  0  0  0  0  0  0  0  0
   28.9170    7.9350   25.7120 C   0  0  0  0  0  0  0  0  0  0  0  0
   27.7890    7.0990   25.1530 C   0  0  0  0  0  0  0  0  0  0  0  0
   23.5770   12.9710   29.4860 C   0  0  0  0  0  0  0  0  0  0  0  0
   23.1700   14.2530   29.8260 C   0  0  0  0  0  0  0  0  0  0  0  0
   21.1130   13.4790   32.3530 H   0  0  0  0  0  0  0  0  0  0  0  0
   23.9730   10.1680   29.3270 H   0  0  0  0  0  0  0  0  0  0  0  0
   21.2650   10.6100   32.4980 H   0  0  0  0  0  0  0  0  0  0  0  0
   22.5070    6.3060   29.3760 H   0  0  0  0  0  0  0  0  0  0  0  0
   22.6600    5.5170   31.0590 H   0  0  0  0  0  0  0  0  0  0  0  0
   24.9680    5.0300   30.7530 H   0  0  0  0  0  0  0  0  0  0  0  0
   24.0650    4.4910   29.2980 H   0  0  0  0  0  0  0  0  0  0  0  0
   26.5300    7.8680   29.4710 H   0  0  0  0  0  0  0  0  0  0  0  0
   24.8900    8.3370   28.8540 H   0  0  0  0  0  0  0  0  0  0  0  0
   25.4050    6.9890   31.5590 H   0  0  0  0  0  0  0  0  0  0  0  0
   25.0830    8.7260   31.2870 H   0  0  0  0  0  0  0  0  0  0  0  0
   27.8610    6.2530   28.0430 H   0  0  0  0  0  0  0  0  0  0  0  0
   26.8910    7.5590   27.3170 H   0  0  0  0  0  0  0  0  0  0  0  0
   28.5840    4.7090   27.2500 H   0  0  0  0  0  0  0  0  0  0  0  0
   28.4900    4.2770   25.5040 H   0  0  0  0  0  0  0  0  0  0  0  0
   30.6600    5.3570   26.6290 H   0  0  0  0  0  0  0  0  0  0  0  0
   30.2050    5.9080   24.9540 H   0  0  0  0  0  0  0  0  0  0  0  0
   28.5970    8.8080   26.2840 H   0  0  0  0  0  0  0  0  0  0  0  0
   29.5190    8.2970   24.8540 H   0  0  0  0  0  0  0  0  0  0  0  0
   26.9400    7.7280   24.9270 H   0  0  0  0  0  0  0  0  0  0  0  0
   28.1560    6.6310   24.2160 H   0  0  0  0  0  0  0  0  0  0  0  0
   24.2830   12.8170   28.6660 H   0  0  0  0  0  0  0  0  0  0  0  0
   23.5440   15.1280   29.2820 H   0  0  0  0  0  0  0  0  0  0  0  0
  2  1  1  0  0  0  0
  2  3  1  0  0  0  0
  3 28  1  0  0  0  0
  4  3  2  0  0  0  0
  4  8  1  0  0  0  0
  5  4  1  0  0  0  0
  6  5  1  0  0  0  0
  6  7  1  0  0  0  0
  7  9  1  0  0  0  0
  7  8  2  0  0  0  0
  8 30  1  0  0  0  0
  9 10  2  0  0  0  0
 11 16  1  0  0  0  0
 11  9  1  0  0  0  0
 12 11  1  0  0  0  0
 12 32  1  0  0  0  0
 13 12  1  0  0  0  0
 13 33  1  0  0  0  0
 14 15  1  0  0  0  0
 14 13  1  0  0  0  0
 15 35  1  0  0  0  0
 15 16  1  0  0  0  0
 16 38  1  0  0  0  0
 16 37  1  0  0  0  0
 17 14  1  0  0  0  0
 18 17  2  0  0  0  0
 19 17  1  0  0  0  0
 19 39  1  0  0  0  0
 20 21  1  0  0  0  0
 20 19  1  0  0  0  0
 21 41  1  0  0  0  0
 22 21  1  0  0  0  0
 22 23  1  0  0  0  0
 22 43  1  0  0  0  0
 24 45  1  0  0  0  0
 24 23  1  0  0  0  0
 25 24  1  0  0  0  0
 25 20  1  0  0  0  0
 26 27  1  0  0  0  0
 26  5  2  0  0  0  0
 27  2  2  0  0  0  0
 29  6  1  0  0  0  0
 31 12  1  0  0  0  0
 34 13  1  0  0  0  0
 36 15  1  0  0  0  0
 40 19  1  0  0  0  0
 42 21  1  0  0  0  0
 44 22  1  0  0  0  0
 46 24  1  0  0  0  0
 47 25  1  0  0  0  0
 48 25  1  0  0  0  0
 49 26  1  0  0  0  0
 50 27  1  0  0  0  0
M  END
>  <Pose>
1

>  <Score>
-6.06

$$$$
