
 OpenBabel03202209553D

 37 40  0  0  0  0  0  0  0  0999 V2000
   17.3800    7.9070   33.6540 B   0  0  0  0  0  0  0  0  0  0  0  0
   19.1160    7.7580   32.8860 C   0  0  0  0  0  0  0  0  0  0  0  0
   19.5740    6.5130   32.5080 C   0  0  0  0  0  0  0  0  0  0  0  0
   20.8460    6.3710   31.9400 C   0  0  0  0  0  0  0  0  0  0  0  0
   21.6030    7.4860   31.7760 C   0  0  0  0  0  0  0  0  0  0  0  0
   21.1890    8.7500   32.1370 C   0  0  0  0  0  0  0  0  0  0  0  0
   19.9410    8.8640   32.6910 C   0  0  0  0  0  0  0  0  0  0  0  0
   22.0560    9.7870   31.9150 C   0  0  0  0  0  0  0  0  0  0  0  0
   21.6950   10.9310   32.2350 O   0  0  0  0  0  0  0  0  0  0  0  0
   23.3090    9.6080   31.3490 C   0  0  0  0  0  0  0  0  0  0  0  0
   23.6620    8.3190   31.0100 C   0  0  0  0  0  0  0  0  0  0  0  0
   22.8020    7.2730   31.2300 N   0  0  0  0  0  0  0  0  0  0  0  0
   22.9130    5.8540   30.9760 C   0  0  0  0  0  0  0  0  0  0  0  0
   21.6260    5.2260   31.4400 C   0  0  0  0  0  0  0  0  0  0  0  0
   24.2200   10.7240   31.1180 C   0  0  0  0  0  0  0  0  0  0  0  0
   25.1360   10.9450   31.9430 O   0  0  0  0  0  0  0  0  0  0  0  0
   24.0750   11.5620   29.9630 N   0  0  0  0  0  0  0  0  0  0  0  0
   24.9630   11.4570   28.8250 C   0  0  0  0  0  0  0  0  0  0  0  0
   25.5150   12.8690   28.5860 C   0  0  0  0  0  0  0  0  0  0  0  0
   24.4690   13.7530   28.4770 O   0  0  0  0  0  0  0  0  0  0  0  0
   23.7250   13.8940   29.6300 C   0  0  0  0  0  0  0  0  0  0  0  0
   23.0240   12.5580   29.8900 C   0  0  0  0  0  0  0  0  0  0  0  0
   18.9870    5.6150   32.6310 H   0  0  0  0  0  0  0  0  0  0  0  0
   19.5980    9.8360   32.9790 H   0  0  0  0  0  0  0  0  0  0  0  0
   24.6130    8.0800   30.5670 H   0  0  0  0  0  0  0  0  0  0  0  0
   23.7680    5.4320   31.5770 H   0  0  0  0  0  0  0  0  0  0  0  0
   23.1160    5.6390   29.9060 H   0  0  0  0  0  0  0  0  0  0  0  0
   21.1170    4.6990   30.5990 H   0  0  0  0  0  0  0  0  0  0  0  0
   21.8020    4.5090   32.2910 H   0  0  0  0  0  0  0  0  0  0  0  0
   24.3360   11.2470   27.9110 H   0  0  0  0  0  0  0  0  0  0  0  0
   25.7700   10.7300   28.9630 H   0  0  0  0  0  0  0  0  0  0  0  0
   26.1200   12.9080   27.6750 H   0  0  0  0  0  0  0  0  0  0  0  0
   26.1520   13.1640   29.4290 H   0  0  0  0  0  0  0  0  0  0  0  0
   22.9220   14.6310   29.4240 H   0  0  0  0  0  0  0  0  0  0  0  0
   24.3400   14.1730   30.5220 H   0  0  0  0  0  0  0  0  0  0  0  0
   22.4670   12.3440   28.9320 H   0  0  0  0  0  0  0  0  0  0  0  0
   22.3790   12.5890   30.7650 H   0  0  0  0  0  0  0  0  0  0  0  0
  2  1  1  0  0  0  0
  3 23  1  0  0  0  0
  3  2  2  0  0  0  0
  4  3  1  0  0  0  0
  5  4  2  0  0  0  0
  5  6  1  0  0  0  0
  6  7  2  0  0  0  0
  7  2  1  0  0  0  0
  7 24  1  0  0  0  0
  8  6  1  0  0  0  0
  8  9  2  0  0  0  0
 10  8  1  0  0  0  0
 11 12  1  0  0  0  0
 11 10  2  0  0  0  0
 12  5  1  0  0  0  0
 13 12  1  0  0  0  0
 13 14  1  0  0  0  0
 13 26  1  0  0  0  0
 14  4  1  0  0  0  0
 14 29  1  0  0  0  0
 15 10  1  0  0  0  0
 15 16  2  0  0  0  0
 17 15  1  0  0  0  0
 18 31  1  0  0  0  0
 18 17  1  0  0  0  0
 19 18  1  0  0  0  0
 19 33  1  0  0  0  0
 20 19  1  0  0  0  0
 20 21  1  0  0  0  0
 21 22  1  0  0  0  0
 21 35  1  0  0  0  0
 22 17  1  0  0  0  0
 22 37  1  0  0  0  0
 25 11  1  0  0  0  0
 27 13  1  0  0  0  0
 28 14  1  0  0  0  0
 30 18  1  0  0  0  0
 32 19  1  0  0  0  0
 34 21  1  0  0  0  0
 36 22  1  0  0  0  0
M  END
>  <Pose>
1

>  <Score>
-6.04

$$$$
