
 OpenBabel03202209553D

 41 44  0  0  0  0  0  0  0  0999 V2000
   22.9970   13.7950   29.4840 B   0  0  0  0  0  0  0  0  0  0  0  0
   23.7820   12.1010   29.8970 C   0  0  0  0  0  0  0  0  0  0  0  0
   23.5900   10.9990   29.1060 C   0  0  0  0  0  0  0  0  0  0  0  0
   24.1560    9.8260   29.4110 N   0  0  0  0  0  0  0  0  0  0  0  0
   24.9480    9.6300   30.4990 C   0  0  0  0  0  0  0  0  0  0  0  0
   25.1350   10.7620   31.3030 C   0  0  0  0  0  0  0  0  0  0  0  0
   24.5710   11.9750   31.0160 C   0  0  0  0  0  0  0  0  0  0  0  0
   25.5360    8.3720   30.7670 N   0  0  0  0  0  0  0  0  0  0  0  0
   25.7800    7.5050   29.6760 C   0  0  0  0  0  0  0  0  0  0  0  0
   25.2100    6.3720   29.3880 C   0  0  0  0  0  0  0  0  0  0  0  0
   25.8360    5.8910   28.1550 C   0  0  0  0  0  0  0  0  0  0  0  0
   25.5210    4.8030   27.5790 O   0  0  0  0  0  0  0  0  0  0  0  0
   26.8400    6.8070   27.6950 N   0  0  0  0  0  0  0  0  0  0  0  0
   26.8120    7.8500   28.6690 C   0  0  0  0  0  0  0  0  0  0  0  0
   27.5370    8.8800   28.6700 O   0  0  0  0  0  0  0  0  0  0  0  0
   27.6520    6.6930   26.5370 C   0  0  0  0  0  0  0  0  0  0  0  0
   27.7850    7.6920   25.6070 C   0  0  0  0  0  0  0  0  0  0  0  0
   28.6160    7.5490   24.4750 C   0  0  0  0  0  0  0  0  0  0  0  0
   29.3240    6.3870   24.2730 C   0  0  0  0  0  0  0  0  0  0  0  0
   29.1940    5.3850   25.2010 C   0  0  0  0  0  0  0  0  0  0  0  0
   28.3680    5.5430   26.3140 C   0  0  0  0  0  0  0  0  0  0  0  0
   24.1820    5.6830   30.1030 N   0  0  0  0  0  0  0  0  0  0  0  0
   24.4680    4.5440   30.7580 C   0  0  0  0  0  0  0  0  0  0  0  0
   23.4790    3.8370   31.4640 C   0  0  0  0  0  0  0  0  0  0  0  0
   22.1810    4.3130   31.4910 C   0  0  0  0  0  0  0  0  0  0  0  0
   21.9140    5.4830   30.8140 C   0  0  0  0  0  0  0  0  0  0  0  0
   22.9070    6.1410   30.1380 C   0  0  0  0  0  0  0  0  0  0  0  0
   22.9690   11.0950   28.2310 H   0  0  0  0  0  0  0  0  0  0  0  0
   25.7630   10.6260   32.1800 H   0  0  0  0  0  0  0  0  0  0  0  0
   24.7170   12.8590   31.6400 H   0  0  0  0  0  0  0  0  0  0  0  0
   25.7750    8.0950   31.7180 H   0  0  0  0  0  0  0  0  0  0  0  0
   27.2380    8.6120   25.7420 H   0  0  0  0  0  0  0  0  0  0  0  0
   28.6880    8.3700   23.7650 H   0  0  0  0  0  0  0  0  0  0  0  0
   29.9620    6.2890   23.3950 H   0  0  0  0  0  0  0  0  0  0  0  0
   29.7460    4.4660   25.0470 H   0  0  0  0  0  0  0  0  0  0  0  0
   28.3190    4.7160   27.0030 H   0  0  0  0  0  0  0  0  0  0  0  0
   25.4930    4.1890   30.7230 H   0  0  0  0  0  0  0  0  0  0  0  0
   23.7600    2.9180   31.9820 H   0  0  0  0  0  0  0  0  0  0  0  0
   21.4000    3.7730   32.0360 H   0  0  0  0  0  0  0  0  0  0  0  0
   20.9060    5.8610   30.8260 H   0  0  0  0  0  0  0  0  0  0  0  0
   22.7030    7.0780   29.5940 H   0  0  0  0  0  0  0  0  0  0  0  0
  1  2  1  0  0  0  0
  2  7  1  0  0  0  0
  3  4  1  0  0  0  0
  3  2  2  0  0  0  0
  4  5  2  0  0  0  0
  5  8  1  0  0  0  0
  5  6  1  0  0  0  0
  6 29  1  0  0  0  0
  7  6  2  0  0  0  0
  7 30  1  0  0  0  0
  8 31  1  0  0  0  0
  9  8  1  0  0  0  0
 10  9  2  0  0  0  0
 10 22  1  0  0  0  0
 11 10  1  0  0  0  0
 12 11  2  0  0  0  0
 13 11  1  0  0  0  0
 13 14  1  0  0  0  0
 14 15  2  0  0  0  0
 14  9  1  0  0  0  0
 16 13  1  0  0  0  0
 17 32  1  0  0  0  0
 17 16  2  0  0  0  0
 18 17  1  0  0  0  0
 19 18  2  0  0  0  0
 19 20  1  0  0  0  0
 20 21  2  0  0  0  0
 21 16  1  0  0  0  0
 21 36  1  0  0  0  0
 22 27  1  0  0  0  0
 22 23  1  0  0  0  0
 23 24  1  0  0  0  0
 24 25  2  0  0  0  0
 24 38  1  0  0  0  0
 25 39  1  0  0  0  0
 26 40  1  0  0  0  0
 26 25  1  0  0  0  0
 27 26  2  0  0  0  0
 28  3  1  0  0  0  0
 33 18  1  0  0  0  0
 34 19  1  0  0  0  0
 35 20  1  0  0  0  0
 37 23  1  0  0  0  0
 41 27  1  0  0  0  0
M  END
>  <Pose>
1

>  <Score>
-7.40

$$$$
