
 OpenBabel03202209553D

 38 41  0  0  0  0  0  0  0  0999 V2000
   17.4330    7.9100   33.8230 B   0  0  0  0  0  0  0  0  0  0  0  0
   19.1040    7.7360   32.9070 C   0  0  0  0  0  0  0  0  0  0  0  0
   19.4490    6.5470   32.3050 C   0  0  0  0  0  0  0  0  0  0  0  0
   20.6120    6.4480   31.6750 N   0  0  0  0  0  0  0  0  0  0  0  0
   21.5210    7.4410   31.5650 C   0  0  0  0  0  0  0  0  0  0  0  0
   21.1720    8.6170   32.1660 N   0  0  0  0  0  0  0  0  0  0  0  0
   20.0060    8.7740   32.8180 C   0  0  0  0  0  0  0  0  0  0  0  0
   22.7430    7.3130   30.8960 N   0  0  0  0  0  0  0  0  0  0  0  0
   23.5040    8.1010   29.9710 C   0  0  0  0  0  0  0  0  0  0  0  0
   24.7210    7.5600   30.6930 C   0  0  0  0  0  0  0  0  0  0  0  0
   23.8030    6.3490   30.8130 C   0  0  0  0  0  0  0  0  0  0  0  0
   25.9400    7.3500   29.8500 C   0  0  0  0  0  0  0  0  0  0  0  0
   26.1350    5.9320   29.6980 N   0  0  0  0  0  0  0  0  0  0  0  0
   26.7050    5.1840   30.7280 N   0  0  0  0  0  0  0  0  0  0  0  0
   26.9180    3.7830   30.6240 C   0  0  0  0  0  0  0  0  0  0  0  0
   27.4610    3.1230   31.6290 C   0  0  0  0  0  0  0  0  0  0  0  0
   28.0550    2.9590   32.9700 C   0  0  0  0  0  0  0  0  0  0  0  0
   27.9220    1.7730   32.1390 C   0  0  0  0  0  0  0  0  0  0  0  0
   26.5400    3.0740   29.4170 C   0  0  0  0  0  0  0  0  0  0  0  0
   25.9970    3.7630   28.4270 C   0  0  0  0  0  0  0  0  0  0  0  0
   25.7710    5.2200   28.5250 C   0  0  0  0  0  0  0  0  0  0  0  0
   25.2530    5.8530   27.5670 O   0  0  0  0  0  0  0  0  0  0  0  0
   18.7290    5.7390   32.3830 H   0  0  0  0  0  0  0  0  0  0  0  0
   19.7180    9.7020   33.2970 H   0  0  0  0  0  0  0  0  0  0  0  0
   23.5240    7.6990   28.9180 H   0  0  0  0  0  0  0  0  0  0  0  0
   23.3750    9.1940   30.0280 H   0  0  0  0  0  0  0  0  0  0  0  0
   24.8630    8.0730   31.6490 H   0  0  0  0  0  0  0  0  0  0  0  0
   23.8290    5.7470   29.8790 H   0  0  0  0  0  0  0  0  0  0  0  0
   23.9720    5.7250   31.7070 H   0  0  0  0  0  0  0  0  0  0  0  0
   26.8310    7.8010   30.3420 H   0  0  0  0  0  0  0  0  0  0  0  0
   25.8420    7.7910   28.8590 H   0  0  0  0  0  0  0  0  0  0  0  0
   26.9790    5.7110   31.6080 H   0  0  0  0  0  0  0  0  0  0  0  0
   29.0900    3.3410   33.1400 H   0  0  0  0  0  0  0  0  0  0  0  0
   27.4230    3.0460   33.8690 H   0  0  0  0  0  0  0  0  0  0  0  0
   28.8380    1.3540   31.6520 H   0  0  0  0  0  0  0  0  0  0  0  0
   27.0990    1.0390   32.3030 H   0  0  0  0  0  0  0  0  0  0  0  0
   26.6980    1.9820   29.3190 H   0  0  0  0  0  0  0  0  0  0  0  0
   25.7220    3.2210   27.5350 H   0  0  0  0  0  0  0  0  0  0  0  0
  2  1  1  0  0  0  0
  3 23  1  0  0  0  0
  3  2  2  0  0  0  0
  4  3  1  0  0  0  0
  5  4  2  0  0  0  0
  5  6  1  0  0  0  0
  6  7  2  0  0  0  0
  7  2  1  0  0  0  0
  7 24  1  0  0  0  0
  8  5  1  0  0  0  0
  9 26  1  0  0  0  0
  9 10  1  0  0  0  0
  9  8  1  0  0  0  0
 10 11  1  0  0  0  0
 10 27  1  0  0  0  0
 11  8  1  0  0  0  0
 11 29  1  0  0  0  0
 12 30  1  0  0  0  0
 12 10  1  0  0  0  0
 13 12  1  0  0  0  0
 13 14  1  0  0  0  0
 14 32  1  0  0  0  0
 15 14  1  0  0  0  0
 15 16  2  0  0  0  0
 16 18  1  0  0  0  0
 16 17  1  0  0  0  0
 17 33  1  0  0  0  0
 17 34  1  0  0  0  0
 18 36  1  0  0  0  0
 18 17  1  0  0  0  0
 19 15  1  0  0  0  0
 20 21  1  0  0  0  0
 20 19  2  0  0  0  0
 21 13  1  0  0  0  0
 22 21  2  0  0  0  0
 25  9  1  0  0  0  0
 28 11  1  0  0  0  0
 31 12  1  0  0  0  0
 35 18  1  0  0  0  0
 37 19  1  0  0  0  0
 38 20  1  0  0  0  0
M  END
>  <Pose>
1

>  <Score>
-6.07

$$$$
