
 OpenBabel03202209553D

 46 49  0  0  0  0  0  0  0  0999 V2000
   24.7710   10.5950   30.1490 B   0  0  0  0  0  0  0  0  0  0  0  0
   23.4160    9.4110   30.8440 C   0  0  0  0  0  0  0  0  0  0  0  0
   22.3380    9.7530   31.5740 N   0  0  0  0  0  0  0  0  0  0  0  0
   21.6300    8.6500   31.8680 C   0  0  0  0  0  0  0  0  0  0  0  0
   22.2900    7.5760   31.3030 C   0  0  0  0  0  0  0  0  0  0  0  0
   23.3700    8.0770   30.6890 N   0  0  0  0  0  0  0  0  0  0  0  0
   21.7700    6.3420   31.4570 N   0  0  0  0  0  0  0  0  0  0  0  0
   20.6280    6.1100   32.1420 C   0  0  0  0  0  0  0  0  0  0  0  0
   20.1730    4.9340   32.2630 O   0  0  0  0  0  0  0  0  0  0  0  0
   19.9590    7.1330   32.7050 N   0  0  0  0  0  0  0  0  0  0  0  0
   20.4690    8.3680   32.5570 C   0  0  0  0  0  0  0  0  0  0  0  0
   19.8560    9.3240   33.0740 O   0  0  0  0  0  0  0  0  0  0  0  0
   18.7360    6.8590   33.4340 C   0  0  0  0  0  0  0  0  0  0  0  0
   22.4690    5.2220   30.8610 C   0  0  0  0  0  0  0  0  0  0  0  0
   22.0390   11.0970   31.9370 C   0  0  0  0  0  0  0  0  0  0  0  0
   21.7980   12.0630   30.8350 C   0  0  0  0  0  0  0  0  0  0  0  0
   21.4230   13.3890   31.1940 N   0  0  0  0  0  0  0  0  0  0  0  0
   21.8380   14.5200   30.5700 C   0  0  0  0  0  0  0  0  0  0  0  0
   21.2830   15.6120   31.1910 C   0  0  0  0  0  0  0  0  0  0  0  0
   20.5360   15.1070   32.1870 N   0  0  0  0  0  0  0  0  0  0  0  0
   20.6190   13.7690   32.1910 C   0  0  0  0  0  0  0  0  0  0  0  0
   19.7550   12.5460   33.4040 B   0  0  0  0  0  0  0  0  0  0  0  0
   21.5120   16.8920   30.7930 N   0  0  0  0  0  0  0  0  0  0  0  0
   22.3270   17.0600   29.7360 C   0  0  0  0  0  0  0  0  0  0  0  0
   22.5470   18.2420   29.3560 O   0  0  0  0  0  0  0  0  0  0  0  0
   22.8980   16.0290   29.0890 N   0  0  0  0  0  0  0  0  0  0  0  0
   22.6680   14.7790   29.4870 C   0  0  0  0  0  0  0  0  0  0  0  0
   23.1720   13.7690   28.9250 O   0  0  0  0  0  0  0  0  0  0  0  0
   23.7680   16.2640   27.9560 C   0  0  0  0  0  0  0  0  0  0  0  0
   20.9050   18.0260   31.4760 C   0  0  0  0  0  0  0  0  0  0  0  0
   18.5000    7.6900   34.1230 H   0  0  0  0  0  0  0  0  0  0  0  0
   17.8580    6.7390   32.7580 H   0  0  0  0  0  0  0  0  0  0  0  0
   18.8920    5.9150   33.9970 H   0  0  0  0  0  0  0  0  0  0  0  0
   22.3880    4.3580   31.5740 H   0  0  0  0  0  0  0  0  0  0  0  0
   23.5290    5.4540   30.7310 H   0  0  0  0  0  0  0  0  0  0  0  0
   21.9610    4.9290   29.9150 H   0  0  0  0  0  0  0  0  0  0  0  0
   21.1360   11.1720   32.6140 H   0  0  0  0  0  0  0  0  0  0  0  0
   22.8790   11.4400   32.6100 H   0  0  0  0  0  0  0  0  0  0  0  0
   21.0220   11.6050   30.1670 H   0  0  0  0  0  0  0  0  0  0  0  0
   22.6990   12.1290   30.1490 H   0  0  0  0  0  0  0  0  0  0  0  0
   24.4420   15.4050   27.7640 H   0  0  0  0  0  0  0  0  0  0  0  0
   23.1850   16.4130   27.0040 H   0  0  0  0  0  0  0  0  0  0  0  0
   24.4460   17.1380   28.1330 H   0  0  0  0  0  0  0  0  0  0  0  0
   19.8550   17.8210   31.7720 H   0  0  0  0  0  0  0  0  0  0  0  0
   21.5250   18.3530   32.3390 H   0  0  0  0  0  0  0  0  0  0  0  0
   20.8540   18.8540   30.7370 H   0  0  0  0  0  0  0  0  0  0  0  0
  1  2  1  0  0  0  0
  2  3  1  0  0  0  0
  3  4  1  0  0  0  0
  3 15  1  0  0  0  0
  4 11  1  0  0  0  0
  5  7  1  0  0  0  0
  5  4  2  0  0  0  0
  6  2  2  0  0  0  0
  6  5  1  0  0  0  0
  7  8  1  0  0  0  0
  8  9  2  0  0  0  0
  8 10  1  0  0  0  0
 10 13  1  0  0  0  0
 11 10  1  0  0  0  0
 11 12  2  0  0  0  0
 13 33  1  0  0  0  0
 13 31  1  0  0  0  0
 14  7  1  0  0  0  0
 14 34  1  0  0  0  0
 15 38  1  0  0  0  0
 15 37  1  0  0  0  0
 16 17  1  0  0  0  0
 16 15  1  0  0  0  0
 17 21  1  0  0  0  0
 18 19  2  0  0  0  0
 18 17  1  0  0  0  0
 19 20  1  0  0  0  0
 20 21  2  0  0  0  0
 21 22  1  0  0  0  0
 23 19  1  0  0  0  0
 23 30  1  0  0  0  0
 24 23  1  0  0  0  0
 25 24  2  0  0  0  0
 26 27  1  0  0  0  0
 26 24  1  0  0  0  0
 27 18  1  0  0  0  0
 28 27  2  0  0  0  0
 29 43  1  0  0  0  0
 29 26  1  0  0  0  0
 30 44  1  0  0  0  0
 30 45  1  0  0  0  0
 32 13  1  0  0  0  0
 35 14  1  0  0  0  0
 36 14  1  0  0  0  0
 39 16  1  0  0  0  0
 40 16  1  0  0  0  0
 41 29  1  0  0  0  0
 42 29  1  0  0  0  0
 46 30  1  0  0  0  0
M  END
>  <Pose>
1

>  <Score>
-8.43

$$$$
