
 OpenBabel03202209553D

 50 54  0  0  1  0  0  0  0  0999 V2000
   17.6320    7.3090   33.4080 B   0  0  0  0  0  0  0  0  0  0  0  0
   19.1420    8.3590   32.8650 C   0  0  0  0  0  0  0  0  0  0  0  0
   20.2220    7.9520   32.1740 N   0  0  0  0  0  0  0  0  0  0  0  0
   21.0640    8.9590   31.9810 N   0  0  0  0  0  0  0  0  0  0  0  0
   20.4900   10.0240   32.5710 C   0  0  0  0  0  0  0  0  0  0  0  0
   19.3140    9.6770   33.1160 N   0  0  0  0  0  0  0  0  0  0  0  0
   22.3460    8.9250   31.2780 C   0  0  2  0  0  0  0  0  0  0  0  0
   22.6650    7.4980   30.8940 C   0  0  0  0  0  0  0  0  0  0  0  0
   23.8630    7.4810   29.9890 C   0  0  2  0  0  0  0  0  0  0  0  0
   25.0460    7.9630   30.8390 C   0  0  0  0  0  0  0  0  0  0  0  0
   24.7410    9.3490   31.3500 C   0  0  2  0  0  0  0  0  0  0  0  0
   23.4740    9.4090   32.1630 C   0  0  0  0  0  0  0  0  0  0  0  0
   24.6500   10.2790   30.1820 C   0  0  0  0  0  0  0  0  0  0  0  0
   23.5160    9.8230   29.2910 C   0  0  2  0  0  0  0  0  0  0  0  0
   22.2590    9.8370   30.0950 C   0  0  0  0  0  0  0  0  0  0  0  0
   23.7660    8.4060   28.8220 C   0  0  0  0  0  0  0  0  0  0  0  0
   24.1550    6.1170   29.5000 C   0  0  0  0  0  0  0  0  0  0  0  0
   24.3990    5.9670   28.2760 O   0  0  0  0  0  0  0  0  0  0  0  0
   24.1580    5.0040   30.3900 N   0  0  0  0  0  0  0  0  0  0  0  0
   25.3190    4.4420   30.9840 C   0  0  0  0  0  0  0  0  0  0  0  0
   25.3150    3.3560   31.8130 C   0  0  0  0  0  0  0  0  0  0  0  0
   26.5990    3.1230   32.1730 N   0  0  0  0  0  0  0  0  0  0  0  0
   27.3700    4.0210   31.5980 N   0  0  0  0  0  0  0  0  0  0  0  0
   26.6300    4.8540   30.8580 C   0  0  0  0  0  0  0  0  0  0  0  0
   27.1020    2.0750   33.0440 C   0  0  0  0  0  0  0  0  0  0  0  0
   24.2280    2.5260   32.2920 C   0  0  0  0  0  0  0  0  0  0  0  0
   24.2280    1.2830   32.1110 O   0  0  0  0  0  0  0  0  0  0  0  0
   23.0990    3.0390   32.9870 N   0  0  0  0  0  0  0  0  0  0  0  0
   20.9130   11.0170   32.6010 H   0  0  0  0  0  0  0  0  0  0  0  0
   22.9850    6.9910   31.8510 H   0  0  0  0  0  0  0  0  0  0  0  0
   21.8090    6.9370   30.5230 H   0  0  0  0  0  0  0  0  0  0  0  0
   25.9660    8.0110   30.2480 H   0  0  0  0  0  0  0  0  0  0  0  0
   25.2180    7.3150   31.7070 H   0  0  0  0  0  0  0  0  0  0  0  0
   25.5730    9.6750   32.0000 H   0  0  0  0  0  0  0  0  0  0  0  0
   23.5560    8.8380   33.1040 H   0  0  0  0  0  0  0  0  0  0  0  0
   23.3010   10.4630   32.4290 H   0  0  0  0  0  0  0  0  0  0  0  0
   25.6210   10.3050   29.6320 H   0  0  0  0  0  0  0  0  0  0  0  0
   24.4560   11.3120   30.5180 H   0  0  0  0  0  0  0  0  0  0  0  0
   23.3900   10.4610   28.4050 H   0  0  0  0  0  0  0  0  0  0  0  0
   22.0700   10.8560   30.4590 H   0  0  0  0  0  0  0  0  0  0  0  0
   21.4250    9.5280   29.4310 H   0  0  0  0  0  0  0  0  0  0  0  0
   22.9190    8.0850   28.1810 H   0  0  0  0  0  0  0  0  0  0  0  0
   24.7380    8.4070   28.3020 H   0  0  0  0  0  0  0  0  0  0  0  0
   23.2350    4.5860   30.6090 H   0  0  0  0  0  0  0  0  0  0  0  0
   26.9790    5.7020   30.2600 H   0  0  0  0  0  0  0  0  0  0  0  0
   28.1980    1.9970   32.9110 H   0  0  0  0  0  0  0  0  0  0  0  0
   26.7040    1.1080   32.6290 H   0  0  0  0  0  0  0  0  0  0  0  0
   26.8240    2.2330   34.1060 H   0  0  0  0  0  0  0  0  0  0  0  0
   22.1360    2.7790   32.6250 H   0  0  0  0  0  0  0  0  0  0  0  0
   23.1420    3.6520   33.8240 H   0  0  0  0  0  0  0  0  0  0  0  0
  2  6  1  0  0  0  0
  2  1  1  0  0  0  0
  3  2  2  0  0  0  0
  4  3  1  0  0  0  0
  4  5  1  0  0  0  0
  5 29  1  0  0  0  0
  5  6  2  0  0  0  0
  7  4  1  1  0  0  0
  7 12  1  0  0  0  0
  8  7  1  0  0  0  0
  8 30  1  0  0  0  0
  9 17  1  6  0  0  0
  9 10  1  0  0  0  0
  9  8  1  0  0  0  0
 10 11  1  0  0  0  0
 10 33  1  0  0  0  0
 11 34  1  1  0  0  0
 11 12  1  0  0  0  0
 12 36  1  0  0  0  0
 12 35  1  0  0  0  0
 13 38  1  0  0  0  0
 13 11  1  0  0  0  0
 14 39  1  6  0  0  0
 14 15  1  0  0  0  0
 14 13  1  0  0  0  0
 15 40  1  0  0  0  0
 15  7  1  0  0  0  0
 16 14  1  0  0  0  0
 16  9  1  0  0  0  0
 17 19  1  0  0  0  0
 18 17  2  0  0  0  0
 19 44  1  0  0  0  0
 19 20  1  0  0  0  0
 20 21  2  0  0  0  0
 21 22  1  0  0  0  0
 21 26  1  0  0  0  0
 22 25  1  0  0  0  0
 23 22  1  0  0  0  0
 24 20  1  0  0  0  0
 24 23  2  0  0  0  0
 25 48  1  0  0  0  0
 26 28  1  0  0  0  0
 27 26  2  0  0  0  0
 28 50  1  0  0  0  0
 31  8  1  0  0  0  0
 32 10  1  0  0  0  0
 37 13  1  0  0  0  0
 41 15  1  0  0  0  0
 42 16  1  0  0  0  0
 43 16  1  0  0  0  0
 45 24  1  0  0  0  0
 46 25  1  0  0  0  0
 47 25  1  0  0  0  0
 49 28  1  0  0  0  0
M  END
>  <Pose>
1

>  <Score>
-6.64

$$$$
