
 OpenBabel03202209553D

 35 38  0  0  0  0  0  0  0  0999 V2000
   21.1900   16.2740   31.2670 B   0  0  0  0  0  0  0  0  0  0  0  0
   22.1440   16.7640   29.6940 C   0  0  0  0  0  0  0  0  0  0  0  0
   22.0750   17.9700   29.0590 N   0  0  0  0  0  0  0  0  0  0  0  0
   22.8850   17.9490   28.0270 N   0  0  0  0  0  0  0  0  0  0  0  0
   23.4980   16.7560   27.9510 C   0  0  0  0  0  0  0  0  0  0  0  0
   24.4070   16.2300   27.1150 N   0  0  0  0  0  0  0  0  0  0  0  0
   24.8740   14.9940   27.2710 C   0  0  0  0  0  0  0  0  0  0  0  0
   24.4360   14.2460   28.2810 N   0  0  0  0  0  0  0  0  0  0  0  0
   23.5080   14.6860   29.1940 C   0  0  0  0  0  0  0  0  0  0  0  0
   23.0400   15.9640   29.0170 C   0  0  0  0  0  0  0  0  0  0  0  0
   23.0510   13.8500   30.2120 N   0  0  0  0  0  0  0  0  0  0  0  0
   21.8200   13.1030   30.0740 C   0  0  0  0  0  0  0  0  0  0  0  0
   22.2060   11.6200   29.8860 C   0  0  0  0  0  0  0  0  0  0  0  0
   23.3740   11.3090   30.7390 C   0  0  0  0  0  0  0  0  0  0  0  0
   23.9230   10.0910   30.9520 N   0  0  0  0  0  0  0  0  0  0  0  0
   24.9630   10.2500   31.7880 C   0  0  0  0  0  0  0  0  0  0  0  0
   25.0960   11.5330   32.1170 N   0  0  0  0  0  0  0  0  0  0  0  0
   24.1120   12.1930   31.4680 C   0  0  0  0  0  0  0  0  0  0  0  0
   23.7610   13.6330   31.4470 C   0  0  0  0  0  0  0  0  0  0  0  0
   23.5130    8.8210   30.4090 C   0  0  0  0  0  0  0  0  0  0  0  0
   23.1410   19.0210   27.0540 C   0  0  0  0  0  0  0  0  0  0  0  0
   25.5960   14.6050   26.5890 H   0  0  0  0  0  0  0  0  0  0  0  0
   21.2190   13.3760   29.1980 H   0  0  0  0  0  0  0  0  0  0  0  0
   21.1690   13.1820   30.9770 H   0  0  0  0  0  0  0  0  0  0  0  0
   22.4510   11.4080   28.8290 H   0  0  0  0  0  0  0  0  0  0  0  0
   21.3040   11.0390   30.1450 H   0  0  0  0  0  0  0  0  0  0  0  0
   25.6320    9.4630   32.1690 H   0  0  0  0  0  0  0  0  0  0  0  0
   24.6420   14.2930   31.5640 H   0  0  0  0  0  0  0  0  0  0  0  0
   23.0350   13.7790   32.3010 H   0  0  0  0  0  0  0  0  0  0  0  0
   24.3850    8.2140   30.0850 H   0  0  0  0  0  0  0  0  0  0  0  0
   23.0030    8.2200   31.2010 H   0  0  0  0  0  0  0  0  0  0  0  0
   22.8580    8.9590   29.5160 H   0  0  0  0  0  0  0  0  0  0  0  0
   24.2270   19.2340   27.0110 H   0  0  0  0  0  0  0  0  0  0  0  0
   22.5530   19.9110   27.3360 H   0  0  0  0  0  0  0  0  0  0  0  0
   22.7800   18.6990   26.0510 H   0  0  0  0  0  0  0  0  0  0  0  0
  2  1  1  0  0  0  0
  3  2  2  0  0  0  0
  4  3  1  0  0  0  0
  5  4  1  0  0  0  0
  5 10  2  0  0  0  0
  6  7  2  0  0  0  0
  6  5  1  0  0  0  0
  7  8  1  0  0  0  0
  8  9  2  0  0  0  0
  9 11  1  0  0  0  0
 10  9  1  0  0  0  0
 10  2  1  0  0  0  0
 11 19  1  0  0  0  0
 12 11  1  0  0  0  0
 12 24  1  0  0  0  0
 13 12  1  0  0  0  0
 13 26  1  0  0  0  0
 13 14  1  0  0  0  0
 14 15  1  0  0  0  0
 14 18  2  0  0  0  0
 15 16  1  0  0  0  0
 16 17  2  0  0  0  0
 16 27  1  0  0  0  0
 18 17  1  0  0  0  0
 19 18  1  0  0  0  0
 19 28  1  0  0  0  0
 19 29  1  0  0  0  0
 20 15  1  0  0  0  0
 20 31  1  0  0  0  0
 21 34  1  0  0  0  0
 21  4  1  0  0  0  0
 22  7  1  0  0  0  0
 23 12  1  0  0  0  0
 25 13  1  0  0  0  0
 30 20  1  0  0  0  0
 32 20  1  0  0  0  0
 33 21  1  0  0  0  0
 35 21  1  0  0  0  0
M  END
>  <Pose>
1

>  <Score>
-6.03

$$$$
