
 OpenBabel03202209553D

 32 35  0  0  1  0  0  0  0  0999 V2000
   24.9550    7.9020   30.7470 B   0  0  0  0  0  0  0  0  0  0  0  0
   24.7130    9.6760   30.0600 C   0  0  0  0  0  0  0  0  0  0  0  0
   23.6640   10.4900   30.2200 N   0  0  0  0  0  0  0  0  0  0  0  0
   23.8890   11.6380   29.5830 C   0  0  0  0  0  0  0  0  0  0  0  0
   25.1170   11.5400   29.0080 N   0  0  0  0  0  0  0  0  0  0  0  0
   25.6470   10.3360   29.2890 C   0  0  0  0  0  0  0  0  0  0  0  0
   22.8720   12.7300   29.5980 C   0  0  0  0  0  0  0  0  0  0  0  0
   22.1100   12.6890   30.8220 N   0  0  2  0  0  0  0  0  0  0  0  0
   21.9230   11.4980   31.6160 C   0  0  0  0  0  0  0  0  0  0  0  0
   22.4330   10.2550   30.9480 C   0  0  0  0  0  0  0  0  0  0  0  0
   21.5110   13.8840   31.2660 C   0  0  2  0  0  0  0  0  0  0  0  0
   20.2840   14.1670   30.8920 C   0  0  0  0  0  0  0  0  0  0  0  0
   19.6080   15.4000   31.3250 C   0  0  0  0  0  0  0  0  0  0  0  0
   18.3750   15.6970   30.9570 C   0  0  0  0  0  0  0  0  0  0  0  0
   20.3750   16.2490   32.1660 N   0  0  0  0  0  0  0  0  0  0  0  0
   21.7130   15.9230   32.5640 C   0  0  0  0  0  0  0  0  0  0  0  0
   22.2420   14.7560   32.1050 N   0  0  0  0  0  0  0  0  0  0  0  0
   23.4770   14.6960   32.6150 N   0  0  0  0  0  0  0  0  0  0  0  0
   23.7420   15.7720   33.3700 C   0  0  0  0  0  0  0  0  0  0  0  0
   22.6340   16.5310   33.3310 N   0  0  0  0  0  0  0  0  0  0  0  0
   26.6250    9.9510   28.9710 H   0  0  0  0  0  0  0  0  0  0  0  0
   23.3790   13.7030   29.4420 H   0  0  0  0  0  0  0  0  0  0  0  0
   22.1450   12.5740   28.7570 H   0  0  0  0  0  0  0  0  0  0  0  0
   20.8160   11.3730   31.7600 H   0  0  0  0  0  0  0  0  0  0  0  0
   22.3580   11.6660   32.6030 H   0  0  0  0  0  0  0  0  0  0  0  0
   22.5810    9.4910   31.7410 H   0  0  0  0  0  0  0  0  0  0  0  0
   21.7060    9.8170   30.2340 H   0  0  0  0  0  0  0  0  0  0  0  0
   19.6990   13.5090   30.2430 H   0  0  0  0  0  0  0  0  0  0  0  0
   17.7840   15.0550   30.3150 H   0  0  0  0  0  0  0  0  0  0  0  0
   17.8810   16.6040   31.2760 H   0  0  0  0  0  0  0  0  0  0  0  0
   19.9520   17.1380   32.5070 H   0  0  0  0  0  0  0  0  0  0  0  0
   24.6790   15.9840   33.9090 H   0  0  0  0  0  0  0  0  0  0  0  0
  2  3  1  0  0  0  0
  2  1  1  0  0  0  0
  3 10  1  0  0  0  0
  4  7  1  0  0  0  0
  4  3  1  0  0  0  0
  5  6  1  0  0  0  0
  5  4  2  0  0  0  0
  6  2  2  0  0  0  0
  8  7  1  6  0  0  0
  8 11  1  0  0  0  0
  8  9  1  0  0  0  0
  9 24  1  0  0  0  0
  9 25  1  0  0  0  0
 10  9  1  0  0  0  0
 10 26  1  0  0  0  0
 11 12  1  6  0  0  0
 11 17  1  0  0  0  0
 12 13  2  0  0  0  0
 13 15  1  0  0  0  0
 14 30  1  0  0  0  0
 14 13  1  0  0  0  0
 15 31  1  0  0  0  0
 15 16  1  0  0  0  0
 16 20  2  0  0  0  0
 17 16  1  0  0  0  0
 17 18  1  0  0  0  0
 18 19  2  0  0  0  0
 19 32  1  0  0  0  0
 20 19  1  0  0  0  0
 21  6  1  0  0  0  0
 22  7  1  0  0  0  0
 23  7  1  0  0  0  0
 27 10  1  0  0  0  0
 28 12  1  0  0  0  0
 29 14  1  0  0  0  0
M  END
>  <Pose>
1

>  <Score>
-6.30

$$$$
