
 OpenBabel03202209553D

 49 52  0  0  0  0  0  0  0  0999 V2000
   27.3590   15.6220   23.9510 B   0  0  0  0  0  0  0  0  0  0  0  0
   25.9260   16.3590   25.0030 C   0  0  0  0  0  0  0  0  0  0  0  0
   25.4040   15.9040   26.1020 O   0  0  0  0  0  0  0  0  0  0  0  0
   24.4510   16.6550   26.5450 C   0  0  0  0  0  0  0  0  0  0  0  0
   24.3050   17.7310   25.6620 C   0  0  0  0  0  0  0  0  0  0  0  0
   25.2570   17.5190   24.6870 C   0  0  0  0  0  0  0  0  0  0  0  0
   23.6640   16.4420   27.7340 C   0  0  0  0  0  0  0  0  0  0  0  0
   23.5740   17.3800   28.5810 O   0  0  0  0  0  0  0  0  0  0  0  0
   22.9770   15.2300   28.0140 N   0  0  0  0  0  0  0  0  0  0  0  0
   23.2010   14.4790   29.2100 C   0  0  0  0  0  0  0  0  0  0  0  0
   23.6540   13.0740   28.9580 C   0  0  0  0  0  0  0  0  0  0  0  0
   23.7850   12.2790   30.1890 C   0  0  0  0  0  0  0  0  0  0  0  0
   23.8200   12.9280   31.2870 O   0  0  0  0  0  0  0  0  0  0  0  0
   23.8730   10.8600   30.1910 N   0  0  0  0  0  0  0  0  0  0  0  0
   25.0300   10.2210   30.7520 C   0  0  0  0  0  0  0  0  0  0  0  0
   24.7440    8.9020   31.4020 C   0  0  0  0  0  0  0  0  0  0  0  0
   23.5110    8.2280   30.8770 C   0  0  0  0  0  0  0  0  0  0  0  0
   23.6260    6.8050   30.9780 N   0  0  0  0  0  0  0  0  0  0  0  0
   22.5130    6.0840   30.4600 C   0  0  0  0  0  0  0  0  0  0  0  0
   21.1720    6.6250   30.8300 C   0  0  0  0  0  0  0  0  0  0  0  0
   21.2460    7.8400   31.6810 C   0  0  0  0  0  0  0  0  0  0  0  0
   20.3630    8.3950   32.5120 N   0  0  0  0  0  0  0  0  0  0  0  0
   20.8990    9.4950   33.0580 C   0  0  0  0  0  0  0  0  0  0  0  0
   22.1390    9.6560   32.5790 N   0  0  0  0  0  0  0  0  0  0  0  0
   22.3600    8.6420   31.7320 C   0  0  0  0  0  0  0  0  0  0  0  0
   23.2170    8.7020   29.4620 C   0  0  0  0  0  0  0  0  0  0  0  0
   22.7490   10.1350   29.6060 C   0  0  0  0  0  0  0  0  0  0  0  0
   23.6090   18.5370   25.7280 H   0  0  0  0  0  0  0  0  0  0  0  0
   25.4640   18.1460   23.8080 H   0  0  0  0  0  0  0  0  0  0  0  0
   22.2900   14.8880   27.3160 H   0  0  0  0  0  0  0  0  0  0  0  0
   23.8870   14.9910   29.9110 H   0  0  0  0  0  0  0  0  0  0  0  0
   22.2110   14.4420   29.7550 H   0  0  0  0  0  0  0  0  0  0  0  0
   22.8550   12.5800   28.3360 H   0  0  0  0  0  0  0  0  0  0  0  0
   24.5650   13.0780   28.3280 H   0  0  0  0  0  0  0  0  0  0  0  0
   25.5080   10.9310   31.4560 H   0  0  0  0  0  0  0  0  0  0  0  0
   25.7540   10.0510   29.9260 H   0  0  0  0  0  0  0  0  0  0  0  0
   24.5980    9.0790   32.4870 H   0  0  0  0  0  0  0  0  0  0  0  0
   25.5960    8.1910   31.3220 H   0  0  0  0  0  0  0  0  0  0  0  0
   24.4850    6.5120   30.4620 H   0  0  0  0  0  0  0  0  0  0  0  0
   22.5700    5.0400   30.8840 H   0  0  0  0  0  0  0  0  0  0  0  0
   22.5860    5.9370   29.3550 H   0  0  0  0  0  0  0  0  0  0  0  0
   20.6070    6.8880   29.8950 H   0  0  0  0  0  0  0  0  0  0  0  0
   20.5290    5.8900   31.3580 H   0  0  0  0  0  0  0  0  0  0  0  0
   20.4560   10.1870   33.7770 H   0  0  0  0  0  0  0  0  0  0  0  0
   22.8250   10.4400   32.8220 H   0  0  0  0  0  0  0  0  0  0  0  0
   22.4770    8.0640   28.9540 H   0  0  0  0  0  0  0  0  0  0  0  0
   24.1700    8.7570   28.8600 H   0  0  0  0  0  0  0  0  0  0  0  0
   21.8940   10.2420   30.2890 H   0  0  0  0  0  0  0  0  0  0  0  0
   22.5360   10.4950   28.5800 H   0  0  0  0  0  0  0  0  0  0  0  0
  1  2  1  0  0  0  0
  2  3  1  0  0  0  0
  3  4  1  0  0  0  0
  4  7  1  0  0  0  0
  5 28  1  0  0  0  0
  5  4  2  0  0  0  0
  6  2  2  0  0  0  0
  6  5  1  0  0  0  0
  7  9  1  0  0  0  0
  7  8  2  0  0  0  0
  9 10  1  0  0  0  0
 10 32  1  0  0  0  0
 10 31  1  0  0  0  0
 11 10  1  0  0  0  0
 11 12  1  0  0  0  0
 12 14  1  0  0  0  0
 12 13  2  0  0  0  0
 14 15  1  0  0  0  0
 15 16  1  0  0  0  0
 15 35  1  0  0  0  0
 16 37  1  0  0  0  0
 17 18  1  0  0  0  0
 17 16  1  0  0  0  0
 17 25  1  0  0  0  0
 19 20  1  0  0  0  0
 19 40  1  0  0  0  0
 19 18  1  0  0  0  0
 20 43  1  0  0  0  0
 20 21  1  0  0  0  0
 21 25  2  0  0  0  0
 21 22  1  0  0  0  0
 22 23  2  0  0  0  0
 23 44  1  0  0  0  0
 24 45  1  0  0  0  0
 24 23  1  0  0  0  0
 25 24  1  0  0  0  0
 26 27  1  0  0  0  0
 26 17  1  0  0  0  0
 27 14  1  0  0  0  0
 27 48  1  0  0  0  0
 29  6  1  0  0  0  0
 30  9  1  0  0  0  0
 33 11  1  0  0  0  0
 34 11  1  0  0  0  0
 36 15  1  0  0  0  0
 38 16  1  0  0  0  0
 39 18  1  0  0  0  0
 41 19  1  0  0  0  0
 42 20  1  0  0  0  0
 46 26  1  0  0  0  0
 47 26  1  0  0  0  0
 49 27  1  0  0  0  0
M  END
>  <Pose>
1

>  <Score>
-6.62

$$$$
