
 OpenBabel03202209553D

 49 52  0  0  1  0  0  0  0  0999 V2000
   19.2930    6.7370   33.0220 B   0  0  0  0  0  0  0  0  0  0  0  0
   20.8340    6.2020   31.9990 C   0  0  0  0  0  0  0  0  0  0  0  0
   21.5260    6.9750   31.2030 O   0  0  0  0  0  0  0  0  0  0  0  0
   22.5290    6.2940   30.6460 C   0  0  0  0  0  0  0  0  0  0  0  0
   22.4500    5.0080   31.1320 C   0  0  0  0  0  0  0  0  0  0  0  0
   21.3830    4.9300   31.9900 C   0  0  0  0  0  0  0  0  0  0  0  0
   23.4930    6.8510   29.7110 C   0  0  0  0  0  0  0  0  0  0  0  0
   23.9730    6.1270   28.8140 O   0  0  0  0  0  0  0  0  0  0  0  0
   23.8910    8.1960   29.8040 N   0  0  0  0  0  0  0  0  0  0  0  0
   24.7440    8.7040   30.8590 C   0  0  1  0  0  0  0  0  0  0  0  0
   26.1590    8.6240   30.4130 C   0  0  0  0  0  0  0  0  0  0  0  0
   24.3080   10.0260   31.3410 C   0  0  0  0  0  0  0  0  0  0  0  0
   24.4760   10.2490   32.5910 O   0  0  0  0  0  0  0  0  0  0  0  0
   23.7360   11.0550   30.5840 N   0  0  0  0  0  0  0  0  0  0  0  0
   22.3330   11.0830   30.2270 C   0  0  0  0  0  0  0  0  0  0  0  0
   21.7240   12.3030   30.8450 C   0  0  0  0  0  0  0  0  0  0  0  0
   22.4880   13.5450   30.5130 C   0  0  1  0  0  0  0  0  0  0  0  0
   21.5800   14.4880   29.8840 N   0  0  0  0  0  0  0  0  0  0  0  0
   20.5860   14.8760   30.8680 C   0  0  0  0  0  0  0  0  0  0  0  0
   21.2420   15.9610   31.7290 C   0  0  0  0  0  0  0  0  0  0  0  0
   22.4700   15.3440   32.2850 C   0  0  0  0  0  0  0  0  0  0  0  0
   23.2060   15.7120   33.3520 N   0  0  0  0  0  0  0  0  0  0  0  0
   24.2220   14.8410   33.4540 C   0  0  0  0  0  0  0  0  0  0  0  0
   24.1080   13.9460   32.4550 N   0  0  0  0  0  0  0  0  0  0  0  0
   23.0280   14.2300   31.7090 C   0  0  0  0  0  0  0  0  0  0  0  0
   23.6070   13.2130   29.5270 C   0  0  0  0  0  0  0  0  0  0  0  0
   24.5190   12.1750   30.0930 C   0  0  0  0  0  0  0  0  0  0  0  0
   23.1280    4.2220   30.8640 H   0  0  0  0  0  0  0  0  0  0  0  0
   21.0300    4.0650   32.5520 H   0  0  0  0  0  0  0  0  0  0  0  0
   23.5600    8.8710   29.0840 H   0  0  0  0  0  0  0  0  0  0  0  0
   24.6330    7.9930   31.7300 H   0  0  0  0  0  0  0  0  0  0  0  0
   26.1880    8.1890   29.3920 H   0  0  0  0  0  0  0  0  0  0  0  0
   26.8080    7.9570   31.0180 H   0  0  0  0  0  0  0  0  0  0  0  0
   26.6320    9.6270   30.3000 H   0  0  0  0  0  0  0  0  0  0  0  0
   21.8100   10.1530   30.4630 H   0  0  0  0  0  0  0  0  0  0  0  0
   22.2430   11.1790   29.1040 H   0  0  0  0  0  0  0  0  0  0  0  0
   20.6790   12.3830   30.4260 H   0  0  0  0  0  0  0  0  0  0  0  0
   21.6060   12.1470   31.9370 H   0  0  0  0  0  0  0  0  0  0  0  0
   21.0440   14.0330   29.0930 H   0  0  0  0  0  0  0  0  0  0  0  0
   19.6420   15.2070   30.4300 H   0  0  0  0  0  0  0  0  0  0  0  0
   20.3800   14.0340   31.5850 H   0  0  0  0  0  0  0  0  0  0  0  0
   21.5780   16.7680   31.0320 H   0  0  0  0  0  0  0  0  0  0  0  0
   20.5570   16.3300   32.4980 H   0  0  0  0  0  0  0  0  0  0  0  0
   23.0620   16.5150   34.0140 H   0  0  0  0  0  0  0  0  0  0  0  0
   25.0020   14.8350   34.1910 H   0  0  0  0  0  0  0  0  0  0  0  0
   24.1630   14.1660   29.3630 H   0  0  0  0  0  0  0  0  0  0  0  0
   23.1300   12.9280   28.5830 H   0  0  0  0  0  0  0  0  0  0  0  0
   25.1120   11.7580   29.2260 H   0  0  0  0  0  0  0  0  0  0  0  0
   25.2270   12.5560   30.8360 H   0  0  0  0  0  0  0  0  0  0  0  0
  2  1  1  0  0  0  0
  3  2  1  0  0  0  0
  4  5  2  0  0  0  0
  4  3  1  0  0  0  0
  5  6  1  0  0  0  0
  6  2  2  0  0  0  0
  6 29  1  0  0  0  0
  7  9  1  0  0  0  0
  7  4  1  0  0  0  0
  8  7  2  0  0  0  0
  9 10  1  0  0  0  0
 10 12  1  0  0  0  0
 10 31  1  1  0  0  0
 11 10  1  0  0  0  0
 11 33  1  0  0  0  0
 12 13  2  0  0  0  0
 14 12  1  0  0  0  0
 15 35  1  0  0  0  0
 15 14  1  0  0  0  0
 15 16  1  0  0  0  0
 16 38  1  0  0  0  0
 17 16  1  0  0  0  0
 17 25  1  1  0  0  0
 18 17  1  0  0  0  0
 18 19  1  0  0  0  0
 19 41  1  0  0  0  0
 19 20  1  0  0  0  0
 20 21  1  0  0  0  0
 20 43  1  0  0  0  0
 21 22  1  0  0  0  0
 22 23  1  0  0  0  0
 22 44  1  0  0  0  0
 23 45  1  0  0  0  0
 24 23  2  0  0  0  0
 25 21  2  0  0  0  0
 25 24  1  0  0  0  0
 26 27  1  0  0  0  0
 26 17  1  0  0  0  0
 27 14  1  0  0  0  0
 27 49  1  0  0  0  0
 28  5  1  0  0  0  0
 30  9  1  0  0  0  0
 32 11  1  0  0  0  0
 34 11  1  0  0  0  0
 36 15  1  0  0  0  0
 37 16  1  0  0  0  0
 39 18  1  0  0  0  0
 40 19  1  0  0  0  0
 42 20  1  0  0  0  0
 46 26  1  0  0  0  0
 47 26  1  0  0  0  0
 48 27  1  0  0  0  0
M  END
>  <Pose>
1

>  <Score>
-7.28

$$$$
