
 OpenBabel03202209553D

 53 56  0  0  0  0  0  0  0  0999 V2000
   19.3250   20.3410   26.2350 B   0  0  0  0  0  0  0  0  0  0  0  0
   21.2160   20.0830   26.3200 C   0  0  0  0  0  0  0  0  0  0  0  0
   21.8950   19.1680   25.6750 O   0  0  0  0  0  0  0  0  0  0  0  0
   23.1790   19.2310   25.9280 C   0  0  0  0  0  0  0  0  0  0  0  0
   23.3480   20.2730   26.8090 C   0  0  0  0  0  0  0  0  0  0  0  0
   22.1150   20.8180   27.0630 C   0  0  0  0  0  0  0  0  0  0  0  0
   24.2360   18.3540   25.3740 C   0  0  0  0  0  0  0  0  0  0  0  0
   25.0800   18.8250   24.5980 O   0  0  0  0  0  0  0  0  0  0  0  0
   24.2650   16.9830   25.7420 N   0  0  0  0  0  0  0  0  0  0  0  0
   23.0360   16.1950   25.7760 C   0  0  0  0  0  0  0  0  0  0  0  0
   23.3370   14.7800   26.2650 C   0  0  0  0  0  0  0  0  0  0  0  0
   24.1120   14.9020   27.4840 N   0  0  0  0  0  0  0  0  0  0  0  0
   25.3510   15.6310   27.4430 C   0  0  0  0  0  0  0  0  0  0  0  0
   25.4920   16.3000   26.1000 C   0  0  0  0  0  0  0  0  0  0  0  0
   23.6680   14.3160   28.7140 C   0  0  0  0  0  0  0  0  0  0  0  0
   22.8740   14.9810   29.5650 N   0  0  0  0  0  0  0  0  0  0  0  0
   22.4770   14.4080   30.7060 C   0  0  0  0  0  0  0  0  0  0  0  0
   22.8530   13.1580   31.0420 N   0  0  0  0  0  0  0  0  0  0  0  0
   23.6480   12.4360   30.2330 C   0  0  0  0  0  0  0  0  0  0  0  0
   24.0470   13.0440   29.0610 C   0  0  0  0  0  0  0  0  0  0  0  0
   24.0710   11.1200   30.5400 N   0  0  0  0  0  0  0  0  0  0  0  0
   24.3420   10.1710   29.4800 C   0  0  0  0  0  0  0  0  0  0  0  0
   25.0580    8.9910   30.1040 C   0  0  0  0  0  0  0  0  0  0  0  0
   24.1910    8.3870   31.0790 N   0  0  0  0  0  0  0  0  0  0  0  0
   23.5720    9.3010   31.9860 C   0  0  0  0  0  0  0  0  0  0  0  0
   24.2540   10.6500   31.9000 C   0  0  0  0  0  0  0  0  0  0  0  0
   23.2810    7.4760   30.4320 C   0  0  0  0  0  0  0  0  0  0  0  0
   21.5970   15.1530   31.6410 C   0  0  0  0  0  0  0  0  0  0  0  0
   24.2780   20.6130   27.2330 H   0  0  0  0  0  0  0  0  0  0  0  0
   21.8680   21.6680   27.7200 H   0  0  0  0  0  0  0  0  0  0  0  0
   22.5590   16.1630   24.7840 H   0  0  0  0  0  0  0  0  0  0  0  0
   22.3230   16.6790   26.4770 H   0  0  0  0  0  0  0  0  0  0  0  0
   22.4080   14.2410   26.4600 H   0  0  0  0  0  0  0  0  0  0  0  0
   23.9520   14.2950   25.4750 H   0  0  0  0  0  0  0  0  0  0  0  0
   25.3930   16.3730   28.2760 H   0  0  0  0  0  0  0  0  0  0  0  0
   26.2000   14.8970   27.5390 H   0  0  0  0  0  0  0  0  0  0  0  0
   26.3660   16.9630   26.0720 H   0  0  0  0  0  0  0  0  0  0  0  0
   25.6420   15.4900   25.3440 H   0  0  0  0  0  0  0  0  0  0  0  0
   24.6860   12.5040   28.3770 H   0  0  0  0  0  0  0  0  0  0  0  0
   23.3980    9.8410   29.0250 H   0  0  0  0  0  0  0  0  0  0  0  0
   24.9740   10.6870   28.7280 H   0  0  0  0  0  0  0  0  0  0  0  0
   25.2520    8.2700   29.2900 H   0  0  0  0  0  0  0  0  0  0  0  0
   26.0170    9.3240   30.5340 H   0  0  0  0  0  0  0  0  0  0  0  0
   23.6430    8.9330   33.0300 H   0  0  0  0  0  0  0  0  0  0  0  0
   22.5040    9.4420   31.7550 H   0  0  0  0  0  0  0  0  0  0  0  0
   25.3510   10.5060   32.0590 H   0  0  0  0  0  0  0  0  0  0  0  0
   23.8270   11.3780   32.6170 H   0  0  0  0  0  0  0  0  0  0  0  0
   23.5450    7.2930   29.3880 H   0  0  0  0  0  0  0  0  0  0  0  0
   23.3230    6.5000   30.9840 H   0  0  0  0  0  0  0  0  0  0  0  0
   22.2460    7.8730   30.5000 H   0  0  0  0  0  0  0  0  0  0  0  0
   20.8850   14.4390   32.1020 H   0  0  0  0  0  0  0  0  0  0  0  0
   22.2070   15.6370   32.4310 H   0  0  0  0  0  0  0  0  0  0  0  0
   20.9890   15.8830   31.0800 H   0  0  0  0  0  0  0  0  0  0  0  0
  1  2  1  0  0  0  0
  2  6  2  0  0  0  0
  3  4  1  0  0  0  0
  3  2  1  0  0  0  0
  4  5  2  0  0  0  0
  5  6  1  0  0  0  0
  5 29  1  0  0  0  0
  6 30  1  0  0  0  0
  7  9  1  0  0  0  0
  7  4  1  0  0  0  0
  8  7  2  0  0  0  0
  9 10  1  0  0  0  0
  9 14  1  0  0  0  0
 10 11  1  0  0  0  0
 10 32  1  0  0  0  0
 11 33  1  0  0  0  0
 11 12  1  0  0  0  0
 12 15  1  0  0  0  0
 13 12  1  0  0  0  0
 13 36  1  0  0  0  0
 13 35  1  0  0  0  0
 14 13  1  0  0  0  0
 15 20  2  0  0  0  0
 15 16  1  0  0  0  0
 16 17  2  0  0  0  0
 17 18  1  0  0  0  0
 17 28  1  0  0  0  0
 19 21  1  0  0  0  0
 19 18  2  0  0  0  0
 20 19  1  0  0  0  0
 21 26  1  0  0  0  0
 22 23  1  0  0  0  0
 22 21  1  0  0  0  0
 23 43  1  0  0  0  0
 23 24  1  0  0  0  0
 24 25  1  0  0  0  0
 25 44  1  0  0  0  0
 26 25  1  0  0  0  0
 26 46  1  0  0  0  0
 26 47  1  0  0  0  0
 27 50  1  0  0  0  0
 27 49  1  0  0  0  0
 27 24  1  0  0  0  0
 28 51  1  0  0  0  0
 28 52  1  0  0  0  0
 31 10  1  0  0  0  0
 34 11  1  0  0  0  0
 37 14  1  0  0  0  0
 38 14  1  0  0  0  0
 39 20  1  0  0  0  0
 40 22  1  0  0  0  0
 41 22  1  0  0  0  0
 42 23  1  0  0  0  0
 45 25  1  0  0  0  0
 48 27  1  0  0  0  0
 53 28  1  0  0  0  0
M  END
>  <Pose>
1

>  <Score>
-6.02

$$$$
