
 OpenBabel03202209553D

 43 46  0  0  0  0  0  0  0  0999 V2000
   25.2280   17.3770   25.0430 B   0  0  0  0  0  0  0  0  0  0  0  0
   23.9090   17.5610   26.3760 C   0  0  0  0  0  0  0  0  0  0  0  0
   23.8450   16.6910   27.4690 C   0  0  0  0  0  0  0  0  0  0  0  0
   22.8680   16.8660   28.4110 C   0  0  0  0  0  0  0  0  0  0  0  0
   21.9780   17.9260   28.2120 C   0  0  0  0  0  0  0  0  0  0  0  0
   22.0780   18.7050   27.1820 O   0  0  0  0  0  0  0  0  0  0  0  0
   22.9830   18.5700   26.2790 C   0  0  0  0  0  0  0  0  0  0  0  0
   22.9970   19.3790   25.3140 O   0  0  0  0  0  0  0  0  0  0  0  0
   22.7160   16.0180   29.5780 C   0  0  0  0  0  0  0  0  0  0  0  0
   22.6660   16.7180   30.6970 O   0  0  0  0  0  0  0  0  0  0  0  0
   22.6160   14.6430   29.7290 N   0  0  0  0  0  0  0  0  0  0  0  0
   23.7930   13.8900   30.2310 C   0  0  0  0  0  0  0  0  0  0  0  0
   23.3800   13.1090   31.4570 C   0  0  0  0  0  0  0  0  0  0  0  0
   22.3090   12.2520   31.1350 N   0  0  0  0  0  0  0  0  0  0  0  0
   21.9050   12.3780   29.7770 C   0  0  0  0  0  0  0  0  0  0  0  0
   21.4910   13.8340   29.4550 C   0  0  0  0  0  0  0  0  0  0  0  0
   22.4460   10.8890   31.5410 C   0  0  0  0  0  0  0  0  0  0  0  0
   21.2490   10.2830   32.1520 C   0  0  0  0  0  0  0  0  0  0  0  0
   20.9120    8.9720   32.0600 C   0  0  0  0  0  0  0  0  0  0  0  0
   19.7720    8.5000   32.6620 C   0  0  0  0  0  0  0  0  0  0  0  0
   18.9680    9.3610   33.3580 C   0  0  0  0  0  0  0  0  0  0  0  0
   19.2900   10.6960   33.4650 C   0  0  0  0  0  0  0  0  0  0  0  0
   20.4230   11.1350   32.8610 C   0  0  0  0  0  0  0  0  0  0  0  0
   17.8850    8.6700   33.8730 O   0  0  0  0  0  0  0  0  0  0  0  0
   17.8360    7.4350   33.1730 C   0  0  0  0  0  0  0  0  0  0  0  0
   19.1700    7.2350   32.7460 O   0  0  0  0  0  0  0  0  0  0  0  0
   24.5830   15.9250   27.5010 H   0  0  0  0  0  0  0  0  0  0  0  0
   21.1610   18.1240   28.9390 H   0  0  0  0  0  0  0  0  0  0  0  0
   24.5780   14.6360   30.4960 H   0  0  0  0  0  0  0  0  0  0  0  0
   24.1610   13.2180   29.4580 H   0  0  0  0  0  0  0  0  0  0  0  0
   24.2830   12.5230   31.8140 H   0  0  0  0  0  0  0  0  0  0  0  0
   23.1840   13.7960   32.3220 H   0  0  0  0  0  0  0  0  0  0  0  0
   22.6110   12.0780   29.0080 H   0  0  0  0  0  0  0  0  0  0  0  0
   20.9790   11.7480   29.6650 H   0  0  0  0  0  0  0  0  0  0  0  0
   20.5770   14.0340   30.0300 H   0  0  0  0  0  0  0  0  0  0  0  0
   21.2180   13.8700   28.3630 H   0  0  0  0  0  0  0  0  0  0  0  0
   22.6530   10.2920   30.6030 H   0  0  0  0  0  0  0  0  0  0  0  0
   23.3160   10.7010   32.1920 H   0  0  0  0  0  0  0  0  0  0  0  0
   21.5300    8.2780   31.5220 H   0  0  0  0  0  0  0  0  0  0  0  0
   18.6500   11.3650   34.0160 H   0  0  0  0  0  0  0  0  0  0  0  0
   20.6630   12.1900   32.9550 H   0  0  0  0  0  0  0  0  0  0  0  0
   17.1160    7.4320   32.3570 H   0  0  0  0  0  0  0  0  0  0  0  0
   17.5960    6.5910   33.8560 H   0  0  0  0  0  0  0  0  0  0  0  0
  1  2  1  0  0  0  0
  2  3  2  0  0  0  0
  3 27  1  0  0  0  0
  3  4  1  0  0  0  0
  4  9  1  0  0  0  0
  5  4  2  0  0  0  0
  5 28  1  0  0  0  0
  6  5  1  0  0  0  0
  7  2  1  0  0  0  0
  7  6  1  0  0  0  0
  8  7  2  0  0  0  0
  9 11  1  0  0  0  0
  9 10  2  0  0  0  0
 11 12  1  0  0  0  0
 12 29  1  0  0  0  0
 12 13  1  0  0  0  0
 13 31  1  0  0  0  0
 13 32  1  0  0  0  0
 14 13  1  0  0  0  0
 14 17  1  0  0  0  0
 15 14  1  0  0  0  0
 16 11  1  0  0  0  0
 16 15  1  0  0  0  0
 16 35  1  0  0  0  0
 17 18  1  0  0  0  0
 17 38  1  0  0  0  0
 18 23  1  0  0  0  0
 19 18  2  0  0  0  0
 19 20  1  0  0  0  0
 20 26  1  0  0  0  0
 20 21  2  0  0  0  0
 21 22  1  0  0  0  0
 21 24  1  0  0  0  0
 22 40  1  0  0  0  0
 23 41  1  0  0  0  0
 23 22  2  0  0  0  0
 25 43  1  0  0  0  0
 25 24  1  0  0  0  0
 26 25  1  0  0  0  0
 30 12  1  0  0  0  0
 33 15  1  0  0  0  0
 34 15  1  0  0  0  0
 36 16  1  0  0  0  0
 37 17  1  0  0  0  0
 39 19  1  0  0  0  0
 42 25  1  0  0  0  0
M  END
>  <Pose>
1

>  <Score>
-6.42

$$$$
