
 OpenBabel03202209553D

 37 40  0  0  1  0  0  0  0  0999 V2000
   17.4660    7.7080   33.5790 B   0  0  0  0  0  0  0  0  0  0  0  0
   19.1180    8.5010   33.0010 C   0  0  0  0  0  0  0  0  0  0  0  0
   20.0470    7.7840   32.2790 C   0  0  0  0  0  0  0  0  0  0  0  0
   21.2200    8.3300   31.8640 N   0  0  0  0  0  0  0  0  0  0  0  0
   22.2530    7.8700   31.1760 N   0  0  0  0  0  0  0  0  0  0  0  0
   23.1980    8.8060   31.0110 C   0  0  0  0  0  0  0  0  0  0  0  0
   22.6780    9.9270   31.6590 C   0  0  0  0  0  0  0  0  0  0  0  0
   21.4420    9.6170   32.1890 C   0  0  0  0  0  0  0  0  0  0  0  0
   20.5320   10.3340   32.9000 N   0  0  0  0  0  0  0  0  0  0  0  0
   19.3680    9.8160   33.3210 C   0  0  0  0  0  0  0  0  0  0  0  0
   24.4920    8.7310   30.3200 C   0  0  0  0  0  0  0  0  0  0  0  0
   25.0740    9.7980   29.9870 O   0  0  0  0  0  0  0  0  0  0  0  0
   25.1250    7.5000   30.0090 N   0  0  0  0  0  0  0  0  0  0  0  0
   26.2560    7.4770   29.1560 C   0  0  0  0  0  0  0  0  0  0  0  0
   26.4290    6.2020   28.4190 C   0  0  2  0  0  0  0  0  0  0  0  0
   25.4580    5.1820   28.6920 N   0  0  2  0  0  0  0  0  0  0  0  0
   25.2350    5.0280   30.1170 C   0  0  0  0  0  0  0  0  0  0  0  0
   24.5710    6.3070   30.5900 C   0  0  0  0  0  0  0  0  0  0  0  0
   25.9950    4.0230   28.0470 C   0  0  0  0  0  0  0  0  0  0  0  0
   27.4870    4.1040   28.2540 C   0  0  0  0  0  0  0  0  0  0  0  0
   27.7370    5.5070   28.7580 C   0  0  0  0  0  0  0  0  0  0  0  0
   19.8280    6.7550   32.0420 H   0  0  0  0  0  0  0  0  0  0  0  0
   23.2100   10.8660   31.7050 H   0  0  0  0  0  0  0  0  0  0  0  0
   18.6420   10.4020   33.8920 H   0  0  0  0  0  0  0  0  0  0  0  0
   27.1770    7.6980   29.7500 H   0  0  0  0  0  0  0  0  0  0  0  0
   26.1990    8.3440   28.4270 H   0  0  0  0  0  0  0  0  0  0  0  0
   26.4060    6.3840   27.3190 H   0  0  0  0  0  0  0  0  0  0  0  0
   24.5130    4.2000   30.2460 H   0  0  0  0  0  0  0  0  0  0  0  0
   26.1400    4.7740   30.6800 H   0  0  0  0  0  0  0  0  0  0  0  0
   24.6360    6.3920   31.6940 H   0  0  0  0  0  0  0  0  0  0  0  0
   23.4610    6.2380   30.3600 H   0  0  0  0  0  0  0  0  0  0  0  0
   25.7570    4.1210   26.9500 H   0  0  0  0  0  0  0  0  0  0  0  0
   25.5730    3.0720   28.4270 H   0  0  0  0  0  0  0  0  0  0  0  0
   27.7990    3.3260   28.9810 H   0  0  0  0  0  0  0  0  0  0  0  0
   28.0380    3.9040   27.3110 H   0  0  0  0  0  0  0  0  0  0  0  0
   28.5860    5.9990   28.2620 H   0  0  0  0  0  0  0  0  0  0  0  0
   27.8650    5.5250   29.8570 H   0  0  0  0  0  0  0  0  0  0  0  0
  2 10  1  0  0  0  0
  2  1  1  0  0  0  0
  3  2  2  0  0  0  0
  4  8  1  0  0  0  0
  4  3  1  0  0  0  0
  5  4  1  0  0  0  0
  6  5  2  0  0  0  0
  6  7  1  0  0  0  0
  7 23  1  0  0  0  0
  7  8  2  0  0  0  0
  8  9  1  0  0  0  0
  9 10  2  0  0  0  0
 10 24  1  0  0  0  0
 11  6  1  0  0  0  0
 12 11  2  0  0  0  0
 13 11  1  0  0  0  0
 13 18  1  0  0  0  0
 14 25  1  0  0  0  0
 14 13  1  0  0  0  0
 15 27  1  6  0  0  0
 15 16  1  0  0  0  0
 15 21  1  0  0  0  0
 15 14  1  0  0  0  0
 16 19  1  1  0  0  0
 16 17  1  0  0  0  0
 17 28  1  0  0  0  0
 17 18  1  0  0  0  0
 17 29  1  0  0  0  0
 18 30  1  0  0  0  0
 19 20  1  0  0  0  0
 19 33  1  0  0  0  0
 20 21  1  0  0  0  0
 20 34  1  0  0  0  0
 21 37  1  0  0  0  0
 22  3  1  0  0  0  0
 26 14  1  0  0  0  0
 31 18  1  0  0  0  0
 32 19  1  0  0  0  0
 35 20  1  0  0  0  0
 36 21  1  0  0  0  0
M  END
>  <Pose>
1

>  <Score>
-5.35

$$$$
