
 OpenBabel03202209553D

 40 43  0  0  0  0  0  0  0  0999 V2000
   21.6480   16.8770   31.6670 B   0  0  0  0  0  0  0  0  0  0  0  0
   21.8760   14.9870   31.4350 C   0  0  0  0  0  0  0  0  0  0  0  0
   21.1600   14.0760   32.1790 C   0  0  0  0  0  0  0  0  0  0  0  0
   21.2930   12.7380   32.0460 N   0  0  0  0  0  0  0  0  0  0  0  0
   22.1530   12.2030   31.1600 C   0  0  0  0  0  0  0  0  0  0  0  0
   22.2990   10.8750   31.0140 N   0  0  0  0  0  0  0  0  0  0  0  0
   21.5960    9.9740   31.7420 C   0  0  0  0  0  0  0  0  0  0  0  0
   20.7090   10.5010   32.6570 C   0  0  0  0  0  0  0  0  0  0  0  0
   20.5710   11.8790   32.7940 C   0  0  0  0  0  0  0  0  0  0  0  0
   19.7760   12.3630   33.6150 O   0  0  0  0  0  0  0  0  0  0  0  0
   21.7750    8.5110   31.5560 C   0  0  0  0  0  0  0  0  0  0  0  0
   23.0890    8.0710   31.7810 O   0  0  0  0  0  0  0  0  0  0  0  0
   24.0370    7.8480   30.8050 C   0  0  0  0  0  0  0  0  0  0  0  0
   25.0060    8.6270   30.6960 O   0  0  0  0  0  0  0  0  0  0  0  0
   23.8750    6.6790   29.9100 C   0  0  0  0  0  0  0  0  0  0  0  0
   24.0840    5.4510   30.6220 N   0  0  0  0  0  0  0  0  0  0  0  0
   25.2940    4.7300   30.7020 C   0  0  0  0  0  0  0  0  0  0  0  0
   26.4130    4.9900   30.1880 O   0  0  0  0  0  0  0  0  0  0  0  0
   25.0620    3.5300   31.5330 C   0  0  0  0  0  0  0  0  0  0  0  0
   23.7520    3.5480   31.9300 C   0  0  0  0  0  0  0  0  0  0  0  0
   23.2290    2.5630   32.7170 C   0  0  0  0  0  0  0  0  0  0  0  0
   24.0480    1.5340   33.1130 C   0  0  0  0  0  0  0  0  0  0  0  0
   25.3710    1.5150   32.7130 C   0  0  0  0  0  0  0  0  0  0  0  0
   25.9090    2.5040   31.9190 C   0  0  0  0  0  0  0  0  0  0  0  0
   23.1210    4.7450   31.3700 C   0  0  0  0  0  0  0  0  0  0  0  0
   21.9050    5.0620   31.5480 O   0  0  0  0  0  0  0  0  0  0  0  0
   22.8940   13.1040   30.3910 C   0  0  0  0  0  0  0  0  0  0  0  0
   22.7660   14.4700   30.5190 C   0  0  0  0  0  0  0  0  0  0  0  0
   20.4540   14.4830   32.9060 H   0  0  0  0  0  0  0  0  0  0  0  0
   20.1050    9.8310   33.2780 H   0  0  0  0  0  0  0  0  0  0  0  0
   21.1020    7.9360   32.2220 H   0  0  0  0  0  0  0  0  0  0  0  0
   21.5000    8.2020   30.5080 H   0  0  0  0  0  0  0  0  0  0  0  0
   24.7020    6.7690   29.1510 H   0  0  0  0  0  0  0  0  0  0  0  0
   22.9010    6.7010   29.3720 H   0  0  0  0  0  0  0  0  0  0  0  0
   22.1980    2.5880   33.0230 H   0  0  0  0  0  0  0  0  0  0  0  0
   23.6140    0.7670   33.7340 H   0  0  0  0  0  0  0  0  0  0  0  0
   25.9660    0.6790   33.0550 H   0  0  0  0  0  0  0  0  0  0  0  0
   26.9380    2.4950   31.6030 H   0  0  0  0  0  0  0  0  0  0  0  0
   23.5790   12.6670   29.6850 H   0  0  0  0  0  0  0  0  0  0  0  0
   23.3430   15.1620   29.9210 H   0  0  0  0  0  0  0  0  0  0  0  0
  2  1  1  0  0  0  0
  2  3  1  0  0  0  0
  3 29  1  0  0  0  0
  4  3  1  0  0  0  0
  4  9  1  0  0  0  0
  5  4  1  0  0  0  0
  6  5  1  0  0  0  0
  6  7  2  0  0  0  0
  7  8  1  0  0  0  0
  8  9  1  0  0  0  0
  8 30  1  0  0  0  0
  9 10  2  0  0  0  0
 11  7  1  0  0  0  0
 11 12  1  0  0  0  0
 11 31  1  0  0  0  0
 13 12  1  0  0  0  0
 14 13  2  0  0  0  0
 15 16  1  0  0  0  0
 15 13  1  0  0  0  0
 16 17  1  0  0  0  0
 16 25  1  0  0  0  0
 17 19  1  0  0  0  0
 18 17  2  0  0  0  0
 19 24  2  0  0  0  0
 19 20  1  0  0  0  0
 20 21  2  0  0  0  0
 21 35  1  0  0  0  0
 21 22  1  0  0  0  0
 22 36  1  0  0  0  0
 23 37  1  0  0  0  0
 23 22  2  0  0  0  0
 24 23  1  0  0  0  0
 25 26  2  0  0  0  0
 25 20  1  0  0  0  0
 27 28  1  0  0  0  0
 27  5  2  0  0  0  0
 28  2  2  0  0  0  0
 32 11  1  0  0  0  0
 33 15  1  0  0  0  0
 34 15  1  0  0  0  0
 38 24  1  0  0  0  0
 39 27  1  0  0  0  0
 40 28  1  0  0  0  0
M  END
>  <Pose>
1

>  <Score>
-5.95

$$$$
