
 OpenBabel03202209553D

 56 59  0  0  1  0  0  0  0  0999 V2000
   19.3600   15.4950   30.8690 B   0  0  0  0  0  0  0  0  0  0  0  0
   20.9200   14.3750   30.9900 C   0  0  0  0  0  0  0  0  0  0  0  0
   22.0050   14.7840   31.7460 C   0  0  0  0  0  0  0  0  0  0  0  0
   23.1360   13.9780   31.8380 C   0  0  0  0  0  0  0  0  0  0  0  0
   23.2070   12.7680   31.1880 C   0  0  0  0  0  0  0  0  0  0  0  0
   22.1110   12.3920   30.4450 C   0  0  0  0  0  0  0  0  0  0  0  0
   20.9820   13.1670   30.3370 C   0  0  0  0  0  0  0  0  0  0  0  0
   24.3760   11.9190   31.2740 C   0  0  0  0  0  0  0  0  0  0  0  0
   25.3700   12.1600   30.5370 O   0  0  0  0  0  0  0  0  0  0  0  0
   24.4710   10.7590   32.1990 C   0  0  0  0  0  0  0  0  0  0  0  0
   24.2820    9.5140   31.5150 N   0  0  0  0  0  0  0  0  0  0  0  0
   25.2050    8.7960   30.9170 N   0  0  0  0  0  0  0  0  0  0  0  0
   24.6690    7.6900   30.3810 C   0  0  0  0  0  0  0  0  0  0  0  0
   23.3570    7.7200   30.6560 N   0  0  0  0  0  0  0  0  0  0  0  0
   23.1240    8.8630   31.3650 C   0  0  2  0  0  0  0  0  0  0  0  0
   21.8290    9.3100   31.8770 C   0  0  0  0  0  0  0  0  0  0  0  0
   21.1870    8.3110   32.8110 C   0  0  0  0  0  0  0  0  0  0  0  0
   20.6680    7.0980   32.0710 C   0  0  0  0  0  0  0  0  0  0  0  0
   21.7590    6.2060   31.5640 C   0  0  0  0  0  0  0  0  0  0  0  0
   22.3750    6.7250   30.2730 C   0  0  0  0  0  0  0  0  0  0  0  0
   25.3530    6.6280   29.6310 C   0  0  0  0  0  0  0  0  0  0  0  0
   26.7470    6.8940   29.4480 N   0  0  0  0  0  0  0  0  0  0  0  0
   27.3810    6.8670   28.1730 C   0  0  0  0  0  0  0  0  0  0  0  0
   27.0800    5.9180   27.2220 C   0  0  0  0  0  0  0  0  0  0  0  0
   27.6940    5.9050   25.9960 C   0  0  0  0  0  0  0  0  0  0  0  0
   28.6250    6.8500   25.7010 C   0  0  0  0  0  0  0  0  0  0  0  0
   28.9300    7.8010   26.6500 C   0  0  0  0  0  0  0  0  0  0  0  0
   28.3180    7.8240   27.8860 C   0  0  0  0  0  0  0  0  0  0  0  0
   29.2570    6.8610   24.4800 O   0  0  0  0  0  0  0  0  0  0  0  0
   29.3280    8.0050   23.6660 C   0  0  0  0  0  0  0  0  0  0  0  0
   21.9410   15.7290   32.2510 H   0  0  0  0  0  0  0  0  0  0  0  0
   23.9660   14.3170   32.4310 H   0  0  0  0  0  0  0  0  0  0  0  0
   22.1490   11.4280   29.9180 H   0  0  0  0  0  0  0  0  0  0  0  0
   20.1600   12.8210   29.7430 H   0  0  0  0  0  0  0  0  0  0  0  0
   25.4000   10.7900   32.8000 H   0  0  0  0  0  0  0  0  0  0  0  0
   23.6090   10.8800   32.9180 H   0  0  0  0  0  0  0  0  0  0  0  0
   21.9210   10.2590   32.4330 H   0  0  0  0  0  0  0  0  0  0  0  0
   21.0740    9.5070   31.0630 H   0  0  0  0  0  0  0  0  0  0  0  0
   21.8240    8.0130   33.6440 H   0  0  0  0  0  0  0  0  0  0  0  0
   20.2920    8.8190   33.2480 H   0  0  0  0  0  0  0  0  0  0  0  0
   19.9470    7.3630   31.2970 H   0  0  0  0  0  0  0  0  0  0  0  0
   20.0950    6.5000   32.8360 H   0  0  0  0  0  0  0  0  0  0  0  0
   22.5610    6.0840   32.2910 H   0  0  0  0  0  0  0  0  0  0  0  0
   21.3030    5.1980   31.3660 H   0  0  0  0  0  0  0  0  0  0  0  0
   21.6120    7.1180   29.5830 H   0  0  0  0  0  0  0  0  0  0  0  0
   22.8880    5.8900   29.7720 H   0  0  0  0  0  0  0  0  0  0  0  0
   24.8550    6.5380   28.6310 H   0  0  0  0  0  0  0  0  0  0  0  0
   25.2340    5.6480   30.1220 H   0  0  0  0  0  0  0  0  0  0  0  0
   27.3420    7.1190   30.2590 H   0  0  0  0  0  0  0  0  0  0  0  0
   26.3210    5.1790   27.5120 H   0  0  0  0  0  0  0  0  0  0  0  0
   27.4260    5.1450   25.2860 H   0  0  0  0  0  0  0  0  0  0  0  0
   29.6740    8.5740   26.4430 H   0  0  0  0  0  0  0  0  0  0  0  0
   28.5730    8.5940   28.6290 H   0  0  0  0  0  0  0  0  0  0  0  0
   29.6400    7.7410   22.6480 H   0  0  0  0  0  0  0  0  0  0  0  0
   28.3240    8.4740   23.6310 H   0  0  0  0  0  0  0  0  0  0  0  0
   30.0330    8.7610   24.0810 H   0  0  0  0  0  0  0  0  0  0  0  0
  1  2  1  0  0  0  0
  2  3  1  0  0  0  0
  3  4  2  0  0  0  0
  3 31  1  0  0  0  0
  4 32  1  0  0  0  0
  5  8  1  0  0  0  0
  5  4  1  0  0  0  0
  6  5  2  0  0  0  0
  7  6  1  0  0  0  0
  7  2  2  0  0  0  0
  8 10  1  0  0  0  0
  9  8  2  0  0  0  0
 10 35  1  0  0  0  0
 10 36  1  0  0  0  0
 11 10  1  0  0  0  0
 12 11  1  0  0  0  0
 13 14  1  0  0  0  0
 13 12  2  0  0  0  0
 15 14  1  6  0  0  0
 15 11  1  0  0  0  0
 15 16  1  0  0  0  0
 16 37  1  0  0  0  0
 16 17  1  0  0  0  0
 17 40  1  0  0  0  0
 17 39  1  0  0  0  0
 18 17  1  0  0  0  0
 18 42  1  0  0  0  0
 19 18  1  0  0  0  0
 19 43  1  0  0  0  0
 20 14  1  0  0  0  0
 20 19  1  0  0  0  0
 21 48  1  0  0  0  0
 21 13  1  0  0  0  0
 22 21  1  0  0  0  0
 22 49  1  0  0  0  0
 23 22  1  0  0  0  0
 24 50  1  0  0  0  0
 24 23  2  0  0  0  0
 25 24  1  0  0  0  0
 26 25  2  0  0  0  0
 26 27  1  0  0  0  0
 27 28  2  0  0  0  0
 28 23  1  0  0  0  0
 28 53  1  0  0  0  0
 29 26  1  0  0  0  0
 30 56  1  0  0  0  0
 30 29  1  0  0  0  0
 33  6  1  0  0  0  0
 34  7  1  0  0  0  0
 38 16  1  0  0  0  0
 41 18  1  0  0  0  0
 44 19  1  0  0  0  0
 45 20  1  0  0  0  0
 46 20  1  0  0  0  0
 47 21  1  0  0  0  0
 51 25  1  0  0  0  0
 52 27  1  0  0  0  0
 54 30  1  0  0  0  0
 55 30  1  0  0  0  0
M  END
>  <Pose>
1

>  <Score>
-7.10

$$$$
