
 OpenBabel03202209553D

 66 69  0  0  1  0  0  0  0  0999 V2000
   22.4090    5.3640   30.6650 B   0  0  0  0  0  0  0  0  0  0  0  0
   23.5580    6.8830   30.4550 C   0  0  0  0  0  0  0  0  0  0  0  0
   24.7120    6.7720   29.7160 C   0  0  0  0  0  0  0  0  0  0  0  0
   25.5810    7.8600   29.5380 C   0  0  0  0  0  0  0  0  0  0  0  0
   25.2170    9.0430   30.1430 C   0  0  0  0  0  0  0  0  0  0  0  0
   24.0670    9.1810   30.8900 C   0  0  0  0  0  0  0  0  0  0  0  0
   23.2300    8.1000   31.0500 C   0  0  0  0  0  0  0  0  0  0  0  0
   21.9690    8.1490   31.8350 C   0  0  0  0  0  0  0  0  0  0  0  0
   23.5870   10.8330   31.7170 B   0  0  0  0  0  0  0  0  0  0  0  0
   26.7880    7.6970   28.7530 C   0  0  0  0  0  0  0  0  0  0  0  0
   27.5040    8.6730   28.5050 O   0  0  0  0  0  0  0  0  0  0  0  0
   27.1520    6.3600   28.2540 C   0  0  1  0  0  0  0  0  0  0  0  0
   25.8630    5.6240   27.9650 C   0  0  0  0  0  0  0  0  0  0  0  0
   25.0460    5.5600   29.1190 O   0  0  0  0  0  0  0  0  0  0  0  0
   28.0530    6.3890   27.0560 C   0  0  0  0  0  0  0  0  0  0  0  0
   27.5280    7.0060   25.9000 N   0  0  0  0  0  4  0  0  0  0  0  0
   28.2370    8.2230   25.6300 C   0  0  0  0  0  0  0  0  0  0  0  0
   29.6300    8.0490   25.1410 C   0  0  2  0  0  0  0  0  0  0  0  0
   30.0460    6.6750   24.7860 C   0  0  0  0  0  0  0  0  0  0  0  0
   28.9680    5.7190   24.4500 C   0  0  0  0  0  0  0  0  0  0  0  0
   27.5760    6.2230   24.6960 C   0  0  0  0  0  0  0  0  0  0  0  0
   30.5730    8.5500   26.2420 C   0  0  0  0  0  0  0  0  0  0  0  0
   27.8440    5.6590   29.4050 C   0  0  0  0  0  0  0  0  0  0  0  0
   28.1840    4.2970   29.1740 N   0  0  0  0  0  4  0  0  0  0  0  0
   27.0950    3.4230   29.6060 C   0  0  0  0  0  0  0  0  0  0  0  0
   27.3560    2.7940   30.9430 C   0  0  1  0  0  0  0  0  0  0  0  0
   27.9630    3.8190   31.8750 C   0  0  0  0  0  0  0  0  0  0  0  0
   29.3240    4.1620   31.3530 C   0  0  0  0  0  0  0  0  0  0  0  0
   29.3670    3.8520   29.8770 C   0  0  0  0  0  0  0  0  0  0  0  0
   25.9910    2.4250   31.5390 C   0  0  0  0  0  0  0  0  0  0  0  0
   25.8530    9.9180   30.0380 H   0  0  0  0  0  0  0  0  0  0  0  0
   21.1270    7.9500   31.1360 H   0  0  0  0  0  0  0  0  0  0  0  0
   21.8560    9.0710   32.4080 H   0  0  0  0  0  0  0  0  0  0  0  0
   21.9980    7.2510   32.5150 H   0  0  0  0  0  0  0  0  0  0  0  0
   25.2750    6.1350   27.1880 H   0  0  0  0  0  0  0  0  0  0  0  0
   26.0660    4.5940   27.5570 H   0  0  0  0  0  0  0  0  0  0  0  0
   28.9610    6.9480   27.3650 H   0  0  0  0  0  0  0  0  0  0  0  0
   28.3950    5.3510   26.8630 H   0  0  0  0  0  0  0  0  0  0  0  0
   26.5210    7.2630   26.0550 H   0  0  0  0  0  0  0  0  0  0  0  0
   27.6150    8.7890   24.8740 H   0  0  0  0  0  0  0  0  0  0  0  0
   28.1940    8.8500   26.5440 H   0  0  0  0  0  0  0  0  0  0  0  0
   29.7900    8.7500   24.2890 H   0  0  0  0  0  0  0  0  0  0  0  0
   30.7400    6.7440   23.8990 H   0  0  0  0  0  0  0  0  0  0  0  0
   30.7010    6.2190   25.5880 H   0  0  0  0  0  0  0  0  0  0  0  0
   29.1040    4.7330   24.9850 H   0  0  0  0  0  0  0  0  0  0  0  0
   29.0000    5.4210   23.3590 H   0  0  0  0  0  0  0  0  0  0  0  0
   26.8540    5.4210   24.6090 H   0  0  0  0  0  0  0  0  0  0  0  0
   27.3510    6.9410   23.8510 H   0  0  0  0  0  0  0  0  0  0  0  0
   31.4920    9.0030   25.7950 H   0  0  0  0  0  0  0  0  0  0  0  0
   30.0320    9.2360   26.9080 H   0  0  0  0  0  0  0  0  0  0  0  0
   30.8790    7.6700   26.8390 H   0  0  0  0  0  0  0  0  0  0  0  0
   27.1200    5.7140   30.2680 H   0  0  0  0  0  0  0  0  0  0  0  0
   28.7160    6.2830   29.7510 H   0  0  0  0  0  0  0  0  0  0  0  0
   28.3160    4.1220   28.1740 H   0  0  0  0  0  0  0  0  0  0  0  0
   26.8960    2.6230   28.8730 H   0  0  0  0  0  0  0  0  0  0  0  0
   26.1410    4.0060   29.7100 H   0  0  0  0  0  0  0  0  0  0  0  0
   27.9280    1.8590   30.8960 H   0  0  0  0  0  0  0  0  0  0  0  0
   28.0160    3.3540   32.8800 H   0  0  0  0  0  0  0  0  0  0  0  0
   27.2810    4.6730   31.9310 H   0  0  0  0  0  0  0  0  0  0  0  0
   29.6650    5.1720   31.5680 H   0  0  0  0  0  0  0  0  0  0  0  0
   30.0670    3.4650   31.8360 H   0  0  0  0  0  0  0  0  0  0  0  0
   29.4010    2.7320   29.7350 H   0  0  0  0  0  0  0  0  0  0  0  0
   30.3120    4.2290   29.4860 H   0  0  0  0  0  0  0  0  0  0  0  0
   25.2690    2.2020   30.7200 H   0  0  0  0  0  0  0  0  0  0  0  0
   25.6180    3.2260   32.2120 H   0  0  0  0  0  0  0  0  0  0  0  0
   26.0670    1.5100   32.1620 H   0  0  0  0  0  0  0  0  0  0  0  0
  2  1  1  0  0  0  0
  2  7  1  0  0  0  0
  3  2  2  0  0  0  0
  4  3  1  0  0  0  0
  4  5  2  0  0  0  0
  5  6  1  0  0  0  0
  6  7  2  0  0  0  0
  6  9  1  0  0  0  0
  7  8  1  0  0  0  0
  8 33  1  0  0  0  0
  8 34  1  0  0  0  0
 10  4  1  0  0  0  0
 11 10  2  0  0  0  0
 12 15  1  6  0  0  0
 12 10  1  0  0  0  0
 12 23  1  0  0  0  0
 13 12  1  0  0  0  0
 13 14  1  0  0  0  0
 14  3  1  0  0  0  0
 15 37  1  0  0  0  0
 16 39  1  0  0  0  0
 16 15  1  0  0  0  0
 17 16  1  0  0  0  0
 17 41  1  0  0  0  0
 18 42  1  6  0  0  0
 18 17  1  0  0  0  0
 18 22  1  0  0  0  0
 19 18  1  0  0  0  0
 19 44  1  0  0  0  0
 20 21  1  0  0  0  0
 20 19  1  0  0  0  0
 20 45  1  0  0  0  0
 21 16  1  0  0  0  0
 22 51  1  0  0  0  0
 22 50  1  0  0  0  0
 23 53  1  0  0  0  0
 23 52  1  0  0  0  0
 24 23  1  0  0  0  0
 24 25  1  0  0  0  0
 24 29  1  0  0  0  0
 25 56  1  0  0  0  0
 25 26  1  0  0  0  0
 26 57  1  6  0  0  0
 26 30  1  0  0  0  0
 26 27  1  0  0  0  0
 27 59  1  0  0  0  0
 27 58  1  0  0  0  0
 28 60  1  0  0  0  0
 28 61  1  0  0  0  0
 28 27  1  0  0  0  0
 29 28  1  0  0  0  0
 30 66  1  0  0  0  0
 30 65  1  0  0  0  0
 31  5  1  0  0  0  0
 32  8  1  0  0  0  0
 35 13  1  0  0  0  0
 36 13  1  0  0  0  0
 38 15  1  0  0  0  0
 40 17  1  0  0  0  0
 43 19  1  0  0  0  0
 46 20  1  0  0  0  0
 47 21  1  0  0  0  0
 48 21  1  0  0  0  0
 49 22  1  0  0  0  0
 54 24  1  0  0  0  0
 55 25  1  0  0  0  0
 62 29  1  0  0  0  0
 63 29  1  0  0  0  0
 64 30  1  0  0  0  0
M  END
>  <Pose>
1

>  <Score>
-5.67

$$$$
