
 OpenBabel03202209553D

 50 53  0  0  0  0  0  0  0  0999 V2000
   24.4300   -0.6580   37.0830 F   0  0  0  0  0  0  0  0  0  0  0  0
   24.1870   -0.0010   35.9160 C   0  0  0  0  0  0  0  0  0  0  0  0
   23.2330   -0.4390   35.0200 C   0  0  0  0  0  0  0  0  0  0  0  0
   23.0030    0.2420   33.8430 C   0  0  0  0  0  0  0  0  0  0  0  0
   23.7110    1.3850   33.5070 C   0  0  0  0  0  0  0  0  0  0  0  0
   24.6610    1.8150   34.4080 C   0  0  0  0  0  0  0  0  0  0  0  0
   24.8970    1.1320   35.5940 C   0  0  0  0  0  0  0  0  0  0  0  0
   23.4720    2.1080   32.2650 C   0  0  0  0  0  0  0  0  0  0  0  0
   23.1480    3.3510   32.2800 N   0  0  0  0  0  0  0  0  0  0  0  0
   22.9060    4.1010   31.1380 N   0  0  0  0  0  0  0  0  0  0  0  0
   22.5660    5.4700   31.2310 C   0  0  0  0  0  0  0  0  0  0  0  0
   21.5210    5.8520   31.9990 N   0  0  0  0  0  4  0  0  0  0  0  0
   21.1420    7.1470   32.1320 C   0  0  0  0  0  0  0  0  0  0  0  0
   21.8600    8.0490   31.4600 N   0  0  0  0  0  0  0  0  0  0  0  0
   22.9100    7.7430   30.6780 C   0  0  0  0  0  0  0  0  0  0  0  0
   23.2360    6.4420   30.5870 N   0  0  0  0  0  0  0  0  0  0  0  0
   23.6280    8.7590   29.9920 N   0  0  0  0  0  0  0  0  0  0  0  0
   22.8890    9.8400   29.3660 C   0  0  0  0  0  0  0  0  0  0  0  0
   23.8540   10.7700   28.6660 C   0  0  0  0  0  0  0  0  0  0  0  0
   24.9170   11.1610   29.4300 O   0  0  0  0  0  0  0  0  0  0  0  0
   25.5030   10.2000   30.2090 C   0  0  0  0  0  0  0  0  0  0  0  0
   25.0550    8.7880   29.8740 C   0  0  0  0  0  0  0  0  0  0  0  0
   20.0330    7.4920   32.9540 N   0  0  0  0  0  0  0  0  0  0  0  0
   19.0700    6.5410   33.4580 C   0  0  0  0  0  0  0  0  0  0  0  0
   17.7240    7.1060   33.0060 C   0  0  0  0  0  0  0  0  0  0  0  0
   17.4850    8.2520   33.6700 O   0  0  0  0  0  0  0  0  0  0  0  0
   18.4420    9.1810   33.7830 C   0  0  0  0  0  0  0  0  0  0  0  0
   19.8140    8.8680   33.3340 C   0  0  0  0  0  0  0  0  0  0  0  0
   22.2430   -2.0120   35.4580 B   0  0  0  0  0  0  0  0  0  0  0  0
   22.2480   -0.0970   33.1250 H   0  0  0  0  0  0  0  0  0  0  0  0
   25.2250    2.7180   34.1480 H   0  0  0  0  0  0  0  0  0  0  0  0
   25.6530    1.4880   36.2930 H   0  0  0  0  0  0  0  0  0  0  0  0
   23.5710    1.5850   31.3340 H   0  0  0  0  0  0  0  0  0  0  0  0
   22.9730    3.6590   30.2060 H   0  0  0  0  0  0  0  0  0  0  0  0
   22.2120    9.4410   28.5570 H   0  0  0  0  0  0  0  0  0  0  0  0
   22.3470   10.3680   30.1560 H   0  0  0  0  0  0  0  0  0  0  0  0
   23.2600   11.7000   28.4330 H   0  0  0  0  0  0  0  0  0  0  0  0
   24.1500   10.3620   27.6850 H   0  0  0  0  0  0  0  0  0  0  0  0
   25.1890   10.3720   31.2700 H   0  0  0  0  0  0  0  0  0  0  0  0
   26.6090   10.3020   30.1240 H   0  0  0  0  0  0  0  0  0  0  0  0
   25.3160    8.6300   28.8050 H   0  0  0  0  0  0  0  0  0  0  0  0
   25.5490    8.0880   30.5520 H   0  0  0  0  0  0  0  0  0  0  0  0
   19.0760    6.6330   34.5640 H   0  0  0  0  0  0  0  0  0  0  0  0
   19.2270    5.5160   33.0980 H   0  0  0  0  0  0  0  0  0  0  0  0
   17.7790    7.2330   31.9090 H   0  0  0  0  0  0  0  0  0  0  0  0
   16.9080    6.3700   33.2550 H   0  0  0  0  0  0  0  0  0  0  0  0
   18.4920    9.5060   34.8660 H   0  0  0  0  0  0  0  0  0  0  0  0
   18.0880   10.1210   33.2600 H   0  0  0  0  0  0  0  0  0  0  0  0
   20.5790    9.0760   34.1420 H   0  0  0  0  0  0  0  0  0  0  0  0
   20.1320    9.5630   32.5010 H   0  0  0  0  0  0  0  0  0  0  0  0
  2  1  1  0  0  0  0
  3 29  1  0  0  0  0
  3  2  2  0  0  0  0
  4  3  1  0  0  0  0
  5  4  2  0  0  0  0
  5  6  1  0  0  0  0
  6  7  2  0  0  0  0
  7  2  1  0  0  0  0
  7 32  1  0  0  0  0
  8  9  2  0  0  0  0
  8  5  1  0  0  0  0
 10 11  1  0  0  0  0
 10  9  1  0  0  0  0
 11 12  2  0  0  0  0
 12 13  2  0  0  0  0
 13 23  1  0  0  0  0
 14 13  1  0  0  0  0
 15 14  2  0  0  0  0
 16 15  1  0  0  0  0
 16 11  1  0  0  0  0
 17 15  1  0  0  0  0
 18 17  1  0  0  0  0
 18 36  1  0  0  0  0
 19 18  1  0  0  0  0
 19 20  1  0  0  0  0
 20 21  1  0  0  0  0
 21 39  1  0  0  0  0
 22 17  1  0  0  0  0
 22 21  1  0  0  0  0
 22 42  1  0  0  0  0
 23 28  1  0  0  0  0
 23 24  1  0  0  0  0
 24 43  1  0  0  0  0
 25 46  1  0  0  0  0
 25 24  1  0  0  0  0
 25 26  1  0  0  0  0
 26 27  1  0  0  0  0
 27 47  1  0  0  0  0
 28 27  1  0  0  0  0
 28 49  1  0  0  0  0
 30  4  1  0  0  0  0
 31  6  1  0  0  0  0
 33  8  1  0  0  0  0
 34 10  1  0  0  0  0
 35 18  1  0  0  0  0
 37 19  1  0  0  0  0
 38 19  1  0  0  0  0
 40 21  1  0  0  0  0
 41 22  1  0  0  0  0
 44 24  1  0  0  0  0
 45 25  1  0  0  0  0
 48 27  1  0  0  0  0
 50 28  1  0  0  0  0
M  END
>  <Pose>
1

>  <Score>
-7.12

$$$$
