
 OpenBabel03202209553D

 41 44  0  0  0  0  0  0  0  0999 V2000
   27.6730    8.6290   28.7180 F   0  0  0  0  0  0  0  0  0  0  0  0
   27.8190    7.9460   27.5490 C   0  0  0  0  0  0  0  0  0  0  0  0
   27.4330    6.5950   27.5330 C   0  0  0  0  0  0  0  0  0  0  0  0
   27.5780    5.9090   26.3680 C   0  0  0  0  0  0  0  0  0  0  0  0
   28.0930    6.4930   25.1910 C   0  0  0  0  0  0  0  0  0  0  0  0
   28.4590    7.8170   25.2480 C   0  0  0  0  0  0  0  0  0  0  0  0
   28.3230    8.5340   26.4180 C   0  0  0  0  0  0  0  0  0  0  0  0
   28.9600    8.4360   24.1530 F   0  0  0  0  0  0  0  0  0  0  0  0
   26.9230    6.0320   28.7130 N   0  0  0  0  0  0  0  0  0  0  0  0
   25.8780    5.1140   28.7760 C   0  0  0  0  0  0  0  0  0  0  0  0
   25.0850    4.9030   27.8530 O   0  0  0  0  0  0  0  0  0  0  0  0
   25.6750    4.3090   30.0440 C   0  0  0  0  0  0  0  0  0  0  0  0
   24.3250    4.5170   30.5230 N   0  0  0  0  0  0  0  0  0  0  0  0
   23.5290    3.5320   30.8970 N   0  0  0  0  0  0  0  0  0  0  0  0
   22.3930    4.1020   31.2600 N   0  0  0  0  0  0  0  0  0  0  0  0
   22.4570    5.4430   31.1230 C   0  0  0  0  0  0  0  0  0  0  0  0
   23.6900    5.6940   30.6530 C   0  0  0  0  0  0  0  0  0  0  0  0
   23.7390    7.0620   30.5190 C   0  0  0  0  0  0  0  0  0  0  0  0
   24.7390    7.7050   30.1020 O   0  0  0  0  0  0  0  0  0  0  0  0
   22.5810    7.6430   30.8910 N   0  0  0  0  0  0  0  0  0  0  0  0
   21.7750    6.6370   31.2700 C   0  0  0  0  0  0  0  0  0  0  0  0
   20.5950    6.7710   31.6870 O   0  0  0  0  0  0  0  0  0  0  0  0
   22.3070    9.0550   30.8710 C   0  0  0  0  0  0  0  0  0  0  0  0
   21.8660    9.7050   32.0070 C   0  0  0  0  0  0  0  0  0  0  0  0
   21.5910   11.0560   32.0340 C   0  0  0  0  0  0  0  0  0  0  0  0
   21.7740   11.7600   30.8590 C   0  0  0  0  0  0  0  0  0  0  0  0
   22.2140   11.1620   29.6900 C   0  0  0  0  0  0  0  0  0  0  0  0
   22.4710    9.8060   29.7320 C   0  0  0  0  0  0  0  0  0  0  0  0
   21.3850   13.6400   30.9200 B   0  0  0  0  0  0  0  0  0  0  0  0
   27.3100    4.8830   26.2670 H   0  0  0  0  0  0  0  0  0  0  0  0
   28.1920    5.9140   24.2860 H   0  0  0  0  0  0  0  0  0  0  0  0
   28.6180    9.5900   26.4530 H   0  0  0  0  0  0  0  0  0  0  0  0
   27.3550    6.3140   29.6580 H   0  0  0  0  0  0  0  0  0  0  0  0
   26.3980    4.6620   30.8160 H   0  0  0  0  0  0  0  0  0  0  0  0
   25.9140    3.2700   29.8110 H   0  0  0  0  0  0  0  0  0  0  0  0
   23.7410    2.4930   30.9080 H   0  0  0  0  0  0  0  0  0  0  0  0
   21.5680    3.5480   31.6080 H   0  0  0  0  0  0  0  0  0  0  0  0
   21.7410    9.1030   32.8960 H   0  0  0  0  0  0  0  0  0  0  0  0
   21.2410   11.5550   32.9500 H   0  0  0  0  0  0  0  0  0  0  0  0
   22.3350   11.7710   28.8100 H   0  0  0  0  0  0  0  0  0  0  0  0
   22.8150    9.3330   28.8190 H   0  0  0  0  0  0  0  0  0  0  0  0
  2  1  1  0  0  0  0
  3  2  1  0  0  0  0
  3  9  1  0  0  0  0
  4  3  2  0  0  0  0
  5  6  2  0  0  0  0
  5  4  1  0  0  0  0
  6  7  1  0  0  0  0
  7 32  1  0  0  0  0
  7  2  2  0  0  0  0
  8  6  1  0  0  0  0
  9 10  1  0  0  0  0
  9 33  1  0  0  0  0
 10 12  1  0  0  0  0
 11 10  2  0  0  0  0
 12 13  1  0  0  0  0
 12 34  1  0  0  0  0
 13 17  1  0  0  0  0
 13 14  1  0  0  0  0
 14 36  1  0  0  0  0
 14 15  1  0  0  0  0
 15 37  1  0  0  0  0
 16 15  1  0  0  0  0
 16 21  1  0  0  0  0
 17 16  2  0  0  0  0
 18 17  1  0  0  0  0
 18 20  1  0  0  0  0
 19 18  2  0  0  0  0
 20 21  1  0  0  0  0
 21 22  2  0  0  0  0
 23 20  1  0  0  0  0
 23 24  1  0  0  0  0
 24 25  2  0  0  0  0
 24 38  1  0  0  0  0
 25 39  1  0  0  0  0
 26 29  1  0  0  0  0
 26 25  1  0  0  0  0
 27 28  1  0  0  0  0
 27 26  2  0  0  0  0
 28 23  2  0  0  0  0
 30  4  1  0  0  0  0
 31  5  1  0  0  0  0
 35 12  1  0  0  0  0
 40 27  1  0  0  0  0
 41 28  1  0  0  0  0
M  END
>  <Pose>
1

>  <Score>
-7.57

$$$$
