
 OpenBabel03202209553D

 41 44  0  0  0  0  0  0  0  0999 V2000
   29.3430    5.4660   26.2410 F   0  0  0  0  0  0  0  0  0  0  0  0
   28.2910    5.3380   27.1030 C   0  0  0  0  0  0  0  0  0  0  0  0
   27.9630    6.3710   27.9350 C   0  0  0  0  0  0  0  0  0  0  0  0
   26.8880    6.2510   28.8180 C   0  0  0  0  0  0  0  0  0  0  0  0
   26.1300    5.1040   28.8850 C   0  0  0  0  0  0  0  0  0  0  0  0
   26.4880    4.0750   28.0280 C   0  0  0  0  0  0  0  0  0  0  0  0
   27.5450    4.1820   27.1530 C   0  0  0  0  0  0  0  0  0  0  0  0
   25.0180    4.9280   29.7610 N   0  0  0  0  0  0  0  0  0  0  0  0
   23.9840    5.7570   29.9810 C   0  0  0  0  0  0  0  0  0  0  0  0
   23.8860    6.8610   29.3800 O   0  0  0  0  0  0  0  0  0  0  0  0
   23.0960    5.2500   30.9120 C   0  0  0  0  0  0  0  0  0  0  0  0
   23.6100    4.0760   31.2670 C   0  0  0  0  0  0  0  0  0  0  0  0
   22.7810    3.5480   32.1730 N   0  0  0  0  0  0  0  0  0  0  0  0
   21.7820    4.3900   32.3640 N   0  0  0  0  0  0  0  0  0  0  0  0
   21.9450    5.4620   31.5960 N   0  0  0  0  0  0  0  0  0  0  0  0
   21.1120    6.6230   31.4700 C   0  0  0  0  0  0  0  0  0  0  0  0
   21.5480    7.8010   32.2270 C   0  0  0  0  0  0  0  0  0  0  0  0
   20.7710    8.2510   33.0820 O   0  0  0  0  0  0  0  0  0  0  0  0
   22.7960    8.3820   31.9850 N   0  0  0  0  0  0  0  0  0  0  0  0
   23.1070    9.5740   31.2900 C   0  0  0  0  0  0  0  0  0  0  0  0
   24.0740   10.4460   31.7310 C   0  0  0  0  0  0  0  0  0  0  0  0
   24.4080   11.6330   31.0710 C   0  0  0  0  0  0  0  0  0  0  0  0
   23.7120   11.9100   29.9220 C   0  0  0  0  0  0  0  0  0  0  0  0
   22.7420   11.0560   29.4590 C   0  0  0  0  0  0  0  0  0  0  0  0
   22.4340    9.8990   30.1250 C   0  0  0  0  0  0  0  0  0  0  0  0
   24.1210   13.5300   28.9590 B   0  0  0  0  0  0  0  0  0  0  0  0
   24.7820    3.8650   30.5730 C   0  0  0  0  0  0  0  0  0  0  0  0
   25.5690    2.8770   30.6210 O   0  0  0  0  0  0  0  0  0  0  0  0
   28.5550    7.2730   27.8850 H   0  0  0  0  0  0  0  0  0  0  0  0
   26.6460    7.0680   29.4610 H   0  0  0  0  0  0  0  0  0  0  0  0
   25.8810    3.1610   28.0850 H   0  0  0  0  0  0  0  0  0  0  0  0
   27.8100    3.3710   26.4930 H   0  0  0  0  0  0  0  0  0  0  0  0
   22.9370    2.6100   32.6340 H   0  0  0  0  0  0  0  0  0  0  0  0
   20.9880    4.2550   33.0060 H   0  0  0  0  0  0  0  0  0  0  0  0
   20.0880    6.3430   31.8590 H   0  0  0  0  0  0  0  0  0  0  0  0
   20.9140    6.8740   30.3880 H   0  0  0  0  0  0  0  0  0  0  0  0
   23.6730    7.8760   32.3710 H   0  0  0  0  0  0  0  0  0  0  0  0
   24.6610   10.2860   32.6310 H   0  0  0  0  0  0  0  0  0  0  0  0
   25.1730   12.3020   31.4420 H   0  0  0  0  0  0  0  0  0  0  0  0
   22.1970   11.2890   28.5440 H   0  0  0  0  0  0  0  0  0  0  0  0
   21.6460    9.2240   29.7300 H   0  0  0  0  0  0  0  0  0  0  0  0
  1  2  1  0  0  0  0
  2  7  2  0  0  0  0
  2  3  1  0  0  0  0
  3  4  2  0  0  0  0
  4  5  1  0  0  0  0
  4 30  1  0  0  0  0
  5  8  1  0  0  0  0
  6 31  1  0  0  0  0
  6  5  2  0  0  0  0
  7  6  1  0  0  0  0
  8  9  1  0  0  0  0
  8 27  1  0  0  0  0
  9 11  1  0  0  0  0
 10  9  2  0  0  0  0
 11 12  2  0  0  0  0
 11 15  1  0  0  0  0
 12 13  1  0  0  0  0
 13 14  1  0  0  0  0
 13 33  1  0  0  0  0
 14 34  1  0  0  0  0
 15 14  1  0  0  0  0
 16 15  1  0  0  0  0
 16 35  1  0  0  0  0
 16 17  1  0  0  0  0
 17 18  2  0  0  0  0
 19 17  1  0  0  0  0
 19 37  1  0  0  0  0
 20 21  1  0  0  0  0
 20 19  1  0  0  0  0
 21 38  1  0  0  0  0
 22 39  1  0  0  0  0
 22 21  2  0  0  0  0
 23 22  1  0  0  0  0
 24 23  2  0  0  0  0
 24 25  1  0  0  0  0
 25 20  2  0  0  0  0
 26 23  1  0  0  0  0
 27 28  2  0  0  0  0
 27 12  1  0  0  0  0
 29  3  1  0  0  0  0
 32  7  1  0  0  0  0
 36 16  1  0  0  0  0
 40 24  1  0  0  0  0
 41 25  1  0  0  0  0
M  END
>  <Pose>
1

>  <Score>
-6.97

$$$$
