
 OpenBabel03202209553D

 39 42  0  0  1  0  0  0  0  0999 V2000
   19.7870    6.8100   33.0410 I   0  0  0  0  0  0  0  0  0  0  0  0
   21.2360    7.7720   31.8590 C   0  0  0  0  0  0  0  0  0  0  0  0
   21.2010    9.1590   31.7040 C   0  0  0  0  0  0  0  0  0  0  0  0
   22.1290    9.8270   30.9410 C   0  0  0  0  0  0  0  0  0  0  0  0
   23.1080    9.0320   30.3300 C   0  0  0  0  0  0  0  0  0  0  0  0
   23.1350    7.6700   30.4870 C   0  0  0  0  0  0  0  0  0  0  0  0
   22.1970    7.0220   31.2550 C   0  0  0  0  0  0  0  0  0  0  0  0
   24.4810    6.6240   29.6400 B   0  0  0  0  0  0  0  0  0  0  0  0
   22.1450   11.3010   30.7530 C   0  0  2  0  0  0  0  0  0  0  0  0
   22.5830   11.5380   29.3950 N   0  0  0  0  0  0  0  0  0  0  0  0
   23.9580   11.3390   29.0520 C   0  0  0  0  0  0  0  0  0  0  0  0
   24.7710   10.9700   27.5600 S   0  0  0  0  0  0  0  0  0  0  0  0
   26.3750   10.9300   28.1200 C   0  0  0  0  0  0  0  0  0  0  0  0
   26.2410   11.2000   29.4380 C   0  0  0  0  0  0  0  0  0  0  0  0
   25.0060   11.4110   29.9230 C   0  0  0  0  0  0  0  0  0  0  0  0
   24.5410   11.7260   31.3040 C   0  0  0  0  0  0  0  0  0  0  0  0
   25.3540   11.8390   32.2520 O   0  0  0  0  0  0  0  0  0  0  0  0
   23.1690   11.9090   31.5850 N   0  0  0  0  0  0  0  0  0  0  0  0
   27.5530   11.2300   30.2120 C   0  0  0  0  0  0  0  0  0  0  0  0
   28.6610   11.4940   29.2450 C   0  0  0  0  0  0  0  0  0  0  0  0
   28.6630   10.3460   28.3240 N   0  0  0  0  0  4  0  0  0  0  0  0
   27.6240   10.6670   27.3680 C   0  0  0  0  0  0  0  0  0  0  0  0
   29.9540   10.1750   27.7010 C   0  0  0  0  0  0  0  0  0  0  0  0
   20.2060    9.8720   32.3350 O   0  0  0  0  0  0  0  0  0  0  0  0
   23.8390    9.5540   29.7270 H   0  0  0  0  0  0  0  0  0  0  0  0
   22.2120    5.9320   31.3870 H   0  0  0  0  0  0  0  0  0  0  0  0
   21.1500   11.7510   30.9520 H   0  0  0  0  0  0  0  0  0  0  0  0
   21.9410   11.8540   28.6350 H   0  0  0  0  0  0  0  0  0  0  0  0
   22.8600   12.4900   32.4060 H   0  0  0  0  0  0  0  0  0  0  0  0
   27.6770   10.2300   30.6440 H   0  0  0  0  0  0  0  0  0  0  0  0
   27.5140   11.9720   31.0160 H   0  0  0  0  0  0  0  0  0  0  0  0
   28.4810   12.4180   28.6710 H   0  0  0  0  0  0  0  0  0  0  0  0
   29.6060   11.5320   29.7840 H   0  0  0  0  0  0  0  0  0  0  0  0
   28.3560    9.4980   28.8460 H   0  0  0  0  0  0  0  0  0  0  0  0
   27.8960   11.5380   26.7390 H   0  0  0  0  0  0  0  0  0  0  0  0
   27.5440    9.8020   26.6820 H   0  0  0  0  0  0  0  0  0  0  0  0
   29.9220   10.3490   26.6120 H   0  0  0  0  0  0  0  0  0  0  0  0
   30.2380    9.0970   27.8430 H   0  0  0  0  0  0  0  0  0  0  0  0
   30.7590   10.7540   28.2010 H   0  0  0  0  0  0  0  0  0  0  0  0
  2  1  1  0  0  0  0
  3  2  1  0  0  0  0
  3 24  1  0  0  0  0
  4  3  2  0  0  0  0
  5  6  2  0  0  0  0
  5  4  1  0  0  0  0
  6  7  1  0  0  0  0
  7 26  1  0  0  0  0
  7  2  2  0  0  0  0
  8  6  1  0  0  0  0
  9  4  1  0  0  0  0
  9 27  1  1  0  0  0
  9 18  1  0  0  0  0
 10  9  1  0  0  0  0
 11 10  1  0  0  0  0
 11 15  2  0  0  0  0
 12 13  1  0  0  0  0
 12 11  1  0  0  0  0
 13 14  2  0  0  0  0
 14 15  1  0  0  0  0
 14 19  1  0  0  0  0
 15 16  1  0  0  0  0
 16 18  1  0  0  0  0
 16 17  2  0  0  0  0
 18 29  1  0  0  0  0
 19 30  1  0  0  0  0
 19 31  1  0  0  0  0
 20 33  1  0  0  0  0
 20 19  1  0  0  0  0
 21 34  1  0  0  0  0
 21 20  1  0  0  0  0
 22 13  1  0  0  0  0
 22 21  1  0  0  0  0
 23 38  1  0  0  0  0
 23 39  1  0  0  0  0
 23 21  1  0  0  0  0
 25  5  1  0  0  0  0
 28 10  1  0  0  0  0
 32 20  1  0  0  0  0
 35 22  1  0  0  0  0
 36 22  1  0  0  0  0
 37 23  1  0  0  0  0
M  END
>  <Pose>
1

>  <Score>
-5.08

$$$$
