
 OpenBabel03202209553D

 43 46  0  0  1  0  0  0  0  0999 V2000
   17.8090    7.5490   33.4350 I   0  0  0  0  0  0  0  0  0  0  0  0
   19.7320    7.5540   32.5690 C   0  0  0  0  0  0  0  0  0  0  0  0
   20.4340    8.7380   32.4700 C   0  0  0  0  0  0  0  0  0  0  0  0
   21.7060    8.7560   31.8990 C   0  0  0  0  0  0  0  0  0  0  0  0
   22.2140    7.5730   31.4540 C   0  0  0  0  0  0  0  0  0  0  0  0
   21.5300    6.3670   31.5410 C   0  0  0  0  0  0  0  0  0  0  0  0
   20.2830    6.3700   32.1040 C   0  0  0  0  0  0  0  0  0  0  0  0
   22.1950    5.1430   31.0160 C   0  0  2  0  0  0  0  0  0  0  0  0
   22.1750    4.1770   32.1140 N   0  0  0  0  0  0  0  0  0  0  0  0
   23.3110    3.3120   32.3680 C   0  0  0  0  0  0  0  0  0  0  0  0
   23.5130    1.9010   33.3280 S   0  0  0  0  0  0  0  0  0  0  0  0
   25.1500    1.5940   33.0100 C   0  0  0  0  0  0  0  0  0  0  0  0
   25.5050    2.6040   32.1580 C   0  0  0  0  0  0  0  0  0  0  0  0
   24.5440    3.4940   31.8290 C   0  0  0  0  0  0  0  0  0  0  0  0
   24.6740    4.6750   30.9270 C   0  0  0  0  0  0  0  0  0  0  0  0
   25.7720    4.9570   30.3580 O   0  0  0  0  0  0  0  0  0  0  0  0
   23.5520    5.4950   30.7010 N   0  0  0  0  0  0  0  0  0  0  0  0
   26.9700    2.5080   31.7440 C   0  0  0  0  0  0  0  0  0  0  0  0
   27.8240    2.3480   32.9740 C   0  0  0  0  0  0  0  0  0  0  0  0
   27.3170    1.4080   33.9170 N   0  0  0  0  0  4  0  0  0  0  0  0
   26.2270    0.6030   33.3760 C   0  0  0  0  0  0  0  0  0  0  0  0
   26.7200    2.1790   35.0190 C   0  0  0  0  0  0  0  0  0  0  0  0
   22.3650    9.9750   31.8260 O   0  0  0  0  0  0  0  0  0  0  0  0
   23.7760    9.9750   31.7090 C   0  0  0  0  0  0  0  0  0  0  0  0
   19.8840    9.9180   32.9340 O   0  0  0  0  0  0  0  0  0  0  0  0
   23.2050    7.5750   31.0070 H   0  0  0  0  0  0  0  0  0  0  0  0
   19.7460    5.4220   32.1710 H   0  0  0  0  0  0  0  0  0  0  0  0
   21.6500    4.7210   30.1510 H   0  0  0  0  0  0  0  0  0  0  0  0
   21.3560    4.0790   32.7420 H   0  0  0  0  0  0  0  0  0  0  0  0
   23.6990    6.4440   30.2670 H   0  0  0  0  0  0  0  0  0  0  0  0
   27.0760    1.6730   31.0540 H   0  0  0  0  0  0  0  0  0  0  0  0
   27.2810    3.4500   31.2580 H   0  0  0  0  0  0  0  0  0  0  0  0
   28.0680    3.3180   33.4540 H   0  0  0  0  0  0  0  0  0  0  0  0
   28.8160    1.9480   32.6100 H   0  0  0  0  0  0  0  0  0  0  0  0
   28.0530    0.7750   34.3250 H   0  0  0  0  0  0  0  0  0  0  0  0
   25.8790   -0.0530   34.1850 H   0  0  0  0  0  0  0  0  0  0  0  0
   26.6200    0.0820   32.4890 H   0  0  0  0  0  0  0  0  0  0  0  0
   26.1490    3.0100   34.5560 H   0  0  0  0  0  0  0  0  0  0  0  0
   26.0190    1.5260   35.5850 H   0  0  0  0  0  0  0  0  0  0  0  0
   27.4930    2.5300   35.7190 H   0  0  0  0  0  0  0  0  0  0  0  0
   24.0550    9.6440   30.6670 H   0  0  0  0  0  0  0  0  0  0  0  0
   24.2630    9.2590   32.3970 H   0  0  0  0  0  0  0  0  0  0  0  0
   24.2100   10.9720   31.9290 H   0  0  0  0  0  0  0  0  0  0  0  0
  2  1  1  0  0  0  0
  3  2  1  0  0  0  0
  3 25  1  0  0  0  0
  4  3  2  0  0  0  0
  5  6  2  0  0  0  0
  5  4  1  0  0  0  0
  6  7  1  0  0  0  0
  7 27  1  0  0  0  0
  7  2  2  0  0  0  0
  8 28  1  6  0  0  0
  8  6  1  0  0  0  0
  8  9  1  0  0  0  0
  9 10  1  0  0  0  0
  9 29  1  0  0  0  0
 10 11  1  0  0  0  0
 12 11  1  0  0  0  0
 12 21  1  0  0  0  0
 13 12  2  0  0  0  0
 14 13  1  0  0  0  0
 14 10  2  0  0  0  0
 15 14  1  0  0  0  0
 16 15  2  0  0  0  0
 17 15  1  0  0  0  0
 17  8  1  0  0  0  0
 18 13  1  0  0  0  0
 18 19  1  0  0  0  0
 19 33  1  0  0  0  0
 19 20  1  0  0  0  0
 20 35  1  0  0  0  0
 20 22  1  0  0  0  0
 21 20  1  0  0  0  0
 21 36  1  0  0  0  0
 22 39  1  0  0  0  0
 22 40  1  0  0  0  0
 23  4  1  0  0  0  0
 24 23  1  0  0  0  0
 24 43  1  0  0  0  0
 24 42  1  0  0  0  0
 26  5  1  0  0  0  0
 30 17  1  0  0  0  0
 31 18  1  0  0  0  0
 32 18  1  0  0  0  0
 34 19  1  0  0  0  0
 37 21  1  0  0  0  0
 38 22  1  0  0  0  0
 41 24  1  0  0  0  0
M  END
>  <Pose>
1

>  <Score>
-6.36

$$$$
