
 OpenBabel03202209553D

 40 43  0  0  1  0  0  0  0  0999 V2000
   24.8750   17.9150   24.7250 I   0  0  0  0  0  0  0  0  0  0  0  0
   23.9270   17.5910   26.5510 C   0  0  0  0  0  0  0  0  0  0  0  0
   23.0750   18.4940   27.1560 C   0  0  0  0  0  0  0  0  0  0  0  0
   22.4670   18.2490   28.3580 C   0  0  0  0  0  0  0  0  0  0  0  0
   22.6740   17.0830   29.0300 C   0  0  0  0  0  0  0  0  0  0  0  0
   23.5310   16.1590   28.4340 C   0  0  0  0  0  0  0  0  0  0  0  0
   24.1350   16.3990   27.2450 C   0  0  0  0  0  0  0  0  0  0  0  0
   22.0380   16.7850   30.2840 C   0  0  2  0  0  0  0  0  0  0  0  0
   22.4560   17.5220   31.2790 O   0  0  0  0  0  0  0  0  0  0  0  0
   21.0300   15.8380   30.6800 C   0  0  0  0  0  0  0  0  0  0  0  0
   21.3220   14.4650   30.8570 N   0  0  0  0  0  0  0  0  0  0  0  0
   22.2560   13.8080   30.2440 C   0  0  1  0  0  0  0  0  0  0  0  0
   23.5570   14.0430   29.0220 S   0  0  0  0  0  0  0  0  0  0  0  0
   24.0930   12.3490   29.0910 C   0  0  0  0  0  0  0  0  0  0  0  0
   23.3470   11.7020   29.9580 C   0  0  0  0  0  0  0  0  0  0  0  0
   22.3410   12.4610   30.6050 N   0  0  0  0  0  0  0  0  0  0  0  0
   21.2810   12.2400   31.6220 C   0  0  0  0  0  0  0  0  0  0  0  0
   20.6020   13.5620   31.7120 C   0  0  0  0  0  0  0  0  0  0  0  0
   23.6230   10.2510   30.1700 C   0  0  0  0  0  0  0  0  0  0  0  0
   24.8490    9.7900   30.5750 C   0  0  0  0  0  0  0  0  0  0  0  0
   25.1020    8.4200   30.7820 C   0  0  0  0  0  0  0  0  0  0  0  0
   24.1050    7.4940   30.5810 C   0  0  0  0  0  0  0  0  0  0  0  0
   22.8750    7.9500   30.1760 C   0  0  0  0  0  0  0  0  0  0  0  0
   22.6350    9.3030   29.9740 C   0  0  0  0  0  0  0  0  0  0  0  0
   22.9050   19.4350   26.6200 H   0  0  0  0  0  0  0  0  0  0  0  0
   21.8400   19.0130   28.7420 H   0  0  0  0  0  0  0  0  0  0  0  0
   23.7080   15.2350   28.9440 H   0  0  0  0  0  0  0  0  0  0  0  0
   24.8150   15.6770   26.7630 H   0  0  0  0  0  0  0  0  0  0  0  0
   20.4910   16.1720   31.6420 H   0  0  0  0  0  0  0  0  0  0  0  0
   20.1750   15.9500   29.9280 H   0  0  0  0  0  0  0  0  0  0  0  0
   24.9210   12.0210   28.4650 H   0  0  0  0  0  0  0  0  0  0  0  0
   21.7010   11.9830   32.6050 H   0  0  0  0  0  0  0  0  0  0  0  0
   20.5240   11.5110   31.2650 H   0  0  0  0  0  0  0  0  0  0  0  0
   20.6000   13.9010   32.7690 H   0  0  0  0  0  0  0  0  0  0  0  0
   19.5260   13.5100   31.3690 H   0  0  0  0  0  0  0  0  0  0  0  0
   25.6430   10.4920   30.7360 H   0  0  0  0  0  0  0  0  0  0  0  0
   26.0690    8.1250   31.0960 H   0  0  0  0  0  0  0  0  0  0  0  0
   24.2360    6.4340   30.7240 H   0  0  0  0  0  0  0  0  0  0  0  0
   22.0860    7.2370   30.0140 H   0  0  0  0  0  0  0  0  0  0  0  0
   21.6380    9.5930   29.6530 H   0  0  0  0  0  0  0  0  0  0  0  0
  1  2  1  0  0  0  0
  2  3  2  0  0  0  0
  2  7  1  0  0  0  0
  3  4  1  0  0  0  0
  4 26  1  0  0  0  0
  4  5  2  0  0  0  0
  5  8  1  0  0  0  0
  6 27  1  0  0  0  0
  6  5  1  0  0  0  0
  7  6  2  0  0  0  0
  8 10  1  0  0  0  0
  8  9  1  1  0  0  0
 10 11  1  0  0  0  0
 10 29  1  0  0  0  0
 11 18  1  0  0  0  0
 12 13  1  1  0  0  0
 12 16  1  0  0  0  0
 12 11  1  0  0  0  0
 13 14  1  0  0  0  0
 14 15  2  0  0  0  0
 15 19  1  0  0  0  0
 15 16  1  0  0  0  0
 16 17  1  0  0  0  0
 17 18  1  0  0  0  0
 17 32  1  0  0  0  0
 18 34  1  0  0  0  0
 19 20  1  0  0  0  0
 20 36  1  0  0  0  0
 20 21  2  0  0  0  0
 21 37  1  0  0  0  0
 22 38  1  0  0  0  0
 22 21  1  0  0  0  0
 23 22  2  0  0  0  0
 24 19  2  0  0  0  0
 24 23  1  0  0  0  0
 25  3  1  0  0  0  0
 28  7  1  0  0  0  0
 30 10  1  0  0  0  0
 31 14  1  0  0  0  0
 33 17  1  0  0  0  0
 35 18  1  0  0  0  0
 39 23  1  0  0  0  0
 40 24  1  0  0  0  0
M  END
>  <Pose>
1

>  <Score>
-6.60

$$$$
