
 OpenBabel03202209553D

 52 56  0  0  1  0  0  0  0  0999 V2000
   20.4510   15.5630   31.5400 I   0  0  0  0  0  0  0  0  0  0  0  0
   21.7890   13.9950   31.1470 C   0  0  0  0  0  0  0  0  0  0  0  0
   21.3920   12.9250   30.3510 C   0  0  0  0  0  0  0  0  0  0  0  0
   22.2550   11.9010   30.0910 C   0  0  0  0  0  0  0  0  0  0  0  0
   23.5470   11.8680   30.5920 C   0  0  0  0  0  0  0  0  0  0  0  0
   23.9500   12.9340   31.3890 C   0  0  0  0  0  0  0  0  0  0  0  0
   23.0700   13.9640   31.6470 C   0  0  0  0  0  0  0  0  0  0  0  0
   24.4430   10.8020   30.3190 N   0  0  0  0  0  0  0  0  0  0  0  0
   25.1150   10.7290   29.1570 C   0  0  0  0  0  0  0  0  0  0  0  0
   25.9900    9.7040   28.8720 C   0  0  2  0  0  0  0  0  0  0  0  0
   26.1390    8.7460   29.8560 C   0  0  0  0  0  0  0  0  0  0  0  0
   26.9060    7.7410   29.7480 O   0  0  0  0  0  0  0  0  0  0  0  0
   25.4610    8.8080   31.0430 N   0  0  0  0  0  0  0  0  0  0  0  0
   24.6260    9.8430   31.2420 C   0  0  0  0  0  0  0  0  0  0  0  0
   23.9820    9.9440   32.3170 O   0  0  0  0  0  0  0  0  0  0  0  0
   26.7620    9.5650   27.6510 C   0  0  1  0  0  0  0  0  0  0  0  0
   27.0800   10.7580   26.9330 N   0  0  0  0  0  4  0  0  0  0  0  0
   27.9370   11.6710   27.6380 C   0  0  0  0  0  0  0  0  0  0  0  0
   28.5310   11.0830   28.9000 C   0  0  0  0  0  0  0  0  0  0  0  0
   29.0130    9.6860   28.5930 C   0  0  0  0  0  0  0  0  0  0  0  0
   28.0940    8.9160   27.9260 C   0  0  0  0  0  0  0  0  0  0  0  0
   28.4030    7.6310   27.5490 C   0  0  0  0  0  0  0  0  0  0  0  0
   29.6680    7.1600   27.8710 C   0  0  0  0  0  0  0  0  0  0  0  0
   30.6030    7.9210   28.5420 C   0  0  0  0  0  0  0  0  0  0  0  0
   30.2480    9.2200   28.9050 C   0  0  0  0  0  0  0  0  0  0  0  0
   31.7510    7.1630   28.7060 O   0  0  0  0  0  0  0  0  0  0  0  0
   31.4340    5.7810   28.4700 C   0  0  0  0  0  0  0  0  0  0  0  0
   30.2970    5.9270   27.6410 O   0  0  0  0  0  0  0  0  0  0  0  0
   27.4820    6.8720   26.8840 O   0  0  0  0  0  0  0  0  0  0  0  0
   27.5980    6.3370   25.6050 C   0  0  0  0  0  0  0  0  0  0  0  0
   27.8830   10.3030   25.7680 C   0  0  0  0  0  0  0  0  0  0  0  0
   24.9370   11.6990   28.2050 O   0  0  0  0  0  0  0  0  0  0  0  0
   20.3900   12.9420   29.9570 H   0  0  0  0  0  0  0  0  0  0  0  0
   21.9390   11.0730   29.4710 H   0  0  0  0  0  0  0  0  0  0  0  0
   24.9640   12.9030   31.7800 H   0  0  0  0  0  0  0  0  0  0  0  0
   23.3800   14.7860   32.2600 H   0  0  0  0  0  0  0  0  0  0  0  0
   25.5770    8.0870   31.7790 H   0  0  0  0  0  0  0  0  0  0  0  0
   26.2260    8.8700   26.9810 H   0  0  0  0  0  0  0  0  0  0  0  0
   26.2950   11.2360   26.4600 H   0  0  0  0  0  0  0  0  0  0  0  0
   27.4020   12.5920   27.9200 H   0  0  0  0  0  0  0  0  0  0  0  0
   28.8160   12.0170   27.0260 H   0  0  0  0  0  0  0  0  0  0  0  0
   27.8730   11.1210   29.7760 H   0  0  0  0  0  0  0  0  0  0  0  0
   29.4460   11.6530   29.1620 H   0  0  0  0  0  0  0  0  0  0  0  0
   30.9350    9.8530   29.4270 H   0  0  0  0  0  0  0  0  0  0  0  0
   31.0740    5.3370   29.4270 H   0  0  0  0  0  0  0  0  0  0  0  0
   32.2560    5.2380   28.0060 H   0  0  0  0  0  0  0  0  0  0  0  0
   26.7790    6.7870   24.9750 H   0  0  0  0  0  0  0  0  0  0  0  0
   28.5780    6.4940   25.1240 H   0  0  0  0  0  0  0  0  0  0  0  0
   27.3930    5.2330   25.5700 H   0  0  0  0  0  0  0  0  0  0  0  0
   27.2830    9.6570   25.1300 H   0  0  0  0  0  0  0  0  0  0  0  0
   28.8130    9.8660   26.1560 H   0  0  0  0  0  0  0  0  0  0  0  0
   28.1920   11.2180   25.1940 H   0  0  0  0  0  0  0  0  0  0  0  0
  2  1  1  0  0  0  0
  2  7  1  0  0  0  0
  3  2  2  0  0  0  0
  4  3  1  0  0  0  0
  4  5  2  0  0  0  0
  5  6  1  0  0  0  0
  6  7  2  0  0  0  0
  6 35  1  0  0  0  0
  7 36  1  0  0  0  0
  8  5  1  0  0  0  0
  8 14  1  0  0  0  0
  9  8  1  0  0  0  0
 10  9  1  1  0  0  0
 10 11  1  0  0  0  0
 11 13  1  0  0  0  0
 12 11  2  0  0  0  0
 13 14  1  0  0  0  0
 13 37  1  0  0  0  0
 14 15  2  0  0  0  0
 16 38  1  6  0  0  0
 16 21  1  0  0  0  0
 16 10  1  0  0  0  0
 17 18  1  0  0  0  0
 17 16  1  0  0  0  0
 18 40  1  0  0  0  0
 18 19  1  0  0  0  0
 19 43  1  0  0  0  0
 19 42  1  0  0  0  0
 20 19  1  0  0  0  0
 20 25  1  0  0  0  0
 21 20  2  0  0  0  0
 22 23  2  0  0  0  0
 22 21  1  0  0  0  0
 23 24  1  0  0  0  0
 24 26  1  0  0  0  0
 24 25  2  0  0  0  0
 25 44  1  0  0  0  0
 27 26  1  0  0  0  0
 27 45  1  0  0  0  0
 28 23  1  0  0  0  0
 28 27  1  0  0  0  0
 29 22  1  0  0  0  0
 30 29  1  0  0  0  0
 31 51  1  0  0  0  0
 31 17  1  0  0  0  0
 32  9  2  0  0  0  0
 33  3  1  0  0  0  0
 34  4  1  0  0  0  0
 39 17  1  0  0  0  0
 41 18  1  0  0  0  0
 46 27  1  0  0  0  0
 47 30  1  0  0  0  0
 48 30  1  0  0  0  0
 49 30  1  0  0  0  0
 50 31  1  0  0  0  0
 52 31  1  0  0  0  0
M  END
>  <Pose>
1

>  <Score>
-5.22

$$$$
