
 OpenBabel03202209553D

 40 43  0  0  0  0  0  0  0  0999 V2000
   22.0140   16.2750   32.3760 I   0  0  0  0  0  0  0  0  0  0  0  0
   22.2760   14.7620   30.9660 C   0  0  0  0  0  0  0  0  0  0  0  0
   22.0870   13.4050   31.2290 C   0  0  0  0  0  0  0  0  0  0  0  0
   22.3570   12.7190   30.1170 N   0  0  0  0  0  0  0  0  0  0  0  0
   22.6990   13.5800   29.1990 N   0  0  0  0  0  0  0  0  0  0  0  0
   22.6640   14.8700   29.6750 C   0  0  0  0  0  0  0  0  0  0  0  0
   22.9840   16.0350   28.8300 C   0  0  0  0  0  0  0  0  0  0  0  0
   23.0680   17.1520   29.4480 O   0  0  0  0  0  0  0  0  0  0  0  0
   23.1900   15.9870   27.4580 N   0  0  0  0  0  0  0  0  0  0  0  0
   24.4170   16.1420   26.7720 C   0  0  0  0  0  0  0  0  0  0  0  0
   24.5300   17.2310   25.9010 C   0  0  0  0  0  0  0  0  0  0  0  0
   23.6610   18.2030   25.5730 N   0  0  0  0  0  0  0  0  0  0  0  0
   24.2330   18.9930   24.7130 O   0  0  0  0  0  0  0  0  0  0  0  0
   25.4380   18.5870   24.4600 N   0  0  0  0  0  0  0  0  0  0  0  0
   25.6730   17.4770   25.1860 C   0  0  0  0  0  0  0  0  0  0  0  0
   26.7570   16.6360   25.3160 C   0  0  0  0  0  0  0  0  0  0  0  0
   26.6350   15.5720   26.1730 C   0  0  0  0  0  0  0  0  0  0  0  0
   25.4710   15.3110   26.9080 C   0  0  0  0  0  0  0  0  0  0  0  0
   27.9300   16.9070   24.5680 N   0  0  0  0  0  0  0  0  0  0  0  0
   28.7540   18.0570   24.8780 C   0  0  0  0  0  0  0  0  0  0  0  0
   29.9530   18.0480   23.9950 C   0  0  0  0  0  0  0  0  0  0  0  0
   30.6120   16.8350   23.9440 O   0  0  0  0  0  0  0  0  0  0  0  0
   29.8510   15.7780   23.5580 C   0  0  0  0  0  0  0  0  0  0  0  0
   28.3740   16.0720   23.4690 C   0  0  0  0  0  0  0  0  0  0  0  0
   22.2720   11.2580   29.9920 C   0  0  0  0  0  0  0  0  0  0  0  0
   21.7730   12.9530   32.1670 H   0  0  0  0  0  0  0  0  0  0  0  0
   22.3130   15.7990   26.8770 H   0  0  0  0  0  0  0  0  0  0  0  0
   27.4860   14.9150   26.2720 H   0  0  0  0  0  0  0  0  0  0  0  0
   25.4950   14.4400   27.5520 H   0  0  0  0  0  0  0  0  0  0  0  0
   29.0330   17.9660   25.9480 H   0  0  0  0  0  0  0  0  0  0  0  0
   28.2000   19.0110   24.6830 H   0  0  0  0  0  0  0  0  0  0  0  0
   30.6270   18.8660   24.3180 H   0  0  0  0  0  0  0  0  0  0  0  0
   29.6060   18.2760   22.9510 H   0  0  0  0  0  0  0  0  0  0  0  0
   30.1810   15.4490   22.5510 H   0  0  0  0  0  0  0  0  0  0  0  0
   30.0150   14.8980   24.2360 H   0  0  0  0  0  0  0  0  0  0  0  0
   27.8400   15.1040   23.5640 H   0  0  0  0  0  0  0  0  0  0  0  0
   28.0900   16.5110   22.4950 H   0  0  0  0  0  0  0  0  0  0  0  0
   21.5050   10.9130   30.6940 H   0  0  0  0  0  0  0  0  0  0  0  0
   21.9120   11.0560   28.9570 H   0  0  0  0  0  0  0  0  0  0  0  0
   23.2630   10.8230   30.1970 H   0  0  0  0  0  0  0  0  0  0  0  0
  2  3  2  0  0  0  0
  2  1  1  0  0  0  0
  3 26  1  0  0  0  0
  4  3  1  0  0  0  0
  5  6  2  0  0  0  0
  5  4  1  0  0  0  0
  6  2  1  0  0  0  0
  7  8  2  0  0  0  0
  7  6  1  0  0  0  0
  9  7  1  0  0  0  0
 10 18  2  0  0  0  0
 10  9  1  0  0  0  0
 11 10  1  0  0  0  0
 12 11  2  0  0  0  0
 13 12  1  0  0  0  0
 14 13  1  0  0  0  0
 14 15  2  0  0  0  0
 15 16  1  0  0  0  0
 15 11  1  0  0  0  0
 16 17  2  0  0  0  0
 17 28  1  0  0  0  0
 17 18  1  0  0  0  0
 18 29  1  0  0  0  0
 19 20  1  0  0  0  0
 19 16  1  0  0  0  0
 20 30  1  0  0  0  0
 21 32  1  0  0  0  0
 21 20  1  0  0  0  0
 22 21  1  0  0  0  0
 23 22  1  0  0  0  0
 23 35  1  0  0  0  0
 24 23  1  0  0  0  0
 24 36  1  0  0  0  0
 24 19  1  0  0  0  0
 25  4  1  0  0  0  0
 25 40  1  0  0  0  0
 25 38  1  0  0  0  0
 27  9  1  0  0  0  0
 31 20  1  0  0  0  0
 33 21  1  0  0  0  0
 34 23  1  0  0  0  0
 37 24  1  0  0  0  0
 39 25  1  0  0  0  0
M  END
>  <Pose>
1

>  <Score>
-7.31

$$$$
