
 OpenBabel03202209553D

 48 52  0  0  1  0  0  0  0  0999 V2000
   21.6900   13.9470   31.8510 B   0  0  0  0  0  0  0  0  0  0  0  0
   22.3150   14.8560   30.2970 C   0  0  0  0  0  0  0  0  0  0  0  0
   21.9200   16.2070   30.1310 C   0  0  0  0  0  0  0  0  0  0  0  0
   22.2900   16.9110   29.0170 C   0  0  0  0  0  0  0  0  0  0  0  0
   23.0540   16.2770   28.0620 C   0  0  0  0  0  0  0  0  0  0  0  0
   23.4320   14.9640   28.2330 C   0  0  0  0  0  0  0  0  0  0  0  0
   23.0680   14.2070   29.3750 C   0  0  0  0  0  0  0  0  0  0  0  0
   23.5790   12.8590   29.4670 C   0  0  0  0  0  0  0  0  0  0  0  0
   23.4230   11.9310   30.3440 C   0  0  0  0  0  0  0  0  0  0  0  0
   23.9300   10.5740   30.4300 C   0  0  1  0  0  0  0  0  0  0  0  0
   25.1170   10.1520   30.0670 N   0  0  0  0  0  0  0  0  0  0  0  0
   25.4840    8.8570   30.3070 C   0  0  0  0  0  0  0  0  0  0  0  0
   24.6800    7.9420   30.9120 C   0  0  0  0  0  0  0  0  0  0  0  0
   23.4230    8.3470   31.3060 C   0  0  0  0  0  0  0  0  0  0  0  0
   22.3620    7.7270   31.9280 N   0  0  0  0  0  0  0  0  0  0  0  0
   21.3720    8.5920   32.0750 C   0  0  0  0  0  0  0  0  0  0  0  0
   21.8160    9.7620   31.5410 N   0  0  0  0  0  0  0  0  0  0  0  0
   23.0610    9.6410   31.0650 C   0  0  0  0  0  0  0  0  0  0  0  0
   20.0410    8.3920   32.6600 C   0  0  0  0  0  0  0  0  0  0  0  0
   19.3330    7.2370   32.6190 C   0  0  0  0  0  0  0  0  0  0  0  0
   18.0490    7.1720   33.1910 C   0  0  0  0  0  0  0  0  0  0  0  0
   17.5030    8.2800   33.7970 C   0  0  0  0  0  0  0  0  0  0  0  0
   18.2080    9.4750   33.8550 C   0  0  0  0  0  0  0  0  0  0  0  0
   19.4400    9.4940   33.2910 C   0  0  0  0  0  0  0  0  0  0  0  0
   22.4450    6.3390   32.2850 C   0  0  0  0  0  0  0  0  0  0  0  0
   26.0400   10.9820   29.3500 C   0  0  0  0  0  0  0  0  0  0  0  0
   23.2890   17.2090   27.0370 O   0  0  0  0  0  0  0  0  0  0  0  0
   23.1180   18.4830   27.6220 C   0  0  0  0  0  0  0  0  0  0  0  0
   22.0760   18.2150   28.5590 O   0  0  0  0  0  0  0  0  0  0  0  0
   21.3240   16.6490   30.9120 H   0  0  0  0  0  0  0  0  0  0  0  0
   24.0360   14.4810   27.4680 H   0  0  0  0  0  0  0  0  0  0  0  0
   24.2640   12.5900   28.6410 H   0  0  0  0  0  0  0  0  0  0  0  0
   22.7860   12.2420   31.1990 H   0  0  0  0  0  0  0  0  0  0  0  0
   26.4800    8.5540   29.9920 H   0  0  0  0  0  0  0  0  0  0  0  0
   24.9590    6.9160   31.1080 H   0  0  0  0  0  0  0  0  0  0  0  0
   19.7310    6.3380   32.1640 H   0  0  0  0  0  0  0  0  0  0  0  0
   17.5080    6.2420   33.1430 H   0  0  0  0  0  0  0  0  0  0  0  0
   16.5130    8.2360   34.2410 H   0  0  0  0  0  0  0  0  0  0  0  0
   17.8010   10.3570   34.3240 H   0  0  0  0  0  0  0  0  0  0  0  0
   20.0020   10.4310   33.3310 H   0  0  0  0  0  0  0  0  0  0  0  0
   22.5270    6.1270   33.3570 H   0  0  0  0  0  0  0  0  0  0  0  0
   23.3790    5.8670   31.8120 H   0  0  0  0  0  0  0  0  0  0  0  0
   21.6420    5.7000   31.8530 H   0  0  0  0  0  0  0  0  0  0  0  0
   26.7770   11.5140   29.9650 H   0  0  0  0  0  0  0  0  0  0  0  0
   26.7170   10.2500   28.7600 H   0  0  0  0  0  0  0  0  0  0  0  0
   25.5850   11.5480   28.5150 H   0  0  0  0  0  0  0  0  0  0  0  0
   24.0550   18.7610   28.1470 H   0  0  0  0  0  0  0  0  0  0  0  0
   22.7950   19.2440   26.8790 H   0  0  0  0  0  0  0  0  0  0  0  0
  2  1  1  0  0  0  0
  3  2  1  0  0  0  0
  3 30  1  0  0  0  0
  4  3  2  0  0  0  0
  5  6  2  0  0  0  0
  5  4  1  0  0  0  0
  6  7  1  0  0  0  0
  7  8  1  0  0  0  0
  7  2  2  0  0  0  0
  8  9  2  0  0  0  0
  9 33  1  0  0  0  0
 10  9  1  1  0  0  0
 10 18  1  0  0  0  0
 11 12  1  0  0  0  0
 11 10  1  0  0  0  0
 12 13  2  0  0  0  0
 13 35  1  0  0  0  0
 13 14  1  0  0  0  0
 14 15  1  0  0  0  0
 15 16  1  0  0  0  0
 15 25  1  0  0  0  0
 16 19  1  0  0  0  0
 17 16  2  0  0  0  0
 18 14  2  0  0  0  0
 18 17  1  0  0  0  0
 19 24  1  0  0  0  0
 20 19  2  0  0  0  0
 20 21  1  0  0  0  0
 21 22  2  0  0  0  0
 22 23  1  0  0  0  0
 22 38  1  0  0  0  0
 23 39  1  0  0  0  0
 24 40  1  0  0  0  0
 24 23  2  0  0  0  0
 25 41  1  0  0  0  0
 26 44  1  0  0  0  0
 26 11  1  0  0  0  0
 27 28  1  0  0  0  0
 27  5  1  0  0  0  0
 28 47  1  0  0  0  0
 28 29  1  0  0  0  0
 29  4  1  0  0  0  0
 31  6  1  0  0  0  0
 32  8  1  0  0  0  0
 34 12  1  0  0  0  0
 36 20  1  0  0  0  0
 37 21  1  0  0  0  0
 42 25  1  0  0  0  0
 43 25  1  0  0  0  0
 45 26  1  0  0  0  0
 46 26  1  0  0  0  0
 48 28  1  0  0  0  0
M  END
>  <Pose>
1

>  <Score>
-7.02

$$$$
