
 OpenBabel03202209553D

 35 38  0  0  1  0  0  0  0  0999 V2000
   21.3590    3.9720   31.5230 B   0  0  0  0  0  0  0  0  0  0  0  0
   21.5170    5.8600   31.6830 C   0  0  0  0  0  0  0  0  0  0  0  0
   22.6260    6.5740   31.2390 C   0  0  2  0  0  0  0  0  0  0  0  0
   22.6930    7.9510   31.3800 C   0  0  0  0  0  0  0  0  0  0  0  0
   21.6500    8.6370   31.9680 C   0  0  0  0  0  0  0  0  0  0  0  0
   20.5570    7.9430   32.4070 C   0  0  0  0  0  0  0  0  0  0  0  0
   20.4980    6.5800   32.2640 C   0  0  0  0  0  0  0  0  0  0  0  0
   19.3400    5.9350   32.7390 O   0  0  0  0  0  0  0  0  0  0  0  0
   19.1420    8.9590   33.2140 B   0  0  0  0  0  0  0  0  0  0  0  0
   23.7790    8.6820   30.9490 C   0  0  0  0  0  0  0  0  0  0  0  0
   24.8160    7.9880   30.3610 C   0  0  0  0  0  0  0  0  0  0  0  0
   24.6600    6.5330   30.2540 C   0  0  0  0  0  0  0  0  0  0  0  0
   25.7180    5.8450   29.6580 C   0  0  1  0  0  0  0  0  0  0  0  0
   26.8290    6.5210   29.2080 C   0  0  0  0  0  0  0  0  0  0  0  0
   27.7570    5.8590   28.6770 O   0  0  0  0  0  0  0  0  0  0  0  0
   26.9460    7.9020   29.3240 C   0  0  0  0  0  0  0  0  0  0  0  0
   25.9490    8.6370   29.8960 C   0  0  0  0  0  0  0  0  0  0  0  0
   28.5250    8.7600   28.6710 B   0  0  0  0  0  0  0  0  0  0  0  0
   25.5830    3.9360   29.4860 B   0  0  0  0  0  0  0  0  0  0  0  0
   23.5970    5.8950   30.6850 O   0  0  0  0  0  0  0  0  0  0  0  0
   23.8510   10.1350   31.1060 C   0  0  0  0  0  0  0  0  0  0  0  0
   24.6820   10.7010   32.0560 C   0  0  0  0  0  0  0  0  0  0  0  0
   24.7640   12.0660   32.2270 C   0  0  0  0  0  0  0  0  0  0  0  0
   23.9910   12.8790   31.4240 C   0  0  0  0  0  0  0  0  0  0  0  0
   23.1590   12.3640   30.4770 C   0  0  0  0  0  0  0  0  0  0  0  0
   23.0900   10.9980   30.3200 C   0  0  0  0  0  0  0  0  0  0  0  0
   22.2070   10.4430   29.3220 C   0  0  0  0  0  0  0  0  0  0  0  0
   22.6370    9.8600   28.2900 O   0  0  0  0  0  0  0  0  0  0  0  0
   20.8260   10.5380   29.4730 O   0  0  0  0  0  0  0  0  0  0  0  0
   22.2120   13.4720   29.4970 Cl  0  0  0  0  0  0  0  0  0  0  0  0
   25.6640    9.6380   33.0720 Cl  0  0  0  0  0  0  0  0  0  0  0  0
   21.7230    9.7310   32.0720 H   0  0  0  0  0  0  0  0  0  0  0  0
   25.9880    9.7070   30.0110 H   0  0  0  0  0  0  0  0  0  0  0  0
   25.4320   12.4840   32.9890 H   0  0  0  0  0  0  0  0  0  0  0  0
   24.0500   13.9540   31.5530 H   0  0  0  0  0  0  0  0  0  0  0  0
  1  2  1  0  0  0  0
  2  7  2  0  0  0  0
  3 20  1  6  0  0  0
  3  4  1  0  0  0  0
  3  2  1  0  0  0  0
  4  5  1  0  0  0  0
  5 32  1  0  0  0  0
  5  6  2  0  0  0  0
  6  9  1  0  0  0  0
  7  6  1  0  0  0  0
  7  8  1  0  0  0  0
 10 21  1  0  0  0  0
 10  4  2  0  0  0  0
 11 10  1  0  0  0  0
 12 11  2  0  0  0  0
 12 20  1  0  0  0  0
 13 19  1  1  0  0  0
 13 12  1  0  0  0  0
 14 16  1  0  0  0  0
 14 13  1  0  0  0  0
 15 14  2  0  0  0  0
 16 17  2  0  0  0  0
 17 33  1  0  0  0  0
 17 11  1  0  0  0  0
 18 16  1  0  0  0  0
 21 22  1  0  0  0  0
 22 23  2  0  0  0  0
 22 31  1  0  0  0  0
 23 34  1  0  0  0  0
 24 35  1  0  0  0  0
 24 23  1  0  0  0  0
 25 24  2  0  0  0  0
 26 25  1  0  0  0  0
 26 21  2  0  0  0  0
 27 29  1  0  0  0  0
 27 26  1  0  0  0  0
 28 27  2  0  0  0  0
 30 25  1  0  0  0  0
M  END
>  <Pose>
1

>  <Score>
-6.16

$$$$
