
 OpenBabel03202209553D

 35 39  0  0  0  0  0  0  0  0999 V2000
   19.8690    9.8690   33.1020 I   0  0  0  0  0  0  0  0  0  0  0  0
   21.3730    9.4310   31.6860 C   0  0  0  0  0  0  0  0  0  0  0  0
   21.8880   10.4970   30.9560 C   0  0  0  0  0  0  0  0  0  0  0  0
   22.8550   10.2470   30.0390 C   0  0  0  0  0  0  0  0  0  0  0  0
   23.2990    8.9340   29.8600 C   0  0  0  0  0  0  0  0  0  0  0  0
   22.7960    7.8720   30.5780 C   0  0  0  0  0  0  0  0  0  0  0  0
   21.8120    8.1350   31.5100 C   0  0  0  0  0  0  0  0  0  0  0  0
   21.2900    7.0800   32.2440 O   0  0  0  0  0  0  0  0  0  0  0  0
   23.5030    5.8970   30.2680 I   0  0  0  0  0  0  0  0  0  0  0  0
   23.4600   11.2840   29.2240 C   0  0  0  0  0  0  0  0  0  0  0  0
   23.2640   11.0310   27.8250 O   0  0  0  0  0  0  0  0  0  0  0  0
   24.4500   10.9430   27.1440 C   0  0  0  0  0  0  0  0  0  0  0  0
   24.6620   10.7310   25.9160 O   0  0  0  0  0  0  0  0  0  0  0  0
   25.5020   11.1460   28.1310 C   0  0  0  0  0  0  0  0  0  0  0  0
   24.9250   11.3460   29.3480 C   0  0  0  0  0  0  0  0  0  0  0  0
   25.7170   11.5670   30.4750 C   0  0  0  0  0  0  0  0  0  0  0  0
   27.0930   11.5900   30.3850 C   0  0  0  0  0  0  0  0  0  0  0  0
   27.6790   11.3850   29.1390 C   0  0  0  0  0  0  0  0  0  0  0  0
   26.9030   11.1670   28.0290 C   0  0  0  0  0  0  0  0  0  0  0  0
   27.6440   10.9150   26.4940 Cl  0  0  0  0  0  0  0  0  0  0  0  0
   29.4110   11.4010   28.9570 Cl  0  0  0  0  0  0  0  0  0  0  0  0
   28.0540   11.8710   31.8180 Cl  0  0  0  0  0  0  0  0  0  0  0  0
   24.9190   11.8150   31.9920 Cl  0  0  0  0  0  0  0  0  0  0  0  0
   22.8930   12.6280   29.5200 C   0  0  0  0  0  0  0  0  0  0  0  0
   21.9280   12.8420   30.4420 C   0  0  0  0  0  0  0  0  0  0  0  0
   21.4860   14.1520   30.6190 C   0  0  0  0  0  0  0  0  0  0  0  0
   21.9890   15.2140   29.9020 C   0  0  0  0  0  0  0  0  0  0  0  0
   22.9740   14.9570   28.9690 C   0  0  0  0  0  0  0  0  0  0  0  0
   23.4310   13.6810   28.7680 C   0  0  0  0  0  0  0  0  0  0  0  0
   23.7630   16.5610   27.8560 I   0  0  0  0  0  0  0  0  0  0  0  0
   21.5550   16.5020   30.0770 O   0  0  0  0  0  0  0  0  0  0  0  0
   19.9880   14.4970   32.0480 I   0  0  0  0  0  0  0  0  0  0  0  0
   21.3990   11.7990   31.1820 O   0  0  0  0  0  0  0  0  0  0  0  0
   24.0730    8.6940   29.1330 H   0  0  0  0  0  0  0  0  0  0  0  0
   24.1920   13.5180   28.0400 H   0  0  0  0  0  0  0  0  0  0  0  0
  2  1  1  0  0  0  0
  3 33  1  0  0  0  0
  3  2  2  0  0  0  0
  4  3  1  0  0  0  0
  5  4  2  0  0  0  0
  5  6  1  0  0  0  0
  6  7  2  0  0  0  0
  7  2  1  0  0  0  0
  7  8  1  0  0  0  0
  9  6  1  0  0  0  0
 10 15  1  0  0  0  0
 10 24  1  0  0  0  0
 10  4  1  0  0  0  0
 11 10  1  0  0  0  0
 12 11  1  0  0  0  0
 12 14  1  0  0  0  0
 13 12  2  0  0  0  0
 14 15  1  0  0  0  0
 15 16  2  0  0  0  0
 16 23  1  0  0  0  0
 17 16  1  0  0  0  0
 17 22  1  0  0  0  0
 18 17  2  0  0  0  0
 19 14  2  0  0  0  0
 19 18  1  0  0  0  0
 20 19  1  0  0  0  0
 21 18  1  0  0  0  0
 24 25  1  0  0  0  0
 25 26  2  0  0  0  0
 25 33  1  0  0  0  0
 26 32  1  0  0  0  0
 27 31  1  0  0  0  0
 27 26  1  0  0  0  0
 28 27  2  0  0  0  0
 29 28  1  0  0  0  0
 29 24  2  0  0  0  0
 30 28  1  0  0  0  0
 34  5  1  0  0  0  0
 35 29  1  0  0  0  0
M  END
>  <Pose>
1

>  <Score>
-6.16

$$$$
