
 OpenBabel03202209553D

 38 41  0  0  0  0  0  0  0  0999 V2000
   25.9980   11.1930   28.7680 S   0  0  0  0  0  0  0  0  0  0  0  0
   26.2630   11.2590   30.2470 O   0  0  0  0  0  0  0  0  0  0  0  0
   26.8910   10.1420   28.1550 O   0  0  0  0  0  0  0  0  0  0  0  0
   26.3160   12.7110   28.1180 O   0  0  0  0  0  0  0  0  0  0  0  0
   24.3470   10.7760   28.5850 O   0  0  0  0  0  0  0  0  0  0  0  0
   23.3750   11.2930   29.4330 C   0  0  0  0  0  0  0  0  0  0  0  0
   23.0770   12.6610   29.4970 C   0  0  0  0  0  0  0  0  0  0  0  0
   22.0750   12.7590   30.4370 C   0  0  0  0  0  0  0  0  0  0  0  0
   21.8000   11.5310   30.8980 N   0  0  0  0  0  0  0  0  0  0  0  0
   22.5880   10.5840   30.3010 C   0  0  0  0  0  0  0  0  0  0  0  0
   22.5690    9.1590   30.6080 C   0  0  0  0  0  0  0  0  0  0  0  0
   23.5980    8.3240   30.2950 N   0  0  0  0  0  0  0  0  0  0  0  0
   23.3210    7.0660   30.6700 C   0  0  0  0  0  0  0  0  0  0  0  0
   22.0730    7.0390   31.2530 C   0  0  0  0  0  0  0  0  0  0  0  0
   21.6330    8.3660   31.1940 C   0  0  0  0  0  0  0  0  0  0  0  0
   20.3990    8.7580   31.6800 O   0  0  0  0  0  0  0  0  0  0  0  0
   19.6850    8.0350   33.0490 S   0  0  0  0  0  0  0  0  0  0  0  0
   20.6040    8.1040   34.2340 O   0  0  0  0  0  0  0  0  0  0  0  0
   19.3690    6.5850   32.8120 O   0  0  0  0  0  0  0  0  0  0  0  0
   18.2040    8.7950   33.3800 O   0  0  0  0  0  0  0  0  0  0  0  0
   21.5130    5.8760   31.7420 C   0  0  0  0  0  0  0  0  0  0  0  0
   22.2030    4.6760   31.6580 C   0  0  0  0  0  0  0  0  0  0  0  0
   23.4600    4.6870   31.0750 C   0  0  0  0  0  0  0  0  0  0  0  0
   24.0020    5.8600   30.5930 C   0  0  0  0  0  0  0  0  0  0  0  0
   25.7360    5.8030   29.8020 B   0  0  0  0  0  0  0  0  0  0  0  0
   21.4450    3.0480   32.3290 B   0  0  0  0  0  0  0  0  0  0  0  0
   21.5570   14.0180   30.7280 C   0  0  0  0  0  0  0  0  0  0  0  0
   22.0520   15.1160   30.0790 C   0  0  0  0  0  0  0  0  0  0  0  0
   23.0690   15.0220   29.1240 C   0  0  0  0  0  0  0  0  0  0  0  0
   23.5860   13.7560   28.8350 C   0  0  0  0  0  0  0  0  0  0  0  0
   23.7120   16.5850   28.2580 B   0  0  0  0  0  0  0  0  0  0  0  0
   20.1790   14.1830   32.0160 B   0  0  0  0  0  0  0  0  0  0  0  0
   21.0710   11.3010   31.6300 H   0  0  0  0  0  0  0  0  0  0  0  0
   24.4930    8.5920   29.8290 H   0  0  0  0  0  0  0  0  0  0  0  0
   20.5430    5.9110   32.1820 H   0  0  0  0  0  0  0  0  0  0  0  0
   24.0040    3.7360   31.0100 H   0  0  0  0  0  0  0  0  0  0  0  0
   21.6750   16.1110   30.2770 H   0  0  0  0  0  0  0  0  0  0  0  0
   24.3760   13.6460   28.1000 H   0  0  0  0  0  0  0  0  0  0  0  0
  1  2  1  0  0  0  0
  3  1  1  0  0  0  0
  4  1  1  0  0  0  0
  5  1  1  0  0  0  0
  5  6  1  0  0  0  0
  6  7  1  0  0  0  0
  6 10  2  0  0  0  0
  7  8  1  0  0  0  0
  8 27  2  0  0  0  0
  8  9  1  0  0  0  0
  9 33  1  0  0  0  0
 10 11  1  0  0  0  0
 10  9  1  0  0  0  0
 11 15  2  0  0  0  0
 12 11  1  0  0  0  0
 12 13  1  0  0  0  0
 13 14  1  0  0  0  0
 14 21  2  0  0  0  0
 15 14  1  0  0  0  0
 15 16  1  0  0  0  0
 16 17  1  0  0  0  0
 17 20  1  0  0  0  0
 17 18  1  0  0  0  0
 19 17  1  0  0  0  0
 21 35  1  0  0  0  0
 22 21  1  0  0  0  0
 22 26  1  0  0  0  0
 23 22  2  0  0  0  0
 24 13  2  0  0  0  0
 24 23  1  0  0  0  0
 25 24  1  0  0  0  0
 27 32  1  0  0  0  0
 28 37  1  0  0  0  0
 28 27  1  0  0  0  0
 29 28  2  0  0  0  0
 30 29  1  0  0  0  0
 30  7  2  0  0  0  0
 31 29  1  0  0  0  0
 34 12  1  0  0  0  0
 36 23  1  0  0  0  0
 38 30  1  0  0  0  0
M  END
>  <Pose>
1

>  <Score>
-7.94

$$$$
