
 OpenBabel03202209553D

 34 37  0  0  1  0  0  0  0  0999 V2000
   21.3820   14.9790   31.9260 P   0  0  1  0  0  0  0  0  0  0  0  0
   22.3810   15.1170   33.0540 O   0  0  0  0  0  0  0  0  0  0  0  0
   21.8860   13.7960   30.8040 O   0  0  0  0  0  0  0  0  0  0  0  0
   21.0110   12.7220   30.9490 C   0  0  2  0  0  0  0  0  0  0  0  0
   20.7610   12.5860   32.4560 C   0  0  2  0  0  0  0  0  0  0  0  0
   20.6140   11.2280   32.5920 O   0  0  0  0  0  0  0  0  0  0  0  0
   21.7820   10.7630   31.9890 C   0  0  2  0  0  0  0  0  0  0  0  0
   21.6630   11.4000   30.6050 C   0  0  2  0  0  0  0  0  0  0  0  0
   22.8760   11.5370   29.9790 O   0  0  0  0  0  0  0  0  0  0  0  0
   21.8190    9.3230   31.9140 N   0  0  0  0  0  0  0  0  0  0  0  0
   20.8220    8.5380   32.3360 C   0  0  0  0  0  0  0  0  0  0  0  0
   19.6150    8.8250   32.8960 N   0  0  0  0  0  0  0  0  0  0  0  0
   18.7370    7.8930   33.2570 C   0  0  0  0  0  0  0  0  0  0  0  0
   19.0570    6.6010   33.0610 N   0  0  0  0  0  0  0  0  0  0  0  0
   20.2360    6.2460   32.5100 C   0  0  0  0  0  0  0  0  0  0  0  0
   21.1480    7.2110   32.1350 C   0  0  0  0  0  0  0  0  0  0  0  0
   22.3690    7.2120   31.5810 N   0  0  0  0  0  0  0  0  0  0  0  0
   22.7730    8.4970   31.4480 C   0  0  0  0  0  0  0  0  0  0  0  0
   24.4430    9.0830   30.7140 B   0  0  0  0  0  0  0  0  0  0  0  0
   20.5720    4.9110   32.3050 O   0  0  0  0  0  0  0  0  0  0  0  0
   17.4860    8.2450   33.8400 N   0  0  0  0  0  0  0  0  0  0  0  0
   19.5670   13.3940   32.8010 C   0  0  0  0  0  0  0  0  0  0  0  0
   19.8210   14.7260   32.4550 O   0  0  0  0  0  0  0  0  0  0  0  0
   21.4220   16.4650   31.0770 O   0  0  0  0  0  0  0  0  0  0  0  0
   20.0670   12.8860   30.4020 H   0  0  0  0  0  0  0  0  0  0  0  0
   21.6550   12.8960   33.0280 H   0  0  0  0  0  0  0  0  0  0  0  0
   22.6980   11.2010   32.4450 H   0  0  0  0  0  0  0  0  0  0  0  0
   20.9480   10.7660   30.0050 H   0  0  0  0  0  0  0  0  0  0  0  0
   22.7390   11.8510   29.0300 H   0  0  0  0  0  0  0  0  0  0  0  0
   20.2600    4.2520   33.0340 H   0  0  0  0  0  0  0  0  0  0  0  0
   16.9630    7.4790   34.3180 H   0  0  0  0  0  0  0  0  0  0  0  0
   17.0980    9.2200   33.7970 H   0  0  0  0  0  0  0  0  0  0  0  0
   18.7120   13.0750   32.1520 H   0  0  0  0  0  0  0  0  0  0  0  0
   19.3050   13.2820   33.8700 H   0  0  0  0  0  0  0  0  0  0  0  0
  1 24  2  6  0  0  0
  1 23  1  0  0  0  0
  1  2  1  0  0  0  0
  3  4  1  0  0  0  0
  3  1  1  0  0  0  0
  4 25  1  6  0  0  0
  4  5  1  0  0  0  0
  5  6  1  0  0  0  0
  5 22  1  0  0  0  0
  5 26  1  1  0  0  0
  7 27  1  1  0  0  0
  7  6  1  0  0  0  0
  8 28  1  6  0  0  0
  8  4  1  0  0  0  0
  8  7  1  0  0  0  0
  9  8  1  0  0  0  0
 10  7  1  0  0  0  0
 10 11  1  0  0  0  0
 11 12  1  0  0  0  0
 12 13  2  0  0  0  0
 13 21  1  0  0  0  0
 14 13  1  0  0  0  0
 15 14  2  0  0  0  0
 16 11  2  0  0  0  0
 16 15  1  0  0  0  0
 17 16  1  0  0  0  0
 18 17  2  0  0  0  0
 18 10  1  0  0  0  0
 19 18  1  0  0  0  0
 20 15  1  0  0  0  0
 20 30  1  0  0  0  0
 21 31  1  0  0  0  0
 22 34  1  0  0  0  0
 23 22  1  0  0  0  0
 29  9  1  0  0  0  0
 32 21  1  0  0  0  0
 33 22  1  0  0  0  0
M  END
>  <Pose>
1

>  <Score>
-7.32

$$$$
