
 OpenBabel03202209553D

 46 51  0  0  1  0  0  0  0  0999 V2000
   21.7710   13.3380   31.0480 P   0  0  2  0  0  0  0  0  0  0  0  0
   22.1010   14.7930   31.9380 S   0  0  0  0  0  0  0  0  0  0  0  0
   21.2840   12.1470   32.1570 O   0  0  0  0  0  0  0  0  0  0  0  0
   22.0070   10.9980   31.8480 C   0  0  2  0  0  0  0  0  0  0  0  0
   21.9780   10.8790   30.3220 C   0  0  2  0  0  0  0  0  0  0  0  0
   21.9930    9.5310   30.0930 O   0  0  0  0  0  0  0  0  0  0  0  0
   21.2380    8.9150   31.0880 C   0  0  2  0  0  0  0  0  0  0  0  0
   21.3480    9.7390   32.3240 C   0  0  2  0  0  0  0  0  0  0  0  0
   20.0850   10.0180   32.8630 O   0  0  0  0  0  0  0  0  0  0  0  0
   21.6620    7.5310   31.2860 N   0  0  0  0  0  0  0  0  0  0  0  0
   22.7100    6.8920   30.7080 C   0  0  0  0  0  0  0  0  0  0  0  0
   22.7860    5.5880   31.1490 C   0  0  0  0  0  0  0  0  0  0  0  0
   21.7580    5.4460   32.0120 N   0  0  0  0  0  0  0  0  0  0  0  0
   21.0910    6.6160   32.0880 C   0  0  0  0  0  0  0  0  0  0  0  0
   19.5500    6.9980   33.1540 B   0  0  0  0  0  0  0  0  0  0  0  0
   23.7900    4.7670   30.6750 C   0  0  0  0  0  0  0  0  0  0  0  0
   23.8690    3.5820   31.0680 O   0  0  0  0  0  0  0  0  0  0  0  0
   24.7120    5.1970   29.7840 N   0  0  0  0  0  0  0  0  0  0  0  0
   24.6190    6.4720   29.3670 C   0  0  0  0  0  0  0  0  0  0  0  0
   25.6330    6.6490   28.5020 N   0  0  0  0  0  0  0  0  0  0  0  0
   26.3650    5.5290   28.3550 C   0  0  0  0  0  0  0  0  0  0  0  0
   25.7740    4.5950   29.1800 C   0  0  0  0  0  0  0  0  0  0  0  0
   27.5450    5.3360   27.5020 C   0  0  0  0  0  0  0  0  0  0  0  0
   27.6000    5.9130   26.2530 C   0  0  0  0  0  0  0  0  0  0  0  0
   28.7020    5.7500   25.4230 C   0  0  0  0  0  0  0  0  0  0  0  0
   29.7590    4.9900   25.8700 C   0  0  0  0  0  0  0  0  0  0  0  0
   29.7430    4.3910   27.1200 C   0  0  0  0  0  0  0  0  0  0  0  0
   28.6240    4.5880   27.9000 C   0  0  0  0  0  0  0  0  0  0  0  0
   23.6350    7.2990   29.8230 N   0  0  0  0  0  0  0  0  0  0  0  0
   23.2040   11.6030   29.8180 C   0  0  0  0  0  0  0  0  0  0  0  0
   23.2030   12.9050   30.2650 O   0  0  0  0  0  0  0  0  0  0  0  0
   20.5970   13.5970   29.8610 O   0  0  0  0  0  0  0  0  0  0  0  0
   23.0310   11.0870   32.2360 H   0  0  0  0  0  0  0  0  0  0  0  0
   21.0640   11.3060   29.8950 H   0  0  0  0  0  0  0  0  0  0  0  0
   20.1830    8.8850   30.6840 H   0  0  0  0  0  0  0  0  0  0  0  0
   21.9800    9.2500   33.0670 H   0  0  0  0  0  0  0  0  0  0  0  0
   19.3700    9.9050   32.2040 H   0  0  0  0  0  0  0  0  0  0  0  0
   26.0820    3.5630   29.3340 H   0  0  0  0  0  0  0  0  0  0  0  0
   26.7720    6.5090   25.9040 H   0  0  0  0  0  0  0  0  0  0  0  0
   28.7510    6.2020   24.4390 H   0  0  0  0  0  0  0  0  0  0  0  0
   30.6280    4.8470   25.2440 H   0  0  0  0  0  0  0  0  0  0  0  0
   30.5910    3.7950   27.4500 H   0  0  0  0  0  0  0  0  0  0  0  0
   28.5960    4.1310   28.8740 H   0  0  0  0  0  0  0  0  0  0  0  0
   23.5670    8.2890   29.4960 H   0  0  0  0  0  0  0  0  0  0  0  0
   23.3420   11.5030   28.7240 H   0  0  0  0  0  0  0  0  0  0  0  0
   24.0970   11.0890   30.2780 H   0  0  0  0  0  0  0  0  0  0  0  0
  1 32  2  6  0  0  0
  1  2  1  0  0  0  0
  1  3  1  0  0  0  0
  4  3  1  0  0  0  0
  4 33  1  1  0  0  0
  4  8  1  0  0  0  0
  5 34  1  6  0  0  0
  5  4  1  0  0  0  0
  6  5  1  0  0  0  0
  6  7  1  0  0  0  0
  7 35  1  6  0  0  0
  7 10  1  0  0  0  0
  7  8  1  0  0  0  0
  8  9  1  0  0  0  0
  8 36  1  1  0  0  0
 10 14  1  0  0  0  0
 11 12  2  0  0  0  0
 11 10  1  0  0  0  0
 12 13  1  0  0  0  0
 13 14  2  0  0  0  0
 14 15  1  0  0  0  0
 16 17  2  0  0  0  0
 16 12  1  0  0  0  0
 18 16  1  0  0  0  0
 19 18  1  0  0  0  0
 19 29  1  0  0  0  0
 20 19  2  0  0  0  0
 21 20  1  0  0  0  0
 21 22  2  0  0  0  0
 22 38  1  0  0  0  0
 22 18  1  0  0  0  0
 23 28  1  0  0  0  0
 23 21  1  0  0  0  0
 24 23  2  0  0  0  0
 25 26  2  0  0  0  0
 25 24  1  0  0  0  0
 26 27  1  0  0  0  0
 27 42  1  0  0  0  0
 27 28  2  0  0  0  0
 28 43  1  0  0  0  0
 29 11  1  0  0  0  0
 30 31  1  0  0  0  0
 30 46  1  0  0  0  0
 30  5  1  0  0  0  0
 31  1  1  0  0  0  0
 37  9  1  0  0  0  0
 39 24  1  0  0  0  0
 40 25  1  0  0  0  0
 41 26  1  0  0  0  0
 44 29  1  0  0  0  0
 45 30  1  0  0  0  0
M  END
>  <Pose>
1

>  <Score>
-7.56

$$$$
