
 OpenBabel03202209553D

 52 55  0  0  1  0  0  0  0  0999 V2000
   25.4540   12.4300   28.0670 S   0  0  0  0  0  0  0  0  0  0  0  0
   25.2630   11.8990   29.7670 C   0  0  1  0  0  0  0  0  0  0  0  0
   24.0770   12.4960   30.2940 N   0  0  0  0  0  0  0  0  0  0  0  0
   23.3410   13.6260   29.8180 C   0  0  0  0  0  0  0  0  0  0  0  0
   23.8740   14.4190   28.9420 C   0  0  0  0  0  0  0  0  0  0  0  0
   25.2810   14.2290   28.3580 C   0  0  0  0  0  0  0  0  0  0  0  0
   23.2560   15.5870   28.3680 C   0  0  0  0  0  0  0  0  0  0  0  0
   23.7920   16.2870   27.3400 O   0  0  0  0  0  0  0  0  0  0  0  0
   23.3370   17.5520   26.9490 C   0  0  0  0  0  0  0  0  0  0  0  0
   22.2550   17.9380   27.4290 O   0  0  0  0  0  0  0  0  0  0  0  0
   24.1710   18.3260   26.0000 C   0  0  0  0  0  0  0  0  0  0  0  0
   21.9780   13.8030   30.3970 C   0  0  0  0  0  0  0  0  0  0  0  0
   21.3500   14.8380   30.4700 O   0  0  0  0  0  0  0  0  0  0  0  0
   21.3200   12.6760   30.9240 O   0  0  0  0  0  0  0  0  0  0  0  0
   24.1550   11.4640   31.2620 C   0  0  0  0  0  0  0  0  0  0  0  0
   23.9750   11.1860   32.4530 O   0  0  0  0  0  0  0  0  0  0  0  0
   24.6430   10.6090   30.1040 C   0  0  1  0  0  0  0  0  0  0  0  0
   23.4950   10.1880   29.3670 N   0  0  0  0  0  0  0  0  0  0  0  0
   22.8330    8.9910   29.7360 C   0  0  0  0  0  0  0  0  0  0  0  0
   21.5910    9.0350   29.9440 O   0  0  0  0  0  0  0  0  0  0  0  0
   23.5480    7.7190   29.8810 C   0  0  0  0  0  0  0  0  0  0  0  0
   24.3010    7.0950   29.0300 O   0  0  0  0  0  0  0  0  0  0  0  0
   24.7700    5.9870   29.5040 C   0  0  0  0  0  0  0  0  0  0  0  0
   24.2800    5.8520   30.8080 C   0  0  0  0  0  0  0  0  0  0  0  0
   23.5060    6.9600   31.0290 C   0  0  0  0  0  0  0  0  0  0  0  0
   25.6770    4.9900   28.8270 C   0  0  0  0  0  0  0  0  0  0  0  0
   27.0140    5.1930   29.2060 O   0  0  0  0  0  0  0  0  0  0  0  0
   27.6170    4.6960   30.3250 C   0  0  0  0  0  0  0  0  0  0  0  0
   26.9950    3.8720   31.2580 C   0  0  0  0  0  0  0  0  0  0  0  0
   27.7010    3.4260   32.3530 C   0  0  0  0  0  0  0  0  0  0  0  0
   29.0150    3.7520   32.5910 C   0  0  0  0  0  0  0  0  0  0  0  0
   29.6430    4.5720   31.6680 C   0  0  0  0  0  0  0  0  0  0  0  0
   28.9370    5.0240   30.5610 C   0  0  0  0  0  0  0  0  0  0  0  0
   29.9420    3.1030   34.1270 B   0  0  0  0  0  0  0  0  0  0  0  0
   26.1450   12.0900   30.4180 H   0  0  0  0  0  0  0  0  0  0  0  0
   25.4260   14.7830   27.4380 H   0  0  0  0  0  0  0  0  0  0  0  0
   25.9710   14.5540   29.1550 H   0  0  0  0  0  0  0  0  0  0  0  0
   22.1730   15.2980   28.0290 H   0  0  0  0  0  0  0  0  0  0  0  0
   23.0160   16.3360   29.2280 H   0  0  0  0  0  0  0  0  0  0  0  0
   24.8230   17.6410   25.4200 H   0  0  0  0  0  0  0  0  0  0  0  0
   24.8510   19.0340   26.5620 H   0  0  0  0  0  0  0  0  0  0  0  0
   23.5750   18.9370   25.3050 H   0  0  0  0  0  0  0  0  0  0  0  0
   25.3000    9.7820   30.4220 H   0  0  0  0  0  0  0  0  0  0  0  0
   23.0980   10.7190   28.5510 H   0  0  0  0  0  0  0  0  0  0  0  0
   24.5090    5.0130   31.4570 H   0  0  0  0  0  0  0  0  0  0  0  0
   22.9750    7.1680   31.9480 H   0  0  0  0  0  0  0  0  0  0  0  0
   25.5340    5.0270   27.7250 H   0  0  0  0  0  0  0  0  0  0  0  0
   25.3910    3.9650   29.1440 H   0  0  0  0  0  0  0  0  0  0  0  0
   25.9720    3.6030   31.1040 H   0  0  0  0  0  0  0  0  0  0  0  0
   27.1950    2.7910   33.0580 H   0  0  0  0  0  0  0  0  0  0  0  0
   30.6760    4.8310   31.8480 H   0  0  0  0  0  0  0  0  0  0  0  0
   29.5100    5.6660   29.8840 H   0  0  0  0  0  0  0  0  0  0  0  0
  1  6  1  0  0  0  0
  1  2  1  0  0  0  0
  2 17  1  0  0  0  0
  2  3  1  0  0  0  0
  2 35  1  1  0  0  0
  3 15  1  0  0  0  0
  4  3  1  0  0  0  0
  4 12  1  0  0  0  0
  5  4  2  0  0  0  0
  6  5  1  0  0  0  0
  6 37  1  0  0  0  0
  7  5  1  0  0  0  0
  7 39  1  0  0  0  0
  8  7  1  0  0  0  0
  9  8  1  0  0  0  0
  9 10  2  0  0  0  0
 11 41  1  0  0  0  0
 11  9  1  0  0  0  0
 12 13  2  0  0  0  0
 12 14  1  0  0  0  0
 15 16  2  0  0  0  0
 17 43  1  1  0  0  0
 17 15  1  0  0  0  0
 18 19  1  0  0  0  0
 18 17  1  0  0  0  0
 19 21  1  0  0  0  0
 19 20  2  0  0  0  0
 21 25  2  0  0  0  0
 22 23  1  0  0  0  0
 22 21  1  0  0  0  0
 23 24  2  0  0  0  0
 24 25  1  0  0  0  0
 24 45  1  0  0  0  0
 25 46  1  0  0  0  0
 26 48  1  0  0  0  0
 26 27  1  0  0  0  0
 26 23  1  0  0  0  0
 27 28  1  0  0  0  0
 28 33  2  0  0  0  0
 28 29  1  0  0  0  0
 29 30  2  0  0  0  0
 30 31  1  0  0  0  0
 30 50  1  0  0  0  0
 31 34  1  0  0  0  0
 32 51  1  0  0  0  0
 32 31  2  0  0  0  0
 33 32  1  0  0  0  0
 36  6  1  0  0  0  0
 38  7  1  0  0  0  0
 40 11  1  0  0  0  0
 42 11  1  0  0  0  0
 44 18  1  0  0  0  0
 47 26  1  0  0  0  0
 49 29  1  0  0  0  0
 52 33  1  0  0  0  0
M  END
>  <Pose>
1

>  <Score>
-6.47

$$$$
