
 OpenBabel03202209553D

 54 57  0  0  0  0  0  0  0  0999 V2000
   24.1910   10.6290   29.8480 S   0  0  0  0  0  0  0  0  0  0  0  0
   24.5780   11.3950   31.1070 O   0  0  0  0  0  0  0  0  0  0  0  0
   25.2680   10.9000   28.8530 O   0  0  0  0  0  0  0  0  0  0  0  0
   22.6720   11.2750   29.3570 N   0  0  0  0  0  0  0  0  0  0  0  0
   22.4920   12.6540   29.7650 C   0  0  0  0  0  0  0  0  0  0  0  0
   21.1760   12.7070   30.5250 C   0  0  0  0  0  0  0  0  0  0  0  0
   21.3480   13.3910   31.8550 C   0  0  0  0  0  0  0  0  0  0  0  0
   21.8160   14.7080   31.6360 N   0  0  0  0  0  0  0  0  0  0  0  0
   20.9750   15.5630   30.8770 C   0  0  0  0  0  0  0  0  0  0  0  0
   21.8190   16.6980   30.3230 C   0  0  0  0  0  0  0  0  0  0  0  0
   22.7060   17.1770   31.2650 O   0  0  0  0  0  0  0  0  0  0  0  0
   22.3730   16.8320   32.5690 C   0  0  0  0  0  0  0  0  0  0  0  0
   22.5490   15.3150   32.6850 C   0  0  0  0  0  0  0  0  0  0  0  0
   24.0470    8.9300   30.2100 C   0  0  0  0  0  0  0  0  0  0  0  0
   24.7990    8.0030   29.4800 C   0  0  0  0  0  0  0  0  0  0  0  0
   24.6980    6.6550   29.7470 C   0  0  0  0  0  0  0  0  0  0  0  0
   23.8650    6.1540   30.7310 C   0  0  0  0  0  0  0  0  0  0  0  0
   23.1250    7.0520   31.4490 C   0  0  0  0  0  0  0  0  0  0  0  0
   23.2220    8.4220   31.1840 C   0  0  0  0  0  0  0  0  0  0  0  0
   22.1890    9.6750   32.2040 B   0  0  0  0  0  0  0  0  0  0  0  0
   23.9940    4.6710   30.7760 C   0  0  0  0  0  0  0  0  0  0  0  0
   25.3500    4.4540   30.0700 C   0  0  0  0  0  0  0  0  0  0  0  0
   25.3700    5.5500   29.1150 N   0  0  0  0  0  0  0  0  0  0  0  0
   25.9110    5.6010   27.8090 C   0  0  0  0  0  0  0  0  0  0  0  0
   25.3740    5.0390   26.8280 O   0  0  0  0  0  0  0  0  0  0  0  0
   27.1710    6.3520   27.5900 C   0  0  0  0  0  0  0  0  0  0  0  0
   27.4550    6.6920   26.1840 C   0  0  0  0  0  0  0  0  0  0  0  0
   28.3240    5.7000   26.9190 C   0  0  0  0  0  0  0  0  0  0  0  0
   22.6000   11.1800   28.3250 H   0  0  0  0  0  0  0  0  0  0  0  0
   22.5250   13.3680   28.9310 H   0  0  0  0  0  0  0  0  0  0  0  0
   23.2920   12.8530   30.5350 H   0  0  0  0  0  0  0  0  0  0  0  0
   20.3860   13.2310   29.9380 H   0  0  0  0  0  0  0  0  0  0  0  0
   20.9060   11.6430   30.7340 H   0  0  0  0  0  0  0  0  0  0  0  0
   22.1110   12.8560   32.4840 H   0  0  0  0  0  0  0  0  0  0  0  0
   20.4070   13.3800   32.4200 H   0  0  0  0  0  0  0  0  0  0  0  0
   20.2170   16.0110   31.5480 H   0  0  0  0  0  0  0  0  0  0  0  0
   20.5130   14.9780   30.0650 H   0  0  0  0  0  0  0  0  0  0  0  0
   22.3990   16.3310   29.4480 H   0  0  0  0  0  0  0  0  0  0  0  0
   21.1470   17.4900   29.9260 H   0  0  0  0  0  0  0  0  0  0  0  0
   23.0570   17.3730   33.2490 H   0  0  0  0  0  0  0  0  0  0  0  0
   21.3340   17.1210   32.8400 H   0  0  0  0  0  0  0  0  0  0  0  0
   23.6180   15.0890   32.7020 H   0  0  0  0  0  0  0  0  0  0  0  0
   22.1380   15.0580   33.6910 H   0  0  0  0  0  0  0  0  0  0  0  0
   25.4630    8.3850   28.6980 H   0  0  0  0  0  0  0  0  0  0  0  0
   22.4460    6.7420   32.2380 H   0  0  0  0  0  0  0  0  0  0  0  0
   23.2020    4.1470   30.2390 H   0  0  0  0  0  0  0  0  0  0  0  0
   24.0800    4.2730   31.7950 H   0  0  0  0  0  0  0  0  0  0  0  0
   26.1750    4.6480   30.7860 H   0  0  0  0  0  0  0  0  0  0  0  0
   25.3990    3.4640   29.6230 H   0  0  0  0  0  0  0  0  0  0  0  0
   27.4240    7.1160   28.3720 H   0  0  0  0  0  0  0  0  0  0  0  0
   26.8870    6.1990   25.3490 H   0  0  0  0  0  0  0  0  0  0  0  0
   27.8530    7.6660   25.8980 H   0  0  0  0  0  0  0  0  0  0  0  0
   28.3160    4.6310   26.6620 H   0  0  0  0  0  0  0  0  0  0  0  0
   29.3290    6.1010   27.1580 H   0  0  0  0  0  0  0  0  0  0  0  0
  1 14  1  0  0  0  0
  1  2  2  0  0  0  0
  3  1  2  0  0  0  0
  4  5  1  0  0  0  0
  4  1  1  0  0  0  0
  5  6  1  0  0  0  0
  5 31  1  0  0  0  0
  6 33  1  0  0  0  0
  6  7  1  0  0  0  0
  7 35  1  0  0  0  0
  7 34  1  0  0  0  0
  8  7  1  0  0  0  0
  8 13  1  0  0  0  0
  9 36  1  0  0  0  0
  9  8  1  0  0  0  0
 10  9  1  0  0  0  0
 10 11  1  0  0  0  0
 11 12  1  0  0  0  0
 12 13  1  0  0  0  0
 12 41  1  0  0  0  0
 12 40  1  0  0  0  0
 13 42  1  0  0  0  0
 13 43  1  0  0  0  0
 14 19  1  0  0  0  0
 15 16  1  0  0  0  0
 15 14  2  0  0  0  0
 16 17  2  0  0  0  0
 17 21  1  0  0  0  0
 17 18  1  0  0  0  0
 18 45  1  0  0  0  0
 19 18  2  0  0  0  0
 19 20  1  0  0  0  0
 21 47  1  0  0  0  0
 22 21  1  0  0  0  0
 22 48  1  0  0  0  0
 23 16  1  0  0  0  0
 23 22  1  0  0  0  0
 24 23  1  0  0  0  0
 25 24  2  0  0  0  0
 26 24  1  0  0  0  0
 26 50  1  0  0  0  0
 27 28  1  0  0  0  0
 27 26  1  0  0  0  0
 28 54  1  0  0  0  0
 28 26  1  0  0  0  0
 29  4  1  0  0  0  0
 30  5  1  0  0  0  0
 32  6  1  0  0  0  0
 37  9  1  0  0  0  0
 38 10  1  0  0  0  0
 39 10  1  0  0  0  0
 44 15  1  0  0  0  0
 46 21  1  0  0  0  0
 49 22  1  0  0  0  0
 51 27  1  0  0  0  0
 52 27  1  0  0  0  0
 53 28  1  0  0  0  0
M  END
>  <Pose>
1

>  <Score>
-7.29

$$$$
