
 OpenBabel03202209553D

 41 44  0  0  0  0  0  0  0  0999 V2000
   21.7540   14.4900   31.1250 S   0  0  0  0  0  0  0  0  0  0  0  0
   21.9340   15.3930   32.3110 O   0  0  0  0  0  0  0  0  0  0  0  0
   20.2650   14.3530   30.9150 O   0  0  0  0  0  0  0  0  0  0  0  0
   22.4890   13.0050   31.4500 N   0  0  0  0  0  0  0  0  0  0  0  0
   21.6910   11.8970   31.8380 C   0  0  0  0  0  0  0  0  0  0  0  0
   21.9860   11.1990   30.5680 C   0  0  0  0  0  0  0  0  0  0  0  0
   22.9610   12.2960   30.3150 C   0  0  0  0  0  0  0  0  0  0  0  0
   22.6190    9.8990   30.6750 N   0  0  0  0  0  0  0  0  0  0  0  0
   23.3830    9.4440   31.6340 N   0  0  0  0  0  0  0  0  0  0  0  0
   23.7740    8.1910   31.3630 N   0  0  0  0  0  0  0  0  0  0  0  0
   23.2440    7.8210   30.1840 C   0  0  0  0  0  0  0  0  0  0  0  0
   22.5120    8.9210   29.7610 C   0  0  0  0  0  0  0  0  0  0  0  0
   23.4030    6.5080   29.4730 C   0  0  0  0  0  0  0  0  0  0  0  0
   23.5350    5.4720   30.4810 N   0  0  0  0  0  0  0  0  0  0  0  0
   22.4560    4.8710   31.2070 C   0  0  0  0  0  0  0  0  0  0  0  0
   23.0770    3.8080   32.0670 C   0  0  0  0  0  0  0  0  0  0  0  0
   24.4980    3.6250   31.6410 C   0  0  0  0  0  0  0  0  0  0  0  0
   24.7720    4.9000   30.8920 C   0  0  0  0  0  0  0  0  0  0  0  0
   25.9180    5.3420   30.6910 O   0  0  0  0  0  0  0  0  0  0  0  0
   22.4420   15.3300   29.7370 C   0  0  0  0  0  0  0  0  0  0  0  0
   22.2050   16.9630   29.2710 S   0  0  0  0  0  0  0  0  0  0  0  0
   23.1810   16.9930   27.8700 C   0  0  0  0  0  0  0  0  0  0  0  0
   23.6650   15.7120   27.8110 C   0  0  0  0  0  0  0  0  0  0  0  0
   23.2830   14.8660   28.7700 C   0  0  0  0  0  0  0  0  0  0  0  0
   23.5350   18.4460   26.6550 B   0  0  0  0  0  0  0  0  0  0  0  0
   20.6260   12.2160   31.9960 H   0  0  0  0  0  0  0  0  0  0  0  0
   22.0710   11.3990   32.7650 H   0  0  0  0  0  0  0  0  0  0  0  0
   21.0890   11.1740   29.9170 H   0  0  0  0  0  0  0  0  0  0  0  0
   22.8980   12.7980   29.3310 H   0  0  0  0  0  0  0  0  0  0  0  0
   24.0110   11.9580   30.4690 H   0  0  0  0  0  0  0  0  0  0  0  0
   21.9520    8.9450   28.8250 H   0  0  0  0  0  0  0  0  0  0  0  0
   22.5250    6.3050   28.8170 H   0  0  0  0  0  0  0  0  0  0  0  0
   24.3310    6.5500   28.8910 H   0  0  0  0  0  0  0  0  0  0  0  0
   21.9470    5.6310   31.8400 H   0  0  0  0  0  0  0  0  0  0  0  0
   21.7100    4.3630   30.5390 H   0  0  0  0  0  0  0  0  0  0  0  0
   22.9730    4.0550   33.1460 H   0  0  0  0  0  0  0  0  0  0  0  0
   22.5640    2.8160   31.9410 H   0  0  0  0  0  0  0  0  0  0  0  0
   25.1700    3.5660   32.5350 H   0  0  0  0  0  0  0  0  0  0  0  0
   24.6720    2.7350   31.0060 H   0  0  0  0  0  0  0  0  0  0  0  0
   24.3460   15.4360   26.9820 H   0  0  0  0  0  0  0  0  0  0  0  0
   23.6160   13.8100   28.8150 H   0  0  0  0  0  0  0  0  0  0  0  0
  1  4  1  0  0  0  0
  1  2  2  0  0  0  0
  3  1  2  0  0  0  0
  4  5  1  0  0  0  0
  5 26  1  0  0  0  0
  5 27  1  0  0  0  0
  6  8  1  0  0  0  0
  6  5  1  0  0  0  0
  7 30  1  0  0  0  0
  7  6  1  0  0  0  0
  7  4  1  0  0  0  0
  8  9  1  0  0  0  0
 10  9  2  0  0  0  0
 11 10  1  0  0  0  0
 12 11  2  0  0  0  0
 12  8  1  0  0  0  0
 13 11  1  0  0  0  0
 13 14  1  0  0  0  0
 14 18  1  0  0  0  0
 14 15  1  0  0  0  0
 15 34  1  0  0  0  0
 15 16  1  0  0  0  0
 16 36  1  0  0  0  0
 17 16  1  0  0  0  0
 17 38  1  0  0  0  0
 18 17  1  0  0  0  0
 19 18  2  0  0  0  0
 20  1  1  0  0  0  0
 21 20  1  0  0  0  0
 22 21  1  0  0  0  0
 23 22  2  0  0  0  0
 23 24  1  0  0  0  0
 24 41  1  0  0  0  0
 24 20  2  0  0  0  0
 25 22  1  0  0  0  0
 28  6  1  0  0  0  0
 29  7  1  0  0  0  0
 31 12  1  0  0  0  0
 32 13  1  0  0  0  0
 33 13  1  0  0  0  0
 35 15  1  0  0  0  0
 37 16  1  0  0  0  0
 39 17  1  0  0  0  0
 40 23  1  0  0  0  0
M  END
>  <Pose>
1

>  <Score>
-6.37

$$$$
