
 OpenBabel03202209553D

 47 50  0  0  0  0  0  0  0  0999 V2000
   24.4150   10.8280   29.7280 S   0  0  0  0  0  0  0  0  0  0  0  0
   25.8720   11.0030   29.5440 O   0  0  0  0  0  0  0  0  0  0  0  0
   23.7940   10.7910   28.3370 O   0  0  0  0  0  0  0  0  0  0  0  0
   23.9740    9.4020   30.5220 N   0  0  0  0  0  0  0  0  0  0  0  0
   23.4700    8.3560   29.7470 C   0  0  0  0  0  0  0  0  0  0  0  0
   22.5810    7.3790   30.4290 C   0  0  0  0  0  0  0  0  0  0  0  0
   21.8840    7.8950   31.5640 N   0  0  0  0  0  0  0  0  0  0  0  0
   22.0820    9.2770   31.9410 C   0  0  0  0  0  0  0  0  0  0  0  0
   23.5900    9.5110   31.8700 C   0  0  0  0  0  0  0  0  0  0  0  0
   21.0040    7.1020   32.3390 C   0  0  0  0  0  0  0  0  0  0  0  0
   21.3330    5.9280   32.7020 O   0  0  0  0  0  0  0  0  0  0  0  0
   19.6880    7.5590   32.7680 C   0  0  0  0  0  0  0  0  0  0  0  0
   18.5220    6.9250   32.3810 C   0  0  0  0  0  0  0  0  0  0  0  0
   17.2750    7.3470   32.7800 C   0  0  0  0  0  0  0  0  0  0  0  0
   17.1980    8.4570   33.6060 C   0  0  0  0  0  0  0  0  0  0  0  0
   18.3240    9.1270   34.0240 C   0  0  0  0  0  0  0  0  0  0  0  0
   19.5490    8.6650   33.5960 C   0  0  0  0  0  0  0  0  0  0  0  0
   18.7050    5.4030   31.2420 B   0  0  0  0  0  0  0  0  0  0  0  0
   23.6940   12.2190   30.5280 C   0  0  0  0  0  0  0  0  0  0  0  0
   22.4950   12.7530   30.1030 C   0  0  0  0  0  0  0  0  0  0  0  0
   21.9030   13.8420   30.7090 C   0  0  0  0  0  0  0  0  0  0  0  0
   22.5070   14.4510   31.7890 C   0  0  0  0  0  0  0  0  0  0  0  0
   23.7120   13.9180   32.2200 C   0  0  0  0  0  0  0  0  0  0  0  0
   24.2980   12.8280   31.6090 C   0  0  0  0  0  0  0  0  0  0  0  0
   21.9350   15.5530   32.4230 O   0  0  0  0  0  0  0  0  0  0  0  0
   20.8540   16.2990   31.8960 C   0  0  0  0  0  0  0  0  0  0  0  0
   20.0680   15.5200   30.9060 C   0  0  0  0  0  0  0  0  0  0  0  0
   18.8930   15.9030   30.6750 O   0  0  0  0  0  0  0  0  0  0  0  0
   20.6680   14.3960   30.2730 N   0  0  0  0  0  0  0  0  0  0  0  0
   24.3360    7.7860   29.2980 H   0  0  0  0  0  0  0  0  0  0  0  0
   22.9350    8.7950   28.8540 H   0  0  0  0  0  0  0  0  0  0  0  0
   23.1460    6.4430   30.6610 H   0  0  0  0  0  0  0  0  0  0  0  0
   21.7920    7.0440   29.6920 H   0  0  0  0  0  0  0  0  0  0  0  0
   21.6920    9.4920   32.9550 H   0  0  0  0  0  0  0  0  0  0  0  0
   21.5980    9.9460   31.2200 H   0  0  0  0  0  0  0  0  0  0  0  0
   23.7660   10.5080   32.2860 H   0  0  0  0  0  0  0  0  0  0  0  0
   24.0840    8.7010   32.4660 H   0  0  0  0  0  0  0  0  0  0  0  0
   16.3550    6.8330   32.4640 H   0  0  0  0  0  0  0  0  0  0  0  0
   16.2010    8.7810   33.9160 H   0  0  0  0  0  0  0  0  0  0  0  0
   18.2310   10.0000   34.6750 H   0  0  0  0  0  0  0  0  0  0  0  0
   20.4370    9.1860   33.9190 H   0  0  0  0  0  0  0  0  0  0  0  0
   22.0110   12.2870   29.2580 H   0  0  0  0  0  0  0  0  0  0  0  0
   24.1900   14.3940   33.0690 H   0  0  0  0  0  0  0  0  0  0  0  0
   25.2330   12.4160   31.9450 H   0  0  0  0  0  0  0  0  0  0  0  0
   21.2290   17.2220   31.3740 H   0  0  0  0  0  0  0  0  0  0  0  0
   20.2310   16.6560   32.7390 H   0  0  0  0  0  0  0  0  0  0  0  0
   20.1990   13.9470   29.4580 H   0  0  0  0  0  0  0  0  0  0  0  0
  1  4  1  0  0  0  0
  1 19  1  0  0  0  0
  2  1  2  0  0  0  0
  3  1  2  0  0  0  0
  4  9  1  0  0  0  0
  5  6  1  0  0  0  0
  5  4  1  0  0  0  0
  6 32  1  0  0  0  0
  6  7  1  0  0  0  0
  7  8  1  0  0  0  0
  7 10  1  0  0  0  0
  8 34  1  0  0  0  0
  9  8  1  0  0  0  0
  9 36  1  0  0  0  0
  9 37  1  0  0  0  0
 10 11  2  0  0  0  0
 10 12  1  0  0  0  0
 12 17  1  0  0  0  0
 13 12  2  0  0  0  0
 13 14  1  0  0  0  0
 14 15  2  0  0  0  0
 15 39  1  0  0  0  0
 15 16  1  0  0  0  0
 16 40  1  0  0  0  0
 17 41  1  0  0  0  0
 17 16  2  0  0  0  0
 18 13  1  0  0  0  0
 19 24  1  0  0  0  0
 20 19  2  0  0  0  0
 20 21  1  0  0  0  0
 21 22  2  0  0  0  0
 22 23  1  0  0  0  0
 22 25  1  0  0  0  0
 23 43  1  0  0  0  0
 24 44  1  0  0  0  0
 24 23  2  0  0  0  0
 26 25  1  0  0  0  0
 26 46  1  0  0  0  0
 27 26  1  0  0  0  0
 28 27  2  0  0  0  0
 29 21  1  0  0  0  0
 29 27  1  0  0  0  0
 30  5  1  0  0  0  0
 31  5  1  0  0  0  0
 33  6  1  0  0  0  0
 35  8  1  0  0  0  0
 38 14  1  0  0  0  0
 42 20  1  0  0  0  0
 45 26  1  0  0  0  0
 47 29  1  0  0  0  0
M  END
>  <Pose>
1

>  <Score>
-6.63

$$$$
