
 OpenBabel03202209553D

 49 52  0  0  1  0  0  0  0  0999 V2000
   20.4330   14.2510   31.6000 S   0  0  0  0  0  0  0  0  0  0  0  0
   18.9670   14.5070   31.6630 O   0  0  0  0  0  0  0  0  0  0  0  0
   20.8980   13.8010   32.9630 O   0  0  0  0  0  0  0  0  0  0  0  0
   20.7730   13.0250   30.4860 N   0  0  0  0  0  0  0  0  0  0  0  0
   19.9130   11.9040   30.4980 C   0  0  0  0  0  0  0  0  0  0  0  0
   20.4070   10.6800   31.1500 C   0  0  0  0  0  0  0  0  0  0  0  0
   21.7970   10.4530   30.8890 N   0  0  0  0  0  0  0  0  0  0  0  0
   22.5040   11.3460   30.0170 C   0  0  0  0  0  0  0  0  0  0  0  0
   22.1440   12.7860   30.2130 C   0  0  0  0  0  0  0  0  0  0  0  0
   22.4740    9.3660   31.4770 C   0  0  0  0  0  0  0  0  0  0  0  0
   22.4160    9.2170   32.7190 O   0  0  0  0  0  0  0  0  0  0  0  0
   23.2480    8.3890   30.7220 C   0  0  1  0  0  0  0  0  0  0  0  0
   22.6600    7.2020   30.3250 C   0  0  0  0  0  0  0  0  0  0  0  0
   23.3710    6.3030   29.6290 N   0  0  0  0  0  0  0  0  0  0  0  0
   24.6620    6.5060   29.2890 C   0  0  1  0  0  0  0  0  0  0  0  0
   25.2650    7.6490   29.6580 N   0  0  0  0  0  0  0  0  0  0  0  0
   26.5670    7.8580   29.3170 C   0  0  0  0  0  0  0  0  0  0  0  0
   27.2920    6.9280   28.6010 C   0  0  0  0  0  0  0  0  0  0  0  0
   26.6920    5.7420   28.2100 C   0  0  0  0  0  0  0  0  0  0  0  0
   25.3760    5.5550   28.5660 C   0  0  0  0  0  0  0  0  0  0  0  0
   28.7110    7.1190   28.2120 C   0  0  0  0  0  0  0  0  0  0  0  0
   24.5680    8.5780   30.3650 C   0  0  0  0  0  0  0  0  0  0  0  0
   25.1250    9.6330   30.7050 O   0  0  0  0  0  0  0  0  0  0  0  0
   21.3030   15.7020   31.1810 C   0  0  0  0  0  0  0  0  0  0  0  0
   21.8560   15.8400   29.9250 C   0  0  0  0  0  0  0  0  0  0  0  0
   22.5370   17.0230   29.6570 C   0  0  0  0  0  0  0  0  0  0  0  0
   22.6620   18.0210   30.5880 C   0  0  0  0  0  0  0  0  0  0  0  0
   22.1010   17.8720   31.8480 C   0  0  0  0  0  0  0  0  0  0  0  0
   21.4120   16.6900   32.1380 C   0  0  0  0  0  0  0  0  0  0  0  0
   23.3230   17.2740   27.9440 B   0  0  0  0  0  0  0  0  0  0  0  0
   18.9480   12.2100   30.9800 H   0  0  0  0  0  0  0  0  0  0  0  0
   19.6410   11.6580   29.4400 H   0  0  0  0  0  0  0  0  0  0  0  0
   20.2300   10.7950   32.2610 H   0  0  0  0  0  0  0  0  0  0  0  0
   19.8670    9.7490   30.8220 H   0  0  0  0  0  0  0  0  0  0  0  0
   23.5970   11.1930   30.1220 H   0  0  0  0  0  0  0  0  0  0  0  0
   22.2700   11.0120   28.9620 H   0  0  0  0  0  0  0  0  0  0  0  0
   22.4390   13.3490   29.3040 H   0  0  0  0  0  0  0  0  0  0  0  0
   22.7530   13.1870   31.0480 H   0  0  0  0  0  0  0  0  0  0  0  0
   21.6130    7.0220   30.5930 H   0  0  0  0  0  0  0  0  0  0  0  0
   27.0450    8.7800   29.6190 H   0  0  0  0  0  0  0  0  0  0  0  0
   27.2070    4.9770   27.6470 H   0  0  0  0  0  0  0  0  0  0  0  0
   24.8930    4.6350   28.2690 H   0  0  0  0  0  0  0  0  0  0  0  0
   28.7750    7.6490   27.2240 H   0  0  0  0  0  0  0  0  0  0  0  0
   29.2350    6.1370   28.1200 H   0  0  0  0  0  0  0  0  0  0  0  0
   29.2430    7.7830   28.9290 H   0  0  0  0  0  0  0  0  0  0  0  0
   21.7600   15.0580   29.1910 H   0  0  0  0  0  0  0  0  0  0  0  0
   23.2000   18.9240   30.3340 H   0  0  0  0  0  0  0  0  0  0  0  0
   22.2060   18.6640   32.5710 H   0  0  0  0  0  0  0  0  0  0  0  0
   20.9700   16.5570   33.1090 H   0  0  0  0  0  0  0  0  0  0  0  0
  1  2  2  0  0  0  0
  1  3  2  0  0  0  0
  4  5  1  0  0  0  0
  4  1  1  0  0  0  0
  5 31  1  0  0  0  0
  5  6  1  0  0  0  0
  6 33  1  0  0  0  0
  7  6  1  0  0  0  0
  7 10  1  0  0  0  0
  8 35  1  0  0  0  0
  8  9  1  0  0  0  0
  8  7  1  0  0  0  0
  9  4  1  0  0  0  0
  9 38  1  0  0  0  0
 10 11  2  0  0  0  0
 12 10  1  6  0  0  0
 13 39  1  0  0  0  0
 13 12  1  0  0  0  0
 14 13  2  0  0  0  0
 15 20  1  1  0  0  0
 15 14  1  0  0  0  0
 15 16  1  0  0  0  0
 16 22  1  0  0  0  0
 17 40  1  0  0  0  0
 17 16  1  0  0  0  0
 18 17  2  0  0  0  0
 19 20  2  0  0  0  0
 19 18  1  0  0  0  0
 21 18  1  0  0  0  0
 21 45  1  0  0  0  0
 22 23  2  0  0  0  0
 22 12  1  0  0  0  0
 24  1  1  0  0  0  0
 24 29  1  0  0  0  0
 25 24  2  0  0  0  0
 26 25  1  0  0  0  0
 26 27  2  0  0  0  0
 27 28  1  0  0  0  0
 28 29  2  0  0  0  0
 28 48  1  0  0  0  0
 29 49  1  0  0  0  0
 30 26  1  0  0  0  0
 32  5  1  0  0  0  0
 34  6  1  0  0  0  0
 36  8  1  0  0  0  0
 37  9  1  0  0  0  0
 41 19  1  0  0  0  0
 42 20  1  0  0  0  0
 43 21  1  0  0  0  0
 44 21  1  0  0  0  0
 46 25  1  0  0  0  0
 47 27  1  0  0  0  0
M  END
>  <Pose>
1

>  <Score>
-5.62

$$$$
