
 OpenBabel03202209553D

 54 58  0  0  1  0  0  0  0  0999 V2000
   22.7530   13.6400   30.3390 S   0  0  0  0  0  0  0  0  0  0  0  0
   21.8790   12.5690   29.6980 O   0  0  0  0  0  0  0  0  0  0  0  0
   21.9920   14.0190   31.6100 O   0  0  0  0  0  0  0  0  0  0  0  0
   24.1950   12.9160   30.8070 N   0  0  0  0  0  0  0  0  0  0  0  0
   24.1790   12.1840   32.0460 C   0  0  0  0  0  0  0  0  0  0  0  0
   24.8570   10.8410   31.9080 C   0  0  0  0  0  0  0  0  0  0  0  0
   24.2470   10.0760   30.7910 N   0  0  0  0  0  0  0  0  0  0  0  0
   24.5210   10.8070   29.5610 C   0  0  0  0  0  0  0  0  0  0  0  0
   24.9590   12.2410   29.8040 C   0  0  0  0  0  0  0  0  0  0  0  0
   24.9820    8.8300   30.7870 C   0  0  0  0  0  0  0  0  0  0  0  0
   24.7450    7.8950   29.6780 C   0  0  0  0  0  0  0  0  0  0  0  0
   25.8470    7.3570   28.9560 N   0  0  0  0  0  0  0  0  0  0  0  0
   27.1520    7.8790   28.7270 C   0  0  0  0  0  0  0  0  0  0  0  0
   27.4550    9.0810   28.7370 O   0  0  0  0  0  0  0  0  0  0  0  0
   28.0800    6.7510   28.4760 C   0  0  1  0  0  0  0  0  0  0  0  0
   27.1110    5.7300   27.8390 C   0  0  2  0  0  0  0  0  0  0  0  0
   27.3110    5.8510   26.3750 C   0  0  1  0  0  0  0  0  0  0  0  0
   27.8740    7.2760   26.2410 C   0  0  0  0  0  0  0  0  0  0  0  0
   28.9550    7.0540   27.3130 C   0  0  2  0  0  0  0  0  0  0  0  0
   29.4990    5.7410   26.8280 C   0  0  0  0  0  0  0  0  0  0  0  0
   28.6010    5.1210   26.0610 C   0  0  0  0  0  0  0  0  0  0  0  0
   25.7830    6.0520   28.3400 C   0  0  0  0  0  0  0  0  0  0  0  0
   24.7790    5.3030   28.2380 O   0  0  0  0  0  0  0  0  0  0  0  0
   22.8550   15.0510   29.3650 C   0  0  0  0  0  0  0  0  0  0  0  0
   22.1890   16.1990   29.7190 C   0  0  0  0  0  0  0  0  0  0  0  0
   22.3030   17.3200   28.9160 C   0  0  0  0  0  0  0  0  0  0  0  0
   23.0640   17.3320   27.7610 C   0  0  0  0  0  0  0  0  0  0  0  0
   23.7300   16.1770   27.4100 C   0  0  0  0  0  0  0  0  0  0  0  0
   23.6150   15.0510   28.2180 C   0  0  0  0  0  0  0  0  0  0  0  0
   23.2190   18.8750   26.6520 B   0  0  0  0  0  0  0  0  0  0  0  0
   24.7880   12.7630   32.7790 H   0  0  0  0  0  0  0  0  0  0  0  0
   23.1690   12.1000   32.4430 H   0  0  0  0  0  0  0  0  0  0  0  0
   24.6610   10.2520   32.8210 H   0  0  0  0  0  0  0  0  0  0  0  0
   25.9510   10.9050   31.7610 H   0  0  0  0  0  0  0  0  0  0  0  0
   23.5800   10.8950   28.9940 H   0  0  0  0  0  0  0  0  0  0  0  0
   25.2840   10.2400   28.9990 H   0  0  0  0  0  0  0  0  0  0  0  0
   24.9750   12.8270   28.8870 H   0  0  0  0  0  0  0  0  0  0  0  0
   26.0070   12.1910   30.1790 H   0  0  0  0  0  0  0  0  0  0  0  0
   24.7360    8.2610   31.7400 H   0  0  0  0  0  0  0  0  0  0  0  0
   26.0850    9.0590   30.9430 H   0  0  0  0  0  0  0  0  0  0  0  0
   24.1830    7.0100   30.1270 H   0  0  0  0  0  0  0  0  0  0  0  0
   23.9850    8.3670   28.9940 H   0  0  0  0  0  0  0  0  0  0  0  0
   28.5670    6.3680   29.3680 H   0  0  0  0  0  0  0  0  0  0  0  0
   27.4360    4.6910   28.1350 H   0  0  0  0  0  0  0  0  0  0  0  0
   26.4980    5.6390   25.7230 H   0  0  0  0  0  0  0  0  0  0  0  0
   28.3240    7.4570   25.2590 H   0  0  0  0  0  0  0  0  0  0  0  0
   27.1890    8.0440   26.5890 H   0  0  0  0  0  0  0  0  0  0  0  0
   29.6690    7.8370   27.3970 H   0  0  0  0  0  0  0  0  0  0  0  0
   30.4710    5.3110   27.0410 H   0  0  0  0  0  0  0  0  0  0  0  0
   28.7570    4.3030   25.3840 H   0  0  0  0  0  0  0  0  0  0  0  0
   21.5690   16.2500   30.6290 H   0  0  0  0  0  0  0  0  0  0  0  0
   21.7740   18.2300   29.1990 H   0  0  0  0  0  0  0  0  0  0  0  0
   24.3190   16.2000   26.5060 H   0  0  0  0  0  0  0  0  0  0  0  0
   24.1720   14.1920   27.8710 H   0  0  0  0  0  0  0  0  0  0  0  0
  1  4  1  0  0  0  0
  1  3  2  0  0  0  0
  2  1  2  0  0  0  0
  4  5  1  0  0  0  0
  5 32  1  0  0  0  0
  5 31  1  0  0  0  0
  6  5  1  0  0  0  0
  6 33  1  0  0  0  0
  7  6  1  0  0  0  0
  8  9  1  0  0  0  0
  8  7  1  0  0  0  0
  9 38  1  0  0  0  0
  9  4  1  0  0  0  0
 10  7  1  0  0  0  0
 10 40  1  0  0  0  0
 10 39  1  0  0  0  0
 11 41  1  0  0  0  0
 11 10  1  0  0  0  0
 12 11  1  0  0  0  0
 13 14  2  0  0  0  0
 13 12  1  0  0  0  0
 15 13  1  0  0  0  0
 15 43  1  1  0  0  0
 16 44  1  1  0  0  0
 16 22  1  0  0  0  0
 16 15  1  0  0  0  0
 17 45  1  6  0  0  0
 17 16  1  0  0  0  0
 18 17  1  0  0  0  0
 18 47  1  0  0  0  0
 18 19  1  0  0  0  0
 19 48  1  1  0  0  0
 19 15  1  0  0  0  0
 20 49  1  0  0  0  0
 20 19  1  0  0  0  0
 21 17  1  0  0  0  0
 21 20  1  0  0  0  0
 22 12  1  0  0  0  0
 23 22  2  0  0  0  0
 24 25  1  0  0  0  0
 24  1  1  0  0  0  0
 25 51  1  0  0  0  0
 26 52  1  0  0  0  0
 26 25  2  0  0  0  0
 27 26  1  0  0  0  0
 28 27  2  0  0  0  0
 28 29  1  0  0  0  0
 29 24  2  0  0  0  0
 30 27  1  0  0  0  0
 34  6  1  0  0  0  0
 35  8  1  0  0  0  0
 36  8  1  0  0  0  0
 37  9  1  0  0  0  0
 42 11  1  0  0  0  0
 46 18  1  0  0  0  0
 50 21  1  0  0  0  0
 53 28  1  0  0  0  0
 54 29  1  0  0  0  0
M  END
>  <Pose>
1

>  <Score>
-6.68

$$$$
