
 OpenBabel03202209553D

 45 48  0  0  0  0  0  0  0  0999 V2000
   23.3720    6.1380   30.1420 S   0  0  0  0  0  0  0  0  0  0  0  0
   21.9910    5.7750   29.7080 O   0  0  0  0  0  0  0  0  0  0  0  0
   24.2300    6.3000   28.9290 O   0  0  0  0  0  0  0  0  0  0  0  0
   23.4130    7.5110   31.0760 N   0  0  0  0  0  0  0  0  0  0  0  0
   24.1950    8.6000   30.6510 C   0  0  0  0  0  0  0  0  0  0  0  0
   24.1020    9.7940   31.5610 C   0  0  0  0  0  0  0  0  0  0  0  0
   22.9500    9.8110   32.3900 N   0  0  0  0  0  0  0  0  0  0  0  0
   22.8660    8.6360   33.1810 C   0  0  0  0  0  0  0  0  0  0  0  0
   23.1530    7.3730   32.4580 C   0  0  0  0  0  0  0  0  0  0  0  0
   21.7930   10.2250   31.6880 C   0  0  0  0  0  0  0  0  0  0  0  0
   21.2080   11.4630   32.0760 N   0  0  0  0  0  0  0  0  0  0  0  0
   21.6370   12.5990   31.5670 N   0  0  0  0  0  0  0  0  0  0  0  0
   21.1450   13.8080   31.8820 C   0  0  0  0  0  0  0  0  0  0  0  0
   20.1230   13.8390   32.8010 C   0  0  0  0  0  0  0  0  0  0  0  0
   19.6300   12.6850   33.3710 C   0  0  0  0  0  0  0  0  0  0  0  0
   20.2100   11.4870   32.9740 C   0  0  0  0  0  0  0  0  0  0  0  0
   19.7480   10.4170   33.5040 O   0  0  0  0  0  0  0  0  0  0  0  0
   21.6340   15.0270   31.3110 N   0  0  0  0  0  0  0  0  0  0  0  0
   21.6430   16.2530   31.8430 C   0  0  0  0  0  0  0  0  0  0  0  0
   22.1960   17.1010   30.9570 N   0  0  0  0  0  0  0  0  0  0  0  0
   22.5450   16.4210   29.8510 C   0  0  0  0  0  0  0  0  0  0  0  0
   22.1840   15.1120   30.0890 C   0  0  0  0  0  0  0  0  0  0  0  0
   24.0000    4.7720   31.0870 C   0  0  0  0  0  0  0  0  0  0  0  0
   23.2060    3.8150   32.2530 S   0  0  0  0  0  0  0  0  0  0  0  0
   24.4840    2.7630   32.6570 C   0  0  0  0  0  0  0  0  0  0  0  0
   25.5130    3.1950   31.8580 C   0  0  0  0  0  0  0  0  0  0  0  0
   25.2560    4.2340   31.0490 C   0  0  0  0  0  0  0  0  0  0  0  0
   24.5070    1.3200   33.9170 B   0  0  0  0  0  0  0  0  0  0  0  0
   25.2510    8.2740   30.5340 H   0  0  0  0  0  0  0  0  0  0  0  0
   23.8660    8.9250   29.6350 H   0  0  0  0  0  0  0  0  0  0  0  0
   24.1460   10.7330   30.9780 H   0  0  0  0  0  0  0  0  0  0  0  0
   25.0020    9.7970   32.2180 H   0  0  0  0  0  0  0  0  0  0  0  0
   21.9160    8.5880   33.7900 H   0  0  0  0  0  0  0  0  0  0  0  0
   23.6560    8.7450   33.9860 H   0  0  0  0  0  0  0  0  0  0  0  0
   22.2750    6.6870   32.5930 H   0  0  0  0  0  0  0  0  0  0  0  0
   24.0100    6.8070   32.9130 H   0  0  0  0  0  0  0  0  0  0  0  0
   22.0950   10.3410   30.6040 H   0  0  0  0  0  0  0  0  0  0  0  0
   21.0080    9.4170   31.6460 H   0  0  0  0  0  0  0  0  0  0  0  0
   19.6980   14.7940   33.0840 H   0  0  0  0  0  0  0  0  0  0  0  0
   18.8290   12.6960   34.0920 H   0  0  0  0  0  0  0  0  0  0  0  0
   21.2610   16.5080   32.8320 H   0  0  0  0  0  0  0  0  0  0  0  0
   23.0210   16.8360   28.9500 H   0  0  0  0  0  0  0  0  0  0  0  0
   22.3320   14.3100   29.3900 H   0  0  0  0  0  0  0  0  0  0  0  0
   26.5010    2.6730   31.9140 H   0  0  0  0  0  0  0  0  0  0  0  0
   26.0420    4.6400   30.3710 H   0  0  0  0  0  0  0  0  0  0  0  0
  1  4  1  0  0  0  0
  1 23  1  0  0  0  0
  2  1  2  0  0  0  0
  3  1  2  0  0  0  0
  4  9  1  0  0  0  0
  5  4  1  0  0  0  0
  5  6  1  0  0  0  0
  6 32  1  0  0  0  0
  6  7  1  0  0  0  0
  7  8  1  0  0  0  0
  8 33  1  0  0  0  0
  8 34  1  0  0  0  0
  9 35  1  0  0  0  0
  9 36  1  0  0  0  0
  9  8  1  0  0  0  0
 10 11  1  0  0  0  0
 10  7  1  0  0  0  0
 11 16  1  0  0  0  0
 12 13  2  0  0  0  0
 12 11  1  0  0  0  0
 13 14  1  0  0  0  0
 14 39  1  0  0  0  0
 14 15  2  0  0  0  0
 15 40  1  0  0  0  0
 16 15  1  0  0  0  0
 16 17  2  0  0  0  0
 18 19  1  0  0  0  0
 18 13  1  0  0  0  0
 19 41  1  0  0  0  0
 20 19  2  0  0  0  0
 21 22  2  0  0  0  0
 21 20  1  0  0  0  0
 22 18  1  0  0  0  0
 23 24  1  0  0  0  0
 24 25  1  0  0  0  0
 25 28  1  0  0  0  0
 26 44  1  0  0  0  0
 26 25  2  0  0  0  0
 27 23  2  0  0  0  0
 27 26  1  0  0  0  0
 29  5  1  0  0  0  0
 30  5  1  0  0  0  0
 31  6  1  0  0  0  0
 37 10  1  0  0  0  0
 38 10  1  0  0  0  0
 42 21  1  0  0  0  0
 43 22  1  0  0  0  0
 45 27  1  0  0  0  0
M  END
>  <Pose>
1

>  <Score>
-6.59

$$$$
