
 OpenBabel03202209553D

 37 40  0  0  0  0  0  0  0  0999 V2000
   23.7620   10.7890   29.1580 S   0  0  0  0  0  0  0  0  0  0  0  0
   22.5930    9.9540   28.6490 O   0  0  0  0  0  0  0  0  0  0  0  0
   24.5120   11.2350   27.9550 O   0  0  0  0  0  0  0  0  0  0  0  0
   24.6680    9.8550   30.2050 N   0  0  0  0  0  0  0  0  0  0  0  0
   24.9060    8.4990   29.8930 C   0  0  0  0  0  0  0  0  0  0  0  0
   24.0330    7.4930   30.6020 C   0  0  0  0  0  0  0  0  0  0  0  0
   23.1510    8.0920   31.5530 N   0  0  0  0  0  0  0  0  0  0  0  0
   23.4510    9.3310   32.2500 C   0  0  0  0  0  0  0  0  0  0  0  0
   24.5680   10.0880   31.5920 C   0  0  0  0  0  0  0  0  0  0  0  0
   21.9070    7.4750   31.8540 C   0  0  0  0  0  0  0  0  0  0  0  0
   21.7340    6.1460   31.5880 N   0  0  0  0  0  0  0  0  0  0  0  0
   20.5780    5.5440   31.8700 C   0  0  0  0  0  0  0  0  0  0  0  0
   19.5530    6.1980   32.4160 N   0  0  0  0  0  0  0  0  0  0  0  0
   19.7020    7.4940   32.6820 C   0  0  0  0  0  0  0  0  0  0  0  0
   18.8640    8.3890   33.2140 N   0  0  0  0  0  0  0  0  0  0  0  0
   19.5000    9.5930   33.2720 C   0  0  0  0  0  0  0  0  0  0  0  0
   20.7340    9.4700   32.7830 N   0  0  0  0  0  0  0  0  0  0  0  0
   20.8820    8.1900   32.4140 C   0  0  0  0  0  0  0  0  0  0  0  0
   23.0220   12.2170   29.8880 C   0  0  0  0  0  0  0  0  0  0  0  0
   23.6640   13.2980   31.0390 S   0  0  0  0  0  0  0  0  0  0  0  0
   22.3420   14.3580   31.1970 C   0  0  0  0  0  0  0  0  0  0  0  0
   21.4180   13.8290   30.3280 C   0  0  0  0  0  0  0  0  0  0  0  0
   21.7750   12.7280   29.6590 C   0  0  0  0  0  0  0  0  0  0  0  0
   22.1620   15.9070   32.2990 B   0  0  0  0  0  0  0  0  0  0  0  0
   24.9210    8.2750   28.7990 H   0  0  0  0  0  0  0  0  0  0  0  0
   25.9710    8.2840   30.2120 H   0  0  0  0  0  0  0  0  0  0  0  0
   24.6730    6.6800   31.0000 H   0  0  0  0  0  0  0  0  0  0  0  0
   23.4080    6.9740   29.8210 H   0  0  0  0  0  0  0  0  0  0  0  0
   22.5570    9.9800   32.2800 H   0  0  0  0  0  0  0  0  0  0  0  0
   23.7120    9.0760   33.3000 H   0  0  0  0  0  0  0  0  0  0  0  0
   24.4710   11.1750   31.7750 H   0  0  0  0  0  0  0  0  0  0  0  0
   25.5270    9.7480   32.0740 H   0  0  0  0  0  0  0  0  0  0  0  0
   20.4330    4.4880   31.6620 H   0  0  0  0  0  0  0  0  0  0  0  0
   19.0360   10.4830   33.6640 H   0  0  0  0  0  0  0  0  0  0  0  0
   21.4270   10.2380   32.7100 H   0  0  0  0  0  0  0  0  0  0  0  0
   20.4250   14.3310   30.2180 H   0  0  0  0  0  0  0  0  0  0  0  0
   21.0930   12.2310   28.9350 H   0  0  0  0  0  0  0  0  0  0  0  0
  1 19  1  0  0  0  0
  1  4  1  0  0  0  0
  2  1  2  0  0  0  0
  3  1  2  0  0  0  0
  4  9  1  0  0  0  0
  5  4  1  0  0  0  0
  5 26  1  0  0  0  0
  5  6  1  0  0  0  0
  6 27  1  0  0  0  0
  6  7  1  0  0  0  0
  7 10  1  0  0  0  0
  7  8  1  0  0  0  0
  8 29  1  0  0  0  0
  8 30  1  0  0  0  0
  9 31  1  0  0  0  0
  9 32  1  0  0  0  0
  9  8  1  0  0  0  0
 10 18  2  0  0  0  0
 11 10  1  0  0  0  0
 11 12  2  0  0  0  0
 12 13  1  0  0  0  0
 13 14  2  0  0  0  0
 14 15  1  0  0  0  0
 15 16  2  0  0  0  0
 16 34  1  0  0  0  0
 17 16  1  0  0  0  0
 18 14  1  0  0  0  0
 18 17  1  0  0  0  0
 19 20  1  0  0  0  0
 20 21  1  0  0  0  0
 21 24  1  0  0  0  0
 22 21  2  0  0  0  0
 23 19  2  0  0  0  0
 23 22  1  0  0  0  0
 25  5  1  0  0  0  0
 28  6  1  0  0  0  0
 33 12  1  0  0  0  0
 35 17  1  0  0  0  0
 36 22  1  0  0  0  0
 37 23  1  0  0  0  0
M  END
>  <Pose>
1

>  <Score>
-7.56

$$$$
