
 OpenBabel03202209553D

 40 43  0  0  1  0  0  0  0  0999 V2000
   24.6620   11.9890   30.8930 S   0  0  0  0  0  0  0  0  0  0  0  0
   25.9990   11.5910   30.3250 O   0  0  0  0  0  0  0  0  0  0  0  0
   24.9300   12.4380   32.3220 O   0  0  0  0  0  0  0  0  0  0  0  0
   23.5600   10.6980   30.9550 N   0  0  0  0  0  0  0  0  0  0  0  0
   22.6800   10.8500   32.0640 C   0  0  0  0  0  0  0  0  0  0  0  0
   21.3130   10.2470   31.8200 C   0  0  0  0  0  0  0  0  0  0  0  0
   21.5020    9.0740   31.0040 N   0  0  0  0  0  0  0  0  0  0  0  0
   21.9740    9.3110   29.6640 C   0  0  0  0  0  0  0  0  0  0  0  0
   22.9610   10.4220   29.6930 C   0  0  0  0  0  0  0  0  0  0  0  0
   21.2500    7.7600   31.4600 C   0  0  1  0  0  0  0  0  0  0  0  0
   22.0550    6.7390   31.1670 C   0  0  0  0  0  0  0  0  0  0  0  0
   21.8310    5.3770   31.6160 C   0  0  0  0  0  0  0  0  0  0  0  0
   22.6640    4.4020   31.2930 C   0  0  0  0  0  0  0  0  0  0  0  0
   20.6970    5.1050   32.4120 N   0  0  0  0  0  0  0  0  0  0  0  0
   19.8530    6.2280   32.7090 C   0  0  0  0  0  0  0  0  0  0  0  0
   20.1040    7.4700   32.2680 N   0  0  0  0  0  0  0  0  0  0  0  0
   19.1460    8.2910   32.7070 N   0  0  0  0  0  0  0  0  0  0  0  0
   18.2630    7.5870   33.4360 C   0  0  0  0  0  0  0  0  0  0  0  0
   18.7080    6.3190   33.4300 N   0  0  0  0  0  0  0  0  0  0  0  0
   24.0110   13.3940   30.0510 C   0  0  0  0  0  0  0  0  0  0  0  0
   24.6070   14.0830   28.6180 S   0  0  0  0  0  0  0  0  0  0  0  0
   23.4950   15.3580   28.4380 C   0  0  0  0  0  0  0  0  0  0  0  0
   22.6710   15.2110   29.5220 C   0  0  0  0  0  0  0  0  0  0  0  0
   22.9430   14.1850   30.3620 C   0  0  0  0  0  0  0  0  0  0  0  0
   23.3830   16.7060   27.0600 B   0  0  0  0  0  0  0  0  0  0  0  0
   22.6320   11.8810   32.4710 H   0  0  0  0  0  0  0  0  0  0  0  0
   23.1200   10.2400   32.9090 H   0  0  0  0  0  0  0  0  0  0  0  0
   20.7630   10.0530   32.7480 H   0  0  0  0  0  0  0  0  0  0  0  0
   20.7380   10.9750   31.2130 H   0  0  0  0  0  0  0  0  0  0  0  0
   22.3410    8.3910   29.1670 H   0  0  0  0  0  0  0  0  0  0  0  0
   21.0860    9.6170   29.0340 H   0  0  0  0  0  0  0  0  0  0  0  0
   23.8070   10.1060   29.0100 H   0  0  0  0  0  0  0  0  0  0  0  0
   22.5350   11.3090   29.1900 H   0  0  0  0  0  0  0  0  0  0  0  0
   22.9190    6.9550   30.5580 H   0  0  0  0  0  0  0  0  0  0  0  0
   23.5400    4.6130   30.6790 H   0  0  0  0  0  0  0  0  0  0  0  0
   22.5200    3.3820   31.6150 H   0  0  0  0  0  0  0  0  0  0  0  0
   20.4490    4.1760   32.7800 H   0  0  0  0  0  0  0  0  0  0  0  0
   17.3640    7.9590   33.9360 H   0  0  0  0  0  0  0  0  0  0  0  0
   21.8240   15.9330   29.6610 H   0  0  0  0  0  0  0  0  0  0  0  0
   22.3010   14.0190   31.2650 H   0  0  0  0  0  0  0  0  0  0  0  0
  1  4  1  0  0  0  0
  1  3  2  0  0  0  0
  2  1  2  0  0  0  0
  4  5  1  0  0  0  0
  5 26  1  0  0  0  0
  5 27  1  0  0  0  0
  6  5  1  0  0  0  0
  6 28  1  0  0  0  0
  7  6  1  0  0  0  0
  8  9  1  0  0  0  0
  8  7  1  0  0  0  0
  9  4  1  0  0  0  0
 10  7  1  1  0  0  0
 10 16  1  0  0  0  0
 11 10  1  0  0  0  0
 11 12  2  0  0  0  0
 12 14  1  0  0  0  0
 13 36  1  0  0  0  0
 13 12  1  0  0  0  0
 14 15  1  0  0  0  0
 14 37  1  0  0  0  0
 15 19  2  0  0  0  0
 16 17  1  0  0  0  0
 16 15  1  0  0  0  0
 17 18  2  0  0  0  0
 18 38  1  0  0  0  0
 19 18  1  0  0  0  0
 20 24  2  0  0  0  0
 20  1  1  0  0  0  0
 21 20  1  0  0  0  0
 22 21  1  0  0  0  0
 22 23  2  0  0  0  0
 23 39  1  0  0  0  0
 23 24  1  0  0  0  0
 24 40  1  0  0  0  0
 25 22  1  0  0  0  0
 29  6  1  0  0  0  0
 30  8  1  0  0  0  0
 31  8  1  0  0  0  0
 32  9  1  0  0  0  0
 33  9  1  0  0  0  0
 34 11  1  0  0  0  0
 35 13  1  0  0  0  0
M  END
>  <Pose>
1

>  <Score>
-8.18

$$$$
