
 OpenBabel03202209553D

 57 61  0  0  1  0  0  0  0  0999 V2000
   25.7590    6.0540   29.0300 S   0  0  0  0  0  0  0  0  0  0  0  0
   26.1420    7.4600   28.6960 O   0  0  0  0  0  0  0  0  0  0  0  0
   24.5750    5.7140   28.1330 O   0  0  0  0  0  0  0  0  0  0  0  0
   25.3620    5.8080   30.6640 N   0  0  0  0  0  0  0  0  0  0  0  0
   25.0730    4.4330   30.8950 C   0  0  0  0  0  0  0  0  0  0  0  0
   23.6910    4.1610   31.4450 C   0  0  0  0  0  0  0  0  0  0  0  0
   22.6810    4.9310   30.7150 N   0  0  0  0  0  0  0  0  0  0  0  0
   23.0470    6.3190   30.5370 C   0  0  2  0  0  0  0  0  0  0  0  0
   22.3450    7.1160   29.9100 O   0  0  0  0  0  0  0  0  0  0  0  0
   24.3550    6.6510   31.1950 C   0  0  2  0  0  0  0  0  0  0  0  0
   24.6240    8.1030   31.2390 C   0  0  0  0  0  0  0  0  0  0  0  0
   23.3960    8.8470   30.8710 C   0  0  2  0  0  0  0  0  0  0  0  0
   22.4370    8.1650   30.4220 O   0  0  0  0  0  0  0  0  0  0  0  0
   23.3010   10.2650   31.0150 N   0  0  0  0  0  0  0  0  0  0  0  0
   24.3810   11.0250   31.5810 C   0  0  0  0  0  0  0  0  0  0  0  0
   24.4820   12.4260   31.0640 C   0  0  0  0  0  0  0  0  0  0  0  0
   23.2050   13.0140   30.7000 N   0  0  0  0  0  0  0  0  0  0  0  0
   22.3980   12.1940   29.8080 C   0  0  0  0  0  0  0  0  0  0  0  0
   22.0980   10.9290   30.5840 C   0  0  0  0  0  0  0  0  0  0  0  0
   22.7350   14.2660   31.1210 C   0  0  0  0  0  0  0  0  0  0  0  0
   22.8730   14.6310   32.4420 C   0  0  0  0  0  0  0  0  0  0  0  0
   22.3950   15.8630   32.8580 C   0  0  0  0  0  0  0  0  0  0  0  0
   21.7820   16.7490   32.0060 C   0  0  0  0  0  0  0  0  0  0  0  0
   21.6480   16.3800   30.6870 C   0  0  0  0  0  0  0  0  0  0  0  0
   22.1240   15.1480   30.2630 C   0  0  0  0  0  0  0  0  0  0  0  0
   27.0590    4.9950   28.5130 C   0  0  0  0  0  0  0  0  0  0  0  0
   26.8360    3.8650   27.7360 C   0  0  0  0  0  0  0  0  0  0  0  0
   27.8320    3.0240   27.3250 C   0  0  0  0  0  0  0  0  0  0  0  0
   29.1330    3.2770   27.6750 C   0  0  0  0  0  0  0  0  0  0  0  0
   29.3960    4.4080   28.4570 C   0  0  0  0  0  0  0  0  0  0  0  0
   28.3700    5.2310   28.8530 C   0  0  0  0  0  0  0  0  0  0  0  0
   30.5620    2.1450   27.1320 B   0  0  0  0  0  0  0  0  0  0  0  0
   25.7910    4.0270   31.6560 H   0  0  0  0  0  0  0  0  0  0  0  0
   25.1840    3.7790   30.0060 H   0  0  0  0  0  0  0  0  0  0  0  0
   23.6710    4.3670   32.5260 H   0  0  0  0  0  0  0  0  0  0  0  0
   23.4600    3.0930   31.2980 H   0  0  0  0  0  0  0  0  0  0  0  0
   21.8010    4.5630   30.3560 H   0  0  0  0  0  0  0  0  0  0  0  0
   24.2010    6.3220   32.2660 H   0  0  0  0  0  0  0  0  0  0  0  0
   25.4480    8.2910   30.4860 H   0  0  0  0  0  0  0  0  0  0  0  0
   25.0480    8.4830   32.1880 H   0  0  0  0  0  0  0  0  0  0  0  0
   24.3290   11.0640   32.6990 H   0  0  0  0  0  0  0  0  0  0  0  0
   25.3790   10.5460   31.3800 H   0  0  0  0  0  0  0  0  0  0  0  0
   24.9490   13.0450   31.8400 H   0  0  0  0  0  0  0  0  0  0  0  0
   25.1350   12.4870   30.1590 H   0  0  0  0  0  0  0  0  0  0  0  0
   23.0370   11.8740   28.9490 H   0  0  0  0  0  0  0  0  0  0  0  0
   21.4700   12.6300   29.4770 H   0  0  0  0  0  0  0  0  0  0  0  0
   21.4990   11.1390   31.4940 H   0  0  0  0  0  0  0  0  0  0  0  0
   21.4920   10.2350   29.9710 H   0  0  0  0  0  0  0  0  0  0  0  0
   23.3490   14.0010   33.2010 H   0  0  0  0  0  0  0  0  0  0  0  0
   22.4980   16.1600   33.8970 H   0  0  0  0  0  0  0  0  0  0  0  0
   21.4100   17.7180   32.3470 H   0  0  0  0  0  0  0  0  0  0  0  0
   21.1670   17.0640   29.9920 H   0  0  0  0  0  0  0  0  0  0  0  0
   21.9690   14.9440   29.2120 H   0  0  0  0  0  0  0  0  0  0  0  0
   25.8330    3.6280   27.4350 H   0  0  0  0  0  0  0  0  0  0  0  0
   27.6440    2.1340   26.7130 H   0  0  0  0  0  0  0  0  0  0  0  0
   30.4310    4.5720   28.7120 H   0  0  0  0  0  0  0  0  0  0  0  0
   28.6030    6.0910   29.4520 H   0  0  0  0  0  0  0  0  0  0  0  0
  1  4  1  0  0  0  0
  2  1  2  0  0  0  0
  3  1  2  0  0  0  0
  4  5  1  0  0  0  0
  4 10  1  0  0  0  0
  5  6  1  0  0  0  0
  5 33  1  0  0  0  0
  6 35  1  0  0  0  0
  7  6  1  0  0  0  0
  8  9  1  6  0  0  0
  8  7  1  0  0  0  0
  8 10  1  0  0  0  0
  9 13  1  0  0  0  0
 10 11  1  0  0  0  0
 10 38  1  1  0  0  0
 11 40  1  0  0  0  0
 12 14  1  6  0  0  0
 12 11  1  0  0  0  0
 13 12  1  0  0  0  0
 14 15  1  0  0  0  0
 15 41  1  0  0  0  0
 16 15  1  0  0  0  0
 16 43  1  0  0  0  0
 17 16  1  0  0  0  0
 17 20  1  0  0  0  0
 18 19  1  0  0  0  0
 18 17  1  0  0  0  0
 19 14  1  0  0  0  0
 19 47  1  0  0  0  0
 20 21  1  0  0  0  0
 21 22  2  0  0  0  0
 21 49  1  0  0  0  0
 22 50  1  0  0  0  0
 23 51  1  0  0  0  0
 23 22  1  0  0  0  0
 24 23  2  0  0  0  0
 25 24  1  0  0  0  0
 25 20  2  0  0  0  0
 26 31  1  0  0  0  0
 26  1  1  0  0  0  0
 27 26  2  0  0  0  0
 28 29  2  0  0  0  0
 28 27  1  0  0  0  0
 29 30  1  0  0  0  0
 30 56  1  0  0  0  0
 30 31  2  0  0  0  0
 31 57  1  0  0  0  0
 32 29  1  0  0  0  0
 34  5  1  0  0  0  0
 36  6  1  0  0  0  0
 37  7  1  0  0  0  0
 39 11  1  0  0  0  0
 42 15  1  0  0  0  0
 44 16  1  0  0  0  0
 45 18  1  0  0  0  0
 46 18  1  0  0  0  0
 48 19  1  0  0  0  0
 52 24  1  0  0  0  0
 53 25  1  0  0  0  0
 54 27  1  0  0  0  0
 55 28  1  0  0  0  0
M  END
>  <Pose>
1

>  <Score>
-6.07

$$$$
