
 OpenBabel03202209553D

 43 46  0  0  0  0  0  0  0  0999 V2000
   19.1200    6.9810   33.4490 S   0  0  0  0  0  0  0  0  0  0  0  0
   17.9030    6.1520   33.1360 O   0  0  0  0  0  0  0  0  0  0  0  0
   19.4400    6.7790   34.8950 O   0  0  0  0  0  0  0  0  0  0  0  0
   18.7620    8.6180   33.1080 N   0  0  0  0  0  0  0  0  0  0  0  0
   19.8890    9.4750   33.0920 C   0  0  0  0  0  0  0  0  0  0  0  0
   19.6870   10.8590   33.6160 C   0  0  0  0  0  0  0  0  0  0  0  0
   18.3760   11.2520   33.2610 O   0  0  0  0  0  0  0  0  0  0  0  0
   17.5520   10.5240   34.1250 C   0  0  0  0  0  0  0  0  0  0  0  0
   17.5740    9.0940   33.7170 C   0  0  0  0  0  0  0  0  0  0  0  0
   20.4320    6.3890   32.4230 C   0  0  0  0  0  0  0  0  0  0  0  0
   20.7040    5.1120   32.1030 N   0  0  0  0  0  0  0  0  0  0  0  0
   21.7860    5.0920   31.3030 C   0  0  0  0  0  0  0  0  0  0  0  0
   22.2320    6.3390   31.0900 N   0  0  0  0  0  0  0  0  0  0  0  0
   21.4010    7.1380   31.7770 C   0  0  0  0  0  0  0  0  0  0  0  0
   23.3730    6.7270   30.2850 C   0  0  0  0  0  0  0  0  0  0  0  0
   23.7290    8.1550   30.4500 C   0  0  0  0  0  0  0  0  0  0  0  0
   24.8090    8.6030   31.1170 N   0  0  0  0  0  0  0  0  0  0  0  0
   24.8170    9.9010   31.0680 O   0  0  0  0  0  0  0  0  0  0  0  0
   23.7900   10.3490   30.3990 C   0  0  0  0  0  0  0  0  0  0  0  0
   23.1070    9.2600   30.0100 N   0  0  0  0  0  0  0  0  0  0  0  0
   23.4910   11.7590   30.1480 C   0  0  0  0  0  0  0  0  0  0  0  0
   22.5220   12.4380   30.8580 C   0  0  0  0  0  0  0  0  0  0  0  0
   22.2480   13.7810   30.6090 C   0  0  0  0  0  0  0  0  0  0  0  0
   22.9390   14.4780   29.6430 C   0  0  0  0  0  0  0  0  0  0  0  0
   23.9070   13.8030   28.9320 C   0  0  0  0  0  0  0  0  0  0  0  0
   24.1790   12.4560   29.1840 C   0  0  0  0  0  0  0  0  0  0  0  0
   20.9010   14.7020   31.6040 B   0  0  0  0  0  0  0  0  0  0  0  0
   20.7650    8.9880   33.5940 H   0  0  0  0  0  0  0  0  0  0  0  0
   20.2000    9.5910   32.0110 H   0  0  0  0  0  0  0  0  0  0  0  0
   20.3530   11.5700   33.0750 H   0  0  0  0  0  0  0  0  0  0  0  0
   19.8270   10.9730   34.6990 H   0  0  0  0  0  0  0  0  0  0  0  0
   17.9410   10.7050   35.1450 H   0  0  0  0  0  0  0  0  0  0  0  0
   16.5100   10.8870   34.1130 H   0  0  0  0  0  0  0  0  0  0  0  0
   16.7320    8.9440   32.9860 H   0  0  0  0  0  0  0  0  0  0  0  0
   17.3110    8.4220   34.5760 H   0  0  0  0  0  0  0  0  0  0  0  0
   22.2480    4.2080   30.8790 H   0  0  0  0  0  0  0  0  0  0  0  0
   21.4750    8.2130   31.8250 H   0  0  0  0  0  0  0  0  0  0  0  0
   23.1240    6.5370   29.2300 H   0  0  0  0  0  0  0  0  0  0  0  0
   24.2830    6.1380   30.5200 H   0  0  0  0  0  0  0  0  0  0  0  0
   21.9770   11.8950   31.6170 H   0  0  0  0  0  0  0  0  0  0  0  0
   22.7140   15.5300   29.4570 H   0  0  0  0  0  0  0  0  0  0  0  0
   24.4710   14.3140   28.1650 H   0  0  0  0  0  0  0  0  0  0  0  0
   24.9360   11.9070   28.6370 H   0  0  0  0  0  0  0  0  0  0  0  0
  1  3  2  0  0  0  0
  2  1  2  0  0  0  0
  4  1  1  0  0  0  0
  4  9  1  0  0  0  0
  5  4  1  0  0  0  0
  5 28  1  0  0  0  0
  5  6  1  0  0  0  0
  6 31  1  0  0  0  0
  7  6  1  0  0  0  0
  7  8  1  0  0  0  0
  8 32  1  0  0  0  0
  9  8  1  0  0  0  0
  9 35  1  0  0  0  0
 10  1  1  0  0  0  0
 11 10  1  0  0  0  0
 12 11  2  0  0  0  0
 13 12  1  0  0  0  0
 13 14  1  0  0  0  0
 14 37  1  0  0  0  0
 14 10  2  0  0  0  0
 15 16  1  0  0  0  0
 15 39  1  0  0  0  0
 15 13  1  0  0  0  0
 16 17  2  0  0  0  0
 18 17  1  0  0  0  0
 19 18  1  0  0  0  0
 20 19  2  0  0  0  0
 20 16  1  0  0  0  0
 21 19  1  0  0  0  0
 21 22  1  0  0  0  0
 22 40  1  0  0  0  0
 23 22  2  0  0  0  0
 23 27  1  0  0  0  0
 24 23  1  0  0  0  0
 25 26  1  0  0  0  0
 25 24  2  0  0  0  0
 26 21  2  0  0  0  0
 29  5  1  0  0  0  0
 30  6  1  0  0  0  0
 33  8  1  0  0  0  0
 34  9  1  0  0  0  0
 36 12  1  0  0  0  0
 38 15  1  0  0  0  0
 41 24  1  0  0  0  0
 42 25  1  0  0  0  0
 43 26  1  0  0  0  0
M  END
>  <Pose>
1

>  <Score>
-7.04

$$$$
