
 OpenBabel03202209553D

 39 42  0  0  1  0  0  0  0  0999 V2000
   21.7750   16.3020   31.8610 S   0  0  0  0  0  0  0  0  0  0  0  0
   20.3660   16.6550   32.2420 O   0  0  0  0  0  0  0  0  0  0  0  0
   22.7780   16.9450   32.7780 O   0  0  0  0  0  0  0  0  0  0  0  0
   22.0180   14.5390   31.8350 C   0  0  0  0  0  0  0  0  0  0  0  0
   23.1540   14.2920   30.8650 C   0  0  2  0  0  0  0  0  0  0  0  0
   22.6900   14.5720   29.5210 N   0  0  0  0  0  0  0  0  0  0  0  0
   21.7780   15.6690   29.2710 C   0  0  0  0  0  0  0  0  0  0  0  0
   22.1250   16.8470   30.1830 C   0  0  0  0  0  0  0  0  0  0  0  0
   23.3120   13.5920   28.7000 C   0  0  0  0  0  0  0  0  0  0  0  0
   23.3820   13.6160   27.4250 O   0  0  0  0  0  0  0  0  0  0  0  0
   23.8690   12.5520   29.4930 N   0  0  0  0  0  0  0  0  0  0  0  0
   23.5850   12.8900   30.8430 C   0  0  0  0  0  0  0  0  0  0  0  0
   23.6790   12.1350   31.8550 O   0  0  0  0  0  0  0  0  0  0  0  0
   24.5870   11.3690   29.0450 C   0  0  1  0  0  0  0  0  0  0  0  0
   26.0150   11.3630   29.5650 C   0  0  0  0  0  0  0  0  0  0  0  0
   26.6800   10.1310   28.9460 C   0  0  0  0  0  0  0  0  0  0  0  0
   26.0350    9.0080   29.5200 O   0  0  0  0  0  0  0  0  0  0  0  0
   24.6670    9.0240   29.7660 C   0  0  0  0  0  0  0  0  0  0  0  0
   23.9260   10.1510   29.5490 C   0  0  0  0  0  0  0  0  0  0  0  0
   22.5810   10.1670   29.7910 C   0  0  0  0  0  0  0  0  0  0  0  0
   21.9820    9.0230   30.2610 C   0  0  0  0  0  0  0  0  0  0  0  0
   22.7380    7.8980   30.4740 C   0  0  0  0  0  0  0  0  0  0  0  0
   24.1010    7.8500   30.2390 C   0  0  0  0  0  0  0  0  0  0  0  0
   25.1370    6.2850   30.5380 B   0  0  0  0  0  0  0  0  0  0  0  0
   21.1050   14.1050   31.3520 H   0  0  0  0  0  0  0  0  0  0  0  0
   22.2060   14.1270   32.8370 H   0  0  0  0  0  0  0  0  0  0  0  0
   24.0290   14.9400   31.0520 H   0  0  0  0  0  0  0  0  0  0  0  0
   20.7250   15.3970   29.4610 H   0  0  0  0  0  0  0  0  0  0  0  0
   21.8690   16.0670   28.2300 H   0  0  0  0  0  0  0  0  0  0  0  0
   23.1560   17.1740   30.0690 H   0  0  0  0  0  0  0  0  0  0  0  0
   21.3760   17.6360   29.9570 H   0  0  0  0  0  0  0  0  0  0  0  0
   24.6440   11.3040   27.9530 H   0  0  0  0  0  0  0  0  0  0  0  0
   26.5710   12.2680   29.2950 H   0  0  0  0  0  0  0  0  0  0  0  0
   26.0380   11.1980   30.6610 H   0  0  0  0  0  0  0  0  0  0  0  0
   26.3900   10.1390   27.8650 H   0  0  0  0  0  0  0  0  0  0  0  0
   27.7580   10.1180   29.0930 H   0  0  0  0  0  0  0  0  0  0  0  0
   22.0020   11.0840   29.6100 H   0  0  0  0  0  0  0  0  0  0  0  0
   20.9150    9.0230   30.4570 H   0  0  0  0  0  0  0  0  0  0  0  0
   22.2450    7.0100   30.8430 H   0  0  0  0  0  0  0  0  0  0  0  0
  1  2  2  0  0  0  0
  1  3  2  0  0  0  0
  4  1  1  0  0  0  0
  4 26  1  0  0  0  0
  5 27  1  1  0  0  0
  5  4  1  0  0  0  0
  6  5  1  0  0  0  0
  7 28  1  0  0  0  0
  7  6  1  0  0  0  0
  7  8  1  0  0  0  0
  8  1  1  0  0  0  0
  9 11  1  0  0  0  0
  9  6  1  0  0  0  0
 10  9  2  0  0  0  0
 11 12  1  0  0  0  0
 12  5  1  0  0  0  0
 12 13  2  0  0  0  0
 14 32  1  6  0  0  0
 14 11  1  0  0  0  0
 14 19  1  0  0  0  0
 14 15  1  0  0  0  0
 15 34  1  0  0  0  0
 16 36  1  0  0  0  0
 16 17  1  0  0  0  0
 16 15  1  0  0  0  0
 17 18  1  0  0  0  0
 18 23  1  0  0  0  0
 19 18  2  0  0  0  0
 19 20  1  0  0  0  0
 20 21  2  0  0  0  0
 21 38  1  0  0  0  0
 21 22  1  0  0  0  0
 22 39  1  0  0  0  0
 23 22  2  0  0  0  0
 23 24  1  0  0  0  0
 25  4  1  0  0  0  0
 29  7  1  0  0  0  0
 30  8  1  0  0  0  0
 31  8  1  0  0  0  0
 33 15  1  0  0  0  0
 35 16  1  0  0  0  0
 37 20  1  0  0  0  0
M  END
>  <Pose>
1

>  <Score>
-5.54

$$$$
