
 OpenBabel03202209553D

 34 37  0  0  1  0  0  0  0  0999 V2000
   21.8190    9.1290   32.0570 S   0  0  0  0  0  0  0  0  0  0  0  0
   22.6050    8.4290   30.7230 C   0  0  0  0  0  0  0  0  0  0  0  0
   23.0050    9.5110   29.9840 C   0  0  0  0  0  0  0  0  0  0  0  0
   22.6910   10.7310   30.4750 C   0  0  0  0  0  0  0  0  0  0  0  0
   22.0090   10.7720   31.6580 C   0  0  0  0  0  0  0  0  0  0  0  0
   23.0840   12.0070   29.7510 C   0  0  1  0  0  0  0  0  0  0  0  0
   23.4420   13.1450   30.7170 C   0  0  1  0  0  0  0  0  0  0  0  0
   24.4670   12.4660   29.8920 C   0  0  0  0  0  0  0  0  0  0  0  0
   22.9120   14.4850   30.2810 C   0  0  0  0  0  0  0  0  0  0  0  0
   23.2870   15.2050   29.2080 N   0  0  0  0  0  0  0  0  0  0  0  0
   22.5860   16.3510   29.1500 C   0  0  0  0  0  0  0  0  0  0  0  0
   21.7710   16.3130   30.2170 N   0  0  0  0  0  0  0  0  0  0  0  0
   21.9830   15.1950   30.8740 O   0  0  0  0  0  0  0  0  0  0  0  0
   22.6700   17.4210   28.1560 C   0  0  0  0  0  0  0  0  0  0  0  0
   23.6910   17.6400   27.3090 N   0  0  0  0  0  0  0  0  0  0  0  0
   23.4310   18.7040   26.5430 N   0  0  0  0  0  0  0  0  0  0  0  0
   22.2190   19.1880   26.8950 C   0  0  0  0  0  0  0  0  0  0  0  0
   21.7730   18.3840   27.8890 N   0  0  0  0  0  0  0  0  0  0  0  0
   24.2920   19.2510   25.5080 C   0  0  0  0  0  0  0  0  0  0  0  0
   25.1400   18.1630   24.9760 C   0  0  0  0  0  0  0  0  0  0  0  0
   24.5860   17.1660   24.4660 O   0  0  0  0  0  0  0  0  0  0  0  0
   26.5490   18.2630   25.0500 N   0  0  0  0  0  0  0  0  0  0  0  0
   22.8900    6.5640   30.3090 B   0  0  0  0  0  0  0  0  0  0  0  0
   23.5630    9.3390   29.0230 H   0  0  0  0  0  0  0  0  0  0  0  0
   21.6770   11.6850   32.1930 H   0  0  0  0  0  0  0  0  0  0  0  0
   22.5610   12.2630   28.8290 H   0  0  0  0  0  0  0  0  0  0  0  0
   23.3890   12.9560   31.7880 H   0  0  0  0  0  0  0  0  0  0  0  0
   24.9050   13.1010   29.0790 H   0  0  0  0  0  0  0  0  0  0  0  0
   25.2000   11.8500   30.4580 H   0  0  0  0  0  0  0  0  0  0  0  0
   21.7390   20.0470   26.4510 H   0  0  0  0  0  0  0  0  0  0  0  0
   24.8720   20.0900   25.9360 H   0  0  0  0  0  0  0  0  0  0  0  0
   23.6900   19.6340   24.6510 H   0  0  0  0  0  0  0  0  0  0  0  0
   27.1590   18.1600   24.1920 H   0  0  0  0  0  0  0  0  0  0  0  0
   27.0770   18.4450   25.9380 H   0  0  0  0  0  0  0  0  0  0  0  0
  2  1  1  0  0  0  0
  3  4  1  0  0  0  0
  3  2  2  0  0  0  0
  4  5  2  0  0  0  0
  5  1  1  0  0  0  0
  5 25  1  0  0  0  0
  6 26  1  6  0  0  0
  6  8  1  0  0  0  0
  6  4  1  0  0  0  0
  6  7  1  0  0  0  0
  7 27  1  1  0  0  0
  8 29  1  0  0  0  0
  8  7  1  0  0  0  0
  9  7  1  0  0  0  0
  9 13  1  0  0  0  0
 10  9  2  0  0  0  0
 11 10  1  0  0  0  0
 11 12  2  0  0  0  0
 12 13  1  0  0  0  0
 14 11  1  0  0  0  0
 15 14  2  0  0  0  0
 16 17  1  0  0  0  0
 16 15  1  0  0  0  0
 17 18  2  0  0  0  0
 18 14  1  0  0  0  0
 19 31  1  0  0  0  0
 19 16  1  0  0  0  0
 20 22  1  0  0  0  0
 20 19  1  0  0  0  0
 21 20  2  0  0  0  0
 22 34  1  0  0  0  0
 23  2  1  0  0  0  0
 24  3  1  0  0  0  0
 28  8  1  0  0  0  0
 30 17  1  0  0  0  0
 32 19  1  0  0  0  0
 33 22  1  0  0  0  0
M  END
>  <Pose>
1

>  <Score>
-7.40

$$$$
