
 OpenBabel03202209553D

 51 54  0  0  0  0  0  0  0  0999 V2000
   23.6980   13.4220   31.4530 S   0  0  0  0  0  0  0  0  0  0  0  0
   22.2630   14.1920   30.9630 C   0  0  0  0  0  0  0  0  0  0  0  0
   21.6900   13.2640   30.1380 C   0  0  0  0  0  0  0  0  0  0  0  0
   22.3400   12.1140   29.9510 C   0  0  0  0  0  0  0  0  0  0  0  0
   23.5360   11.9460   30.6010 C   0  0  0  0  0  0  0  0  0  0  0  0
   24.4240   10.7780   30.5630 C   0  0  0  0  0  0  0  0  0  0  0  0
   25.0730   10.5880   29.5060 O   0  0  0  0  0  0  0  0  0  0  0  0
   24.5560    9.8560   31.7180 C   0  0  0  0  0  0  0  0  0  0  0  0
   23.9200    8.5870   31.4700 N   0  0  0  0  0  0  0  0  0  0  0  0
   22.6410    8.2940   31.8060 C   0  0  0  0  0  0  0  0  0  0  0  0
   22.3490    7.0160   31.4370 C   0  0  0  0  0  0  0  0  0  0  0  0
   21.0950    6.4840   31.6790 C   0  0  0  0  0  0  0  0  0  0  0  0
   20.1460    7.2660   32.2970 C   0  0  0  0  0  0  0  0  0  0  0  0
   20.4150    8.5550   32.6790 C   0  0  0  0  0  0  0  0  0  0  0  0
   21.6730    9.0540   32.4240 C   0  0  0  0  0  0  0  0  0  0  0  0
   23.4530    6.5210   30.8690 N   0  0  0  0  0  0  0  0  0  0  0  0
   24.4130    7.4890   30.8920 C   0  0  0  0  0  0  0  0  0  0  0  0
   25.5710    7.2630   30.3920 N   0  0  0  0  0  0  0  0  0  0  0  0
   23.5790    5.1690   30.3420 C   0  0  0  0  0  0  0  0  0  0  0  0
   24.5900    4.4080   31.2140 C   0  0  0  0  0  0  0  0  0  0  0  0
   24.8710    3.1010   30.6940 N   0  0  0  0  0  4  0  0  0  0  0  0
   25.9020    3.0800   29.6760 C   0  0  0  0  0  0  0  0  0  0  0  0
   27.1520    3.7820   30.1260 C   0  0  0  0  0  0  0  0  0  0  0  0
   27.6050    3.3700   31.4860 C   0  0  0  0  0  0  0  0  0  0  0  0
   26.5440    2.8870   32.4080 C   0  0  0  0  0  0  0  0  0  0  0  0
   25.3470    2.2720   31.7740 C   0  0  0  0  0  0  0  0  0  0  0  0
   21.6390   15.9240   31.4590 B   0  0  0  0  0  0  0  0  0  0  0  0
   20.7080   13.5080   29.6610 H   0  0  0  0  0  0  0  0  0  0  0  0
   21.9410   11.3040   29.2970 H   0  0  0  0  0  0  0  0  0  0  0  0
   24.1780   10.3370   32.6590 H   0  0  0  0  0  0  0  0  0  0  0  0
   25.6420    9.6850   31.9210 H   0  0  0  0  0  0  0  0  0  0  0  0
   20.9030    5.4630   31.3710 H   0  0  0  0  0  0  0  0  0  0  0  0
   19.1550    6.8880   32.5070 H   0  0  0  0  0  0  0  0  0  0  0  0
   19.6900    9.1970   33.1700 H   0  0  0  0  0  0  0  0  0  0  0  0
   21.9210   10.0590   32.7080 H   0  0  0  0  0  0  0  0  0  0  0  0
   26.3740    7.8850   30.3270 H   0  0  0  0  0  0  0  0  0  0  0  0
   23.9210    5.1420   29.2890 H   0  0  0  0  0  0  0  0  0  0  0  0
   22.6210    4.6050   30.4610 H   0  0  0  0  0  0  0  0  0  0  0  0
   24.0940    4.2850   32.2020 H   0  0  0  0  0  0  0  0  0  0  0  0
   25.4860    5.0600   31.2460 H   0  0  0  0  0  0  0  0  0  0  0  0
   24.0210    2.6960   30.2460 H   0  0  0  0  0  0  0  0  0  0  0  0
   26.1180    2.0200   29.4620 H   0  0  0  0  0  0  0  0  0  0  0  0
   25.5230    3.5820   28.7650 H   0  0  0  0  0  0  0  0  0  0  0  0
   27.0360    4.9010   30.0400 H   0  0  0  0  0  0  0  0  0  0  0  0
   27.9460    3.5230   29.3930 H   0  0  0  0  0  0  0  0  0  0  0  0
   28.3910    2.5840   31.3800 H   0  0  0  0  0  0  0  0  0  0  0  0
   28.0930    4.2660   31.9690 H   0  0  0  0  0  0  0  0  0  0  0  0
   27.0340    2.1440   33.1080 H   0  0  0  0  0  0  0  0  0  0  0  0
   26.2250    3.7120   33.0880 H   0  0  0  0  0  0  0  0  0  0  0  0
   25.5800    1.2400   31.4290 H   0  0  0  0  0  0  0  0  0  0  0  0
   24.5320    2.2650   32.5350 H   0  0  0  0  0  0  0  0  0  0  0  0
  2  1  1  0  0  0  0
  2 27  1  0  0  0  0
  3  2  2  0  0  0  0
  4  3  1  0  0  0  0
  4  5  2  0  0  0  0
  5  1  1  0  0  0  0
  6  5  1  0  0  0  0
  6  8  1  0  0  0  0
  7  6  2  0  0  0  0
  8 31  1  0  0  0  0
  8 30  1  0  0  0  0
  9  8  1  0  0  0  0
  9 10  1  0  0  0  0
 10 15  1  0  0  0  0
 11 12  1  0  0  0  0
 11 10  2  0  0  0  0
 12 13  2  0  0  0  0
 13 33  1  0  0  0  0
 13 14  1  0  0  0  0
 14 34  1  0  0  0  0
 15 14  2  0  0  0  0
 15 35  1  0  0  0  0
 16 17  1  0  0  0  0
 16 11  1  0  0  0  0
 17  9  1  0  0  0  0
 18 17  2  0  0  0  0
 19 38  1  0  0  0  0
 19 16  1  0  0  0  0
 19 20  1  0  0  0  0
 20 40  1  0  0  0  0
 20 39  1  0  0  0  0
 21 20  1  0  0  0  0
 21 26  1  0  0  0  0
 22 23  1  0  0  0  0
 22 21  1  0  0  0  0
 23 24  1  0  0  0  0
 24 47  1  0  0  0  0
 24 25  1  0  0  0  0
 25 49  1  0  0  0  0
 25 48  1  0  0  0  0
 26 25  1  0  0  0  0
 26 51  1  0  0  0  0
 28  3  1  0  0  0  0
 29  4  1  0  0  0  0
 32 12  1  0  0  0  0
 36 18  1  0  0  0  0
 37 19  1  0  0  0  0
 41 21  1  0  0  0  0
 42 22  1  0  0  0  0
 43 22  1  0  0  0  0
 44 23  1  0  0  0  0
 45 23  1  0  0  0  0
 46 24  1  0  0  0  0
 50 26  1  0  0  0  0
M  END
>  <Pose>
1

>  <Score>
-7.40

$$$$
