
 OpenBabel03202209553D

 58 61  0  0  1  0  0  0  0  0999 V2000
   19.1600    8.4850   32.8850 S   0  0  0  0  0  0  0  0  0  0  0  0
   18.5700    6.9840   33.4410 C   0  0  0  0  0  0  0  0  0  0  0  0
   19.4750    6.1410   32.9810 N   0  0  0  0  0  0  0  0  0  0  0  0
   20.4870    6.5820   32.2930 C   0  0  0  0  0  0  0  0  0  0  0  0
   20.5620    7.9330   32.0750 C   0  0  0  0  0  0  0  0  0  0  0  0
   21.5610    8.7570   31.3980 C   0  0  0  0  0  0  0  0  0  0  0  0
   22.4900    8.2130   30.6350 C   0  0  0  0  0  0  0  0  0  0  0  0
   23.5900    8.8960   29.8750 C   0  0  2  0  0  0  0  0  0  0  0  0
   24.6580    7.9460   29.8970 N   0  0  0  0  0  0  0  0  0  0  0  0
   23.9910    6.6540   29.8340 C   0  0  0  0  0  0  0  0  0  0  0  0
   24.5660    5.6060   29.4340 O   0  0  0  0  0  0  0  0  0  0  0  0
   22.6220    6.8030   30.2930 C   0  0  0  0  0  0  0  0  0  0  0  0
   21.7270    5.8980   30.3780 O   0  0  0  0  0  0  0  0  0  0  0  0
   26.0810    8.1120   29.9010 C   0  0  0  0  0  0  0  0  0  0  0  0
   26.7820    7.8680   28.6040 C   0  0  0  0  0  0  0  0  0  0  0  0
   28.2870    8.1450   28.7380 C   0  0  0  0  0  0  0  0  0  0  0  0
   28.6440    9.1440   27.7890 N   0  0  0  0  0  4  0  0  0  0  0  0
   27.6650   10.1520   27.5320 C   0  0  0  0  0  0  0  0  0  0  0  0
   27.5530   11.1770   28.6350 C   0  0  0  0  0  0  0  0  0  0  0  0
   28.4450   10.7760   29.6550 O   0  0  0  0  0  0  0  0  0  0  0  0
   29.7270   10.9320   29.0920 C   0  0  0  0  0  0  0  0  0  0  0  0
   29.9020    9.7900   28.1130 C   0  0  0  0  0  0  0  0  0  0  0  0
   23.8660   10.2280   30.3960 C   0  0  0  0  0  0  0  0  0  0  0  0
   23.5980   11.3250   29.5620 C   0  0  0  0  0  0  0  0  0  0  0  0
   23.7930   12.6270   29.9470 C   0  0  0  0  0  0  0  0  0  0  0  0
   24.2720   12.8970   31.2050 C   0  0  0  0  0  0  0  0  0  0  0  0
   24.5480   11.8390   32.0580 C   0  0  0  0  0  0  0  0  0  0  0  0
   24.3400   10.5430   31.6370 C   0  0  0  0  0  0  0  0  0  0  0  0
   23.4200   14.1020   28.7920 B   0  0  0  0  0  0  0  0  0  0  0  0
   21.5430   10.1620   31.5540 O   0  0  0  0  0  0  0  0  0  0  0  0
   21.5500    5.6090   31.8010 C   0  0  0  0  0  0  0  0  0  0  0  0
   17.3310    6.6910   34.2540 C   0  0  0  0  0  0  0  0  0  0  0  0
   23.1770    8.9900   28.8260 H   0  0  0  0  0  0  0  0  0  0  0  0
   26.4760    7.3550   30.6360 H   0  0  0  0  0  0  0  0  0  0  0  0
   26.3450    9.1390   30.2520 H   0  0  0  0  0  0  0  0  0  0  0  0
   26.6960    6.8820   28.1710 H   0  0  0  0  0  0  0  0  0  0  0  0
   26.4190    8.6800   27.9030 H   0  0  0  0  0  0  0  0  0  0  0  0
   28.8710    7.2250   28.5350 H   0  0  0  0  0  0  0  0  0  0  0  0
   28.4380    8.4530   29.7940 H   0  0  0  0  0  0  0  0  0  0  0  0
   28.8140    8.6460   26.8640 H   0  0  0  0  0  0  0  0  0  0  0  0
   26.6620    9.8070   27.2850 H   0  0  0  0  0  0  0  0  0  0  0  0
   28.0240   10.7100   26.6160 H   0  0  0  0  0  0  0  0  0  0  0  0
   26.5370   11.3420   29.0000 H   0  0  0  0  0  0  0  0  0  0  0  0
   27.9380   12.1830   28.3140 H   0  0  0  0  0  0  0  0  0  0  0  0
   29.6870   11.8730   28.4800 H   0  0  0  0  0  0  0  0  0  0  0  0
   30.5170   11.0090   29.8350 H   0  0  0  0  0  0  0  0  0  0  0  0
   30.3720   10.1310   27.1760 H   0  0  0  0  0  0  0  0  0  0  0  0
   30.5580    9.0210   28.5820 H   0  0  0  0  0  0  0  0  0  0  0  0
   23.2170   11.1570   28.5560 H   0  0  0  0  0  0  0  0  0  0  0  0
   24.4200   13.9250   31.4930 H   0  0  0  0  0  0  0  0  0  0  0  0
   24.9220   12.0150   33.0430 H   0  0  0  0  0  0  0  0  0  0  0  0
   24.5440    9.7290   32.3170 H   0  0  0  0  0  0  0  0  0  0  0  0
   22.4510    6.1570   31.5420 H   0  0  0  0  0  0  0  0  0  0  0  0
   21.1340    4.9850   30.9850 H   0  0  0  0  0  0  0  0  0  0  0  0
   21.8160    4.8970   32.6150 H   0  0  0  0  0  0  0  0  0  0  0  0
   16.6680    5.9930   33.7320 H   0  0  0  0  0  0  0  0  0  0  0  0
   17.7100    6.2690   35.2110 H   0  0  0  0  0  0  0  0  0  0  0  0
   16.8660    7.6710   34.4880 H   0  0  0  0  0  0  0  0  0  0  0  0
  1  2  1  0  0  0  0
  2 32  1  0  0  0  0
  3  2  2  0  0  0  0
  4  3  1  0  0  0  0
  5  4  2  0  0  0  0
  5  1  1  0  0  0  0
  6 30  1  0  0  0  0
  6  5  1  0  0  0  0
  7  6  2  0  0  0  0
  8 33  1  6  0  0  0
  8  9  1  0  0  0  0
  8 23  1  0  0  0  0
  8  7  1  0  0  0  0
  9 14  1  0  0  0  0
 10  9  1  0  0  0  0
 10 12  1  0  0  0  0
 11 10  2  0  0  0  0
 12 13  2  0  0  0  0
 12  7  1  0  0  0  0
 14 35  1  0  0  0  0
 14 34  1  0  0  0  0
 15 16  1  0  0  0  0
 15 14  1  0  0  0  0
 16 39  1  0  0  0  0
 17 22  1  0  0  0  0
 17 16  1  0  0  0  0
 18 17  1  0  0  0  0
 18 19  1  0  0  0  0
 19 43  1  0  0  0  0
 19 20  1  0  0  0  0
 21 20  1  0  0  0  0
 21 46  1  0  0  0  0
 22 48  1  0  0  0  0
 22 21  1  0  0  0  0
 23 28  1  0  0  0  0
 24 25  1  0  0  0  0
 24 23  2  0  0  0  0
 25 26  2  0  0  0  0
 26 50  1  0  0  0  0
 26 27  1  0  0  0  0
 27 51  1  0  0  0  0
 28 27  2  0  0  0  0
 28 52  1  0  0  0  0
 29 25  1  0  0  0  0
 31  4  1  0  0  0  0
 31 55  1  0  0  0  0
 32 58  1  0  0  0  0
 32 57  1  0  0  0  0
 36 15  1  0  0  0  0
 37 15  1  0  0  0  0
 38 16  1  0  0  0  0
 40 17  1  0  0  0  0
 41 18  1  0  0  0  0
 42 18  1  0  0  0  0
 44 19  1  0  0  0  0
 45 21  1  0  0  0  0
 47 22  1  0  0  0  0
 49 24  1  0  0  0  0
 53 31  1  0  0  0  0
 54 31  1  0  0  0  0
 56 32  1  0  0  0  0
M  END
>  <Pose>
1

>  <Score>
-6.53

$$$$
