
 OpenBabel03202209553D

 58 61  0  0  1  0  0  0  0  0999 V2000
   18.3390    7.3340   33.0650 S   0  0  0  0  0  0  0  0  0  0  0  0
   17.0080    8.1420   33.7540 C   0  0  0  0  0  0  0  0  0  0  0  0
   17.4420    9.3830   33.8410 N   0  0  0  0  0  0  0  0  0  0  0  0
   18.6370    9.6820   33.4330 C   0  0  0  0  0  0  0  0  0  0  0  0
   19.4070    8.6660   32.9200 C   0  0  0  0  0  0  0  0  0  0  0  0
   20.8030    8.7000   32.4310 C   0  0  0  0  0  0  0  0  0  0  0  0
   21.3910    7.6130   32.0260 C   0  0  0  0  0  0  0  0  0  0  0  0
   22.7920    7.5320   31.5060 C   0  0  1  0  0  0  0  0  0  0  0  0
   22.7020    6.4830   30.5260 N   0  0  0  0  0  0  0  0  0  0  0  0
   21.7520    5.5490   31.0560 C   0  0  0  0  0  0  0  0  0  0  0  0
   21.6600    4.3450   30.7530 O   0  0  0  0  0  0  0  0  0  0  0  0
   20.9040    6.2400   32.0170 C   0  0  0  0  0  0  0  0  0  0  0  0
   19.9480    5.8240   32.7270 O   0  0  0  0  0  0  0  0  0  0  0  0
   23.4470    6.4220   29.3040 C   0  0  0  0  0  0  0  0  0  0  0  0
   24.8450    6.8730   29.3890 C   0  0  0  0  0  0  0  0  0  0  0  0
   25.7480    6.1560   30.2520 C   0  0  0  0  0  0  0  0  0  0  0  0
   27.0290    5.6920   30.0040 N   0  0  0  0  0  4  0  0  0  0  0  0
   27.5430    6.2240   28.6880 C   0  0  0  0  0  0  0  0  0  0  0  0
   26.9650    5.4140   27.5750 C   0  0  0  0  0  0  0  0  0  0  0  0
   27.5250    4.1440   27.6540 O   0  0  0  0  0  0  0  0  0  0  0  0
   26.9520    3.5550   28.8040 C   0  0  0  0  0  0  0  0  0  0  0  0
   27.3510    4.3080   30.0430 C   0  0  0  0  0  0  0  0  0  0  0  0
   23.2450    8.8380   31.0050 C   0  0  0  0  0  0  0  0  0  0  0  0
   24.1860    9.6490   31.5770 C   0  0  0  0  0  0  0  0  0  0  0  0
   24.5800   10.8690   31.0770 C   0  0  0  0  0  0  0  0  0  0  0  0
   23.9960   11.3230   29.9210 C   0  0  0  0  0  0  0  0  0  0  0  0
   23.0450   10.5560   29.3010 C   0  0  0  0  0  0  0  0  0  0  0  0
   22.6750    9.3410   29.8270 C   0  0  0  0  0  0  0  0  0  0  0  0
   24.5470   13.0220   29.2260 B   0  0  0  0  0  0  0  0  0  0  0  0
   21.5060    9.9160   32.4000 O   0  0  0  0  0  0  0  0  0  0  0  0
   19.1890   11.1000   33.5590 C   0  0  0  0  0  0  0  0  0  0  0  0
   15.6620    7.6140   34.1720 C   0  0  0  0  0  0  0  0  0  0  0  0
   23.4720    7.1720   32.3030 H   0  0  0  0  0  0  0  0  0  0  0  0
   23.3270    5.4660   28.8260 H   0  0  0  0  0  0  0  0  0  0  0  0
   22.8900    7.1530   28.5930 H   0  0  0  0  0  0  0  0  0  0  0  0
   25.1990    7.0320   28.3300 H   0  0  0  0  0  0  0  0  0  0  0  0
   24.7760    7.9730   29.7250 H   0  0  0  0  0  0  0  0  0  0  0  0
   25.7230    6.7550   31.2670 H   0  0  0  0  0  0  0  0  0  0  0  0
   25.1540    5.2320   30.6340 H   0  0  0  0  0  0  0  0  0  0  0  0
   27.7070    6.1520   30.6600 H   0  0  0  0  0  0  0  0  0  0  0  0
   27.3830    7.2880   28.6760 H   0  0  0  0  0  0  0  0  0  0  0  0
   28.6300    6.0320   28.6940 H   0  0  0  0  0  0  0  0  0  0  0  0
   27.2110    5.9260   26.6240 H   0  0  0  0  0  0  0  0  0  0  0  0
   25.8700    5.2700   27.6410 H   0  0  0  0  0  0  0  0  0  0  0  0
   27.3740    2.5310   28.8600 H   0  0  0  0  0  0  0  0  0  0  0  0
   25.8840    3.4690   28.6200 H   0  0  0  0  0  0  0  0  0  0  0  0
   28.5050    4.1790   30.0500 H   0  0  0  0  0  0  0  0  0  0  0  0
   27.0480    3.7900   30.9290 H   0  0  0  0  0  0  0  0  0  0  0  0
   24.6600    9.3080   32.4870 H   0  0  0  0  0  0  0  0  0  0  0  0
   25.3400   11.4390   31.6100 H   0  0  0  0  0  0  0  0  0  0  0  0
   22.6000   10.9510   28.3790 H   0  0  0  0  0  0  0  0  0  0  0  0
   21.9250    8.7520   29.3260 H   0  0  0  0  0  0  0  0  0  0  0  0
   20.2670   11.1010   33.4780 H   0  0  0  0  0  0  0  0  0  0  0  0
   18.7170   11.7750   32.8220 H   0  0  0  0  0  0  0  0  0  0  0  0
   18.9200   11.5080   34.5670 H   0  0  0  0  0  0  0  0  0  0  0  0
   15.7940    6.5460   34.4890 H   0  0  0  0  0  0  0  0  0  0  0  0
   15.3140    8.1430   35.0980 H   0  0  0  0  0  0  0  0  0  0  0  0
   14.9260    7.6950   33.3680 H   0  0  0  0  0  0  0  0  0  0  0  0
  1  2  1  0  0  0  0
  2  3  2  0  0  0  0
  2 32  1  0  0  0  0
  4 31  1  0  0  0  0
  4  3  1  0  0  0  0
  5  1  1  0  0  0  0
  5  4  2  0  0  0  0
  6  5  1  0  0  0  0
  7  6  2  0  0  0  0
  8  7  1  0  0  0  0
  8 33  1  1  0  0  0
  9 10  1  0  0  0  0
  9  8  1  0  0  0  0
 10 12  1  0  0  0  0
 11 10  2  0  0  0  0
 12  7  1  0  0  0  0
 12 13  2  0  0  0  0
 14 15  1  0  0  0  0
 14  9  1  0  0  0  0
 15 37  1  0  0  0  0
 15 16  1  0  0  0  0
 16 39  1  0  0  0  0
 16 38  1  0  0  0  0
 17 22  1  0  0  0  0
 17 16  1  0  0  0  0
 17 40  1  0  0  0  0
 18 42  1  0  0  0  0
 18 17  1  0  0  0  0
 19 44  1  0  0  0  0
 19 20  1  0  0  0  0
 19 18  1  0  0  0  0
 20 21  1  0  0  0  0
 21 45  1  0  0  0  0
 21 22  1  0  0  0  0
 22 47  1  0  0  0  0
 22 48  1  0  0  0  0
 23  8  1  0  0  0  0
 23 24  1  0  0  0  0
 24 49  1  0  0  0  0
 25 24  2  0  0  0  0
 25 50  1  0  0  0  0
 26 25  1  0  0  0  0
 27 28  1  0  0  0  0
 27 26  2  0  0  0  0
 28 23  2  0  0  0  0
 29 26  1  0  0  0  0
 30  6  1  0  0  0  0
 31 55  1  0  0  0  0
 32 56  1  0  0  0  0
 32 57  1  0  0  0  0
 34 14  1  0  0  0  0
 35 14  1  0  0  0  0
 36 15  1  0  0  0  0
 41 18  1  0  0  0  0
 43 19  1  0  0  0  0
 46 21  1  0  0  0  0
 51 27  1  0  0  0  0
 52 28  1  0  0  0  0
 53 31  1  0  0  0  0
 54 31  1  0  0  0  0
 58 32  1  0  0  0  0
M  END
>  <Pose>
1

>  <Score>
-7.41

$$$$
