
 OpenBabel03202209553D

 55 58  0  0  1  0  0  0  0  0999 V2000
   25.7740    5.2870   28.0020 S   0  0  0  0  0  0  0  0  0  0  0  0
   26.8240    3.9500   28.0800 C   0  0  0  0  0  0  0  0  0  0  0  0
   26.5340    3.4320   29.2570 N   0  0  0  0  0  0  0  0  0  0  0  0
   25.6280    3.9790   30.0060 C   0  0  0  0  0  0  0  0  0  0  0  0
   24.9950    5.1020   29.5280 C   0  0  0  0  0  0  0  0  0  0  0  0
   23.9720    5.9560   30.1510 C   0  0  0  0  0  0  0  0  0  0  0  0
   24.2850    7.2200   30.3400 C   0  0  0  0  0  0  0  0  0  0  0  0
   23.4640    8.3190   30.9350 C   0  0  1  0  0  0  0  0  0  0  0  0
   23.6990    9.3590   30.0100 N   0  0  0  0  0  0  0  0  0  0  0  0
   25.1720    9.3110   29.8600 C   0  0  0  0  0  0  0  0  0  0  0  0
   25.9400   10.2760   29.5990 O   0  0  0  0  0  0  0  0  0  0  0  0
   25.5430    7.9170   30.0760 C   0  0  0  0  0  0  0  0  0  0  0  0
   26.6840    7.3600   30.0560 O   0  0  0  0  0  0  0  0  0  0  0  0
   23.0150   10.3910   29.3080 C   0  0  0  0  0  0  0  0  0  0  0  0
   22.8760   11.7250   29.9030 C   0  0  0  0  0  0  0  0  0  0  0  0
   23.1170   12.9030   29.1730 N   0  0  0  0  0  4  0  0  0  0  0  0
   22.8140   14.1280   29.8830 C   0  0  0  0  0  0  0  0  0  0  0  0
   23.0070   15.2610   28.8800 C   0  0  0  0  0  0  0  0  0  0  0  0
   23.7430   14.8290   27.7760 O   0  0  0  0  0  0  0  0  0  0  0  0
   24.9120   14.2470   28.3070 C   0  0  0  0  0  0  0  0  0  0  0  0
   24.6080   12.9660   29.0290 C   0  0  0  0  0  0  0  0  0  0  0  0
   22.2030    7.9730   31.4930 C   0  0  0  0  0  0  0  0  0  0  0  0
   21.4290    8.9720   32.0910 C   0  0  0  0  0  0  0  0  0  0  0  0
   20.2110    8.7200   32.6660 C   0  0  0  0  0  0  0  0  0  0  0  0
   19.7410    7.4240   32.6470 C   0  0  0  0  0  0  0  0  0  0  0  0
   20.4900    6.4240   32.0630 C   0  0  0  0  0  0  0  0  0  0  0  0
   21.7100    6.7010   31.4910 C   0  0  0  0  0  0  0  0  0  0  0  0
   18.0500    6.9870   33.4280 B   0  0  0  0  0  0  0  0  0  0  0  0
   22.7270    5.4860   30.5310 O   0  0  0  0  0  0  0  0  0  0  0  0
   25.3100    3.4220   31.3860 C   0  0  0  0  0  0  0  0  0  0  0  0
   27.8290    3.4740   27.0660 C   0  0  0  0  0  0  0  0  0  0  0  0
   24.1220    8.6200   31.8430 H   0  0  0  0  0  0  0  0  0  0  0  0
   21.9590   10.0240   29.0930 H   0  0  0  0  0  0  0  0  0  0  0  0
   23.4180   10.5510   28.2740 H   0  0  0  0  0  0  0  0  0  0  0  0
   23.5830   11.7620   30.7970 H   0  0  0  0  0  0  0  0  0  0  0  0
   21.8400   11.7560   30.3850 H   0  0  0  0  0  0  0  0  0  0  0  0
   22.7490   12.8490   28.2180 H   0  0  0  0  0  0  0  0  0  0  0  0
   21.7830   14.1920   30.2380 H   0  0  0  0  0  0  0  0  0  0  0  0
   23.5450   14.2230   30.7250 H   0  0  0  0  0  0  0  0  0  0  0  0
   23.5370   16.0760   29.4400 H   0  0  0  0  0  0  0  0  0  0  0  0
   22.0320   15.6150   28.4850 H   0  0  0  0  0  0  0  0  0  0  0  0
   25.6560   14.0870   27.5100 H   0  0  0  0  0  0  0  0  0  0  0  0
   25.2730   14.9980   29.0670 H   0  0  0  0  0  0  0  0  0  0  0  0
   24.9410   12.0650   28.5170 H   0  0  0  0  0  0  0  0  0  0  0  0
   24.9760   12.9970   30.0750 H   0  0  0  0  0  0  0  0  0  0  0  0
   21.7800   10.0170   32.1230 H   0  0  0  0  0  0  0  0  0  0  0  0
   19.6180    9.5200   33.1310 H   0  0  0  0  0  0  0  0  0  0  0  0
   20.0930    5.4090   32.0610 H   0  0  0  0  0  0  0  0  0  0  0  0
   22.2800    5.8520   31.0480 H   0  0  0  0  0  0  0  0  0  0  0  0
   26.2780    3.1370   31.8610 H   0  0  0  0  0  0  0  0  0  0  0  0
   24.7070    2.5190   31.3400 H   0  0  0  0  0  0  0  0  0  0  0  0
   24.8040    4.1810   31.9970 H   0  0  0  0  0  0  0  0  0  0  0  0
   28.7670    3.1420   27.5440 H   0  0  0  0  0  0  0  0  0  0  0  0
   28.0070    4.3360   26.3590 H   0  0  0  0  0  0  0  0  0  0  0  0
   27.3380    2.6830   26.4670 H   0  0  0  0  0  0  0  0  0  0  0  0
  1  2  1  0  0  0  0
  1  5  1  0  0  0  0
  2  3  2  0  0  0  0
  3  4  1  0  0  0  0
  4 30  1  0  0  0  0
  5  4  2  0  0  0  0
  5  6  1  0  0  0  0
  6  7  2  0  0  0  0
  6 29  1  0  0  0  0
  7  8  1  0  0  0  0
  8 22  1  0  0  0  0
  8 32  1  1  0  0  0
  9  8  1  0  0  0  0
 10  9  1  0  0  0  0
 10 12  1  0  0  0  0
 11 10  2  0  0  0  0
 12  7  1  0  0  0  0
 13 12  2  0  0  0  0
 14 15  1  0  0  0  0
 14  9  1  0  0  0  0
 15 36  1  0  0  0  0
 15 35  1  0  0  0  0
 16 17  1  0  0  0  0
 16 15  1  0  0  0  0
 17 38  1  0  0  0  0
 17 39  1  0  0  0  0
 18 40  1  0  0  0  0
 18 17  1  0  0  0  0
 19 20  1  0  0  0  0
 19 18  1  0  0  0  0
 20 21  1  0  0  0  0
 20 43  1  0  0  0  0
 21 16  1  0  0  0  0
 21 45  1  0  0  0  0
 22 23  1  0  0  0  0
 23 46  1  0  0  0  0
 23 24  2  0  0  0  0
 24 47  1  0  0  0  0
 25 24  1  0  0  0  0
 25 28  1  0  0  0  0
 26 25  2  0  0  0  0
 27 22  2  0  0  0  0
 27 26  1  0  0  0  0
 29 49  1  0  0  0  0
 30 50  1  0  0  0  0
 30 52  1  0  0  0  0
 31 53  1  0  0  0  0
 31  2  1  0  0  0  0
 33 14  1  0  0  0  0
 34 14  1  0  0  0  0
 37 16  1  0  0  0  0
 41 18  1  0  0  0  0
 42 20  1  0  0  0  0
 44 21  1  0  0  0  0
 48 26  1  0  0  0  0
 51 30  1  0  0  0  0
 54 31  1  0  0  0  0
 55 31  1  0  0  0  0
M  END
>  <Pose>
1

>  <Score>
-6.93

$$$$
