
 OpenBabel03202209553D

 46 49  0  0  1  0  0  0  0  0999 V2000
   22.6340    9.6730   28.3810 S   0  0  0  0  0  0  0  0  0  0  0  0
   23.2620   11.0960   29.0840 C   0  0  0  0  0  0  0  0  0  0  0  0
   23.8720   10.6360   30.2170 C   0  0  0  0  0  0  0  0  0  0  0  0
   23.8160    9.3000   30.4490 C   0  0  0  0  0  0  0  0  0  0  0  0
   23.1510    8.5350   29.5250 C   0  0  0  0  0  0  0  0  0  0  0  0
   23.0170    7.0550   29.6670 C   0  0  0  0  0  0  0  0  0  0  0  0
   24.1160    6.4310   30.3210 N   0  0  0  0  0  4  0  0  0  0  0  0
   25.0130    7.2900   31.0170 C   0  0  0  0  0  0  0  0  0  0  0  0
   24.4060    8.5150   31.6260 C   0  0  0  0  0  0  0  0  0  0  0  0
   23.6670    5.3260   31.1600 C   0  0  0  0  0  0  0  0  0  0  0  0
   24.5230   11.7130   31.0260 C   0  0  0  0  0  0  0  0  0  0  0  0
   25.1240   11.4100   32.1070 O   0  0  0  0  0  0  0  0  0  0  0  0
   24.4650   13.0550   30.5860 N   0  0  0  0  0  0  0  0  0  0  0  0
   23.3690   13.5170   29.7620 C   0  0  1  0  0  0  0  0  0  0  0  0
   23.2450   12.5020   28.7170 N   0  0  0  0  0  0  0  0  0  0  0  0
   22.1490   13.5210   30.6110 C   0  0  0  0  0  0  0  0  0  0  0  0
   21.1880   14.4970   30.4590 C   0  0  0  0  0  0  0  0  0  0  0  0
   20.0500   14.5190   31.2360 C   0  0  0  0  0  0  0  0  0  0  0  0
   19.8620   13.5350   32.1980 C   0  0  0  0  0  0  0  0  0  0  0  0
   20.8060   12.5470   32.3730 C   0  0  0  0  0  0  0  0  0  0  0  0
   21.9180   12.5530   31.5900 C   0  0  0  0  0  0  0  0  0  0  0  0
   20.5710   11.5910   33.3430 O   0  0  0  0  0  0  0  0  0  0  0  0
   19.5860   10.6070   33.3030 C   0  0  0  0  0  0  0  0  0  0  0  0
   20.1570    9.2670   32.8930 C   0  0  0  0  0  0  0  0  0  0  0  0
   18.7200   13.5370   32.9950 O   0  0  0  0  0  0  0  0  0  0  0  0
   18.7130   15.8620   31.0350 B   0  0  0  0  0  0  0  0  0  0  0  0
   22.1000    6.8850   30.2850 H   0  0  0  0  0  0  0  0  0  0  0  0
   22.7980    6.6280   28.6700 H   0  0  0  0  0  0  0  0  0  0  0  0
   24.6900    5.9580   29.5560 H   0  0  0  0  0  0  0  0  0  0  0  0
   25.8720    7.5940   30.3850 H   0  0  0  0  0  0  0  0  0  0  0  0
   25.4610    6.6960   31.8610 H   0  0  0  0  0  0  0  0  0  0  0  0
   23.6160    8.2830   32.3580 H   0  0  0  0  0  0  0  0  0  0  0  0
   25.2350    9.0950   32.0650 H   0  0  0  0  0  0  0  0  0  0  0  0
   24.3440    4.4530   31.0980 H   0  0  0  0  0  0  0  0  0  0  0  0
   22.6490    5.0160   30.8120 H   0  0  0  0  0  0  0  0  0  0  0  0
   23.6120    5.6180   32.2260 H   0  0  0  0  0  0  0  0  0  0  0  0
   25.2190   13.7250   30.8560 H   0  0  0  0  0  0  0  0  0  0  0  0
   23.5720   14.4930   29.3100 H   0  0  0  0  0  0  0  0  0  0  0  0
   23.1420   12.7070   27.7090 H   0  0  0  0  0  0  0  0  0  0  0  0
   21.3100   15.2670   29.7230 H   0  0  0  0  0  0  0  0  0  0  0  0
   22.6670   11.8010   31.7030 H   0  0  0  0  0  0  0  0  0  0  0  0
   19.1080   10.5520   34.3040 H   0  0  0  0  0  0  0  0  0  0  0  0
   18.7900   10.8730   32.5770 H   0  0  0  0  0  0  0  0  0  0  0  0
   21.2470    9.3980   32.7380 H   0  0  0  0  0  0  0  0  0  0  0  0
   19.9100    8.4800   33.6400 H   0  0  0  0  0  0  0  0  0  0  0  0
   19.7620    8.9620   31.8850 H   0  0  0  0  0  0  0  0  0  0  0  0
  1  2  1  0  0  0  0
  1  5  1  0  0  0  0
  2  3  2  0  0  0  0
  3  4  1  0  0  0  0
  3 11  1  0  0  0  0
  4  9  1  0  0  0  0
  5  6  1  0  0  0  0
  5  4  2  0  0  0  0
  6 27  1  0  0  0  0
  6  7  1  0  0  0  0
  7  8  1  0  0  0  0
  7 10  1  0  0  0  0
  8  9  1  0  0  0  0
  8 31  1  0  0  0  0
  9 33  1  0  0  0  0
  9 32  1  0  0  0  0
 10 36  1  0  0  0  0
 11 12  2  0  0  0  0
 13 37  1  0  0  0  0
 13 11  1  0  0  0  0
 14 38  1  6  0  0  0
 14 13  1  0  0  0  0
 14 16  1  0  0  0  0
 15  2  1  0  0  0  0
 15 14  1  0  0  0  0
 16 21  1  0  0  0  0
 17 16  2  0  0  0  0
 17 18  1  0  0  0  0
 18 19  2  0  0  0  0
 19 20  1  0  0  0  0
 19 25  1  0  0  0  0
 20 22  1  0  0  0  0
 21 41  1  0  0  0  0
 21 20  2  0  0  0  0
 23 22  1  0  0  0  0
 23 42  1  0  0  0  0
 24 23  1  0  0  0  0
 24 45  1  0  0  0  0
 26 18  1  0  0  0  0
 28  6  1  0  0  0  0
 29  7  1  0  0  0  0
 30  8  1  0  0  0  0
 34 10  1  0  0  0  0
 35 10  1  0  0  0  0
 39 15  1  0  0  0  0
 40 17  1  0  0  0  0
 43 23  1  0  0  0  0
 44 24  1  0  0  0  0
 46 24  1  0  0  0  0
M  END
>  <Pose>
1

>  <Score>
-5.92

$$$$
