
 OpenBabel03202209553D

 40 43  0  0  1  0  0  0  0  0999 V2000
   19.8560    8.5630   33.0920 S   0  0  0  0  0  0  0  0  0  0  0  0
   19.2220    9.9680   34.0440 C   0  0  2  0  0  0  0  0  0  0  0  0
   19.5760   11.0830   33.0980 C   0  0  0  0  0  0  0  0  0  0  0  0
   20.7850   10.8180   32.3790 N   0  0  0  0  0  0  0  0  0  0  0  0
   21.1300    9.5230   32.2820 C   0  0  2  0  0  0  0  0  0  0  0  0
   22.2840    9.4230   31.6130 N   0  0  0  0  0  0  0  0  0  0  0  0
   22.6930   10.6660   31.2710 C   0  0  0  0  0  0  0  0  0  0  0  0
   21.7590   11.5560   31.7450 C   0  0  0  0  0  0  0  0  0  0  0  0
   21.8450   12.9880   31.5880 C   0  0  0  0  0  0  0  0  0  0  0  0
   22.4620   13.4840   30.4270 C   0  0  0  0  0  0  0  0  0  0  0  0
   22.5430   14.8330   30.1940 C   0  0  0  0  0  0  0  0  0  0  0  0
   22.0370   15.7710   31.0580 C   0  0  0  0  0  0  0  0  0  0  0  0
   21.4260   15.3120   32.2020 C   0  0  0  0  0  0  0  0  0  0  0  0
   21.3430   13.9340   32.4410 C   0  0  0  0  0  0  0  0  0  0  0  0
   22.1600   17.1450   30.7460 N   0  0  0  0  0  0  0  0  0  0  0  0
   22.1870   17.5280   29.5710 O   0  0  0  0  0  0  0  0  0  0  0  0
   22.2510   18.0530   31.7570 O   0  0  0  0  0  0  0  0  0  0  0  0
   22.9830    8.2240   31.3010 C   0  0  0  0  0  0  0  0  0  0  0  0
   24.3570    8.1530   31.3220 C   0  0  0  0  0  0  0  0  0  0  0  0
   25.0580    7.0040   31.0240 C   0  0  0  0  0  0  0  0  0  0  0  0
   24.3710    5.8590   30.6850 C   0  0  0  0  0  0  0  0  0  0  0  0
   22.9880    5.8920   30.6530 C   0  0  0  0  0  0  0  0  0  0  0  0
   22.3110    7.0550   30.9560 C   0  0  0  0  0  0  0  0  0  0  0  0
   25.3100    4.2460   30.2650 B   0  0  0  0  0  0  0  0  0  0  0  0
   20.0100   10.1710   35.3150 C   0  0  0  0  0  0  0  0  0  0  0  0
   18.1380    9.9070   34.2170 H   0  0  0  0  0  0  0  0  0  0  0  0
   18.7170   11.1960   32.3970 H   0  0  0  0  0  0  0  0  0  0  0  0
   19.6940   12.0230   33.7040 H   0  0  0  0  0  0  0  0  0  0  0  0
   23.6160   10.8990   30.7090 H   0  0  0  0  0  0  0  0  0  0  0  0
   22.8850   12.7860   29.7090 H   0  0  0  0  0  0  0  0  0  0  0  0
   23.0320   15.1660   29.2780 H   0  0  0  0  0  0  0  0  0  0  0  0
   21.0110   16.0110   32.9170 H   0  0  0  0  0  0  0  0  0  0  0  0
   20.8350   13.6510   33.3310 H   0  0  0  0  0  0  0  0  0  0  0  0
   24.9060    9.0650   31.5920 H   0  0  0  0  0  0  0  0  0  0  0  0
   26.1360    7.0390   31.0660 H   0  0  0  0  0  0  0  0  0  0  0  0
   22.4300    4.9920   30.3870 H   0  0  0  0  0  0  0  0  0  0  0  0
   21.2270    7.1300   30.9450 H   0  0  0  0  0  0  0  0  0  0  0  0
   19.7730    9.4280   36.0810 H   0  0  0  0  0  0  0  0  0  0  0  0
   21.0860   10.1010   35.0360 H   0  0  0  0  0  0  0  0  0  0  0  0
   19.7910   11.1830   35.7040 H   0  0  0  0  0  0  0  0  0  0  0  0
  1  2  1  0  0  0  0
  2 26  1  1  0  0  0
  2 25  1  0  0  0  0
  3 28  1  0  0  0  0
  3  2  1  0  0  0  0
  4  3  1  0  0  0  0
  5  4  1  0  0  0  0
  5  1  1  6  0  0  0
  6  5  1  0  0  0  0
  7  6  1  0  0  0  0
  7  8  2  0  0  0  0
  8  4  1  0  0  0  0
  9  8  1  0  0  0  0
  9 14  1  0  0  0  0
 10  9  2  0  0  0  0
 11 10  1  0  0  0  0
 11 12  2  0  0  0  0
 12 13  1  0  0  0  0
 13 14  2  0  0  0  0
 13 32  1  0  0  0  0
 14 33  1  0  0  0  0
 15 12  1  0  0  0  0
 15 17  2  0  0  0  0
 16 15  2  0  0  0  0
 18 19  1  0  0  0  0
 18  6  1  0  0  0  0
 19 34  1  0  0  0  0
 20 35  1  0  0  0  0
 20 19  2  0  0  0  0
 21 20  1  0  0  0  0
 22 21  2  0  0  0  0
 22 23  1  0  0  0  0
 23 18  2  0  0  0  0
 24 21  1  0  0  0  0
 25 40  1  0  0  0  0
 25 38  1  0  0  0  0
 27  3  1  0  0  0  0
 29  7  1  0  0  0  0
 30 10  1  0  0  0  0
 31 11  1  0  0  0  0
 36 22  1  0  0  0  0
 37 23  1  0  0  0  0
 39 25  1  0  0  0  0
M  END
>  <Pose>
1

>  <Score>
-6.91

$$$$
