
 OpenBabel03202209553D

 43 46  0  0  1  0  0  0  0  0999 V2000
   24.1890   10.3290   31.8550 S   0  0  0  0  0  0  0  0  0  0  0  0
   24.7080   11.5650   30.5970 C   0  0  0  0  0  0  0  0  0  0  0  0
   25.5900   11.0100   29.5590 C   0  0  0  0  0  0  0  0  0  0  0  0
   26.1660    9.6650   29.7360 C   0  0  0  0  0  0  0  0  0  0  0  0
   25.3080    8.6130   30.0990 N   0  0  1  0  0  0  0  0  0  0  0  0
   25.3120    7.1990   29.8760 C   0  0  2  0  0  0  0  0  0  0  0  0
   23.8270    6.9270   29.7760 C   0  0  0  0  0  0  0  0  0  0  0  0
   23.2890    7.8810   30.7220 N   0  0  0  0  0  0  0  0  0  0  0  0
   24.1060    8.8110   30.8870 C   0  0  1  0  0  0  0  0  0  0  0  0
   22.0210    7.7610   31.3770 C   0  0  0  0  0  0  0  0  0  0  0  0
   21.4540    6.4990   31.4940 C   0  0  0  0  0  0  0  0  0  0  0  0
   20.2140    6.3080   32.1000 C   0  0  0  0  0  0  0  0  0  0  0  0
   19.5070    7.3780   32.6040 C   0  0  0  0  0  0  0  0  0  0  0  0
   20.0560    8.6330   32.4950 C   0  0  0  0  0  0  0  0  0  0  0  0
   21.3030    8.7950   31.8790 C   0  0  0  0  0  0  0  0  0  0  0  0
   17.7880    7.1090   33.4240 B   0  0  0  0  0  0  0  0  0  0  0  0
   25.7530    6.5530   31.0350 O   0  0  0  0  0  0  0  0  0  0  0  0
   26.0380    6.7280   28.6820 C   0  0  0  0  0  0  0  0  0  0  0  0
   27.0010    7.5770   28.1460 C   0  0  0  0  0  0  0  0  0  0  0  0
   27.7340    7.2260   27.0340 C   0  0  0  0  0  0  0  0  0  0  0  0
   27.5490    6.0120   26.3960 C   0  0  0  0  0  0  0  0  0  0  0  0
   26.5960    5.1640   26.9250 C   0  0  0  0  0  0  0  0  0  0  0  0
   25.8530    5.5240   28.0540 C   0  0  0  0  0  0  0  0  0  0  0  0
   28.3170    5.6730   25.2560 N   0  0  0  0  0  0  0  0  0  0  0  0
   29.2860    4.9060   25.2880 O   0  0  0  0  0  0  0  0  0  0  0  0
   27.9760    6.2120   24.0420 O   0  0  0  0  0  0  0  0  0  0  0  0
   23.7590   11.9800   30.1460 H   0  0  0  0  0  0  0  0  0  0  0  0
   25.1430   12.3940   31.1520 H   0  0  0  0  0  0  0  0  0  0  0  0
   25.0840   11.0750   28.5710 H   0  0  0  0  0  0  0  0  0  0  0  0
   26.4670   11.7290   29.4540 H   0  0  0  0  0  0  0  0  0  0  0  0
   26.9790    9.7200   30.5250 H   0  0  0  0  0  0  0  0  0  0  0  0
   26.7390    9.4200   28.8140 H   0  0  0  0  0  0  0  0  0  0  0  0
   23.5580    7.2330   28.7200 H   0  0  0  0  0  0  0  0  0  0  0  0
   23.5820    5.8780   29.9800 H   0  0  0  0  0  0  0  0  0  0  0  0
   21.9750    5.6370   31.1050 H   0  0  0  0  0  0  0  0  0  0  0  0
   19.7930    5.3040   32.1750 H   0  0  0  0  0  0  0  0  0  0  0  0
   19.5160    9.4780   32.8680 H   0  0  0  0  0  0  0  0  0  0  0  0
   21.7090    9.8030   31.7980 H   0  0  0  0  0  0  0  0  0  0  0  0
   25.9860    7.2220   31.7000 H   0  0  0  0  0  0  0  0  0  0  0  0
   27.1660    8.5440   28.6290 H   0  0  0  0  0  0  0  0  0  0  0  0
   28.4960    7.8710   26.5880 H   0  0  0  0  0  0  0  0  0  0  0  0
   26.4300    4.2020   26.4390 H   0  0  0  0  0  0  0  0  0  0  0  0
   25.1060    4.8400   28.4490 H   0  0  0  0  0  0  0  0  0  0  0  0
  2 28  1  0  0  0  0
  2  1  1  0  0  0  0
  3  4  1  0  0  0  0
  3  2  1  0  0  0  0
  4 31  1  0  0  0  0
  5  4  1  1  0  0  0
  5  9  1  0  0  0  0
  6  5  1  0  0  0  0
  6 17  1  1  0  0  0
  7  6  1  0  0  0  0
  7 34  1  0  0  0  0
  7  8  1  0  0  0  0
  8  9  1  0  0  0  0
  8 10  1  0  0  0  0
  9  1  1  1  0  0  0
 10 11  2  0  0  0  0
 10 15  1  0  0  0  0
 11 12  1  0  0  0  0
 12 36  1  0  0  0  0
 12 13  2  0  0  0  0
 13 16  1  0  0  0  0
 14 13  1  0  0  0  0
 14 37  1  0  0  0  0
 15 14  2  0  0  0  0
 17 39  1  0  0  0  0
 18  6  1  0  0  0  0
 19 40  1  0  0  0  0
 19 18  1  0  0  0  0
 20 19  2  0  0  0  0
 21 22  2  0  0  0  0
 21 20  1  0  0  0  0
 22 23  1  0  0  0  0
 23 43  1  0  0  0  0
 23 18  2  0  0  0  0
 24 25  2  0  0  0  0
 24 21  1  0  0  0  0
 26 24  2  0  0  0  0
 27  2  1  0  0  0  0
 29  3  1  0  0  0  0
 30  3  1  0  0  0  0
 32  4  1  0  0  0  0
 33  7  1  0  0  0  0
 35 11  1  0  0  0  0
 38 15  1  0  0  0  0
 41 20  1  0  0  0  0
 42 22  1  0  0  0  0
M  END
>  <Pose>
1

>  <Score>
-6.47

$$$$
