
 OpenBabel03202209553D

 45 49  0  0  1  0  0  0  0  0999 V2000
   27.7170    4.7730   28.9340 S   0  0  0  0  0  0  0  0  0  0  0  0
   27.9430    4.6800   30.7640 C   0  0  0  0  0  0  0  0  0  0  0  0
   26.5900    4.1620   31.1370 C   0  0  0  0  0  0  0  0  0  0  0  0
   25.5730    4.7220   30.3300 N   0  0  0  0  0  0  0  0  0  0  0  0
   25.9390    5.1120   29.0250 C   0  0  0  0  0  0  0  0  0  0  0  0
   25.1210    5.6230   28.1610 N   0  0  0  0  0  0  0  0  0  0  0  0
   23.7130    5.7910   28.4850 C   0  0  0  0  0  0  0  0  0  0  0  0
   22.9740    5.7940   27.4710 O   0  0  0  0  0  0  0  0  0  0  0  0
   23.3730    5.9210   29.8740 C   0  0  1  0  0  0  0  0  0  0  0  0
   24.1840    4.9310   30.6760 C   0  0  0  0  0  0  0  0  0  0  0  0
   23.6780    4.2990   31.6210 O   0  0  0  0  0  0  0  0  0  0  0  0
   23.2820    7.2180   30.5610 C   0  0  2  0  0  0  0  0  0  0  0  0
   24.4310    7.8110   31.2580 C   0  0  1  0  0  0  0  0  0  0  0  0
   25.1330    8.7390   30.2670 C   0  0  0  0  0  0  0  0  0  0  0  0
   25.8840    8.2580   29.3880 O   0  0  0  0  0  0  0  0  0  0  0  0
   24.9300   10.1690   30.3440 N   0  0  0  0  0  0  0  0  0  0  0  0
   25.2160   11.1380   29.3440 C   0  0  0  0  0  0  0  0  0  0  0  0
   24.2840   12.3210   29.4410 C   0  0  0  0  0  0  0  0  0  0  0  0
   24.2520   12.4360   31.2930 S   0  0  0  0  0  0  0  0  0  0  0  0
   24.4040   10.6790   31.5560 C   0  0  0  0  0  0  0  0  0  0  0  0
   24.1100    9.9590   32.5660 N   0  0  0  0  0  0  0  0  0  0  0  0
   24.3160    8.5160   32.5060 C   0  0  0  0  0  0  0  0  0  0  0  0
   24.3890    7.9500   33.6120 O   0  0  0  0  0  0  0  0  0  0  0  0
   21.9740    7.3860   31.3050 C   0  0  0  0  0  0  0  0  0  0  0  0
   21.4410    8.6330   31.5250 C   0  0  0  0  0  0  0  0  0  0  0  0
   20.2570    8.7460   32.2080 C   0  0  0  0  0  0  0  0  0  0  0  0
   19.5720    7.6730   32.6840 C   0  0  0  0  0  0  0  0  0  0  0  0
   20.0790    6.4130   32.4800 C   0  0  0  0  0  0  0  0  0  0  0  0
   21.2840    6.2990   31.7860 C   0  0  0  0  0  0  0  0  0  0  0  0
   17.9160    7.8400   33.6370 B   0  0  0  0  0  0  0  0  0  0  0  0
   28.7170    3.9080   30.9400 H   0  0  0  0  0  0  0  0  0  0  0  0
   28.1870    5.6590   31.1780 H   0  0  0  0  0  0  0  0  0  0  0  0
   26.5980    3.0410   31.0990 H   0  0  0  0  0  0  0  0  0  0  0  0
   26.4340    4.4600   32.2040 H   0  0  0  0  0  0  0  0  0  0  0  0
   22.3120    5.4650   29.9650 H   0  0  0  0  0  0  0  0  0  0  0  0
   23.1080    7.9550   29.6670 H   0  0  0  0  0  0  0  0  0  0  0  0
   25.2430    6.9960   31.3780 H   0  0  0  0  0  0  0  0  0  0  0  0
   26.2680   11.5150   29.4190 H   0  0  0  0  0  0  0  0  0  0  0  0
   25.0410   10.7020   28.3370 H   0  0  0  0  0  0  0  0  0  0  0  0
   23.2740   12.0930   29.1040 H   0  0  0  0  0  0  0  0  0  0  0  0
   24.7360   13.2110   29.0160 H   0  0  0  0  0  0  0  0  0  0  0  0
   21.9660    9.5270   31.1510 H   0  0  0  0  0  0  0  0  0  0  0  0
   19.8470    9.7350   32.3760 H   0  0  0  0  0  0  0  0  0  0  0  0
   19.5520    5.5320   32.8490 H   0  0  0  0  0  0  0  0  0  0  0  0
   21.6530    5.2850   31.6440 H   0  0  0  0  0  0  0  0  0  0  0  0
  1  5  1  0  0  0  0
  1  2  1  0  0  0  0
  2 31  1  0  0  0  0
  2  3  1  0  0  0  0
  2 32  1  0  0  0  0
  3 34  1  0  0  0  0
  4 10  1  0  0  0  0
  4  3  1  0  0  0  0
  5  4  1  0  0  0  0
  6  7  1  0  0  0  0
  6  5  2  0  0  0  0
  7  9  1  0  0  0  0
  8  7  2  0  0  0  0
  9 35  1  1  0  0  0
  9 12  1  0  0  0  0
  9 10  1  0  0  0  0
 10 11  2  0  0  0  0
 12 36  1  6  0  0  0
 12 13  1  0  0  0  0
 12 24  1  0  0  0  0
 13 37  1  1  0  0  0
 13 22  1  0  0  0  0
 14 16  1  0  0  0  0
 14 13  1  0  0  0  0
 15 14  2  0  0  0  0
 16 20  1  0  0  0  0
 17 38  1  0  0  0  0
 17 18  1  0  0  0  0
 17 16  1  0  0  0  0
 18 19  1  0  0  0  0
 19 20  1  0  0  0  0
 20 21  2  0  0  0  0
 22 21  1  0  0  0  0
 22 23  2  0  0  0  0
 24 25  2  0  0  0  0
 24 29  1  0  0  0  0
 25 26  1  0  0  0  0
 26 43  1  0  0  0  0
 26 27  2  0  0  0  0
 27 30  1  0  0  0  0
 28 27  1  0  0  0  0
 28 44  1  0  0  0  0
 29 28  2  0  0  0  0
 33  3  1  0  0  0  0
 39 17  1  0  0  0  0
 40 18  1  0  0  0  0
 41 18  1  0  0  0  0
 42 25  1  0  0  0  0
 45 29  1  0  0  0  0
M  END
>  <Pose>
1

>  <Score>
-5.19

$$$$
