
 OpenBabel03202209553D

 25 28  0  0  0  0  0  0  0  0999 V2000
   21.4450    5.2220   31.2880 S   0  0  0  0  0  0  0  0  0  0  0  0
   22.9170    5.8150   30.6310 C   0  0  0  0  0  0  0  0  0  0  0  0
   22.8210    7.1140   30.9090 N   0  0  0  0  0  0  0  0  0  0  0  0
   23.9820    7.6510   30.4040 C   0  0  0  0  0  0  0  0  0  0  0  0
   24.7160    6.6850   29.8540 N   0  0  0  0  0  0  0  0  0  0  0  0
   24.0890    5.5330   29.9760 N   0  0  0  0  0  0  0  0  0  0  0  0
   24.3750    9.0750   30.4510 C   0  0  0  0  0  0  0  0  0  0  0  0
   24.3570    9.8390   29.3430 N   0  0  0  0  0  0  0  0  0  0  0  0
   24.7190   11.1400   29.4000 C   0  0  0  0  0  0  0  0  0  0  0  0
   25.1070   11.6980   30.5860 C   0  0  0  0  0  0  0  0  0  0  0  0
   25.1180   10.9290   31.6760 N   0  0  0  0  0  0  0  0  0  0  0  0
   24.7630    9.6260   31.6480 C   0  0  0  0  0  0  0  0  0  0  0  0
   21.7900    7.5420   31.5180 N   0  0  0  0  0  0  0  0  0  0  0  0
   20.8220    6.7200   31.8740 C   0  0  0  0  0  0  0  0  0  0  0  0
   19.5610    6.9890   32.5730 C   0  0  0  0  0  0  0  0  0  0  0  0
   18.6010    6.1020   32.8610 N   0  0  0  0  0  0  0  0  0  0  0  0
   17.6030    6.7260   33.5080 N   0  0  0  0  0  0  0  0  0  0  0  0
   17.9210    8.0300   33.6390 C   0  0  0  0  0  0  0  0  0  0  0  0
   19.1730    8.1950   33.0410 C   0  0  0  0  0  0  0  0  0  0  0  0
   20.0820    9.8450   32.9500 B   0  0  0  0  0  0  0  0  0  0  0  0
   24.6900   11.7080   28.5000 H   0  0  0  0  0  0  0  0  0  0  0  0
   25.3900   12.7230   30.6300 H   0  0  0  0  0  0  0  0  0  0  0  0
   24.7760    9.0060   32.5450 H   0  0  0  0  0  0  0  0  0  0  0  0
   16.7300    6.2600   33.8450 H   0  0  0  0  0  0  0  0  0  0  0  0
   17.2870    8.7570   34.1230 H   0  0  0  0  0  0  0  0  0  0  0  0
  1 14  1  0  0  0  0
  2  3  1  0  0  0  0
  2  1  1  0  0  0  0
  3 13  1  0  0  0  0
  4  7  1  0  0  0  0
  4  3  1  0  0  0  0
  5  6  1  0  0  0  0
  5  4  2  0  0  0  0
  6  2  2  0  0  0  0
  7 12  1  0  0  0  0
  8  9  1  0  0  0  0
  8  7  2  0  0  0  0
  9 10  2  0  0  0  0
 10 22  1  0  0  0  0
 10 11  1  0  0  0  0
 12 11  2  0  0  0  0
 12 23  1  0  0  0  0
 13 14  2  0  0  0  0
 14 15  1  0  0  0  0
 15 16  2  0  0  0  0
 15 19  1  0  0  0  0
 16 17  1  0  0  0  0
 17 18  1  0  0  0  0
 17 24  1  0  0  0  0
 18 25  1  0  0  0  0
 19 18  2  0  0  0  0
 20 19  1  0  0  0  0
 21  9  1  0  0  0  0
M  END
>  <Pose>
1

>  <Score>
-8.00

$$$$
