
 OpenBabel03202209553D

 47 50  0  0  0  0  0  0  0  0999 V2000
   22.5610    5.1780   31.0800 S   0  0  0  0  0  0  0  0  0  0  0  0
   21.2550    6.0130   31.8100 C   0  0  0  0  0  0  0  0  0  0  0  0
   20.1220    5.6220   32.4720 N   0  0  0  0  0  0  0  0  0  0  0  0
   19.2680    6.5260   32.9800 C   0  0  0  0  0  0  0  0  0  0  0  0
   18.2180    6.2650   33.5960 O   0  0  0  0  0  0  0  0  0  0  0  0
   19.6240    7.8400   32.7830 C   0  0  0  0  0  0  0  0  0  0  0  0
   20.7510    8.2370   32.1250 C   0  0  0  0  0  0  0  0  0  0  0  0
   21.6040    7.2880   31.6170 N   0  0  0  0  0  0  0  0  0  0  0  0
   22.7010    7.5200   31.0070 N   0  0  0  0  0  0  0  0  0  0  0  0
   23.4680    6.5590   30.5770 C   0  0  0  0  0  0  0  0  0  0  0  0
   24.7420    6.6150   29.8920 N   0  0  0  0  0  0  0  0  0  0  0  0
   25.4930    7.8110   29.8690 C   0  0  0  0  0  0  0  0  0  0  0  0
   26.7280    7.6380   29.0160 C   0  0  0  0  0  0  0  0  0  0  0  0
   26.4130    6.8840   27.8830 O   0  0  0  0  0  0  0  0  0  0  0  0
   26.2130    5.5440   28.2340 C   0  0  0  0  0  0  0  0  0  0  0  0
   25.1400    5.3990   29.2690 C   0  0  0  0  0  0  0  0  0  0  0  0
   20.9990    9.6720   32.0050 C   0  0  0  0  0  0  0  0  0  0  0  0
   20.6620   10.4510   32.9700 O   0  0  0  0  0  0  0  0  0  0  0  0
   21.5900   10.2950   30.8860 N   0  0  0  0  0  0  0  0  0  0  0  0
   22.9560   10.7980   30.9750 C   0  0  0  0  0  0  0  0  0  0  0  0
   23.0590   12.1440   30.3590 C   0  0  0  0  0  0  0  0  0  0  0  0
   23.8860   12.3220   29.2610 C   0  0  0  0  0  0  0  0  0  0  0  0
   24.0210   13.5720   28.7100 C   0  0  0  0  0  0  0  0  0  0  0  0
   23.3640   14.6650   29.2100 C   0  0  0  0  0  0  0  0  0  0  0  0
   22.5370   14.4970   30.3050 C   0  0  0  0  0  0  0  0  0  0  0  0
   22.4020   13.2330   30.8580 C   0  0  0  0  0  0  0  0  0  0  0  0
   21.5800   15.9660   31.0590 B   0  0  0  0  0  0  0  0  0  0  0  0
   24.5420   11.2170   28.7670 O   0  0  0  0  0  0  0  0  0  0  0  0
   25.8430   10.9200   29.2760 C   0  0  0  0  0  0  0  0  0  0  0  0
   18.9410    8.5950   33.1910 H   0  0  0  0  0  0  0  0  0  0  0  0
   25.7790    8.1240   30.9110 H   0  0  0  0  0  0  0  0  0  0  0  0
   24.9450    8.6800   29.4300 H   0  0  0  0  0  0  0  0  0  0  0  0
   27.4600    7.0520   29.6270 H   0  0  0  0  0  0  0  0  0  0  0  0
   27.1100    8.6070   28.6820 H   0  0  0  0  0  0  0  0  0  0  0  0
   25.9780    4.9610   27.2960 H   0  0  0  0  0  0  0  0  0  0  0  0
   27.2020    5.1420   28.5780 H   0  0  0  0  0  0  0  0  0  0  0  0
   24.2510    4.8510   28.8310 H   0  0  0  0  0  0  0  0  0  0  0  0
   25.5640    4.7280   30.0790 H   0  0  0  0  0  0  0  0  0  0  0  0
   21.0710   10.4120   29.9950 H   0  0  0  0  0  0  0  0  0  0  0  0
   23.6450   10.1280   30.3760 H   0  0  0  0  0  0  0  0  0  0  0  0
   23.3530   10.7900   31.9970 H   0  0  0  0  0  0  0  0  0  0  0  0
   24.6790   13.6990   27.8440 H   0  0  0  0  0  0  0  0  0  0  0  0
   23.4660   15.6630   28.7800 H   0  0  0  0  0  0  0  0  0  0  0  0
   21.7370   13.1710   31.7210 H   0  0  0  0  0  0  0  0  0  0  0  0
   26.2290   10.0020   28.8000 H   0  0  0  0  0  0  0  0  0  0  0  0
   26.5630   11.7290   29.0540 H   0  0  0  0  0  0  0  0  0  0  0  0
   25.7720   10.8390   30.3710 H   0  0  0  0  0  0  0  0  0  0  0  0
  1  2  1  0  0  0  0
  2  3  2  0  0  0  0
  3  4  1  0  0  0  0
  4  5  2  0  0  0  0
  6  4  1  0  0  0  0
  6 30  1  0  0  0  0
  7  6  2  0  0  0  0
  8  2  1  0  0  0  0
  8  7  1  0  0  0  0
  9  8  1  0  0  0  0
 10  9  2  0  0  0  0
 10  1  1  0  0  0  0
 11 10  1  0  0  0  0
 12 11  1  0  0  0  0
 12 31  1  0  0  0  0
 13 33  1  0  0  0  0
 13 12  1  0  0  0  0
 14 15  1  0  0  0  0
 14 13  1  0  0  0  0
 15 36  1  0  0  0  0
 15 16  1  0  0  0  0
 16 11  1  0  0  0  0
 16 38  1  0  0  0  0
 17  7  1  0  0  0  0
 17 18  2  0  0  0  0
 19 20  1  0  0  0  0
 19 17  1  0  0  0  0
 20 41  1  0  0  0  0
 21 26  1  0  0  0  0
 21 20  1  0  0  0  0
 22 21  2  0  0  0  0
 23 24  2  0  0  0  0
 23 22  1  0  0  0  0
 24 25  1  0  0  0  0
 25 26  2  0  0  0  0
 25 27  1  0  0  0  0
 26 44  1  0  0  0  0
 28 22  1  0  0  0  0
 28 29  1  0  0  0  0
 29 47  1  0  0  0  0
 32 12  1  0  0  0  0
 34 13  1  0  0  0  0
 35 15  1  0  0  0  0
 37 16  1  0  0  0  0
 39 19  1  0  0  0  0
 40 20  1  0  0  0  0
 42 23  1  0  0  0  0
 43 24  1  0  0  0  0
 45 29  1  0  0  0  0
 46 29  1  0  0  0  0
M  END
>  <Pose>
1

>  <Score>
-8.61

$$$$
