
 OpenBabel03202209553D

 53 56  0  0  0  0  0  0  0  0999 V2000
   26.0990    4.7220   27.4710 B   0  0  0  0  0  0  0  0  0  0  0  0
   26.4300    4.0340   29.2130 C   0  0  0  0  0  0  0  0  0  0  0  0
   25.3970    3.7650   30.0770 C   0  0  0  0  0  0  0  0  0  0  0  0
   25.6500    3.2580   31.3510 C   0  0  0  0  0  0  0  0  0  0  0  0
   26.9560    3.0500   31.6850 C   0  0  0  0  0  0  0  0  0  0  0  0
   28.0090    3.3200   30.8100 C   0  0  0  0  0  0  0  0  0  0  0  0
   27.7500    3.8140   29.5680 C   0  0  0  0  0  0  0  0  0  0  0  0
   24.5510    2.9950   32.2590 C   0  0  0  0  0  0  0  0  0  0  0  0
   24.3010    1.8070   32.7500 C   0  0  0  0  0  0  0  0  0  0  0  0
   23.7030    4.0950   32.6520 N   0  0  0  0  0  0  0  0  0  0  0  0
   22.3860    4.1040   32.1920 N   0  0  0  0  0  0  0  0  0  0  0  0
   21.9690    4.9280   31.1200 C   0  0  0  0  0  0  0  0  0  0  0  0
   21.0230    4.5460   30.3930 O   0  0  0  0  0  0  0  0  0  0  0  0
   22.5920    6.2050   30.8260 C   0  0  0  0  0  0  0  0  0  0  0  0
   23.8600    6.3470   30.4180 N   0  0  0  0  0  0  0  0  0  0  0  0
   24.0630    7.6310   30.2690 N   0  0  0  0  0  0  0  0  0  0  0  0
   22.9620    8.3150   30.5700 N   0  0  0  0  0  0  0  0  0  0  0  0
   22.0030    7.4750   30.9270 C   0  0  0  0  0  0  0  0  0  0  0  0
   20.6210    7.6600   31.3060 C   0  0  0  0  0  0  0  0  0  0  0  0
   20.2480    7.1950   32.6280 N   0  0  0  0  0  0  0  0  0  0  0  0
   20.4640    8.2410   33.6230 C   0  0  0  0  0  0  0  0  0  0  0  0
   19.8960    9.5700   33.1790 C   0  0  0  0  0  0  0  0  0  0  0  0
   18.4140    9.4250   32.8790 C   0  0  0  0  0  0  0  0  0  0  0  0
   17.9490    8.0210   33.1390 C   0  0  0  0  0  0  0  0  0  0  0  0
   18.8140    6.9250   32.6590 C   0  0  0  0  0  0  0  0  0  0  0  0
   22.8660    9.7230   30.4800 C   0  0  0  0  0  0  0  0  0  0  0  0
   22.0540   10.3560   29.5880 N   0  0  0  0  0  0  0  0  0  0  0  0
   22.2020   11.6310   29.7600 O   0  0  0  0  0  0  0  0  0  0  0  0
   23.0480   11.8850   30.6930 N   0  0  0  0  0  0  0  0  0  0  0  0
   23.4920   10.7160   31.1750 C   0  0  0  0  0  0  0  0  0  0  0  0
   24.4260   10.5170   32.2020 N   0  0  0  0  0  0  0  0  0  0  0  0
   24.3740    3.9470   29.7650 H   0  0  0  0  0  0  0  0  0  0  0  0
   27.2040    2.6550   32.6710 H   0  0  0  0  0  0  0  0  0  0  0  0
   29.0410    3.1400   31.1150 H   0  0  0  0  0  0  0  0  0  0  0  0
   28.5530    4.0210   28.9010 H   0  0  0  0  0  0  0  0  0  0  0  0
   24.8780    0.9350   32.5260 H   0  0  0  0  0  0  0  0  0  0  0  0
   23.4630    1.6410   33.4320 H   0  0  0  0  0  0  0  0  0  0  0  0
   24.1310    4.8160   33.2580 H   0  0  0  0  0  0  0  0  0  0  0  0
   21.7230    3.4580   32.6970 H   0  0  0  0  0  0  0  0  0  0  0  0
   20.2810    8.7330   31.2660 H   0  0  0  0  0  0  0  0  0  0  0  0
   19.9440    7.1280   30.5920 H   0  0  0  0  0  0  0  0  0  0  0  0
   21.5450    8.3480   33.8030 H   0  0  0  0  0  0  0  0  0  0  0  0
   19.9780    7.9100   34.5490 H   0  0  0  0  0  0  0  0  0  0  0  0
   20.3810    9.9600   32.2690 H   0  0  0  0  0  0  0  0  0  0  0  0
   20.0540   10.2730   34.0120 H   0  0  0  0  0  0  0  0  0  0  0  0
   17.8770   10.0710   33.6100 H   0  0  0  0  0  0  0  0  0  0  0  0
   18.1450    9.8310   31.8870 H   0  0  0  0  0  0  0  0  0  0  0  0
   17.8930    7.9180   34.2650 H   0  0  0  0  0  0  0  0  0  0  0  0
   16.9040    7.9560   32.8060 H   0  0  0  0  0  0  0  0  0  0  0  0
   18.5150    6.7020   31.5970 H   0  0  0  0  0  0  0  0  0  0  0  0
   18.6650    5.9760   33.2220 H   0  0  0  0  0  0  0  0  0  0  0  0
   25.4420   10.7510   32.1620 H   0  0  0  0  0  0  0  0  0  0  0  0
   24.1000   10.0950   33.0980 H   0  0  0  0  0  0  0  0  0  0  0  0
  1  2  1  0  0  0  0
  2  7  2  0  0  0  0
  2  3  1  0  0  0  0
  3  4  2  0  0  0  0
  4  5  1  0  0  0  0
  4  8  1  0  0  0  0
  5 33  1  0  0  0  0
  6 34  1  0  0  0  0
  6  5  2  0  0  0  0
  7  6  1  0  0  0  0
  8 10  1  0  0  0  0
  8  9  2  0  0  0  0
  9 37  1  0  0  0  0
 10 38  1  0  0  0  0
 11 10  1  0  0  0  0
 11 39  1  0  0  0  0
 12 11  1  0  0  0  0
 13 12  2  0  0  0  0
 14 18  2  0  0  0  0
 14 12  1  0  0  0  0
 15 14  1  0  0  0  0
 16 15  2  0  0  0  0
 16 17  1  0  0  0  0
 17 18  1  0  0  0  0
 18 19  1  0  0  0  0
 19 20  1  0  0  0  0
 20 25  1  0  0  0  0
 20 21  1  0  0  0  0
 21 42  1  0  0  0  0
 21 43  1  0  0  0  0
 22 21  1  0  0  0  0
 22 45  1  0  0  0  0
 23 24  1  0  0  0  0
 23 22  1  0  0  0  0
 23 46  1  0  0  0  0
 24 48  1  0  0  0  0
 25 24  1  0  0  0  0
 25 51  1  0  0  0  0
 26 17  1  0  0  0  0
 26 30  1  0  0  0  0
 27 28  1  0  0  0  0
 27 26  2  0  0  0  0
 28 29  1  0  0  0  0
 29 30  2  0  0  0  0
 30 31  1  0  0  0  0
 31 53  1  0  0  0  0
 32  3  1  0  0  0  0
 35  7  1  0  0  0  0
 36  9  1  0  0  0  0
 40 19  1  0  0  0  0
 41 19  1  0  0  0  0
 44 22  1  0  0  0  0
 47 23  1  0  0  0  0
 49 24  1  0  0  0  0
 50 25  1  0  0  0  0
 52 31  1  0  0  0  0
M  END
>  <Pose>
1

>  <Score>
-7.76

$$$$
