
 OpenBabel03202209553D

 48 51  0  0  1  0  0  0  0  0999 V2000
   23.4940    3.1050   32.5490 B   0  0  0  0  0  0  0  0  0  0  0  0
   24.1620    4.3500   31.2580 C   0  0  0  0  0  0  0  0  0  0  0  0
   23.5940    5.5880   31.1390 C   0  0  0  0  0  0  0  0  0  0  0  0
   24.0720    6.4990   30.2050 C   0  0  0  0  0  0  0  0  0  0  0  0
   25.1140    6.1210   29.4170 C   0  0  0  0  0  0  0  0  0  0  0  0
   25.6820    4.8630   29.5450 C   0  0  0  0  0  0  0  0  0  0  0  0
   25.2090    3.9660   30.4700 C   0  0  0  0  0  0  0  0  0  0  0  0
   23.4620    7.8120   30.0790 C   0  0  0  0  0  0  0  0  0  0  0  0
   22.2090    7.8780   29.7960 O   0  0  0  0  0  0  0  0  0  0  0  0
   24.1960    9.0020   30.2570 N   0  0  0  0  0  0  0  0  0  0  0  0
   23.7950   10.1600   29.4780 C   0  0  2  0  0  0  0  0  0  0  0  0
   24.9190   11.1700   29.3660 C   0  0  0  0  0  0  0  0  0  0  0  0
   24.2140   12.4140   29.1240 N   0  0  0  0  0  0  0  0  0  0  0  0
   22.7850   12.2410   29.2920 C   0  0  1  0  0  0  0  0  0  0  0  0
   22.7230   10.9700   30.1500 C   0  0  0  0  0  0  0  0  0  0  0  0
   22.2560   13.4030   30.0050 C   0  0  0  0  0  0  0  0  0  0  0  0
   21.5710   13.2780   31.0310 O   0  0  0  0  0  0  0  0  0  0  0  0
   22.5480   14.6900   29.4840 N   0  0  0  0  0  0  0  0  0  0  0  0
   23.7490   14.8850   28.7030 C   0  0  1  0  0  0  0  0  0  0  0  0
   24.6680   13.7260   28.7630 C   0  0  0  0  0  0  0  0  0  0  0  0
   25.8870   13.8830   28.4920 O   0  0  0  0  0  0  0  0  0  0  0  0
   23.4530   15.3040   27.2790 C   0  0  0  0  0  0  0  0  0  0  0  0
   23.2760   16.7570   27.1250 C   0  0  0  0  0  0  0  0  0  0  0  0
   23.9520   17.4300   26.1240 C   0  0  0  0  0  0  0  0  0  0  0  0
   23.7910   18.7890   25.9740 C   0  0  0  0  0  0  0  0  0  0  0  0
   22.9680   19.5370   26.7930 C   0  0  0  0  0  0  0  0  0  0  0  0
   22.2930   18.8690   27.7920 C   0  0  0  0  0  0  0  0  0  0  0  0
   22.4420   17.5060   27.9580 C   0  0  0  0  0  0  0  0  0  0  0  0
   22.7560    5.9200   31.7580 H   0  0  0  0  0  0  0  0  0  0  0  0
   25.5100    6.8140   28.6710 H   0  0  0  0  0  0  0  0  0  0  0  0
   26.5080    4.5630   28.9220 H   0  0  0  0  0  0  0  0  0  0  0  0
   25.6350    2.9690   30.5930 H   0  0  0  0  0  0  0  0  0  0  0  0
   24.9800    9.0250   30.9240 H   0  0  0  0  0  0  0  0  0  0  0  0
   23.4830    9.9050   28.4670 H   0  0  0  0  0  0  0  0  0  0  0  0
   25.5030   11.2610   30.3080 H   0  0  0  0  0  0  0  0  0  0  0  0
   25.6100   10.9260   28.5290 H   0  0  0  0  0  0  0  0  0  0  0  0
   22.2550   12.0750   28.3310 H   0  0  0  0  0  0  0  0  0  0  0  0
   21.7080   10.5680   30.0130 H   0  0  0  0  0  0  0  0  0  0  0  0
   22.9660   11.2620   31.1780 H   0  0  0  0  0  0  0  0  0  0  0  0
   21.9280   15.5150   29.6430 H   0  0  0  0  0  0  0  0  0  0  0  0
   24.2580   15.7820   29.1690 H   0  0  0  0  0  0  0  0  0  0  0  0
   24.2690   14.9290   26.6320 H   0  0  0  0  0  0  0  0  0  0  0  0
   22.5100   14.8150   26.9880 H   0  0  0  0  0  0  0  0  0  0  0  0
   24.6210   16.9350   25.4290 H   0  0  0  0  0  0  0  0  0  0  0  0
   24.3170   19.3210   25.1930 H   0  0  0  0  0  0  0  0  0  0  0  0
   22.8670   20.6150   26.6410 H   0  0  0  0  0  0  0  0  0  0  0  0
   21.6420   19.4610   28.4390 H   0  0  0  0  0  0  0  0  0  0  0  0
   21.8970   17.0130   28.7530 H   0  0  0  0  0  0  0  0  0  0  0  0
  2  1  1  0  0  0  0
  3  2  1  0  0  0  0
  3 29  1  0  0  0  0
  4  3  2  0  0  0  0
  5  6  2  0  0  0  0
  5  4  1  0  0  0  0
  6  7  1  0  0  0  0
  7 32  1  0  0  0  0
  7  2  2  0  0  0  0
  8  4  1  0  0  0  0
  8 10  1  0  0  0  0
  9  8  2  0  0  0  0
 10 33  1  0  0  0  0
 11 34  1  6  0  0  0
 11 15  1  0  0  0  0
 11 10  1  0  0  0  0
 12 11  1  0  0  0  0
 12 35  1  0  0  0  0
 13 14  1  0  0  0  0
 13 12  1  0  0  0  0
 14 37  1  6  0  0  0
 14 16  1  0  0  0  0
 14 15  1  0  0  0  0
 15 39  1  0  0  0  0
 16 17  2  0  0  0  0
 18 40  1  0  0  0  0
 18 16  1  0  0  0  0
 19 20  1  0  0  0  0
 19 41  1  1  0  0  0
 19 18  1  0  0  0  0
 20 13  1  0  0  0  0
 21 20  2  0  0  0  0
 22 19  1  0  0  0  0
 23 22  1  0  0  0  0
 23 28  1  0  0  0  0
 24 23  2  0  0  0  0
 25 24  1  0  0  0  0
 25 26  2  0  0  0  0
 26 27  1  0  0  0  0
 27 28  2  0  0  0  0
 27 47  1  0  0  0  0
 28 48  1  0  0  0  0
 30  5  1  0  0  0  0
 31  6  1  0  0  0  0
 36 12  1  0  0  0  0
 38 15  1  0  0  0  0
 42 22  1  0  0  0  0
 43 22  1  0  0  0  0
 44 24  1  0  0  0  0
 45 25  1  0  0  0  0
 46 26  1  0  0  0  0
M  END
>  <Pose>
1

>  <Score>
-6.44

$$$$
