
 OpenBabel03202209553D

 61 64  0  0  1  0  0  0  0  0999 V2000
   22.0370   13.0540   30.0190 B   0  0  0  0  0  0  0  0  0  0  0  0
   23.6080   11.9980   29.7720 C   0  0  0  0  0  0  0  0  0  0  0  0
   23.7730   10.7500   30.2920 C   0  0  0  0  0  0  0  0  0  0  0  0
   24.8940    9.9540   30.1370 C   0  0  0  0  0  0  0  0  0  0  0  0
   25.9440   10.4720   29.3830 C   0  0  0  0  0  0  0  0  0  0  0  0
   25.8100   11.7360   28.8400 C   0  0  0  0  0  0  0  0  0  0  0  0
   24.6750   12.5080   29.0140 C   0  0  0  0  0  0  0  0  0  0  0  0
   24.9110    8.6390   30.7870 C   0  0  1  0  0  0  0  0  0  0  0  0
   23.6250    8.2960   31.2690 N   0  0  0  0  0  0  0  0  0  0  0  0
   23.1290    7.1770   30.5510 C   0  0  0  0  0  0  0  0  0  0  0  0
   21.9650    6.6860   30.6820 O   0  0  0  0  0  0  0  0  0  0  0  0
   24.1690    6.7010   29.6650 C   0  0  0  0  0  0  0  0  0  0  0  0
   23.9900    5.7110   28.9050 O   0  0  0  0  0  0  0  0  0  0  0  0
   25.3230    7.5590   29.8540 C   0  0  0  0  0  0  0  0  0  0  0  0
   26.4770    7.4010   29.2460 C   0  0  0  0  0  0  0  0  0  0  0  0
   27.4770    8.3220   29.4570 O   0  0  0  0  0  0  0  0  0  0  0  0
   26.7150    6.2790   28.3730 C   0  0  0  0  0  0  0  0  0  0  0  0
   26.9000    4.9590   28.8220 C   0  0  0  0  0  0  0  0  0  0  0  0
   27.0600    4.1550   27.7640 N   0  0  0  0  0  0  0  0  0  0  0  0
   26.9830    4.9130   26.6860 N   0  0  0  0  0  0  0  0  0  0  0  0
   26.7740    6.1980   27.0090 C   0  0  0  0  0  0  0  0  0  0  0  0
   27.2600    2.7490   27.7750 C   0  0  0  0  0  0  0  0  0  0  0  0
   26.2070    1.9270   28.1550 C   0  0  0  0  0  0  0  0  0  0  0  0
   26.3280    0.5520   28.1780 C   0  0  0  0  0  0  0  0  0  0  0  0
   27.5230   -0.0710   27.8170 C   0  0  0  0  0  0  0  0  0  0  0  0
   28.5720    0.7480   27.4390 C   0  0  0  0  0  0  0  0  0  0  0  0
   28.4270    2.1110   27.4240 C   0  0  0  0  0  0  0  0  0  0  0  0
   26.9070    4.5650   30.2610 C   0  0  0  0  0  0  0  0  0  0  0  0
   22.8780    8.9590   32.3740 C   0  0  0  0  0  0  0  0  0  0  0  0
   21.5390    9.4300   31.8670 C   0  0  0  0  0  0  0  0  0  0  0  0
   20.4290    9.2450   32.8530 C   0  0  0  0  0  0  0  0  0  0  0  0
   19.5330    8.1660   32.6000 N   0  0  0  0  0  4  0  0  0  0  0  0
   19.9510    6.8760   33.0400 C   0  0  0  0  0  0  0  0  0  0  0  0
   18.2230    8.4420   33.2110 C   0  0  0  0  0  0  0  0  0  0  0  0
   22.9200   10.3700   30.8880 H   0  0  0  0  0  0  0  0  0  0  0  0
   26.8330    9.8850   29.2430 H   0  0  0  0  0  0  0  0  0  0  0  0
   26.6370   12.1380   28.2480 H   0  0  0  0  0  0  0  0  0  0  0  0
   24.5680   13.5000   28.5900 H   0  0  0  0  0  0  0  0  0  0  0  0
   25.6120    8.6820   31.6600 H   0  0  0  0  0  0  0  0  0  0  0  0
   26.6550    7.0320   26.3140 H   0  0  0  0  0  0  0  0  0  0  0  0
   25.2720    2.4420   28.4340 H   0  0  0  0  0  0  0  0  0  0  0  0
   25.4860   -0.0620   28.4760 H   0  0  0  0  0  0  0  0  0  0  0  0
   27.5920   -1.1610   27.8470 H   0  0  0  0  0  0  0  0  0  0  0  0
   29.5020    0.2470   27.1610 H   0  0  0  0  0  0  0  0  0  0  0  0
   29.2720    2.7120   27.1190 H   0  0  0  0  0  0  0  0  0  0  0  0
   26.1420    5.1470   30.8300 H   0  0  0  0  0  0  0  0  0  0  0  0
   27.9160    4.6420   30.7060 H   0  0  0  0  0  0  0  0  0  0  0  0
   26.5940    3.4970   30.3590 H   0  0  0  0  0  0  0  0  0  0  0  0
   22.8170    8.2830   33.2470 H   0  0  0  0  0  0  0  0  0  0  0  0
   23.4530    9.8920   32.6390 H   0  0  0  0  0  0  0  0  0  0  0  0
   21.6610   10.5530   31.7790 H   0  0  0  0  0  0  0  0  0  0  0  0
   21.3240    9.1030   30.8490 H   0  0  0  0  0  0  0  0  0  0  0  0
   19.7990   10.1860   32.9290 H   0  0  0  0  0  0  0  0  0  0  0  0
   20.8640    9.1250   33.8900 H   0  0  0  0  0  0  0  0  0  0  0  0
   19.3260    8.1140   31.5560 H   0  0  0  0  0  0  0  0  0  0  0  0
   19.1920    6.3910   33.7120 H   0  0  0  0  0  0  0  0  0  0  0  0
   20.9710    6.8080   33.4660 H   0  0  0  0  0  0  0  0  0  0  0  0
   19.9800    6.1940   32.1400 H   0  0  0  0  0  0  0  0  0  0  0  0
   17.4180    8.4580   32.4580 H   0  0  0  0  0  0  0  0  0  0  0  0
   18.2930    9.4460   33.6870 H   0  0  0  0  0  0  0  0  0  0  0  0
   18.0260    7.7180   34.0340 H   0  0  0  0  0  0  0  0  0  0  0  0
  2  1  1  0  0  0  0
  2  3  1  0  0  0  0
  3 35  1  0  0  0  0
  4  3  2  0  0  0  0
  4  8  1  0  0  0  0
  5  4  1  0  0  0  0
  6  7  1  0  0  0  0
  6  5  2  0  0  0  0
  7  2  2  0  0  0  0
  8  9  1  0  0  0  0
  8 39  1  1  0  0  0
  9 29  1  0  0  0  0
 10 11  2  0  0  0  0
 10  9  1  0  0  0  0
 12 14  1  0  0  0  0
 12 10  1  0  0  0  0
 13 12  2  0  0  0  0
 14  8  1  0  0  0  0
 15 16  1  0  0  0  0
 15 14  2  0  0  0  0
 17 18  2  0  0  0  0
 17 15  1  0  0  0  0
 18 28  1  0  0  0  0
 19 22  1  0  0  0  0
 19 18  1  0  0  0  0
 20 21  2  0  0  0  0
 20 19  1  0  0  0  0
 21 17  1  0  0  0  0
 22 23  1  0  0  0  0
 23 24  2  0  0  0  0
 23 41  1  0  0  0  0
 24 42  1  0  0  0  0
 25 43  1  0  0  0  0
 25 24  1  0  0  0  0
 26 25  2  0  0  0  0
 27 26  1  0  0  0  0
 27 22  2  0  0  0  0
 28 48  1  0  0  0  0
 28 47  1  0  0  0  0
 28 46  1  0  0  0  0
 29 50  1  0  0  0  0
 29 49  1  0  0  0  0
 30 29  1  0  0  0  0
 30 31  1  0  0  0  0
 31 53  1  0  0  0  0
 31 54  1  0  0  0  0
 32 31  1  0  0  0  0
 32 33  1  0  0  0  0
 32 34  1  0  0  0  0
 33 57  1  0  0  0  0
 33 56  1  0  0  0  0
 34 60  1  0  0  0  0
 34 61  1  0  0  0  0
 36  5  1  0  0  0  0
 37  6  1  0  0  0  0
 38  7  1  0  0  0  0
 40 21  1  0  0  0  0
 44 26  1  0  0  0  0
 45 27  1  0  0  0  0
 51 30  1  0  0  0  0
 52 30  1  0  0  0  0
 55 32  1  0  0  0  0
 58 33  1  0  0  0  0
 59 34  1  0  0  0  0
M  END
>  <Pose>
1

>  <Score>
-6.49

$$$$
