
 OpenBabel03202209553D

 39 42  0  0  1  0  0  0  0  0999 V2000
   23.4000   13.4650   29.1530 B   0  0  0  0  0  0  0  0  0  0  0  0
   23.1580   11.7360   29.9610 C   0  0  0  0  0  0  0  0  0  0  0  0
   22.3760   10.7810   29.3650 C   0  0  0  0  0  0  0  0  0  0  0  0
   22.2210    9.5280   29.9830 C   0  0  0  0  0  0  0  0  0  0  0  0
   22.8370    9.2460   31.1660 C   0  0  0  0  0  0  0  0  0  0  0  0
   23.6180   10.2090   31.7540 C   0  0  0  0  0  0  0  0  0  0  0  0
   23.7800   11.4660   31.1450 C   0  0  0  0  0  0  0  0  0  0  0  0
   22.7000    7.9530   31.8300 C   0  0  1  0  0  0  0  0  0  0  0  0
   21.3480    7.5440   32.1390 C   0  0  0  0  0  0  0  0  0  0  0  0
   20.8990    6.2900   31.8320 C   0  0  0  0  0  0  0  0  0  0  0  0
   21.7410    5.3090   31.2140 N   0  0  0  0  0  0  0  0  0  0  0  0
   23.0750    5.7200   30.9410 C   0  0  0  0  0  0  0  0  0  0  0  0
   23.5280    6.9090   31.2270 C   0  0  0  0  0  0  0  0  0  0  0  0
   24.9700    6.9800   30.8370 C   0  0  0  0  0  0  0  0  0  0  0  0
   25.6770    8.0200   30.9980 O   0  0  0  0  0  0  0  0  0  0  0  0
   25.2780    5.7630   30.3230 O   0  0  0  0  0  0  0  0  0  0  0  0
   24.1850    4.9100   30.2960 C   0  0  0  0  0  0  0  0  0  0  0  0
   19.6050    5.9450   32.1310 N   0  0  0  0  0  0  0  0  0  0  0  0
   18.7840    6.8220   32.7180 C   0  0  0  0  0  0  0  0  0  0  0  0
   17.5970    6.4820   32.9840 O   0  0  0  0  0  0  0  0  0  0  0  0
   19.2350    8.0520   33.0160 N   0  0  0  0  0  0  0  0  0  0  0  0
   20.4730    8.4660   32.7600 C   0  0  0  0  0  0  0  0  0  0  0  0
   20.9030    9.6130   33.0360 O   0  0  0  0  0  0  0  0  0  0  0  0
   18.3000    8.9780   33.6580 C   0  0  0  0  0  0  0  0  0  0  0  0
   19.1880    4.5960   31.7780 C   0  0  0  0  0  0  0  0  0  0  0  0
   21.8980   11.0200   28.4330 H   0  0  0  0  0  0  0  0  0  0  0  0
   21.5830    8.8340   29.4480 H   0  0  0  0  0  0  0  0  0  0  0  0
   24.1520   10.0970   32.6880 H   0  0  0  0  0  0  0  0  0  0  0  0
   24.3920   12.2370   31.5950 H   0  0  0  0  0  0  0  0  0  0  0  0
   23.1910    8.1160   32.8640 H   0  0  0  0  0  0  0  0  0  0  0  0
   21.3620    4.3710   30.9960 H   0  0  0  0  0  0  0  0  0  0  0  0
   24.3340    3.9650   30.8540 H   0  0  0  0  0  0  0  0  0  0  0  0
   23.9380    4.6890   29.2360 H   0  0  0  0  0  0  0  0  0  0  0  0
   18.8480    9.7710   34.2040 H   0  0  0  0  0  0  0  0  0  0  0  0
   17.6720    8.4410   34.3750 H   0  0  0  0  0  0  0  0  0  0  0  0
   17.6540    9.3710   32.8490 H   0  0  0  0  0  0  0  0  0  0  0  0
   18.1880    4.3760   32.1760 H   0  0  0  0  0  0  0  0  0  0  0  0
   19.2810    4.4620   30.6960 H   0  0  0  0  0  0  0  0  0  0  0  0
   19.8890    3.9000   32.3250 H   0  0  0  0  0  0  0  0  0  0  0  0
  1  2  1  0  0  0  0
  2  7  1  0  0  0  0
  3  2  2  0  0  0  0
  3  4  1  0  0  0  0
  4  5  2  0  0  0  0
  5  6  1  0  0  0  0
  5  8  1  0  0  0  0
  6 28  1  0  0  0  0
  7 29  1  0  0  0  0
  7  6  2  0  0  0  0
  8  9  1  0  0  0  0
  8 30  1  1  0  0  0
  9 22  1  0  0  0  0
 10 18  1  0  0  0  0
 10  9  2  0  0  0  0
 11 10  1  0  0  0  0
 12 11  1  0  0  0  0
 12 13  2  0  0  0  0
 13  8  1  0  0  0  0
 14 15  2  0  0  0  0
 14 13  1  0  0  0  0
 16 14  1  0  0  0  0
 17 16  1  0  0  0  0
 17 32  1  0  0  0  0
 17 12  1  0  0  0  0
 18 19  1  0  0  0  0
 19 20  2  0  0  0  0
 19 21  1  0  0  0  0
 21 24  1  0  0  0  0
 22 21  1  0  0  0  0
 22 23  2  0  0  0  0
 24 34  1  0  0  0  0
 24 35  1  0  0  0  0
 25 18  1  0  0  0  0
 25 37  1  0  0  0  0
 25 39  1  0  0  0  0
 26  3  1  0  0  0  0
 27  4  1  0  0  0  0
 31 11  1  0  0  0  0
 33 17  1  0  0  0  0
 36 24  1  0  0  0  0
 38 25  1  0  0  0  0
M  END
>  <Pose>
1

>  <Score>
-6.01

$$$$
