
 OpenBabel03202209553D

 51 53  0  0  0  0  0  0  0  0999 V2000
   25.3210    3.1900   31.2360 B   0  0  0  0  0  0  0  0  0  0  0  0
   25.5030    4.8720   30.3510 C   0  0  0  0  0  0  0  0  0  0  0  0
   26.2410    4.9210   29.1850 C   0  0  0  0  0  0  0  0  0  0  0  0
   26.3660    6.1330   28.5550 C   0  0  0  0  0  0  0  0  0  0  0  0
   25.7730    7.2710   29.0700 C   0  0  0  0  0  0  0  0  0  0  0  0
   25.0460    7.2270   30.2180 C   0  0  0  0  0  0  0  0  0  0  0  0
   24.9150    6.0130   30.8570 C   0  0  0  0  0  0  0  0  0  0  0  0
   24.4140    8.4370   30.7660 C   0  0  0  0  0  0  0  0  0  0  0  0
   23.6190    8.3820   31.7630 N   0  0  0  0  0  0  0  0  0  0  0  0
   23.0030    9.5620   32.2990 N   0  0  0  0  0  0  0  0  0  0  0  0
   21.7480    9.9190   31.7560 C   0  0  0  0  0  0  0  0  0  0  0  0
   21.6480    9.7000   30.4890 O   0  0  0  0  0  0  0  0  0  0  0  0
   20.6140   10.4860   32.4750 C   0  0  0  0  0  0  0  0  0  0  0  0
   19.6880    9.6670   33.0700 N   0  0  0  0  0  0  0  0  0  0  0  0
   18.8080   10.4740   33.6260 N   0  0  0  0  0  0  0  0  0  0  0  0
   19.1030   11.7170   33.4290 N   0  0  0  0  0  0  0  0  0  0  0  0
   20.2510   11.7870   32.6980 C   0  0  0  0  0  0  0  0  0  0  0  0
   20.9660   12.9800   32.2470 C   0  0  0  0  0  0  0  0  0  0  0  0
   20.4880   13.5180   30.9830 N   0  0  0  0  0  0  0  0  0  0  0  0
   19.2960   14.3280   31.2010 C   0  0  0  0  0  0  0  0  0  0  0  0
   19.6370   15.7740   31.4270 C   0  0  0  0  0  0  0  0  0  0  0  0
   20.9280   15.9870   31.8740 O   0  0  0  0  0  0  0  0  0  0  0  0
   21.9160   15.5060   31.0280 C   0  0  0  0  0  0  0  0  0  0  0  0
   21.4870   14.2780   30.2730 C   0  0  0  0  0  0  0  0  0  0  0  0
   19.6820    8.2550   33.0820 C   0  0  0  0  0  0  0  0  0  0  0  0
   20.7170    7.3840   32.9870 N   0  0  0  0  0  0  0  0  0  0  0  0
   20.2610    6.1840   33.0420 O   0  0  0  0  0  0  0  0  0  0  0  0
   18.9730    6.1520   33.1720 N   0  0  0  0  0  0  0  0  0  0  0  0
   18.5640    7.4490   33.2010 C   0  0  0  0  0  0  0  0  0  0  0  0
   17.2130    7.8580   33.3330 N   0  0  0  0  0  0  0  0  0  0  0  0
   27.3930    6.2080   26.9310 B   0  0  0  0  0  0  0  0  0  0  0  0
   26.8510    3.8010   28.6390 O   0  0  0  0  0  0  0  0  0  0  0  0
   25.3270   11.7290   28.4000 Cl  0  0  0  0  0  0  0  0  0  0  0  0
   25.8870    8.2190   28.5540 H   0  0  0  0  0  0  0  0  0  0  0  0
   24.3370    5.9830   31.7650 H   0  0  0  0  0  0  0  0  0  0  0  0
   24.6240    9.3780   30.3240 H   0  0  0  0  0  0  0  0  0  0  0  0
   23.5160   10.0760   33.0490 H   0  0  0  0  0  0  0  0  0  0  0  0
   20.8940   13.8330   32.9530 H   0  0  0  0  0  0  0  0  0  0  0  0
   22.0480   12.7950   32.0680 H   0  0  0  0  0  0  0  0  0  0  0  0
   18.6740   14.2510   30.2920 H   0  0  0  0  0  0  0  0  0  0  0  0
   18.7370   13.8560   32.0300 H   0  0  0  0  0  0  0  0  0  0  0  0
   18.9590   16.1470   32.2230 H   0  0  0  0  0  0  0  0  0  0  0  0
   19.4110   16.4040   30.5300 H   0  0  0  0  0  0  0  0  0  0  0  0
   22.7800   15.2080   31.6710 H   0  0  0  0  0  0  0  0  0  0  0  0
   22.2680   16.3240   30.3850 H   0  0  0  0  0  0  0  0  0  0  0  0
   22.2880   13.6570   29.8800 H   0  0  0  0  0  0  0  0  0  0  0  0
   20.9460   14.6700   29.3570 H   0  0  0  0  0  0  0  0  0  0  0  0
   16.5720    7.2530   33.8790 H   0  0  0  0  0  0  0  0  0  0  0  0
   16.8280    8.7270   32.9180 H   0  0  0  0  0  0  0  0  0  0  0  0
   26.4300    3.2370   27.9220 H   0  0  0  0  0  0  0  0  0  0  0  0
   25.4960   10.4940   27.8160 H   0  0  0  0  0  0  0  0  0  0  0  0
  2  7  1  0  0  0  0
  2  1  1  0  0  0  0
  3  2  2  0  0  0  0
  4  5  2  0  0  0  0
  4  3  1  0  0  0  0
  5  6  1  0  0  0  0
  6  8  1  0  0  0  0
  6  7  2  0  0  0  0
  7 35  1  0  0  0  0
  8  9  2  0  0  0  0
  9 10  1  0  0  0  0
 10 37  1  0  0  0  0
 11 10  1  0  0  0  0
 11 13  1  0  0  0  0
 12 11  2  0  0  0  0
 13 17  2  0  0  0  0
 13 14  1  0  0  0  0
 14 25  1  0  0  0  0
 14 15  1  0  0  0  0
 16 15  2  0  0  0  0
 17 16  1  0  0  0  0
 18 17  1  0  0  0  0
 18 38  1  0  0  0  0
 19 20  1  0  0  0  0
 19 18  1  0  0  0  0
 20 21  1  0  0  0  0
 20 41  1  0  0  0  0
 21 22  1  0  0  0  0
 21 42  1  0  0  0  0
 23 44  1  0  0  0  0
 23 22  1  0  0  0  0
 24 19  1  0  0  0  0
 24 23  1  0  0  0  0
 25 29  1  0  0  0  0
 26 27  1  0  0  0  0
 26 25  2  0  0  0  0
 27 28  1  0  0  0  0
 28 29  2  0  0  0  0
 29 30  1  0  0  0  0
 30 48  1  0  0  0  0
 31  4  1  0  0  0  0
 32  3  1  0  0  0  0
 34  5  1  0  0  0  0
 36  8  1  0  0  0  0
 39 18  1  0  0  0  0
 40 20  1  0  0  0  0
 43 21  1  0  0  0  0
 45 23  1  0  0  0  0
 46 24  1  0  0  0  0
 47 24  1  0  0  0  0
 49 30  1  0  0  0  0
 50 32  1  0  0  0  0
 51 33  1  0  0  0  0
M  END
>  <Pose>
1

>  <Score>
-9.41

$$$$
