
 OpenBabel03202209553D

 47 50  0  0  0  0  0  0  0  0999 V2000
   26.5770   14.1860   27.1900 B   0  0  0  0  0  0  0  0  0  0  0  0
   24.9850   14.9650   27.8390 C   0  0  0  0  0  0  0  0  0  0  0  0
   24.2330   14.3010   28.7780 C   0  0  0  0  0  0  0  0  0  0  0  0
   23.1180   14.8180   29.2960 C   0  0  0  0  0  0  0  0  0  0  0  0
   22.6650   16.1100   28.8850 C   0  0  0  0  0  0  0  0  0  0  0  0
   23.4000   16.8010   27.9820 C   0  0  0  0  0  0  0  0  0  0  0  0
   24.5650   16.2400   27.4480 C   0  0  0  0  0  0  0  0  0  0  0  0
   24.9030   13.0790   29.4560 C   0  0  0  0  0  0  0  0  0  0  0  0
   24.1960   12.7030   30.4060 N   0  0  0  0  0  0  0  0  0  0  0  0
   23.8470   11.9810   31.4190 N   0  0  0  0  0  0  0  0  0  0  0  0
   22.4980   11.3630   30.9880 C   0  0  0  0  0  0  0  0  0  0  0  0
   22.2700   11.5060   29.7920 O   0  0  0  0  0  0  0  0  0  0  0  0
   21.6450   10.7270   31.9060 C   0  0  0  0  0  0  0  0  0  0  0  0
   20.8480   11.2030   32.8140 N   0  0  0  0  0  0  0  0  0  0  0  0
   20.0590   10.2730   33.2270 N   0  0  0  0  0  0  0  0  0  0  0  0
   20.2950    9.0630   32.5880 N   0  0  0  0  0  0  0  0  0  0  0  0
   21.2830    9.3090   31.7580 C   0  0  0  0  0  0  0  0  0  0  0  0
   22.1740    8.5320   30.9000 C   0  0  0  0  0  0  0  0  0  0  0  0
   23.1570    7.6740   31.1940 N   0  0  0  0  0  0  0  0  0  0  0  0
   22.7690    6.3200   30.8260 C   0  0  0  0  0  0  0  0  0  0  0  0
   23.9310    5.7160   30.0940 C   0  0  0  0  0  0  0  0  0  0  0  0
   24.9840    6.8160   30.0130 C   0  0  0  0  0  0  0  0  0  0  0  0
   24.5220    7.7410   31.1660 C   0  0  0  0  0  0  0  0  0  0  0  0
   19.4580    7.9970   32.9150 C   0  0  0  0  0  0  0  0  0  0  0  0
   19.8860    6.6740   32.8050 N   0  0  0  0  0  0  0  0  0  0  0  0
   18.8970    5.9110   33.0540 O   0  0  0  0  0  0  0  0  0  0  0  0
   17.8450    6.5730   33.3260 N   0  0  0  0  0  0  0  0  0  0  0  0
   18.1700    7.8940   33.2440 C   0  0  0  0  0  0  0  0  0  0  0  0
   17.1780    8.9000   33.4800 N   0  0  0  0  0  0  0  0  0  0  0  0
   22.5180   14.2430   29.9770 H   0  0  0  0  0  0  0  0  0  0  0  0
   21.7700   16.5150   29.2470 H   0  0  0  0  0  0  0  0  0  0  0  0
   23.1210   17.8350   27.6510 H   0  0  0  0  0  0  0  0  0  0  0  0
   25.1560   16.8520   26.7660 H   0  0  0  0  0  0  0  0  0  0  0  0
   25.7810   12.7200   29.1480 H   0  0  0  0  0  0  0  0  0  0  0  0
   24.1390   11.7320   32.3600 H   0  0  0  0  0  0  0  0  0  0  0  0
   21.8270    8.4390   29.8100 H   0  0  0  0  0  0  0  0  0  0  0  0
   22.9640    9.5080   30.5290 H   0  0  0  0  0  0  0  0  0  0  0  0
   21.8240    6.3210   30.2850 H   0  0  0  0  0  0  0  0  0  0  0  0
   22.5480    5.6920   31.7490 H   0  0  0  0  0  0  0  0  0  0  0  0
   24.3080    4.8020   30.5800 H   0  0  0  0  0  0  0  0  0  0  0  0
   23.5980    5.3880   29.0650 H   0  0  0  0  0  0  0  0  0  0  0  0
   25.9600    6.4010   30.2010 H   0  0  0  0  0  0  0  0  0  0  0  0
   24.8270    7.4070   29.1160 H   0  0  0  0  0  0  0  0  0  0  0  0
   24.9380    7.1960   32.0850 H   0  0  0  0  0  0  0  0  0  0  0  0
   25.0100    8.7190   31.0660 H   0  0  0  0  0  0  0  0  0  0  0  0
   17.3120    9.5080   34.3000 H   0  0  0  0  0  0  0  0  0  0  0  0
   16.3470    8.9620   32.8940 H   0  0  0  0  0  0  0  0  0  0  0  0
  1  2  1  0  0  0  0
  2  3  1  0  0  0  0
  3  4  2  0  0  0  0
  3  8  1  0  0  0  0
  4 30  1  0  0  0  0
  5 31  1  0  0  0  0
  5  4  1  0  0  0  0
  6  5  2  0  0  0  0
  7  2  2  0  0  0  0
  7  6  1  0  0  0  0
  8  9  1  0  0  0  0
  9 10  1  0  0  0  0
 10 35  1  0  0  0  0
 11 10  1  0  0  0  0
 11 13  1  0  0  0  0
 12 11  2  0  0  0  0
 13 14  1  0  0  0  0
 14 15  2  0  0  0  0
 16 24  1  0  0  0  0
 16 15  1  0  0  0  0
 17 13  2  0  0  0  0
 17 16  1  0  0  0  0
 18 19  1  0  0  0  0
 18 17  1  0  0  0  0
 20 19  1  0  0  0  0
 20 39  1  0  0  0  0
 21 40  1  0  0  0  0
 21 20  1  0  0  0  0
 22 21  1  0  0  0  0
 22 42  1  0  0  0  0
 22 23  1  0  0  0  0
 23 19  1  0  0  0  0
 23 44  1  0  0  0  0
 24 28  1  0  0  0  0
 25 24  2  0  0  0  0
 25 26  1  0  0  0  0
 26 27  1  0  0  0  0
 28 27  2  0  0  0  0
 28 29  1  0  0  0  0
 29 46  1  0  0  0  0
 32  6  1  0  0  0  0
 33  7  1  0  0  0  0
 34  8  1  0  0  0  0
 36 18  1  0  0  0  0
 37 18  1  0  0  0  0
 38 20  1  0  0  0  0
 41 21  1  0  0  0  0
 43 22  1  0  0  0  0
 45 23  1  0  0  0  0
 47 29  1  0  0  0  0
M  END
>  <Pose>
1

>  <Score>
-7.87

$$$$
