
 OpenBabel03202209553D

 48 51  0  0  0  0  0  0  0  0999 V2000
   25.5410    2.5110   31.4730 B   0  0  0  0  0  0  0  0  0  0  0  0
   24.4120    3.9830   31.0130 C   0  0  0  0  0  0  0  0  0  0  0  0
   23.1730    4.1400   31.6270 C   0  0  0  0  0  0  0  0  0  0  0  0
   22.3620    5.2040   31.3010 C   0  0  0  0  0  0  0  0  0  0  0  0
   22.7670    6.1230   30.3650 C   0  0  0  0  0  0  0  0  0  0  0  0
   23.9950    5.9540   29.7690 C   0  0  0  0  0  0  0  0  0  0  0  0
   24.8330    4.9030   30.0660 C   0  0  0  0  0  0  0  0  0  0  0  0
   21.0750    5.3870   31.9420 C   0  0  0  0  0  0  0  0  0  0  0  0
   20.6470    6.6010   32.2930 C   0  0  0  0  0  0  0  0  0  0  0  0
   21.3140    7.8120   32.1170 O   0  0  0  0  0  0  0  0  0  0  0  0
   20.5630    8.8520   32.5930 C   0  0  0  0  0  0  0  0  0  0  0  0
   19.3600    8.3810   33.1090 C   0  0  0  0  0  0  0  0  0  0  0  0
   18.4660    9.3010   33.6320 C   0  0  0  0  0  0  0  0  0  0  0  0
   18.7730   10.6430   33.6320 C   0  0  0  0  0  0  0  0  0  0  0  0
   19.9910   11.0790   33.1050 C   0  0  0  0  0  0  0  0  0  0  0  0
   20.8940   10.1910   32.5840 C   0  0  0  0  0  0  0  0  0  0  0  0
   22.1890   10.6900   32.1180 C   0  0  0  0  0  0  0  0  0  0  0  0
   22.2360   11.1790   30.7880 N   0  0  0  0  0  4  0  0  0  0  0  0
   23.5080   10.7880   30.2030 C   0  0  0  0  0  0  0  0  0  0  0  0
   24.1400   11.8070   29.3190 C   0  0  0  0  0  0  0  0  0  0  0  0
   24.2220   13.1180   29.8610 N   0  0  0  0  0  0  0  0  0  0  0  0
   23.3890   13.2750   31.0070 C   0  0  0  0  0  0  0  0  0  0  0  0
   22.0730   12.6130   30.7730 C   0  0  0  0  0  0  0  0  0  0  0  0
   23.9300   14.0940   28.8320 C   0  0  0  0  0  0  0  0  0  0  0  0
   20.2060   12.4480   33.1520 O   0  0  0  0  0  0  0  0  0  0  0  0
   19.3730    6.9180   32.9340 C   0  0  0  0  0  0  0  0  0  0  0  0
   18.4470    6.1450   33.2910 O   0  0  0  0  0  0  0  0  0  0  0  0
   22.8840    3.3870   32.3620 H   0  0  0  0  0  0  0  0  0  0  0  0
   22.1240    6.9550   30.1070 H   0  0  0  0  0  0  0  0  0  0  0  0
   24.3010    6.7100   29.0320 H   0  0  0  0  0  0  0  0  0  0  0  0
   25.8070    4.8130   29.5740 H   0  0  0  0  0  0  0  0  0  0  0  0
   20.4510    4.5380   32.1470 H   0  0  0  0  0  0  0  0  0  0  0  0
   17.5420    8.8990   34.0200 H   0  0  0  0  0  0  0  0  0  0  0  0
   18.0390   11.3080   34.0500 H   0  0  0  0  0  0  0  0  0  0  0  0
   22.4800   11.5440   32.8210 H   0  0  0  0  0  0  0  0  0  0  0  0
   22.9630    9.9290   32.2970 H   0  0  0  0  0  0  0  0  0  0  0  0
   21.4420   10.8100   30.1840 H   0  0  0  0  0  0  0  0  0  0  0  0
   23.4430    9.8540   29.6220 H   0  0  0  0  0  0  0  0  0  0  0  0
   24.2540   10.5350   31.0140 H   0  0  0  0  0  0  0  0  0  0  0  0
   25.2060   11.4500   29.1410 H   0  0  0  0  0  0  0  0  0  0  0  0
   23.7170   11.8120   28.2640 H   0  0  0  0  0  0  0  0  0  0  0  0
   23.8850   12.7420   31.8740 H   0  0  0  0  0  0  0  0  0  0  0  0
   23.2600   14.3430   31.3200 H   0  0  0  0  0  0  0  0  0  0  0  0
   21.6110   12.9540   29.7960 H   0  0  0  0  0  0  0  0  0  0  0  0
   21.3730   12.9440   31.5810 H   0  0  0  0  0  0  0  0  0  0  0  0
   23.1830   13.7320   28.0820 H   0  0  0  0  0  0  0  0  0  0  0  0
   23.5900   15.0770   29.2210 H   0  0  0  0  0  0  0  0  0  0  0  0
   24.8720   14.2220   28.2240 H   0  0  0  0  0  0  0  0  0  0  0  0
  2  1  1  0  0  0  0
  2  3  1  0  0  0  0
  3 28  1  0  0  0  0
  4  3  2  0  0  0  0
  4  8  1  0  0  0  0
  5  4  1  0  0  0  0
  6  7  1  0  0  0  0
  6  5  2  0  0  0  0
  7  2  2  0  0  0  0
  8 32  1  0  0  0  0
  8  9  2  0  0  0  0
  9 26  1  0  0  0  0
 10  9  1  0  0  0  0
 10 11  1  0  0  0  0
 11 12  1  0  0  0  0
 12 13  2  0  0  0  0
 13 14  1  0  0  0  0
 13 33  1  0  0  0  0
 14 34  1  0  0  0  0
 15 25  1  0  0  0  0
 15 14  2  0  0  0  0
 16 11  2  0  0  0  0
 16 15  1  0  0  0  0
 17 36  1  0  0  0  0
 17 16  1  0  0  0  0
 17 35  1  0  0  0  0
 18 17  1  0  0  0  0
 19 18  1  0  0  0  0
 19 39  1  0  0  0  0
 20 21  1  0  0  0  0
 20 19  1  0  0  0  0
 21 22  1  0  0  0  0
 22 43  1  0  0  0  0
 22 42  1  0  0  0  0
 23 18  1  0  0  0  0
 23 22  1  0  0  0  0
 23 45  1  0  0  0  0
 24 47  1  0  0  0  0
 24 21  1  0  0  0  0
 26 12  1  0  0  0  0
 26 27  2  0  0  0  0
 29  5  1  0  0  0  0
 30  6  1  0  0  0  0
 31  7  1  0  0  0  0
 37 18  1  0  0  0  0
 38 19  1  0  0  0  0
 40 20  1  0  0  0  0
 41 20  1  0  0  0  0
 44 23  1  0  0  0  0
 46 24  1  0  0  0  0
 48 24  1  0  0  0  0
M  END
>  <Pose>
1

>  <Score>
-7.07

$$$$
