
 OpenBabel03202209553D

 50 53  0  0  1  0  0  0  0  0999 V2000
   22.8840   14.0910   31.4960 Cl  0  0  0  0  0  0  0  0  0  0  0  0
   23.2340   12.3850   31.2520 C   0  0  0  0  0  0  0  0  0  0  0  0
   22.3840   11.5710   30.5350 C   0  0  0  0  0  0  0  0  0  0  0  0
   22.6650   10.2300   30.3480 C   0  0  0  0  0  0  0  0  0  0  0  0
   23.8010    9.6390   30.8640 C   0  0  0  0  0  0  0  0  0  0  0  0
   24.6550   10.4510   31.5810 C   0  0  0  0  0  0  0  0  0  0  0  0
   24.3740   11.8090   31.7730 C   0  0  0  0  0  0  0  0  0  0  0  0
   24.0730    8.2190   30.6480 C   0  0  0  0  0  0  0  0  0  0  0  0
   23.2740    7.1430   30.8390 N   0  0  0  0  0  0  0  0  0  0  0  0
   23.9610    6.0320   30.5030 C   0  0  2  0  0  0  0  0  0  0  0  0
   25.2050    6.3570   30.0910 N   0  0  0  0  0  0  0  0  0  0  0  0
   25.2650    7.7050   30.1850 C   0  0  0  0  0  0  0  0  0  0  0  0
   26.2650    5.4770   29.6440 C   0  0  0  0  0  0  0  0  0  0  0  0
   26.1600    5.2630   28.1720 C   0  0  0  0  0  0  0  0  0  0  0  0
   25.0340    5.1460   27.6850 O   0  0  0  0  0  0  0  0  0  0  0  0
   27.3440    5.2090   27.4340 N   0  0  0  0  0  0  0  0  0  0  0  0
   27.8550    6.2740   26.6460 C   0  0  0  0  0  0  0  0  0  0  0  0
   28.0660    6.0600   25.2780 C   0  0  0  0  0  0  0  0  0  0  0  0
   28.5720    7.0500   24.4990 C   0  0  0  0  0  0  0  0  0  0  0  0
   28.8910    8.2900   25.0270 C   0  0  0  0  0  0  0  0  0  0  0  0
   28.6830    8.4880   26.3630 C   0  0  0  0  0  0  0  0  0  0  0  0
   28.1630    7.4870   27.1920 C   0  0  0  0  0  0  0  0  0  0  0  0
   29.4420    9.3570   24.1550 C   0  0  0  0  0  0  0  0  0  0  0  0
   28.4270   10.5030   24.1060 C   0  0  0  0  0  0  0  0  0  0  0  0
   23.1060    4.8340   30.7040 C   0  0  0  0  0  0  0  0  0  0  0  0
   21.7690    5.3420   31.1210 C   0  0  0  0  0  0  0  0  0  0  0  0
   21.9380    6.8080   31.2790 C   0  0  0  0  0  0  0  0  0  0  0  0
   21.4930   12.0270   30.1290 H   0  0  0  0  0  0  0  0  0  0  0  0
   21.9780    9.6090   29.7780 H   0  0  0  0  0  0  0  0  0  0  0  0
   25.5580   10.0390   32.0050 H   0  0  0  0  0  0  0  0  0  0  0  0
   25.0380   12.4430   32.3320 H   0  0  0  0  0  0  0  0  0  0  0  0
   26.1530    8.3020   29.9240 H   0  0  0  0  0  0  0  0  0  0  0  0
   26.2310    4.5180   30.2010 H   0  0  0  0  0  0  0  0  0  0  0  0
   27.2230    5.9680   29.9270 H   0  0  0  0  0  0  0  0  0  0  0  0
   27.9540    4.3250   27.4300 H   0  0  0  0  0  0  0  0  0  0  0  0
   27.8150    5.0800   24.8450 H   0  0  0  0  0  0  0  0  0  0  0  0
   28.7380    6.8820   23.4200 H   0  0  0  0  0  0  0  0  0  0  0  0
   28.9160    9.4450   26.8350 H   0  0  0  0  0  0  0  0  0  0  0  0
   28.0380    7.7270   28.2620 H   0  0  0  0  0  0  0  0  0  0  0  0
   29.6330    8.9550   23.1460 H   0  0  0  0  0  0  0  0  0  0  0  0
   30.3830    9.7510   24.5780 H   0  0  0  0  0  0  0  0  0  0  0  0
   28.4100   11.0220   25.0710 H   0  0  0  0  0  0  0  0  0  0  0  0
   27.4590   10.0980   23.7840 H   0  0  0  0  0  0  0  0  0  0  0  0
   28.7520   11.2370   23.3320 H   0  0  0  0  0  0  0  0  0  0  0  0
   23.5610    4.1390   31.4410 H   0  0  0  0  0  0  0  0  0  0  0  0
   22.9850    4.2910   29.7250 H   0  0  0  0  0  0  0  0  0  0  0  0
   20.9850    5.0860   30.3480 H   0  0  0  0  0  0  0  0  0  0  0  0
   21.4460    4.8450   32.0870 H   0  0  0  0  0  0  0  0  0  0  0  0
   21.7740    7.1160   32.3400 H   0  0  0  0  0  0  0  0  0  0  0  0
   21.1990    7.3020   30.5860 H   0  0  0  0  0  0  0  0  0  0  0  0
  2  1  1  0  0  0  0
  2  7  1  0  0  0  0
  3  2  2  0  0  0  0
  4  3  1  0  0  0  0
  4  5  2  0  0  0  0
  5  6  1  0  0  0  0
  6  7  2  0  0  0  0
  6 30  1  0  0  0  0
  7 31  1  0  0  0  0
  8  9  1  0  0  0  0
  8  5  1  0  0  0  0
  9 27  1  0  0  0  0
 10 11  1  6  0  0  0
 10 25  1  0  0  0  0
 10  9  1  0  0  0  0
 11 12  1  0  0  0  0
 12  8  2  0  0  0  0
 13 34  1  0  0  0  0
 13 11  1  0  0  0  0
 13 33  1  0  0  0  0
 14 13  1  0  0  0  0
 15 14  2  0  0  0  0
 16 14  1  0  0  0  0
 17 22  1  0  0  0  0
 17 16  1  0  0  0  0
 18 17  2  0  0  0  0
 19 20  2  0  0  0  0
 19 18  1  0  0  0  0
 20 21  1  0  0  0  0
 21 38  1  0  0  0  0
 21 22  2  0  0  0  0
 22 39  1  0  0  0  0
 23 41  1  0  0  0  0
 23 20  1  0  0  0  0
 24 23  1  0  0  0  0
 24 42  1  0  0  0  0
 25 26  1  0  0  0  0
 25 45  1  0  0  0  0
 26 27  1  0  0  0  0
 26 48  1  0  0  0  0
 27 49  1  0  0  0  0
 28  3  1  0  0  0  0
 29  4  1  0  0  0  0
 32 12  1  0  0  0  0
 35 16  1  0  0  0  0
 36 18  1  0  0  0  0
 37 19  1  0  0  0  0
 40 23  1  0  0  0  0
 43 24  1  0  0  0  0
 44 24  1  0  0  0  0
 46 25  1  0  0  0  0
 47 26  1  0  0  0  0
 50 27  1  0  0  0  0
M  END
>  <Pose>
1

>  <Score>
-6.05

$$$$
