
 OpenBabel03202209553D

 55 58  0  0  1  0  0  0  0  0999 V2000
   24.4250   19.0720   25.0610 Cl  0  0  0  0  0  0  0  0  0  0  0  0
   23.8190   18.1100   26.4190 C   0  0  0  0  0  0  0  0  0  0  0  0
   24.3430   16.8590   26.6420 C   0  0  0  0  0  0  0  0  0  0  0  0
   23.8960   16.0750   27.6940 C   0  0  0  0  0  0  0  0  0  0  0  0
   24.2170   14.8510   28.1370 N   0  0  0  0  0  0  0  0  0  0  0  0
   23.4480   14.5500   29.2420 C   0  0  0  0  0  0  0  0  0  0  0  0
   22.6790   15.6160   29.4350 N   0  0  0  0  0  0  0  0  0  0  0  0
   22.9120   16.5890   28.5070 C   0  0  0  0  0  0  0  0  0  0  0  0
   22.3800   17.8420   28.2910 C   0  0  0  0  0  0  0  0  0  0  0  0
   22.8310   18.6110   27.2450 C   0  0  0  0  0  0  0  0  0  0  0  0
   21.7170   15.8300   30.5010 C   0  0  0  0  0  0  0  0  0  0  0  0
   23.5730   13.3000   30.0330 C   0  0  0  0  0  0  0  0  0  0  0  0
   24.6610   12.3810   29.6690 C   0  0  0  0  0  0  0  0  0  0  0  0
   24.3150   11.1620   28.9290 C   0  0  0  0  0  0  0  0  0  0  0  0
   24.2020   11.1420   27.6820 O   0  0  0  0  0  0  0  0  0  0  0  0
   24.0970    9.9420   29.6680 N   0  0  0  0  0  0  0  0  0  0  0  0
   22.7550    9.5860   30.0420 C   0  0  0  0  0  0  0  0  0  0  0  0
   22.6670    9.6900   31.5500 C   0  0  2  0  0  0  0  0  0  0  0  0
   23.9390    9.3600   32.2450 C   0  0  1  0  0  0  0  0  0  0  0  0
   24.9130    8.5630   31.4580 C   0  0  0  0  0  0  0  0  0  0  0  0
   25.1460    9.0420   30.0620 C   0  0  0  0  0  0  0  0  0  0  0  0
   24.6040   10.4970   32.7320 O   0  0  0  0  0  0  0  0  0  0  0  0
   23.5770    8.5410   33.4910 C   0  0  0  0  0  0  0  0  0  0  0  0
   21.5460    8.8920   31.9840 N   0  0  0  0  0  0  0  0  0  0  0  0
   21.5020    7.5750   31.7030 C   0  0  0  0  0  0  0  0  0  0  0  0
   20.4520    6.7760   32.0960 C   0  0  0  0  0  0  0  0  0  0  0  0
   19.4190    7.3510   32.7990 C   0  0  0  0  0  0  0  0  0  0  0  0
   18.4180    6.6660   33.1920 O   0  0  0  0  0  0  0  0  0  0  0  0
   19.4900    8.6650   33.0640 N   0  0  0  0  0  0  0  0  0  0  0  0
   20.5180    9.4180   32.6720 C   0  0  0  0  0  0  0  0  0  0  0  0
   20.5370   10.6520   32.9480 O   0  0  0  0  0  0  0  0  0  0  0  0
   25.1190   16.4230   26.0210 H   0  0  0  0  0  0  0  0  0  0  0  0
   21.6160   18.1980   28.9510 H   0  0  0  0  0  0  0  0  0  0  0  0
   22.4360   19.6000   27.0460 H   0  0  0  0  0  0  0  0  0  0  0  0
   21.7560   15.0580   31.2770 H   0  0  0  0  0  0  0  0  0  0  0  0
   21.8150   16.8320   30.9650 H   0  0  0  0  0  0  0  0  0  0  0  0
   20.7060   15.8270   30.0150 H   0  0  0  0  0  0  0  0  0  0  0  0
   22.5690   12.8010   30.0370 H   0  0  0  0  0  0  0  0  0  0  0  0
   23.6810   13.6590   31.1040 H   0  0  0  0  0  0  0  0  0  0  0  0
   25.5400   12.9090   29.2030 H   0  0  0  0  0  0  0  0  0  0  0  0
   25.1010   12.0050   30.6540 H   0  0  0  0  0  0  0  0  0  0  0  0
   22.4660    8.5740   29.6850 H   0  0  0  0  0  0  0  0  0  0  0  0
   22.0310   10.2840   29.5730 H   0  0  0  0  0  0  0  0  0  0  0  0
   22.4210   10.7610   31.7760 H   0  0  0  0  0  0  0  0  0  0  0  0
   25.9060    8.6280   31.9910 H   0  0  0  0  0  0  0  0  0  0  0  0
   24.6550    7.4700   31.5110 H   0  0  0  0  0  0  0  0  0  0  0  0
   25.0630    8.1370   29.3920 H   0  0  0  0  0  0  0  0  0  0  0  0
   26.1590    9.4480   29.8920 H   0  0  0  0  0  0  0  0  0  0  0  0
   23.9120   11.2120   32.8900 H   0  0  0  0  0  0  0  0  0  0  0  0
   24.4580    8.6260   34.1730 H   0  0  0  0  0  0  0  0  0  0  0  0
   22.7350    9.0260   34.0350 H   0  0  0  0  0  0  0  0  0  0  0  0
   23.4120    7.4870   33.2600 H   0  0  0  0  0  0  0  0  0  0  0  0
   22.3230    7.1150   31.1430 H   0  0  0  0  0  0  0  0  0  0  0  0
   20.4180    5.7210   31.8700 H   0  0  0  0  0  0  0  0  0  0  0  0
   18.7120    9.1510   33.6050 H   0  0  0  0  0  0  0  0  0  0  0  0
  1  2  1  0  0  0  0
  2  3  2  0  0  0  0
  2 10  1  0  0  0  0
  3  4  1  0  0  0  0
  4  5  1  0  0  0  0
  4  8  2  0  0  0  0
  5  6  2  0  0  0  0
  6  7  1  0  0  0  0
  6 12  1  0  0  0  0
  7 11  1  0  0  0  0
  8  7  1  0  0  0  0
  9  8  1  0  0  0  0
  9 33  1  0  0  0  0
 10  9  2  0  0  0  0
 11 36  1  0  0  0  0
 11 35  1  0  0  0  0
 12 38  1  0  0  0  0
 12 39  1  0  0  0  0
 13 12  1  0  0  0  0
 13 41  1  0  0  0  0
 14 16  1  0  0  0  0
 14 13  1  0  0  0  0
 15 14  2  0  0  0  0
 16 17  1  0  0  0  0
 16 21  1  0  0  0  0
 17 18  1  0  0  0  0
 18 44  1  1  0  0  0
 18 24  1  0  0  0  0
 18 19  1  0  0  0  0
 19 22  1  1  0  0  0
 19 23  1  0  0  0  0
 20 46  1  0  0  0  0
 20 45  1  0  0  0  0
 20 19  1  0  0  0  0
 21 20  1  0  0  0  0
 22 49  1  0  0  0  0
 23 51  1  0  0  0  0
 23 50  1  0  0  0  0
 24 30  1  0  0  0  0
 25 24  1  0  0  0  0
 25 26  2  0  0  0  0
 26 27  1  0  0  0  0
 27 29  1  0  0  0  0
 27 28  2  0  0  0  0
 29 55  1  0  0  0  0
 30 31  2  0  0  0  0
 30 29  1  0  0  0  0
 32  3  1  0  0  0  0
 34 10  1  0  0  0  0
 37 11  1  0  0  0  0
 40 13  1  0  0  0  0
 42 17  1  0  0  0  0
 43 17  1  0  0  0  0
 47 21  1  0  0  0  0
 48 21  1  0  0  0  0
 52 23  1  0  0  0  0
 53 25  1  0  0  0  0
 54 26  1  0  0  0  0
M  END
>  <Pose>
1

>  <Score>
-7.33

$$$$
