
 OpenBabel03202209553D

 56 59  0  0  1  0  0  0  0  0999 V2000
   25.0520    5.5140   30.0490 B   0  0  0  0  0  0  0  0  0  0  0  0
   24.6750    7.3690   30.1660 C   0  0  0  0  0  0  0  0  0  0  0  0
   25.6000    8.2960   29.6760 C   0  0  0  0  0  0  0  0  0  0  0  0
   25.3550    9.6460   29.7330 C   0  0  0  0  0  0  0  0  0  0  0  0
   24.1680   10.0540   30.2910 C   0  0  0  0  0  0  0  0  0  0  0  0
   23.2280    9.1520   30.7880 C   0  0  0  0  0  0  0  0  0  0  0  0
   23.4890    7.7810   30.7200 C   0  0  0  0  0  0  0  0  0  0  0  0
   22.4910    6.8080   31.2420 C   0  0  0  0  0  0  0  0  0  0  0  0
   21.9660    9.6450   31.4020 C   0  0  0  0  0  0  0  0  0  0  0  0
   26.2650   10.7010   29.2010 C   0  0  2  0  0  0  0  0  0  0  0  0
   27.6130   10.2050   28.7780 C   0  0  2  0  0  0  0  0  0  0  0  0
   27.8770    8.8720   29.4550 C   0  0  0  0  0  0  0  0  0  0  0  0
   26.8180    7.9420   29.1110 O   0  0  0  0  0  0  0  0  0  0  0  0
   28.5760   11.1570   29.2880 N   0  0  0  0  0  0  0  0  0  0  0  0
   28.7510   12.2980   28.4530 C   0  0  0  0  0  0  0  0  0  0  0  0
   29.9910   13.1060   28.7120 C   0  0  0  0  0  0  0  0  0  0  0  0
   31.1020   12.3820   29.0480 O   0  0  0  0  0  0  0  0  0  0  0  0
   30.7930   11.6240   30.1860 C   0  0  0  0  0  0  0  0  0  0  0  0
   29.8190   10.5420   29.6490 C   0  0  0  0  0  0  0  0  0  0  0  0
   27.7810    9.9280   27.3320 C   0  0  0  0  0  0  0  0  0  0  0  0
   28.5370    8.8780   26.8230 N   0  0  0  0  0  0  0  0  0  0  0  0
   28.1930    8.6710   25.3750 C   0  0  0  0  0  0  0  0  0  0  0  0
   28.3750    9.9210   24.5960 C   0  0  0  0  0  0  0  0  0  0  0  0
   29.3690   10.7460   25.0490 O   0  0  0  0  0  0  0  0  0  0  0  0
   30.3670   10.1480   25.7610 C   0  0  0  0  0  0  0  0  0  0  0  0
   29.9720    9.0430   26.6870 C   0  0  0  0  0  0  0  0  0  0  0  0
   26.4060   11.6850   30.2290 O   0  0  0  0  0  0  0  0  0  0  0  0
   23.8760   11.1130   30.3870 H   0  0  0  0  0  0  0  0  0  0  0  0
   22.2970    6.8840   32.3150 H   0  0  0  0  0  0  0  0  0  0  0  0
   22.8740    5.7760   31.0550 H   0  0  0  0  0  0  0  0  0  0  0  0
   21.5590    6.9920   30.6320 H   0  0  0  0  0  0  0  0  0  0  0  0
   22.2400   10.0920   32.4000 H   0  0  0  0  0  0  0  0  0  0  0  0
   21.4570   10.4210   30.8170 H   0  0  0  0  0  0  0  0  0  0  0  0
   21.3160    8.7650   31.6080 H   0  0  0  0  0  0  0  0  0  0  0  0
   25.6820   11.2100   28.4340 H   0  0  0  0  0  0  0  0  0  0  0  0
   27.9460    8.8960   30.5330 H   0  0  0  0  0  0  0  0  0  0  0  0
   28.7790    8.4400   28.9530 H   0  0  0  0  0  0  0  0  0  0  0  0
   27.9040   12.9910   28.6160 H   0  0  0  0  0  0  0  0  0  0  0  0
   28.8500   11.9260   27.4150 H   0  0  0  0  0  0  0  0  0  0  0  0
   29.8230   13.9420   29.4210 H   0  0  0  0  0  0  0  0  0  0  0  0
   30.2480   13.6280   27.7480 H   0  0  0  0  0  0  0  0  0  0  0  0
   31.6960   11.0980   30.5030 H   0  0  0  0  0  0  0  0  0  0  0  0
   30.2890   12.2320   30.9580 H   0  0  0  0  0  0  0  0  0  0  0  0
   30.3570   10.1740   28.7410 H   0  0  0  0  0  0  0  0  0  0  0  0
   29.7430    9.8200   30.4600 H   0  0  0  0  0  0  0  0  0  0  0  0
   28.2950   10.8990   26.9550 H   0  0  0  0  0  0  0  0  0  0  0  0
   26.7940   10.0100   26.8080 H   0  0  0  0  0  0  0  0  0  0  0  0
   27.1800    8.2360   25.3040 H   0  0  0  0  0  0  0  0  0  0  0  0
   28.8870    7.8950   25.0050 H   0  0  0  0  0  0  0  0  0  0  0  0
   28.5250    9.7070   23.4970 H   0  0  0  0  0  0  0  0  0  0  0  0
   27.4130   10.4910   24.6530 H   0  0  0  0  0  0  0  0  0  0  0  0
   30.8640   10.9310   26.3650 H   0  0  0  0  0  0  0  0  0  0  0  0
   31.1310    9.8130   25.0020 H   0  0  0  0  0  0  0  0  0  0  0  0
   30.2670    8.0870   26.1060 H   0  0  0  0  0  0  0  0  0  0  0  0
   30.5680    8.9500   27.5790 H   0  0  0  0  0  0  0  0  0  0  0  0
   27.0600   12.3490   29.9000 H   0  0  0  0  0  0  0  0  0  0  0  0
  1  2  1  0  0  0  0
  2  7  1  0  0  0  0
  3  4  1  0  0  0  0
  3  2  2  0  0  0  0
  4  5  2  0  0  0  0
  5 28  1  0  0  0  0
  5  6  1  0  0  0  0
  6  9  1  0  0  0  0
  7  6  2  0  0  0  0
  7  8  1  0  0  0  0
  8 29  1  0  0  0  0
  9 34  1  0  0  0  0
  9 32  1  0  0  0  0
 10 35  1  6  0  0  0
 10  4  1  0  0  0  0
 10 27  1  0  0  0  0
 11 20  1  6  0  0  0
 11 10  1  0  0  0  0
 11 14  1  0  0  0  0
 11 12  1  0  0  0  0
 12 36  1  0  0  0  0
 13 12  1  0  0  0  0
 13  3  1  0  0  0  0
 14 19  1  0  0  0  0
 15 38  1  0  0  0  0
 15 16  1  0  0  0  0
 15 14  1  0  0  0  0
 16 17  1  0  0  0  0
 16 40  1  0  0  0  0
 17 18  1  0  0  0  0
 18 42  1  0  0  0  0
 18 43  1  0  0  0  0
 19 18  1  0  0  0  0
 19 45  1  0  0  0  0
 21 20  1  0  0  0  0
 22 21  1  0  0  0  0
 23 51  1  0  0  0  0
 23 24  1  0  0  0  0
 23 22  1  0  0  0  0
 24 25  1  0  0  0  0
 25 52  1  0  0  0  0
 25 26  1  0  0  0  0
 26 21  1  0  0  0  0
 26 55  1  0  0  0  0
 30  8  1  0  0  0  0
 31  8  1  0  0  0  0
 33  9  1  0  0  0  0
 37 12  1  0  0  0  0
 39 15  1  0  0  0  0
 41 16  1  0  0  0  0
 44 19  1  0  0  0  0
 46 20  1  0  0  0  0
 47 20  1  0  0  0  0
 48 22  1  0  0  0  0
 49 22  1  0  0  0  0
 50 23  1  0  0  0  0
 53 25  1  0  0  0  0
 54 26  1  0  0  0  0
 56 27  1  0  0  0  0
M  END
>  <Pose>
1

>  <Score>
-4.48

$$$$
