
 OpenBabel03202209553D

 47 50  0  0  0  0  0  0  0  0999 V2000
   21.4030   16.1430   31.5950 B   0  0  0  0  0  0  0  0  0  0  0  0
   22.2420   16.5790   29.9330 C   0  0  0  0  0  0  0  0  0  0  0  0
   23.0430   15.8040   29.2050 N   0  0  0  0  0  0  0  0  0  0  0  0
   23.3470   16.5250   28.0900 C   0  0  0  0  0  0  0  0  0  0  0  0
   22.7050   17.7400   28.1920 C   0  0  0  0  0  0  0  0  0  0  0  0
   22.0250   17.7700   29.3300 N   0  0  0  0  0  0  0  0  0  0  0  0
   22.8490   18.6490   27.1880 N   0  0  0  0  0  0  0  0  0  0  0  0
   23.6050   18.3360   26.1370 C   0  0  0  0  0  0  0  0  0  0  0  0
   23.7200   19.2010   25.2210 O   0  0  0  0  0  0  0  0  0  0  0  0
   24.2350   17.1560   26.0280 N   0  0  0  0  0  0  0  0  0  0  0  0
   24.1300   16.2040   27.0000 C   0  0  0  0  0  0  0  0  0  0  0  0
   24.7210   15.1010   26.8870 O   0  0  0  0  0  0  0  0  0  0  0  0
   22.1910   19.9380   27.2570 C   0  0  0  0  0  0  0  0  0  0  0  0
   23.5650   14.5000   29.4440 C   0  0  0  0  0  0  0  0  0  0  0  0
   22.6240   13.4180   29.7780 C   0  0  0  0  0  0  0  0  0  0  0  0
   22.8680   12.5220   30.7660 O   0  0  0  0  0  0  0  0  0  0  0  0
   23.4650   11.3740   30.2730 C   0  0  0  0  0  0  0  0  0  0  0  0
   23.8600   10.4940   31.4210 C   0  0  0  0  0  0  0  0  0  0  0  0
   23.4470    9.1400   31.2280 N   0  0  0  0  0  0  0  0  0  0  0  0
   22.3190    8.5890   31.6980 C   0  0  0  0  0  0  0  0  0  0  0  0
   22.2980    7.2870   31.3060 C   0  0  0  0  0  0  0  0  0  0  0  0
   23.4110    7.0770   30.6080 N   0  0  0  0  0  0  0  0  0  0  0  0
   24.1470    8.1980   30.5380 C   0  0  0  0  0  0  0  0  0  0  0  0
   25.8160    8.4970   29.6830 B   0  0  0  0  0  0  0  0  0  0  0  0
   21.2640    6.4980   31.6460 N   0  0  0  0  0  0  0  0  0  0  0  0
   20.2690    7.0090   32.3660 C   0  0  0  0  0  0  0  0  0  0  0  0
   19.3060    6.2580   32.6770 O   0  0  0  0  0  0  0  0  0  0  0  0
   20.2700    8.2770   32.7580 N   0  0  0  0  0  0  0  0  0  0  0  0
   21.2760    9.0990   32.4450 C   0  0  0  0  0  0  0  0  0  0  0  0
   21.2390   10.3080   32.8400 O   0  0  0  0  0  0  0  0  0  0  0  0
   21.2240    5.1090   31.2370 C   0  0  0  0  0  0  0  0  0  0  0  0
   24.8230   16.9240   25.2000 H   0  0  0  0  0  0  0  0  0  0  0  0
   21.1870   19.8300   27.7280 H   0  0  0  0  0  0  0  0  0  0  0  0
   22.0470   20.3710   26.2620 H   0  0  0  0  0  0  0  0  0  0  0  0
   22.8080   20.6630   27.8470 H   0  0  0  0  0  0  0  0  0  0  0  0
   24.0800   14.2020   28.4770 H   0  0  0  0  0  0  0  0  0  0  0  0
   24.4500   14.5300   30.1600 H   0  0  0  0  0  0  0  0  0  0  0  0
   21.5910   13.8630   30.0420 H   0  0  0  0  0  0  0  0  0  0  0  0
   22.3240   12.8630   28.8110 H   0  0  0  0  0  0  0  0  0  0  0  0
   24.4210   11.6950   29.7380 H   0  0  0  0  0  0  0  0  0  0  0  0
   22.8370   10.9310   29.5170 H   0  0  0  0  0  0  0  0  0  0  0  0
   24.9760   10.5870   31.5290 H   0  0  0  0  0  0  0  0  0  0  0  0
   23.3980   10.9460   32.3320 H   0  0  0  0  0  0  0  0  0  0  0  0
   19.4810    8.6590   33.3220 H   0  0  0  0  0  0  0  0  0  0  0  0
   20.6740    5.0440   30.2870 H   0  0  0  0  0  0  0  0  0  0  0  0
   22.2510    4.7180   31.1240 H   0  0  0  0  0  0  0  0  0  0  0  0
   20.7100    4.5580   32.0710 H   0  0  0  0  0  0  0  0  0  0  0  0
  2  1  1  0  0  0  0
  3 14  1  0  0  0  0
  3  2  1  0  0  0  0
  4  5  2  0  0  0  0
  4  3  1  0  0  0  0
  5  6  1  0  0  0  0
  6  2  2  0  0  0  0
  7 13  1  0  0  0  0
  7  5  1  0  0  0  0
  8  7  1  0  0  0  0
  9  8  2  0  0  0  0
 10  8  1  0  0  0  0
 10 11  1  0  0  0  0
 11  4  1  0  0  0  0
 12 11  2  0  0  0  0
 13 33  1  0  0  0  0
 13 35  1  0  0  0  0
 14 15  1  0  0  0  0
 14 37  1  0  0  0  0
 15 38  1  0  0  0  0
 15 16  1  0  0  0  0
 17 16  1  0  0  0  0
 17 18  1  0  0  0  0
 18 42  1  0  0  0  0
 18 43  1  0  0  0  0
 19 18  1  0  0  0  0
 19 20  1  0  0  0  0
 20 29  1  0  0  0  0
 21 25  1  0  0  0  0
 21 20  2  0  0  0  0
 22 21  1  0  0  0  0
 23 22  2  0  0  0  0
 23 19  1  0  0  0  0
 24 23  1  0  0  0  0
 25 26  1  0  0  0  0
 26 27  2  0  0  0  0
 26 28  1  0  0  0  0
 28 44  1  0  0  0  0
 29 28  1  0  0  0  0
 29 30  2  0  0  0  0
 31 25  1  0  0  0  0
 31 47  1  0  0  0  0
 32 10  1  0  0  0  0
 34 13  1  0  0  0  0
 36 14  1  0  0  0  0
 39 15  1  0  0  0  0
 40 17  1  0  0  0  0
 41 17  1  0  0  0  0
 45 31  1  0  0  0  0
 46 31  1  0  0  0  0
M  END
>  <Pose>
1

>  <Score>
-9.86

$$$$
