
 OpenBabel03202209553D

 51 54  0  0  0  0  0  0  0  0999 V2000
   21.4660   16.0280   30.9460 Cl  0  0  0  0  0  0  0  0  0  0  0  0
   22.4250   16.1970   29.4940 C   0  0  0  0  0  0  0  0  0  0  0  0
   23.1600   15.1410   29.0400 C   0  0  0  0  0  0  0  0  0  0  0  0
   23.8970   15.3300   27.8920 C   0  0  0  0  0  0  0  0  0  0  0  0
   23.9060   16.5220   27.2160 C   0  0  0  0  0  0  0  0  0  0  0  0
   23.1600   17.5830   27.6840 C   0  0  0  0  0  0  0  0  0  0  0  0
   22.4210   17.4020   28.8310 C   0  0  0  0  0  0  0  0  0  0  0  0
   23.2060   13.8260   29.7060 C   0  0  0  0  0  0  0  0  0  0  0  0
   24.2450   12.9710   29.2470 N   0  0  0  0  0  0  0  0  0  0  0  0
   25.3530   13.3400   28.6180 N   0  0  0  0  0  0  0  0  0  0  0  0
   26.1110   12.2970   28.3240 C   0  0  0  0  0  0  0  0  0  0  0  0
   25.4260   11.1720   28.8070 C   0  0  0  0  0  0  0  0  0  0  0  0
   24.2560   11.6110   29.3840 C   0  0  0  0  0  0  0  0  0  0  0  0
   23.3060   10.8330   30.0340 N   0  0  0  0  0  0  0  0  0  0  0  0
   22.5430    9.7380   29.7780 C   0  0  0  0  0  0  0  0  0  0  0  0
   21.6010   10.0970   28.8430 O   0  0  0  0  0  0  0  0  0  0  0  0
   22.3760    8.3400   30.1380 C   0  0  0  0  0  0  0  0  0  0  0  0
   21.6510    7.8420   31.2270 N   0  0  0  0  0  0  0  0  0  0  0  0
   21.1020    8.7160   32.2980 C   0  0  0  0  0  0  0  0  0  0  0  0
   20.7300    7.7610   33.4130 C   0  0  0  0  0  0  0  0  0  0  0  0
   19.6280    6.8580   32.9260 C   0  0  0  0  0  0  0  0  0  0  0  0
   20.1740    5.9280   31.8640 C   0  0  0  0  0  0  0  0  0  0  0  0
   21.4960    6.4250   31.3850 C   0  0  0  0  0  0  0  0  0  0  0  0
   22.5120    5.5750   31.2140 C   0  0  0  0  0  0  0  0  0  0  0  0
   22.3330    4.1560   31.3650 N   0  0  0  0  0  0  0  0  0  0  0  0
   23.5700    3.5100   31.1950 N   0  0  0  0  0  0  0  0  0  0  0  0
   24.5450    4.4950   30.9340 C   0  0  0  0  0  0  0  0  0  0  0  0
   25.7720    4.3660   30.7210 O   0  0  0  0  0  0  0  0  0  0  0  0
   23.8650    5.7640   30.9530 N   0  0  0  0  0  0  0  0  0  0  0  0
   24.4920   14.5210   27.5000 H   0  0  0  0  0  0  0  0  0  0  0  0
   24.4930   16.6430   26.3190 H   0  0  0  0  0  0  0  0  0  0  0  0
   23.1700   18.5230   27.1460 H   0  0  0  0  0  0  0  0  0  0  0  0
   21.8390   18.2310   29.1940 H   0  0  0  0  0  0  0  0  0  0  0  0
   22.1860   13.3650   29.6970 H   0  0  0  0  0  0  0  0  0  0  0  0
   23.3810   14.0490   30.8020 H   0  0  0  0  0  0  0  0  0  0  0  0
   27.0720   12.2410   27.8180 H   0  0  0  0  0  0  0  0  0  0  0  0
   25.7990   10.1720   28.7280 H   0  0  0  0  0  0  0  0  0  0  0  0
   23.2050   11.1750   31.1000 H   0  0  0  0  0  0  0  0  0  0  0  0
   21.8850    7.9310   29.1550 H   0  0  0  0  0  0  0  0  0  0  0  0
   23.4220    7.8230   30.1410 H   0  0  0  0  0  0  0  0  0  0  0  0
   21.9390    9.3210   32.7220 H   0  0  0  0  0  0  0  0  0  0  0  0
   20.2380    9.2780   32.0200 H   0  0  0  0  0  0  0  0  0  0  0  0
   20.3540    8.3550   34.2970 H   0  0  0  0  0  0  0  0  0  0  0  0
   21.5980    7.1620   33.7540 H   0  0  0  0  0  0  0  0  0  0  0  0
   19.2180    6.2580   33.7780 H   0  0  0  0  0  0  0  0  0  0  0  0
   18.8120    7.4850   32.5350 H   0  0  0  0  0  0  0  0  0  0  0  0
   20.2240    4.8820   32.2440 H   0  0  0  0  0  0  0  0  0  0  0  0
   19.4800    5.9030   31.0180 H   0  0  0  0  0  0  0  0  0  0  0  0
   21.4870    3.5870   31.5620 H   0  0  0  0  0  0  0  0  0  0  0  0
   23.7720    2.4810   31.2430 H   0  0  0  0  0  0  0  0  0  0  0  0
   24.3360    6.6730   30.8150 H   0  0  0  0  0  0  0  0  0  0  0  0
  2  1  1  0  0  0  0
  3  2  1  0  0  0  0
  3  8  1  0  0  0  0
  4  3  2  0  0  0  0
  5  6  2  0  0  0  0
  5  4  1  0  0  0  0
  6  7  1  0  0  0  0
  7 33  1  0  0  0  0
  7  2  2  0  0  0  0
  8 35  1  0  0  0  0
  9 13  1  0  0  0  0
  9  8  1  0  0  0  0
 10  9  1  0  0  0  0
 11 10  2  0  0  0  0
 11 12  1  0  0  0  0
 12 13  2  0  0  0  0
 13 14  1  0  0  0  0
 14 38  1  0  0  0  0
 15 14  1  0  0  0  0
 15 17  1  0  0  0  0
 16 15  2  0  0  0  0
 17 40  1  0  0  0  0
 17 18  1  0  0  0  0
 18 23  1  0  0  0  0
 18 19  1  0  0  0  0
 19 41  1  0  0  0  0
 19 20  1  0  0  0  0
 20 44  1  0  0  0  0
 20 43  1  0  0  0  0
 21 20  1  0  0  0  0
 21 45  1  0  0  0  0
 22 47  1  0  0  0  0
 22 21  1  0  0  0  0
 23 22  1  0  0  0  0
 24 25  1  0  0  0  0
 24 23  2  0  0  0  0
 25 49  1  0  0  0  0
 26 50  1  0  0  0  0
 26 25  1  0  0  0  0
 27 29  1  0  0  0  0
 27 26  1  0  0  0  0
 28 27  2  0  0  0  0
 29 24  1  0  0  0  0
 30  4  1  0  0  0  0
 31  5  1  0  0  0  0
 32  6  1  0  0  0  0
 34  8  1  0  0  0  0
 36 11  1  0  0  0  0
 37 12  1  0  0  0  0
 39 17  1  0  0  0  0
 42 19  1  0  0  0  0
 46 21  1  0  0  0  0
 48 22  1  0  0  0  0
 51 29  1  0  0  0  0
M  END
>  <Pose>
1

>  <Score>
-7.68

$$$$
