
 OpenBabel03202209553D

 41 44  0  0  0  0  0  0  0  0999 V2000
   18.6360   15.1080   30.8480 B   0  0  0  0  0  0  0  0  0  0  0  0
   20.4230   15.1750   31.5170 C   0  0  0  0  0  0  0  0  0  0  0  0
   20.8100   16.2710   32.2540 C   0  0  0  0  0  0  0  0  0  0  0  0
   22.0710   16.3490   32.7400 N   0  0  0  0  0  0  0  0  0  0  0  0
   22.9210   15.3370   32.4860 C   0  0  0  0  0  0  0  0  0  0  0  0
   22.6020   14.2230   31.7630 C   0  0  0  0  0  0  0  0  0  0  0  0
   21.3180   14.1350   31.2620 C   0  0  0  0  0  0  0  0  0  0  0  0
   23.6010   13.1870   31.5480 C   0  0  0  0  0  0  0  0  0  0  0  0
   24.4880   13.0230   32.4500 O   0  0  0  0  0  0  0  0  0  0  0  0
   23.6180   12.3680   30.3880 N   0  0  0  0  0  0  0  0  0  0  0  0
   24.8490   12.2990   29.6160 C   0  0  0  0  0  0  0  0  0  0  0  0
   24.9270   11.0010   28.8440 C   0  0  0  0  0  0  0  0  0  0  0  0
   23.9630   10.0940   29.4780 N   0  0  0  0  0  0  0  0  0  0  0  0
   22.7670   10.3800   29.9640 N   0  0  0  0  0  0  0  0  0  0  0  0
   22.1930    9.2910   30.4570 N   0  0  0  0  0  0  0  0  0  0  0  0
   23.0210    8.2450   30.3020 C   0  0  0  0  0  0  0  0  0  0  0  0
   24.1350    8.7610   29.6830 C   0  0  0  0  0  0  0  0  0  0  0  0
   22.7930    6.8670   30.6990 C   0  0  0  0  0  0  0  0  0  0  0  0
   23.6910    6.0140   31.2230 N   0  0  0  0  0  0  0  0  0  0  0  0
   23.0970    4.8320   31.4570 C   0  0  0  0  0  0  0  0  0  0  0  0
   21.8210    4.9820   31.0660 N   0  0  0  0  0  0  0  0  0  0  0  0
   21.6750    6.1940   30.6240 O   0  0  0  0  0  0  0  0  0  0  0  0
   23.7180    3.6170   32.0260 C   0  0  0  0  0  0  0  0  0  0  0  0
   22.9950    2.8140   32.8780 C   0  0  0  0  0  0  0  0  0  0  0  0
   23.5510    1.7050   33.4020 N   0  0  0  0  0  0  0  0  0  0  0  0
   24.8150    1.3190   33.1330 C   0  0  0  0  0  0  0  0  0  0  0  0
   25.5320    2.1310   32.2760 C   0  0  0  0  0  0  0  0  0  0  0  0
   25.0050    3.2680   31.7210 C   0  0  0  0  0  0  0  0  0  0  0  0
   20.1210   17.1020   32.4650 H   0  0  0  0  0  0  0  0  0  0  0  0
   23.9270   15.4490   32.9030 H   0  0  0  0  0  0  0  0  0  0  0  0
   21.0020   13.2810   30.6830 H   0  0  0  0  0  0  0  0  0  0  0  0
   22.7710   11.8360   30.1040 H   0  0  0  0  0  0  0  0  0  0  0  0
   24.7980   13.1200   28.8530 H   0  0  0  0  0  0  0  0  0  0  0  0
   25.7200   12.4530   30.2810 H   0  0  0  0  0  0  0  0  0  0  0  0
   24.6390   11.2100   27.8010 H   0  0  0  0  0  0  0  0  0  0  0  0
   25.9120   10.5180   28.9230 H   0  0  0  0  0  0  0  0  0  0  0  0
   25.0120    8.2090   29.3990 H   0  0  0  0  0  0  0  0  0  0  0  0
   21.9590    3.1000   33.1180 H   0  0  0  0  0  0  0  0  0  0  0  0
   25.2470    0.4180   33.5670 H   0  0  0  0  0  0  0  0  0  0  0  0
   26.5550    1.8490   32.0380 H   0  0  0  0  0  0  0  0  0  0  0  0
   25.5680    3.9130   31.0450 H   0  0  0  0  0  0  0  0  0  0  0  0
  1  2  1  0  0  0  0
  2  3  1  0  0  0  0
  3 29  1  0  0  0  0
  3  4  2  0  0  0  0
  5  4  1  0  0  0  0
  5 30  1  0  0  0  0
  6  5  2  0  0  0  0
  7  2  2  0  0  0  0
  7  6  1  0  0  0  0
  8  6  1  0  0  0  0
  8  9  2  0  0  0  0
 10  8  1  0  0  0  0
 11 34  1  0  0  0  0
 11 10  1  0  0  0  0
 12 36  1  0  0  0  0
 12 13  1  0  0  0  0
 12 11  1  0  0  0  0
 13 17  1  0  0  0  0
 13 14  1  0  0  0  0
 14 15  2  0  0  0  0
 16 15  1  0  0  0  0
 16 18  1  0  0  0  0
 17 16  2  0  0  0  0
 18 19  2  0  0  0  0
 19 20  1  0  0  0  0
 20 23  1  0  0  0  0
 21 20  2  0  0  0  0
 22 18  1  0  0  0  0
 22 21  1  0  0  0  0
 23 24  1  0  0  0  0
 24 38  1  0  0  0  0
 24 25  2  0  0  0  0
 26 25  1  0  0  0  0
 26 39  1  0  0  0  0
 27 26  2  0  0  0  0
 28 23  2  0  0  0  0
 28 27  1  0  0  0  0
 31  7  1  0  0  0  0
 32 10  1  0  0  0  0
 33 11  1  0  0  0  0
 35 12  1  0  0  0  0
 37 17  1  0  0  0  0
 40 27  1  0  0  0  0
 41 28  1  0  0  0  0
M  END
>  <Pose>
1

>  <Score>
-6.96

$$$$
