
 OpenBabel03202209553D

 54 57  0  0  0  0  0  0  0  0999 V2000
   23.3710   15.3270   33.2570 Cl  0  0  0  0  0  0  0  0  0  0  0  0
   22.0100   14.9690   32.1880 C   0  0  0  0  0  0  0  0  0  0  0  0
   21.9280   13.7310   31.5890 C   0  0  0  0  0  0  0  0  0  0  0  0
   20.8630   13.4810   30.7670 C   0  0  0  0  0  0  0  0  0  0  0  0
   19.8730   14.4180   30.5160 C   0  0  0  0  0  0  0  0  0  0  0  0
   19.9920   15.6630   31.1440 C   0  0  0  0  0  0  0  0  0  0  0  0
   21.0520   15.9360   31.9730 C   0  0  0  0  0  0  0  0  0  0  0  0
   22.9000   12.7350   31.8010 N   0  0  0  0  0  0  0  0  0  0  0  0
   24.2550   12.8980   31.3450 C   0  0  0  0  0  0  0  0  0  0  0  0
   24.7870   11.6910   30.6120 C   0  0  0  0  0  0  0  0  0  0  0  0
   23.9150   10.5800   30.8850 N   0  0  0  0  0  0  0  0  0  0  0  0
   23.4700   10.4000   32.2430 C   0  0  0  0  0  0  0  0  0  0  0  0
   22.4590   11.5240   32.5100 C   0  0  0  0  0  0  0  0  0  0  0  0
   23.4810    9.6680   29.8990 C   0  0  0  0  0  0  0  0  0  0  0  0
   23.0510   10.0680   28.7770 O   0  0  0  0  0  0  0  0  0  0  0  0
   23.5020    8.2290   30.1110 C   0  0  0  0  0  0  0  0  0  0  0  0
   22.3900    7.5740   30.5620 C   0  0  0  0  0  0  0  0  0  0  0  0
   22.3290    6.2260   30.7870 N   0  0  0  0  0  0  0  0  0  0  0  0
   23.4280    5.5180   30.5480 C   0  0  0  0  0  0  0  0  0  0  0  0
   24.5900    6.0840   30.0960 C   0  0  0  0  0  0  0  0  0  0  0  0
   24.6380    7.5160   29.8630 C   0  0  0  0  0  0  0  0  0  0  0  0
   25.8850    7.7810   29.4300 N   0  0  0  0  0  0  0  0  0  0  0  0
   26.5920    6.6650   29.3770 N   0  0  0  0  0  0  0  0  0  0  0  0
   25.8520    5.6200   29.7690 C   0  0  0  0  0  0  0  0  0  0  0  0
   26.1720    4.3950   29.8560 O   0  0  0  0  0  0  0  0  0  0  0  0
   21.0800    5.6260   31.2330 C   0  0  0  0  0  0  0  0  0  0  0  0
   20.5310    6.1380   32.4890 C   0  0  0  0  0  0  0  0  0  0  0  0
   19.4100    7.0750   32.5800 C   0  0  0  0  0  0  0  0  0  0  0  0
   18.3600    6.8570   33.3880 O   0  0  0  0  0  0  0  0  0  0  0  0
   17.4260    7.7720   33.6540 C   0  0  0  0  0  0  0  0  0  0  0  0
   20.7860   12.5210   30.2920 H   0  0  0  0  0  0  0  0  0  0  0  0
   19.0530   14.1930   29.8680 H   0  0  0  0  0  0  0  0  0  0  0  0
   19.2080   16.3750   30.9320 H   0  0  0  0  0  0  0  0  0  0  0  0
   21.1200   16.8910   32.4400 H   0  0  0  0  0  0  0  0  0  0  0  0
   24.9530   13.1710   32.1630 H   0  0  0  0  0  0  0  0  0  0  0  0
   24.2760   13.7440   30.6250 H   0  0  0  0  0  0  0  0  0  0  0  0
   24.9170   11.8790   29.5290 H   0  0  0  0  0  0  0  0  0  0  0  0
   25.8020   11.4230   31.0160 H   0  0  0  0  0  0  0  0  0  0  0  0
   24.3000   10.5970   32.9810 H   0  0  0  0  0  0  0  0  0  0  0  0
   23.0220    9.4140   32.4230 H   0  0  0  0  0  0  0  0  0  0  0  0
   22.3300   11.7120   33.5830 H   0  0  0  0  0  0  0  0  0  0  0  0
   21.5040   11.2140   32.0350 H   0  0  0  0  0  0  0  0  0  0  0  0
   21.4480    8.1060   30.7780 H   0  0  0  0  0  0  0  0  0  0  0  0
   23.4560    4.4400   30.6770 H   0  0  0  0  0  0  0  0  0  0  0  0
   27.6000    6.5500   29.0780 H   0  0  0  0  0  0  0  0  0  0  0  0
   21.0730    4.5180   31.1190 H   0  0  0  0  0  0  0  0  0  0  0  0
   20.3380    5.9430   30.4140 H   0  0  0  0  0  0  0  0  0  0  0  0
   20.3600    5.2590   33.2080 H   0  0  0  0  0  0  0  0  0  0  0  0
   21.4100    6.6510   33.0320 H   0  0  0  0  0  0  0  0  0  0  0  0
   19.7740    8.1600   32.6620 H   0  0  0  0  0  0  0  0  0  0  0  0
   18.9660    7.1190   31.5120 H   0  0  0  0  0  0  0  0  0  0  0  0
   16.8770    8.1000   32.7320 H   0  0  0  0  0  0  0  0  0  0  0  0
   17.7140    8.6790   34.1940 H   0  0  0  0  0  0  0  0  0  0  0  0
   16.5810    7.2600   34.2430 H   0  0  0  0  0  0  0  0  0  0  0  0
  2  1  1  0  0  0  0
  3  8  1  0  0  0  0
  3  2  2  0  0  0  0
  4  3  1  0  0  0  0
  5  4  2  0  0  0  0
  5  6  1  0  0  0  0
  6  7  2  0  0  0  0
  7  2  1  0  0  0  0
  7 34  1  0  0  0  0
  8 13  1  0  0  0  0
  9  8  1  0  0  0  0
  9 35  1  0  0  0  0
 10 11  1  0  0  0  0
 10 38  1  0  0  0  0
 10  9  1  0  0  0  0
 11 12  1  0  0  0  0
 12 40  1  0  0  0  0
 12 13  1  0  0  0  0
 12 39  1  0  0  0  0
 13 41  1  0  0  0  0
 14 16  1  0  0  0  0
 14 11  1  0  0  0  0
 15 14  2  0  0  0  0
 16 17  1  0  0  0  0
 17 43  1  0  0  0  0
 17 18  1  0  0  0  0
 18 26  1  0  0  0  0
 19 44  1  0  0  0  0
 19 18  1  0  0  0  0
 20 19  2  0  0  0  0
 21 20  1  0  0  0  0
 21 16  2  0  0  0  0
 22 21  1  0  0  0  0
 23 22  1  0  0  0  0
 23 24  1  0  0  0  0
 24 25  2  0  0  0  0
 24 20  1  0  0  0  0
 26 27  1  0  0  0  0
 27 28  1  0  0  0  0
 27 49  1  0  0  0  0
 27 48  1  0  0  0  0
 28 50  1  0  0  0  0
 28 29  1  0  0  0  0
 29 30  1  0  0  0  0
 30 53  1  0  0  0  0
 30 54  1  0  0  0  0
 31  4  1  0  0  0  0
 32  5  1  0  0  0  0
 33  6  1  0  0  0  0
 36  9  1  0  0  0  0
 37 10  1  0  0  0  0
 42 13  1  0  0  0  0
 45 23  1  0  0  0  0
 46 26  1  0  0  0  0
 47 26  1  0  0  0  0
 51 28  1  0  0  0  0
 52 30  1  0  0  0  0
M  END
>  <Pose>
1

>  <Score>
-7.04

$$$$
