
 OpenBabel03202209553D

 56 59  0  0  1  0  0  0  0  0999 V2000
   26.0540    1.1110   33.6810 B   0  0  0  0  0  0  0  0  0  0  0  0
   25.0660    2.4330   32.6910 C   0  0  0  0  0  0  0  0  0  0  0  0
   23.7160    2.6130   32.9380 C   0  0  0  0  0  0  0  0  0  0  0  0
   22.9960    3.5670   32.2260 C   0  0  0  0  0  0  0  0  0  0  0  0
   23.5980    4.3500   31.2680 C   0  0  0  0  0  0  0  0  0  0  0  0
   24.9410    4.1450   31.0470 C   0  0  0  0  0  0  0  0  0  0  0  0
   25.6760    3.2100   31.7350 C   0  0  0  0  0  0  0  0  0  0  0  0
   22.8630    5.3460   30.5190 C   0  0  0  0  0  0  0  0  0  0  0  0
   23.4320    5.9520   29.5730 O   0  0  0  0  0  0  0  0  0  0  0  0
   21.4480    5.7000   30.8100 C   0  0  0  0  0  0  0  0  0  0  0  0
   21.3410    6.9570   31.4890 N   0  0  0  0  0  0  0  0  0  0  0  0
   22.0960    8.0170   31.3070 N   0  0  0  0  0  0  0  0  0  0  0  0
   21.7100    9.0150   32.1150 C   0  0  0  0  0  0  0  0  0  0  0  0
   20.6720    8.5580   32.8310 N   0  0  0  0  0  0  0  0  0  0  0  0
   20.4480    7.2710   32.4320 C   0  0  2  0  0  0  0  0  0  0  0  0
   19.4100    6.3800   32.9470 C   0  0  0  0  0  0  0  0  0  0  0  0
   18.0150    6.9330   32.7720 C   0  0  0  0  0  0  0  0  0  0  0  0
   17.7390    8.0800   33.7180 C   0  0  0  0  0  0  0  0  0  0  0  0
   18.4830    9.3300   33.3630 C   0  0  0  0  0  0  0  0  0  0  0  0
   19.9300    9.2940   33.8350 C   0  0  0  0  0  0  0  0  0  0  0  0
   22.2880   10.3610   32.2250 C   0  0  0  0  0  0  0  0  0  0  0  0
   21.9180   11.2090   31.1340 N   0  0  0  0  0  0  0  0  0  0  0  0
   22.8710   11.8560   30.2960 C   0  0  0  0  0  0  0  0  0  0  0  0
   23.9210   11.1780   29.7170 C   0  0  0  0  0  0  0  0  0  0  0  0
   24.8290   11.8100   28.9080 C   0  0  0  0  0  0  0  0  0  0  0  0
   24.7000   13.1410   28.6650 C   0  0  0  0  0  0  0  0  0  0  0  0
   23.6520   13.8230   29.2430 C   0  0  0  0  0  0  0  0  0  0  0  0
   22.7310   13.1970   30.0570 C   0  0  0  0  0  0  0  0  0  0  0  0
   25.5970   13.8010   27.8590 O   0  0  0  0  0  0  0  0  0  0  0  0
   26.7990   13.2210   27.4170 C   0  0  0  0  0  0  0  0  0  0  0  0
   23.2540    1.9990   33.6880 H   0  0  0  0  0  0  0  0  0  0  0  0
   21.9490    3.6890   32.4360 H   0  0  0  0  0  0  0  0  0  0  0  0
   25.4400    4.7600   30.2850 H   0  0  0  0  0  0  0  0  0  0  0  0
   26.7200    3.0970   31.5180 H   0  0  0  0  0  0  0  0  0  0  0  0
   20.8160    5.6380   29.9030 H   0  0  0  0  0  0  0  0  0  0  0  0
   21.0820    4.9030   31.5220 H   0  0  0  0  0  0  0  0  0  0  0  0
   19.4340    5.3980   32.4410 H   0  0  0  0  0  0  0  0  0  0  0  0
   19.5210    6.1560   34.0470 H   0  0  0  0  0  0  0  0  0  0  0  0
   17.7770    7.2130   31.7450 H   0  0  0  0  0  0  0  0  0  0  0  0
   17.3120    6.1120   33.0580 H   0  0  0  0  0  0  0  0  0  0  0  0
   17.8700    7.7940   34.7630 H   0  0  0  0  0  0  0  0  0  0  0  0
   16.6420    8.3150   33.5980 H   0  0  0  0  0  0  0  0  0  0  0  0
   18.4870    9.5140   32.2900 H   0  0  0  0  0  0  0  0  0  0  0  0
   17.9600   10.1870   33.8690 H   0  0  0  0  0  0  0  0  0  0  0  0
   20.0220    8.8590   34.8420 H   0  0  0  0  0  0  0  0  0  0  0  0
   20.3080   10.3270   33.8750 H   0  0  0  0  0  0  0  0  0  0  0  0
   23.4030   10.2550   32.2550 H   0  0  0  0  0  0  0  0  0  0  0  0
   22.0010   10.8460   33.1730 H   0  0  0  0  0  0  0  0  0  0  0  0
   20.9230   11.3760   30.9230 H   0  0  0  0  0  0  0  0  0  0  0  0
   23.9780   10.1060   29.9470 H   0  0  0  0  0  0  0  0  0  0  0  0
   25.6310   11.2400   28.4790 H   0  0  0  0  0  0  0  0  0  0  0  0
   23.5210   14.8940   29.0660 H   0  0  0  0  0  0  0  0  0  0  0  0
   21.8990   13.7590   30.5070 H   0  0  0  0  0  0  0  0  0  0  0  0
   27.4740   13.9840   27.0100 H   0  0  0  0  0  0  0  0  0  0  0  0
   27.2870   12.7250   28.2800 H   0  0  0  0  0  0  0  0  0  0  0  0
   26.6190   12.4410   26.6430 H   0  0  0  0  0  0  0  0  0  0  0  0
  2  3  1  0  0  0  0
  2  1  1  0  0  0  0
  3 31  1  0  0  0  0
  4 32  1  0  0  0  0
  4  3  2  0  0  0  0
  5  4  1  0  0  0  0
  6  5  2  0  0  0  0
  6  7  1  0  0  0  0
  7  2  2  0  0  0  0
  8 10  1  0  0  0  0
  8  5  1  0  0  0  0
  9  8  2  0  0  0  0
 10 11  1  0  0  0  0
 10 36  1  0  0  0  0
 12 11  1  0  0  0  0
 12 13  2  0  0  0  0
 13 21  1  0  0  0  0
 13 14  1  0  0  0  0
 14 20  1  0  0  0  0
 15 11  1  1  0  0  0
 15 14  1  0  0  0  0
 15 16  1  0  0  0  0
 16 38  1  0  0  0  0
 17 16  1  0  0  0  0
 17 40  1  0  0  0  0
 17 18  1  0  0  0  0
 18 41  1  0  0  0  0
 19 18  1  0  0  0  0
 19 20  1  0  0  0  0
 19 44  1  0  0  0  0
 20 46  1  0  0  0  0
 20 45  1  0  0  0  0
 21 47  1  0  0  0  0
 21 48  1  0  0  0  0
 22 21  1  0  0  0  0
 23 22  1  0  0  0  0
 24 50  1  0  0  0  0
 24 23  2  0  0  0  0
 25 24  1  0  0  0  0
 26 25  2  0  0  0  0
 26 27  1  0  0  0  0
 27 28  2  0  0  0  0
 28 23  1  0  0  0  0
 28 53  1  0  0  0  0
 29 26  1  0  0  0  0
 30 29  1  0  0  0  0
 30 55  1  0  0  0  0
 33  6  1  0  0  0  0
 34  7  1  0  0  0  0
 35 10  1  0  0  0  0
 37 16  1  0  0  0  0
 39 17  1  0  0  0  0
 42 18  1  0  0  0  0
 43 19  1  0  0  0  0
 49 22  1  0  0  0  0
 51 25  1  0  0  0  0
 52 27  1  0  0  0  0
 54 30  1  0  0  0  0
 56 30  1  0  0  0  0
M  END
>  <Pose>
1

>  <Score>
-6.76

$$$$
