
 OpenBabel03202209553D

 54 58  0  0  0  0  0  0  0  0999 V2000
   24.5320   13.6270   30.5820 F   0  0  0  0  0  0  0  0  0  0  0  0
   24.2840   12.3060   30.5340 C   0  0  0  0  0  0  0  0  0  0  0  0
   23.1740   11.9090   31.2740 C   0  0  0  0  0  0  0  0  0  0  0  0
   22.7960   10.5850   31.3110 C   0  0  0  0  0  0  0  0  0  0  0  0
   23.5440    9.6790   30.5970 C   0  0  0  0  0  0  0  0  0  0  0  0
   24.6500   10.0960   29.8630 C   0  0  0  0  0  0  0  0  0  0  0  0
   25.0370   11.4090   29.8200 C   0  0  0  0  0  0  0  0  0  0  0  0
   26.1570   11.7870   29.0800 N   0  0  0  0  0  4  0  0  0  0  0  0
   25.9270   12.0260   27.6780 C   0  0  0  0  0  0  0  0  0  0  0  0
   27.2150   12.5780   27.0220 C   0  0  0  0  0  0  0  0  0  0  0  0
   28.1700   11.5480   27.1410 N   0  0  0  0  0  0  0  0  0  0  0  0
   28.5600   11.3640   28.5930 C   0  0  0  0  0  0  0  0  0  0  0  0
   27.2770   10.9160   29.2240 C   0  0  0  0  0  0  0  0  0  0  0  0
   28.7390   10.6970   26.2550 C   0  0  0  0  0  0  0  0  0  0  0  0
   29.6300   11.2320   25.4560 O   0  0  0  0  0  0  0  0  0  0  0  0
   28.5400    9.2930   26.0250 C   0  0  0  0  0  0  0  0  0  0  0  0
   27.9970    8.4380   26.9300 C   0  0  0  0  0  0  0  0  0  0  0  0
   27.7730    7.0980   26.6440 C   0  0  0  0  0  0  0  0  0  0  0  0
   28.1110    6.6120   25.4070 C   0  0  0  0  0  0  0  0  0  0  0  0
   28.6620    7.4290   24.4610 C   0  0  0  0  0  0  0  0  0  0  0  0
   28.8680    8.7390   24.7710 C   0  0  0  0  0  0  0  0  0  0  0  0
   27.0620    6.0240   27.8510 Cl  0  0  0  0  0  0  0  0  0  0  0  0
   23.1550    8.3890   30.6470 N   0  0  0  0  0  0  0  0  0  0  0  0
   22.0860    7.9800   31.3540 C   0  0  0  0  0  0  0  0  0  0  0  0
   21.3170    8.8630   32.0800 C   0  0  0  0  0  0  0  0  0  0  0  0
   21.6780   10.1890   32.0570 C   0  0  0  0  0  0  0  0  0  0  0  0
   21.0200   11.0450   32.6950 O   0  0  0  0  0  0  0  0  0  0  0  0
   20.1480    8.3980   32.8510 C   0  0  0  0  0  0  0  0  0  0  0  0
   20.0040    8.6480   34.0580 O   0  0  0  0  0  0  0  0  0  0  0  0
   19.1900    7.6630   32.1920 O   0  0  0  0  0  0  0  0  0  0  0  0
   23.9660    7.4360   29.8790 C   0  0  0  0  0  0  0  0  0  0  0  0
   24.1700    6.0640   30.3530 C   0  0  0  0  0  0  0  0  0  0  0  0
   25.2710    6.9920   30.6180 C   0  0  0  0  0  0  0  0  0  0  0  0
   22.5700   12.6000   31.8430 H   0  0  0  0  0  0  0  0  0  0  0  0
   25.1750    9.3000   29.3340 H   0  0  0  0  0  0  0  0  0  0  0  0
   26.4690   12.7280   29.4740 H   0  0  0  0  0  0  0  0  0  0  0  0
   25.7550   11.0620   27.1770 H   0  0  0  0  0  0  0  0  0  0  0  0
   25.1940   12.8210   27.4610 H   0  0  0  0  0  0  0  0  0  0  0  0
   26.9610   12.9940   26.0690 H   0  0  0  0  0  0  0  0  0  0  0  0
   27.5280   13.4940   27.6450 H   0  0  0  0  0  0  0  0  0  0  0  0
   28.7900   12.3840   28.9390 H   0  0  0  0  0  0  0  0  0  0  0  0
   29.3780   10.6600   28.6870 H   0  0  0  0  0  0  0  0  0  0  0  0
   27.4890   10.8390   30.3320 H   0  0  0  0  0  0  0  0  0  0  0  0
   27.0980    9.8750   28.9050 H   0  0  0  0  0  0  0  0  0  0  0  0
   27.7410    8.7280   27.9340 H   0  0  0  0  0  0  0  0  0  0  0  0
   27.9290    5.5640   25.2030 H   0  0  0  0  0  0  0  0  0  0  0  0
   28.9060    6.9820   23.5060 H   0  0  0  0  0  0  0  0  0  0  0  0
   29.3090    9.3920   24.0100 H   0  0  0  0  0  0  0  0  0  0  0  0
   21.8150    6.9360   31.3630 H   0  0  0  0  0  0  0  0  0  0  0  0
   24.1240    7.6770   28.8130 H   0  0  0  0  0  0  0  0  0  0  0  0
   23.6020    5.6350   31.2040 H   0  0  0  0  0  0  0  0  0  0  0  0
   24.3290    5.2880   29.5470 H   0  0  0  0  0  0  0  0  0  0  0  0
   25.4060    7.3970   31.6410 H   0  0  0  0  0  0  0  0  0  0  0  0
   26.2000    7.0260   30.0180 H   0  0  0  0  0  0  0  0  0  0  0  0
  2  1  1  0  0  0  0
  2  3  1  0  0  0  0
  3  4  2  0  0  0  0
  3 34  1  0  0  0  0
  4 26  1  0  0  0  0
  5 23  1  0  0  0  0
  5  4  1  0  0  0  0
  6  5  2  0  0  0  0
  7  6  1  0  0  0  0
  7  2  2  0  0  0  0
  8 13  1  0  0  0  0
  8 36  1  0  0  0  0
  8  7  1  0  0  0  0
  9  8  1  0  0  0  0
 10 11  1  0  0  0  0
 10 40  1  0  0  0  0
 10  9  1  0  0  0  0
 11 12  1  0  0  0  0
 12 42  1  0  0  0  0
 12 41  1  0  0  0  0
 12 13  1  0  0  0  0
 13 43  1  0  0  0  0
 14 11  1  0  0  0  0
 15 14  2  0  0  0  0
 16 14  1  0  0  0  0
 16 17  1  0  0  0  0
 17 45  1  0  0  0  0
 18 17  2  0  0  0  0
 18 22  1  0  0  0  0
 19 18  1  0  0  0  0
 20 21  1  0  0  0  0
 20 19  2  0  0  0  0
 21 16  2  0  0  0  0
 23 24  1  0  0  0  0
 24 49  1  0  0  0  0
 24 25  2  0  0  0  0
 25 28  1  0  0  0  0
 26 25  1  0  0  0  0
 26 27  2  0  0  0  0
 28 29  1  0  0  0  0
 30 28  2  0  0  0  0
 31 32  1  0  0  0  0
 31 33  1  0  0  0  0
 31 23  1  0  0  0  0
 32 33  1  0  0  0  0
 32 51  1  0  0  0  0
 33 53  1  0  0  0  0
 35  6  1  0  0  0  0
 37  9  1  0  0  0  0
 38  9  1  0  0  0  0
 39 10  1  0  0  0  0
 44 13  1  0  0  0  0
 46 19  1  0  0  0  0
 47 20  1  0  0  0  0
 48 21  1  0  0  0  0
 50 31  1  0  0  0  0
 52 32  1  0  0  0  0
 54 33  1  0  0  0  0
M  END
>  <Pose>
1

>  <Score>
-6.33

$$$$
