
 OpenBabel03202209553D

 51 54  0  0  0  0  0  0  0  0999 V2000
   28.9950   15.5320   21.3500 Cl  0  0  0  0  0  0  0  0  0  0  0  0
   28.6270   15.5580   23.0670 C   0  0  0  0  0  0  0  0  0  0  0  0
   29.1670   16.5490   23.8700 C   0  0  0  0  0  0  0  0  0  0  0  0
   28.8730   16.5620   25.2130 C   0  0  0  0  0  0  0  0  0  0  0  0
   28.0530   15.6140   25.7860 C   0  0  0  0  0  0  0  0  0  0  0  0
   27.5310   14.6430   24.9710 C   0  0  0  0  0  0  0  0  0  0  0  0
   27.8090   14.6000   23.6030 C   0  0  0  0  0  0  0  0  0  0  0  0
   27.7740   15.6660   27.2400 C   0  0  0  0  0  0  0  0  0  0  0  0
   28.5630   16.3620   27.9150 O   0  0  0  0  0  0  0  0  0  0  0  0
   26.7100   14.9910   27.8190 N   0  0  0  0  0  0  0  0  0  0  0  0
   25.3300   14.9850   27.5180 C   0  0  0  0  0  0  0  0  0  0  0  0
   24.4110   14.2810   28.4270 C   0  0  0  0  0  0  0  0  0  0  0  0
   24.8600   13.2970   29.3310 N   0  0  0  0  0  0  0  0  0  0  0  0
   24.1820   12.0250   29.3110 C   0  0  0  0  0  0  0  0  0  0  0  0
   24.3550   11.2630   28.3470 O   0  0  0  0  0  0  0  0  0  0  0  0
   23.2850   11.6070   30.4140 C   0  0  0  0  0  0  0  0  0  0  0  0
   24.1000   10.8000   31.4000 C   0  0  0  0  0  0  0  0  0  0  0  0
   24.4070    9.4720   30.7450 C   0  0  0  0  0  0  0  0  0  0  0  0
   23.1360    8.7570   30.6920 N   0  0  0  0  0  0  0  0  0  0  0  0
   21.9250    9.4710   30.4690 C   0  0  0  0  0  0  0  0  0  0  0  0
   22.0860   10.8580   29.9610 C   0  0  0  0  0  0  0  0  0  0  0  0
   23.1690    7.3540   30.8690 C   0  0  0  0  0  0  0  0  0  0  0  0
   24.3120    6.6420   30.8620 N   0  0  0  0  0  0  0  0  0  0  0  0
   24.3600    5.3330   31.0230 N   0  0  0  0  0  0  0  0  0  0  0  0
   25.3770    4.4780   31.0460 N   0  0  0  0  0  0  0  0  0  0  0  0
   24.9470    3.2590   31.2360 N   0  0  0  0  0  0  0  0  0  0  0  0
   23.6360    3.3040   31.3430 N   0  0  0  0  0  0  0  0  0  0  0  0
   23.2610    4.5940   31.2100 C   0  0  0  0  0  0  0  0  0  0  0  0
   22.0530    5.2680   31.2270 C   0  0  0  0  0  0  0  0  0  0  0  0
   22.0010    6.6370   31.0580 C   0  0  0  0  0  0  0  0  0  0  0  0
   29.8170   17.3010   23.4200 H   0  0  0  0  0  0  0  0  0  0  0  0
   29.2870   17.3330   25.8640 H   0  0  0  0  0  0  0  0  0  0  0  0
   26.8920   13.8730   25.3350 H   0  0  0  0  0  0  0  0  0  0  0  0
   27.4000   13.8370   22.9610 H   0  0  0  0  0  0  0  0  0  0  0  0
   27.0410   14.3450   28.6620 H   0  0  0  0  0  0  0  0  0  0  0  0
   24.9760   16.0560   27.3850 H   0  0  0  0  0  0  0  0  0  0  0  0
   25.2340   14.5160   26.4840 H   0  0  0  0  0  0  0  0  0  0  0  0
   23.5010   13.9090   27.8320 H   0  0  0  0  0  0  0  0  0  0  0  0
   23.8980   15.0780   29.0760 H   0  0  0  0  0  0  0  0  0  0  0  0
   25.6340   13.3580   29.9880 H   0  0  0  0  0  0  0  0  0  0  0  0
   22.9540   12.5110   30.9900 H   0  0  0  0  0  0  0  0  0  0  0  0
   23.4400   10.5980   32.2740 H   0  0  0  0  0  0  0  0  0  0  0  0
   25.0120   11.3340   31.7220 H   0  0  0  0  0  0  0  0  0  0  0  0
   25.1360    8.8830   31.3490 H   0  0  0  0  0  0  0  0  0  0  0  0
   24.7500    9.5530   29.7030 H   0  0  0  0  0  0  0  0  0  0  0  0
   21.3640    9.5310   31.4450 H   0  0  0  0  0  0  0  0  0  0  0  0
   21.2480    8.9270   29.7620 H   0  0  0  0  0  0  0  0  0  0  0  0
   21.1720   11.4910   30.1600 H   0  0  0  0  0  0  0  0  0  0  0  0
   22.1300   10.8340   28.8300 H   0  0  0  0  0  0  0  0  0  0  0  0
   21.1510    4.6750   31.3770 H   0  0  0  0  0  0  0  0  0  0  0  0
   21.0420    7.1540   31.0760 H   0  0  0  0  0  0  0  0  0  0  0  0
  1  2  1  0  0  0  0
  2  7  2  0  0  0  0
  2  3  1  0  0  0  0
  3  4  2  0  0  0  0
  4  5  1  0  0  0  0
  4 32  1  0  0  0  0
  5  8  1  0  0  0  0
  6 33  1  0  0  0  0
  6  5  2  0  0  0  0
  7  6  1  0  0  0  0
  8 10  1  0  0  0  0
  8  9  2  0  0  0  0
 10 35  1  0  0  0  0
 11 10  1  0  0  0  0
 11 12  1  0  0  0  0
 12 39  1  0  0  0  0
 12 13  1  0  0  0  0
 13 40  1  0  0  0  0
 14 13  1  0  0  0  0
 14 16  1  0  0  0  0
 15 14  2  0  0  0  0
 16 41  1  0  0  0  0
 16 17  1  0  0  0  0
 17 43  1  0  0  0  0
 17 42  1  0  0  0  0
 18 44  1  0  0  0  0
 18 17  1  0  0  0  0
 19 18  1  0  0  0  0
 19 22  1  0  0  0  0
 20 19  1  0  0  0  0
 20 46  1  0  0  0  0
 21 48  1  0  0  0  0
 21 16  1  0  0  0  0
 21 20  1  0  0  0  0
 22 30  1  0  0  0  0
 23 22  2  0  0  0  0
 23 24  1  0  0  0  0
 24 25  1  0  0  0  0
 24 28  1  0  0  0  0
 25 26  2  0  0  0  0
 26 27  1  0  0  0  0
 28 29  1  0  0  0  0
 28 27  2  0  0  0  0
 29 50  1  0  0  0  0
 30 51  1  0  0  0  0
 30 29  2  0  0  0  0
 31  3  1  0  0  0  0
 34  7  1  0  0  0  0
 36 11  1  0  0  0  0
 37 11  1  0  0  0  0
 38 12  1  0  0  0  0
 45 18  1  0  0  0  0
 47 20  1  0  0  0  0
 49 21  1  0  0  0  0
M  END
>  <Pose>
1

>  <Score>
-7.12

$$$$
