
 OpenBabel03202209553D

 49 52  0  0  0  0  0  0  0  0999 V2000
   22.2240   20.0000   26.4760 B   0  0  0  0  0  0  0  0  0  0  0  0
   22.6180   18.3270   27.3200 C   0  0  0  0  0  0  0  0  0  0  0  0
   22.2700   18.0870   28.6350 C   0  0  0  0  0  0  0  0  0  0  0  0
   22.5580   16.8690   29.2430 C   0  0  0  0  0  0  0  0  0  0  0  0
   23.2020   15.8580   28.5600 C   0  0  0  0  0  0  0  0  0  0  0  0
   23.5470   16.1030   27.2490 C   0  0  0  0  0  0  0  0  0  0  0  0
   23.2610   17.3100   26.6440 C   0  0  0  0  0  0  0  0  0  0  0  0
   23.5120   14.6010   29.1490 N   0  0  0  0  0  0  0  0  0  0  0  0
   24.6250   13.8550   29.0580 C   0  0  0  0  0  0  0  0  0  0  0  0
   25.6210   14.2090   28.3780 O   0  0  0  0  0  0  0  0  0  0  0  0
   24.5080   12.6890   29.7970 C   0  0  0  0  0  0  0  0  0  0  0  0
   23.3010   12.7290   30.3470 C   0  0  0  0  0  0  0  0  0  0  0  0
   23.1880   11.5990   31.0620 N   0  0  0  0  0  0  0  0  0  0  0  0
   24.2960   10.8890   30.9520 N   0  0  0  0  0  0  0  0  0  0  0  0
   25.1210   11.5420   30.1780 N   0  0  0  0  0  0  0  0  0  0  0  0
   26.4500   11.1500   29.7750 C   0  0  0  0  0  0  0  0  0  0  0  0
   26.4240    9.7120   29.3150 C   0  0  0  0  0  0  0  0  0  0  0  0
   26.5740    9.4580   28.0990 O   0  0  0  0  0  0  0  0  0  0  0  0
   26.2330    8.6780   30.2440 N   0  0  0  0  0  0  0  0  0  0  0  0
   25.0490    7.9350   30.4210 C   0  0  0  0  0  0  0  0  0  0  0  0
   23.8170    8.4470   30.7380 C   0  0  0  0  0  0  0  0  0  0  0  0
   22.6970    7.6620   30.9160 C   0  0  0  0  0  0  0  0  0  0  0  0
   22.8310    6.2980   30.7650 C   0  0  0  0  0  0  0  0  0  0  0  0
   24.0580    5.7410   30.4440 C   0  0  0  0  0  0  0  0  0  0  0  0
   25.1560    6.5390   30.2740 C   0  0  0  0  0  0  0  0  0  0  0  0
   21.7130    5.4870   30.9390 O   0  0  0  0  0  0  0  0  0  0  0  0
   21.1240    5.3910   32.2210 C   0  0  0  0  0  0  0  0  0  0  0  0
   21.4570    8.2110   31.2380 O   0  0  0  0  0  0  0  0  0  0  0  0
   21.1510    8.3860   32.6270 C   0  0  0  0  0  0  0  0  0  0  0  0
   22.6840   13.8980   29.9540 C   0  0  0  0  0  0  0  0  0  0  0  0
   21.5110   14.2640   30.2960 O   0  0  0  0  0  0  0  0  0  0  0  0
   21.7620   18.8900   29.1670 H   0  0  0  0  0  0  0  0  0  0  0  0
   22.2830   16.6910   30.2680 H   0  0  0  0  0  0  0  0  0  0  0  0
   24.0540   15.3010   26.7170 H   0  0  0  0  0  0  0  0  0  0  0  0
   23.5480   17.4750   25.6020 H   0  0  0  0  0  0  0  0  0  0  0  0
   22.3700   11.2950   31.6280 H   0  0  0  0  0  0  0  0  0  0  0  0
   24.5060    9.9490   31.4030 H   0  0  0  0  0  0  0  0  0  0  0  0
   27.1900   11.2140   30.6080 H   0  0  0  0  0  0  0  0  0  0  0  0
   26.8010   11.7410   28.9150 H   0  0  0  0  0  0  0  0  0  0  0  0
   27.0690    8.4340   30.8680 H   0  0  0  0  0  0  0  0  0  0  0  0
   23.6820    9.5140   30.8540 H   0  0  0  0  0  0  0  0  0  0  0  0
   24.1290    4.6570   30.3330 H   0  0  0  0  0  0  0  0  0  0  0  0
   26.1280    6.0810   30.0190 H   0  0  0  0  0  0  0  0  0  0  0  0
   20.9120    6.4370   32.5470 H   0  0  0  0  0  0  0  0  0  0  0  0
   21.8380    4.9360   32.9200 H   0  0  0  0  0  0  0  0  0  0  0  0
   20.1690    4.8210   32.1380 H   0  0  0  0  0  0  0  0  0  0  0  0
   21.8490    9.1440   33.0790 H   0  0  0  0  0  0  0  0  0  0  0  0
   20.1040    8.7250   32.7560 H   0  0  0  0  0  0  0  0  0  0  0  0
   21.2810    7.4300   33.1750 H   0  0  0  0  0  0  0  0  0  0  0  0
  1  2  1  0  0  0  0
  2  3  1  0  0  0  0
  3 32  1  0  0  0  0
  3  4  2  0  0  0  0
  4 33  1  0  0  0  0
  5  8  1  0  0  0  0
  5  4  1  0  0  0  0
  6  5  2  0  0  0  0
  7  6  1  0  0  0  0
  7  2  2  0  0  0  0
  8 30  1  0  0  0  0
  9  8  1  0  0  0  0
  9 11  1  0  0  0  0
 10  9  2  0  0  0  0
 11 15  1  0  0  0  0
 11 12  2  0  0  0  0
 12 13  1  0  0  0  0
 13 36  1  0  0  0  0
 14 13  1  0  0  0  0
 14 37  1  0  0  0  0
 15 14  1  0  0  0  0
 16 15  1  0  0  0  0
 16 38  1  0  0  0  0
 17 16  1  0  0  0  0
 17 19  1  0  0  0  0
 18 17  2  0  0  0  0
 19 20  1  0  0  0  0
 19 40  1  0  0  0  0
 20 21  1  0  0  0  0
 21 41  1  0  0  0  0
 21 22  2  0  0  0  0
 22 28  1  0  0  0  0
 23 22  1  0  0  0  0
 23 26  1  0  0  0  0
 24 23  2  0  0  0  0
 25 20  2  0  0  0  0
 25 24  1  0  0  0  0
 26 27  1  0  0  0  0
 27 44  1  0  0  0  0
 27 45  1  0  0  0  0
 28 29  1  0  0  0  0
 29 48  1  0  0  0  0
 29 47  1  0  0  0  0
 29 49  1  0  0  0  0
 30 31  2  0  0  0  0
 30 12  1  0  0  0  0
 34  6  1  0  0  0  0
 35  7  1  0  0  0  0
 39 16  1  0  0  0  0
 42 24  1  0  0  0  0
 43 25  1  0  0  0  0
 46 27  1  0  0  0  0
M  END
>  <Pose>
1

>  <Score>
-7.46

$$$$
