
 OpenBabel03202209553D

 52 55  0  0  0  0  0  0  0  0999 V2000
   26.5570   10.9180   28.9820 Cl  0  0  0  0  0  0  0  0  0  0  0  0
   25.0650   10.8250   29.8970 C   0  0  0  0  0  0  0  0  0  0  0  0
   23.9480   11.4930   29.4170 C   0  0  0  0  0  0  0  0  0  0  0  0
   22.7360   11.4600   30.0900 C   0  0  0  0  0  0  0  0  0  0  0  0
   22.6300   10.7510   31.2660 C   0  0  0  0  0  0  0  0  0  0  0  0
   23.7680   10.0890   31.7250 C   0  0  0  0  0  0  0  0  0  0  0  0
   24.9710   10.1100   31.0730 C   0  0  0  0  0  0  0  0  0  0  0  0
   21.3820   10.6770   32.0220 C   0  0  0  0  0  0  0  0  0  0  0  0
   20.9590   11.7390   32.5450 O   0  0  0  0  0  0  0  0  0  0  0  0
   20.6660    9.4890   32.1730 N   0  0  0  0  0  0  0  0  0  0  0  0
   20.0720    9.0550   33.4220 C   0  0  0  0  0  0  0  0  0  0  0  0
   18.7500    8.4100   33.1510 C   0  0  0  0  0  0  0  0  0  0  0  0
   18.8610    6.9540   32.9090 C   0  0  0  0  0  0  0  0  0  0  0  0
   17.8600    6.2350   33.1490 O   0  0  0  0  0  0  0  0  0  0  0  0
   20.0560    6.3760   32.4200 N   0  0  0  0  0  0  0  0  0  0  0  0
   20.4380    6.4170   31.0230 C   0  0  0  0  0  0  0  0  0  0  0  0
   21.2060    5.1390   30.7170 C   0  0  0  0  0  0  0  0  0  0  0  0
   22.5000    5.0910   31.5280 C   0  0  0  0  0  0  0  0  0  0  0  0
   22.7350    3.7130   31.8500 N   0  0  0  0  0  0  0  0  0  0  0  0
   24.1210    3.4600   32.1820 C   0  0  0  0  0  0  0  0  0  0  0  0
   24.9520    3.5660   30.9050 C   0  0  0  0  0  0  0  0  0  0  0  0
   24.7670    4.9570   30.4010 C   0  0  0  0  0  0  0  0  0  0  0  0
   25.5650    5.7610   29.6370 N   0  0  0  0  0  0  0  0  0  0  0  0
   24.9270    6.9310   29.4640 C   0  0  0  0  0  0  0  0  0  0  0  0
   23.7490    6.8600   30.1110 N   0  0  0  0  0  0  0  0  0  0  0  0
   23.6120    5.6400   30.7090 C   0  0  0  0  0  0  0  0  0  0  0  0
   22.3590    5.8820   32.8110 C   0  0  0  0  0  0  0  0  0  0  0  0
   20.9630    5.7040   33.3300 C   0  0  0  0  0  0  0  0  0  0  0  0
   24.0370   12.0490   28.4940 H   0  0  0  0  0  0  0  0  0  0  0  0
   21.8690   12.0050   29.6780 H   0  0  0  0  0  0  0  0  0  0  0  0
   23.6730    9.5350   32.6470 H   0  0  0  0  0  0  0  0  0  0  0  0
   25.8530    9.6020   31.4210 H   0  0  0  0  0  0  0  0  0  0  0  0
   20.5240    8.8380   31.3640 H   0  0  0  0  0  0  0  0  0  0  0  0
   19.8740    9.9760   34.0140 H   0  0  0  0  0  0  0  0  0  0  0  0
   20.7620    8.4230   33.9970 H   0  0  0  0  0  0  0  0  0  0  0  0
   18.0670    8.5880   34.0350 H   0  0  0  0  0  0  0  0  0  0  0  0
   18.2640    8.9130   32.3130 H   0  0  0  0  0  0  0  0  0  0  0  0
   19.5020    6.3510   30.4060 H   0  0  0  0  0  0  0  0  0  0  0  0
   21.0060    7.3070   30.7580 H   0  0  0  0  0  0  0  0  0  0  0  0
   20.5960    4.2530   30.8860 H   0  0  0  0  0  0  0  0  0  0  0  0
   21.5030    5.1820   29.6500 H   0  0  0  0  0  0  0  0  0  0  0  0
   22.1170    3.3850   32.6180 H   0  0  0  0  0  0  0  0  0  0  0  0
   24.4650    4.2900   32.8310 H   0  0  0  0  0  0  0  0  0  0  0  0
   24.2770    2.5190   32.7030 H   0  0  0  0  0  0  0  0  0  0  0  0
   26.0000    3.3580   31.1810 H   0  0  0  0  0  0  0  0  0  0  0  0
   24.5900    2.8530   30.1360 H   0  0  0  0  0  0  0  0  0  0  0  0
   26.4960    5.4400   29.2880 H   0  0  0  0  0  0  0  0  0  0  0  0
   25.3440    7.7490   28.8930 H   0  0  0  0  0  0  0  0  0  0  0  0
   23.0590    5.5590   33.5880 H   0  0  0  0  0  0  0  0  0  0  0  0
   22.5160    6.9700   32.6170 H   0  0  0  0  0  0  0  0  0  0  0  0
   20.9310    6.1430   34.3480 H   0  0  0  0  0  0  0  0  0  0  0  0
   20.7010    4.6200   33.4110 H   0  0  0  0  0  0  0  0  0  0  0  0
  1  2  1  0  0  0  0
  2  7  1  0  0  0  0
  3  2  2  0  0  0  0
  3  4  1  0  0  0  0
  4  5  2  0  0  0  0
  5  6  1  0  0  0  0
  5  8  1  0  0  0  0
  6 31  1  0  0  0  0
  7 32  1  0  0  0  0
  7  6  2  0  0  0  0
  8 10  1  0  0  0  0
  8  9  2  0  0  0  0
 10 11  1  0  0  0  0
 11 35  1  0  0  0  0
 11 34  1  0  0  0  0
 12 11  1  0  0  0  0
 12 36  1  0  0  0  0
 13 14  2  0  0  0  0
 13 12  1  0  0  0  0
 15 13  1  0  0  0  0
 15 28  1  0  0  0  0
 16 15  1  0  0  0  0
 17 40  1  0  0  0  0
 17 16  1  0  0  0  0
 17 18  1  0  0  0  0
 18 19  1  0  0  0  0
 18 27  1  0  0  0  0
 19 20  1  0  0  0  0
 19 42  1  0  0  0  0
 20 44  1  0  0  0  0
 20 43  1  0  0  0  0
 21 45  1  0  0  0  0
 21 20  1  0  0  0  0
 22 26  2  0  0  0  0
 22 21  1  0  0  0  0
 23 22  1  0  0  0  0
 24 23  1  0  0  0  0
 24 25  2  0  0  0  0
 25 26  1  0  0  0  0
 26 18  1  0  0  0  0
 27 28  1  0  0  0  0
 27 49  1  0  0  0  0
 28 52  1  0  0  0  0
 28 51  1  0  0  0  0
 29  3  1  0  0  0  0
 30  4  1  0  0  0  0
 33 10  1  0  0  0  0
 37 12  1  0  0  0  0
 38 16  1  0  0  0  0
 39 16  1  0  0  0  0
 41 17  1  0  0  0  0
 46 21  1  0  0  0  0
 47 23  1  0  0  0  0
 48 24  1  0  0  0  0
 50 27  1  0  0  0  0
M  END
>  <Pose>
1

>  <Score>
-6.15

$$$$
