
 OpenBabel03202209553D

 43 46  0  0  0  0  0  0  0  0999 V2000
   23.5550   16.0430   33.7860 B   0  0  0  0  0  0  0  0  0  0  0  0
   22.5100   15.2180   32.4210 C   0  0  0  0  0  0  0  0  0  0  0  0
   22.9050   13.9880   31.8750 C   0  0  0  0  0  0  0  0  0  0  0  0
   22.1440   13.4040   30.8920 C   0  0  0  0  0  0  0  0  0  0  0  0
   21.0090   14.0410   30.4650 C   0  0  0  0  0  0  0  0  0  0  0  0
   20.6060   15.2690   31.0040 C   0  0  0  0  0  0  0  0  0  0  0  0
   21.3740   15.8460   31.9870 C   0  0  0  0  0  0  0  0  0  0  0  0
   22.5270   12.1610   30.3270 N   0  0  0  0  0  0  0  0  0  0  0  0
   22.9910   11.9690   29.0880 N   0  0  0  0  0  0  0  0  0  0  0  0
   23.2500   10.6970   28.8860 N   0  0  0  0  0  0  0  0  0  0  0  0
   22.9590   10.0050   29.9970 C   0  0  0  0  0  0  0  0  0  0  0  0
   22.5060   10.9430   30.8940 C   0  0  0  0  0  0  0  0  0  0  0  0
   23.0970    8.5460   30.2150 C   0  0  0  0  0  0  0  0  0  0  0  0
   21.9920    7.9090   30.3370 O   0  0  0  0  0  0  0  0  0  0  0  0
   24.3160    7.8720   30.2890 N   0  0  0  0  0  0  0  0  0  0  0  0
   24.3610    6.5370   30.8200 C   0  0  0  0  0  0  0  0  0  0  0  0
   24.7420    5.5960   29.7110 C   0  0  0  0  0  0  0  0  0  0  0  0
   25.8350    6.1530   28.9670 N   0  0  0  0  0  0  0  0  0  0  0  0
   26.5590    7.2550   29.6300 C   0  0  0  0  0  0  0  0  0  0  0  0
   25.5920    8.4060   29.8680 C   0  0  0  0  0  0  0  0  0  0  0  0
   26.2850    5.7820   27.7000 C   0  0  0  0  0  0  0  0  0  0  0  0
   25.4610    5.0430   27.0210 O   0  0  0  0  0  0  0  0  0  0  0  0
   27.5320    6.0890   27.0100 C   0  0  0  0  0  0  0  0  0  0  0  0
   27.6160    6.6230   25.6510 C   0  0  0  0  0  0  0  0  0  0  0  0
   28.0810    7.4570   26.8410 C   0  0  0  0  0  0  0  0  0  0  0  0
   23.8130   13.5550   32.2690 H   0  0  0  0  0  0  0  0  0  0  0  0
   20.3660   13.6390   29.6990 H   0  0  0  0  0  0  0  0  0  0  0  0
   19.7150   15.7760   30.6730 H   0  0  0  0  0  0  0  0  0  0  0  0
   21.0640   16.8050   32.4120 H   0  0  0  0  0  0  0  0  0  0  0  0
   22.1810   10.7280   31.9000 H   0  0  0  0  0  0  0  0  0  0  0  0
   23.4290    6.2420   31.3370 H   0  0  0  0  0  0  0  0  0  0  0  0
   25.1420    6.5480   31.6150 H   0  0  0  0  0  0  0  0  0  0  0  0
   24.9940    4.5820   30.1230 H   0  0  0  0  0  0  0  0  0  0  0  0
   23.8920    5.4680   29.0110 H   0  0  0  0  0  0  0  0  0  0  0  0
   26.9900    6.8370   30.5460 H   0  0  0  0  0  0  0  0  0  0  0  0
   27.3220    7.6080   28.9320 H   0  0  0  0  0  0  0  0  0  0  0  0
   25.4680    9.0250   28.9790 H   0  0  0  0  0  0  0  0  0  0  0  0
   25.9950    9.0110   30.6890 H   0  0  0  0  0  0  0  0  0  0  0  0
   28.3930    5.3630   27.2720 H   0  0  0  0  0  0  0  0  0  0  0  0
   28.4510    6.2680   24.9620 H   0  0  0  0  0  0  0  0  0  0  0  0
   26.7750    7.0220   25.0650 H   0  0  0  0  0  0  0  0  0  0  0  0
   27.5790    8.3780   27.0850 H   0  0  0  0  0  0  0  0  0  0  0  0
   29.2070    7.5920   26.9010 H   0  0  0  0  0  0  0  0  0  0  0  0
  2  1  1  0  0  0  0
  3 26  1  0  0  0  0
  3  2  2  0  0  0  0
  4  3  1  0  0  0  0
  5  4  2  0  0  0  0
  5  6  1  0  0  0  0
  6  7  2  0  0  0  0
  7 29  1  0  0  0  0
  7  2  1  0  0  0  0
  8  4  1  0  0  0  0
  8 12  1  0  0  0  0
  9  8  1  0  0  0  0
 10  9  2  0  0  0  0
 10 11  1  0  0  0  0
 11 13  1  0  0  0  0
 11 12  2  0  0  0  0
 12 30  1  0  0  0  0
 13 15  1  0  0  0  0
 13 14  2  0  0  0  0
 15 16  1  0  0  0  0
 16 31  1  0  0  0  0
 16 32  1  0  0  0  0
 17 33  1  0  0  0  0
 17 16  1  0  0  0  0
 18 19  1  0  0  0  0
 18 17  1  0  0  0  0
 19 20  1  0  0  0  0
 19 35  1  0  0  0  0
 20 15  1  0  0  0  0
 20 38  1  0  0  0  0
 21 18  1  0  0  0  0
 22 21  2  0  0  0  0
 23 39  1  0  0  0  0
 23 21  1  0  0  0  0
 24 25  1  0  0  0  0
 24 23  1  0  0  0  0
 25 43  1  0  0  0  0
 25 23  1  0  0  0  0
 25 42  1  0  0  0  0
 27  5  1  0  0  0  0
 28  6  1  0  0  0  0
 34 17  1  0  0  0  0
 36 19  1  0  0  0  0
 37 20  1  0  0  0  0
 40 24  1  0  0  0  0
 41 24  1  0  0  0  0
M  END
>  <Pose>
1

>  <Score>
-6.23

$$$$
