
 OpenBabel03202209553D

 46 49  0  0  1  0  0  0  0  0999 V2000
   25.9420    6.8650   29.0780 Cl  0  0  0  0  0  0  0  0  0  0  0  0
   25.1270    5.6400   30.0140 C   0  0  0  0  0  0  0  0  0  0  0  0
   25.8590    4.5710   30.4790 C   0  0  0  0  0  0  0  0  0  0  0  0
   25.2030    3.6140   31.2140 C   0  0  0  0  0  0  0  0  0  0  0  0
   23.8300    3.7520   31.4650 C   0  0  0  0  0  0  0  0  0  0  0  0
   23.0710    4.7930   31.0230 C   0  0  0  0  0  0  0  0  0  0  0  0
   23.8010    5.7480   30.2720 C   0  0  0  0  0  0  0  0  0  0  0  0
   21.6640    4.9870   31.2450 C   0  0  2  0  0  0  0  0  0  0  0  0
   20.9000    4.5120   30.2810 O   0  0  0  0  0  0  0  0  0  0  0  0
   20.9370    5.6060   32.3290 C   0  0  0  0  0  0  0  0  0  0  0  0
   20.7010    7.0090   32.3630 N   0  0  0  0  0  0  0  0  0  0  0  0
   19.5660    7.6280   32.8170 C   0  0  1  0  0  0  0  0  0  0  0  0
   19.7480    8.9360   32.6230 N   0  0  0  0  0  0  0  0  0  0  0  0
   20.9410    9.2060   32.0680 C   0  0  0  0  0  0  0  0  0  0  0  0
   21.5460    7.9730   31.9030 C   0  0  0  0  0  0  0  0  0  0  0  0
   21.5230   10.4960   31.6980 C   0  0  0  0  0  0  0  0  0  0  0  0
   20.9770   11.7160   32.0050 C   0  0  0  0  0  0  0  0  0  0  0  0
   21.5960   12.9130   31.6170 C   0  0  0  0  0  0  0  0  0  0  0  0
   22.7780   12.9240   30.9090 C   0  0  0  0  0  0  0  0  0  0  0  0
   23.3330   11.7030   30.5950 C   0  0  0  0  0  0  0  0  0  0  0  0
   22.7230   10.5280   30.9790 C   0  0  0  0  0  0  0  0  0  0  0  0
   23.4010   14.1010   30.5180 O   0  0  0  0  0  0  0  0  0  0  0  0
   23.4600   14.4620   29.1500 C   0  0  0  0  0  0  0  0  0  0  0  0
   18.5820    9.6830   33.0820 C   0  0  0  0  0  0  0  0  0  0  0  0
   17.6740    8.6600   33.6980 C   0  0  0  0  0  0  0  0  0  0  0  0
   18.2510    7.3160   33.4290 C   0  0  0  0  0  0  0  0  0  0  0  0
   27.5700    4.4040   30.1630 Cl  0  0  0  0  0  0  0  0  0  0  0  0
   25.7660    2.7820   31.5780 H   0  0  0  0  0  0  0  0  0  0  0  0
   23.4250    2.9620   32.0410 H   0  0  0  0  0  0  0  0  0  0  0  0
   23.2760    6.6040   29.8840 H   0  0  0  0  0  0  0  0  0  0  0  0
   19.9090    5.0880   32.4720 H   0  0  0  0  0  0  0  0  0  0  0  0
   21.4150    5.3060   33.3430 H   0  0  0  0  0  0  0  0  0  0  0  0
   22.5300    7.7780   31.4810 H   0  0  0  0  0  0  0  0  0  0  0  0
   20.0590   11.7530   32.5520 H   0  0  0  0  0  0  0  0  0  0  0  0
   21.1560   13.8690   31.8650 H   0  0  0  0  0  0  0  0  0  0  0  0
   24.2690   11.6930   30.0350 H   0  0  0  0  0  0  0  0  0  0  0  0
   23.1670    9.5640   30.7280 H   0  0  0  0  0  0  0  0  0  0  0  0
   22.4190   14.7540   28.8510 H   0  0  0  0  0  0  0  0  0  0  0  0
   24.1350   15.3320   29.0280 H   0  0  0  0  0  0  0  0  0  0  0  0
   23.7720   13.5990   28.5230 H   0  0  0  0  0  0  0  0  0  0  0  0
   18.8330   10.4090   33.8930 H   0  0  0  0  0  0  0  0  0  0  0  0
   18.1100   10.2190   32.2350 H   0  0  0  0  0  0  0  0  0  0  0  0
   17.5590    8.7890   34.8020 H   0  0  0  0  0  0  0  0  0  0  0  0
   16.6550    8.7970   33.2330 H   0  0  0  0  0  0  0  0  0  0  0  0
   18.3800    6.6850   34.3290 H   0  0  0  0  0  0  0  0  0  0  0  0
   17.5940    6.7440   32.7250 H   0  0  0  0  0  0  0  0  0  0  0  0
  1  2  1  0  0  0  0
  2  7  2  0  0  0  0
  2  3  1  0  0  0  0
  3  4  2  0  0  0  0
  4  5  1  0  0  0  0
  4 28  1  0  0  0  0
  5 29  1  0  0  0  0
  6  8  1  0  0  0  0
  6  5  2  0  0  0  0
  7  6  1  0  0  0  0
  8  9  1  6  0  0  0
  8 10  1  0  0  0  0
 10 11  1  0  0  0  0
 10 31  1  0  0  0  0
 10 32  1  0  0  0  0
 12 11  1  6  0  0  0
 12 26  1  0  0  0  0
 13 12  1  0  0  0  0
 13 24  1  0  0  0  0
 14 13  1  0  0  0  0
 15 14  2  0  0  0  0
 15 11  1  0  0  0  0
 16 17  1  0  0  0  0
 16 14  1  0  0  0  0
 17 34  1  0  0  0  0
 18 35  1  0  0  0  0
 18 17  2  0  0  0  0
 19 18  1  0  0  0  0
 20 19  2  0  0  0  0
 20 21  1  0  0  0  0
 21 16  2  0  0  0  0
 22 19  1  0  0  0  0
 23 22  1  0  0  0  0
 24 25  1  0  0  0  0
 24 41  1  0  0  0  0
 25 43  1  0  0  0  0
 26 25  1  0  0  0  0
 26 45  1  0  0  0  0
 27  3  1  0  0  0  0
 30  7  1  0  0  0  0
 33 15  1  0  0  0  0
 36 20  1  0  0  0  0
 37 21  1  0  0  0  0
 38 23  1  0  0  0  0
 39 23  1  0  0  0  0
 40 23  1  0  0  0  0
 42 24  1  0  0  0  0
 44 25  1  0  0  0  0
 46 26  1  0  0  0  0
M  END
>  <Pose>
1

>  <Score>
-6.48

$$$$
