
 OpenBabel03202209553D

 55 58  0  0  0  0  0  0  0  0999 V2000
   25.2200    6.3590   29.6460 S   0  0  0  0  0  0  0  0  0  0  0  0
   26.4040    5.6500   28.9810 O   0  0  0  0  0  0  0  0  0  0  0  0
   24.2900    6.6610   28.4690 O   0  0  0  0  0  0  0  0  0  0  0  0
   25.7640    7.7740   30.3040 N   0  0  0  0  0  0  0  0  0  0  0  0
   25.0580    8.5360   31.2280 C   0  0  0  0  0  0  0  0  0  0  0  0
   24.1910    9.6230   30.6790 C   0  0  0  0  0  0  0  0  0  0  0  0
   24.6970   10.0110   29.2920 C   0  0  0  0  0  0  0  0  0  0  0  0
   26.2250   10.0210   29.4570 C   0  0  0  0  0  0  0  0  0  0  0  0
   26.6340    8.5570   29.4350 C   0  0  0  0  0  0  0  0  0  0  0  0
   24.1880   11.3010   28.8590 C   0  0  0  0  0  0  0  0  0  0  0  0
   24.4150   11.6980   27.6860 O   0  0  0  0  0  0  0  0  0  0  0  0
   23.4450   12.1210   29.7150 N   0  0  0  0  0  0  0  0  0  0  0  0
   24.0170   13.2830   30.4050 C   0  0  0  0  0  0  0  0  0  0  0  0
   22.9600   13.7630   31.3780 C   0  0  0  0  0  0  0  0  0  0  0  0
   21.7730   14.1890   30.6630 N   0  0  0  0  0  0  0  0  0  0  0  0
   21.2110   13.1050   29.8770 C   0  0  0  0  0  0  0  0  0  0  0  0
   22.0610   11.8520   29.9890 C   0  0  0  0  0  0  0  0  0  0  0  0
   20.7850   14.7290   31.5720 C   0  0  0  0  0  0  0  0  0  0  0  0
   24.4950    5.1720   30.6910 C   0  0  0  0  0  0  0  0  0  0  0  0
   25.2520    4.0570   31.0900 C   0  0  0  0  0  0  0  0  0  0  0  0
   24.7340    3.0560   31.8700 C   0  0  0  0  0  0  0  0  0  0  0  0
   23.4400    3.1260   32.2850 C   0  0  0  0  0  0  0  0  0  0  0  0
   22.6540    4.1910   31.9290 C   0  0  0  0  0  0  0  0  0  0  0  0
   23.2050    5.1990   31.1350 C   0  0  0  0  0  0  0  0  0  0  0  0
   22.1770    6.5760   30.7730 Cl  0  0  0  0  0  0  0  0  0  0  0  0
   22.9140    2.0640   33.0990 N   0  0  0  0  0  0  0  0  0  0  0  0
   23.7480    0.9730   33.4480 C   0  0  0  0  0  0  0  0  0  0  0  0
   23.4930    0.2390   34.4260 O   0  0  0  0  0  0  0  0  0  0  0  0
   24.9470    0.7290   32.6050 C   0  0  0  0  0  0  0  0  0  0  0  0
   25.5200    1.9590   32.2470 O   0  0  0  0  0  0  0  0  0  0  0  0
   24.5030    7.9370   31.9510 H   0  0  0  0  0  0  0  0  0  0  0  0
   25.8610    9.0370   31.8960 H   0  0  0  0  0  0  0  0  0  0  0  0
   24.3160   10.5390   31.3090 H   0  0  0  0  0  0  0  0  0  0  0  0
   23.1170    9.4200   30.6530 H   0  0  0  0  0  0  0  0  0  0  0  0
   24.4330    9.1940   28.6000 H   0  0  0  0  0  0  0  0  0  0  0  0
   26.7410   10.6040   28.7010 H   0  0  0  0  0  0  0  0  0  0  0  0
   26.4030   10.4210   30.4970 H   0  0  0  0  0  0  0  0  0  0  0  0
   27.7040    8.4390   29.6730 H   0  0  0  0  0  0  0  0  0  0  0  0
   26.4750    8.1930   28.4030 H   0  0  0  0  0  0  0  0  0  0  0  0
   24.1580   14.0750   29.6100 H   0  0  0  0  0  0  0  0  0  0  0  0
   24.9520   13.0270   30.9050 H   0  0  0  0  0  0  0  0  0  0  0  0
   22.7540   12.9120   32.0850 H   0  0  0  0  0  0  0  0  0  0  0  0
   23.3710   14.6070   31.9620 H   0  0  0  0  0  0  0  0  0  0  0  0
   21.1340   13.3870   28.8200 H   0  0  0  0  0  0  0  0  0  0  0  0
   20.2260   12.8500   30.3190 H   0  0  0  0  0  0  0  0  0  0  0  0
   21.9660   11.3950   31.0050 H   0  0  0  0  0  0  0  0  0  0  0  0
   21.6800   11.1080   29.2890 H   0  0  0  0  0  0  0  0  0  0  0  0
   20.0140   15.2380   30.9650 H   0  0  0  0  0  0  0  0  0  0  0  0
   21.2540   15.4790   32.2260 H   0  0  0  0  0  0  0  0  0  0  0  0
   20.2570   13.9260   32.1460 H   0  0  0  0  0  0  0  0  0  0  0  0
   26.2880    4.0120   30.7500 H   0  0  0  0  0  0  0  0  0  0  0  0
   21.6380    4.2500   32.2520 H   0  0  0  0  0  0  0  0  0  0  0  0
   21.9270    2.1090   33.4210 H   0  0  0  0  0  0  0  0  0  0  0  0
   25.6970    0.1130   33.1480 H   0  0  0  0  0  0  0  0  0  0  0  0
   24.6810    0.2000   31.6780 H   0  0  0  0  0  0  0  0  0  0  0  0
  1  4  1  0  0  0  0
  1 19  1  0  0  0  0
  2  1  2  0  0  0  0
  3  1  2  0  0  0  0
  4  5  1  0  0  0  0
  5 32  1  0  0  0  0
  5 31  1  0  0  0  0
  6  5  1  0  0  0  0
  6 33  1  0  0  0  0
  7  8  1  0  0  0  0
  7  6  1  0  0  0  0
  8 37  1  0  0  0  0
  9  8  1  0  0  0  0
  9 38  1  0  0  0  0
  9  4  1  0  0  0  0
 10  7  1  0  0  0  0
 10 12  1  0  0  0  0
 11 10  2  0  0  0  0
 12 17  1  0  0  0  0
 12 13  1  0  0  0  0
 13 41  1  0  0  0  0
 13 14  1  0  0  0  0
 14 43  1  0  0  0  0
 14 42  1  0  0  0  0
 15 14  1  0  0  0  0
 15 18  1  0  0  0  0
 16 17  1  0  0  0  0
 16 45  1  0  0  0  0
 16 15  1  0  0  0  0
 17 46  1  0  0  0  0
 18 50  1  0  0  0  0
 18 49  1  0  0  0  0
 19 20  2  0  0  0  0
 19 24  1  0  0  0  0
 20 21  1  0  0  0  0
 21 30  1  0  0  0  0
 21 22  2  0  0  0  0
 22 26  1  0  0  0  0
 23 52  1  0  0  0  0
 23 22  1  0  0  0  0
 24 23  2  0  0  0  0
 25 24  1  0  0  0  0
 26 53  1  0  0  0  0
 26 27  1  0  0  0  0
 27 28  2  0  0  0  0
 29 54  1  0  0  0  0
 29 27  1  0  0  0  0
 30 29  1  0  0  0  0
 34  6  1  0  0  0  0
 35  7  1  0  0  0  0
 36  8  1  0  0  0  0
 39  9  1  0  0  0  0
 40 13  1  0  0  0  0
 44 16  1  0  0  0  0
 47 17  1  0  0  0  0
 48 18  1  0  0  0  0
 51 20  1  0  0  0  0
 55 29  1  0  0  0  0
M  END
>  <Pose>
1

>  <Score>
-6.62

$$$$
