
 OpenBabel03202209553D

 46 49  0  0  1  0  0  0  0  0999 V2000
   23.7020    6.5960   30.6430 B   0  0  0  0  0  0  0  0  0  0  0  0
   23.7130    8.4390   30.0820 C   0  0  0  0  0  0  0  0  0  0  0  0
   24.8860    9.0660   29.7330 C   0  0  0  0  0  0  0  0  0  0  0  0
   24.9270   10.3460   29.3380 N   0  0  0  0  0  0  0  0  0  0  0  0
   23.7930   11.0880   29.2640 C   0  0  0  0  0  0  0  0  0  0  0  0
   23.7800   12.3660   28.8760 N   0  0  0  0  0  0  0  0  0  0  0  0
   24.9080   13.0160   28.5270 C   0  0  0  0  0  0  0  0  0  0  0  0
   26.0810   12.2930   28.5900 C   0  0  0  0  0  0  0  0  0  0  0  0
   26.0810   10.9730   28.9930 C   0  0  0  0  0  0  0  0  0  0  0  0
   27.1320   10.2760   29.0640 O   0  0  0  0  0  0  0  0  0  0  0  0
   24.9250   14.4320   28.0920 C   0  0  0  0  0  0  0  0  0  0  0  0
   23.8890   15.1870   28.6560 O   0  0  0  0  0  0  0  0  0  0  0  0
   23.2780   16.2720   28.0700 C   0  0  0  0  0  0  0  0  0  0  0  0
   23.3960   16.3600   26.8150 O   0  0  0  0  0  0  0  0  0  0  0  0
   22.5220   17.2890   28.8490 C   0  0  0  0  0  0  0  0  0  0  0  0
   21.7750   16.6750   29.9480 N   0  0  0  0  0  0  0  0  0  0  0  0
   20.8650   15.5810   29.8710 C   0  0  0  0  0  0  0  0  0  0  0  0
   20.6810   14.8360   28.8760 O   0  0  0  0  0  0  0  0  0  0  0  0
   20.1720   15.4750   31.1760 C   0  0  2  0  0  0  0  0  0  0  0  0
   21.2560   15.9720   32.1030 C   0  0  1  0  0  0  0  0  0  0  0  0
   22.3430   14.9430   32.3450 C   0  0  0  0  0  0  0  0  0  0  0  0
   22.0190   13.5930   31.7610 C   0  0  0  0  0  0  0  0  0  0  0  0
   20.6140   13.1800   32.0980 C   0  0  0  0  0  0  0  0  0  0  0  0
   19.6480   14.1340   31.4920 C   0  0  0  0  0  0  0  0  0  0  0  0
   21.8240   17.0830   31.3040 C   0  0  0  0  0  0  0  0  0  0  0  0
   22.2730   18.1940   31.7280 O   0  0  0  0  0  0  0  0  0  0  0  0
   22.5840   10.4870   29.6090 C   0  0  0  0  0  0  0  0  0  0  0  0
   22.5550    9.1700   30.0140 C   0  0  0  0  0  0  0  0  0  0  0  0
   25.7980    8.4980   29.7840 H   0  0  0  0  0  0  0  0  0  0  0  0
   27.0460   12.7310   28.3270 H   0  0  0  0  0  0  0  0  0  0  0  0
   25.8910   14.8610   28.4240 H   0  0  0  0  0  0  0  0  0  0  0  0
   24.8250   14.4240   26.9770 H   0  0  0  0  0  0  0  0  0  0  0  0
   23.1700   18.0660   29.2800 H   0  0  0  0  0  0  0  0  0  0  0  0
   21.8220   17.7840   28.1510 H   0  0  0  0  0  0  0  0  0  0  0  0
   19.3690   16.2330   31.1910 H   0  0  0  0  0  0  0  0  0  0  0  0
   20.8300   16.3340   33.0680 H   0  0  0  0  0  0  0  0  0  0  0  0
   22.5250   14.8050   33.4450 H   0  0  0  0  0  0  0  0  0  0  0  0
   23.3160   15.2580   31.9360 H   0  0  0  0  0  0  0  0  0  0  0  0
   22.6880   12.8470   32.2750 H   0  0  0  0  0  0  0  0  0  0  0  0
   22.2480   13.5000   30.6930 H   0  0  0  0  0  0  0  0  0  0  0  0
   20.5450   13.1310   33.2110 H   0  0  0  0  0  0  0  0  0  0  0  0
   20.4800   12.1320   31.7350 H   0  0  0  0  0  0  0  0  0  0  0  0
   18.7950   14.2580   32.2220 H   0  0  0  0  0  0  0  0  0  0  0  0
   19.1680   13.7150   30.5780 H   0  0  0  0  0  0  0  0  0  0  0  0
   21.6840   11.0660   29.5530 H   0  0  0  0  0  0  0  0  0  0  0  0
   21.6280    8.6920   30.2830 H   0  0  0  0  0  0  0  0  0  0  0  0
  2  1  1  0  0  0  0
  3 29  1  0  0  0  0
  3  2  1  0  0  0  0
  4  3  1  0  0  0  0
  5  4  1  0  0  0  0
  5 27  2  0  0  0  0
  6  5  1  0  0  0  0
  7  8  1  0  0  0  0
  7  6  2  0  0  0  0
  8  9  1  0  0  0  0
  9 10  2  0  0  0  0
  9  4  1  0  0  0  0
 11 31  1  0  0  0  0
 11  7  1  0  0  0  0
 11 12  1  0  0  0  0
 13 12  1  0  0  0  0
 13 15  1  0  0  0  0
 14 13  2  0  0  0  0
 15 33  1  0  0  0  0
 15 16  1  0  0  0  0
 16 25  1  0  0  0  0
 17 16  1  0  0  0  0
 17 19  1  0  0  0  0
 18 17  2  0  0  0  0
 19 35  1  1  0  0  0
 19 24  1  0  0  0  0
 19 20  1  0  0  0  0
 20 21  1  0  0  0  0
 20 36  1  1  0  0  0
 21 37  1  0  0  0  0
 22 23  1  0  0  0  0
 22 39  1  0  0  0  0
 22 21  1  0  0  0  0
 23 41  1  0  0  0  0
 24 23  1  0  0  0  0
 24 43  1  0  0  0  0
 25 26  2  0  0  0  0
 25 20  1  0  0  0  0
 27 28  1  0  0  0  0
 28  2  2  0  0  0  0
 28 46  1  0  0  0  0
 30  8  1  0  0  0  0
 32 11  1  0  0  0  0
 34 15  1  0  0  0  0
 38 21  1  0  0  0  0
 40 22  1  0  0  0  0
 42 23  1  0  0  0  0
 44 24  1  0  0  0  0
 45 27  1  0  0  0  0
M  END
>  <Pose>
1

>  <Score>
-5.83

$$$$
