
 OpenBabel03202209553D

 45 48  0  0  1  0  0  0  0  0999 V2000
   17.4630    7.4700   33.6430 Cl  0  0  0  0  0  0  0  0  0  0  0  0
   19.0280    7.4920   32.8170 C   0  0  0  0  0  0  0  0  0  0  0  0
   19.6530    6.3380   32.4730 C   0  0  0  0  0  0  0  0  0  0  0  0
   20.8860    6.3890   31.8230 C   0  0  0  0  0  0  0  0  0  0  0  0
   21.5360    7.5530   31.4920 C   0  0  0  0  0  0  0  0  0  0  0  0
   20.8440    8.7160   31.8730 C   0  0  0  0  0  0  0  0  0  0  0  0
   19.6240    8.6900   32.5170 C   0  0  0  0  0  0  0  0  0  0  0  0
   22.7850    7.6910   30.7950 C   0  0  0  0  0  0  0  0  0  0  0  0
   23.0850    6.6190   30.0790 O   0  0  0  0  0  0  0  0  0  0  0  0
   23.7200    8.7380   30.7430 N   0  0  0  0  0  0  0  0  0  0  0  0
   23.3920   10.1190   30.7430 C   0  0  0  0  0  0  0  0  0  0  0  0
   24.6840   10.9370   30.9060 C   0  0  1  0  0  0  0  0  0  0  0  0
   25.5220   10.5580   29.7980 N   0  0  0  0  0  0  0  0  0  0  0  0
   25.9050    9.1900   29.7010 C   0  0  0  0  0  0  0  0  0  0  0  0
   25.1230    8.3300   30.6730 C   0  0  0  0  0  0  0  0  0  0  0  0
   25.9420   11.5090   28.8510 C   0  0  0  0  0  0  0  0  0  0  0  0
   26.9410   11.2620   28.1530 O   0  0  0  0  0  0  0  0  0  0  0  0
   25.1800   12.7680   28.7180 C   0  0  1  0  0  0  0  0  0  0  0  0
   24.9670   13.2660   30.0450 N   0  0  0  0  0  0  0  0  0  0  0  0
   24.4330   12.3730   31.0060 C   0  0  0  0  0  0  0  0  0  0  0  0
   23.7270   12.7870   31.9790 O   0  0  0  0  0  0  0  0  0  0  0  0
   25.7740   13.7360   27.7680 C   0  0  0  0  0  0  0  0  0  0  0  0
   24.8060   14.8020   27.4620 C   0  0  0  0  0  0  0  0  0  0  0  0
   24.9690   15.8820   26.6930 N   0  0  0  0  0  0  0  0  0  0  0  0
   23.8120   16.6070   26.6850 C   0  0  0  0  0  0  0  0  0  0  0  0
   22.9140   15.9860   27.4530 N   0  0  0  0  0  0  0  0  0  0  0  0
   23.4960   14.8840   27.9370 C   0  0  0  0  0  0  0  0  0  0  0  0
   19.1820    5.4050   32.7110 H   0  0  0  0  0  0  0  0  0  0  0  0
   21.3370    5.4470   31.5950 H   0  0  0  0  0  0  0  0  0  0  0  0
   21.3010    9.6800   31.6400 H   0  0  0  0  0  0  0  0  0  0  0  0
   19.1690    9.6510   32.7690 H   0  0  0  0  0  0  0  0  0  0  0  0
   22.6950   10.4020   31.5600 H   0  0  0  0  0  0  0  0  0  0  0  0
   22.9170   10.3700   29.7790 H   0  0  0  0  0  0  0  0  0  0  0  0
   25.1500   10.5530   31.8390 H   0  0  0  0  0  0  0  0  0  0  0  0
   26.9840    9.1110   29.9450 H   0  0  0  0  0  0  0  0  0  0  0  0
   25.7720    8.7430   28.6940 H   0  0  0  0  0  0  0  0  0  0  0  0
   25.1540    7.2770   30.3630 H   0  0  0  0  0  0  0  0  0  0  0  0
   25.5780    8.4320   31.6730 H   0  0  0  0  0  0  0  0  0  0  0  0
   24.1340   12.5590   28.3170 H   0  0  0  0  0  0  0  0  0  0  0  0
   25.1880   14.2550   30.3200 H   0  0  0  0  0  0  0  0  0  0  0  0
   26.7300   14.1350   28.1730 H   0  0  0  0  0  0  0  0  0  0  0  0
   26.0770   13.1860   26.8360 H   0  0  0  0  0  0  0  0  0  0  0  0
   23.7100   17.5350   26.1210 H   0  0  0  0  0  0  0  0  0  0  0  0
   21.9550   16.2920   27.6400 H   0  0  0  0  0  0  0  0  0  0  0  0
   23.0880   14.1280   28.5950 H   0  0  0  0  0  0  0  0  0  0  0  0
  2  1  1  0  0  0  0
  3 28  1  0  0  0  0
  3  2  2  0  0  0  0
  4  3  1  0  0  0  0
  5  4  2  0  0  0  0
  5  6  1  0  0  0  0
  6  7  2  0  0  0  0
  7 31  1  0  0  0  0
  7  2  1  0  0  0  0
  8  5  1  0  0  0  0
  9  8  2  0  0  0  0
 10 11  1  0  0  0  0
 10  8  1  0  0  0  0
 11 12  1  0  0  0  0
 11 32  1  0  0  0  0
 12 20  1  0  0  0  0
 12 34  1  1  0  0  0
 13 12  1  0  0  0  0
 14 13  1  0  0  0  0
 14 35  1  0  0  0  0
 14 15  1  0  0  0  0
 15 10  1  0  0  0  0
 15 38  1  0  0  0  0
 16 13  1  0  0  0  0
 17 16  2  0  0  0  0
 18 39  1  6  0  0  0
 18 16  1  0  0  0  0
 18 19  1  0  0  0  0
 19 40  1  0  0  0  0
 19 20  1  0  0  0  0
 20 21  2  0  0  0  0
 22 41  1  0  0  0  0
 22 18  1  0  0  0  0
 23 22  1  0  0  0  0
 23 27  2  0  0  0  0
 24 23  1  0  0  0  0
 25 24  2  0  0  0  0
 25 26  1  0  0  0  0
 26 44  1  0  0  0  0
 26 27  1  0  0  0  0
 27 45  1  0  0  0  0
 29  4  1  0  0  0  0
 30  6  1  0  0  0  0
 33 11  1  0  0  0  0
 36 14  1  0  0  0  0
 37 15  1  0  0  0  0
 42 22  1  0  0  0  0
 43 25  1  0  0  0  0
M  END
>  <Pose>
1

>  <Score>
-6.90

$$$$
