
 OpenBabel03202209553D

 43 46  0  0  0  0  0  0  0  0999 V2000
   21.7800    6.1750   31.1010 Cl  0  0  0  0  0  0  0  0  0  0  0  0
   23.4720    5.9970   30.6950 C   0  0  0  0  0  0  0  0  0  0  0  0
   24.2390    7.0990   30.4400 C   0  0  0  0  0  0  0  0  0  0  0  0
   25.5720    6.8360   30.1130 C   0  0  0  0  0  0  0  0  0  0  0  0
   26.0320    5.5760   30.0630 N   0  0  0  0  0  0  0  0  0  0  0  0
   25.3120    4.5030   30.3050 N   0  0  0  0  0  0  0  0  0  0  0  0
   24.0270    4.7080   30.6230 C   0  0  0  0  0  0  0  0  0  0  0  0
   23.2580    3.7450   30.8720 O   0  0  0  0  0  0  0  0  0  0  0  0
   25.8800    3.1990   30.2300 C   0  0  0  0  0  0  0  0  0  0  0  0
   25.9720    2.3620   31.3240 C   0  0  0  0  0  0  0  0  0  0  0  0
   26.5230    1.1010   31.2410 C   0  0  0  0  0  0  0  0  0  0  0  0
   27.0100    0.6260   30.0400 C   0  0  0  0  0  0  0  0  0  0  0  0
   26.9200    1.4570   28.9430 C   0  0  0  0  0  0  0  0  0  0  0  0
   26.3670    2.7200   29.0310 C   0  0  0  0  0  0  0  0  0  0  0  0
   23.7510    8.4250   30.5170 N   0  0  0  0  0  0  0  0  0  0  0  0
   24.3060    9.4180   31.4210 C   0  0  0  0  0  0  0  0  0  0  0  0
   23.2920    9.8720   32.4390 C   0  0  0  0  0  0  0  0  0  0  0  0
   22.0350   10.0060   31.7440 N   0  0  0  0  0  0  0  0  0  0  0  0
   22.0700   10.2080   30.3190 C   0  0  0  0  0  0  0  0  0  0  0  0
   22.6300    8.9020   29.7130 C   0  0  0  0  0  0  0  0  0  0  0  0
   20.8020    9.9420   32.4370 C   0  0  0  0  0  0  0  0  0  0  0  0
   20.2070   10.9340   33.1590 N   0  0  0  0  0  0  0  0  0  0  0  0
   19.0680   10.4900   33.6530 N   0  0  0  0  0  0  0  0  0  0  0  0
   18.9210    9.2300   33.2620 C   0  0  0  0  0  0  0  0  0  0  0  0
   19.9660    8.9260   32.5390 O   0  0  0  0  0  0  0  0  0  0  0  0
   17.8000    8.2790   33.5540 C   0  0  0  0  0  0  0  0  0  0  0  0
   26.2120    7.6670   29.9100 H   0  0  0  0  0  0  0  0  0  0  0  0
   25.5890    2.7340   32.2740 H   0  0  0  0  0  0  0  0  0  0  0  0
   26.5820    0.4630   32.1270 H   0  0  0  0  0  0  0  0  0  0  0  0
   27.4410   -0.3650   29.9800 H   0  0  0  0  0  0  0  0  0  0  0  0
   27.2950    1.0990   28.0070 H   0  0  0  0  0  0  0  0  0  0  0  0
   26.2960    3.3770   28.1670 H   0  0  0  0  0  0  0  0  0  0  0  0
   24.5380   10.3280   30.7960 H   0  0  0  0  0  0  0  0  0  0  0  0
   25.2230    9.1570   31.9170 H   0  0  0  0  0  0  0  0  0  0  0  0
   23.1480    9.1090   33.2520 H   0  0  0  0  0  0  0  0  0  0  0  0
   23.5990   10.7990   32.9530 H   0  0  0  0  0  0  0  0  0  0  0  0
   22.7610   11.0380   30.0910 H   0  0  0  0  0  0  0  0  0  0  0  0
   21.0700   10.4150   29.9050 H   0  0  0  0  0  0  0  0  0  0  0  0
   22.9070    9.1790   28.6870 H   0  0  0  0  0  0  0  0  0  0  0  0
   21.7550    8.2070   29.7880 H   0  0  0  0  0  0  0  0  0  0  0  0
   16.8220    8.7940   33.4740 H   0  0  0  0  0  0  0  0  0  0  0  0
   17.7790    7.4590   32.8070 H   0  0  0  0  0  0  0  0  0  0  0  0
   17.9950    7.8340   34.5340 H   0  0  0  0  0  0  0  0  0  0  0  0
  2  1  1  0  0  0  0
  3 15  1  0  0  0  0
  3  2  2  0  0  0  0
  4  3  1  0  0  0  0
  5  4  2  0  0  0  0
  5  6  1  0  0  0  0
  6  7  1  0  0  0  0
  7  2  1  0  0  0  0
  7  8  2  0  0  0  0
  9  6  1  0  0  0  0
  9 10  1  0  0  0  0
 10 28  1  0  0  0  0
 11 10  2  0  0  0  0
 11 29  1  0  0  0  0
 12 11  1  0  0  0  0
 13 14  1  0  0  0  0
 13 12  2  0  0  0  0
 14  9  2  0  0  0  0
 15 16  1  0  0  0  0
 16 34  1  0  0  0  0
 16 17  1  0  0  0  0
 17 36  1  0  0  0  0
 17 35  1  0  0  0  0
 18 21  1  0  0  0  0
 18 17  1  0  0  0  0
 19 18  1  0  0  0  0
 20 40  1  0  0  0  0
 20 19  1  0  0  0  0
 20 15  1  0  0  0  0
 21 25  1  0  0  0  0
 21 22  2  0  0  0  0
 22 23  1  0  0  0  0
 24 26  1  0  0  0  0
 24 23  2  0  0  0  0
 25 24  1  0  0  0  0
 26 43  1  0  0  0  0
 27  4  1  0  0  0  0
 30 12  1  0  0  0  0
 31 13  1  0  0  0  0
 32 14  1  0  0  0  0
 33 16  1  0  0  0  0
 37 19  1  0  0  0  0
 38 19  1  0  0  0  0
 39 20  1  0  0  0  0
 41 26  1  0  0  0  0
 42 26  1  0  0  0  0
M  END
>  <Pose>
1

>  <Score>
-5.61

$$$$
