
 OpenBabel03202209553D

 49 52  0  0  0  0  0  0  0  0999 V2000
   29.0560    9.3880   24.0610 B   0  0  0  0  0  0  0  0  0  0  0  0
   28.7580    7.6690   24.7800 C   0  0  0  0  0  0  0  0  0  0  0  0
   27.8080    7.5010   25.7760 C   0  0  0  0  0  0  0  0  0  0  0  0
   27.5720    6.2670   26.3220 C   0  0  0  0  0  0  0  0  0  0  0  0
   28.2460    5.1530   25.9230 C   0  0  0  0  0  0  0  0  0  0  0  0
   29.2050    5.3140   24.9180 C   0  0  0  0  0  0  0  0  0  0  0  0
   29.4460    6.5570   24.3640 C   0  0  0  0  0  0  0  0  0  0  0  0
   26.5180    6.0640   27.3790 C   0  0  0  0  0  0  0  0  0  0  0  0
   25.7190    5.0980   27.1160 O   0  0  0  0  0  0  0  0  0  0  0  0
   26.5240    6.8680   28.4300 N   0  0  0  0  0  0  0  0  0  0  0  0
   26.5310    7.7110   29.5300 C   0  0  0  0  0  0  0  0  0  0  0  0
   25.2800    7.5530   30.3560 C   0  0  0  0  0  0  0  0  0  0  0  0
   25.1540    6.4070   30.9150 O   0  0  0  0  0  0  0  0  0  0  0  0
   24.3150    8.5550   30.5190 N   0  0  0  0  0  0  0  0  0  0  0  0
   23.3580    8.8840   29.5120 C   0  0  0  0  0  0  0  0  0  0  0  0
   22.0210    9.2640   30.0830 C   0  0  0  0  0  0  0  0  0  0  0  0
   21.7610    8.7560   31.4850 C   0  0  0  0  0  0  0  0  0  0  0  0
   20.5740    9.4890   31.9040 N   0  0  0  0  0  0  0  0  0  0  0  0
   19.9720    9.0640   33.1090 C   0  0  0  0  0  0  0  0  0  0  0  0
   20.3170    7.7130   33.6200 C   0  0  0  0  0  0  0  0  0  0  0  0
   20.7060    6.7850   32.5120 C   0  0  0  0  0  0  0  0  0  0  0  0
   20.4930    5.4830   32.3270 N   0  0  0  0  0  0  0  0  0  0  0  0
   21.0730    5.1790   31.1480 C   0  0  0  0  0  0  0  0  0  0  0  0
   21.6410    6.2800   30.6080 N   0  0  0  0  0  0  0  0  0  0  0  0
   21.4170    7.3160   31.4670 C   0  0  0  0  0  0  0  0  0  0  0  0
   22.8970    9.0020   32.4440 C   0  0  0  0  0  0  0  0  0  0  0  0
   24.2100    9.3230   31.7550 C   0  0  0  0  0  0  0  0  0  0  0  0
   27.2530    8.3410   26.1230 H   0  0  0  0  0  0  0  0  0  0  0  0
   28.0390    4.2000   26.3670 H   0  0  0  0  0  0  0  0  0  0  0  0
   29.7600    4.4600   24.5750 H   0  0  0  0  0  0  0  0  0  0  0  0
   30.1850    6.6800   23.5860 H   0  0  0  0  0  0  0  0  0  0  0  0
   26.5610    7.9750   27.6000 H   0  0  0  0  0  0  0  0  0  0  0  0
   26.5850    8.8070   29.2060 H   0  0  0  0  0  0  0  0  0  0  0  0
   27.4490    7.6000   30.1580 H   0  0  0  0  0  0  0  0  0  0  0  0
   23.7580    9.8140   29.0060 H   0  0  0  0  0  0  0  0  0  0  0  0
   23.2950    8.1450   28.6920 H   0  0  0  0  0  0  0  0  0  0  0  0
   21.9060   10.3540   30.0800 H   0  0  0  0  0  0  0  0  0  0  0  0
   21.2560    8.7860   29.4350 H   0  0  0  0  0  0  0  0  0  0  0  0
   20.9070   10.4950   31.9650 H   0  0  0  0  0  0  0  0  0  0  0  0
   18.8530    9.0750   32.9430 H   0  0  0  0  0  0  0  0  0  0  0  0
   20.1450    9.8500   33.9020 H   0  0  0  0  0  0  0  0  0  0  0  0
   21.1330    7.7920   34.3750 H   0  0  0  0  0  0  0  0  0  0  0  0
   19.4430    7.3000   34.2000 H   0  0  0  0  0  0  0  0  0  0  0  0
   21.0620    4.1890   30.7330 H   0  0  0  0  0  0  0  0  0  0  0  0
   22.1500    6.3180   29.7090 H   0  0  0  0  0  0  0  0  0  0  0  0
   23.0870    8.0520   33.0300 H   0  0  0  0  0  0  0  0  0  0  0  0
   22.7030    9.8130   33.1640 H   0  0  0  0  0  0  0  0  0  0  0  0
   24.3170   10.4150   31.5630 H   0  0  0  0  0  0  0  0  0  0  0  0
   25.0210    8.9890   32.4290 H   0  0  0  0  0  0  0  0  0  0  0  0
  1  2  1  0  0  0  0
  2  3  1  0  0  0  0
  3 28  1  0  0  0  0
  3  4  2  0  0  0  0
  4  8  1  0  0  0  0
  5  4  1  0  0  0  0
  5 29  1  0  0  0  0
  6  5  2  0  0  0  0
  7  2  2  0  0  0  0
  7  6  1  0  0  0  0
  8 10  1  0  0  0  0
  9  8  2  0  0  0  0
 10 11  1  0  0  0  0
 11 34  1  0  0  0  0
 11 12  1  0  0  0  0
 12 14  1  0  0  0  0
 12 13  2  0  0  0  0
 14 27  1  0  0  0  0
 15 16  1  0  0  0  0
 15 14  1  0  0  0  0
 16 17  1  0  0  0  0
 17 18  1  0  0  0  0
 17 26  1  0  0  0  0
 18 39  1  0  0  0  0
 18 19  1  0  0  0  0
 19 20  1  0  0  0  0
 19 41  1  0  0  0  0
 20 43  1  0  0  0  0
 20 42  1  0  0  0  0
 21 20  1  0  0  0  0
 22 21  1  0  0  0  0
 23 22  2  0  0  0  0
 24 23  1  0  0  0  0
 24 25  1  0  0  0  0
 25 17  1  0  0  0  0
 25 21  2  0  0  0  0
 26 46  1  0  0  0  0
 26 47  1  0  0  0  0
 27 49  1  0  0  0  0
 27 26  1  0  0  0  0
 30  6  1  0  0  0  0
 31  7  1  0  0  0  0
 32 10  1  0  0  0  0
 33 11  1  0  0  0  0
 35 15  1  0  0  0  0
 36 15  1  0  0  0  0
 37 16  1  0  0  0  0
 38 16  1  0  0  0  0
 40 19  1  0  0  0  0
 44 23  1  0  0  0  0
 45 24  1  0  0  0  0
 48 27  1  0  0  0  0
M  END
>  <Pose>
1

>  <Score>
-6.43

$$$$
