
 OpenBabel03202209553D

 45 48  0  0  1  0  0  0  0  0999 V2000
   21.5520    5.2990   31.2370 Cl  0  0  0  0  0  0  0  0  0  0  0  0
   20.9010    6.8090   31.8800 C   0  0  0  0  0  0  0  0  0  0  0  0
   21.6060    7.9780   31.7200 C   0  0  0  0  0  0  0  0  0  0  0  0
   21.1230    9.1900   32.2150 C   0  0  0  0  0  0  0  0  0  0  0  0
   19.9080    9.1480   32.8680 C   0  0  0  0  0  0  0  0  0  0  0  0
   19.2060    7.9670   33.0240 C   0  0  0  0  0  0  0  0  0  0  0  0
   19.6880    6.7720   32.5340 C   0  0  0  0  0  0  0  0  0  0  0  0
   21.8950   10.4420   32.0370 C   0  0  0  0  0  0  0  0  0  0  0  0
   21.7730   10.9920   30.6410 C   0  0  0  0  0  0  0  0  0  0  0  0
   21.4160   12.3910   30.5980 N   0  0  0  0  0  0  0  0  0  0  0  0
   22.1140   13.5640   31.0520 C   0  0  2  0  0  0  0  0  0  0  0  0
   20.9630   14.5010   31.3550 C   0  0  2  0  0  0  0  0  0  0  0  0
   20.1320   14.2730   30.2240 O   0  0  0  0  0  0  0  0  0  0  0  0
   20.1990   12.8770   30.0420 C   0  0  0  0  0  0  0  0  0  0  0  0
   19.2860   12.2070   29.4630 O   0  0  0  0  0  0  0  0  0  0  0  0
   21.6870   15.7980   31.3330 C   0  0  0  0  0  0  0  0  0  0  0  0
   22.3970   15.7020   30.0370 N   0  0  0  0  0  0  0  0  0  0  0  0
   22.7390   14.3230   29.8670 C   0  0  0  0  0  0  0  0  0  0  0  0
   22.6080   16.8390   29.2530 C   0  0  0  0  0  0  0  0  0  0  0  0
   22.2280   18.0020   29.6880 O   0  0  0  0  0  0  0  0  0  0  0  0
   23.2310   16.8760   27.9430 C   0  0  0  0  0  0  0  0  0  0  0  0
   23.1420   17.8740   27.0220 N   0  0  0  0  0  0  0  0  0  0  0  0
   23.8590   17.5320   25.9540 C   0  0  0  0  0  0  0  0  0  0  0  0
   24.4080   16.3350   26.1670 N   0  0  0  0  0  0  0  0  0  0  0  0
   24.0290   15.9160   27.3950 C   0  0  0  0  0  0  0  0  0  0  0  0
   22.3900   19.0890   27.1970 C   0  0  0  0  0  0  0  0  0  0  0  0
   22.5690    8.0190   31.2030 H   0  0  0  0  0  0  0  0  0  0  0  0
   19.5250   10.0940   33.2590 H   0  0  0  0  0  0  0  0  0  0  0  0
   18.2500    7.9690   33.5440 H   0  0  0  0  0  0  0  0  0  0  0  0
   19.1510    5.8410   32.6470 H   0  0  0  0  0  0  0  0  0  0  0  0
   22.9650   10.1980   32.1930 H   0  0  0  0  0  0  0  0  0  0  0  0
   21.6450   11.2080   32.8140 H   0  0  0  0  0  0  0  0  0  0  0  0
   20.9970   10.3560   30.1280 H   0  0  0  0  0  0  0  0  0  0  0  0
   22.7010   10.8170   30.0590 H   0  0  0  0  0  0  0  0  0  0  0  0
   22.8040   13.4160   31.8710 H   0  0  0  0  0  0  0  0  0  0  0  0
   20.4540   14.2700   32.3020 H   0  0  0  0  0  0  0  0  0  0  0  0
   21.0760   16.6870   31.4130 H   0  0  0  0  0  0  0  0  0  0  0  0
   22.4950   15.7500   32.0930 H   0  0  0  0  0  0  0  0  0  0  0  0
   23.8090   14.0980   29.8070 H   0  0  0  0  0  0  0  0  0  0  0  0
   22.2610   13.9070   28.9300 H   0  0  0  0  0  0  0  0  0  0  0  0
   24.0200   18.0850   25.0180 H   0  0  0  0  0  0  0  0  0  0  0  0
   24.3600   14.9460   27.7990 H   0  0  0  0  0  0  0  0  0  0  0  0
   22.8270   19.7600   27.9630 H   0  0  0  0  0  0  0  0  0  0  0  0
   21.3290   18.8790   27.4730 H   0  0  0  0  0  0  0  0  0  0  0  0
   22.3510   19.6510   26.2410 H   0  0  0  0  0  0  0  0  0  0  0  0
  1  2  1  0  0  0  0
  2  7  1  0  0  0  0
  3  2  2  0  0  0  0
  3  4  1  0  0  0  0
  4  5  2  0  0  0  0
  5  6  1  0  0  0  0
  5 28  1  0  0  0  0
  6 29  1  0  0  0  0
  7 30  1  0  0  0  0
  7  6  2  0  0  0  0
  8 31  1  0  0  0  0
  8  4  1  0  0  0  0
  8 32  1  0  0  0  0
  9  8  1  0  0  0  0
 10  9  1  0  0  0  0
 10 11  1  0  0  0  0
 11 12  1  0  0  0  0
 11 35  1  1  0  0  0
 12 36  1  1  0  0  0
 13 12  1  0  0  0  0
 14 13  1  0  0  0  0
 14 10  1  0  0  0  0
 15 14  2  0  0  0  0
 16 12  1  0  0  0  0
 16 37  1  0  0  0  0
 16 38  1  0  0  0  0
 17 16  1  0  0  0  0
 18 17  1  0  0  0  0
 18 11  1  0  0  0  0
 19 20  2  0  0  0  0
 19 17  1  0  0  0  0
 21 19  1  0  0  0  0
 22 26  1  0  0  0  0
 22 21  1  0  0  0  0
 23 24  2  0  0  0  0
 23 22  1  0  0  0  0
 24 25  1  0  0  0  0
 25 42  1  0  0  0  0
 25 21  2  0  0  0  0
 26 44  1  0  0  0  0
 26 43  1  0  0  0  0
 27  3  1  0  0  0  0
 33  9  1  0  0  0  0
 34  9  1  0  0  0  0
 39 18  1  0  0  0  0
 40 18  1  0  0  0  0
 41 23  1  0  0  0  0
 45 26  1  0  0  0  0
M  END
>  <Pose>
1

>  <Score>
-6.58

$$$$
