
 OpenBabel03202209553D

 45 48  0  0  0  0  0  0  0  0999 V2000
   24.9090    7.4550   30.1200 Cl  0  0  0  0  0  0  0  0  0  0  0  0
   23.3160    7.5060   30.8880 C   0  0  0  0  0  0  0  0  0  0  0  0
   22.9230    8.6670   31.5170 C   0  0  0  0  0  0  0  0  0  0  0  0
   21.6850    8.7190   32.1190 C   0  0  0  0  0  0  0  0  0  0  0  0
   20.8380    7.6310   32.1020 C   0  0  0  0  0  0  0  0  0  0  0  0
   21.2760    6.4850   31.4580 C   0  0  0  0  0  0  0  0  0  0  0  0
   22.5030    6.3920   30.8450 C   0  0  0  0  0  0  0  0  0  0  0  0
   19.5520    7.6610   32.7190 N   0  0  0  0  0  0  0  0  0  0  0  0
   18.7700    6.6560   33.0290 N   0  0  0  0  0  0  0  0  0  0  0  0
   17.6260    7.1270   33.6060 C   0  0  0  0  0  0  0  0  0  0  0  0
   17.7080    8.5010   33.6550 C   0  0  0  0  0  0  0  0  0  0  0  0
   18.9460    8.8050   33.0820 C   0  0  0  0  0  0  0  0  0  0  0  0
   23.8090    9.8340   31.5450 C   0  0  0  0  0  0  0  0  0  0  0  0
   25.0310    9.5950   31.7200 O   0  0  0  0  0  0  0  0  0  0  0  0
   23.3090   11.1550   31.3830 N   0  0  0  0  0  0  0  0  0  0  0  0
   24.1750   12.2690   31.7000 C   0  0  0  0  0  0  0  0  0  0  0  0
   23.7070   13.4430   30.8600 C   0  0  0  0  0  0  0  0  0  0  0  0
   23.2140   13.0040   29.4980 C   0  0  0  0  0  0  0  0  0  0  0  0
   23.0090   14.1990   28.7130 N   0  0  0  0  0  0  0  0  0  0  0  0
   24.2400   14.5440   28.0960 C   0  0  0  0  0  0  0  0  0  0  0  0
   24.5900   15.6700   27.6210 O   0  0  0  0  0  0  0  0  0  0  0  0
   25.0320   13.3520   28.1090 N   0  0  0  0  0  0  0  0  0  0  0  0
   24.2780   12.3090   28.7290 C   0  0  0  0  0  0  0  0  0  0  0  0
   24.5030   11.0740   28.6190 O   0  0  0  0  0  0  0  0  0  0  0  0
   26.3900   13.1770   27.5890 C   0  0  0  0  0  0  0  0  0  0  0  0
   21.9810   12.1540   29.5880 C   0  0  0  0  0  0  0  0  0  0  0  0
   21.9760   11.4620   30.9170 C   0  0  0  0  0  0  0  0  0  0  0  0
   21.3160    9.6010   32.6290 H   0  0  0  0  0  0  0  0  0  0  0  0
   20.6140    5.6230   31.4410 H   0  0  0  0  0  0  0  0  0  0  0  0
   22.8130    5.4600   30.3450 H   0  0  0  0  0  0  0  0  0  0  0  0
   16.7770    6.5720   33.9780 H   0  0  0  0  0  0  0  0  0  0  0  0
   16.9700    9.1970   34.0520 H   0  0  0  0  0  0  0  0  0  0  0  0
   19.3340    9.8080   32.9600 H   0  0  0  0  0  0  0  0  0  0  0  0
   24.0790   12.5090   32.7790 H   0  0  0  0  0  0  0  0  0  0  0  0
   25.2220   12.0550   31.4030 H   0  0  0  0  0  0  0  0  0  0  0  0
   22.9040   13.9890   31.3930 H   0  0  0  0  0  0  0  0  0  0  0  0
   24.5300   14.1710   30.7160 H   0  0  0  0  0  0  0  0  0  0  0  0
   22.1060   14.7030   28.6310 H   0  0  0  0  0  0  0  0  0  0  0  0
   26.9730   12.4600   28.2160 H   0  0  0  0  0  0  0  0  0  0  0  0
   26.9020   14.1550   27.5560 H   0  0  0  0  0  0  0  0  0  0  0  0
   26.3570   12.7370   26.5760 H   0  0  0  0  0  0  0  0  0  0  0  0
   22.0210   11.4230   28.7520 H   0  0  0  0  0  0  0  0  0  0  0  0
   21.0980   12.8250   29.5090 H   0  0  0  0  0  0  0  0  0  0  0  0
   21.5350   12.1790   31.6650 H   0  0  0  0  0  0  0  0  0  0  0  0
   21.3110   10.5680   30.9360 H   0  0  0  0  0  0  0  0  0  0  0  0
  1  2  1  0  0  0  0
  2  3  1  0  0  0  0
  3 13  1  0  0  0  0
  3  4  2  0  0  0  0
  4 28  1  0  0  0  0
  5  4  1  0  0  0  0
  5  8  1  0  0  0  0
  6  5  2  0  0  0  0
  7  2  2  0  0  0  0
  7  6  1  0  0  0  0
  8  9  1  0  0  0  0
  8 12  1  0  0  0  0
  9 10  2  0  0  0  0
 10 11  1  0  0  0  0
 10 31  1  0  0  0  0
 11 32  1  0  0  0  0
 12 11  2  0  0  0  0
 13 14  2  0  0  0  0
 15 13  1  0  0  0  0
 15 16  1  0  0  0  0
 16 34  1  0  0  0  0
 17 36  1  0  0  0  0
 17 16  1  0  0  0  0
 18 26  1  0  0  0  0
 18 17  1  0  0  0  0
 19 18  1  0  0  0  0
 20 22  1  0  0  0  0
 20 19  1  0  0  0  0
 21 20  2  0  0  0  0
 22 23  1  0  0  0  0
 23 18  1  0  0  0  0
 24 23  2  0  0  0  0
 25 22  1  0  0  0  0
 25 39  1  0  0  0  0
 26 27  1  0  0  0  0
 27 45  1  0  0  0  0
 27 15  1  0  0  0  0
 27 44  1  0  0  0  0
 29  6  1  0  0  0  0
 30  7  1  0  0  0  0
 33 12  1  0  0  0  0
 35 16  1  0  0  0  0
 37 17  1  0  0  0  0
 38 19  1  0  0  0  0
 40 25  1  0  0  0  0
 41 25  1  0  0  0  0
 42 26  1  0  0  0  0
 43 26  1  0  0  0  0
M  END
>  <Pose>
1

>  <Score>
-7.31

$$$$
