
 OpenBabel03202209553D

 42 45  0  0  1  0  0  0  0  0999 V2000
   19.5250    7.2410   33.1480 Cl  0  0  0  0  0  0  0  0  0  0  0  0
   19.9570    8.9270   32.9700 C   0  0  0  0  0  0  0  0  0  0  0  0
   20.9000    9.3510   32.0630 C   0  0  0  0  0  0  0  0  0  0  0  0
   21.2650   10.6820   31.9010 C   0  0  0  0  0  0  0  0  0  0  0  0
   20.6240   11.6100   32.7150 C   0  0  0  0  0  0  0  0  0  0  0  0
   19.6770   11.2130   33.6310 C   0  0  0  0  0  0  0  0  0  0  0  0
   19.3470    9.8800   33.7560 C   0  0  0  0  0  0  0  0  0  0  0  0
   22.2890   11.0940   30.9090 C   0  0  1  0  0  0  0  0  0  0  0  0
   23.0600   12.2350   31.3110 N   0  0  0  0  0  0  0  0  0  0  0  0
   24.2910   11.8270   31.8990 C   0  0  0  0  0  0  0  0  0  0  0  0
   25.0770   12.5280   32.6010 O   0  0  0  0  0  0  0  0  0  0  0  0
   24.5070   10.4100   31.5420 C   0  0  0  0  0  0  0  0  0  0  0  0
   25.4920    9.7210   31.8930 O   0  0  0  0  0  0  0  0  0  0  0  0
   23.3520   10.0440   30.7340 C   0  0  0  0  0  0  0  0  0  0  0  0
   23.2790    8.9450   30.0140 C   0  0  0  0  0  0  0  0  0  0  0  0
   22.0700    8.7100   29.3270 O   0  0  0  0  0  0  0  0  0  0  0  0
   24.3560    7.9740   29.8800 C   0  0  0  0  0  0  0  0  0  0  0  0
   24.0900    6.6130   30.0860 C   0  0  0  0  0  0  0  0  0  0  0  0
   25.0820    5.6690   29.9380 C   0  0  0  0  0  0  0  0  0  0  0  0
   26.3720    6.0060   29.5840 C   0  0  0  0  0  0  0  0  0  0  0  0
   26.6540    7.3370   29.3760 C   0  0  0  0  0  0  0  0  0  0  0  0
   25.6470    8.2910   29.5270 C   0  0  0  0  0  0  0  0  0  0  0  0
   22.6670   13.5830   31.1580 C   0  0  1  0  0  0  0  0  0  0  0  0
   22.6450   14.3290   32.2940 N   0  0  0  0  0  0  0  0  0  0  0  0
   22.2930   15.6140   32.2820 C   0  0  0  0  0  0  0  0  0  0  0  0
   21.9480   16.1810   31.0770 C   0  0  0  0  0  0  0  0  0  0  0  0
   21.9780   15.4050   29.9370 C   0  0  0  0  0  0  0  0  0  0  0  0
   22.3330   14.1080   29.9590 N   0  0  0  0  0  0  0  0  0  0  0  0
   21.3660    8.5840   31.4610 H   0  0  0  0  0  0  0  0  0  0  0  0
   20.9000   12.6550   32.6020 H   0  0  0  0  0  0  0  0  0  0  0  0
   19.1720   11.9500   34.2740 H   0  0  0  0  0  0  0  0  0  0  0  0
   18.6020    9.5780   34.4780 H   0  0  0  0  0  0  0  0  0  0  0  0
   21.7520   11.2830   29.9540 H   0  0  0  0  0  0  0  0  0  0  0  0
   23.0710    6.3550   30.3640 H   0  0  0  0  0  0  0  0  0  0  0  0
   24.8300    4.6320   30.1080 H   0  0  0  0  0  0  0  0  0  0  0  0
   27.1660    5.2820   29.4600 H   0  0  0  0  0  0  0  0  0  0  0  0
   27.6730    7.6300   29.0950 H   0  0  0  0  0  0  0  0  0  0  0  0
   25.9080    9.3360   29.3310 H   0  0  0  0  0  0  0  0  0  0  0  0
   22.9130   13.9030   33.2240 H   0  0  0  0  0  0  0  0  0  0  0  0
   22.2870   16.1720   33.2100 H   0  0  0  0  0  0  0  0  0  0  0  0
   21.6600   17.2240   31.0550 H   0  0  0  0  0  0  0  0  0  0  0  0
   21.6990   15.8970   29.0160 H   0  0  0  0  0  0  0  0  0  0  0  0
  2  1  1  0  0  0  0
  2  7  1  0  0  0  0
  3  2  2  0  0  0  0
  4  3  1  0  0  0  0
  4  5  2  0  0  0  0
  5  6  1  0  0  0  0
  6  7  2  0  0  0  0
  6 31  1  0  0  0  0
  7 32  1  0  0  0  0
  8 33  1  6  0  0  0
  8  9  1  0  0  0  0
  8  4  1  0  0  0  0
  9 10  1  0  0  0  0
 10 11  2  0  0  0  0
 12 13  2  0  0  0  0
 12 10  1  0  0  0  0
 14  8  1  0  0  0  0
 14 12  1  0  0  0  0
 15 14  2  0  0  0  0
 16 15  1  0  0  0  0
 17 15  1  0  0  0  0
 17 18  1  0  0  0  0
 18 34  1  0  0  0  0
 19 18  2  0  0  0  0
 19 35  1  0  0  0  0
 20 19  1  0  0  0  0
 21 22  1  0  0  0  0
 21 20  2  0  0  0  0
 22 17  2  0  0  0  0
 23  9  1  6  0  0  0
 23 24  1  0  0  0  0
 24 39  1  0  0  0  0
 25 24  1  0  0  0  0
 25 40  1  0  0  0  0
 26 25  2  0  0  0  0
 27 28  2  0  0  0  0
 27 26  1  0  0  0  0
 28 23  1  0  0  0  0
 29  3  1  0  0  0  0
 30  5  1  0  0  0  0
 36 20  1  0  0  0  0
 37 21  1  0  0  0  0
 38 22  1  0  0  0  0
 41 26  1  0  0  0  0
 42 27  1  0  0  0  0
M  END
>  <Pose>
1

>  <Score>
-5.96

$$$$
