
 OpenBabel03202209553D

 32 35  0  0  1  0  0  0  0  0999 V2000
   26.0630    1.3910   33.9420 Cl  0  0  0  0  0  0  0  0  0  0  0  0
   25.2760    2.5300   32.8450 C   0  0  0  0  0  0  0  0  0  0  0  0
   25.9430    3.0860   31.7820 C   0  0  0  0  0  0  0  0  0  0  0  0
   25.2950    3.9890   30.9250 C   0  0  0  0  0  0  0  0  0  0  0  0
   23.9890    4.3420   31.1170 C   0  0  0  0  0  0  0  0  0  0  0  0
   23.2990    3.7760   32.2040 C   0  0  0  0  0  0  0  0  0  0  0  0
   23.9630    2.8970   33.0230 C   0  0  0  0  0  0  0  0  0  0  0  0
   23.5330    5.2630   30.1390 N   0  0  0  0  0  0  0  0  0  0  0  0
   24.6290    5.5050   29.2750 C   0  0  0  0  0  0  0  0  0  0  0  0
   24.5820    6.2840   28.2780 O   0  0  0  0  0  0  0  0  0  0  0  0
   25.7930    4.7110   29.7290 C   0  0  1  0  0  0  0  0  0  0  0  0
   26.8810    5.7000   30.0900 C   0  0  0  0  0  0  0  0  0  0  0  0
   27.3510    6.2600   28.7790 C   0  0  0  0  0  0  0  0  0  0  0  0
   27.3970    7.4800   28.5340 O   0  0  0  0  0  0  0  0  0  0  0  0
   27.7560    5.3030   27.7930 N   0  0  0  0  0  0  0  0  0  0  0  0
   27.1620    4.0110   27.7870 C   0  0  0  0  0  0  0  0  0  0  0  0
   27.3390    2.9130   27.0030 N   0  0  0  0  0  0  0  0  0  0  0  0
   26.5360    1.9700   27.4320 N   0  0  0  0  0  0  0  0  0  0  0  0
   25.8180    2.3900   28.4850 C   0  0  0  0  0  0  0  0  0  0  0  0
   26.2100    3.7120   28.7290 C   0  0  0  0  0  0  0  0  0  0  0  0
   22.1880    5.8410   30.0590 C   0  0  0  0  0  0  0  0  0  0  0  0
   26.9560    2.8410   31.5950 H   0  0  0  0  0  0  0  0  0  0  0  0
   22.2650    4.0590   32.3540 H   0  0  0  0  0  0  0  0  0  0  0  0
   23.4170    2.4640   33.8640 H   0  0  0  0  0  0  0  0  0  0  0  0
   27.7040    5.2630   30.6570 H   0  0  0  0  0  0  0  0  0  0  0  0
   26.3820    6.5400   30.6140 H   0  0  0  0  0  0  0  0  0  0  0  0
   28.4800    5.5370   27.0790 H   0  0  0  0  0  0  0  0  0  0  0  0
   28.0160    2.8870   26.2060 H   0  0  0  0  0  0  0  0  0  0  0  0
   25.0770    1.8750   29.0700 H   0  0  0  0  0  0  0  0  0  0  0  0
   22.2170    6.6160   29.2670 H   0  0  0  0  0  0  0  0  0  0  0  0
   21.4190    5.0790   29.8900 H   0  0  0  0  0  0  0  0  0  0  0  0
   21.9200    6.3510   31.0260 H   0  0  0  0  0  0  0  0  0  0  0  0
  2  7  1  0  0  0  0
  2  1  1  0  0  0  0
  3  2  2  0  0  0  0
  4  5  2  0  0  0  0
  4  3  1  0  0  0  0
  5  6  1  0  0  0  0
  6 23  1  0  0  0  0
  6  7  2  0  0  0  0
  7 24  1  0  0  0  0
  8  5  1  0  0  0  0
  9 11  1  0  0  0  0
  9  8  1  0  0  0  0
 10  9  2  0  0  0  0
 11 20  1  6  0  0  0
 11 12  1  0  0  0  0
 11  4  1  0  0  0  0
 12 26  1  0  0  0  0
 12 25  1  0  0  0  0
 13 12  1  0  0  0  0
 14 13  2  0  0  0  0
 15 13  1  0  0  0  0
 16 15  1  0  0  0  0
 16 20  2  0  0  0  0
 17 18  1  0  0  0  0
 17 16  1  0  0  0  0
 18 19  2  0  0  0  0
 19 20  1  0  0  0  0
 19 29  1  0  0  0  0
 21  8  1  0  0  0  0
 21 32  1  0  0  0  0
 22  3  1  0  0  0  0
 27 15  1  0  0  0  0
 28 17  1  0  0  0  0
 30 21  1  0  0  0  0
 31 21  1  0  0  0  0
M  END
>  <Pose>
1

>  <Score>
-4.78

$$$$
