
 OpenBabel03202209553D

 61 64  0  0  1  0  0  0  0  0999 V2000
   21.1940   16.4300   31.8020 Cl  0  0  0  0  0  0  0  0  0  0  0  0
   21.6980   14.8840   31.1080 C   0  0  0  0  0  0  0  0  0  0  0  0
   22.7330   14.8350   30.2000 C   0  0  0  0  0  0  0  0  0  0  0  0
   23.1180   13.6470   29.6710 C   0  0  0  0  0  0  0  0  0  0  0  0
   22.4680   12.4620   30.0410 C   0  0  0  0  0  0  0  0  0  0  0  0
   21.4370   12.5340   30.9470 C   0  0  0  0  0  0  0  0  0  0  0  0
   21.0310   13.7420   31.4990 C   0  0  0  0  0  0  0  0  0  0  0  0
   22.8660   11.2100   29.4910 N   0  0  0  0  0  0  0  0  0  0  0  0
   24.2370   11.0490   29.0290 C   0  0  2  0  0  0  0  0  0  0  0  0
   24.5280   12.2020   28.2090 N   0  0  0  0  0  0  0  0  0  0  0  0
   24.2020   13.4910   28.7040 C   0  0  0  0  0  0  0  0  0  0  0  0
   24.8070   14.5360   28.3510 O   0  0  0  0  0  0  0  0  0  0  0  0
   24.3180    9.8020   28.2140 C   0  0  0  0  0  0  0  0  0  0  0  0
   24.5740    8.5620   29.0380 C   0  0  0  0  0  0  0  0  0  0  0  0
   23.7020    8.4870   30.1910 N   0  0  0  0  0  0  0  0  0  0  0  0
   23.6960    9.4840   31.2430 C   0  0  0  0  0  0  0  0  0  0  0  0
   22.7880    9.3520   32.0960 O   0  0  0  0  0  0  0  0  0  0  0  0
   24.5900   10.6320   31.4660 C   0  0  0  0  0  0  0  0  0  0  0  0
   25.2160   11.0950   30.1840 C   0  0  0  0  0  0  0  0  0  0  0  0
   22.7830    7.4330   30.3400 C   0  0  0  0  0  0  0  0  0  0  0  0
   23.1700    6.1360   30.8470 C   0  0  0  0  0  0  0  0  0  0  0  0
   22.1220    5.4900   31.3600 O   0  0  0  0  0  0  0  0  0  0  0  0
   24.3910    5.5020   30.8740 N   0  0  0  0  0  0  0  0  0  0  0  0
   24.4180    4.0180   30.9530 C   0  0  0  0  0  0  0  0  0  0  0  0
   25.4700    3.6090   29.9100 C   0  0  0  0  0  0  0  0  0  0  0  0
   25.6650    4.6320   28.9380 N   0  0  0  0  0  0  0  0  0  0  0  0
   26.2850    5.8340   29.4110 C   0  0  0  0  0  0  0  0  0  0  0  0
   25.6680    6.0970   30.8140 C   0  0  0  0  0  0  0  0  0  0  0  0
   26.0990    4.2020   27.6530 C   0  0  0  0  0  0  0  0  0  0  0  0
   26.8700    5.2560   26.8850 C   0  0  0  0  0  0  0  0  0  0  0  0
   26.9000    2.9290   27.6820 C   0  0  0  0  0  0  0  0  0  0  0  0
   23.2650   15.7240   29.8850 H   0  0  0  0  0  0  0  0  0  0  0  0
   20.9350   11.5980   31.2280 H   0  0  0  0  0  0  0  0  0  0  0  0
   20.2200   13.7850   32.2090 H   0  0  0  0  0  0  0  0  0  0  0  0
   22.1450   10.4610   29.4460 H   0  0  0  0  0  0  0  0  0  0  0  0
   24.9670   12.1370   27.2690 H   0  0  0  0  0  0  0  0  0  0  0  0
   25.2160    9.9110   27.5390 H   0  0  0  0  0  0  0  0  0  0  0  0
   23.4260    9.7370   27.5840 H   0  0  0  0  0  0  0  0  0  0  0  0
   24.5250    7.6810   28.4010 H   0  0  0  0  0  0  0  0  0  0  0  0
   25.6150    8.6450   29.4070 H   0  0  0  0  0  0  0  0  0  0  0  0
   24.0030   11.4760   31.9080 H   0  0  0  0  0  0  0  0  0  0  0  0
   25.4250   10.3650   32.1780 H   0  0  0  0  0  0  0  0  0  0  0  0
   26.1410   10.5360   29.9370 H   0  0  0  0  0  0  0  0  0  0  0  0
   25.5710   12.1540   30.3620 H   0  0  0  0  0  0  0  0  0  0  0  0
   22.2350    7.2140   29.3480 H   0  0  0  0  0  0  0  0  0  0  0  0
   21.9190    7.8230   30.9600 H   0  0  0  0  0  0  0  0  0  0  0  0
   24.7520    3.7160   31.9660 H   0  0  0  0  0  0  0  0  0  0  0  0
   23.4320    3.6050   30.7500 H   0  0  0  0  0  0  0  0  0  0  0  0
   26.4000    3.2960   30.4390 H   0  0  0  0  0  0  0  0  0  0  0  0
   25.0500    2.7230   29.3940 H   0  0  0  0  0  0  0  0  0  0  0  0
   25.9390    6.6840   28.7890 H   0  0  0  0  0  0  0  0  0  0  0  0
   27.3750    5.8110   29.4690 H   0  0  0  0  0  0  0  0  0  0  0  0
   25.7970    7.1290   31.0970 H   0  0  0  0  0  0  0  0  0  0  0  0
   26.3260    5.5270   31.5660 H   0  0  0  0  0  0  0  0  0  0  0  0
   25.1870    3.9870   27.0460 H   0  0  0  0  0  0  0  0  0  0  0  0
   26.1980    6.1320   26.7390 H   0  0  0  0  0  0  0  0  0  0  0  0
   27.8080    5.5070   27.3770 H   0  0  0  0  0  0  0  0  0  0  0  0
   27.0500    4.8380   25.8650 H   0  0  0  0  0  0  0  0  0  0  0  0
   27.9300    3.0750   28.0460 H   0  0  0  0  0  0  0  0  0  0  0  0
   26.3320    2.1890   28.3200 H   0  0  0  0  0  0  0  0  0  0  0  0
   26.9260    2.5420   26.6390 H   0  0  0  0  0  0  0  0  0  0  0  0
  2  7  1  0  0  0  0
  2  1  1  0  0  0  0
  3  2  2  0  0  0  0
  4  5  2  0  0  0  0
  4  3  1  0  0  0  0
  5  6  1  0  0  0  0
  6 33  1  0  0  0  0
  6  7  2  0  0  0  0
  7 34  1  0  0  0  0
  8  5  1  0  0  0  0
  9 10  1  6  0  0  0
  9  8  1  0  0  0  0
  9 19  1  0  0  0  0
 10 11  1  0  0  0  0
 11  4  1  0  0  0  0
 12 11  2  0  0  0  0
 13  9  1  0  0  0  0
 13 14  1  0  0  0  0
 14 40  1  0  0  0  0
 14 15  1  0  0  0  0
 15 20  1  0  0  0  0
 15 16  1  0  0  0  0
 16 18  1  0  0  0  0
 16 17  2  0  0  0  0
 18 41  1  0  0  0  0
 18 42  1  0  0  0  0
 19 44  1  0  0  0  0
 19 18  1  0  0  0  0
 20 21  1  0  0  0  0
 20 46  1  0  0  0  0
 21 23  1  0  0  0  0
 21 22  2  0  0  0  0
 23 24  1  0  0  0  0
 24 47  1  0  0  0  0
 25 49  1  0  0  0  0
 25 24  1  0  0  0  0
 26 27  1  0  0  0  0
 26 25  1  0  0  0  0
 27 52  1  0  0  0  0
 27 28  1  0  0  0  0
 28 23  1  0  0  0  0
 28 53  1  0  0  0  0
 28 54  1  0  0  0  0
 29 31  1  0  0  0  0
 29 26  1  0  0  0  0
 30 57  1  0  0  0  0
 30 29  1  0  0  0  0
 31 59  1  0  0  0  0
 31 60  1  0  0  0  0
 32  3  1  0  0  0  0
 35  8  1  0  0  0  0
 36 10  1  0  0  0  0
 37 13  1  0  0  0  0
 38 13  1  0  0  0  0
 39 14  1  0  0  0  0
 43 19  1  0  0  0  0
 45 20  1  0  0  0  0
 48 24  1  0  0  0  0
 50 25  1  0  0  0  0
 51 27  1  0  0  0  0
 55 29  1  0  0  0  0
 56 30  1  0  0  0  0
 58 30  1  0  0  0  0
 61 31  1  0  0  0  0
M  END
>  <Pose>
1

>  <Score>
-5.00

$$$$
