
 OpenBabel03202209553D

 52 55  0  0  0  0  0  0  0  0999 V2000
   29.0930    1.4340   27.2410 Cl  0  0  0  0  0  0  0  0  0  0  0  0
   27.8470    2.3280   28.0500 C   0  0  0  0  0  0  0  0  0  0  0  0
   27.5250    3.6350   27.7600 C   0  0  0  0  0  0  0  0  0  0  0  0
   26.5260    4.3290   28.4140 C   0  0  0  0  0  0  0  0  0  0  0  0
   25.7960    3.7250   29.4050 C   0  0  0  0  0  0  0  0  0  0  0  0
   26.1290    2.4110   29.6870 C   0  0  0  0  0  0  0  0  0  0  0  0
   27.1220    1.7020   29.0470 C   0  0  0  0  0  0  0  0  0  0  0  0
   24.7290    4.3290   30.1180 N   0  0  0  0  0  0  0  0  0  0  0  0
   23.8650    3.7400   30.9000 N   0  0  0  0  0  0  0  0  0  0  0  0
   22.9680    4.5910   31.4110 C   0  0  0  0  0  0  0  0  0  0  0  0
   23.2830    5.8480   30.9120 C   0  0  0  0  0  0  0  0  0  0  0  0
   24.3960    5.6400   30.1040 C   0  0  0  0  0  0  0  0  0  0  0  0
   24.9010    6.7210   29.5030 N   0  0  0  0  0  0  0  0  0  0  0  0
   24.3570    7.9460   29.6720 C   0  0  0  0  0  0  0  0  0  0  0  0
   23.2840    8.1780   30.4440 N   0  0  0  0  0  0  0  0  0  0  0  0
   22.7430    7.1020   31.0730 C   0  0  0  0  0  0  0  0  0  0  0  0
   21.7380    7.2710   31.8080 O   0  0  0  0  0  0  0  0  0  0  0  0
   22.6820    9.5030   30.6190 C   0  0  0  0  0  0  0  0  0  0  0  0
   23.0380   10.4220   29.5240 C   0  0  0  0  0  0  0  0  0  0  0  0
   22.5800   10.0870   28.3750 O   0  0  0  0  0  0  0  0  0  0  0  0
   23.8000   11.5840   29.6170 N   0  0  0  0  0  0  0  0  0  0  0  0
   23.6120   12.5280   30.7300 C   0  0  0  0  0  0  0  0  0  0  0  0
   23.0830   13.8010   30.0570 C   0  0  0  0  0  0  0  0  0  0  0  0
   23.9460   14.1910   28.9740 N   0  0  0  0  0  0  0  0  0  0  0  0
   25.1450   13.4030   28.7580 C   0  0  0  0  0  0  0  0  0  0  0  0
   24.8320   11.9320   28.6660 C   0  0  0  0  0  0  0  0  0  0  0  0
   23.6290   15.2830   28.1360 C   0  0  0  0  0  0  0  0  0  0  0  0
   23.2760   15.0190   26.9270 O   0  0  0  0  0  0  0  0  0  0  0  0
   23.6580   16.6140   28.4870 O   0  0  0  0  0  0  0  0  0  0  0  0
   22.5910   17.5020   28.1020 C   0  0  0  0  0  0  0  0  0  0  0  0
   23.1470   18.3740   26.9910 C   0  0  0  0  0  0  0  0  0  0  0  0
   28.1260    4.0920   26.9550 H   0  0  0  0  0  0  0  0  0  0  0  0
   26.3090    5.3490   28.1570 H   0  0  0  0  0  0  0  0  0  0  0  0
   25.5570    1.9050   30.4840 H   0  0  0  0  0  0  0  0  0  0  0  0
   27.2970    0.6730   29.3510 H   0  0  0  0  0  0  0  0  0  0  0  0
   22.1350    4.4450   32.0750 H   0  0  0  0  0  0  0  0  0  0  0  0
   24.7890    8.8200   29.1660 H   0  0  0  0  0  0  0  0  0  0  0  0
   23.0790    9.9670   31.5740 H   0  0  0  0  0  0  0  0  0  0  0  0
   21.5950    9.3520   30.7260 H   0  0  0  0  0  0  0  0  0  0  0  0
   24.5550   12.7100   31.2640 H   0  0  0  0  0  0  0  0  0  0  0  0
   22.8150   12.1390   31.3610 H   0  0  0  0  0  0  0  0  0  0  0  0
   22.9500   14.5570   30.8460 H   0  0  0  0  0  0  0  0  0  0  0  0
   22.0480   13.5680   29.6630 H   0  0  0  0  0  0  0  0  0  0  0  0
   25.8390   13.6400   29.5750 H   0  0  0  0  0  0  0  0  0  0  0  0
   25.5830   13.7180   27.7710 H   0  0  0  0  0  0  0  0  0  0  0  0
   25.7680   11.4130   29.0420 H   0  0  0  0  0  0  0  0  0  0  0  0
   24.6010   11.5790   27.6490 H   0  0  0  0  0  0  0  0  0  0  0  0
   21.7470   16.8770   27.6670 H   0  0  0  0  0  0  0  0  0  0  0  0
   22.2110   18.1130   28.9020 H   0  0  0  0  0  0  0  0  0  0  0  0
   22.4830   18.4880   26.1310 H   0  0  0  0  0  0  0  0  0  0  0  0
   23.4300   19.3550   27.4780 H   0  0  0  0  0  0  0  0  0  0  0  0
   24.0910   17.9350   26.6450 H   0  0  0  0  0  0  0  0  0  0  0  0
  1  2  1  0  0  0  0
  2  7  1  0  0  0  0
  3  2  2  0  0  0  0
  3  4  1  0  0  0  0
  4  5  2  0  0  0  0
  5  6  1  0  0  0  0
  5  8  1  0  0  0  0
  6 34  1  0  0  0  0
  7 35  1  0  0  0  0
  7  6  2  0  0  0  0
  8  9  1  0  0  0  0
  9 10  2  0  0  0  0
 10 36  1  0  0  0  0
 11 16  1  0  0  0  0
 11 10  1  0  0  0  0
 12  8  1  0  0  0  0
 12 11  2  0  0  0  0
 13 14  2  0  0  0  0
 13 12  1  0  0  0  0
 14 15  1  0  0  0  0
 15 18  1  0  0  0  0
 15 16  1  0  0  0  0
 16 17  2  0  0  0  0
 18 39  1  0  0  0  0
 18 38  1  0  0  0  0
 19 21  1  0  0  0  0
 19 18  1  0  0  0  0
 20 19  2  0  0  0  0
 21 22  1  0  0  0  0
 22 40  1  0  0  0  0
 22 41  1  0  0  0  0
 23 22  1  0  0  0  0
 23 42  1  0  0  0  0
 24 23  1  0  0  0  0
 25 24  1  0  0  0  0
 25 44  1  0  0  0  0
 26 25  1  0  0  0  0
 26 46  1  0  0  0  0
 26 21  1  0  0  0  0
 27 29  1  0  0  0  0
 27 24  1  0  0  0  0
 28 27  2  0  0  0  0
 30 29  1  0  0  0  0
 30 49  1  0  0  0  0
 31 51  1  0  0  0  0
 31 30  1  0  0  0  0
 32  3  1  0  0  0  0
 33  4  1  0  0  0  0
 37 14  1  0  0  0  0
 43 23  1  0  0  0  0
 45 25  1  0  0  0  0
 47 26  1  0  0  0  0
 48 30  1  0  0  0  0
 50 31  1  0  0  0  0
 52 31  1  0  0  0  0
M  END
>  <Pose>
1

>  <Score>
-5.97

$$$$
