
 OpenBabel03202209553D

 54 58  0  0  1  0  0  0  0  0999 V2000
   25.3290   11.2040   29.9350 S   0  0  0  0  0  0  0  0  0  0  0  0
   26.7740   11.6850   29.9730 O   0  0  0  0  0  0  0  0  0  0  0  0
   25.0980   10.8630   28.4620 O   0  0  0  0  0  0  0  0  0  0  0  0
   25.2390    9.7720   30.8080 N   0  0  0  0  0  0  0  0  0  0  0  0
   24.0630    9.5790   31.6150 C   0  0  0  0  0  0  0  0  0  0  0  0
   23.4880    8.1920   31.4400 C   0  0  0  0  0  0  0  0  0  0  0  0
   23.2380    7.9240   30.0010 N   0  0  0  0  0  0  0  0  0  0  0  0
   24.5280    7.9260   29.3260 C   0  0  0  0  0  0  0  0  0  0  0  0
   25.6330    8.5630   30.1510 C   0  0  0  0  0  0  0  0  0  0  0  0
   22.6900    6.5850   29.9920 C   0  0  0  0  0  0  0  0  0  0  0  0
   23.2790    5.5940   30.9030 C   0  0  0  0  0  0  0  0  0  0  0  0
   24.4430    4.8740   30.5100 N   0  0  0  0  0  0  0  0  0  0  0  0
   25.2590    4.9900   29.3500 C   0  0  0  0  0  0  0  0  0  0  0  0
   24.8870    5.4300   28.2520 O   0  0  0  0  0  0  0  0  0  0  0  0
   26.6200    4.4960   29.6710 C   0  0  1  0  0  0  0  0  0  0  0  0
   26.2850    3.4460   30.7550 C   0  0  2  0  0  0  0  0  0  0  0  0
   26.2840    2.1390   30.0560 C   0  0  1  0  0  0  0  0  0  0  0  0
   26.0040    2.5500   28.6010 C   0  0  0  0  0  0  0  0  0  0  0  0
   27.1170    3.6120   28.5850 C   0  0  2  0  0  0  0  0  0  0  0  0
   28.2300    2.7930   29.1700 C   0  0  0  0  0  0  0  0  0  0  0  0
   27.7370    1.7620   29.8570 C   0  0  0  0  0  0  0  0  0  0  0  0
   25.0270    3.8610   31.3580 C   0  0  0  0  0  0  0  0  0  0  0  0
   24.5600    3.3970   32.4280 O   0  0  0  0  0  0  0  0  0  0  0  0
   24.2260   12.4530   30.3480 C   0  0  0  0  0  0  0  0  0  0  0  0
   23.4140   13.0180   29.3950 C   0  0  0  0  0  0  0  0  0  0  0  0
   22.5300   14.0160   29.7670 C   0  0  0  0  0  0  0  0  0  0  0  0
   22.4310   14.4730   31.0680 C   0  0  0  0  0  0  0  0  0  0  0  0
   23.2480   13.9030   32.0210 C   0  0  0  0  0  0  0  0  0  0  0  0
   24.1360   12.9000   31.6470 C   0  0  0  0  0  0  0  0  0  0  0  0
   21.2150   15.8490   31.5820 B   0  0  0  0  0  0  0  0  0  0  0  0
   24.3800    9.6490   32.6820 H   0  0  0  0  0  0  0  0  0  0  0  0
   23.3260   10.3590   31.4330 H   0  0  0  0  0  0  0  0  0  0  0  0
   22.5000    8.1560   31.9320 H   0  0  0  0  0  0  0  0  0  0  0  0
   24.1200    7.3900   31.8640 H   0  0  0  0  0  0  0  0  0  0  0  0
   24.4480    8.5620   28.4290 H   0  0  0  0  0  0  0  0  0  0  0  0
   24.7700    6.8810   29.0640 H   0  0  0  0  0  0  0  0  0  0  0  0
   26.5370    8.7310   29.5690 H   0  0  0  0  0  0  0  0  0  0  0  0
   25.8900    7.8330   30.9510 H   0  0  0  0  0  0  0  0  0  0  0  0
   22.7980    6.1560   28.9450 H   0  0  0  0  0  0  0  0  0  0  0  0
   21.5590    6.6560   30.0880 H   0  0  0  0  0  0  0  0  0  0  0  0
   23.5490    6.1610   31.8550 H   0  0  0  0  0  0  0  0  0  0  0  0
   22.4520    4.9050   31.2340 H   0  0  0  0  0  0  0  0  0  0  0  0
   27.2990    5.2650   30.0270 H   0  0  0  0  0  0  0  0  0  0  0  0
   27.1270    3.4220   31.5060 H   0  0  0  0  0  0  0  0  0  0  0  0
   25.6560    1.3600   30.4190 H   0  0  0  0  0  0  0  0  0  0  0  0
   26.2180    1.7440   27.8900 H   0  0  0  0  0  0  0  0  0  0  0  0
   25.0460    3.0450   28.4690 H   0  0  0  0  0  0  0  0  0  0  0  0
   27.3180    4.0350   27.6300 H   0  0  0  0  0  0  0  0  0  0  0  0
   29.2970    2.9690   29.0790 H   0  0  0  0  0  0  0  0  0  0  0  0
   28.2480    0.8770   30.1880 H   0  0  0  0  0  0  0  0  0  0  0  0
   23.4470   12.6940   28.3420 H   0  0  0  0  0  0  0  0  0  0  0  0
   21.8870   14.4620   29.0090 H   0  0  0  0  0  0  0  0  0  0  0  0
   23.1610   14.2690   33.0320 H   0  0  0  0  0  0  0  0  0  0  0  0
   24.7350   12.5080   32.4560 H   0  0  0  0  0  0  0  0  0  0  0  0
  1  2  2  0  0  0  0
  1 24  1  0  0  0  0
  1  4  1  0  0  0  0
  3  1  2  0  0  0  0
  4  5  1  0  0  0  0
  5 31  1  0  0  0  0
  6  5  1  0  0  0  0
  6 34  1  0  0  0  0
  6 33  1  0  0  0  0
  7  6  1  0  0  0  0
  8  7  1  0  0  0  0
  8  9  1  0  0  0  0
  9  4  1  0  0  0  0
  9 38  1  0  0  0  0
 10  7  1  0  0  0  0
 10 40  1  0  0  0  0
 10 11  1  0  0  0  0
 11 42  1  0  0  0  0
 11 41  1  0  0  0  0
 12 11  1  0  0  0  0
 12 22  1  0  0  0  0
 13 15  1  0  0  0  0
 13 12  1  0  0  0  0
 14 13  2  0  0  0  0
 15 43  1  1  0  0  0
 15 16  1  0  0  0  0
 16 22  1  0  0  0  0
 16 44  1  1  0  0  0
 17 45  1  1  0  0  0
 17 16  1  0  0  0  0
 18 17  1  0  0  0  0
 19 48  1  6  0  0  0
 19 18  1  0  0  0  0
 19 20  1  0  0  0  0
 19 15  1  0  0  0  0
 20 21  1  0  0  0  0
 21 17  1  0  0  0  0
 21 50  1  0  0  0  0
 22 23  2  0  0  0  0
 24 29  1  0  0  0  0
 25 26  1  0  0  0  0
 25 24  2  0  0  0  0
 26 27  2  0  0  0  0
 27 30  1  0  0  0  0
 27 28  1  0  0  0  0
 28 53  1  0  0  0  0
 29 28  2  0  0  0  0
 29 54  1  0  0  0  0
 32  5  1  0  0  0  0
 35  8  1  0  0  0  0
 36  8  1  0  0  0  0
 37  9  1  0  0  0  0
 39 10  1  0  0  0  0
 46 18  1  0  0  0  0
 47 18  1  0  0  0  0
 49 20  1  0  0  0  0
 51 25  1  0  0  0  0
 52 26  1  0  0  0  0
M  END
>  <Pose>
1

>  <Score>
-6.30

$$$$
