
 OpenBabel03202209553D

 40 43  0  0  0  0  0  0  0  0999 V2000
   27.5720    6.0840   28.6300 Cl  0  0  0  0  0  0  0  0  0  0  0  0
   26.4650    7.3610   29.1340 C   0  0  0  0  0  0  0  0  0  0  0  0
   26.8430    8.6870   29.1660 C   0  0  0  0  0  0  0  0  0  0  0  0
   25.9340    9.6450   29.5690 C   0  0  0  0  0  0  0  0  0  0  0  0
   26.0040   10.9970   29.7030 N   0  0  0  0  0  0  0  0  0  0  0  0
   24.8170   11.4550   30.1370 C   0  0  0  0  0  0  0  0  0  0  0  0
   23.9540   10.4290   30.2950 N   0  0  0  0  0  0  0  0  0  0  0  0
   24.6440    9.3290   29.9460 C   0  0  0  0  0  0  0  0  0  0  0  0
   24.2580    8.0090   29.9160 C   0  0  0  0  0  0  0  0  0  0  0  0
   25.1720    7.0570   29.5130 C   0  0  0  0  0  0  0  0  0  0  0  0
   22.5830   10.5390   30.7470 C   0  0  0  0  0  0  0  0  0  0  0  0
   22.4550   10.2440   32.2260 C   0  0  0  0  0  0  0  0  0  0  0  0
   21.4820    9.1690   32.3850 N   0  0  0  0  0  0  0  0  0  0  0  0
   20.2920    9.3980   32.9860 C   0  0  0  0  0  0  0  0  0  0  0  0
   19.3520    8.4050   33.1530 C   0  0  0  0  0  0  0  0  0  0  0  0
   19.6350    7.0590   32.6710 C   0  0  0  0  0  0  0  0  0  0  0  0
   18.5570    6.3190   32.9670 N   0  0  0  0  0  0  0  0  0  0  0  0
   17.6320    7.0710   33.5850 N   0  0  0  0  0  0  0  0  0  0  0  0
   18.0920    8.3260   33.7050 C   0  0  0  0  0  0  0  0  0  0  0  0
   17.4520    9.2590   34.2400 O   0  0  0  0  0  0  0  0  0  0  0  0
   20.8620    6.8600   32.0610 C   0  0  0  0  0  0  0  0  0  0  0  0
   21.7170    7.9220   31.9520 C   0  0  0  0  0  0  0  0  0  0  0  0
   21.1810    5.5250   31.5660 C   0  0  0  0  0  0  0  0  0  0  0  0
   20.7400    5.1680   30.4440 O   0  0  0  0  0  0  0  0  0  0  0  0
   21.9480    4.6520   32.2910 O   0  0  0  0  0  0  0  0  0  0  0  0
   23.1390    4.0930   31.7620 C   0  0  0  0  0  0  0  0  0  0  0  0
   27.8510    8.9430   28.8730 H   0  0  0  0  0  0  0  0  0  0  0  0
   24.6230   12.4910   30.3200 H   0  0  0  0  0  0  0  0  0  0  0  0
   23.2370    7.7640   30.2160 H   0  0  0  0  0  0  0  0  0  0  0  0
   24.8780    6.0180   29.4870 H   0  0  0  0  0  0  0  0  0  0  0  0
   22.1610   11.5480   30.5590 H   0  0  0  0  0  0  0  0  0  0  0  0
   21.9590    9.8170   30.1930 H   0  0  0  0  0  0  0  0  0  0  0  0
   22.0890   11.1020   32.7980 H   0  0  0  0  0  0  0  0  0  0  0  0
   23.4410    9.9470   32.6150 H   0  0  0  0  0  0  0  0  0  0  0  0
   20.0670   10.3880   33.3490 H   0  0  0  0  0  0  0  0  0  0  0  0
   16.7090    6.6790   33.9010 H   0  0  0  0  0  0  0  0  0  0  0  0
   22.6890    7.7590   31.4670 H   0  0  0  0  0  0  0  0  0  0  0  0
   23.3300    4.5610   30.7670 H   0  0  0  0  0  0  0  0  0  0  0  0
   23.0320    2.9860   31.6450 H   0  0  0  0  0  0  0  0  0  0  0  0
   24.0140    4.3530   32.4000 H   0  0  0  0  0  0  0  0  0  0  0  0
  1  2  1  0  0  0  0
  2  3  2  0  0  0  0
  2 10  1  0  0  0  0
  3  4  1  0  0  0  0
  4  5  1  0  0  0  0
  4  8  2  0  0  0  0
  5  6  2  0  0  0  0
  6  7  1  0  0  0  0
  6 28  1  0  0  0  0
  7 11  1  0  0  0  0
  8  7  1  0  0  0  0
  9  8  1  0  0  0  0
  9 29  1  0  0  0  0
 10  9  2  0  0  0  0
 11 12  1  0  0  0  0
 12 13  1  0  0  0  0
 12 34  1  0  0  0  0
 12 33  1  0  0  0  0
 13 14  1  0  0  0  0
 14 15  1  0  0  0  0
 14 35  1  0  0  0  0
 15 19  1  0  0  0  0
 16 17  1  0  0  0  0
 16 15  2  0  0  0  0
 17 18  1  0  0  0  0
 18 19  1  0  0  0  0
 18 36  1  0  0  0  0
 19 20  2  0  0  0  0
 21 16  1  0  0  0  0
 22 21  2  0  0  0  0
 22 13  1  0  0  0  0
 23 21  1  0  0  0  0
 23 25  1  0  0  0  0
 24 23  2  0  0  0  0
 26 25  1  0  0  0  0
 26 40  1  0  0  0  0
 27  3  1  0  0  0  0
 30 10  1  0  0  0  0
 31 11  1  0  0  0  0
 32 11  1  0  0  0  0
 37 22  1  0  0  0  0
 38 26  1  0  0  0  0
 39 26  1  0  0  0  0
M  END
>  <Pose>
1

>  <Score>
-7.48

$$$$
