
 OpenBabel03202209553D

 49 52  0  0  1  0  0  0  0  0999 V2000
   25.8900   17.5340   24.7690 Cl  0  0  0  0  0  0  0  0  0  0  0  0
   26.3970   15.9230   25.2180 C   0  0  0  0  0  0  0  0  0  0  0  0
   26.1880   15.4650   26.5120 C   0  0  0  0  0  0  0  0  0  0  0  0
   26.5820   14.1900   26.8840 C   0  0  0  0  0  0  0  0  0  0  0  0
   26.5240   13.4780   28.0200 N   0  0  0  0  0  0  0  0  0  0  0  0
   27.0660   12.2400   27.8530 C   0  0  0  0  0  0  0  0  0  0  0  0
   27.4660   12.2160   26.5540 N   0  0  0  0  0  0  0  0  0  0  0  0
   27.1850   13.3790   25.9530 C   0  0  0  0  0  0  0  0  0  0  0  0
   27.3890   13.8400   24.6700 C   0  0  0  0  0  0  0  0  0  0  0  0
   27.0010   15.1140   24.2810 C   0  0  0  0  0  0  0  0  0  0  0  0
   27.1560   11.1970   28.8930 C   0  0  0  0  0  0  0  0  0  0  0  0
   25.9680   11.2290   29.8050 C   0  0  0  0  0  0  0  0  0  0  0  0
   25.0390   10.1260   29.4840 C   0  0  0  0  0  0  0  0  0  0  0  0
   24.1010   10.3520   28.6810 O   0  0  0  0  0  0  0  0  0  0  0  0
   25.1540    8.8320   30.0340 N   0  0  0  0  0  0  0  0  0  0  0  0
   24.8230    8.3320   31.3530 C   0  0  0  0  0  0  0  0  0  0  0  0
   24.2380    7.0190   31.0820 C   0  0  2  0  0  0  0  0  0  0  0  0
   24.5240    6.6890   29.6160 C   0  0  1  0  0  0  0  0  0  0  0  0
   25.6680    7.6850   29.3310 C   0  0  0  0  0  0  0  0  0  0  0  0
   24.9420    5.3960   29.4250 O   0  0  0  0  0  0  0  0  0  0  0  0
   22.9040    6.7170   31.4290 N   0  0  0  0  0  0  0  0  0  0  0  0
   22.1120    7.7470   31.8340 C   0  0  0  0  0  0  0  0  0  0  0  0
   20.7960    7.5550   32.1900 C   0  0  0  0  0  0  0  0  0  0  0  0
   20.2410    6.2980   32.1430 C   0  0  0  0  0  0  0  0  0  0  0  0
   19.0320    6.0940   32.4650 O   0  0  0  0  0  0  0  0  0  0  0  0
   21.0220    5.2830   31.7430 N   0  0  0  0  0  0  0  0  0  0  0  0
   22.2910    5.5290   31.4100 C   0  0  0  0  0  0  0  0  0  0  0  0
   22.9700    4.5480   31.0430 O   0  0  0  0  0  0  0  0  0  0  0  0
   19.9360    8.7010   32.6330 C   0  0  0  0  0  0  0  0  0  0  0  0
   25.7140   16.0900   27.2610 H   0  0  0  0  0  0  0  0  0  0  0  0
   26.1030   13.8760   28.8950 H   0  0  0  0  0  0  0  0  0  0  0  0
   27.8590   13.2320   23.9130 H   0  0  0  0  0  0  0  0  0  0  0  0
   27.1750   15.4420   23.2720 H   0  0  0  0  0  0  0  0  0  0  0  0
   28.0680   11.3950   29.5030 H   0  0  0  0  0  0  0  0  0  0  0  0
   27.2410   10.1790   28.4090 H   0  0  0  0  0  0  0  0  0  0  0  0
   26.3250   11.0140   30.8570 H   0  0  0  0  0  0  0  0  0  0  0  0
   25.4930   12.2200   29.8610 H   0  0  0  0  0  0  0  0  0  0  0  0
   24.2840    9.0580   31.9680 H   0  0  0  0  0  0  0  0  0  0  0  0
   25.8300    8.2360   31.8660 H   0  0  0  0  0  0  0  0  0  0  0  0
   24.8620    6.2400   31.6320 H   0  0  0  0  0  0  0  0  0  0  0  0
   23.7030    6.9880   28.9430 H   0  0  0  0  0  0  0  0  0  0  0  0
   25.7840    7.8500   28.2400 H   0  0  0  0  0  0  0  0  0  0  0  0
   26.5800    7.2590   29.7980 H   0  0  0  0  0  0  0  0  0  0  0  0
   25.2730    5.0470   30.2910 H   0  0  0  0  0  0  0  0  0  0  0  0
   22.4640    8.7640   31.8960 H   0  0  0  0  0  0  0  0  0  0  0  0
   20.6170    4.2970   31.7000 H   0  0  0  0  0  0  0  0  0  0  0  0
   20.5600    9.6270   32.7400 H   0  0  0  0  0  0  0  0  0  0  0  0
   19.0880    8.8500   31.9720 H   0  0  0  0  0  0  0  0  0  0  0  0
   19.5440    8.4720   33.6620 H   0  0  0  0  0  0  0  0  0  0  0  0
  1  2  1  0  0  0  0
  2  3  1  0  0  0  0
  3  4  2  0  0  0  0
  3 30  1  0  0  0  0
  4  5  1  0  0  0  0
  5 31  1  0  0  0  0
  6  5  1  0  0  0  0
  6 11  1  0  0  0  0
  7  6  2  0  0  0  0
  8  7  1  0  0  0  0
  8  4  1  0  0  0  0
  9  8  2  0  0  0  0
 10  9  1  0  0  0  0
 10  2  2  0  0  0  0
 11 34  1  0  0  0  0
 11 12  1  0  0  0  0
 12 37  1  0  0  0  0
 12 36  1  0  0  0  0
 13 12  1  0  0  0  0
 13 15  1  0  0  0  0
 14 13  2  0  0  0  0
 15 16  1  0  0  0  0
 16 39  1  0  0  0  0
 16 38  1  0  0  0  0
 17 16  1  0  0  0  0
 17 21  1  0  0  0  0
 17 40  1  1  0  0  0
 18 41  1  6  0  0  0
 18 17  1  0  0  0  0
 19 18  1  0  0  0  0
 19 43  1  0  0  0  0
 19 15  1  0  0  0  0
 20 18  1  0  0  0  0
 20 44  1  0  0  0  0
 21 22  1  0  0  0  0
 22 45  1  0  0  0  0
 22 23  2  0  0  0  0
 23 29  1  0  0  0  0
 24 23  1  0  0  0  0
 24 25  2  0  0  0  0
 26 24  1  0  0  0  0
 27 21  1  0  0  0  0
 27 26  1  0  0  0  0
 28 27  2  0  0  0  0
 29 47  1  0  0  0  0
 29 49  1  0  0  0  0
 32  9  1  0  0  0  0
 33 10  1  0  0  0  0
 35 11  1  0  0  0  0
 42 19  1  0  0  0  0
 46 26  1  0  0  0  0
 48 29  1  0  0  0  0
M  END
>  <Pose>
1

>  <Score>
-7.27

$$$$
