
 OpenBabel03202209553D

 55 59  0  0  1  0  0  0  0  0999 V2000
   26.7720    1.0180   30.0520 Cl  0  0  0  0  0  0  0  0  0  0  0  0
   26.6970    2.6040   29.2950 C   0  0  0  0  0  0  0  0  0  0  0  0
   26.8270    3.7610   30.0270 C   0  0  0  0  0  0  0  0  0  0  0  0
   26.7610    5.0000   29.3890 C   0  0  0  0  0  0  0  0  0  0  0  0
   26.8520    6.2680   29.8230 N   0  0  0  0  0  0  0  0  0  0  0  0
   26.7230    7.1360   28.8040 C   0  0  0  0  0  0  0  0  0  0  0  0
   26.5480    6.3920   27.7110 N   0  0  0  0  0  0  0  0  0  0  0  0
   26.5660    5.0800   28.0270 C   0  0  0  0  0  0  0  0  0  0  0  0
   26.4340    3.9200   27.2930 C   0  0  0  0  0  0  0  0  0  0  0  0
   26.5020    2.6880   27.9440 C   0  0  0  0  0  0  0  0  0  0  0  0
   26.7750    8.6280   28.9450 C   0  0  0  0  0  0  0  0  0  0  0  0
   25.6720    9.0720   29.8800 C   0  0  0  0  0  0  0  0  0  0  0  0
   25.0710   10.3290   29.4080 C   0  0  0  0  0  0  0  0  0  0  0  0
   25.3640   10.7580   28.2750 O   0  0  0  0  0  0  0  0  0  0  0  0
   24.1770   11.0410   30.2230 N   0  0  0  0  0  0  0  0  0  0  0  0
   24.0060   11.0770   31.6410 C   0  0  0  0  0  0  0  0  0  0  0  0
   22.4710   11.0880   31.8440 C   0  0  1  0  0  0  0  0  0  0  0  0
   22.0660   11.8920   30.6600 C   0  0  2  0  0  0  0  0  0  0  0  0
   23.1970   11.9680   29.6910 C   0  0  0  0  0  0  0  0  0  0  0  0
   21.7150   13.2040   30.9780 O   0  0  0  0  0  0  0  0  0  0  0  0
   21.9990    9.7320   31.8330 N   0  0  0  0  0  0  0  0  0  0  0  0
   20.8580    9.2490   32.3520 C   0  0  0  0  0  0  0  0  0  0  0  0
   20.8050    7.8610   32.1060 C   0  0  0  0  0  0  0  0  0  0  0  0
   21.9320    7.5600   31.4410 N   0  0  0  0  0  0  0  0  0  0  0  0
   22.6550    8.6630   31.2700 C   0  0  0  0  0  0  0  0  0  0  0  0
   19.7380    7.1010   32.5310 C   0  0  0  0  0  0  0  0  0  0  0  0
   19.7190    5.8630   32.2960 O   0  0  0  0  0  0  0  0  0  0  0  0
   18.7510    7.7250   33.1840 N   0  0  0  0  0  0  0  0  0  0  0  0
   18.8100    9.0380   33.4120 C   0  0  0  0  0  0  0  0  0  0  0  0
   17.8730    9.6100   34.0290 O   0  0  0  0  0  0  0  0  0  0  0  0
   19.8440    9.8400   33.0140 N   0  0  0  0  0  0  0  0  0  0  0  0
   19.8400   11.2410   33.2940 C   0  0  0  0  0  0  0  0  0  0  0  0
   17.6030    6.9430   33.6470 C   0  0  0  0  0  0  0  0  0  0  0  0
   26.9810    3.7190   31.0920 H   0  0  0  0  0  0  0  0  0  0  0  0
   27.0030    6.5140   30.8380 H   0  0  0  0  0  0  0  0  0  0  0  0
   26.2810    3.9530   26.2260 H   0  0  0  0  0  0  0  0  0  0  0  0
   26.4000    1.7680   27.3700 H   0  0  0  0  0  0  0  0  0  0  0  0
   26.6460    9.0660   27.9380 H   0  0  0  0  0  0  0  0  0  0  0  0
   27.7600    8.9490   29.3410 H   0  0  0  0  0  0  0  0  0  0  0  0
   26.0400    9.1200   30.9140 H   0  0  0  0  0  0  0  0  0  0  0  0
   24.9180    8.2310   29.8730 H   0  0  0  0  0  0  0  0  0  0  0  0
   24.4010   12.0900   31.9620 H   0  0  0  0  0  0  0  0  0  0  0  0
   24.5170   10.3410   32.2350 H   0  0  0  0  0  0  0  0  0  0  0  0
   22.4040   11.6010   32.8250 H   0  0  0  0  0  0  0  0  0  0  0  0
   21.2360   11.3540   30.1150 H   0  0  0  0  0  0  0  0  0  0  0  0
   22.9070   11.7110   28.6510 H   0  0  0  0  0  0  0  0  0  0  0  0
   23.6320   13.0110   29.6820 H   0  0  0  0  0  0  0  0  0  0  0  0
   21.1670   13.6220   30.2560 H   0  0  0  0  0  0  0  0  0  0  0  0
   23.6020    8.7490   30.7800 H   0  0  0  0  0  0  0  0  0  0  0  0
   19.4190   11.8780   32.4900 H   0  0  0  0  0  0  0  0  0  0  0  0
   19.0240   11.3670   34.1000 H   0  0  0  0  0  0  0  0  0  0  0  0
   20.7060   11.6450   33.8250 H   0  0  0  0  0  0  0  0  0  0  0  0
   16.6940    7.2160   33.0650 H   0  0  0  0  0  0  0  0  0  0  0  0
   17.8130    5.8640   33.5360 H   0  0  0  0  0  0  0  0  0  0  0  0
   17.3950    7.2110   34.7020 H   0  0  0  0  0  0  0  0  0  0  0  0
  2  3  1  0  0  0  0
  2  1  1  0  0  0  0
  3 34  1  0  0  0  0
  4  5  1  0  0  0  0
  4  3  2  0  0  0  0
  5 35  1  0  0  0  0
  6 11  1  0  0  0  0
  6  5  1  0  0  0  0
  7  8  1  0  0  0  0
  7  6  2  0  0  0  0
  8  4  1  0  0  0  0
  9 10  1  0  0  0  0
  9  8  2  0  0  0  0
 10  2  2  0  0  0  0
 11 39  1  0  0  0  0
 11 12  1  0  0  0  0
 12 40  1  0  0  0  0
 13 12  1  0  0  0  0
 13 15  1  0  0  0  0
 14 13  2  0  0  0  0
 15 16  1  0  0  0  0
 16 17  1  0  0  0  0
 16 42  1  0  0  0  0
 16 43  1  0  0  0  0
 17 44  1  1  0  0  0
 18 45  1  6  0  0  0
 18 20  1  0  0  0  0
 18 17  1  0  0  0  0
 19 15  1  0  0  0  0
 19 18  1  0  0  0  0
 21 17  1  0  0  0  0
 21 22  1  0  0  0  0
 22 31  1  0  0  0  0
 23 22  2  0  0  0  0
 23 26  1  0  0  0  0
 24 23  1  0  0  0  0
 25 24  2  0  0  0  0
 25 21  1  0  0  0  0
 26 28  1  0  0  0  0
 27 26  2  0  0  0  0
 28 29  1  0  0  0  0
 28 33  1  0  0  0  0
 29 30  2  0  0  0  0
 31 32  1  0  0  0  0
 31 29  1  0  0  0  0
 32 52  1  0  0  0  0
 32 51  1  0  0  0  0
 33 55  1  0  0  0  0
 36  9  1  0  0  0  0
 37 10  1  0  0  0  0
 38 11  1  0  0  0  0
 41 12  1  0  0  0  0
 46 19  1  0  0  0  0
 47 19  1  0  0  0  0
 48 20  1  0  0  0  0
 49 25  1  0  0  0  0
 50 32  1  0  0  0  0
 53 33  1  0  0  0  0
 54 33  1  0  0  0  0
M  END
>  <Pose>
1

>  <Score>
-7.75

$$$$
