
 OpenBabel03202209553D

 39 42  0  0  0  0  0  0  0  0999 V2000
   21.8900    9.6490   31.9340 B   0  0  0  0  0  0  0  0  0  0  0  0
   22.8260    8.2110   31.1330 C   0  0  0  0  0  0  0  0  0  0  0  0
   24.0580    8.4800   30.5360 C   0  0  0  0  0  0  0  0  0  0  0  0
   24.6830    7.3840   29.9710 C   0  0  0  0  0  0  0  0  0  0  0  0
   24.1280    6.1030   29.9940 C   0  0  0  0  0  0  0  0  0  0  0  0
   22.9120    5.9010   30.5970 C   0  0  0  0  0  0  0  0  0  0  0  0
   22.2520    6.9640   31.1720 C   0  0  0  0  0  0  0  0  0  0  0  0
   24.5830    9.7900   30.5340 N   0  0  0  0  0  0  0  0  0  0  0  0
   24.7500   10.6630   29.4590 C   0  0  0  0  0  0  0  0  0  0  0  0
   25.8620   10.8430   28.9290 O   0  0  0  0  0  0  0  0  0  0  0  0
   23.6070   11.4270   28.8920 C   0  0  0  0  0  0  0  0  0  0  0  0
   23.8440   12.8750   29.0030 N   0  0  0  0  0  0  0  0  0  0  0  0
   24.6650   13.4890   29.8390 N   0  0  0  0  0  0  0  0  0  0  0  0
   24.6090   14.8020   29.6460 N   0  0  0  0  0  0  0  0  0  0  0  0
   23.7250   15.0420   28.6540 C   0  0  0  0  0  0  0  0  0  0  0  0
   23.2770   13.8310   28.2870 N   0  0  0  0  0  0  0  0  0  0  0  0
   23.3480   16.3390   28.1110 C   0  0  0  0  0  0  0  0  0  0  0  0
   22.5640   17.1620   28.8860 C   0  0  0  0  0  0  0  0  0  0  0  0
   22.2060   18.3950   28.3680 C   0  0  0  0  0  0  0  0  0  0  0  0
   22.6060   18.8090   27.1220 C   0  0  0  0  0  0  0  0  0  0  0  0
   23.3920   17.9850   26.3430 C   0  0  0  0  0  0  0  0  0  0  0  0
   23.7500   16.7530   26.8630 C   0  0  0  0  0  0  0  0  0  0  0  0
   22.1100   16.8020   30.1890 N   0  0  0  0  0  0  0  0  0  0  0  0
   22.3480   17.5150   31.2830 N   0  0  0  0  0  0  0  0  0  0  0  0
   21.7940   16.9110   32.3110 N   0  0  0  0  0  0  0  0  0  0  0  0
   21.2010   15.8050   31.8680 N   0  0  0  0  0  0  0  0  0  0  0  0
   21.3990   15.7380   30.5350 C   0  0  0  0  0  0  0  0  0  0  0  0
   25.6270    7.4700   29.4880 H   0  0  0  0  0  0  0  0  0  0  0  0
   24.6350    5.2690   29.5480 H   0  0  0  0  0  0  0  0  0  0  0  0
   22.4430    4.9330   30.6410 H   0  0  0  0  0  0  0  0  0  0  0  0
   21.2980    6.7700   31.6380 H   0  0  0  0  0  0  0  0  0  0  0  0
   24.8950   10.1620   31.4800 H   0  0  0  0  0  0  0  0  0  0  0  0
   22.6440   11.1660   29.3480 H   0  0  0  0  0  0  0  0  0  0  0  0
   23.5010   11.2450   27.7900 H   0  0  0  0  0  0  0  0  0  0  0  0
   21.5890   19.0530   28.9700 H   0  0  0  0  0  0  0  0  0  0  0  0
   22.3310   19.7780   26.7040 H   0  0  0  0  0  0  0  0  0  0  0  0
   23.7190   18.2970   25.3530 H   0  0  0  0  0  0  0  0  0  0  0  0
   24.3660   16.1250   26.2340 H   0  0  0  0  0  0  0  0  0  0  0  0
   21.0550   14.9720   29.8550 H   0  0  0  0  0  0  0  0  0  0  0  0
  2  7  1  0  0  0  0
  2  1  1  0  0  0  0
  3  2  2  0  0  0  0
  4  5  2  0  0  0  0
  4  3  1  0  0  0  0
  5  6  1  0  0  0  0
  6 30  1  0  0  0  0
  6  7  2  0  0  0  0
  7 31  1  0  0  0  0
  8  3  1  0  0  0  0
  8 32  1  0  0  0  0
  9  8  1  0  0  0  0
 10  9  2  0  0  0  0
 11 12  1  0  0  0  0
 11 33  1  0  0  0  0
 11  9  1  0  0  0  0
 12 13  1  0  0  0  0
 14 13  1  0  0  0  0
 15 14  2  0  0  0  0
 16 15  1  0  0  0  0
 16 12  1  0  0  0  0
 17 15  1  0  0  0  0
 17 18  1  0  0  0  0
 18 23  1  0  0  0  0
 19 18  2  0  0  0  0
 19 35  1  0  0  0  0
 20 19  1  0  0  0  0
 21 22  1  0  0  0  0
 21 20  2  0  0  0  0
 22 17  2  0  0  0  0
 23 27  1  0  0  0  0
 23 24  1  0  0  0  0
 24 25  2  0  0  0  0
 26 25  1  0  0  0  0
 27 26  2  0  0  0  0
 28  4  1  0  0  0  0
 29  5  1  0  0  0  0
 34 11  1  0  0  0  0
 36 20  1  0  0  0  0
 37 21  1  0  0  0  0
 38 22  1  0  0  0  0
 39 27  1  0  0  0  0
M  END
>  <Pose>
1

>  <Score>
-6.79

$$$$
