
 OpenBabel03202209553D

 53 56  0  0  0  0  0  0  0  0999 V2000
   17.7920    8.0930   33.2840 B   0  0  0  0  0  0  0  0  0  0  0  0
   19.5150    7.6250   32.5830 C   0  0  0  0  0  0  0  0  0  0  0  0
   20.4610    8.6240   32.3450 C   0  0  0  0  0  0  0  0  0  0  0  0
   21.7040    8.2600   31.8370 C   0  0  0  0  0  0  0  0  0  0  0  0
   22.0250    6.9510   31.5640 C   0  0  0  0  0  0  0  0  0  0  0  0
   23.2970    6.8650   31.0790 N   0  0  0  0  0  0  0  0  0  0  0  0
   23.7560    8.1220   31.0530 C   0  0  0  0  0  0  0  0  0  0  0  0
   22.8090    9.0160   31.5110 C   0  0  0  0  0  0  0  0  0  0  0  0
   23.9600    5.6410   30.6840 C   0  0  0  0  0  0  0  0  0  0  0  0
   24.7160    5.8070   29.3960 C   0  0  0  0  0  0  0  0  0  0  0  0
   24.2050    6.4920   28.4870 O   0  0  0  0  0  0  0  0  0  0  0  0
   25.9700    5.2070   29.2110 N   0  0  0  0  0  0  0  0  0  0  0  0
   26.1480    3.9080   28.6010 C   0  0  0  0  0  0  0  0  0  0  0  0
   27.1690    4.0790   27.4890 C   0  0  0  0  0  0  0  0  0  0  0  0
   27.4950    5.4290   27.2850 N   0  0  0  0  0  0  0  0  0  0  0  0
   27.9810    6.2060   28.3490 C   0  0  0  0  0  0  0  0  0  0  0  0
   27.2200    5.8620   29.6250 C   0  0  0  0  0  0  0  0  0  0  0  0
   27.1730    6.0450   26.0650 C   0  0  0  0  0  0  0  0  0  0  0  0
   28.0700    7.1690   25.6890 C   0  0  0  0  0  0  0  0  0  0  0  0
   27.7110    8.3190   26.0490 O   0  0  0  0  0  0  0  0  0  0  0  0
   29.2640    7.0100   24.9690 N   0  0  0  0  0  0  0  0  0  0  0  0
   30.0890    8.1590   24.6550 C   0  0  0  0  0  0  0  0  0  0  0  0
   31.4840    7.8570   25.1600 C   0  0  0  0  0  0  0  0  0  0  0  0
   31.9410    6.7850   24.3790 O   0  0  0  0  0  0  0  0  0  0  0  0
   31.2370    5.6330   24.6360 C   0  0  0  0  0  0  0  0  0  0  0  0
   29.7580    5.7330   24.4930 C   0  0  0  0  0  0  0  0  0  0  0  0
   21.0970    5.9620   31.7970 C   0  0  0  0  0  0  0  0  0  0  0  0
   19.8520    6.3180   32.3050 C   0  0  0  0  0  0  0  0  0  0  0  0
   20.1910    9.6360   32.5620 H   0  0  0  0  0  0  0  0  0  0  0  0
   24.7490    8.4010   30.7140 H   0  0  0  0  0  0  0  0  0  0  0  0
   22.8630   10.0860   31.6150 H   0  0  0  0  0  0  0  0  0  0  0  0
   24.6940    5.3000   31.4470 H   0  0  0  0  0  0  0  0  0  0  0  0
   23.2310    4.8240   30.4890 H   0  0  0  0  0  0  0  0  0  0  0  0
   25.2080    3.4560   28.2750 H   0  0  0  0  0  0  0  0  0  0  0  0
   26.5940    3.1840   29.3400 H   0  0  0  0  0  0  0  0  0  0  0  0
   26.6530    3.7090   26.5550 H   0  0  0  0  0  0  0  0  0  0  0  0
   28.0290    3.3840   27.6210 H   0  0  0  0  0  0  0  0  0  0  0  0
   29.0630    6.1880   28.5140 H   0  0  0  0  0  0  0  0  0  0  0  0
   27.7250    7.2880   28.1490 H   0  0  0  0  0  0  0  0  0  0  0  0
   27.8080    5.0820   30.1480 H   0  0  0  0  0  0  0  0  0  0  0  0
   26.9920    6.7350   30.2330 H   0  0  0  0  0  0  0  0  0  0  0  0
   27.1310    5.2580   25.2610 H   0  0  0  0  0  0  0  0  0  0  0  0
   26.1150    6.4230   26.1350 H   0  0  0  0  0  0  0  0  0  0  0  0
   30.1810    8.2170   23.5310 H   0  0  0  0  0  0  0  0  0  0  0  0
   29.6730    9.0990   25.0460 H   0  0  0  0  0  0  0  0  0  0  0  0
   32.1440    8.7280   24.9290 H   0  0  0  0  0  0  0  0  0  0  0  0
   31.4480    7.6250   26.2310 H   0  0  0  0  0  0  0  0  0  0  0  0
   31.5960    4.8570   23.9190 H   0  0  0  0  0  0  0  0  0  0  0  0
   31.5610    5.2790   25.6370 H   0  0  0  0  0  0  0  0  0  0  0  0
   29.4830    5.6070   23.4270 H   0  0  0  0  0  0  0  0  0  0  0  0
   29.3010    4.8790   25.0280 H   0  0  0  0  0  0  0  0  0  0  0  0
   21.3120    4.9150   31.5950 H   0  0  0  0  0  0  0  0  0  0  0  0
   19.1380    5.5240   32.4810 H   0  0  0  0  0  0  0  0  0  0  0  0
  2  1  1  0  0  0  0
  3 29  1  0  0  0  0
  3  2  1  0  0  0  0
  4  3  2  0  0  0  0
  5 27  2  0  0  0  0
  5  4  1  0  0  0  0
  6  5  1  0  0  0  0
  7  6  1  0  0  0  0
  7  8  2  0  0  0  0
  8 31  1  0  0  0  0
  8  4  1  0  0  0  0
  9  6  1  0  0  0  0
  9 32  1  0  0  0  0
 10  9  1  0  0  0  0
 11 10  2  0  0  0  0
 12 10  1  0  0  0  0
 12 17  1  0  0  0  0
 13 12  1  0  0  0  0
 13 35  1  0  0  0  0
 14 37  1  0  0  0  0
 14 13  1  0  0  0  0
 15 14  1  0  0  0  0
 15 16  1  0  0  0  0
 16 38  1  0  0  0  0
 16 17  1  0  0  0  0
 17 40  1  0  0  0  0
 17 41  1  0  0  0  0
 18 43  1  0  0  0  0
 18 15  1  0  0  0  0
 19 20  2  0  0  0  0
 19 18  1  0  0  0  0
 21 19  1  0  0  0  0
 22 21  1  0  0  0  0
 22 45  1  0  0  0  0
 22 23  1  0  0  0  0
 23 47  1  0  0  0  0
 24 25  1  0  0  0  0
 24 23  1  0  0  0  0
 25 49  1  0  0  0  0
 26 25  1  0  0  0  0
 26 21  1  0  0  0  0
 26 51  1  0  0  0  0
 27 28  1  0  0  0  0
 28 53  1  0  0  0  0
 28  2  2  0  0  0  0
 30  7  1  0  0  0  0
 33  9  1  0  0  0  0
 34 13  1  0  0  0  0
 36 14  1  0  0  0  0
 39 16  1  0  0  0  0
 42 18  1  0  0  0  0
 44 22  1  0  0  0  0
 46 23  1  0  0  0  0
 48 25  1  0  0  0  0
 50 26  1  0  0  0  0
 52 27  1  0  0  0  0
M  END
>  <Pose>
1

>  <Score>
-5.98

$$$$
