
 OpenBabel03202209553D

 61 64  0  0  1  0  0  0  0  0999 V2000
   22.6830    8.8340   31.3720 S   0  0  0  0  0  0  0  0  0  0  0  0
   21.4020    9.0840   30.5790 O   0  0  0  0  0  0  0  0  0  0  0  0
   22.2300    8.9540   32.8280 O   0  0  0  0  0  0  0  0  0  0  0  0
   23.8460    9.9850   31.0900 N   0  0  0  0  0  0  0  0  0  0  0  0
   24.2230   10.4620   29.8490 C   0  0  1  0  0  0  0  0  0  0  0  0
   23.7410   11.9180   29.8040 C   0  0  0  0  0  0  0  0  0  0  0  0
   23.9760   12.3600   31.2320 C   0  0  0  0  0  0  0  0  0  0  0  0
   23.8300   11.0930   32.0410 C   0  0  0  0  0  0  0  0  0  0  0  0
   25.7410   10.4620   29.7740 C   0  0  0  0  0  0  0  0  0  0  0  0
   26.2820    9.3500   29.8440 O   0  0  0  0  0  0  0  0  0  0  0  0
   26.4280   11.6800   29.6340 N   0  0  0  0  0  0  0  0  0  0  0  0
   27.4670   11.8170   28.6430 C   0  0  0  0  0  0  0  0  0  0  0  0
   27.0170   12.2080   27.2880 C   0  0  0  0  0  0  0  0  0  0  0  0
   27.5110   13.4400   26.7840 N   0  0  0  0  0  0  0  0  0  0  0  0
   26.9130   14.6160   27.3260 C   0  0  0  0  0  0  0  0  0  0  0  0
   28.0060   15.6490   27.5130 C   0  0  0  0  0  0  0  0  0  0  0  0
   28.7670   15.7960   26.2120 C   0  0  0  0  0  0  0  0  0  0  0  0
   27.7700   15.9160   25.0910 C   0  0  0  0  0  0  0  0  0  0  0  0
   27.1870   14.6290   24.6410 C   0  0  0  0  0  0  0  0  0  0  0  0
   27.6410   13.4180   25.3650 C   0  0  0  0  0  0  0  0  0  0  0  0
   23.1890    7.1890   31.1280 C   0  0  0  0  0  0  0  0  0  0  0  0
   24.5080    6.9430   30.7100 C   0  0  0  0  0  0  0  0  0  0  0  0
   24.9970    5.6990   30.4300 C   0  0  0  0  0  0  0  0  0  0  0  0
   24.1270    4.6320   30.5730 C   0  0  0  0  0  0  0  0  0  0  0  0
   22.8360    4.7990   30.9760 C   0  0  0  0  0  0  0  0  0  0  0  0
   22.3910    6.0870   31.2480 C   0  0  0  0  0  0  0  0  0  0  0  0
   20.7560    6.2070   31.8590 Cl  0  0  0  0  0  0  0  0  0  0  0  0
   24.6300    3.3180   30.2870 N   0  0  0  0  0  0  0  0  0  0  0  0
   25.9850    3.1580   29.8740 C   0  0  0  0  0  0  0  0  0  0  0  0
   26.3210    2.1620   29.2100 O   0  0  0  0  0  0  0  0  0  0  0  0
   26.9460    4.2170   30.2700 C   0  0  0  0  0  0  0  0  0  0  0  0
   26.2990    5.4620   30.0180 O   0  0  0  0  0  0  0  0  0  0  0  0
   23.8190   10.0150   28.9390 H   0  0  0  0  0  0  0  0  0  0  0  0
   24.2450   12.5140   29.0510 H   0  0  0  0  0  0  0  0  0  0  0  0
   22.6580   11.8940   29.5850 H   0  0  0  0  0  0  0  0  0  0  0  0
   25.0150   12.7680   31.2650 H   0  0  0  0  0  0  0  0  0  0  0  0
   23.2370   13.0910   31.5800 H   0  0  0  0  0  0  0  0  0  0  0  0
   22.8870   11.0890   32.6340 H   0  0  0  0  0  0  0  0  0  0  0  0
   24.7080   10.9720   32.6980 H   0  0  0  0  0  0  0  0  0  0  0  0
   26.2290   12.5100   30.2270 H   0  0  0  0  0  0  0  0  0  0  0  0
   28.1520   12.6370   29.0110 H   0  0  0  0  0  0  0  0  0  0  0  0
   28.0990   10.9180   28.5760 H   0  0  0  0  0  0  0  0  0  0  0  0
   25.9190   12.2330   27.2670 H   0  0  0  0  0  0  0  0  0  0  0  0
   27.3310   11.4040   26.5660 H   0  0  0  0  0  0  0  0  0  0  0  0
   26.3450   14.4380   28.2560 H   0  0  0  0  0  0  0  0  0  0  0  0
   26.1940   15.0270   26.5890 H   0  0  0  0  0  0  0  0  0  0  0  0
   27.5690   16.6650   27.7300 H   0  0  0  0  0  0  0  0  0  0  0  0
   28.6670   15.4240   28.3700 H   0  0  0  0  0  0  0  0  0  0  0  0
   29.4670   16.6220   26.2020 H   0  0  0  0  0  0  0  0  0  0  0  0
   29.3370   14.8580   26.0480 H   0  0  0  0  0  0  0  0  0  0  0  0
   28.2780   16.5020   24.2700 H   0  0  0  0  0  0  0  0  0  0  0  0
   26.9340   16.5780   25.4270 H   0  0  0  0  0  0  0  0  0  0  0  0
   26.0600   14.6750   24.5850 H   0  0  0  0  0  0  0  0  0  0  0  0
   27.4860   14.4890   23.5600 H   0  0  0  0  0  0  0  0  0  0  0  0
   28.6930   13.1740   25.1100 H   0  0  0  0  0  0  0  0  0  0  0  0
   27.0440   12.5550   24.9670 H   0  0  0  0  0  0  0  0  0  0  0  0
   25.1790    7.7980   30.6030 H   0  0  0  0  0  0  0  0  0  0  0  0
   22.1840    3.9360   31.0760 H   0  0  0  0  0  0  0  0  0  0  0  0
   23.9820    2.4990   30.3910 H   0  0  0  0  0  0  0  0  0  0  0  0
   27.9000    4.1750   29.7430 H   0  0  0  0  0  0  0  0  0  0  0  0
   27.0890    4.1700   31.3850 H   0  0  0  0  0  0  0  0  0  0  0  0
  1  3  2  0  0  0  0
  2  1  2  0  0  0  0
  4  1  1  0  0  0  0
  4  8  1  0  0  0  0
  5 33  1  6  0  0  0
  5  4  1  0  0  0  0
  6  5  1  0  0  0  0
  6  7  1  0  0  0  0
  7 36  1  0  0  0  0
  7 37  1  0  0  0  0
  7  8  1  0  0  0  0
  8 38  1  0  0  0  0
  8 39  1  0  0  0  0
  9 10  2  0  0  0  0
  9  5  1  0  0  0  0
 11  9  1  0  0  0  0
 11 40  1  0  0  0  0
 12 41  1  0  0  0  0
 12 11  1  0  0  0  0
 13 12  1  0  0  0  0
 14 13  1  0  0  0  0
 14 15  1  0  0  0  0
 15 16  1  0  0  0  0
 15 45  1  0  0  0  0
 16 47  1  0  0  0  0
 16 48  1  0  0  0  0
 17 16  1  0  0  0  0
 18 52  1  0  0  0  0
 18 17  1  0  0  0  0
 19 18  1  0  0  0  0
 19 20  1  0  0  0  0
 20 14  1  0  0  0  0
 21 26  1  0  0  0  0
 21  1  1  0  0  0  0
 22 21  2  0  0  0  0
 23 24  2  0  0  0  0
 23 22  1  0  0  0  0
 24 25  1  0  0  0  0
 25 58  1  0  0  0  0
 25 26  2  0  0  0  0
 26 27  1  0  0  0  0
 28 59  1  0  0  0  0
 28 24  1  0  0  0  0
 29 31  1  0  0  0  0
 29 28  1  0  0  0  0
 30 29  2  0  0  0  0
 31 61  1  0  0  0  0
 32 31  1  0  0  0  0
 32 23  1  0  0  0  0
 34  6  1  0  0  0  0
 35  6  1  0  0  0  0
 42 12  1  0  0  0  0
 43 13  1  0  0  0  0
 44 13  1  0  0  0  0
 46 15  1  0  0  0  0
 49 17  1  0  0  0  0
 50 17  1  0  0  0  0
 51 18  1  0  0  0  0
 53 19  1  0  0  0  0
 54 19  1  0  0  0  0
 55 20  1  0  0  0  0
 56 20  1  0  0  0  0
 57 22  1  0  0  0  0
 60 31  1  0  0  0  0
M  END
>  <Pose>
1

>  <Score>
-6.90

$$$$
