
 OpenBabel03202209553D

 39 42  0  0  0  0  0  0  0  0999 V2000
   24.8360   11.9980   30.8660 Cl  0  0  0  0  0  0  0  0  0  0  0  0
   24.6170   10.2800   30.5050 C   0  0  0  0  0  0  0  0  0  0  0  0
   25.6550    9.5220   30.0220 C   0  0  0  0  0  0  0  0  0  0  0  0
   25.4800    8.1860   29.7420 C   0  0  0  0  0  0  0  0  0  0  0  0
   24.2670    7.5120   29.9220 C   0  0  0  0  0  0  0  0  0  0  0  0
   23.2450    8.2960   30.4080 C   0  0  0  0  0  0  0  0  0  0  0  0
   23.4090    9.6620   30.6980 C   0  0  0  0  0  0  0  0  0  0  0  0
   24.1880    6.1060   29.6440 C   0  0  0  0  0  0  0  0  0  0  0  0
   25.0680    5.6940   28.7660 O   0  0  0  0  0  0  0  0  0  0  0  0
   23.3530    5.1160   30.1380 N   0  0  0  0  0  0  0  0  0  0  0  0
   22.2770    4.4030   29.5340 C   0  0  0  0  0  0  0  0  0  0  0  0
   21.0000    5.0830   30.0680 C   0  0  0  0  0  0  0  0  0  0  0  0
   21.2260    5.3620   31.4990 N   0  0  0  0  0  0  0  0  0  0  0  0
   22.1710    4.5410   32.1990 C   0  0  0  0  0  0  0  0  0  0  0  0
   23.5420    4.7320   31.5770 C   0  0  0  0  0  0  0  0  0  0  0  0
   20.5050    6.4180   32.1280 C   0  0  0  0  0  0  0  0  0  0  0  0
   19.2030    6.2750   32.4600 N   0  0  0  0  0  0  0  0  0  0  0  0
   18.5030    7.2320   33.0420 N   0  0  0  0  0  0  0  0  0  0  0  0
   19.0330    8.4240   33.3510 C   0  0  0  0  0  0  0  0  0  0  0  0
   18.1010    9.2150   33.9370 N   0  0  0  0  0  0  0  0  0  0  0  0
   16.9840    8.5130   33.9960 N   0  0  0  0  0  0  0  0  0  0  0  0
   17.2060    7.3020   33.4550 C   0  0  0  0  0  0  0  0  0  0  0  0
   20.3640    8.6480   33.0430 C   0  0  0  0  0  0  0  0  0  0  0  0
   21.0700    7.6350   32.4370 C   0  0  0  0  0  0  0  0  0  0  0  0
   26.6060   10.0150   29.8720 H   0  0  0  0  0  0  0  0  0  0  0  0
   26.3160    7.6250   29.3630 H   0  0  0  0  0  0  0  0  0  0  0  0
   22.2880    7.8520   30.6010 H   0  0  0  0  0  0  0  0  0  0  0  0
   22.5780   10.2500   31.0800 H   0  0  0  0  0  0  0  0  0  0  0  0
   22.2860    4.2020   28.4870 H   0  0  0  0  0  0  0  0  0  0  0  0
   22.2100    3.3730   30.0570 H   0  0  0  0  0  0  0  0  0  0  0  0
   20.1160    4.4310   29.9380 H   0  0  0  0  0  0  0  0  0  0  0  0
   20.9110    6.0140   29.4950 H   0  0  0  0  0  0  0  0  0  0  0  0
   21.9450    3.4540   32.1150 H   0  0  0  0  0  0  0  0  0  0  0  0
   22.2620    4.8640   33.2570 H   0  0  0  0  0  0  0  0  0  0  0  0
   24.1530    3.8120   31.5990 H   0  0  0  0  0  0  0  0  0  0  0  0
   24.1110    5.5340   32.0730 H   0  0  0  0  0  0  0  0  0  0  0  0
   16.4780    6.4980   33.3570 H   0  0  0  0  0  0  0  0  0  0  0  0
   20.8350    9.6000   33.2750 H   0  0  0  0  0  0  0  0  0  0  0  0
   22.1290    7.7680   32.1720 H   0  0  0  0  0  0  0  0  0  0  0  0
  2  7  1  0  0  0  0
  2  1  1  0  0  0  0
  3  2  2  0  0  0  0
  4  5  2  0  0  0  0
  4  3  1  0  0  0  0
  5  6  1  0  0  0  0
  6 27  1  0  0  0  0
  6  7  2  0  0  0  0
  7 28  1  0  0  0  0
  8  5  1  0  0  0  0
  8 10  1  0  0  0  0
  9  8  2  0  0  0  0
 10 15  1  0  0  0  0
 11 30  1  0  0  0  0
 11 12  1  0  0  0  0
 11 10  1  0  0  0  0
 12 13  1  0  0  0  0
 13 16  1  0  0  0  0
 13 14  1  0  0  0  0
 14 34  1  0  0  0  0
 15 35  1  0  0  0  0
 15 36  1  0  0  0  0
 15 14  1  0  0  0  0
 16 24  1  0  0  0  0
 16 17  2  0  0  0  0
 17 18  1  0  0  0  0
 18 19  1  0  0  0  0
 18 22  1  0  0  0  0
 19 20  2  0  0  0  0
 20 21  1  0  0  0  0
 22 21  2  0  0  0  0
 23 38  1  0  0  0  0
 23 19  1  0  0  0  0
 24 23  2  0  0  0  0
 25  3  1  0  0  0  0
 26  4  1  0  0  0  0
 29 11  1  0  0  0  0
 31 12  1  0  0  0  0
 32 12  1  0  0  0  0
 33 14  1  0  0  0  0
 37 22  1  0  0  0  0
 39 24  1  0  0  0  0
M  END
>  <Pose>
1

>  <Score>
-6.73

$$$$
