
 OpenBabel03202209553D

 47 50  0  0  0  0  0  0  0  0999 V2000
   28.6150    5.3200   28.6220 Cl  0  0  0  0  0  0  0  0  0  0  0  0
   27.3120    6.4160   29.0390 C   0  0  0  0  0  0  0  0  0  0  0  0
   27.5100    7.7690   29.2420 C   0  0  0  0  0  0  0  0  0  0  0  0
   26.4740    8.6270   29.5690 C   0  0  0  0  0  0  0  0  0  0  0  0
   25.1820    8.1600   29.7090 C   0  0  0  0  0  0  0  0  0  0  0  0
   24.9720    6.8120   29.5090 C   0  0  0  0  0  0  0  0  0  0  0  0
   26.0140    5.9490   29.1790 C   0  0  0  0  0  0  0  0  0  0  0  0
   24.1300    9.0580   30.0460 N   0  0  0  0  0  0  0  0  0  0  0  0
   23.2240    8.8530   30.9350 N   0  0  0  0  0  0  0  0  0  0  0  0
   22.3460    9.9220   31.0220 C   0  0  0  0  0  0  0  0  0  0  0  0
   22.7610   10.8070   30.1360 N   0  0  0  0  0  0  0  0  0  0  0  0
   23.8700   10.2620   29.5300 C   0  0  0  0  0  0  0  0  0  0  0  0
   24.5130   10.8440   28.6300 O   0  0  0  0  0  0  0  0  0  0  0  0
   22.2830   12.1290   29.8780 C   0  0  0  0  0  0  0  0  0  0  0  0
   22.5760   13.1240   30.9270 C   0  0  0  0  0  0  0  0  0  0  0  0
   23.8030   13.0670   31.3570 O   0  0  0  0  0  0  0  0  0  0  0  0
   21.7860   14.0850   31.5170 N   0  0  0  0  0  0  0  0  0  0  0  0
   20.4240   14.3830   31.1620 C   0  0  0  0  0  0  0  0  0  0  0  0
   19.8150   15.4780   32.0560 C   0  0  0  0  0  0  0  0  0  0  0  0
   20.6940   16.6510   32.0390 N   0  0  0  0  0  0  0  0  0  0  0  0
   22.0880   16.3210   32.2260 C   0  0  0  0  0  0  0  0  0  0  0  0
   22.9710   17.1960   32.0700 O   0  0  0  0  0  0  0  0  0  0  0  0
   22.3480   14.9100   32.6000 C   0  0  0  0  0  0  0  0  0  0  0  0
   21.2550    9.8970   31.9940 C   0  0  0  0  0  0  0  0  0  0  0  0
   20.6050    8.6780   32.2220 C   0  0  0  0  0  0  0  0  0  0  0  0
   19.5320    8.5290   33.0580 C   0  0  0  0  0  0  0  0  0  0  0  0
   19.0180    9.6200   33.7460 C   0  0  0  0  0  0  0  0  0  0  0  0
   19.6430   10.8150   33.5300 C   0  0  0  0  0  0  0  0  0  0  0  0
   20.7390   10.9620   32.6740 C   0  0  0  0  0  0  0  0  0  0  0  0
   28.5200    8.1390   29.1330 H   0  0  0  0  0  0  0  0  0  0  0  0
   26.6270    9.6800   29.7260 H   0  0  0  0  0  0  0  0  0  0  0  0
   23.9670    6.4490   29.6190 H   0  0  0  0  0  0  0  0  0  0  0  0
   25.8430    4.8950   29.0250 H   0  0  0  0  0  0  0  0  0  0  0  0
   21.2540   12.2110   29.6070 H   0  0  0  0  0  0  0  0  0  0  0  0
   22.8520   12.4880   28.9330 H   0  0  0  0  0  0  0  0  0  0  0  0
   19.8360   13.4580   31.4040 H   0  0  0  0  0  0  0  0  0  0  0  0
   20.2860   14.6620   30.1230 H   0  0  0  0  0  0  0  0  0  0  0  0
   19.7410   15.1250   33.0960 H   0  0  0  0  0  0  0  0  0  0  0  0
   18.8030   15.7180   31.6990 H   0  0  0  0  0  0  0  0  0  0  0  0
   20.3600   17.6100   31.9070 H   0  0  0  0  0  0  0  0  0  0  0  0
   23.4440   14.7140   32.6660 H   0  0  0  0  0  0  0  0  0  0  0  0
   21.8240   14.6220   33.5400 H   0  0  0  0  0  0  0  0  0  0  0  0
   21.0050    7.8070   31.6890 H   0  0  0  0  0  0  0  0  0  0  0  0
   19.0470    7.5790   33.2160 H   0  0  0  0  0  0  0  0  0  0  0  0
   18.1750    9.5250   34.4100 H   0  0  0  0  0  0  0  0  0  0  0  0
   19.2610   11.7000   34.0540 H   0  0  0  0  0  0  0  0  0  0  0  0
   21.1330   11.9330   32.5540 H   0  0  0  0  0  0  0  0  0  0  0  0
  1  2  1  0  0  0  0
  2  7  2  0  0  0  0
  2  3  1  0  0  0  0
  3  4  2  0  0  0  0
  4  5  1  0  0  0  0
  4 31  1  0  0  0  0
  5  8  1  0  0  0  0
  6 32  1  0  0  0  0
  6  5  2  0  0  0  0
  7  6  1  0  0  0  0
  8  9  1  0  0  0  0
  9 10  2  0  0  0  0
 10 24  1  0  0  0  0
 11 10  1  0  0  0  0
 12  8  1  0  0  0  0
 12 11  1  0  0  0  0
 13 12  2  0  0  0  0
 14 11  1  0  0  0  0
 14 15  1  0  0  0  0
 15 16  2  0  0  0  0
 15 17  1  0  0  0  0
 17 23  1  0  0  0  0
 18 36  1  0  0  0  0
 18 17  1  0  0  0  0
 18 19  1  0  0  0  0
 19 38  1  0  0  0  0
 20 19  1  0  0  0  0
 20 21  1  0  0  0  0
 21 23  1  0  0  0  0
 22 21  2  0  0  0  0
 23 41  1  0  0  0  0
 23 42  1  0  0  0  0
 24 25  2  0  0  0  0
 24 29  1  0  0  0  0
 25 26  1  0  0  0  0
 26 44  1  0  0  0  0
 26 27  2  0  0  0  0
 27 45  1  0  0  0  0
 28 27  1  0  0  0  0
 28 46  1  0  0  0  0
 29 28  2  0  0  0  0
 30  3  1  0  0  0  0
 33  7  1  0  0  0  0
 34 14  1  0  0  0  0
 35 14  1  0  0  0  0
 37 18  1  0  0  0  0
 39 19  1  0  0  0  0
 40 20  1  0  0  0  0
 43 25  1  0  0  0  0
 47 29  1  0  0  0  0
M  END
>  <Pose>
1

>  <Score>
-7.06

$$$$
