
 OpenBabel03202209553D

 42 45  0  0  0  0  0  0  0  0999 V2000
   17.5750    7.1610   33.4330 Cl  0  0  0  0  0  0  0  0  0  0  0  0
   19.1710    7.7360   32.9330 C   0  0  0  0  0  0  0  0  0  0  0  0
   20.0690    6.8630   32.3550 C   0  0  0  0  0  0  0  0  0  0  0  0
   21.3150    7.2660   31.9520 C   0  0  0  0  0  0  0  0  0  0  0  0
   21.7220    8.5810   32.1140 C   0  0  0  0  0  0  0  0  0  0  0  0
   20.8090    9.4440   32.6960 C   0  0  0  0  0  0  0  0  0  0  0  0
   19.5530    9.0410   33.1030 C   0  0  0  0  0  0  0  0  0  0  0  0
   23.0030    9.0340   31.7100 N   0  0  0  0  0  0  0  0  0  0  0  0
   24.1290    8.3570   31.8170 N   0  0  0  0  0  0  0  0  0  0  0  0
   25.0770    9.1430   31.3230 N   0  0  0  0  0  0  0  0  0  0  0  0
   24.5730   10.3150   30.9000 C   0  0  0  0  0  0  0  0  0  0  0  0
   23.2560   10.2340   31.1510 C   0  0  0  0  0  0  0  0  0  0  0  0
   22.7400   11.4400   30.7150 C   0  0  0  0  0  0  0  0  0  0  0  0
   21.5070   11.7190   30.7960 O   0  0  0  0  0  0  0  0  0  0  0  0
   23.6940   12.2410   30.2130 N   0  0  0  0  0  0  0  0  0  0  0  0
   24.8360   11.5430   30.3280 C   0  0  0  0  0  0  0  0  0  0  0  0
   25.9700   11.9690   29.9580 O   0  0  0  0  0  0  0  0  0  0  0  0
   23.4820   13.5490   29.6850 C   0  0  0  0  0  0  0  0  0  0  0  0
   22.6770   14.4760   30.3150 C   0  0  0  0  0  0  0  0  0  0  0  0
   22.4570   15.7470   29.8240 C   0  0  0  0  0  0  0  0  0  0  0  0
   23.0720   16.1070   28.6440 C   0  0  0  0  0  0  0  0  0  0  0  0
   23.8870   15.2210   27.9700 C   0  0  0  0  0  0  0  0  0  0  0  0
   24.0780   13.9500   28.5050 C   0  0  0  0  0  0  0  0  0  0  0  0
   24.4890   15.6200   26.7840 O   0  0  0  0  0  0  0  0  0  0  0  0
   25.8770   15.5630   26.6000 C   0  0  0  0  0  0  0  0  0  0  0  0
   21.6260   16.6560   30.5060 O   0  0  0  0  0  0  0  0  0  0  0  0
   21.8170   16.8520   31.8880 C   0  0  0  0  0  0  0  0  0  0  0  0
   19.7440    5.8210   32.2280 H   0  0  0  0  0  0  0  0  0  0  0  0
   22.0130    6.5750   31.5000 H   0  0  0  0  0  0  0  0  0  0  0  0
   21.1330   10.4880   32.8250 H   0  0  0  0  0  0  0  0  0  0  0  0
   18.8780    9.7360   33.5460 H   0  0  0  0  0  0  0  0  0  0  0  0
   24.2300    7.3930   32.2160 H   0  0  0  0  0  0  0  0  0  0  0  0
   26.0870    8.8880   31.2670 H   0  0  0  0  0  0  0  0  0  0  0  0
   22.2090   14.1470   31.2480 H   0  0  0  0  0  0  0  0  0  0  0  0
   22.8990   17.1100   28.2530 H   0  0  0  0  0  0  0  0  0  0  0  0
   24.7290   13.2430   27.9670 H   0  0  0  0  0  0  0  0  0  0  0  0
   26.3230   16.3950   27.2010 H   0  0  0  0  0  0  0  0  0  0  0  0
   26.3140   14.5840   26.8540 H   0  0  0  0  0  0  0  0  0  0  0  0
   26.0700   15.7320   25.5010 H   0  0  0  0  0  0  0  0  0  0  0  0
   22.8730   16.9980   32.1610 H   0  0  0  0  0  0  0  0  0  0  0  0
   21.2460   17.7360   32.2270 H   0  0  0  0  0  0  0  0  0  0  0  0
   21.4510   15.9800   32.4860 H   0  0  0  0  0  0  0  0  0  0  0  0
  2  7  1  0  0  0  0
  2  1  1  0  0  0  0
  3  2  2  0  0  0  0
  4  5  2  0  0  0  0
  4  3  1  0  0  0  0
  5  6  1  0  0  0  0
  6 30  1  0  0  0  0
  6  7  2  0  0  0  0
  7 31  1  0  0  0  0
  8  9  1  0  0  0  0
  8  5  1  0  0  0  0
  9 32  1  0  0  0  0
 10  9  1  0  0  0  0
 11 12  2  0  0  0  0
 11 10  1  0  0  0  0
 12  8  1  0  0  0  0
 13 14  2  0  0  0  0
 13 12  1  0  0  0  0
 15 16  1  0  0  0  0
 15 13  1  0  0  0  0
 16 11  1  0  0  0  0
 17 16  2  0  0  0  0
 18 15  1  0  0  0  0
 18 19  1  0  0  0  0
 19 34  1  0  0  0  0
 20 19  2  0  0  0  0
 20 26  1  0  0  0  0
 21 20  1  0  0  0  0
 22 23  1  0  0  0  0
 22 21  2  0  0  0  0
 23 18  2  0  0  0  0
 24 22  1  0  0  0  0
 25 24  1  0  0  0  0
 25 38  1  0  0  0  0
 25 37  1  0  0  0  0
 26 27  1  0  0  0  0
 27 40  1  0  0  0  0
 27 41  1  0  0  0  0
 27 42  1  0  0  0  0
 28  3  1  0  0  0  0
 29  4  1  0  0  0  0
 33 10  1  0  0  0  0
 35 21  1  0  0  0  0
 36 23  1  0  0  0  0
 39 25  1  0  0  0  0
M  END
>  <Pose>
1

>  <Score>
-7.06

$$$$
