
 OpenBabel03202209553D

 43 46  0  0  1  0  0  0  0  0999 V2000
   24.8270    5.0530   30.1420 Cl  0  0  0  0  0  0  0  0  0  0  0  0
   23.3370    5.6420   30.8820 C   0  0  0  0  0  0  0  0  0  0  0  0
   23.1840    7.0210   31.0510 C   0  0  0  0  0  0  0  0  0  0  0  0
   22.0410    7.5510   31.6150 C   0  0  2  0  0  0  0  0  0  0  0  0
   21.0670    6.6510   32.0000 C   0  0  0  0  0  0  0  0  0  0  0  0
   21.1750    5.3080   31.8550 C   0  0  0  0  0  0  0  0  0  0  0  0
   22.3410    4.7790   31.2800 C   0  0  0  0  0  0  0  0  0  0  0  0
   19.8420    7.2390   32.6010 C   0  0  0  0  0  0  0  0  0  0  0  0
   18.7610    6.6870   33.0610 N   0  0  0  0  0  0  0  0  0  0  0  0
   17.8440    7.6920   33.5470 C   0  0  0  0  0  0  0  0  0  0  0  0
   18.5020    9.0300   33.3180 C   0  0  0  0  0  0  0  0  0  0  0  0
   19.7710    8.6360   32.7290 N   0  0  0  0  0  0  0  0  0  0  0  0
   20.8250    9.4990   32.3050 C   0  0  0  0  0  0  0  0  0  0  0  0
   20.9540   10.8420   32.3280 N   0  0  0  0  0  0  0  0  0  0  0  0
   22.1310   11.1740   31.8030 N   0  0  0  0  0  0  0  0  0  0  0  0
   22.7040   10.0220   31.4650 C   0  0  0  0  0  0  0  0  0  0  0  0
   23.8410    9.9090   30.9270 O   0  0  0  0  0  0  0  0  0  0  0  0
   21.9130    8.9550   31.7670 N   0  0  0  0  0  0  0  0  0  0  0  0
   22.6570   12.5310   31.6280 C   0  0  0  0  0  0  0  0  0  0  0  0
   21.7380   13.1110   30.5080 C   0  0  0  0  0  0  0  0  0  0  0  0
   21.5870   12.2030   29.6170 O   0  0  0  0  0  0  0  0  0  0  0  0
   21.2640   14.3610   30.5880 N   0  0  0  0  0  0  0  0  0  0  0  0
   20.7770   15.6470   30.6700 C   0  0  0  0  0  0  0  0  0  0  0  0
   21.8880   16.6850   30.8690 C   0  0  0  0  0  0  0  0  0  0  0  0
   21.9760   17.5400   29.7970 O   0  0  0  0  0  0  0  0  0  0  0  0
   22.7460   17.1030   28.7570 C   0  0  0  0  0  0  0  0  0  0  0  0
   23.9960    7.6440   30.7200 H   0  0  0  0  0  0  0  0  0  0  0  0
   20.4060    4.6360   32.1750 H   0  0  0  0  0  0  0  0  0  0  0  0
   22.4700    3.7210   31.1420 H   0  0  0  0  0  0  0  0  0  0  0  0
   17.6690    7.5010   34.6290 H   0  0  0  0  0  0  0  0  0  0  0  0
   16.8760    7.6490   32.9840 H   0  0  0  0  0  0  0  0  0  0  0  0
   18.6850    9.5660   34.2540 H   0  0  0  0  0  0  0  0  0  0  0  0
   17.8880    9.6480   32.6120 H   0  0  0  0  0  0  0  0  0  0  0  0
   22.5280   13.1280   32.5110 H   0  0  0  0  0  0  0  0  0  0  0  0
   23.6670   12.4600   31.2540 H   0  0  0  0  0  0  0  0  0  0  0  0
   20.7550   14.2510   29.3340 H   0  0  0  0  0  0  0  0  0  0  0  0
   20.0870   15.9660   29.8600 H   0  0  0  0  0  0  0  0  0  0  0  0
   20.1020   15.7810   31.6040 H   0  0  0  0  0  0  0  0  0  0  0  0
   21.8090   17.2150   31.8320 H   0  0  0  0  0  0  0  0  0  0  0  0
   22.8280   16.0800   30.8950 H   0  0  0  0  0  0  0  0  0  0  0  0
   22.3100   16.1620   28.2970 H   0  0  0  0  0  0  0  0  0  0  0  0
   23.7470   16.7350   29.1060 H   0  0  0  0  0  0  0  0  0  0  0  0
   22.8510   17.8620   27.9650 H   0  0  0  0  0  0  0  0  0  0  0  0
  1  2  1  0  0  0  0
  2  3  2  0  0  0  0
  2  7  1  0  0  0  0
  4  3  1  6  0  0  0
  4 18  1  0  0  0  0
  4  5  1  0  0  0  0
  5  8  2  0  0  0  0
  6  5  1  0  0  0  0
  6 28  1  0  0  0  0
  7  6  2  0  0  0  0
  8 12  1  0  0  0  0
  8  9  1  0  0  0  0
  9 10  1  0  0  0  0
 10 30  1  0  0  0  0
 11 10  1  0  0  0  0
 11 32  1  0  0  0  0
 12 11  1  0  0  0  0
 13 14  2  0  0  0  0
 13 12  1  0  0  0  0
 15 14  1  0  0  0  0
 16 18  1  0  0  0  0
 16 15  1  0  0  0  0
 17 16  2  0  0  0  0
 18 13  1  0  0  0  0
 19 15  1  0  0  0  0
 19 34  1  0  0  0  0
 20 22  1  0  0  0  0
 20 19  1  0  0  0  0
 21 20  2  0  0  0  0
 22 23  1  0  0  0  0
 23 24  1  0  0  0  0
 23 38  1  0  0  0  0
 24 40  1  0  0  0  0
 24 39  1  0  0  0  0
 25 24  1  0  0  0  0
 26 42  1  0  0  0  0
 26 25  1  0  0  0  0
 27  3  1  0  0  0  0
 29  7  1  0  0  0  0
 31 10  1  0  0  0  0
 33 11  1  0  0  0  0
 35 19  1  0  0  0  0
 36 22  1  0  0  0  0
 37 23  1  0  0  0  0
 41 26  1  0  0  0  0
 43 26  1  0  0  0  0
M  END
>  <Pose>
1

>  <Score>
-7.75

$$$$
