
 OpenBabel03162216063D

 38 42  0  0  1  0  0  0  0  0999 V2000
   21.4160    5.3550   31.3480 B   0  0  0  0  0  0  0  0  0  0  0  0
   22.1350    7.0970   31.1360 C   0  0  0  0  0  0  0  0  0  0  0  0
   23.2800    7.2720   30.3960 C   0  0  0  0  0  0  0  0  0  0  0  0
   23.7800    8.5480   30.2580 C   0  0  0  0  0  0  0  0  0  0  0  0
   23.1720    9.6410   30.8350 C   0  0  0  0  0  0  0  0  0  0  0  0
   22.0150    9.4660   31.5820 C   0  0  0  0  0  0  0  0  0  0  0  0
   21.5110    8.1710   31.7190 C   0  0  0  0  0  0  0  0  0  0  0  0
   23.7010   10.9640   30.6810 N   0  0  0  0  0  0  0  0  0  0  0  0
   23.8120   11.8780   31.7610 C   0  0  0  0  0  0  0  0  0  0  0  0
   23.7980   11.5450   32.9700 O   0  0  0  0  0  0  0  0  0  0  0  0
   23.9440   13.2570   31.2180 C   0  0  2  0  0  0  0  0  0  0  0  0
   22.6260   13.9620   31.1350 C   0  0  1  0  0  0  0  0  0  0  0  0
   22.8470   14.7860   30.0090 O   0  0  0  0  0  0  0  0  0  0  0  0
   23.1040   13.7430   29.0840 C   0  0  1  0  0  0  0  0  0  0  0  0
   24.2570   13.0600   29.7340 C   0  0  2  0  0  0  0  0  0  0  0  0
   24.1900   11.5930   29.4970 C   0  0  0  0  0  0  0  0  0  0  0  0
   24.5090   11.0350   28.4440 O   0  0  0  0  0  0  0  0  0  0  0  0
   21.8850   12.9210   29.3020 C   0  0  0  0  0  0  0  0  0  0  0  0
   21.6330   13.0150   30.6040 C   0  0  0  0  0  0  0  0  0  0  0  0
   22.2340   14.7190   32.3310 C   0  0  0  0  0  0  0  0  0  0  0  0
   20.9070   15.0490   32.3710 O   0  0  0  0  0  0  0  0  0  0  0  0
   20.7840   16.4060   32.2040 C   0  0  0  0  0  0  0  0  0  0  0  0
   22.1710   16.9410   32.0580 C   0  0  0  0  0  0  0  0  0  0  0  0
   22.9710   15.8810   32.4690 O   0  0  0  0  0  0  0  0  0  0  0  0
   23.8020    6.4380   29.9180 H   0  0  0  0  0  0  0  0  0  0  0  0
   24.6950    8.7220   29.6720 H   0  0  0  0  0  0  0  0  0  0  0  0
   21.5500   10.3290   32.0270 H   0  0  0  0  0  0  0  0  0  0  0  0
   20.6110    8.0360   32.3010 H   0  0  0  0  0  0  0  0  0  0  0  0
   24.7170   13.8090   31.7510 H   0  0  0  0  0  0  0  0  0  0  0  0
   23.2510   14.0910   28.0760 H   0  0  0  0  0  0  0  0  0  0  0  0
   25.2370   13.4650   29.4790 H   0  0  0  0  0  0  0  0  0  0  0  0
   21.3720   12.3890   28.5120 H   0  0  0  0  0  0  0  0  0  0  0  0
   20.8300   12.4560   31.0730 H   0  0  0  0  0  0  0  0  0  0  0  0
   22.4670   14.0850   33.2280 H   0  0  0  0  0  0  0  0  0  0  0  0
   20.2710   16.9100   33.0460 H   0  0  0  0  0  0  0  0  0  0  0  0
   20.2390   16.5820   31.2410 H   0  0  0  0  0  0  0  0  0  0  0  0
   22.3240   17.8400   32.7250 H   0  0  0  0  0  0  0  0  0  0  0  0
   22.4340   17.2060   31.0030 H   0  0  0  0  0  0  0  0  0  0  0  0
  2  1  1  0  0  0  0
  2  7  1  0  0  0  0
  3  2  2  0  0  0  0
  4  3  1  0  0  0  0
  4  5  2  0  0  0  0
  5  6  1  0  0  0  0
  6  7  2  0  0  0  0
  6 27  1  0  0  0  0
  7 28  1  0  0  0  0
  8  5  1  0  0  0  0
  8  9  1  0  0  0  0
  9 10  2  0  0  0  0
 11 29  1  1  0  0  0
 11  9  1  0  0  0  0
 12 11  1  0  0  0  0
 12 20  1  1  0  0  0
 13 12  1  0  0  0  0
 14 30  1  6  0  0  0
 14 18  1  0  0  0  0
 14 15  1  0  0  0  0
 14 13  1  0  0  0  0
 15 31  1  6  0  0  0
 15 11  1  0  0  0  0
 16 15  1  0  0  0  0
 16  8  1  0  0  0  0
 17 16  2  0  0  0  0
 18 19  2  0  0  0  0
 19 33  1  0  0  0  0
 19 12  1  0  0  0  0
 20 21  1  0  0  0  0
 20 24  1  0  0  0  0
 20 34  1  0  0  0  0
 22 21  1  0  0  0  0
 22 35  1  0  0  0  0
 23 22  1  0  0  0  0
 23 24  1  0  0  0  0
 23 37  1  0  0  0  0
 25  3  1  0  0  0  0
 26  4  1  0  0  0  0
 32 18  1  0  0  0  0
 36 22  1  0  0  0  0
 38 23  1  0  0  0  0
M  END
>  <Pose>
1

>  <Score>
-4.91

$$$$
