
 OpenBabel03202209553D

 57 60  0  0  1  0  0  0  0  0999 V2000
   22.0250   13.7980   31.3140 S   0  0  0  0  0  0  0  0  0  0  0  0
   21.8210   14.6320   30.0810 O   0  0  0  0  0  0  0  0  0  0  0  0
   22.8640   14.6440   32.2490 O   0  0  0  0  0  0  0  0  0  0  0  0
   22.9370   12.3810   30.9780 N   0  0  0  0  0  0  0  0  0  0  0  0
   24.0900   12.2820   31.8370 C   0  0  0  0  0  0  0  0  0  0  0  0
   24.6250   10.8730   31.7310 C   0  0  0  0  0  0  0  0  0  0  0  0
   23.9950   10.2050   30.6210 N   0  0  0  0  0  0  0  0  0  0  0  0
   23.7690   10.8810   29.3490 C   0  0  0  0  0  0  0  0  0  0  0  0
   23.4050   12.3450   29.6070 C   0  0  0  0  0  0  0  0  0  0  0  0
   23.5740    8.8700   30.7570 C   0  0  0  0  0  0  0  0  0  0  0  0
   22.9390    8.5250   31.8140 O   0  0  0  0  0  0  0  0  0  0  0  0
   23.8630    7.8730   29.6910 C   0  0  1  0  0  0  0  0  0  0  0  0
   25.3000    7.4380   29.6770 C   0  0  0  0  0  0  0  0  0  0  0  0
   25.3130    6.1110   30.2850 N   0  0  0  0  0  0  0  0  0  0  0  0
   24.0080    5.7710   30.7170 C   0  0  0  0  0  0  0  0  0  0  0  0
   23.7510    4.9270   31.6080 O   0  0  0  0  0  0  0  0  0  0  0  0
   23.0900    6.6010   29.9080 C   0  0  0  0  0  0  0  0  0  0  0  0
   26.4890    5.2830   30.4230 C   0  0  0  0  0  0  0  0  0  0  0  0
   26.4210    4.0800   29.5580 C   0  0  0  0  0  0  0  0  0  0  0  0
   26.5070    4.2310   28.1820 C   0  0  0  0  0  0  0  0  0  0  0  0
   26.4510    3.1550   27.3120 C   0  0  0  0  0  0  0  0  0  0  0  0
   26.3020    1.9010   27.8680 C   0  0  0  0  0  0  0  0  0  0  0  0
   26.2130    1.7150   29.2370 C   0  0  0  0  0  0  0  0  0  0  0  0
   26.2730    2.8170   30.0890 C   0  0  0  0  0  0  0  0  0  0  0  0
   26.6940    5.8410   27.5410 Cl  0  0  0  0  0  0  0  0  0  0  0  0
   20.5200   13.4230   32.0970 C   0  0  0  0  0  0  0  0  0  0  0  0
   20.1650   12.3670   32.9060 C   0  0  0  0  0  0  0  0  0  0  0  0
   18.8530   12.5380   33.2550 N   0  0  0  0  0  0  0  0  0  0  0  0
   18.4410   13.6160   32.7020 O   0  0  0  0  0  0  0  0  0  0  0  0
   19.3810   14.1970   31.9950 C   0  0  0  0  0  0  0  0  0  0  0  0
   19.1800   15.4590   31.2500 C   0  0  0  0  0  0  0  0  0  0  0  0
   21.0600   11.2670   33.3140 C   0  0  0  0  0  0  0  0  0  0  0  0
   24.9160   12.9680   31.5000 H   0  0  0  0  0  0  0  0  0  0  0  0
   23.8630   12.5600   32.8870 H   0  0  0  0  0  0  0  0  0  0  0  0
   25.7410   10.8730   31.6230 H   0  0  0  0  0  0  0  0  0  0  0  0
   24.3530   10.3420   32.6590 H   0  0  0  0  0  0  0  0  0  0  0  0
   24.6510   10.7750   28.6910 H   0  0  0  0  0  0  0  0  0  0  0  0
   22.9240   10.3680   28.8550 H   0  0  0  0  0  0  0  0  0  0  0  0
   22.6630   12.6490   28.8720 H   0  0  0  0  0  0  0  0  0  0  0  0
   24.3360   12.9260   29.4470 H   0  0  0  0  0  0  0  0  0  0  0  0
   23.5720    8.3320   28.6980 H   0  0  0  0  0  0  0  0  0  0  0  0
   25.6630    7.3980   28.6190 H   0  0  0  0  0  0  0  0  0  0  0  0
   25.9750    8.1200   30.2770 H   0  0  0  0  0  0  0  0  0  0  0  0
   22.1270    6.7840   30.4320 H   0  0  0  0  0  0  0  0  0  0  0  0
   22.9350    6.1120   28.9210 H   0  0  0  0  0  0  0  0  0  0  0  0
   26.6720    4.9630   31.4690 H   0  0  0  0  0  0  0  0  0  0  0  0
   27.3750    5.8730   30.0700 H   0  0  0  0  0  0  0  0  0  0  0  0
   26.5230    3.3390   26.2510 H   0  0  0  0  0  0  0  0  0  0  0  0
   26.2540    1.0330   27.2030 H   0  0  0  0  0  0  0  0  0  0  0  0
   26.0970    0.7180   29.6260 H   0  0  0  0  0  0  0  0  0  0  0  0
   26.2020    2.6720   31.1570 H   0  0  0  0  0  0  0  0  0  0  0  0
   20.0900   15.6550   30.6450 H   0  0  0  0  0  0  0  0  0  0  0  0
   18.3290   15.2640   30.5330 H   0  0  0  0  0  0  0  0  0  0  0  0
   18.9090   16.2690   31.9290 H   0  0  0  0  0  0  0  0  0  0  0  0
   20.6230   10.8610   34.2750 H   0  0  0  0  0  0  0  0  0  0  0  0
   21.0780   10.4190   32.6240 H   0  0  0  0  0  0  0  0  0  0  0  0
   22.1050   11.6340   33.5180 H   0  0  0  0  0  0  0  0  0  0  0  0
  1 26  1  0  0  0  0
  1  3  2  0  0  0  0
  2  1  2  0  0  0  0
  4  1  1  0  0  0  0
  4  5  1  0  0  0  0
  5 34  1  0  0  0  0
  6  5  1  0  0  0  0
  6 36  1  0  0  0  0
  7 10  1  0  0  0  0
  7  6  1  0  0  0  0
  8  9  1  0  0  0  0
  8  7  1  0  0  0  0
  9  4  1  0  0  0  0
 10 11  2  0  0  0  0
 12 41  1  6  0  0  0
 12 17  1  0  0  0  0
 12 10  1  0  0  0  0
 13 12  1  0  0  0  0
 13 43  1  0  0  0  0
 13 14  1  0  0  0  0
 14 18  1  0  0  0  0
 14 15  1  0  0  0  0
 15 16  2  0  0  0  0
 17 44  1  0  0  0  0
 17 15  1  0  0  0  0
 18 46  1  0  0  0  0
 19 24  1  0  0  0  0
 19 18  1  0  0  0  0
 20 19  2  0  0  0  0
 21 22  2  0  0  0  0
 21 20  1  0  0  0  0
 22 23  1  0  0  0  0
 23 50  1  0  0  0  0
 23 24  2  0  0  0  0
 24 51  1  0  0  0  0
 25 20  1  0  0  0  0
 26 27  1  0  0  0  0
 27 28  2  0  0  0  0
 27 32  1  0  0  0  0
 29 28  1  0  0  0  0
 30 26  2  0  0  0  0
 30 29  1  0  0  0  0
 31 54  1  0  0  0  0
 31 30  1  0  0  0  0
 32 57  1  0  0  0  0
 32 55  1  0  0  0  0
 33  5  1  0  0  0  0
 35  6  1  0  0  0  0
 37  8  1  0  0  0  0
 38  8  1  0  0  0  0
 39  9  1  0  0  0  0
 40  9  1  0  0  0  0
 42 13  1  0  0  0  0
 45 17  1  0  0  0  0
 47 18  1  0  0  0  0
 48 21  1  0  0  0  0
 49 22  1  0  0  0  0
 52 31  1  0  0  0  0
 53 31  1  0  0  0  0
 56 32  1  0  0  0  0
M  END
>  <Pose>
1

>  <Score>
-5.82

$$$$
