
 OpenBabel03202209553D

 47 50  0  0  1  0  0  0  0  0999 V2000
   26.6520   10.7850   29.1070 Cl  0  0  0  0  0  0  0  0  0  0  0  0
   27.2070   12.2650   28.3620 C   0  0  0  0  0  0  0  0  0  0  0  0
   26.2670   13.2170   28.0290 C   0  0  0  0  0  0  0  0  0  0  0  0
   26.7100   14.3830   27.4420 C   0  0  0  0  0  0  0  0  0  0  0  0
   28.0560   14.6040   27.1870 C   0  0  0  0  0  0  0  0  0  0  0  0
   29.0030   13.6570   27.5170 C   0  0  0  0  0  0  0  0  0  0  0  0
   28.5610   12.4910   28.1040 C   0  0  0  0  0  0  0  0  0  0  0  0
   25.5140   15.6020   27.0150 Cl  0  0  0  0  0  0  0  0  0  0  0  0
   24.8410   13.0040   28.2890 C   0  0  0  0  0  0  0  0  0  0  0  0
   24.1260   13.8580   28.9230 N   0  0  0  0  0  0  0  0  0  0  0  0
   22.7730   13.5770   29.1290 N   0  0  0  0  0  0  0  0  0  0  0  0
   22.3380   12.5020   29.9490 C   0  0  0  0  0  0  0  0  0  0  0  0
   21.6150   12.6210   31.0730 N   0  0  0  0  0  0  0  0  0  0  0  0
   21.4270   11.3700   31.5270 C   0  0  0  0  0  0  0  0  0  0  0  0
   20.7810   10.8680   32.6080 N   0  0  0  0  0  0  0  0  0  0  0  0
   20.7300    9.5450   32.8540 C   0  0  0  0  0  0  0  0  0  0  0  0
   21.3330    8.6760   32.0140 N   0  0  0  0  0  0  0  0  0  0  0  0
   21.9940    9.0970   30.9190 C   0  0  0  0  0  0  0  0  0  0  0  0
   22.0320   10.4580   30.6890 C   0  0  0  0  0  0  0  0  0  0  0  0
   22.5970   11.1950   29.7040 N   0  0  0  0  0  0  0  0  0  0  0  0
   22.6140    8.1630   30.0580 N   0  0  0  0  0  0  0  0  0  0  0  0
   21.1070   13.7910   31.7280 C   0  0  1  0  0  0  0  0  0  0  0  0
   21.9210   14.9060   31.5430 O   0  0  0  0  0  0  0  0  0  0  0  0
   21.0760   15.9340   31.9600 C   0  0  2  0  0  0  0  0  0  0  0  0
   19.8610   15.6840   31.0800 C   0  0  1  0  0  0  0  0  0  0  0  0
   19.7440   14.1770   31.1820 C   0  0  2  0  0  0  0  0  0  0  0  0
   18.7310   13.9080   32.1050 O   0  0  0  0  0  0  0  0  0  0  0  0
   18.7310   16.3270   31.5650 O   0  0  0  0  0  0  0  0  0  0  0  0
   21.6650   17.2990   31.7280 C   0  0  0  0  0  0  0  0  0  0  0  0
   21.9790   17.5350   30.4120 O   0  0  0  0  0  0  0  0  0  0  0  0
   28.4100   15.5160   26.7260 H   0  0  0  0  0  0  0  0  0  0  0  0
   30.0620   13.7840   27.3380 H   0  0  0  0  0  0  0  0  0  0  0  0
   29.2930   11.7240   28.3740 H   0  0  0  0  0  0  0  0  0  0  0  0
   24.3660   12.1010   27.9390 H   0  0  0  0  0  0  0  0  0  0  0  0
   22.0860   14.2020   28.6430 H   0  0  0  0  0  0  0  0  0  0  0  0
   20.2170    9.1370   33.7140 H   0  0  0  0  0  0  0  0  0  0  0  0
   23.5820    7.8330   30.2160 H   0  0  0  0  0  0  0  0  0  0  0  0
   22.0860    7.8000   29.2450 H   0  0  0  0  0  0  0  0  0  0  0  0
   20.9970   13.6600   32.8270 H   0  0  0  0  0  0  0  0  0  0  0  0
   20.7910   15.7460   32.9930 H   0  0  0  0  0  0  0  0  0  0  0  0
   20.0960   15.9860   30.0230 H   0  0  0  0  0  0  0  0  0  0  0  0
   19.5440   13.7010   30.2020 H   0  0  0  0  0  0  0  0  0  0  0  0
   18.3060   13.0420   31.9440 H   0  0  0  0  0  0  0  0  0  0  0  0
   19.0380   17.1280   32.0690 H   0  0  0  0  0  0  0  0  0  0  0  0
   22.5860   17.3630   32.3470 H   0  0  0  0  0  0  0  0  0  0  0  0
   20.9570   18.0350   32.1630 H   0  0  0  0  0  0  0  0  0  0  0  0
   22.4790   18.3720   30.2960 H   0  0  0  0  0  0  0  0  0  0  0  0
  2  1  1  0  0  0  0
  3  9  1  0  0  0  0
  3  2  2  0  0  0  0
  4  3  1  0  0  0  0
  5  4  2  0  0  0  0
  5  6  1  0  0  0  0
  6  7  2  0  0  0  0
  7  2  1  0  0  0  0
  7 33  1  0  0  0  0
  8  4  1  0  0  0  0
  9 10  2  0  0  0  0
 10 11  1  0  0  0  0
 11 12  1  0  0  0  0
 12 13  1  0  0  0  0
 13 14  1  0  0  0  0
 13 22  1  0  0  0  0
 14 15  1  0  0  0  0
 15 16  2  0  0  0  0
 16 36  1  0  0  0  0
 17 16  1  0  0  0  0
 18 17  2  0  0  0  0
 19 18  1  0  0  0  0
 19 14  2  0  0  0  0
 20 12  2  0  0  0  0
 20 19  1  0  0  0  0
 21 37  1  0  0  0  0
 21 18  1  0  0  0  0
 22 39  1  1  0  0  0
 23 22  1  0  0  0  0
 23 24  1  0  0  0  0
 24 40  1  1  0  0  0
 25 41  1  6  0  0  0
 25 26  1  0  0  0  0
 25 28  1  0  0  0  0
 25 24  1  0  0  0  0
 26 42  1  6  0  0  0
 26 22  1  0  0  0  0
 26 27  1  0  0  0  0
 28 44  1  0  0  0  0
 29 24  1  0  0  0  0
 29 46  1  0  0  0  0
 29 45  1  0  0  0  0
 30 29  1  0  0  0  0
 31  5  1  0  0  0  0
 32  6  1  0  0  0  0
 34  9  1  0  0  0  0
 35 11  1  0  0  0  0
 38 21  1  0  0  0  0
 43 27  1  0  0  0  0
 47 30  1  0  0  0  0
M  END
>  <Pose>
1

>  <Score>
-7.98

$$$$
