
 OpenBabel03202209553D

 49 52  0  0  1  0  0  0  0  0999 V2000
   25.3300   17.8250   24.3200 Cl  0  0  0  0  0  0  0  0  0  0  0  0
   26.3690   16.7590   25.2420 C   0  0  0  0  0  0  0  0  0  0  0  0
   27.6860   16.5940   24.8850 C   0  0  0  0  0  0  0  0  0  0  0  0
   28.4310   15.7390   25.6590 C   0  0  0  0  0  0  0  0  0  0  0  0
   27.9140   15.0540   26.7610 C   0  0  0  0  0  0  0  0  0  0  0  0
   26.6010   15.2120   27.1250 C   0  0  0  0  0  0  0  0  0  0  0  0
   25.8500   16.0900   26.3220 C   0  0  0  0  0  0  0  0  0  0  0  0
   25.9700   14.5870   28.2220 N   0  0  0  0  0  0  0  0  0  0  0  0
   24.9900   13.5910   28.0900 C   0  0  0  0  0  0  0  0  0  0  0  0
   23.7840   13.8490   27.9530 O   0  0  0  0  0  0  0  0  0  0  0  0
   25.3550   12.1330   28.1070 C   0  0  0  0  0  0  0  0  0  0  0  0
   24.3560   11.3260   28.7340 N   0  0  0  0  0  0  0  0  0  0  0  0
   23.4030   10.6460   28.0590 C   0  0  0  0  0  0  0  0  0  0  0  0
   22.4920    9.9040   28.7240 N   0  0  0  0  0  0  0  0  0  0  0  0
   22.4750    9.7980   30.0580 C   0  0  0  0  0  0  0  0  0  0  0  0
   21.5730    9.0630   30.7280 N   0  0  0  0  0  0  0  0  0  0  0  0
   21.5340    8.9400   32.0660 C   0  0  0  0  0  0  0  0  0  0  0  0
   22.4850    9.6180   32.7640 N   0  0  0  0  0  0  0  0  0  0  0  0
   23.4050   10.3650   32.1340 C   0  0  0  0  0  0  0  0  0  0  0  0
   23.4360   10.4840   30.7600 C   0  0  1  0  0  0  0  0  0  0  0  0
   24.3740   11.2460   30.0930 C   0  0  0  0  0  0  0  0  0  0  0  0
   25.2270   11.8490   30.7910 O   0  0  0  0  0  0  0  0  0  0  0  0
   20.5660    8.1540   32.7350 N   0  0  0  0  0  0  0  0  0  0  0  0
   19.7670    8.7740   33.7650 C   0  0  0  0  0  0  0  0  0  0  0  0
   18.3330    8.2580   33.6540 C   0  0  0  0  0  0  0  0  0  0  0  0
   18.2910    6.8680   33.5620 O   0  0  0  0  0  0  0  0  0  0  0  0
   18.8310    6.5350   32.3190 C   0  0  0  0  0  0  0  0  0  0  0  0
   20.3390    6.7580   32.4380 C   0  0  0  0  0  0  0  0  0  0  0  0
   28.2400   17.2650   23.7860 O   0  0  0  0  0  0  0  0  0  0  0  0
   29.3910   18.0600   23.9560 C   0  0  0  0  0  0  0  0  0  0  0  0
   29.4860   15.5930   25.3910 H   0  0  0  0  0  0  0  0  0  0  0  0
   28.5640   14.4090   27.2920 H   0  0  0  0  0  0  0  0  0  0  0  0
   24.8030   16.2100   26.6210 H   0  0  0  0  0  0  0  0  0  0  0  0
   26.2520   14.8930   29.2140 H   0  0  0  0  0  0  0  0  0  0  0  0
   25.5370   11.7440   27.0990 H   0  0  0  0  0  0  0  0  0  0  0  0
   26.2950   12.0310   28.6850 H   0  0  0  0  0  0  0  0  0  0  0  0
   23.4190   10.7320   26.9820 H   0  0  0  0  0  0  0  0  0  0  0  0
   24.1780   10.9170   32.6810 H   0  0  0  0  0  0  0  0  0  0  0  0
   20.1420    8.5340   34.7840 H   0  0  0  0  0  0  0  0  0  0  0  0
   19.7300    9.8600   33.5640 H   0  0  0  0  0  0  0  0  0  0  0  0
   17.7950    8.5370   34.5800 H   0  0  0  0  0  0  0  0  0  0  0  0
   17.8580    8.6640   32.7370 H   0  0  0  0  0  0  0  0  0  0  0  0
   18.4250    7.2230   31.5650 H   0  0  0  0  0  0  0  0  0  0  0  0
   18.6280    5.5050   32.0160 H   0  0  0  0  0  0  0  0  0  0  0  0
   20.7580    6.0840   33.2140 H   0  0  0  0  0  0  0  0  0  0  0  0
   20.7630    6.5620   31.4300 H   0  0  0  0  0  0  0  0  0  0  0  0
   30.1460   17.4450   24.4960 H   0  0  0  0  0  0  0  0  0  0  0  0
   29.2090   18.9570   24.5610 H   0  0  0  0  0  0  0  0  0  0  0  0
   29.8400   18.2830   22.9670 H   0  0  0  0  0  0  0  0  0  0  0  0
  1  2  1  0  0  0  0
  2  7  1  0  0  0  0
  3  2  2  0  0  0  0
  3  4  1  0  0  0  0
  4  5  2  0  0  0  0
  5  6  1  0  0  0  0
  5 32  1  0  0  0  0
  6  8  1  0  0  0  0
  7 33  1  0  0  0  0
  7  6  2  0  0  0  0
  8 34  1  0  0  0  0
  9 11  1  0  0  0  0
  9  8  1  0  0  0  0
 10  9  2  0  0  0  0
 11 36  1  0  0  0  0
 11 12  1  0  0  0  0
 12 21  1  0  0  0  0
 13 14  1  0  0  0  0
 13 12  1  0  0  0  0
 14 15  2  0  0  0  0
 15 16  1  0  0  0  0
 16 17  2  0  0  0  0
 17 23  1  0  0  0  0
 17 18  1  0  0  0  0
 19 38  1  0  0  0  0
 19 18  2  0  0  0  0
 20 15  1  6  0  0  0
 20 19  1  0  0  0  0
 21 20  1  0  0  0  0
 21 22  2  0  0  0  0
 23 24  1  0  0  0  0
 24 39  1  0  0  0  0
 25 24  1  0  0  0  0
 25 41  1  0  0  0  0
 26 25  1  0  0  0  0
 27 28  1  0  0  0  0
 27 26  1  0  0  0  0
 28 23  1  0  0  0  0
 28 45  1  0  0  0  0
 29 30  1  0  0  0  0
 29  3  1  0  0  0  0
 30 47  1  0  0  0  0
 30 48  1  0  0  0  0
 31  4  1  0  0  0  0
 35 11  1  0  0  0  0
 37 13  1  0  0  0  0
 40 24  1  0  0  0  0
 42 25  1  0  0  0  0
 43 27  1  0  0  0  0
 44 27  1  0  0  0  0
 46 28  1  0  0  0  0
 49 30  1  0  0  0  0
M  END
>  <Pose>
1

>  <Score>
-6.77

$$$$
