
 OpenBabel03202209553D

 51 54  0  0  0  0  0  0  0  0999 V2000
   26.2290    0.9860   36.6750 B   0  0  0  0  0  0  0  0  0  0  0  0
   26.0300    1.1560   34.7860 C   0  0  0  0  0  0  0  0  0  0  0  0
   24.8880    1.6800   34.2570 C   0  0  0  0  0  0  0  0  0  0  0  0
   24.7460    1.8040   32.8660 C   0  0  0  0  0  0  0  0  0  0  0  0
   25.7720    1.3880   32.0620 C   0  0  0  0  0  0  0  0  0  0  0  0
   26.9450    0.8480   32.6130 C   0  0  0  0  0  0  0  0  0  0  0  0
   27.0620    0.7370   33.9760 C   0  0  0  0  0  0  0  0  0  0  0  0
   25.6870    1.4860   30.6870 O   0  0  0  0  0  0  0  0  0  0  0  0
   23.5200    2.3660   32.3200 C   0  0  0  0  0  0  0  0  0  0  0  0
   23.4200    3.6680   32.1630 N   0  0  0  0  0  0  0  0  0  0  0  0
   22.2280    4.1660   31.6370 N   0  0  0  0  0  0  0  0  0  0  0  0
   21.9610    5.5600   31.6070 C   0  0  0  0  0  0  0  0  0  0  0  0
   22.8100    6.4300   31.0390 N   0  0  0  0  0  4  0  0  0  0  0  0
   22.5990    7.7720   30.9860 C   0  0  0  0  0  0  0  0  0  0  0  0
   21.4410    8.1940   31.5610 N   0  0  0  0  0  0  0  0  0  0  0  0
   20.5540    7.3720   32.1430 C   0  0  0  0  0  0  0  0  0  0  0  0
   20.8330    6.0750   32.1540 N   0  0  0  0  0  0  0  0  0  0  0  0
   19.3690    7.8810   32.7220 N   0  0  0  0  0  0  0  0  0  0  0  0
   18.0580    7.3150   32.4720 C   0  0  0  0  0  0  0  0  0  0  0  0
   17.1730    7.5220   33.6820 C   0  0  0  0  0  0  0  0  0  0  0  0
   17.0510    8.8330   34.0580 O   0  0  0  0  0  0  0  0  0  0  0  0
   18.0060    9.6690   33.4940 C   0  0  0  0  0  0  0  0  0  0  0  0
   19.3870    9.0330   33.6280 C   0  0  0  0  0  0  0  0  0  0  0  0
   23.5110    8.6570   30.3820 N   0  0  0  0  0  0  0  0  0  0  0  0
   23.1170    9.4570   29.2610 C   0  0  0  0  0  0  0  0  0  0  0  0
   23.4440   10.9010   29.6040 C   0  0  0  0  0  0  0  0  0  0  0  0
   24.8230   10.9560   29.8590 O   0  0  0  0  0  0  0  0  0  0  0  0
   25.1200   10.2810   31.0440 C   0  0  0  0  0  0  0  0  0  0  0  0
   24.8510    8.7810   30.8710 C   0  0  0  0  0  0  0  0  0  0  0  0
   24.0590    2.0170   34.8720 H   0  0  0  0  0  0  0  0  0  0  0  0
   27.7370    0.5290   31.9500 H   0  0  0  0  0  0  0  0  0  0  0  0
   27.9630    0.3210   34.4350 H   0  0  0  0  0  0  0  0  0  0  0  0
   24.9160    1.1610   30.1400 H   0  0  0  0  0  0  0  0  0  0  0  0
   22.6880    1.7480   32.0390 H   0  0  0  0  0  0  0  0  0  0  0  0
   21.5420    3.4790   31.2660 H   0  0  0  0  0  0  0  0  0  0  0  0
   18.1480    6.2270   32.2990 H   0  0  0  0  0  0  0  0  0  0  0  0
   17.6060    7.8560   31.6260 H   0  0  0  0  0  0  0  0  0  0  0  0
   17.4760    6.8450   34.5080 H   0  0  0  0  0  0  0  0  0  0  0  0
   16.1470    7.1680   33.3670 H   0  0  0  0  0  0  0  0  0  0  0  0
   17.9630   10.6590   33.9550 H   0  0  0  0  0  0  0  0  0  0  0  0
   17.7840    9.7320   32.4070 H   0  0  0  0  0  0  0  0  0  0  0  0
   20.1910    9.7270   33.4020 H   0  0  0  0  0  0  0  0  0  0  0  0
   19.4300    8.6060   34.6550 H   0  0  0  0  0  0  0  0  0  0  0  0
   23.7400    9.1920   28.3820 H   0  0  0  0  0  0  0  0  0  0  0  0
   22.0330    9.3300   29.0600 H   0  0  0  0  0  0  0  0  0  0  0  0
   22.9090   11.2450   30.5100 H   0  0  0  0  0  0  0  0  0  0  0  0
   23.2180   11.5780   28.7580 H   0  0  0  0  0  0  0  0  0  0  0  0
   24.3960   10.6450   31.8020 H   0  0  0  0  0  0  0  0  0  0  0  0
   26.1640   10.4670   31.3180 H   0  0  0  0  0  0  0  0  0  0  0  0
   25.6090    8.3230   30.2070 H   0  0  0  0  0  0  0  0  0  0  0  0
   24.9220    8.3190   31.8810 H   0  0  0  0  0  0  0  0  0  0  0  0
  2  1  1  0  0  0  0
  3  2  1  0  0  0  0
  3 30  1  0  0  0  0
  4  3  2  0  0  0  0
  5  6  2  0  0  0  0
  5  4  1  0  0  0  0
  6  7  1  0  0  0  0
  7 32  1  0  0  0  0
  7  2  2  0  0  0  0
  8  5  1  0  0  0  0
  9  4  1  0  0  0  0
 10  9  2  0  0  0  0
 11 10  1  0  0  0  0
 12 11  1  0  0  0  0
 12 17  1  0  0  0  0
 13 12  2  0  0  0  0
 14 13  2  0  0  0  0
 14 15  1  0  0  0  0
 15 16  2  0  0  0  0
 16 17  1  0  0  0  0
 16 18  1  0  0  0  0
 18 23  1  0  0  0  0
 19 18  1  0  0  0  0
 19 20  1  0  0  0  0
 20 21  1  0  0  0  0
 20 38  1  0  0  0  0
 22 23  1  0  0  0  0
 22 40  1  0  0  0  0
 22 21  1  0  0  0  0
 23 43  1  0  0  0  0
 24 29  1  0  0  0  0
 24 14  1  0  0  0  0
 25 26  1  0  0  0  0
 25 24  1  0  0  0  0
 26 27  1  0  0  0  0
 26 46  1  0  0  0  0
 27 28  1  0  0  0  0
 28 49  1  0  0  0  0
 28 48  1  0  0  0  0
 29 28  1  0  0  0  0
 29 51  1  0  0  0  0
 31  6  1  0  0  0  0
 33  8  1  0  0  0  0
 34  9  1  0  0  0  0
 35 11  1  0  0  0  0
 36 19  1  0  0  0  0
 37 19  1  0  0  0  0
 39 20  1  0  0  0  0
 41 22  1  0  0  0  0
 42 23  1  0  0  0  0
 44 25  1  0  0  0  0
 45 25  1  0  0  0  0
 47 26  1  0  0  0  0
 50 29  1  0  0  0  0
M  END
>  <Pose>
1

>  <Score>
-7.76

$$$$
