
 OpenBabel03202209553D

 37 40  0  0  0  0  0  0  0  0999 V2000
   23.6720   13.4500   30.5220 Cl  0  0  0  0  0  0  0  0  0  0  0  0
   23.5460   11.7010   30.6910 C   0  0  0  0  0  0  0  0  0  0  0  0
   24.4280   10.9970   31.4840 C   0  0  0  0  0  0  0  0  0  0  0  0
   24.3310    9.6250   31.6180 C   0  0  0  0  0  0  0  0  0  0  0  0
   23.3530    8.8990   30.9700 C   0  0  0  0  0  0  0  0  0  0  0  0
   22.4740    9.6150   30.1780 C   0  0  0  0  0  0  0  0  0  0  0  0
   22.5630   10.9860   30.0380 C   0  0  0  0  0  0  0  0  0  0  0  0
   23.2610    7.4830   31.1140 N   0  0  0  0  0  0  0  0  0  0  0  0
   24.2670    6.5820   31.0540 C   0  0  0  0  0  0  0  0  0  0  0  0
   25.4630    6.8810   30.8560 O   0  0  0  0  0  0  0  0  0  0  0  0
   23.7910    5.2950   31.2400 C   0  0  0  0  0  0  0  0  0  0  0  0
   22.4680    5.4160   31.4180 C   0  0  0  0  0  0  0  0  0  0  0  0
   22.0170    4.1630   31.6000 N   0  0  0  0  0  0  0  0  0  0  0  0
   23.0270    3.3150   31.5350 N   0  0  0  0  0  0  0  0  0  0  0  0
   24.1300    3.9970   31.3130 N   0  0  0  0  0  0  0  0  0  0  0  0
   25.4660    3.4700   31.1650 C   0  0  0  0  0  0  0  0  0  0  0  0
   25.9300    3.4040   29.7630 C   0  0  0  0  0  0  0  0  0  0  0  0
   25.9890    4.5520   29.0120 C   0  0  0  0  0  0  0  0  0  0  0  0
   26.4200    4.4680   27.7080 C   0  0  0  0  0  0  0  0  0  0  0  0
   26.7900    3.2590   27.1460 C   0  0  0  0  0  0  0  0  0  0  0  0
   26.7300    2.1070   27.8970 C   0  0  0  0  0  0  0  0  0  0  0  0
   26.3010    2.2080   29.1920 C   0  0  0  0  0  0  0  0  0  0  0  0
   22.1580    6.7580   31.3390 C   0  0  0  0  0  0  0  0  0  0  0  0
   20.9960    7.2330   31.4610 O   0  0  0  0  0  0  0  0  0  0  0  0
   25.1910   11.5760   31.9880 H   0  0  0  0  0  0  0  0  0  0  0  0
   25.0270    9.0750   32.2430 H   0  0  0  0  0  0  0  0  0  0  0  0
   21.7050    9.0700   29.6640 H   0  0  0  0  0  0  0  0  0  0  0  0
   21.8630   11.5500   29.4090 H   0  0  0  0  0  0  0  0  0  0  0  0
   21.0330    3.8690   31.7690 H   0  0  0  0  0  0  0  0  0  0  0  0
   22.9700    2.2590   31.6410 H   0  0  0  0  0  0  0  0  0  0  0  0
   26.1800    4.1250   31.7380 H   0  0  0  0  0  0  0  0  0  0  0  0
   25.5600    2.4620   31.6550 H   0  0  0  0  0  0  0  0  0  0  0  0
   25.7030    5.5300   29.4270 H   0  0  0  0  0  0  0  0  0  0  0  0
   26.4650    5.3900   27.1150 H   0  0  0  0  0  0  0  0  0  0  0  0
   27.1350    3.1800   26.1080 H   0  0  0  0  0  0  0  0  0  0  0  0
   27.0120    1.1530   27.4870 H   0  0  0  0  0  0  0  0  0  0  0  0
   26.2630    1.2720   29.7630 H   0  0  0  0  0  0  0  0  0  0  0  0
  1  2  1  0  0  0  0
  2  3  1  0  0  0  0
  3  4  2  0  0  0  0
  3 25  1  0  0  0  0
  4 26  1  0  0  0  0
  5  8  1  0  0  0  0
  5  4  1  0  0  0  0
  6  5  2  0  0  0  0
  7  6  1  0  0  0  0
  7  2  2  0  0  0  0
  8 23  1  0  0  0  0
  9  8  1  0  0  0  0
  9 11  1  0  0  0  0
 10  9  2  0  0  0  0
 11 15  1  0  0  0  0
 11 12  2  0  0  0  0
 12 13  1  0  0  0  0
 13 29  1  0  0  0  0
 14 13  1  0  0  0  0
 14 30  1  0  0  0  0
 15 14  1  0  0  0  0
 16 15  1  0  0  0  0
 16 32  1  0  0  0  0
 16 31  1  0  0  0  0
 17 16  1  0  0  0  0
 18 33  1  0  0  0  0
 18 17  2  0  0  0  0
 19 18  1  0  0  0  0
 20 19  2  0  0  0  0
 20 21  1  0  0  0  0
 21 22  2  0  0  0  0
 22 37  1  0  0  0  0
 22 17  1  0  0  0  0
 23 12  1  0  0  0  0
 23 24  2  0  0  0  0
 27  6  1  0  0  0  0
 28  7  1  0  0  0  0
 34 19  1  0  0  0  0
 35 20  1  0  0  0  0
 36 21  1  0  0  0  0
M  END
>  <Pose>
1

>  <Score>
-6.45

$$$$
