
 OpenBabel03202209553D

 56 59  0  0  1  0  0  0  0  0999 V2000
   23.7110   16.8550   27.2440 S   0  0  0  0  0  0  0  0  0  0  0  0
   22.5740   16.8660   26.3000 O   0  0  0  0  0  0  0  0  0  0  0  0
   23.9460   18.2640   27.7340 O   0  0  0  0  0  0  0  0  0  0  0  0
   23.4890   15.8510   28.6070 N   0  0  0  0  0  0  0  0  0  0  0  0
   23.6280   14.4700   28.3550 C   0  0  0  0  0  0  0  0  0  0  0  0
   23.6370   13.7520   29.7210 C   0  0  0  0  0  0  0  0  0  0  0  0
   22.2840   13.9110   30.1880 N   0  0  0  0  0  0  0  0  0  0  0  0
   21.9560   15.3230   30.4830 C   0  0  0  0  0  0  0  0  0  0  0  0
   22.5250   16.2880   29.5270 C   0  0  0  0  0  0  0  0  0  0  0  0
   21.2960   12.9480   30.3860 C   0  0  0  0  0  0  0  0  0  0  0  0
   20.3230   13.3650   31.1740 O   0  0  0  0  0  0  0  0  0  0  0  0
   21.0880   11.5990   29.9260 C   0  0  0  0  0  0  0  0  0  0  0  0
   21.8840   10.5550   30.4940 N   0  0  0  0  0  0  0  0  0  0  0  0
   21.7760   10.0580   31.8290 C   0  0  0  0  0  0  0  0  0  0  0  0
   20.9480   10.5150   32.6880 O   0  0  0  0  0  0  0  0  0  0  0  0
   22.7170    9.0180   31.9900 N   0  0  0  0  0  0  0  0  0  0  0  0
   23.1440    8.5830   30.6690 C   0  0  1  0  0  0  0  0  0  0  0  0
   24.5820    8.2100   30.5830 C   0  0  1  0  0  0  0  0  0  0  0  0
   24.7060    7.0810   29.5540 C   0  0  0  0  0  0  0  0  0  0  0  0
   24.1410    5.8430   30.2230 C   0  0  0  0  0  0  0  0  0  0  0  0
   22.8090    6.1800   30.8460 C   0  0  0  0  0  0  0  0  0  0  0  0
   22.2230    7.4560   30.2600 C   0  0  0  0  0  0  0  0  0  0  0  0
   25.4810    9.3220   30.0950 C   0  0  0  0  0  0  0  0  0  0  0  0
   22.9090    9.8030   29.8400 C   0  0  0  0  0  0  0  0  0  0  0  0
   23.4910   10.1110   28.7820 O   0  0  0  0  0  0  0  0  0  0  0  0
   25.1760   16.3000   26.4160 C   0  0  0  0  0  0  0  0  0  0  0  0
   25.8030   16.7380   24.8940 S   0  0  0  0  0  0  0  0  0  0  0  0
   27.1970   15.7620   24.8800 C   0  0  0  0  0  0  0  0  0  0  0  0
   27.1350   15.1100   26.0840 C   0  0  0  0  0  0  0  0  0  0  0  0
   26.0850   15.3930   26.8750 C   0  0  0  0  0  0  0  0  0  0  0  0
   28.4300   15.6230   23.6170 Cl  0  0  0  0  0  0  0  0  0  0  0  0
   22.8030   14.0630   27.7330 H   0  0  0  0  0  0  0  0  0  0  0  0
   24.5640   14.2780   27.8080 H   0  0  0  0  0  0  0  0  0  0  0  0
   24.0380   12.7620   29.6490 H   0  0  0  0  0  0  0  0  0  0  0  0
   24.3010   14.4370   30.3450 H   0  0  0  0  0  0  0  0  0  0  0  0
   22.3790   15.5040   31.4990 H   0  0  0  0  0  0  0  0  0  0  0  0
   20.8600   15.4440   30.5910 H   0  0  0  0  0  0  0  0  0  0  0  0
   21.6710   16.7500   28.9450 H   0  0  0  0  0  0  0  0  0  0  0  0
   22.9530   17.1720   30.0870 H   0  0  0  0  0  0  0  0  0  0  0  0
   19.9820   11.2960   29.9970 H   0  0  0  0  0  0  0  0  0  0  0  0
   21.2270   11.5300   28.7900 H   0  0  0  0  0  0  0  0  0  0  0  0
   23.0590    8.6190   32.8780 H   0  0  0  0  0  0  0  0  0  0  0  0
   24.9560    7.8310   31.5630 H   0  0  0  0  0  0  0  0  0  0  0  0
   24.0710    7.3500   28.7030 H   0  0  0  0  0  0  0  0  0  0  0  0
   25.7570    6.9280   29.2440 H   0  0  0  0  0  0  0  0  0  0  0  0
   24.8920    5.5400   31.0030 H   0  0  0  0  0  0  0  0  0  0  0  0
   24.0230    5.0010   29.5260 H   0  0  0  0  0  0  0  0  0  0  0  0
   22.9640    6.3270   31.9360 H   0  0  0  0  0  0  0  0  0  0  0  0
   22.1010    5.3220   30.7340 H   0  0  0  0  0  0  0  0  0  0  0  0
   21.2320    7.5880   30.7830 H   0  0  0  0  0  0  0  0  0  0  0  0
   22.0870    7.3670   29.1780 H   0  0  0  0  0  0  0  0  0  0  0  0
   25.1610   10.3240   30.3960 H   0  0  0  0  0  0  0  0  0  0  0  0
   26.5100    9.1450   30.5280 H   0  0  0  0  0  0  0  0  0  0  0  0
   25.6550    9.2630   28.9820 H   0  0  0  0  0  0  0  0  0  0  0  0
   27.9470   14.3880   26.3420 H   0  0  0  0  0  0  0  0  0  0  0  0
   25.9480   14.9160   27.8670 H   0  0  0  0  0  0  0  0  0  0  0  0
  1  3  2  0  0  0  0
  1  4  1  0  0  0  0
  2  1  2  0  0  0  0
  4  9  1  0  0  0  0
  5  4  1  0  0  0  0
  5  6  1  0  0  0  0
  6  7  1  0  0  0  0
  6 35  1  0  0  0  0
  7 10  1  0  0  0  0
  7  8  1  0  0  0  0
  8 37  1  0  0  0  0
  8 36  1  0  0  0  0
  9 39  1  0  0  0  0
  9  8  1  0  0  0  0
 10 11  2  0  0  0  0
 12 40  1  0  0  0  0
 12 10  1  0  0  0  0
 12 13  1  0  0  0  0
 13 14  1  0  0  0  0
 14 16  1  0  0  0  0
 14 15  2  0  0  0  0
 16 42  1  0  0  0  0
 17 24  1  6  0  0  0
 17 16  1  0  0  0  0
 18 17  1  0  0  0  0
 18 43  1  1  0  0  0
 19 20  1  0  0  0  0
 19 18  1  0  0  0  0
 20 21  1  0  0  0  0
 20 46  1  0  0  0  0
 21 48  1  0  0  0  0
 22 17  1  0  0  0  0
 22 50  1  0  0  0  0
 22 21  1  0  0  0  0
 23 52  1  0  0  0  0
 23 53  1  0  0  0  0
 23 18  1  0  0  0  0
 24 13  1  0  0  0  0
 25 24  2  0  0  0  0
 26 30  2  0  0  0  0
 26  1  1  0  0  0  0
 27 26  1  0  0  0  0
 28 27  1  0  0  0  0
 28 29  2  0  0  0  0
 29 55  1  0  0  0  0
 29 30  1  0  0  0  0
 30 56  1  0  0  0  0
 31 28  1  0  0  0  0
 32  5  1  0  0  0  0
 33  5  1  0  0  0  0
 34  6  1  0  0  0  0
 38  9  1  0  0  0  0
 41 12  1  0  0  0  0
 44 19  1  0  0  0  0
 45 19  1  0  0  0  0
 47 20  1  0  0  0  0
 49 21  1  0  0  0  0
 51 22  1  0  0  0  0
 54 23  1  0  0  0  0
M  END
>  <Pose>
1

>  <Score>
-7.25

$$$$
