
 OpenBabel03202209553D

 55 58  0  0  1  0  0  0  0  0999 V2000
   20.2200   17.6510   32.3500 Cl  0  0  0  0  0  0  0  0  0  0  0  0
   20.8440   16.0700   31.8100 C   0  0  0  0  0  0  0  0  0  0  0  0
   20.1550   15.3130   30.8940 C   0  0  0  0  0  0  0  0  0  0  0  0
   20.6490   14.0800   30.4680 C   0  0  0  0  0  0  0  0  0  0  0  0
   21.8590   13.5590   30.9440 C   0  0  0  0  0  0  0  0  0  0  0  0
   22.5200   14.3440   31.8580 C   0  0  0  0  0  0  0  0  0  0  0  0
   22.0420   15.5670   32.2900 C   0  0  0  0  0  0  0  0  0  0  0  0
   22.2980   12.2850   30.4050 C   0  0  2  0  0  0  0  0  0  0  0  0
   22.0610   11.1670   31.4190 C   0  0  0  0  0  0  0  0  0  0  0  0
   22.2650    9.9000   30.6140 C   0  0  0  0  0  0  0  0  0  0  0  0
   23.6290    9.7680   30.2400 N   0  0  0  0  0  0  0  0  0  0  0  0
   24.1970   10.8940   29.4530 C   0  0  0  0  0  0  0  0  0  0  0  0
   23.6710   12.2320   29.8480 C   0  0  0  0  0  0  0  0  0  0  0  0
   24.4680    8.7060   30.5520 C   0  0  0  0  0  0  0  0  0  0  0  0
   25.5690    9.0150   31.1880 O   0  0  0  0  0  0  0  0  0  0  0  0
   24.3500    7.2650   30.2860 C   0  0  0  0  0  0  0  0  0  0  0  0
   24.6960    6.8030   29.0140 N   0  0  0  0  0  0  0  0  0  0  0  0
   25.2360    5.5110   28.7280 C   0  0  0  0  0  0  0  0  0  0  0  0
   25.2660    5.2070   27.5070 O   0  0  0  0  0  0  0  0  0  0  0  0
   25.7050    4.6510   29.7790 C   0  0  0  0  0  0  0  0  0  0  0  0
   25.0690    4.0280   30.7160 C   0  0  0  0  0  0  0  0  0  0  0  0
   23.6520    4.1050   30.8880 N   0  0  0  0  0  0  0  0  0  0  0  0
   22.9800    3.3960   31.9070 N   0  0  0  0  0  0  0  0  0  0  0  0
   23.6880    2.5730   32.8050 C   0  0  0  0  0  0  0  0  0  0  0  0
   23.0460    1.9520   33.7030 O   0  0  0  0  0  0  0  0  0  0  0  0
   25.1270    2.4650   32.6660 C   0  0  0  0  0  0  0  0  0  0  0  0
   25.7890    3.1530   31.6750 C   0  0  0  0  0  0  0  0  0  0  0  0
   27.1400    2.9780   31.5930 C   0  0  0  0  0  0  0  0  0  0  0  0
   27.8530    2.1410   32.4590 C   0  0  0  0  0  0  0  0  0  0  0  0
   27.1490    1.4780   33.4270 C   0  0  0  0  0  0  0  0  0  0  0  0
   25.7700    1.6250   33.5520 C   0  0  0  0  0  0  0  0  0  0  0  0
   21.4080   11.9470   29.3360 O   0  0  0  0  0  0  0  0  0  0  0  0
   19.2120   15.7070   30.5130 H   0  0  0  0  0  0  0  0  0  0  0  0
   20.0600   13.5390   29.7530 H   0  0  0  0  0  0  0  0  0  0  0  0
   23.4600   13.9520   32.2320 H   0  0  0  0  0  0  0  0  0  0  0  0
   22.6030   16.1600   33.0160 H   0  0  0  0  0  0  0  0  0  0  0  0
   22.7080   11.2420   32.2880 H   0  0  0  0  0  0  0  0  0  0  0  0
   21.0260   11.2290   31.7650 H   0  0  0  0  0  0  0  0  0  0  0  0
   21.7350   10.1460   29.6050 H   0  0  0  0  0  0  0  0  0  0  0  0
   21.7120    9.0830   31.0170 H   0  0  0  0  0  0  0  0  0  0  0  0
   25.3170   10.8490   29.4730 H   0  0  0  0  0  0  0  0  0  0  0  0
   23.9060   10.6810   28.4040 H   0  0  0  0  0  0  0  0  0  0  0  0
   24.4480   12.7240   30.4830 H   0  0  0  0  0  0  0  0  0  0  0  0
   23.7060   12.8680   28.9010 H   0  0  0  0  0  0  0  0  0  0  0  0
   24.9650    6.7680   31.1140 H   0  0  0  0  0  0  0  0  0  0  0  0
   23.2900    6.9060   30.5580 H   0  0  0  0  0  0  0  0  0  0  0  0
   24.5060    7.3780   28.1500 H   0  0  0  0  0  0  0  0  0  0  0  0
   26.8140    4.5120   29.7660 H   0  0  0  0  0  0  0  0  0  0  0  0
   23.0640    4.6990   30.2560 H   0  0  0  0  0  0  0  0  0  0  0  0
   21.9410    3.4700   32.0030 H   0  0  0  0  0  0  0  0  0  0  0  0
   27.7180    3.4710   30.8560 H   0  0  0  0  0  0  0  0  0  0  0  0
   28.9280    2.0420   32.3440 H   0  0  0  0  0  0  0  0  0  0  0  0
   27.7200    0.8220   34.0900 H   0  0  0  0  0  0  0  0  0  0  0  0
   25.2680    1.0750   34.3380 H   0  0  0  0  0  0  0  0  0  0  0  0
   21.9190   12.0770   28.4990 H   0  0  0  0  0  0  0  0  0  0  0  0
  2  7  1  0  0  0  0
  2  1  1  0  0  0  0
  3  2  2  0  0  0  0
  4  3  1  0  0  0  0
  4  5  2  0  0  0  0
  5  6  1  0  0  0  0
  6 35  1  0  0  0  0
  6  7  2  0  0  0  0
  7 36  1  0  0  0  0
  8 32  1  6  0  0  0
  8  5  1  0  0  0  0
  8  9  1  0  0  0  0
  9 38  1  0  0  0  0
  9 37  1  0  0  0  0
 10 40  1  0  0  0  0
 10  9  1  0  0  0  0
 11 14  1  0  0  0  0
 11 10  1  0  0  0  0
 12 41  1  0  0  0  0
 12 13  1  0  0  0  0
 12 11  1  0  0  0  0
 13  8  1  0  0  0  0
 13 43  1  0  0  0  0
 14 15  2  0  0  0  0
 16 14  1  0  0  0  0
 16 46  1  0  0  0  0
 16 45  1  0  0  0  0
 17 16  1  0  0  0  0
 18 17  1  0  0  0  0
 18 20  1  0  0  0  0
 19 18  2  0  0  0  0
 20 21  2  0  0  0  0
 21 22  1  0  0  0  0
 21 27  1  0  0  0  0
 22 23  1  0  0  0  0
 23 50  1  0  0  0  0
 23 24  1  0  0  0  0
 24 25  2  0  0  0  0
 26 24  1  0  0  0  0
 26 31  1  0  0  0  0
 27 26  2  0  0  0  0
 28 27  1  0  0  0  0
 28 29  2  0  0  0  0
 29 30  1  0  0  0  0
 30 31  2  0  0  0  0
 30 53  1  0  0  0  0
 31 54  1  0  0  0  0
 33  3  1  0  0  0  0
 34  4  1  0  0  0  0
 39 10  1  0  0  0  0
 42 12  1  0  0  0  0
 44 13  1  0  0  0  0
 47 17  1  0  0  0  0
 48 20  1  0  0  0  0
 49 22  1  0  0  0  0
 51 28  1  0  0  0  0
 52 29  1  0  0  0  0
 55 32  1  0  0  0  0
M  END
>  <Pose>
1

>  <Score>
-7.37

$$$$
