
 OpenBabel03202209553D

 39 42  0  0  0  0  0  0  0  0999 V2000
   23.6900   18.1210   26.8780 Cl  0  0  0  0  0  0  0  0  0  0  0  0
   23.2170   16.8100   27.9450 C   0  0  0  0  0  0  0  0  0  0  0  0
   23.6310   15.5110   27.7120 C   0  0  0  0  0  0  0  0  0  0  0  0
   23.2470   14.4920   28.5640 C   0  0  0  0  0  0  0  0  0  0  0  0
   22.4500   14.7160   29.6620 C   0  0  0  0  0  0  0  0  0  0  0  0
   22.0340   16.0100   29.8990 C   0  0  0  0  0  0  0  0  0  0  0  0
   22.4130   17.0400   29.0520 C   0  0  0  0  0  0  0  0  0  0  0  0
   22.0520   13.6350   30.5520 C   0  0  0  0  0  0  0  0  0  0  0  0
   22.6370   12.4300   30.6280 N   0  0  0  0  0  0  0  0  0  0  0  0
   22.0420   11.6980   31.5210 O   0  0  0  0  0  0  0  0  0  0  0  0
   21.0620   12.3870   32.0520 C   0  0  0  0  0  0  0  0  0  0  0  0
   21.0580   13.6070   31.4510 N   0  0  0  0  0  0  0  0  0  0  0  0
   20.1600   11.8810   33.1060 C   0  0  0  0  0  0  0  0  0  0  0  0
   19.9770   10.4370   32.9530 N   0  0  0  0  0  0  0  0  0  0  0  0
   18.8610    9.8730   33.4600 C   0  0  0  0  0  0  0  0  0  0  0  0
   18.6400    8.5240   33.3440 C   0  0  0  0  0  0  0  0  0  0  0  0
   19.6340    7.6910   32.6590 C   0  0  0  0  0  0  0  0  0  0  0  0
   19.1640    6.4260   32.6930 N   0  0  0  0  0  0  0  0  0  0  0  0
   18.0040    6.4080   33.3180 N   0  0  0  0  0  0  0  0  0  0  0  0
   17.6410    7.6320   33.7290 C   0  0  0  0  0  0  0  0  0  0  0  0
   16.6000    7.9580   34.3500 O   0  0  0  0  0  0  0  0  0  0  0  0
   20.7590    8.3120   32.1580 C   0  0  0  0  0  0  0  0  0  0  0  0
   20.8670    9.6630   32.3350 C   0  0  0  0  0  0  0  0  0  0  0  0
   21.7730    7.5150   31.4690 C   0  0  0  0  0  0  0  0  0  0  0  0
   22.0450    6.3680   31.8510 O   0  0  0  0  0  0  0  0  0  0  0  0
   22.4550    8.0180   30.3740 O   0  0  0  0  0  0  0  0  0  0  0  0
   23.6620    7.4780   29.8900 C   0  0  0  0  0  0  0  0  0  0  0  0
   24.2630   15.3120   26.8470 H   0  0  0  0  0  0  0  0  0  0  0  0
   23.5730   13.4780   28.3790 H   0  0  0  0  0  0  0  0  0  0  0  0
   21.4050   16.1930   30.7650 H   0  0  0  0  0  0  0  0  0  0  0  0
   22.0900   18.0520   29.2320 H   0  0  0  0  0  0  0  0  0  0  0  0
   20.6440   12.0420   34.0830 H   0  0  0  0  0  0  0  0  0  0  0  0
   19.1540   12.3610   33.0500 H   0  0  0  0  0  0  0  0  0  0  0  0
   18.1250   10.4810   33.9630 H   0  0  0  0  0  0  0  0  0  0  0  0
   17.4430    5.5500   33.4730 H   0  0  0  0  0  0  0  0  0  0  0  0
   21.7630   10.1390   31.9330 H   0  0  0  0  0  0  0  0  0  0  0  0
   24.0640    6.6770   30.5240 H   0  0  0  0  0  0  0  0  0  0  0  0
   23.5290    7.0390   28.8590 H   0  0  0  0  0  0  0  0  0  0  0  0
   24.3610    8.3280   29.7450 H   0  0  0  0  0  0  0  0  0  0  0  0
  1  2  1  0  0  0  0
  2  7  1  0  0  0  0
  3  2  2  0  0  0  0
  3  4  1  0  0  0  0
  4  5  2  0  0  0  0
  5  6  1  0  0  0  0
  5  8  1  0  0  0  0
  6 30  1  0  0  0  0
  7 31  1  0  0  0  0
  7  6  2  0  0  0  0
  8  9  2  0  0  0  0
  8 12  1  0  0  0  0
  9 10  1  0  0  0  0
 10 11  1  0  0  0  0
 11 13  1  0  0  0  0
 12 11  2  0  0  0  0
 13 32  1  0  0  0  0
 14 13  1  0  0  0  0
 14 15  1  0  0  0  0
 15 34  1  0  0  0  0
 16 15  1  0  0  0  0
 16 20  1  0  0  0  0
 17 18  1  0  0  0  0
 17 16  2  0  0  0  0
 18 19  1  0  0  0  0
 19 35  1  0  0  0  0
 19 20  1  0  0  0  0
 20 21  2  0  0  0  0
 22 23  2  0  0  0  0
 22 17  1  0  0  0  0
 23 14  1  0  0  0  0
 24 25  2  0  0  0  0
 24 22  1  0  0  0  0
 26 24  1  0  0  0  0
 27 26  1  0  0  0  0
 27 37  1  0  0  0  0
 28  3  1  0  0  0  0
 29  4  1  0  0  0  0
 33 13  1  0  0  0  0
 36 23  1  0  0  0  0
 38 27  1  0  0  0  0
 39 27  1  0  0  0  0
M  END
>  <Pose>
1

>  <Score>
-6.85

$$$$
