
 OpenBabel03202209553D

 34 37  0  0  1  0  0  0  0  0999 V2000
   27.0930    1.7490   27.7950 Cl  0  0  0  0  0  0  0  0  0  0  0  0
   26.3950    3.2390   28.4180 C   0  0  0  0  0  0  0  0  0  0  0  0
   26.1710    4.3200   27.6010 C   0  0  0  0  0  0  0  0  0  0  0  0
   25.6250    5.4820   28.0960 C   0  0  0  0  0  0  0  0  0  0  0  0
   25.2770    5.6250   29.4260 C   0  0  0  0  0  0  0  0  0  0  0  0
   25.5090    4.5310   30.2300 C   0  0  0  0  0  0  0  0  0  0  0  0
   26.0540    3.3600   29.7550 C   0  0  0  0  0  0  0  0  0  0  0  0
   24.7170    6.8480   29.8890 N   0  0  0  0  0  0  0  0  0  0  0  0
   23.3410    7.1340   30.1770 C   0  0  0  0  0  0  0  0  0  0  0  0
   22.3880    6.4830   29.6240 O   0  0  0  0  0  0  0  0  0  0  0  0
   23.2600    8.2320   31.1530 C   0  0  1  0  0  0  0  0  0  0  0  0
   24.6120    8.8930   31.0310 C   0  0  2  0  0  0  0  0  0  0  0  0
   24.4250   10.3060   30.5230 C   0  0  2  0  0  0  0  0  0  0  0  0
   23.7100   11.0540   31.6580 C   0  0  0  0  0  0  0  0  0  0  0  0
   22.3690   10.3910   31.7850 C   0  0  0  0  0  0  0  0  0  0  0  0
   21.5460   10.8200   32.5470 O   0  0  0  0  0  0  0  0  0  0  0  0
   22.1380    9.1840   30.9170 C   0  0  1  0  0  0  0  0  0  0  0  0
   22.1730    9.7050   29.4760 C   0  0  0  0  0  0  0  0  0  0  0  0
   23.5210   10.3570   29.3220 C   0  0  0  0  0  0  0  0  0  0  0  0
   23.8200   10.8790   28.2840 O   0  0  0  0  0  0  0  0  0  0  0  0
   25.4310    8.0460   30.1650 C   0  0  0  0  0  0  0  0  0  0  0  0
   26.5720    8.3290   29.7370 O   0  0  0  0  0  0  0  0  0  0  0  0
   26.4350    4.2330   26.5630 H   0  0  0  0  0  0  0  0  0  0  0  0
   25.4420    6.3500   27.4490 H   0  0  0  0  0  0  0  0  0  0  0  0
   25.2570    4.5840   31.2780 H   0  0  0  0  0  0  0  0  0  0  0  0
   26.2370    2.4900   30.3980 H   0  0  0  0  0  0  0  0  0  0  0  0
   23.1140    7.7960   32.1800 H   0  0  0  0  0  0  0  0  0  0  0  0
   25.0470    8.9730   32.0520 H   0  0  0  0  0  0  0  0  0  0  0  0
   25.3900   10.7780   30.2690 H   0  0  0  0  0  0  0  0  0  0  0  0
   24.2690   10.7750   32.5910 H   0  0  0  0  0  0  0  0  0  0  0  0
   23.6440   12.1240   31.4750 H   0  0  0  0  0  0  0  0  0  0  0  0
   21.1840    8.7290   31.1800 H   0  0  0  0  0  0  0  0  0  0  0  0
   21.3460   10.4620   29.4150 H   0  0  0  0  0  0  0  0  0  0  0  0
   22.0250    8.9040   28.7470 H   0  0  0  0  0  0  0  0  0  0  0  0
  1  2  1  0  0  0  0
  2  7  1  0  0  0  0
  3  4  1  0  0  0  0
  3  2  2  0  0  0  0
  4  5  2  0  0  0  0
  5  8  1  0  0  0  0
  5  6  1  0  0  0  0
  6 25  1  0  0  0  0
  7  6  2  0  0  0  0
  7 26  1  0  0  0  0
  8 21  1  0  0  0  0
  8  9  1  0  0  0  0
  9 11  1  0  0  0  0
 10  9  2  0  0  0  0
 11 27  1  1  0  0  0
 12 11  1  0  0  0  0
 12 28  1  1  0  0  0
 13 29  1  6  0  0  0
 13 12  1  0  0  0  0
 13 14  1  0  0  0  0
 14 15  1  0  0  0  0
 14 30  1  0  0  0  0
 15 16  2  0  0  0  0
 17 11  1  0  0  0  0
 17 32  1  1  0  0  0
 17 15  1  0  0  0  0
 18 17  1  0  0  0  0
 19 18  1  0  0  0  0
 19 13  1  0  0  0  0
 20 19  2  0  0  0  0
 21 12  1  0  0  0  0
 22 21  2  0  0  0  0
 23  3  1  0  0  0  0
 24  4  1  0  0  0  0
 31 14  1  0  0  0  0
 33 18  1  0  0  0  0
 34 18  1  0  0  0  0
M  END
>  <Pose>
1

>  <Score>
-4.74

$$$$
