
 OpenBabel03202209553D

 57 61  0  0  1  0  0  0  0  0999 V2000
   17.7840   15.5140   30.9510 Cl  0  0  0  0  0  0  0  0  0  0  0  0
   19.4510   15.0040   31.1550 C   0  0  0  0  0  0  0  0  0  0  0  0
   19.7860   13.7100   31.5020 C   0  0  0  0  0  0  0  0  0  0  0  0
   21.0910   13.3220   31.6600 C   0  0  0  0  0  0  0  0  0  0  0  0
   22.1440   14.2170   31.4760 C   0  0  0  0  0  0  0  0  0  0  0  0
   21.8240   15.5070   31.1300 C   0  0  0  0  0  0  0  0  0  0  0  0
   20.5070   15.8700   30.9790 C   0  0  0  0  0  0  0  0  0  0  0  0
   23.5550   13.7630   31.6320 C   0  0  1  0  0  0  0  0  0  0  0  0
   24.0880   14.3380   32.7570 O   0  0  0  0  0  0  0  0  0  0  0  0
   23.7030   12.2660   31.5800 C   0  0  2  0  0  0  0  0  0  0  0  0
   24.9930   12.0170   30.9500 N   0  0  0  0  0  0  0  0  0  0  0  0
   24.8190   10.8680   30.0840 C   0  0  1  0  0  0  0  0  0  0  0  0
   23.4010   11.0230   29.6160 C   0  0  2  0  0  0  0  0  0  0  0  0
   22.6570   11.5710   30.7920 C   0  0  1  0  0  0  0  0  0  0  0  0
   22.0750   10.3940   31.4930 C   0  0  0  0  0  0  0  0  0  0  0  0
   21.5970   10.3740   32.6520 O   0  0  0  0  0  0  0  0  0  0  0  0
   22.1700    9.2840   30.5730 N   0  0  0  0  0  0  0  0  0  0  0  0
   22.7050    9.7510   29.3520 C   0  0  0  0  0  0  0  0  0  0  0  0
   22.6190    9.2020   28.2270 O   0  0  0  0  0  0  0  0  0  0  0  0
   21.7930    7.9330   30.8680 C   0  0  0  0  0  0  0  0  0  0  0  0
   22.8170    6.8970   30.5930 C   0  0  0  0  0  0  0  0  0  0  0  0
   22.3220    5.5230   30.3070 C   0  0  0  0  0  0  0  0  0  0  0  0
   22.1050    4.7660   31.4510 O   0  0  0  0  0  0  0  0  0  0  0  0
   23.2360    3.9610   31.6990 C   0  0  0  0  0  0  0  0  0  0  0  0
   25.7740   10.8760   28.9500 C   0  0  0  0  0  0  0  0  0  0  0  0
   26.5490    9.7480   29.0770 C   0  0  0  0  0  0  0  0  0  0  0  0
   27.5370    9.5020   28.1330 C   0  0  0  0  0  0  0  0  0  0  0  0
   27.7130   10.3900   27.0990 C   0  0  0  0  0  0  0  0  0  0  0  0
   26.9370   11.5290   26.9600 C   0  0  0  0  0  0  0  0  0  0  0  0
   25.9610   11.7610   27.9060 C   0  0  0  0  0  0  0  0  0  0  0  0
   26.1700    8.9900   30.2410 N   0  0  0  0  0  0  0  0  0  0  0  0
   25.1050    9.6800   30.8700 C   0  0  0  0  0  0  0  0  0  0  0  0
   24.5500    9.2940   31.9110 O   0  0  0  0  0  0  0  0  0  0  0  0
   18.9820   12.9830   31.6530 H   0  0  0  0  0  0  0  0  0  0  0  0
   21.3490   12.2870   31.9360 H   0  0  0  0  0  0  0  0  0  0  0  0
   22.5810   16.2610   30.9590 H   0  0  0  0  0  0  0  0  0  0  0  0
   20.2330   16.8950   30.7030 H   0  0  0  0  0  0  0  0  0  0  0  0
   24.0870   14.1810   30.6980 H   0  0  0  0  0  0  0  0  0  0  0  0
   24.9760   13.9290   32.9190 H   0  0  0  0  0  0  0  0  0  0  0  0
   23.7890   11.8680   32.6330 H   0  0  0  0  0  0  0  0  0  0  0  0
   25.7170   11.8580   31.6590 H   0  0  0  0  0  0  0  0  0  0  0  0
   23.3650   11.6980   28.7400 H   0  0  0  0  0  0  0  0  0  0  0  0
   21.8160   12.2190   30.4920 H   0  0  0  0  0  0  0  0  0  0  0  0
   20.8610    7.7010   30.3180 H   0  0  0  0  0  0  0  0  0  0  0  0
   21.5080    7.8250   31.9550 H   0  0  0  0  0  0  0  0  0  0  0  0
   23.3670    7.2270   29.6590 H   0  0  0  0  0  0  0  0  0  0  0  0
   23.6330    6.8640   31.3610 H   0  0  0  0  0  0  0  0  0  0  0  0
   22.9800    4.9290   29.6510 H   0  0  0  0  0  0  0  0  0  0  0  0
   21.3410    5.6300   29.7810 H   0  0  0  0  0  0  0  0  0  0  0  0
   23.4330    3.2770   30.8550 H   0  0  0  0  0  0  0  0  0  0  0  0
   24.1170    4.6350   31.7790 H   0  0  0  0  0  0  0  0  0  0  0  0
   23.1330    3.4260   32.6620 H   0  0  0  0  0  0  0  0  0  0  0  0
   28.1590    8.6000   28.2310 H   0  0  0  0  0  0  0  0  0  0  0  0
   28.4900   10.1820   26.3660 H   0  0  0  0  0  0  0  0  0  0  0  0
   27.1330   12.1830   26.1220 H   0  0  0  0  0  0  0  0  0  0  0  0
   25.3390   12.6630   27.8050 H   0  0  0  0  0  0  0  0  0  0  0  0
   26.6360    8.0960   30.5170 H   0  0  0  0  0  0  0  0  0  0  0  0
  1  2  1  0  0  0  0
  2  3  1  0  0  0  0
  3 34  1  0  0  0  0
  3  4  2  0  0  0  0
  4 35  1  0  0  0  0
  5  8  1  0  0  0  0
  5  4  1  0  0  0  0
  6  5  2  0  0  0  0
  7  6  1  0  0  0  0
  7  2  2  0  0  0  0
  8 38  1  6  0  0  0
  8  9  1  0  0  0  0
  9 39  1  0  0  0  0
 10  8  1  0  0  0  0
 10 40  1  1  0  0  0
 11 10  1  0  0  0  0
 11 41  1  0  0  0  0
 12 25  1  6  0  0  0
 12 32  1  0  0  0  0
 12 11  1  0  0  0  0
 13 42  1  6  0  0  0
 13 12  1  0  0  0  0
 13 14  1  0  0  0  0
 14 43  1  6  0  0  0
 14 15  1  0  0  0  0
 14 10  1  0  0  0  0
 15 16  2  0  0  0  0
 17 20  1  0  0  0  0
 17 15  1  0  0  0  0
 18 13  1  0  0  0  0
 18 17  1  0  0  0  0
 19 18  2  0  0  0  0
 20 45  1  0  0  0  0
 21 20  1  0  0  0  0
 21 47  1  0  0  0  0
 22 21  1  0  0  0  0
 22 23  1  0  0  0  0
 23 24  1  0  0  0  0
 24 51  1  0  0  0  0
 24 52  1  0  0  0  0
 25 26  1  0  0  0  0
 26 31  1  0  0  0  0
 27 53  1  0  0  0  0
 27 26  2  0  0  0  0
 28 27  1  0  0  0  0
 29 28  2  0  0  0  0
 29 30  1  0  0  0  0
 30 25  2  0  0  0  0
 31 57  1  0  0  0  0
 31 32  1  0  0  0  0
 32 33  2  0  0  0  0
 36  6  1  0  0  0  0
 37  7  1  0  0  0  0
 44 20  1  0  0  0  0
 46 21  1  0  0  0  0
 48 22  1  0  0  0  0
 49 22  1  0  0  0  0
 50 24  1  0  0  0  0
 54 28  1  0  0  0  0
 55 29  1  0  0  0  0
 56 30  1  0  0  0  0
M  END
>  <Pose>
1

>  <Score>
-6.32

$$$$
