
 OpenBabel03202209553D

 48 51  0  0  1  0  0  0  0  0999 V2000
   22.5470   18.1730   28.1060 Cl  0  0  0  0  0  0  0  0  0  0  0  0
   23.1480   16.5540   28.3860 C   0  0  0  0  0  0  0  0  0  0  0  0
   22.5840   15.7490   29.3720 C   0  0  0  0  0  0  0  0  0  0  0  0
   23.0660   14.4750   29.5820 C   0  0  0  0  0  0  0  0  0  0  0  0
   24.1060   13.9510   28.8450 C   0  0  0  0  0  0  0  0  0  0  0  0
   24.6690   14.7420   27.8680 C   0  0  0  0  0  0  0  0  0  0  0  0
   24.1890   16.0150   27.6550 C   0  0  0  0  0  0  0  0  0  0  0  0
   24.6420   12.5950   29.0450 C   0  0  0  0  0  0  0  0  0  0  0  0
   24.4940   12.1570   30.4700 C   0  0  0  0  0  0  0  0  0  0  0  0
   24.0700   13.0370   31.2970 O   0  0  0  0  0  0  0  0  0  0  0  0
   24.8050   10.8510   30.8730 N   0  0  0  0  0  0  0  0  0  0  0  0
   25.5530    9.9570   30.0470 C   0  0  0  0  0  0  0  0  0  0  0  0
   25.2730    8.5020   30.2940 C   0  0  0  0  0  0  0  0  0  0  0  0
   23.9220    8.3340   30.8810 C   0  0  2  0  0  0  0  0  0  0  0  0
   23.4370    9.2380   31.8090 C   0  0  0  0  0  0  0  0  0  0  0  0
   22.2220    9.0920   32.3490 N   0  0  0  0  0  0  0  0  0  0  0  0
   21.3990    8.0710   32.0290 C   0  0  2  0  0  0  0  0  0  0  0  0
   21.8690    7.1830   31.1200 N   0  0  0  0  0  0  0  0  0  0  0  0
   23.0820    7.2870   30.5510 C   0  0  0  0  0  0  0  0  0  0  0  0
   23.5340    6.3600   29.6230 O   0  0  0  0  0  0  0  0  0  0  0  0
   20.1300    7.9650   32.6240 N   0  0  0  0  0  0  0  0  0  0  0  0
   19.2400    6.9010   32.2640 C   0  0  0  0  0  0  0  0  0  0  0  0
   18.2700    6.7350   33.4430 C   0  0  0  0  0  0  0  0  0  0  0  0
   17.5230    7.8710   33.6340 O   0  0  0  0  0  0  0  0  0  0  0  0
   18.2130    9.0520   33.6430 C   0  0  0  0  0  0  0  0  0  0  0  0
   19.7110    8.9260   33.6000 C   0  0  0  0  0  0  0  0  0  0  0  0
   24.3610   10.3810   32.1560 C   0  0  0  0  0  0  0  0  0  0  0  0
   21.7710   16.1510   29.9520 H   0  0  0  0  0  0  0  0  0  0  0  0
   22.6330   13.8390   30.3500 H   0  0  0  0  0  0  0  0  0  0  0  0
   25.5030   14.3800   27.2450 H   0  0  0  0  0  0  0  0  0  0  0  0
   24.6330   16.6530   26.8760 H   0  0  0  0  0  0  0  0  0  0  0  0
   25.7170   12.6090   28.7340 H   0  0  0  0  0  0  0  0  0  0  0  0
   24.1030   11.9180   28.3470 H   0  0  0  0  0  0  0  0  0  0  0  0
   25.5110   10.2220   28.9660 H   0  0  0  0  0  0  0  0  0  0  0  0
   26.6520   10.0890   30.3090 H   0  0  0  0  0  0  0  0  0  0  0  0
   26.0250    8.0370   30.9990 H   0  0  0  0  0  0  0  0  0  0  0  0
   25.3650    7.8900   29.3660 H   0  0  0  0  0  0  0  0  0  0  0  0
   22.8930    5.8380   29.0190 H   0  0  0  0  0  0  0  0  0  0  0  0
   19.7560    5.9170   32.1700 H   0  0  0  0  0  0  0  0  0  0  0  0
   18.6730    7.0910   31.3210 H   0  0  0  0  0  0  0  0  0  0  0  0
   18.9080    6.5810   34.3380 H   0  0  0  0  0  0  0  0  0  0  0  0
   17.6280    5.8640   33.3110 H   0  0  0  0  0  0  0  0  0  0  0  0
   17.8880    9.7100   32.8070 H   0  0  0  0  0  0  0  0  0  0  0  0
   17.9650    9.5880   34.6000 H   0  0  0  0  0  0  0  0  0  0  0  0
   20.1010    8.6850   34.6290 H   0  0  0  0  0  0  0  0  0  0  0  0
   20.1040    9.9250   33.3100 H   0  0  0  0  0  0  0  0  0  0  0  0
   23.8080   11.1680   32.7010 H   0  0  0  0  0  0  0  0  0  0  0  0
   25.1940   10.0120   32.7920 H   0  0  0  0  0  0  0  0  0  0  0  0
  1  2  1  0  0  0  0
  2  3  1  0  0  0  0
  3  4  2  0  0  0  0
  3 28  1  0  0  0  0
  4 29  1  0  0  0  0
  5  8  1  0  0  0  0
  5  4  1  0  0  0  0
  6  5  2  0  0  0  0
  7  6  1  0  0  0  0
  7  2  2  0  0  0  0
  8  9  1  0  0  0  0
  9 11  1  0  0  0  0
  9 10  2  0  0  0  0
 11 27  1  0  0  0  0
 12 13  1  0  0  0  0
 12 35  1  0  0  0  0
 12 11  1  0  0  0  0
 13 14  1  0  0  0  0
 13 36  1  0  0  0  0
 14 19  1  1  0  0  0
 14 15  1  0  0  0  0
 15 27  1  0  0  0  0
 15 16  2  0  0  0  0
 17 16  1  0  0  0  0
 17 21  1  6  0  0  0
 18 17  1  0  0  0  0
 19 18  2  0  0  0  0
 20 19  1  0  0  0  0
 21 26  1  0  0  0  0
 22 21  1  0  0  0  0
 22 23  1  0  0  0  0
 23 24  1  0  0  0  0
 23 41  1  0  0  0  0
 24 25  1  0  0  0  0
 25 44  1  0  0  0  0
 26 25  1  0  0  0  0
 26 45  1  0  0  0  0
 27 47  1  0  0  0  0
 27 48  1  0  0  0  0
 30  6  1  0  0  0  0
 31  7  1  0  0  0  0
 32  8  1  0  0  0  0
 33  8  1  0  0  0  0
 34 12  1  0  0  0  0
 37 13  1  0  0  0  0
 38 20  1  0  0  0  0
 39 22  1  0  0  0  0
 40 22  1  0  0  0  0
 42 23  1  0  0  0  0
 43 25  1  0  0  0  0
 46 26  1  0  0  0  0
M  END
>  <Pose>
1

>  <Score>
-6.48

$$$$
