
 OpenBabel03202209553D

 33 36  0  0  1  0  0  0  0  0999 V2000
   18.5200    6.9380   33.2550 Cl  0  0  0  0  0  0  0  0  0  0  0  0
   20.0820    6.9770   32.4670 C   0  0  0  0  0  0  0  0  0  0  0  0
   20.7990    8.1470   32.3400 C   0  0  0  0  0  0  0  0  0  0  0  0
   22.0370    8.1900   31.7190 C   0  0  0  0  0  0  0  0  0  0  0  0
   22.5290    6.9990   31.2240 C   0  0  0  0  0  0  0  0  0  0  0  0
   21.8080    5.8190   31.3510 C   0  0  0  0  0  0  0  0  0  0  0  0
   20.5760    5.7860   31.9720 C   0  0  0  0  0  0  0  0  0  0  0  0
   22.7780    9.3980   31.5860 N   0  0  0  0  0  0  0  0  0  0  0  0
   22.2770   10.7370   31.4180 C   0  0  0  0  0  0  0  0  0  0  0  0
   21.0670   11.0310   31.2660 O   0  0  0  0  0  0  0  0  0  0  0  0
   23.3860   11.6860   31.4530 C   0  0  2  0  0  0  0  0  0  0  0  0
   23.7410   12.3020   30.1390 C   0  0  1  0  0  0  0  0  0  0  0  0
   25.1090   12.5970   30.3640 O   0  0  0  0  0  0  0  0  0  0  0  0
   25.5300   11.2590   30.5790 C   0  0  1  0  0  0  0  0  0  0  0  0
   24.6510   10.8620   31.7400 C   0  0  2  0  0  0  0  0  0  0  0  0
   24.1990    9.4770   31.5950 C   0  0  0  0  0  0  0  0  0  0  0  0
   24.9470    8.4750   31.4920 O   0  0  0  0  0  0  0  0  0  0  0  0
   24.9940   10.6080   29.3650 C   0  0  0  0  0  0  0  0  0  0  0  0
   23.8700   11.2960   29.0610 C   0  0  0  0  0  0  0  0  0  0  0  0
   22.9620   13.5160   29.7750 C   0  0  0  0  0  0  0  0  0  0  0  0
   21.8240   13.1410   29.0720 O   0  0  0  0  0  0  0  0  0  0  0  0
   20.4180    9.0910   32.7290 H   0  0  0  0  0  0  0  0  0  0  0  0
   23.5010    7.0120   30.7320 H   0  0  0  0  0  0  0  0  0  0  0  0
   22.2090    4.8890   30.9570 H   0  0  0  0  0  0  0  0  0  0  0  0
   20.0270    4.8540   32.0610 H   0  0  0  0  0  0  0  0  0  0  0  0
   23.2720   12.4930   32.1960 H   0  0  0  0  0  0  0  0  0  0  0  0
   26.5880   11.1650   30.7460 H   0  0  0  0  0  0  0  0  0  0  0  0
   25.0760   11.0950   32.7190 H   0  0  0  0  0  0  0  0  0  0  0  0
   25.3840    9.7760   28.8190 H   0  0  0  0  0  0  0  0  0  0  0  0
   23.2270   11.1270   28.2090 H   0  0  0  0  0  0  0  0  0  0  0  0
   23.6050   14.1190   29.0830 H   0  0  0  0  0  0  0  0  0  0  0  0
   22.7280   14.1670   30.6300 H   0  0  0  0  0  0  0  0  0  0  0  0
   21.7320   13.6840   28.2560 H   0  0  0  0  0  0  0  0  0  0  0  0
  2  1  1  0  0  0  0
  3  2  1  0  0  0  0
  3 22  1  0  0  0  0
  4  3  2  0  0  0  0
  5  6  2  0  0  0  0
  5  4  1  0  0  0  0
  6  7  1  0  0  0  0
  7 25  1  0  0  0  0
  7  2  2  0  0  0  0
  8 16  1  0  0  0  0
  8  4  1  0  0  0  0
  9 11  1  0  0  0  0
  9  8  1  0  0  0  0
 10  9  2  0  0  0  0
 11 15  1  0  0  0  0
 11 26  1  1  0  0  0
 12 20  1  6  0  0  0
 12 13  1  0  0  0  0
 12 11  1  0  0  0  0
 13 14  1  0  0  0  0
 14 27  1  1  0  0  0
 14 15  1  0  0  0  0
 15 28  1  1  0  0  0
 16 15  1  0  0  0  0
 17 16  2  0  0  0  0
 18 14  1  0  0  0  0
 19 18  2  0  0  0  0
 19 12  1  0  0  0  0
 20 32  1  0  0  0  0
 21 20  1  0  0  0  0
 23  5  1  0  0  0  0
 24  6  1  0  0  0  0
 29 18  1  0  0  0  0
 30 19  1  0  0  0  0
 31 20  1  0  0  0  0
 33 21  1  0  0  0  0
M  END
>  <Pose>
1

>  <Score>
-5.28

$$$$
