
 OpenBabel03202209553D

 36 39  0  0  0  0  0  0  0  0999 V2000
   24.6890    6.9310   30.2330 Cl  0  0  0  0  0  0  0  0  0  0  0  0
   23.1120    7.0360   30.9870 C   0  0  0  0  0  0  0  0  0  0  0  0
   22.5440    8.2360   31.3610 C   0  0  0  0  0  0  0  0  0  0  0  0
   21.3030    8.3340   31.9580 C   0  0  0  0  0  0  0  0  0  0  0  0
   20.6090    7.1610   32.1830 C   0  0  0  0  0  0  0  0  0  0  0  0
   21.1660    5.9550   31.8130 C   0  0  0  0  0  0  0  0  0  0  0  0
   22.4080    5.8580   31.2180 C   0  0  0  0  0  0  0  0  0  0  0  0
   19.2760    7.2410   32.8200 C   0  0  0  0  0  0  0  0  0  0  0  0
   18.4480    6.3360   33.1320 N   0  0  0  0  0  0  0  0  0  0  0  0
   17.2400    6.8430   33.7480 C   0  0  0  0  0  0  0  0  0  0  0  0
   17.4250    8.3250   33.7910 C   0  0  0  0  0  0  0  0  0  0  0  0
   18.7330    8.5010   33.1880 N   0  0  0  0  0  0  0  0  0  0  0  0
   19.5150    9.6650   32.9190 C   0  0  0  0  0  0  0  0  0  0  0  0
   19.2630   10.9650   33.1530 N   0  0  0  0  0  0  0  0  0  0  0  0
   20.2670   11.7220   32.7440 N   0  0  0  0  0  0  0  0  0  0  0  0
   21.1770   10.8550   32.2380 C   0  0  0  0  0  0  0  0  0  0  0  0
   22.2710   11.2180   31.7530 O   0  0  0  0  0  0  0  0  0  0  0  0
   20.7390    9.5890   32.3340 N   0  0  0  0  0  0  0  0  0  0  0  0
   20.3680   13.1670   32.8230 C   0  0  0  0  0  0  0  0  0  0  0  0
   20.5110   13.7410   31.4070 C   0  0  0  0  0  0  0  0  0  0  0  0
   19.6140   14.9110   31.2370 C   0  0  0  0  0  0  0  0  0  0  0  0
   19.5890   15.9040   32.0080 O   0  0  0  0  0  0  0  0  0  0  0  0
   18.7240   14.9100   30.1330 N   0  0  0  0  0  0  0  0  0  0  0  0
   23.1160    9.1330   31.1690 H   0  0  0  0  0  0  0  0  0  0  0  0
   20.5980    5.0570   32.0030 H   0  0  0  0  0  0  0  0  0  0  0  0
   22.8490    4.9100   30.9260 H   0  0  0  0  0  0  0  0  0  0  0  0
   17.0810    6.4120   34.7570 H   0  0  0  0  0  0  0  0  0  0  0  0
   16.4000    6.5500   33.0690 H   0  0  0  0  0  0  0  0  0  0  0  0
   17.3600    8.7490   34.8100 H   0  0  0  0  0  0  0  0  0  0  0  0
   16.6420    8.8200   33.1480 H   0  0  0  0  0  0  0  0  0  0  0  0
   19.4000   13.5700   33.2010 H   0  0  0  0  0  0  0  0  0  0  0  0
   21.2080   13.4920   33.4370 H   0  0  0  0  0  0  0  0  0  0  0  0
   20.2680   12.9720   30.6500 H   0  0  0  0  0  0  0  0  0  0  0  0
   21.5540   14.1050   31.2320 H   0  0  0  0  0  0  0  0  0  0  0  0
   19.0220   15.0900   29.1570 H   0  0  0  0  0  0  0  0  0  0  0  0
   17.7180   14.7180   30.3200 H   0  0  0  0  0  0  0  0  0  0  0  0
  1  2  1  0  0  0  0
  2  7  2  0  0  0  0
  2  3  1  0  0  0  0
  3  4  2  0  0  0  0
  4  5  1  0  0  0  0
  4 18  1  0  0  0  0
  5  8  2  0  0  0  0
  6 25  1  0  0  0  0
  6  5  1  0  0  0  0
  7  6  1  0  0  0  0
  8  9  1  0  0  0  0
  8 12  1  0  0  0  0
  9 10  1  0  0  0  0
 10 11  1  0  0  0  0
 10 27  1  0  0  0  0
 11 29  1  0  0  0  0
 12 11  1  0  0  0  0
 13 14  2  0  0  0  0
 13 12  1  0  0  0  0
 15 19  1  0  0  0  0
 15 14  1  0  0  0  0
 16 18  1  0  0  0  0
 16 15  1  0  0  0  0
 17 16  2  0  0  0  0
 18 13  1  0  0  0  0
 19 31  1  0  0  0  0
 19 32  1  0  0  0  0
 20 19  1  0  0  0  0
 21 20  1  0  0  0  0
 21 22  2  0  0  0  0
 23 36  1  0  0  0  0
 23 21  1  0  0  0  0
 24  3  1  0  0  0  0
 26  7  1  0  0  0  0
 28 10  1  0  0  0  0
 30 11  1  0  0  0  0
 33 20  1  0  0  0  0
 34 20  1  0  0  0  0
 35 23  1  0  0  0  0
M  END
>  <Pose>
1

>  <Score>
-6.94

$$$$
