
 OpenBabel03202209553D

 37 40  0  0  1  0  0  0  0  0999 V2000
   22.9690   16.7260   28.8480 Cl  0  0  0  0  0  0  0  0  0  0  0  0
   22.3430   15.6360   30.0820 C   0  0  0  0  0  0  0  0  0  0  0  0
   22.7380   14.3010   30.1070 C   0  0  0  0  0  0  0  0  0  0  0  0
   22.2250   13.4900   31.0920 C   0  0  0  0  0  0  0  0  0  0  0  0
   21.3250   13.9950   32.0450 C   0  0  0  0  0  0  0  0  0  0  0  0
   20.9420   15.3020   32.0130 C   0  0  0  0  0  0  0  0  0  0  0  0
   21.4600   16.1210   31.0240 C   0  0  0  0  0  0  0  0  0  0  0  0
   22.5680   12.1140   31.1970 N   0  0  0  0  0  0  0  0  0  0  0  0
   23.8230   11.4720   31.3880 C   0  0  0  0  0  0  0  0  0  0  0  0
   24.8270   12.0230   31.8730 O   0  0  0  0  0  0  0  0  0  0  0  0
   23.7320   10.0780   30.9230 C   0  0  1  0  0  0  0  0  0  0  0  0
   24.4200    9.1290   31.6070 O   0  0  0  0  0  0  0  0  0  0  0  0
   23.5760    8.0360   31.5360 N   0  0  0  0  0  0  0  0  0  0  0  0
   22.2320    8.5050   31.6710 C   0  0  0  0  0  0  0  0  0  0  0  0
   22.3110    9.7770   31.2980 C   0  0  0  0  0  0  0  0  0  0  0  0
   21.5970   11.0360   31.1370 C   0  0  0  0  0  0  0  0  0  0  0  0
   20.3530   11.1160   30.9750 O   0  0  0  0  0  0  0  0  0  0  0  0
   21.0480    7.7670   32.0630 C   0  0  0  0  0  0  0  0  0  0  0  0
   19.9690    8.3910   32.6960 C   0  0  0  0  0  0  0  0  0  0  0  0
   19.0170    7.4840   32.9610 N   0  0  0  0  0  0  0  0  0  0  0  0
   19.4440    6.2990   32.5210 N   0  0  0  0  0  0  0  0  0  0  0  0
   20.6720    6.4580   31.9760 C   0  0  0  0  0  0  0  0  0  0  0  0
   21.5010    5.3760   31.3880 C   0  0  0  0  0  0  0  0  0  0  0  0
   17.7230    7.6710   33.6090 C   0  0  0  0  0  0  0  0  0  0  0  0
   23.4420   13.8940   29.3710 H   0  0  0  0  0  0  0  0  0  0  0  0
   20.9410   13.3160   32.8090 H   0  0  0  0  0  0  0  0  0  0  0  0
   20.2300   15.6790   32.7720 H   0  0  0  0  0  0  0  0  0  0  0  0
   21.1730   17.1720   30.9680 H   0  0  0  0  0  0  0  0  0  0  0  0
   23.8580   10.0280   29.8190 H   0  0  0  0  0  0  0  0  0  0  0  0
   23.9020    7.0660   31.3990 H   0  0  0  0  0  0  0  0  0  0  0  0
   19.8910    9.4350   32.9450 H   0  0  0  0  0  0  0  0  0  0  0  0
   21.2750    5.2800   30.3220 H   0  0  0  0  0  0  0  0  0  0  0  0
   21.2140    4.4030   31.8530 H   0  0  0  0  0  0  0  0  0  0  0  0
   22.5750    5.5120   31.6000 H   0  0  0  0  0  0  0  0  0  0  0  0
   17.6520    7.0550   34.5310 H   0  0  0  0  0  0  0  0  0  0  0  0
   17.6230    8.7270   33.9870 H   0  0  0  0  0  0  0  0  0  0  0  0
   16.8800    7.3940   32.9480 H   0  0  0  0  0  0  0  0  0  0  0  0
  1  2  1  0  0  0  0
  2  3  2  0  0  0  0
  2  7  1  0  0  0  0
  3  4  1  0  0  0  0
  4  8  1  0  0  0  0
  4  5  2  0  0  0  0
  5 26  1  0  0  0  0
  6  5  1  0  0  0  0
  6 27  1  0  0  0  0
  7  6  2  0  0  0  0
  8  9  1  0  0  0  0
  9 10  2  0  0  0  0
 11 29  1  6  0  0  0
 11 15  1  0  0  0  0
 11  9  1  0  0  0  0
 11 12  1  0  0  0  0
 13 12  1  0  0  0  0
 13 14  1  0  0  0  0
 14 18  1  0  0  0  0
 15 14  2  0  0  0  0
 16  8  1  0  0  0  0
 16 15  1  0  0  0  0
 17 16  2  0  0  0  0
 18 19  2  0  0  0  0
 19 31  1  0  0  0  0
 19 20  1  0  0  0  0
 20 24  1  0  0  0  0
 21 20  1  0  0  0  0
 22 18  1  0  0  0  0
 22 21  2  0  0  0  0
 23 34  1  0  0  0  0
 23 33  1  0  0  0  0
 23 22  1  0  0  0  0
 24 36  1  0  0  0  0
 24 35  1  0  0  0  0
 25  3  1  0  0  0  0
 28  7  1  0  0  0  0
 30 13  1  0  0  0  0
 32 23  1  0  0  0  0
 37 24  1  0  0  0  0
M  END
>  <Pose>
1

>  <Score>
-6.17

$$$$
