
 OpenBabel03202209553D

 54 52  0  0  0  0  0  0  0  0999 V2000
   25.3220    1.4800   32.4950 B   0  0  0  0  0  0  0  0  0  0  0  0
   24.8390    3.1350   31.6800 C   0  0  0  0  0  0  0  0  0  0  0  0
   25.7390    3.8380   30.9110 C   0  0  0  0  0  0  0  0  0  0  0  0
   25.3680    5.0480   30.3220 C   0  0  0  0  0  0  0  0  0  0  0  0
   24.1040    5.5200   30.5210 C   0  0  0  0  0  0  0  0  0  0  0  0
   23.2000    4.8360   31.2810 C   0  0  0  0  0  0  0  0  0  0  0  0
   23.5640    3.6450   31.8600 C   0  0  0  0  0  0  0  0  0  0  0  0
   23.7600    6.8580   29.8930 C   0  0  0  0  0  0  0  0  0  0  0  0
   22.8250    7.5910   30.7070 N   0  0  0  0  0  0  0  0  0  0  0  0
   21.7750    7.0130   31.3770 C   0  0  0  0  0  0  0  0  0  0  0  0
   21.0540    7.9900   32.0350 C   0  0  0  0  0  0  0  0  0  0  0  0
   21.6790    9.1380   31.7550 N   0  0  0  0  0  0  0  0  0  0  0  0
   22.7610    8.9010   30.9480 C   0  0  0  0  0  0  0  0  0  0  0  0
   23.6490    9.9260   30.5840 N   0  0  0  0  0  0  0  0  0  0  0  0
   24.8620   10.3410   31.1920 C   0  0  0  0  0  0  0  0  0  0  0  0
   25.1550   11.8260   30.9480 C   0  0  0  0  0  0  0  0  0  0  0  0
   24.0350   12.6300   30.6770 N   0  0  0  0  0  0  0  0  0  0  0  0
   23.1080   12.1550   29.7260 C   0  0  0  0  0  0  0  0  0  0  0  0
   23.2960   10.7000   29.3620 C   0  0  0  0  0  0  0  0  0  0  0  0
   23.6300   13.6120   31.5950 C   0  0  0  0  0  0  0  0  0  0  0  0
   22.3400   14.2760   31.3540 C   0  0  0  0  0  0  0  0  0  0  0  0
   21.2340   13.7040   31.5480 O   0  0  0  0  0  0  0  0  0  0  0  0
   22.3130   15.5760   30.8960 O   0  0  0  0  0  0  0  0  0  0  0  0
   21.8230   16.6380   31.6660 C   0  0  0  0  0  0  0  0  0  0  0  0
   19.9730    7.6760   32.7750 N   0  0  0  0  0  0  0  0  0  0  0  0
   19.6140    6.3870   32.8580 C   0  0  0  0  0  0  0  0  0  0  0  0
   18.6040    6.1050   33.5500 O   0  0  0  0  0  0  0  0  0  0  0  0
   20.2880    5.4120   32.2370 N   0  0  0  0  0  0  0  0  0  0  0  0
   21.3890    5.6930   31.4780 C   0  0  0  0  0  0  0  0  0  0  0  0
   22.0010    4.7560   30.9110 O   0  0  0  0  0  0  0  0  0  0  0  0
   19.2400    8.7340   33.4440 C   0  0  0  0  0  0  0  0  0  0  0  0
   26.7570    3.4750   30.7400 H   0  0  0  0  0  0  0  0  0  0  0  0
   26.1220    5.5650   29.7150 H   0  0  0  0  0  0  0  0  0  0  0  0
   22.2100    5.2190   31.4440 H   0  0  0  0  0  0  0  0  0  0  0  0
   22.8430    3.1090   32.4580 H   0  0  0  0  0  0  0  0  0  0  0  0
   23.4080    6.5750   28.9040 H   0  0  0  0  0  0  0  0  0  0  0  0
   24.7270    7.4250   29.8250 H   0  0  0  0  0  0  0  0  0  0  0  0
   24.8650   10.2600   32.3110 H   0  0  0  0  0  0  0  0  0  0  0  0
   25.7100    9.8160   30.7140 H   0  0  0  0  0  0  0  0  0  0  0  0
   25.7180   12.2700   31.8100 H   0  0  0  0  0  0  0  0  0  0  0  0
   25.8670   11.9580   30.0770 H   0  0  0  0  0  0  0  0  0  0  0  0
   23.2620   12.7340   28.7790 H   0  0  0  0  0  0  0  0  0  0  0  0
   22.0780   12.3700   30.0520 H   0  0  0  0  0  0  0  0  0  0  0  0
   24.1520   10.5440   28.6750 H   0  0  0  0  0  0  0  0  0  0  0  0
   22.3630   10.3340   28.9170 H   0  0  0  0  0  0  0  0  0  0  0  0
   24.4520   14.3430   31.7920 H   0  0  0  0  0  0  0  0  0  0  0  0
   23.5110   13.0930   32.5970 H   0  0  0  0  0  0  0  0  0  0  0  0
   20.7840   16.9100   31.3610 H   0  0  0  0  0  0  0  0  0  0  0  0
   22.4620   17.5310   31.4090 H   0  0  0  0  0  0  0  0  0  0  0  0
   21.8070   16.4500   32.7560 H   0  0  0  0  0  0  0  0  0  0  0  0
   19.9940    4.4050   32.3160 H   0  0  0  0  0  0  0  0  0  0  0  0
   19.9410    9.2140   34.1590 H   0  0  0  0  0  0  0  0  0  0  0  0
   18.9370    9.5320   32.7200 H   0  0  0  0  0  0  0  0  0  0  0  0
   18.3350    8.3180   33.9020 H   0  0  0  0  0  0  0  0  0  0  0  0
  2  7  2  0  0  0  0
  2  1  1  0  0  0  0
  3  2  1  0  0  0  0
  4  5  2  0  0  0  0
  4  3  1  0  0  0  0
  7 35  1  0  0  0  0
  8  5  1  0  0  0  0
  8  9  1  0  0  0  0
  9 13  1  0  0  0  0
  9 10  1  0  0  0  0
 10 11  2  0  0  0  0
 11 25  1  0  0  0  0
 12 11  1  0  0  0  0
 13 12  2  0  0  0  0
 14 13  1  0  0  0  0
 14 15  1  0  0  0  0
 15 38  1  0  0  0  0
 16 15  1  0  0  0  0
 16 40  1  0  0  0  0
 17 16  1  0  0  0  0
 17 20  1  0  0  0  0
 18 43  1  0  0  0  0
 18 17  1  0  0  0  0
 19 18  1  0  0  0  0
 19 14  1  0  0  0  0
 20 46  1  0  0  0  0
 20 47  1  0  0  0  0
 21 22  2  0  0  0  0
 21 20  1  0  0  0  0
 23 21  1  0  0  0  0
 23 24  1  0  0  0  0
 24 50  1  0  0  0  0
 25 26  1  0  0  0  0
 25 31  1  0  0  0  0
 26 27  2  0  0  0  0
 28 51  1  0  0  0  0
 28 26  1  0  0  0  0
 30 34  1  0  0  0  0
 31 54  1  0  0  0  0
 31 52  1  0  0  0  0
 32  3  1  0  0  0  0
 33  4  1  0  0  0  0
 36  8  1  0  0  0  0
 37  8  1  0  0  0  0
 39 15  1  0  0  0  0
 41 16  1  0  0  0  0
 42 18  1  0  0  0  0
 44 19  1  0  0  0  0
 45 19  1  0  0  0  0
 48 24  1  0  0  0  0
 49 24  1  0  0  0  0
 53 31  1  0  0  0  0
M  END
>  <Pose>
1

>  <Score>
-6.41

$$$$
