
 OpenBabel03202209553D

 38 41  0  0  1  0  0  0  0  0999 V2000
   24.3950   12.0650   28.7610 Cl  0  0  0  0  0  0  0  0  0  0  0  0
   24.3120   10.8760   30.0440 C   0  0  0  0  0  0  0  0  0  0  0  0
   23.3040    9.9120   30.0540 C   0  0  0  0  0  0  0  0  0  0  0  0
   23.2040    8.9700   31.0350 C   0  0  0  0  0  0  0  0  0  0  0  0
   24.1650    9.0130   32.0360 C   0  0  0  0  0  0  0  0  0  0  0  0
   25.1680    9.9580   32.0430 C   0  0  0  0  0  0  0  0  0  0  0  0
   25.2520   10.9010   31.0440 C   0  0  0  0  0  0  0  0  0  0  0  0
   22.0380    8.1060   30.7550 C   0  0  2  0  0  0  0  0  0  0  0  0
   21.0190    8.2340   31.8590 C   0  0  0  0  0  0  0  0  0  0  0  0
   20.5670    7.2180   32.5410 C   0  0  0  0  0  0  0  0  0  0  0  0
   21.0120    5.8870   32.2900 N   0  0  0  0  0  0  0  0  0  0  0  0
   21.9710    5.6770   31.2690 C   0  0  0  0  0  0  0  0  0  0  0  0
   22.4330    6.6930   30.5750 C   0  0  0  0  0  0  0  0  0  0  0  0
   23.4170    6.4330   29.5340 C   0  0  0  0  0  0  0  0  0  0  0  0
   24.1930    6.2380   28.6980 N   0  0  0  0  0  0  0  0  0  0  0  0
   22.4640    4.3710   30.9580 N   0  0  0  0  0  0  0  0  0  0  0  0
   19.5880    7.7070   33.5330 C   0  0  0  0  0  0  0  0  0  0  0  0
   19.5250    9.0680   33.3580 O   0  0  0  0  0  0  0  0  0  0  0  0
   20.3770    9.4470   32.3480 C   0  0  0  0  0  0  0  0  0  0  0  0
   20.5910   10.6280   31.9000 O   0  0  0  0  0  0  0  0  0  0  0  0
   20.0300    7.2770   34.9140 C   0  0  0  0  0  0  0  0  0  0  0  0
   18.2050    7.1270   33.2960 C   0  0  0  0  0  0  0  0  0  0  0  0
   21.4690    8.6520   29.5010 C   0  0  0  0  0  0  0  0  0  0  0  0
   20.4370    8.2140   28.8770 O   0  0  0  0  0  0  0  0  0  0  0  0
   22.2630    9.7470   29.1060 N   0  0  0  0  0  0  0  0  0  0  0  0
   24.1360    8.2940   32.8360 H   0  0  0  0  0  0  0  0  0  0  0  0
   25.9270   10.0000   32.8260 H   0  0  0  0  0  0  0  0  0  0  0  0
   26.0270   11.6550   31.0220 H   0  0  0  0  0  0  0  0  0  0  0  0
   20.6550    5.0710   32.8310 H   0  0  0  0  0  0  0  0  0  0  0  0
   22.1320    3.5460   31.4750 H   0  0  0  0  0  0  0  0  0  0  0  0
   23.1580    4.2760   30.2070 H   0  0  0  0  0  0  0  0  0  0  0  0
   19.4160    7.7450   35.7050 H   0  0  0  0  0  0  0  0  0  0  0  0
   21.1110    7.3600   35.0660 H   0  0  0  0  0  0  0  0  0  0  0  0
   19.7980    6.1740   34.9780 H   0  0  0  0  0  0  0  0  0  0  0  0
   18.0250    7.2330   32.1890 H   0  0  0  0  0  0  0  0  0  0  0  0
   17.4900    7.7700   33.8450 H   0  0  0  0  0  0  0  0  0  0  0  0
   18.1030    6.0990   33.6500 H   0  0  0  0  0  0  0  0  0  0  0  0
   22.0790   10.3280   28.2320 H   0  0  0  0  0  0  0  0  0  0  0  0
  1  2  1  0  0  0  0
  2  3  2  0  0  0  0
  2  7  1  0  0  0  0
  3  4  1  0  0  0  0
  4  5  2  0  0  0  0
  5  6  1  0  0  0  0
  5 26  1  0  0  0  0
  6 27  1  0  0  0  0
  7  6  2  0  0  0  0
  8 23  1  6  0  0  0
  8  4  1  0  0  0  0
  8  9  1  0  0  0  0
  9 19  1  0  0  0  0
  9 10  2  0  0  0  0
 10 17  1  0  0  0  0
 11 10  1  0  0  0  0
 11 29  1  0  0  0  0
 12 11  1  0  0  0  0
 13  8  1  0  0  0  0
 13 12  2  0  0  0  0
 14 13  1  0  0  0  0
 15 14  3  0  0  0  0
 16 12  1  0  0  0  0
 16 30  1  0  0  0  0
 17 21  1  0  0  0  0
 18 17  1  0  0  0  0
 19 18  1  0  0  0  0
 20 19  2  0  0  0  0
 21 34  1  0  0  0  0
 21 33  1  0  0  0  0
 21 32  1  0  0  0  0
 22 17  1  0  0  0  0
 22 37  1  0  0  0  0
 22 36  1  0  0  0  0
 24 23  2  0  0  0  0
 25 23  1  0  0  0  0
 25  3  1  0  0  0  0
 28  7  1  0  0  0  0
 31 16  1  0  0  0  0
 35 22  1  0  0  0  0
 38 25  1  0  0  0  0
M  END
>  <Pose>
1

>  <Score>
-5.18

$$$$
