
 OpenBabel03202209553D

 36 39  0  0  1  0  0  0  0  0999 V2000
   23.3800   17.2750   26.5750 Cl  0  0  0  0  0  0  0  0  0  0  0  0
   23.8080   15.9030   27.5810 C   0  0  0  0  0  0  0  0  0  0  0  0
   22.9730   15.4890   28.5990 C   0  0  0  0  0  0  0  0  0  0  0  0
   23.3200   14.4050   29.3890 C   0  0  0  0  0  0  0  0  0  0  0  0
   24.4860   13.6930   29.2100 C   0  0  0  0  0  0  0  0  0  0  0  0
   25.3190   14.1160   28.1840 C   0  0  0  0  0  0  0  0  0  0  0  0
   24.9780   15.1970   27.3930 C   0  0  0  0  0  0  0  0  0  0  0  0
   24.8520   12.5730   30.0190 N   0  0  0  0  0  0  0  0  0  0  0  0
   24.7060   12.4220   31.4390 C   0  0  0  0  0  0  0  0  0  0  0  0
   24.2550   13.2840   32.2340 O   0  0  0  0  0  0  0  0  0  0  0  0
   25.1710   11.0790   31.8530 C   0  0  1  0  0  0  0  0  0  0  0  0
   24.2380   10.4070   32.6340 O   0  0  0  0  0  0  0  0  0  0  0  0
   23.1840   10.1450   31.8790 N   0  0  1  0  0  0  0  0  0  0  0  0
   23.5260   10.1060   30.5260 C   0  0  1  0  0  0  0  0  0  0  0  0
   25.0410   10.3160   30.5400 C   0  0  1  0  0  0  0  0  0  0  0  0
   25.4480   11.3580   29.5670 C   0  0  0  0  0  0  0  0  0  0  0  0
   26.1700   11.2590   28.5300 O   0  0  0  0  0  0  0  0  0  0  0  0
   23.1160    8.9550   29.7100 C   0  0  0  0  0  0  0  0  0  0  0  0
   22.2910    7.9080   30.3480 C   0  0  0  0  0  0  0  0  0  0  0  0
   21.3850    8.5570   31.3710 C   0  0  0  0  0  0  0  0  0  0  0  0
   22.2870    9.1960   32.3950 C   0  0  0  0  0  0  0  0  0  0  0  0
   22.0310   16.0230   28.7840 H   0  0  0  0  0  0  0  0  0  0  0  0
   22.6710   14.0770   30.1860 H   0  0  0  0  0  0  0  0  0  0  0  0
   26.2400   13.5590   28.0370 H   0  0  0  0  0  0  0  0  0  0  0  0
   25.6230   15.5260   26.5970 H   0  0  0  0  0  0  0  0  0  0  0  0
   26.1780   11.0550   32.2600 H   0  0  0  0  0  0  0  0  0  0  0  0
   23.1150   11.0440   30.0430 H   0  0  0  0  0  0  0  0  0  0  0  0
   25.6150    9.4030   30.5020 H   0  0  0  0  0  0  0  0  0  0  0  0
   24.0510    8.4520   29.3210 H   0  0  0  0  0  0  0  0  0  0  0  0
   22.5910    9.2730   28.7590 H   0  0  0  0  0  0  0  0  0  0  0  0
   21.6230    7.4230   29.5960 H   0  0  0  0  0  0  0  0  0  0  0  0
   22.8620    7.1180   30.8770 H   0  0  0  0  0  0  0  0  0  0  0  0
   20.8210    7.7470   31.8730 H   0  0  0  0  0  0  0  0  0  0  0  0
   20.6700    9.2540   30.9260 H   0  0  0  0  0  0  0  0  0  0  0  0
   22.7890    8.3720   32.9610 H   0  0  0  0  0  0  0  0  0  0  0  0
   21.6120    9.6960   33.1470 H   0  0  0  0  0  0  0  0  0  0  0  0
  1  2  1  0  0  0  0
  2  3  1  0  0  0  0
  3 22  1  0  0  0  0
  3  4  2  0  0  0  0
  4 23  1  0  0  0  0
  5  4  1  0  0  0  0
  5  8  1  0  0  0  0
  6  5  2  0  0  0  0
  7  2  2  0  0  0  0
  7  6  1  0  0  0  0
  8  9  1  0  0  0  0
  9 11  1  0  0  0  0
  9 10  2  0  0  0  0
 11 26  1  1  0  0  0
 11 12  1  0  0  0  0
 13 21  1  0  0  0  0
 13 12  1  1  0  0  0
 14 27  1  6  0  0  0
 14 15  1  0  0  0  0
 14 13  1  0  0  0  0
 15 28  1  6  0  0  0
 15 11  1  0  0  0  0
 16  8  1  0  0  0  0
 16 15  1  0  0  0  0
 17 16  2  0  0  0  0
 18 19  1  0  0  0  0
 18 14  1  0  0  0  0
 19 32  1  0  0  0  0
 19 20  1  0  0  0  0
 20 33  1  0  0  0  0
 20 21  1  0  0  0  0
 21 35  1  0  0  0  0
 21 36  1  0  0  0  0
 24  6  1  0  0  0  0
 25  7  1  0  0  0  0
 29 18  1  0  0  0  0
 30 18  1  0  0  0  0
 31 19  1  0  0  0  0
 34 20  1  0  0  0  0
M  END
>  <Pose>
1

>  <Score>
-4.43

$$$$
