
 OpenBabel03202209553D

 41 45  0  0  1  0  0  0  0  0999 V2000
   24.0080    4.2340   30.8790 Cl  0  0  0  0  0  0  0  0  0  0  0  0
   23.7190    5.9700   30.7340 C   0  0  0  0  0  0  0  0  0  0  0  0
   24.7450    6.8530   30.5000 C   0  0  0  0  0  0  0  0  0  0  0  0
   24.4820    8.2070   30.3880 C   0  0  0  0  0  0  0  0  0  0  0  0
   23.2160    8.7300   30.5010 C   0  0  0  0  0  0  0  0  0  0  0  0
   22.1820    7.8430   30.7350 C   0  0  0  0  0  0  0  0  0  0  0  0
   22.4450    6.4790   30.8480 C   0  0  0  0  0  0  0  0  0  0  0  0
   22.9310   10.1270   30.3850 N   0  0  0  0  0  0  0  0  0  0  0  0
   22.0490   10.9380   31.1460 C   0  0  0  0  0  0  0  0  0  0  0  0
   21.4220   10.5650   32.1720 O   0  0  0  0  0  0  0  0  0  0  0  0
   21.9610   12.3150   30.5560 C   0  0  1  0  0  0  0  0  0  0  0  0
   22.3340   13.3550   31.5590 C   0  0  2  0  0  0  0  0  0  0  0  0
   23.3020   14.1540   30.9010 O   0  0  0  0  0  0  0  0  0  0  0  0
   24.1590   13.0870   30.5300 C   0  0  2  0  0  0  0  0  0  0  0  0
   23.1870   12.3300   29.6310 C   0  0  1  0  0  0  0  0  0  0  0  0
   23.5560   10.9410   29.4010 C   0  0  0  0  0  0  0  0  0  0  0  0
   24.3090   10.5520   28.4720 O   0  0  0  0  0  0  0  0  0  0  0  0
   24.3420   12.4220   31.8410 C   0  0  0  0  0  0  0  0  0  0  0  0
   23.2320   12.6930   32.5580 C   0  0  0  0  0  0  0  0  0  0  0  0
   25.4000   13.5130   29.8630 C   0  0  0  0  0  0  0  0  0  0  0  0
   21.2420   14.1370   32.1510 C   0  0  0  0  0  0  0  0  0  0  0  0
   21.7970   15.1480   32.9390 O   0  0  0  0  0  0  0  0  0  0  0  0
   22.0210   16.2400   32.1390 C   0  0  0  0  0  0  0  0  0  0  0  0
   20.9840   16.0800   31.0590 C   0  0  0  0  0  0  0  0  0  0  0  0
   20.5280   14.7830   31.1410 O   0  0  0  0  0  0  0  0  0  0  0  0
   25.7430    6.4800   30.4070 H   0  0  0  0  0  0  0  0  0  0  0  0
   25.2830    8.9310   30.2000 H   0  0  0  0  0  0  0  0  0  0  0  0
   21.1670    8.2120   30.8320 H   0  0  0  0  0  0  0  0  0  0  0  0
   21.6490    5.7770   31.0280 H   0  0  0  0  0  0  0  0  0  0  0  0
   21.0300   12.4880   30.0180 H   0  0  0  0  0  0  0  0  0  0  0  0
   23.0150   12.9280   28.7380 H   0  0  0  0  0  0  0  0  0  0  0  0
   25.1540   11.8250   32.2360 H   0  0  0  0  0  0  0  0  0  0  0  0
   23.0130   12.4930   33.5930 H   0  0  0  0  0  0  0  0  0  0  0  0
   25.3720   13.4640   28.7490 H   0  0  0  0  0  0  0  0  0  0  0  0
   26.2890   12.8970   30.1780 H   0  0  0  0  0  0  0  0  0  0  0  0
   25.7050   14.5660   30.1000 H   0  0  0  0  0  0  0  0  0  0  0  0
   20.5480   13.5040   32.7030 H   0  0  0  0  0  0  0  0  0  0  0  0
   21.8330   17.1550   32.7720 H   0  0  0  0  0  0  0  0  0  0  0  0
   23.0460   16.3440   31.7620 H   0  0  0  0  0  0  0  0  0  0  0  0
   21.4970   16.3050   30.0890 H   0  0  0  0  0  0  0  0  0  0  0  0
   20.1840   16.8360   31.2720 H   0  0  0  0  0  0  0  0  0  0  0  0
  2  7  1  0  0  0  0
  2  1  1  0  0  0  0
  3  2  2  0  0  0  0
  4  3  1  0  0  0  0
  4  5  2  0  0  0  0
  5  6  1  0  0  0  0
  6 28  1  0  0  0  0
  6  7  2  0  0  0  0
  7 29  1  0  0  0  0
  8  5  1  0  0  0  0
  8  9  1  0  0  0  0
  9 10  2  0  0  0  0
 11 30  1  6  0  0  0
 11  9  1  0  0  0  0
 11 12  1  0  0  0  0
 12 21  1  1  0  0  0
 12 19  1  0  0  0  0
 13 12  1  0  0  0  0
 14 20  1  6  0  0  0
 14 13  1  0  0  0  0
 14 18  1  0  0  0  0
 15 31  1  6  0  0  0
 15 14  1  0  0  0  0
 15 11  1  0  0  0  0
 16 15  1  0  0  0  0
 16  8  1  0  0  0  0
 17 16  2  0  0  0  0
 18 32  1  0  0  0  0
 18 19  2  0  0  0  0
 19 33  1  0  0  0  0
 20 36  1  0  0  0  0
 20 35  1  0  0  0  0
 21 37  1  0  0  0  0
 21 22  1  0  0  0  0
 23 38  1  0  0  0  0
 23 22  1  0  0  0  0
 24 25  1  0  0  0  0
 24 41  1  0  0  0  0
 24 23  1  0  0  0  0
 25 21  1  0  0  0  0
 26  3  1  0  0  0  0
 27  4  1  0  0  0  0
 34 20  1  0  0  0  0
 39 23  1  0  0  0  0
 40 24  1  0  0  0  0
M  END
>  <Pose>
1

>  <Score>
-4.61

$$$$
