
 OpenBabel03202209553D

 53 57  0  0  1  0  0  0  0  0999 V2000
   20.5090   15.7660   29.3810 Cl  0  0  0  0  0  0  0  0  0  0  0  0
   20.7890   14.6810   30.7270 C   0  0  0  0  0  0  0  0  0  0  0  0
   21.3110   13.4140   30.5670 C   0  0  0  0  0  0  0  0  0  0  0  0
   21.5200   12.5780   31.6580 C   0  0  0  0  0  0  0  0  0  0  0  0
   21.1830   13.0760   32.8870 C   0  0  0  0  0  0  0  0  0  0  0  0
   20.6630   14.3360   33.0660 C   0  0  0  0  0  0  0  0  0  0  0  0
   20.4600   15.1520   31.9940 C   0  0  0  0  0  0  0  0  0  0  0  0
   22.0780   11.3140   31.1630 C   0  0  2  0  0  0  0  0  0  0  0  0
   21.2560   10.1690   31.5090 N   0  0  0  0  0  0  0  0  0  0  0  0
   22.1720    9.0530   31.2630 C   0  0  1  0  0  0  0  0  0  0  0  0
   23.5250    9.5160   31.6520 C   0  0  2  0  0  0  0  0  0  0  0  0
   23.3780   10.9910   31.8520 C   0  0  1  0  0  0  0  0  0  0  0  0
   24.5320   11.6610   31.2470 C   0  0  0  0  0  0  0  0  0  0  0  0
   24.8420   12.8580   31.4660 O   0  0  0  0  0  0  0  0  0  0  0  0
   25.1730   10.7020   30.4150 N   0  0  0  0  0  0  0  0  0  0  0  0
   24.4930    9.4570   30.4960 C   0  0  0  0  0  0  0  0  0  0  0  0
   24.6230    8.4350   29.7670 O   0  0  0  0  0  0  0  0  0  0  0  0
   26.3560   10.9720   29.6010 C   0  0  0  0  0  0  0  0  0  0  0  0
   26.0130   12.1010   28.6390 C   0  0  0  0  0  0  0  0  0  0  0  0
   25.6540   11.6000   27.3980 O   0  0  0  0  0  0  0  0  0  0  0  0
   26.7750   11.5120   26.5950 C   0  0  0  0  0  0  0  0  0  0  0  0
   21.7650    7.8360   32.0380 C   0  0  0  0  0  0  0  0  0  0  0  0
   20.3640    7.8350   32.4880 C   0  0  0  0  0  0  0  0  0  0  0  0
   19.8060    9.0560   32.8630 C   0  0  0  0  0  0  0  0  0  0  0  0
   18.4970    9.0920   33.2680 C   0  0  0  0  0  0  0  0  0  0  0  0
   17.7010    7.9730   33.3210 C   0  0  0  0  0  0  0  0  0  0  0  0
   18.2880    6.7860   32.9420 C   0  0  0  0  0  0  0  0  0  0  0  0
   19.6000    6.6930   32.5270 C   0  0  0  0  0  0  0  0  0  0  0  0
   22.1860   11.4460   29.7010 C   0  0  0  0  0  0  0  0  0  0  0  0
   22.6040   10.6210   28.8760 O   0  0  0  0  0  0  0  0  0  0  0  0
   21.7080   12.7440   29.3800 N   0  0  0  0  0  0  0  0  0  0  0  0
   21.3490   12.4150   33.7550 H   0  0  0  0  0  0  0  0  0  0  0  0
   20.4200   14.6690   34.0490 H   0  0  0  0  0  0  0  0  0  0  0  0
   20.0530   16.1440   32.1120 H   0  0  0  0  0  0  0  0  0  0  0  0
   20.4010   10.0980   30.8920 H   0  0  0  0  0  0  0  0  0  0  0  0
   22.1050    8.7620   30.1800 H   0  0  0  0  0  0  0  0  0  0  0  0
   23.9790    9.0220   32.5320 H   0  0  0  0  0  0  0  0  0  0  0  0
   23.2300   11.2670   32.9220 H   0  0  0  0  0  0  0  0  0  0  0  0
   26.6160   10.0980   28.9980 H   0  0  0  0  0  0  0  0  0  0  0  0
   27.2250   11.2450   30.2250 H   0  0  0  0  0  0  0  0  0  0  0  0
   25.2030   12.6970   29.1090 H   0  0  0  0  0  0  0  0  0  0  0  0
   26.9000   12.7490   28.4820 H   0  0  0  0  0  0  0  0  0  0  0  0
   27.5370   10.8440   27.0320 H   0  0  0  0  0  0  0  0  0  0  0  0
   27.2630   12.4910   26.4100 H   0  0  0  0  0  0  0  0  0  0  0  0
   26.4490   11.1310   25.6010 H   0  0  0  0  0  0  0  0  0  0  0  0
   22.0340    6.9170   31.4740 H   0  0  0  0  0  0  0  0  0  0  0  0
   22.4220    7.8220   32.9570 H   0  0  0  0  0  0  0  0  0  0  0  0
   20.4280    9.9630   32.8270 H   0  0  0  0  0  0  0  0  0  0  0  0
   18.0670   10.0400   33.5580 H   0  0  0  0  0  0  0  0  0  0  0  0
   16.6670    7.9850   33.6370 H   0  0  0  0  0  0  0  0  0  0  0  0
   17.7100    5.8720   32.9620 H   0  0  0  0  0  0  0  0  0  0  0  0
   20.0100    5.7160   32.2210 H   0  0  0  0  0  0  0  0  0  0  0  0
   21.6460   13.1730   28.4170 H   0  0  0  0  0  0  0  0  0  0  0  0
  1  2  1  0  0  0  0
  2  7  1  0  0  0  0
  3  2  2  0  0  0  0
  3  4  1  0  0  0  0
  4  5  2  0  0  0  0
  5  6  1  0  0  0  0
  5 32  1  0  0  0  0
  6 33  1  0  0  0  0
  7 34  1  0  0  0  0
  7  6  2  0  0  0  0
  8 29  1  6  0  0  0
  8  9  1  0  0  0  0
  8  4  1  0  0  0  0
  8 12  1  0  0  0  0
 10 36  1  6  0  0  0
 10  9  1  0  0  0  0
 10 11  1  0  0  0  0
 10 22  1  0  0  0  0
 11 12  1  0  0  0  0
 11 37  1  1  0  0  0
 12 38  1  1  0  0  0
 13 14  2  0  0  0  0
 13 12  1  0  0  0  0
 15 16  1  0  0  0  0
 15 13  1  0  0  0  0
 16 11  1  0  0  0  0
 17 16  2  0  0  0  0
 18 40  1  0  0  0  0
 18 15  1  0  0  0  0
 19 41  1  0  0  0  0
 19 18  1  0  0  0  0
 20 19  1  0  0  0  0
 21 43  1  0  0  0  0
 21 20  1  0  0  0  0
 22 23  1  0  0  0  0
 22 47  1  0  0  0  0
 23 28  2  0  0  0  0
 23 24  1  0  0  0  0
 24 25  2  0  0  0  0
 25 26  1  0  0  0  0
 25 49  1  0  0  0  0
 26 50  1  0  0  0  0
 27 51  1  0  0  0  0
 27 26  2  0  0  0  0
 28 27  1  0  0  0  0
 30 29  2  0  0  0  0
 31 29  1  0  0  0  0
 31  3  1  0  0  0  0
 35  9  1  0  0  0  0
 39 18  1  0  0  0  0
 42 19  1  0  0  0  0
 44 21  1  0  0  0  0
 45 21  1  0  0  0  0
 46 22  1  0  0  0  0
 48 24  1  0  0  0  0
 52 28  1  0  0  0  0
 53 31  1  0  0  0  0
M  END
>  <Pose>
1

>  <Score>
-5.46

$$$$
