
 OpenBabel03202209553D

 42 45  0  0  0  0  0  0  0  0999 V2000
   21.6070   16.1330   31.1810 Cl  0  0  0  0  0  0  0  0  0  0  0  0
   22.1180   14.5810   30.5490 C   0  0  0  0  0  0  0  0  0  0  0  0
   21.5260   13.4250   31.0140 C   0  0  0  0  0  0  0  0  0  0  0  0
   21.9730   12.2240   30.4740 C   0  0  0  0  0  0  0  0  0  0  0  0
   22.9550   12.1390   29.5200 C   0  0  0  0  0  0  0  0  0  0  0  0
   23.5300   13.3010   29.0700 C   0  0  0  0  0  0  0  0  0  0  0  0
   23.1020   14.4990   29.5910 C   0  0  0  0  0  0  0  0  0  0  0  0
   23.3770   10.8410   28.9950 C   0  0  0  0  0  0  0  0  0  0  0  0
   24.2410   10.0830   29.8140 N   0  0  0  0  0  0  0  0  0  0  0  0
   24.5560   10.5890   31.0910 C   0  0  0  0  0  0  0  0  0  0  0  0
   23.6880   10.1240   32.2290 C   0  0  0  0  0  0  0  0  0  0  0  0
   23.0810    8.8430   31.7820 N   0  0  0  0  0  0  0  0  0  0  0  0
   23.9630    8.0200   31.0450 C   0  0  0  0  0  0  0  0  0  0  0  0
   24.1490    8.6560   29.6840 C   0  0  0  0  0  0  0  0  0  0  0  0
   21.7460    8.6080   32.1730 C   0  0  0  0  0  0  0  0  0  0  0  0
   20.9810    9.6600   32.5950 N   0  0  0  0  0  0  0  0  0  0  0  0
   19.7270    9.5690   33.0210 C   0  0  0  0  0  0  0  0  0  0  0  0
   19.1460    8.3590   33.0470 N   0  0  0  0  0  0  0  0  0  0  0  0
   19.8530    7.2800   32.6400 C   0  0  0  0  0  0  0  0  0  0  0  0
   19.5370    5.9750   32.5460 N   0  0  0  0  0  0  0  0  0  0  0  0
   20.5860    5.3030   32.0710 C   0  0  0  0  0  0  0  0  0  0  0  0
   21.6070    6.1480   31.8430 N   0  0  0  0  0  0  0  0  0  0  0  0
   21.1720    7.3690   32.1910 C   0  0  0  0  0  0  0  0  0  0  0  0
   18.9760   10.7230   33.4530 N   0  0  0  0  0  0  0  0  0  0  0  0
   20.7460   13.4550   31.7690 H   0  0  0  0  0  0  0  0  0  0  0  0
   21.4700   11.3450   30.8800 H   0  0  0  0  0  0  0  0  0  0  0  0
   24.3250   13.2890   28.3020 H   0  0  0  0  0  0  0  0  0  0  0  0
   23.5630   15.4280   29.2300 H   0  0  0  0  0  0  0  0  0  0  0  0
   22.5110   10.1970   28.7030 H   0  0  0  0  0  0  0  0  0  0  0  0
   23.9090   11.0400   28.0190 H   0  0  0  0  0  0  0  0  0  0  0  0
   24.5430   11.6760   31.0760 H   0  0  0  0  0  0  0  0  0  0  0  0
   25.6180   10.2930   31.3290 H   0  0  0  0  0  0  0  0  0  0  0  0
   22.9320   10.8360   32.5550 H   0  0  0  0  0  0  0  0  0  0  0  0
   24.3070    9.8440   33.1070 H   0  0  0  0  0  0  0  0  0  0  0  0
   24.9920    8.1380   31.5480 H   0  0  0  0  0  0  0  0  0  0  0  0
   23.8120    6.9520   31.0420 H   0  0  0  0  0  0  0  0  0  0  0  0
   23.3640    8.3990   28.9540 H   0  0  0  0  0  0  0  0  0  0  0  0
   25.1200    8.2860   29.2820 H   0  0  0  0  0  0  0  0  0  0  0  0
   20.5840    4.2210   31.9020 H   0  0  0  0  0  0  0  0  0  0  0  0
   22.5320    5.8570   31.4610 H   0  0  0  0  0  0  0  0  0  0  0  0
   19.0390   11.0880   34.4130 H   0  0  0  0  0  0  0  0  0  0  0  0
   18.3490   11.2100   32.7820 H   0  0  0  0  0  0  0  0  0  0  0  0
  2  3  1  0  0  0  0
  2  1  1  0  0  0  0
  3 25  1  0  0  0  0
  4 26  1  0  0  0  0
  4  3  2  0  0  0  0
  5  4  1  0  0  0  0
  6  5  2  0  0  0  0
  6  7  1  0  0  0  0
  7  2  2  0  0  0  0
  8  5  1  0  0  0  0
  8  9  1  0  0  0  0
  9 10  1  0  0  0  0
 10 32  1  0  0  0  0
 10 11  1  0  0  0  0
 11 33  1  0  0  0  0
 11 34  1  0  0  0  0
 12 15  1  0  0  0  0
 12 11  1  0  0  0  0
 13 35  1  0  0  0  0
 13 12  1  0  0  0  0
 14  9  1  0  0  0  0
 14 13  1  0  0  0  0
 15 23  2  0  0  0  0
 15 16  1  0  0  0  0
 16 17  2  0  0  0  0
 17 18  1  0  0  0  0
 17 24  1  0  0  0  0
 19 18  2  0  0  0  0
 20 19  1  0  0  0  0
 21 20  2  0  0  0  0
 22 21  1  0  0  0  0
 22 23  1  0  0  0  0
 23 19  1  0  0  0  0
 24 41  1  0  0  0  0
 27  6  1  0  0  0  0
 28  7  1  0  0  0  0
 29  8  1  0  0  0  0
 30  8  1  0  0  0  0
 31 10  1  0  0  0  0
 36 13  1  0  0  0  0
 37 14  1  0  0  0  0
 38 14  1  0  0  0  0
 39 21  1  0  0  0  0
 40 22  1  0  0  0  0
 42 24  1  0  0  0  0
M  END
>  <Pose>
1

>  <Score>
-6.80

$$$$
