
 OpenBabel03202209553D

 54 57  0  0  0  0  0  0  0  0999 V2000
   28.3530    6.1370   24.8550 B   0  0  0  0  0  0  0  0  0  0  0  0
   28.2050    7.6530   26.0010 C   0  0  0  0  0  0  0  0  0  0  0  0
   27.6800    7.5360   27.2690 C   0  0  0  0  0  0  0  0  0  0  0  0
   27.5740    8.6280   28.0960 C   0  0  0  0  0  0  0  0  0  0  0  0
   28.0080    9.8470   27.6200 C   0  0  0  0  0  0  0  0  0  0  0  0
   28.5410    9.9800   26.3350 C   0  0  0  0  0  0  0  0  0  0  0  0
   28.6460    8.8740   25.5070 C   0  0  0  0  0  0  0  0  0  0  0  0
   27.8880   10.9350   28.4770 O   0  0  0  0  0  0  0  0  0  0  0  0
   26.6970   11.6650   28.6550 C   0  0  0  0  0  0  0  0  0  0  0  0
   27.0210    8.5170   29.4410 C   0  0  0  0  0  0  0  0  0  0  0  0
   25.7900    8.7330   29.7120 N   0  0  0  0  0  0  0  0  0  0  0  0
   25.2440    8.6310   30.9930 N   0  0  0  0  0  0  0  0  0  0  0  0
   24.0000    9.2220   31.3480 C   0  0  0  0  0  0  0  0  0  0  0  0
   22.9960    8.5330   31.9340 N   0  0  0  0  0  4  0  0  0  0  0  0
   21.8370    9.1190   32.2550 C   0  0  0  0  0  0  0  0  0  0  0  0
   21.6830   10.4240   31.9820 N   0  0  0  0  0  0  0  0  0  0  0  0
   22.6490   11.1780   31.3940 C   0  0  0  0  0  0  0  0  0  0  0  0
   23.8010   10.5160   31.0960 N   0  0  0  0  0  0  0  0  0  0  0  0
   22.4820   12.5450   31.1100 N   0  0  0  0  0  0  0  0  0  0  0  0
   23.3980   13.5280   31.6070 C   0  0  0  0  0  0  0  0  0  0  0  0
   22.5690   14.5860   32.3310 C   0  0  0  0  0  0  0  0  0  0  0  0
   21.6350   15.0580   31.4260 O   0  0  0  0  0  0  0  0  0  0  0  0
   20.6960   14.1150   31.0810 C   0  0  0  0  0  0  0  0  0  0  0  0
   21.3730   12.9810   30.3120 C   0  0  0  0  0  0  0  0  0  0  0  0
   20.7820    8.3950   32.8720 N   0  0  0  0  0  0  0  0  0  0  0  0
   20.6910    6.9530   32.8090 C   0  0  0  0  0  0  0  0  0  0  0  0
   19.2590    6.5020   32.5590 C   0  0  0  0  0  0  0  0  0  0  0  0
   18.3730    7.2080   33.3790 O   0  0  0  0  0  0  0  0  0  0  0  0
   18.4110    8.5580   33.1260 C   0  0  0  0  0  0  0  0  0  0  0  0
   19.7450    9.0930   33.5990 C   0  0  0  0  0  0  0  0  0  0  0  0
   27.3310    6.5740   27.6630 H   0  0  0  0  0  0  0  0  0  0  0  0
   28.8790   10.9550   25.9770 H   0  0  0  0  0  0  0  0  0  0  0  0
   29.0620    9.0000   24.5210 H   0  0  0  0  0  0  0  0  0  0  0  0
   26.7120   12.4980   27.9070 H   0  0  0  0  0  0  0  0  0  0  0  0
   25.7880   11.0460   28.5930 H   0  0  0  0  0  0  0  0  0  0  0  0
   26.7240   12.1480   29.6570 H   0  0  0  0  0  0  0  0  0  0  0  0
   27.6670    8.2390   30.2610 H   0  0  0  0  0  0  0  0  0  0  0  0
   25.8080    8.0850   31.7000 H   0  0  0  0  0  0  0  0  0  0  0  0
   24.1570   13.0760   32.2970 H   0  0  0  0  0  0  0  0  0  0  0  0
   23.8950   14.0360   30.7480 H   0  0  0  0  0  0  0  0  0  0  0  0
   23.2730   15.4090   32.5670 H   0  0  0  0  0  0  0  0  0  0  0  0
   22.1320   14.1870   33.2500 H   0  0  0  0  0  0  0  0  0  0  0  0
   20.2270   13.6410   31.9760 H   0  0  0  0  0  0  0  0  0  0  0  0
   19.9420   14.5770   30.4350 H   0  0  0  0  0  0  0  0  0  0  0  0
   20.6560   12.1720   30.0840 H   0  0  0  0  0  0  0  0  0  0  0  0
   21.7660   13.4530   29.3800 H   0  0  0  0  0  0  0  0  0  0  0  0
   20.9350    6.5860   33.8470 H   0  0  0  0  0  0  0  0  0  0  0  0
   21.3460    6.5110   32.0530 H   0  0  0  0  0  0  0  0  0  0  0  0
   19.0480    6.6360   31.4900 H   0  0  0  0  0  0  0  0  0  0  0  0
   19.1870    5.4360   32.8930 H   0  0  0  0  0  0  0  0  0  0  0  0
   18.2640    8.7160   32.0380 H   0  0  0  0  0  0  0  0  0  0  0  0
   17.5690    9.0330   33.6400 H   0  0  0  0  0  0  0  0  0  0  0  0
   19.8410    8.8440   34.6600 H   0  0  0  0  0  0  0  0  0  0  0  0
   19.8270   10.1840   33.4660 H   0  0  0  0  0  0  0  0  0  0  0  0
  1  2  1  0  0  0  0
  2  3  1  0  0  0  0
  3 31  1  0  0  0  0
  3  4  2  0  0  0  0
  4 10  1  0  0  0  0
  5  4  1  0  0  0  0
  5  8  1  0  0  0  0
  6  5  2  0  0  0  0
  7  2  2  0  0  0  0
  7  6  1  0  0  0  0
  8  9  1  0  0  0  0
  9 36  1  0  0  0  0
 10 11  2  0  0  0  0
 10 37  1  0  0  0  0
 11 12  1  0  0  0  0
 12 13  1  0  0  0  0
 12 38  1  0  0  0  0
 13 14  2  0  0  0  0
 14 15  2  0  0  0  0
 15 25  1  0  0  0  0
 16 15  1  0  0  0  0
 17 16  2  0  0  0  0
 18 13  1  0  0  0  0
 18 17  1  0  0  0  0
 19 17  1  0  0  0  0
 19 20  1  0  0  0  0
 20 39  1  0  0  0  0
 20 21  1  0  0  0  0
 21 41  1  0  0  0  0
 21 42  1  0  0  0  0
 22 21  1  0  0  0  0
 23 22  1  0  0  0  0
 23 43  1  0  0  0  0
 24 23  1  0  0  0  0
 24 19  1  0  0  0  0
 25 30  1  0  0  0  0
 26 25  1  0  0  0  0
 26 47  1  0  0  0  0
 27 26  1  0  0  0  0
 27 50  1  0  0  0  0
 27 28  1  0  0  0  0
 29 28  1  0  0  0  0
 29 30  1  0  0  0  0
 29 52  1  0  0  0  0
 30 53  1  0  0  0  0
 32  6  1  0  0  0  0
 33  7  1  0  0  0  0
 34  9  1  0  0  0  0
 35  9  1  0  0  0  0
 40 20  1  0  0  0  0
 44 23  1  0  0  0  0
 45 24  1  0  0  0  0
 46 24  1  0  0  0  0
 48 26  1  0  0  0  0
 49 27  1  0  0  0  0
 51 29  1  0  0  0  0
 54 30  1  0  0  0  0
M  END
>  <Pose>
1

>  <Score>
-7.55

$$$$
