
 OpenBabel03202209553D

 48 52  0  0  1  0  0  0  0  0999 V2000
   31.2350    6.9400   27.3120 Cl  0  0  0  0  0  0  0  0  0  0  0  0
   29.7510    7.6480   27.9590 C   0  0  0  0  0  0  0  0  0  0  0  0
   29.6490    9.0160   28.0820 C   0  0  0  0  0  0  0  0  0  0  0  0
   28.5090    9.5980   28.5810 C   0  0  0  0  0  0  0  0  0  0  0  0
   27.4290    8.8340   28.9740 C   0  0  0  0  0  0  0  0  0  0  0  0
   27.5490    7.4670   28.8440 C   0  0  0  0  0  0  0  0  0  0  0  0
   28.6850    6.8690   28.3470 C   0  0  0  0  0  0  0  0  0  0  0  0
   26.2790    9.4930   29.4810 N   0  0  0  0  0  0  0  0  0  0  0  0
   26.1590   10.9060   29.6150 C   0  0  0  0  0  0  0  0  0  0  0  0
   25.0800   11.4850   30.0880 C   0  0  0  0  0  0  0  0  0  0  0  0
   23.9120   10.8030   30.5240 N   0  0  0  0  0  0  0  0  0  0  0  0
   23.2440    9.9370   29.5810 C   0  0  0  0  0  0  0  0  0  0  0  0
   23.0500    8.5930   30.2330 C   0  0  0  0  0  0  0  0  0  0  0  0
   22.5660    8.6810   31.5970 N   0  0  2  0  0  0  0  0  0  0  0  0
   23.2290    9.5860   32.5150 C   0  0  0  0  0  0  0  0  0  0  0  0
   23.3520   10.9330   31.8500 C   0  0  0  0  0  0  0  0  0  0  0  0
   21.4560    7.8840   32.0130 C   0  0  2  0  0  0  0  0  0  0  0  0
   21.5120    6.5490   31.8340 N   0  0  0  0  0  0  0  0  0  0  0  0
   20.4760    5.7510   32.2170 C   0  0  0  0  0  0  0  0  0  0  0  0
   19.3690    6.2810   32.7830 N   0  0  0  0  0  0  0  0  0  0  0  0
   19.2550    7.5980   32.9860 C   0  0  0  0  0  0  0  0  0  0  0  0
   18.2910    8.3720   33.5160 N   0  0  0  0  0  0  0  0  0  0  0  0
   18.7160    9.6220   33.4650 N   0  0  0  0  0  0  0  0  0  0  0  0
   19.9570    9.6710   32.9040 C   0  0  0  0  0  0  0  0  0  0  0  0
   20.3260    8.4010   32.5890 C   0  0  0  0  0  0  0  0  0  0  0  0
   16.9980    7.9410   34.0570 C   0  0  0  0  0  0  0  0  0  0  0  0
   27.2640   11.7000   29.2120 N   0  0  0  0  0  0  0  0  0  0  0  0
   28.4150   11.0670   28.7050 C   0  0  0  0  0  0  0  0  0  0  0  0
   29.4440   11.7140   28.3250 O   0  0  0  0  0  0  0  0  0  0  0  0
   30.4970    9.6290   27.7720 H   0  0  0  0  0  0  0  0  0  0  0  0
   26.7190    6.8490   29.1460 H   0  0  0  0  0  0  0  0  0  0  0  0
   28.7780    5.8030   28.2450 H   0  0  0  0  0  0  0  0  0  0  0  0
   25.4590    8.9240   29.7810 H   0  0  0  0  0  0  0  0  0  0  0  0
   25.0540   12.5700   30.1630 H   0  0  0  0  0  0  0  0  0  0  0  0
   22.2370   10.3110   29.3030 H   0  0  0  0  0  0  0  0  0  0  0  0
   23.8560    9.7720   28.6710 H   0  0  0  0  0  0  0  0  0  0  0  0
   22.2560    8.0770   29.6130 H   0  0  0  0  0  0  0  0  0  0  0  0
   23.9330    7.9230   30.1320 H   0  0  0  0  0  0  0  0  0  0  0  0
   22.5520    9.7030   33.4120 H   0  0  0  0  0  0  0  0  0  0  0  0
   24.2310    9.2420   32.8250 H   0  0  0  0  0  0  0  0  0  0  0  0
   23.9000   11.6650   32.4700 H   0  0  0  0  0  0  0  0  0  0  0  0
   22.2960   11.3080   31.7180 H   0  0  0  0  0  0  0  0  0  0  0  0
   20.5660    4.6800   32.0520 H   0  0  0  0  0  0  0  0  0  0  0  0
   20.5610   10.5500   32.7280 H   0  0  0  0  0  0  0  0  0  0  0  0
   16.7140    8.5620   34.9350 H   0  0  0  0  0  0  0  0  0  0  0  0
   17.0920    6.8960   34.4460 H   0  0  0  0  0  0  0  0  0  0  0  0
   16.1990    8.0440   33.3000 H   0  0  0  0  0  0  0  0  0  0  0  0
   27.2520   12.7430   29.2780 H   0  0  0  0  0  0  0  0  0  0  0  0
  1  2  1  0  0  0  0
  2  3  2  0  0  0  0
  2  7  1  0  0  0  0
  3  4  1  0  0  0  0
  4 28  1  0  0  0  0
  4  5  2  0  0  0  0
  5  8  1  0  0  0  0
  6  5  1  0  0  0  0
  6 31  1  0  0  0  0
  7  6  2  0  0  0  0
  8  9  1  0  0  0  0
  8 33  1  0  0  0  0
  9 10  2  0  0  0  0
 10 34  1  0  0  0  0
 10 11  1  0  0  0  0
 11 16  1  0  0  0  0
 12 13  1  0  0  0  0
 12 11  1  0  0  0  0
 14 13  1  1  0  0  0
 14 17  1  0  0  0  0
 14 15  1  0  0  0  0
 15 40  1  0  0  0  0
 15 39  1  0  0  0  0
 16 41  1  0  0  0  0
 16 15  1  0  0  0  0
 17 18  1  6  0  0  0
 17 25  1  0  0  0  0
 18 19  2  0  0  0  0
 19 20  1  0  0  0  0
 20 21  1  0  0  0  0
 21 22  1  0  0  0  0
 22 26  1  0  0  0  0
 23 22  1  0  0  0  0
 24 23  2  0  0  0  0
 25 24  1  0  0  0  0
 25 21  2  0  0  0  0
 26 46  1  0  0  0  0
 26 45  1  0  0  0  0
 27 48  1  0  0  0  0
 27  9  1  0  0  0  0
 28 27  1  0  0  0  0
 29 28  2  0  0  0  0
 30  3  1  0  0  0  0
 32  7  1  0  0  0  0
 35 12  1  0  0  0  0
 36 12  1  0  0  0  0
 37 13  1  0  0  0  0
 38 13  1  0  0  0  0
 42 16  1  0  0  0  0
 43 19  1  0  0  0  0
 44 24  1  0  0  0  0
 47 26  1  0  0  0  0
M  END
>  <Pose>
1

>  <Score>
-7.31

$$$$
