
 OpenBabel03202209553D

 49 52  0  0  0  0  0  0  0  0999 V2000
   20.3170   13.3430   32.3400 Cl  0  0  0  0  0  0  0  0  0  0  0  0
   21.2660   14.3340   31.2270 C   0  0  0  0  0  0  0  0  0  0  0  0
   22.2490   13.8350   30.4140 C   0  0  0  0  0  0  0  0  0  0  0  0
   22.9080   14.6330   29.5460 C   0  0  0  0  0  0  0  0  0  0  0  0
   22.6160   15.9650   29.4490 C   0  0  0  0  0  0  0  0  0  0  0  0
   21.6030   16.4860   30.2890 C   0  0  0  0  0  0  0  0  0  0  0  0
   20.9310   15.6920   31.1760 C   0  0  0  0  0  0  0  0  0  0  0  0
   19.9420   16.2470   32.0180 O   0  0  0  0  0  0  0  0  0  0  0  0
   23.2130   16.7600   28.6060 O   0  0  0  0  0  0  0  0  0  0  0  0
   24.1490   16.2850   27.7920 C   0  0  0  0  0  0  0  0  0  0  0  0
   24.7010   17.0580   26.9990 O   0  0  0  0  0  0  0  0  0  0  0  0
   24.5080   14.9230   27.8270 C   0  0  0  0  0  0  0  0  0  0  0  0
   23.9100   14.0730   28.6910 C   0  0  0  0  0  0  0  0  0  0  0  0
   24.1810   12.6560   28.9840 C   0  0  0  0  0  0  0  0  0  0  0  0
   25.2550   12.2450   29.7780 N   0  0  0  0  0  4  0  0  0  0  0  0
   26.1680   11.2600   29.4510 C   0  0  0  0  0  0  0  0  0  0  0  0
   26.5000   10.3800   30.7050 C   0  0  0  0  0  0  0  0  0  0  0  0
   25.1540    9.6370   30.8030 N   0  0  0  0  0  0  0  0  0  0  0  0
   24.1300   10.4810   31.1830 C   0  0  0  0  0  0  0  0  0  0  0  0
   24.7010   11.9150   31.1240 C   0  0  0  0  0  0  0  0  0  0  0  0
   25.2560    8.2830   30.4160 C   0  0  0  0  0  0  0  0  0  0  0  0
   24.3160    7.3260   30.5750 C   0  0  0  0  0  0  0  0  0  0  0  0
   24.4160    6.0600   29.9300 C   0  0  0  0  0  0  0  0  0  0  0  0
   25.4740    5.7530   29.1170 C   0  0  0  0  0  0  0  0  0  0  0  0
   26.4520    6.7280   28.9530 C   0  0  0  0  0  0  0  0  0  0  0  0
   26.3470    7.9560   29.5890 C   0  0  0  0  0  0  0  0  0  0  0  0
   25.5280    4.5030   28.5110 O   0  0  0  0  0  0  0  0  0  0  0  0
   26.2550    4.3070   27.2890 C   0  0  0  0  0  0  0  0  0  0  0  0
   22.4510   12.8020   30.5010 H   0  0  0  0  0  0  0  0  0  0  0  0
   21.3610   17.5400   30.2290 H   0  0  0  0  0  0  0  0  0  0  0  0
   25.3080   14.6140   27.1780 H   0  0  0  0  0  0  0  0  0  0  0  0
   23.6790   11.8910   28.3830 H   0  0  0  0  0  0  0  0  0  0  0  0
   23.3240   12.5670   29.8920 H   0  0  0  0  0  0  0  0  0  0  0  0
   25.8100   13.1340   29.9990 H   0  0  0  0  0  0  0  0  0  0  0  0
   25.8460   10.4490   28.7350 H   0  0  0  0  0  0  0  0  0  0  0  0
   27.1710   11.5620   29.0640 H   0  0  0  0  0  0  0  0  0  0  0  0
   26.6950   10.8310   31.5950 H   0  0  0  0  0  0  0  0  0  0  0  0
   27.2330    9.6740   30.3080 H   0  0  0  0  0  0  0  0  0  0  0  0
   23.2820   10.3990   30.4530 H   0  0  0  0  0  0  0  0  0  0  0  0
   23.6760   10.3710   32.2020 H   0  0  0  0  0  0  0  0  0  0  0  0
   25.4790   12.0220   31.8440 H   0  0  0  0  0  0  0  0  0  0  0  0
   23.9290   12.6720   31.3820 H   0  0  0  0  0  0  0  0  0  0  0  0
   23.4670    7.5500   31.2320 H   0  0  0  0  0  0  0  0  0  0  0  0
   23.6280    5.3590   30.0940 H   0  0  0  0  0  0  0  0  0  0  0  0
   27.3070    6.5280   28.3140 H   0  0  0  0  0  0  0  0  0  0  0  0
   27.1330    8.6590   29.4670 H   0  0  0  0  0  0  0  0  0  0  0  0
   25.4890    4.1350   26.4540 H   0  0  0  0  0  0  0  0  0  0  0  0
   27.0060    3.5230   27.3280 H   0  0  0  0  0  0  0  0  0  0  0  0
   26.7680    5.2260   26.9370 H   0  0  0  0  0  0  0  0  0  0  0  0
  2  1  1  0  0  0  0
  3 29  1  0  0  0  0
  3  2  2  0  0  0  0
  4  3  1  0  0  0  0
  5  4  2  0  0  0  0
  5  6  1  0  0  0  0
  6  7  2  0  0  0  0
  7  2  1  0  0  0  0
  7  8  1  0  0  0  0
  9  5  1  0  0  0  0
 10 12  1  0  0  0  0
 10  9  1  0  0  0  0
 11 10  2  0  0  0  0
 12 13  2  0  0  0  0
 13 14  1  0  0  0  0
 13  4  1  0  0  0  0
 14 15  1  0  0  0  0
 14 33  1  0  0  0  0
 15 34  1  0  0  0  0
 15 20  1  0  0  0  0
 16 15  1  0  0  0  0
 16 17  1  0  0  0  0
 17 18  1  0  0  0  0
 17 37  1  0  0  0  0
 18 19  1  0  0  0  0
 19 40  1  0  0  0  0
 20 19  1  0  0  0  0
 20 42  1  0  0  0  0
 20 41  1  0  0  0  0
 21 22  1  0  0  0  0
 21 18  1  0  0  0  0
 22 43  1  0  0  0  0
 23 44  1  0  0  0  0
 23 22  2  0  0  0  0
 24 23  1  0  0  0  0
 25 24  2  0  0  0  0
 25 26  1  0  0  0  0
 26 21  2  0  0  0  0
 27 24  1  0  0  0  0
 28 48  1  0  0  0  0
 28 27  1  0  0  0  0
 30  6  1  0  0  0  0
 31 12  1  0  0  0  0
 32 14  1  0  0  0  0
 35 16  1  0  0  0  0
 36 16  1  0  0  0  0
 38 17  1  0  0  0  0
 39 19  1  0  0  0  0
 45 25  1  0  0  0  0
 46 26  1  0  0  0  0
 47 28  1  0  0  0  0
 49 28  1  0  0  0  0
M  END
>  <Pose>
1

>  <Score>
-6.62

$$$$
