
 OpenBabel03202209553D

 47 50  0  0  1  0  0  0  0  0999 V2000
   26.3620   11.2450   28.9590 S   0  0  0  0  0  0  0  0  0  0  0  0
   26.2600    9.8250   28.5250 O   0  0  0  0  0  0  0  0  0  0  0  0
   27.6150   11.4610   29.7830 O   0  0  0  0  0  0  0  0  0  0  0  0
   25.0340   11.7630   29.8760 N   0  0  0  0  0  0  0  0  0  0  0  0
   24.8900   11.1220   31.1040 C   0  0  0  0  0  0  0  0  0  0  0  0
   23.6310   11.1900   31.8480 C   0  0  1  0  0  0  0  0  0  0  0  0
   22.7500   12.2970   31.3300 C   0  0  0  0  0  0  0  0  0  0  0  0
   22.6020   12.1360   29.8590 C   0  0  0  0  0  0  0  0  0  0  0  0
   23.9410   12.2810   29.1950 C   0  0  0  0  0  0  0  0  0  0  0  0
   22.8410    9.9290   31.8730 C   0  0  0  0  0  0  0  0  0  0  0  0
   23.1760    8.8410   31.1820 N   0  0  0  0  0  0  0  0  0  0  0  0
   22.4360    7.7190   31.2210 C   0  0  0  0  0  0  0  0  0  0  0  0
   22.5450    6.4980   30.6300 N   0  0  0  0  0  0  0  0  0  0  0  0
   21.5160    5.7900   31.0450 N   0  0  0  0  0  0  0  0  0  0  0  0
   20.7520    6.4850   31.8660 N   0  0  0  0  0  0  0  0  0  0  0  0
   21.2910    7.7010   32.0070 C   0  0  0  0  0  0  0  0  0  0  0  0
   20.9310    8.8250   32.7300 C   0  0  0  0  0  0  0  0  0  0  0  0
   21.7350    9.8910   32.6240 N   0  0  0  0  0  0  0  0  0  0  0  0
   19.7900    8.8270   33.5210 O   0  0  0  0  0  0  0  0  0  0  0  0
   23.5800    6.0790   29.7360 C   0  0  0  0  0  0  0  0  0  0  0  0
   24.4090    4.9690   30.2660 C   0  0  0  0  0  0  0  0  0  0  0  0
   25.5170    4.5830   29.5550 C   0  0  0  0  0  0  0  0  0  0  0  0
   26.3500    3.5510   29.9800 C   0  0  0  0  0  0  0  0  0  0  0  0
   26.0710    2.8810   31.1520 C   0  0  0  0  0  0  0  0  0  0  0  0
   24.9610    3.2630   31.8720 C   0  0  0  0  0  0  0  0  0  0  0  0
   24.1350    4.2970   31.4360 C   0  0  0  0  0  0  0  0  0  0  0  0
   25.9290    5.3930   28.0570 Cl  0  0  0  0  0  0  0  0  0  0  0  0
   26.5750   12.2720   27.4970 C   0  0  0  0  0  0  0  0  0  0  0  0
   25.7460   11.4470   31.7700 H   0  0  0  0  0  0  0  0  0  0  0  0
   25.1200   10.0240   30.9380 H   0  0  0  0  0  0  0  0  0  0  0  0
   23.8560   11.4890   32.9250 H   0  0  0  0  0  0  0  0  0  0  0  0
   21.7820   12.3020   31.8740 H   0  0  0  0  0  0  0  0  0  0  0  0
   23.2260   13.2910   31.5100 H   0  0  0  0  0  0  0  0  0  0  0  0
   21.9640   13.0110   29.5150 H   0  0  0  0  0  0  0  0  0  0  0  0
   22.0630   11.2540   29.5120 H   0  0  0  0  0  0  0  0  0  0  0  0
   23.8350   11.8690   28.1580 H   0  0  0  0  0  0  0  0  0  0  0  0
   24.1100   13.3850   29.0370 H   0  0  0  0  0  0  0  0  0  0  0  0
   19.8430    9.1190   34.4850 H   0  0  0  0  0  0  0  0  0  0  0  0
   24.2860    6.8970   29.4670 H   0  0  0  0  0  0  0  0  0  0  0  0
   23.0920    5.6740   28.8040 H   0  0  0  0  0  0  0  0  0  0  0  0
   27.2260    3.2360   29.4300 H   0  0  0  0  0  0  0  0  0  0  0  0
   26.7230    2.0650   31.4940 H   0  0  0  0  0  0  0  0  0  0  0  0
   24.7380    2.7290   32.8060 H   0  0  0  0  0  0  0  0  0  0  0  0
   23.2680    4.5830   32.0150 H   0  0  0  0  0  0  0  0  0  0  0  0
   25.7620   12.1030   26.7780 H   0  0  0  0  0  0  0  0  0  0  0  0
   26.6260   13.3170   27.8650 H   0  0  0  0  0  0  0  0  0  0  0  0
   27.5160   11.9260   27.0240 H   0  0  0  0  0  0  0  0  0  0  0  0
  1  3  2  0  0  0  0
  1  4  1  0  0  0  0
  2  1  2  0  0  0  0
  4  5  1  0  0  0  0
  5 29  1  0  0  0  0
  5  6  1  0  0  0  0
  6 10  1  0  0  0  0
  6 31  1  1  0  0  0
  7 33  1  0  0  0  0
  7  6  1  0  0  0  0
  7 32  1  0  0  0  0
  8  7  1  0  0  0  0
  9  8  1  0  0  0  0
  9  4  1  0  0  0  0
 10 18  1  0  0  0  0
 11 12  1  0  0  0  0
 11 10  2  0  0  0  0
 12 16  2  0  0  0  0
 13 14  1  0  0  0  0
 13 12  1  0  0  0  0
 14 15  2  0  0  0  0
 15 16  1  0  0  0  0
 16 17  1  0  0  0  0
 17 19  1  0  0  0  0
 18 17  2  0  0  0  0
 19 38  1  0  0  0  0
 20 21  1  0  0  0  0
 20 13  1  0  0  0  0
 21 26  1  0  0  0  0
 22 23  1  0  0  0  0
 22 21  2  0  0  0  0
 23 24  2  0  0  0  0
 24 42  1  0  0  0  0
 24 25  1  0  0  0  0
 25 43  1  0  0  0  0
 26 25  2  0  0  0  0
 26 44  1  0  0  0  0
 27 22  1  0  0  0  0
 28 46  1  0  0  0  0
 28  1  1  0  0  0  0
 30  5  1  0  0  0  0
 34  8  1  0  0  0  0
 35  8  1  0  0  0  0
 36  9  1  0  0  0  0
 37  9  1  0  0  0  0
 39 20  1  0  0  0  0
 40 20  1  0  0  0  0
 41 23  1  0  0  0  0
 45 28  1  0  0  0  0
 47 28  1  0  0  0  0
M  END
>  <Pose>
1

>  <Score>
-6.48

$$$$
