
 OpenBabel03202209553D

 54 57  0  0  1  0  0  0  0  0999 V2000
   24.7330    9.9660   30.5030 S   0  0  0  0  0  0  0  0  0  0  0  0
   25.9220   10.9060   30.2650 O   0  0  0  0  0  0  0  0  0  0  0  0
   24.5820    9.9410   32.0050 O   0  0  0  0  0  0  0  0  0  0  0  0
   23.4050   10.6250   29.7050 N   0  0  0  0  0  0  0  0  0  0  0  0
   23.4540   12.1010   29.6950 C   0  0  0  0  0  0  0  0  0  0  0  0
   23.3030   12.5550   31.1000 C   0  0  2  0  0  0  0  0  0  0  0  0
   22.3220   12.0250   31.8520 O   0  0  0  0  0  0  0  0  0  0  0  0
   21.7180   10.8880   31.4750 C   0  0  0  0  0  0  0  0  0  0  0  0
   22.0980   10.3140   30.1540 C   0  0  0  0  0  0  0  0  0  0  0  0
   23.1420   14.0380   31.0640 C   0  0  0  0  0  0  0  0  0  0  0  0
   23.4290   14.6720   32.1150 O   0  0  0  0  0  0  0  0  0  0  0  0
   22.6960   14.7720   29.9500 N   0  0  0  0  0  0  0  0  0  0  0  0
   23.2230   14.6190   28.6070 C   0  0  0  0  0  0  0  0  0  0  0  0
   22.3910   15.4990   27.6950 C   0  0  0  0  0  0  0  0  0  0  0  0
   22.4670   16.9040   28.0520 N   0  0  0  0  0  0  0  0  0  0  0  0
   22.2330   17.0520   29.4530 C   0  0  0  0  0  0  0  0  0  0  0  0
   21.6320   15.7810   30.0670 C   0  0  0  0  0  0  0  0  0  0  0  0
   23.7140   17.4180   27.5840 C   0  0  0  0  0  0  0  0  0  0  0  0
   23.6100   18.1850   26.2940 C   0  0  0  0  0  0  0  0  0  0  0  0
   23.9720   19.6620   26.4430 C   0  0  0  0  0  0  0  0  0  0  0  0
   22.5940   19.2150   26.0670 C   0  0  0  0  0  0  0  0  0  0  0  0
   25.2290    8.4230   29.8850 C   0  0  0  0  0  0  0  0  0  0  0  0
   24.4500    7.2960   30.0310 C   0  0  0  0  0  0  0  0  0  0  0  0
   24.8640    6.0520   29.5930 C   0  0  0  0  0  0  0  0  0  0  0  0
   26.0890    5.9210   28.9890 C   0  0  0  0  0  0  0  0  0  0  0  0
   26.8860    7.0450   28.8310 C   0  0  0  0  0  0  0  0  0  0  0  0
   26.4720    8.2720   29.2670 C   0  0  0  0  0  0  0  0  0  0  0  0
   22.8200    7.4070   30.7210 Cl  0  0  0  0  0  0  0  0  0  0  0  0
   22.6060   12.4410   29.1030 H   0  0  0  0  0  0  0  0  0  0  0  0
   24.3900   12.4780   29.2850 H   0  0  0  0  0  0  0  0  0  0  0  0
   24.2720   12.3990   31.6720 H   0  0  0  0  0  0  0  0  0  0  0  0
   20.6010   11.0750   31.4580 H   0  0  0  0  0  0  0  0  0  0  0  0
   21.8480   10.1130   32.2530 H   0  0  0  0  0  0  0  0  0  0  0  0
   21.8760    9.2550   30.0420 H   0  0  0  0  0  0  0  0  0  0  0  0
   21.4050   10.8020   29.3750 H   0  0  0  0  0  0  0  0  0  0  0  0
   24.2870   14.8630   28.5770 H   0  0  0  0  0  0  0  0  0  0  0  0
   23.0690   13.5830   28.2390 H   0  0  0  0  0  0  0  0  0  0  0  0
   22.7910   15.3680   26.6470 H   0  0  0  0  0  0  0  0  0  0  0  0
   21.3740   15.1020   27.6790 H   0  0  0  0  0  0  0  0  0  0  0  0
   21.4970   17.8460   29.6240 H   0  0  0  0  0  0  0  0  0  0  0  0
   23.1880   17.2170   29.9940 H   0  0  0  0  0  0  0  0  0  0  0  0
   21.5220   15.9960   31.1490 H   0  0  0  0  0  0  0  0  0  0  0  0
   20.7110   15.4750   29.5720 H   0  0  0  0  0  0  0  0  0  0  0  0
   24.2080   17.9930   28.3860 H   0  0  0  0  0  0  0  0  0  0  0  0
   24.3800   16.5390   27.3880 H   0  0  0  0  0  0  0  0  0  0  0  0
   24.0560   17.6930   25.4060 H   0  0  0  0  0  0  0  0  0  0  0  0
   24.1400   20.0700   27.4540 H   0  0  0  0  0  0  0  0  0  0  0  0
   24.6070   20.1290   25.6700 H   0  0  0  0  0  0  0  0  0  0  0  0
   22.2990   19.4420   25.0300 H   0  0  0  0  0  0  0  0  0  0  0  0
   21.8140   19.4710   26.8090 H   0  0  0  0  0  0  0  0  0  0  0  0
   24.2540    5.1650   29.7080 H   0  0  0  0  0  0  0  0  0  0  0  0
   26.4010    4.9460   28.6510 H   0  0  0  0  0  0  0  0  0  0  0  0
   27.8390    6.8920   28.3490 H   0  0  0  0  0  0  0  0  0  0  0  0
   27.0840    9.1600   29.1510 H   0  0  0  0  0  0  0  0  0  0  0  0
  1  3  2  0  0  0  0
  2  1  2  0  0  0  0
  4  9  1  0  0  0  0
  4  1  1  0  0  0  0
  5  4  1  0  0  0  0
  5  6  1  0  0  0  0
  6 31  1  1  0  0  0
  6  7  1  0  0  0  0
  8  7  1  0  0  0  0
  8 33  1  0  0  0  0
  9  8  1  0  0  0  0
 10  6  1  0  0  0  0
 10 11  2  0  0  0  0
 12 17  1  0  0  0  0
 12 10  1  0  0  0  0
 13 12  1  0  0  0  0
 14 15  1  0  0  0  0
 14 13  1  0  0  0  0
 15 16  1  0  0  0  0
 16 40  1  0  0  0  0
 16 41  1  0  0  0  0
 16 17  1  0  0  0  0
 17 42  1  0  0  0  0
 18 15  1  0  0  0  0
 18 44  1  0  0  0  0
 19 20  1  0  0  0  0
 19 18  1  0  0  0  0
 20 47  1  0  0  0  0
 21 19  1  0  0  0  0
 21 20  1  0  0  0  0
 21 50  1  0  0  0  0
 22 23  1  0  0  0  0
 22  1  1  0  0  0  0
 23 28  1  0  0  0  0
 24 51  1  0  0  0  0
 24 23  2  0  0  0  0
 25 24  1  0  0  0  0
 26 25  2  0  0  0  0
 26 27  1  0  0  0  0
 27 22  2  0  0  0  0
 29  5  1  0  0  0  0
 30  5  1  0  0  0  0
 32  8  1  0  0  0  0
 34  9  1  0  0  0  0
 35  9  1  0  0  0  0
 36 13  1  0  0  0  0
 37 13  1  0  0  0  0
 38 14  1  0  0  0  0
 39 14  1  0  0  0  0
 43 17  1  0  0  0  0
 45 18  1  0  0  0  0
 46 19  1  0  0  0  0
 48 20  1  0  0  0  0
 49 21  1  0  0  0  0
 52 25  1  0  0  0  0
 53 26  1  0  0  0  0
 54 27  1  0  0  0  0
M  END
>  <Pose>
1

>  <Score>
-4.88

$$$$
