
 OpenBabel03202209553D

 56 59  0  0  0  0  0  0  0  0999 V2000
   25.6150    8.2860   29.4840 B   0  0  0  0  0  0  0  0  0  0  0  0
   24.9190    6.6360   30.1340 C   0  0  0  0  0  0  0  0  0  0  0  0
   23.6270    6.5940   30.6850 C   0  0  0  0  0  0  0  0  0  0  0  0
   23.1550    5.4150   31.1400 C   0  0  0  0  0  0  0  0  0  0  0  0
   23.9010    4.2600   31.0730 C   0  0  0  0  0  0  0  0  0  0  0  0
   25.1870    4.3240   30.5160 C   0  0  0  0  0  0  0  0  0  0  0  0
   25.7050    5.5140   30.0450 C   0  0  0  0  0  0  0  0  0  0  0  0
   23.3780    3.0650   31.5450 O   0  0  0  0  0  0  0  0  0  0  0  0
   23.5900    2.5100   32.7970 C   0  0  0  0  0  0  0  0  0  0  0  0
   21.7680    5.3330   31.6300 C   0  0  0  0  0  0  0  0  0  0  0  0
   21.2430    6.4950   32.0420 C   0  0  0  0  0  0  0  0  0  0  0  0
   21.9280    7.7040   32.0340 O   0  0  0  0  0  0  0  0  0  0  0  0
   21.0700    8.7100   32.5010 C   0  0  0  0  0  0  0  0  0  0  0  0
   19.8390    8.2310   32.8270 C   0  0  0  0  0  0  0  0  0  0  0  0
   18.8360    9.0540   33.2850 C   0  0  0  0  0  0  0  0  0  0  0  0
   19.0690   10.4180   33.4230 C   0  0  0  0  0  0  0  0  0  0  0  0
   20.3350   10.9020   33.0880 C   0  0  0  0  0  0  0  0  0  0  0  0
   21.3230   10.0850   32.6400 C   0  0  0  0  0  0  0  0  0  0  0  0
   22.7320   10.4920   32.4520 C   0  0  0  0  0  0  0  0  0  0  0  0
   22.9050   11.5000   31.5150 N   0  0  0  0  0  4  0  0  0  0  0  0
   21.7990   11.5290   30.5060 C   0  0  0  0  0  0  0  0  0  0  0  0
   21.3760   13.0180   30.4570 C   0  0  0  0  0  0  0  0  0  0  0  0
   22.3900   13.8170   31.0700 N   0  0  0  0  0  0  0  0  0  0  0  0
   23.7120   13.5480   30.6580 C   0  0  0  0  0  0  0  0  0  0  0  0
   24.0440   12.0130   30.9130 C   0  0  0  0  0  0  0  0  0  0  0  0
   22.0300   14.7590   32.0070 C   0  0  0  0  0  0  0  0  0  0  0  0
   21.6450   16.1410   31.5850 C   0  0  0  0  0  0  0  0  0  0  0  0
   22.1960   17.1030   32.4480 O   0  0  0  0  0  0  0  0  0  0  0  0
   20.4890   12.2770   33.2560 O   0  0  0  0  0  0  0  0  0  0  0  0
   19.9130    6.7680   32.5440 C   0  0  0  0  0  0  0  0  0  0  0  0
   19.0100    5.9370   32.7100 O   0  0  0  0  0  0  0  0  0  0  0  0
   23.0950    7.5320   30.6930 H   0  0  0  0  0  0  0  0  0  0  0  0
   25.8070    3.4430   30.4460 H   0  0  0  0  0  0  0  0  0  0  0  0
   26.7270    5.5180   29.6210 H   0  0  0  0  0  0  0  0  0  0  0  0
   23.2990    3.1220   33.6500 H   0  0  0  0  0  0  0  0  0  0  0  0
   22.9980    1.5590   32.8610 H   0  0  0  0  0  0  0  0  0  0  0  0
   24.6740    2.2170   32.9300 H   0  0  0  0  0  0  0  0  0  0  0  0
   21.2170    4.4280   31.6780 H   0  0  0  0  0  0  0  0  0  0  0  0
   17.8660    8.6220   33.5330 H   0  0  0  0  0  0  0  0  0  0  0  0
   18.2690   11.0460   33.7890 H   0  0  0  0  0  0  0  0  0  0  0  0
   23.1240   10.8020   33.4840 H   0  0  0  0  0  0  0  0  0  0  0  0
   23.3400    9.5680   32.2580 H   0  0  0  0  0  0  0  0  0  0  0  0
   22.5200   12.3680   32.1580 H   0  0  0  0  0  0  0  0  0  0  0  0
   20.9730   10.8920   30.8530 H   0  0  0  0  0  0  0  0  0  0  0  0
   22.2310   11.2270   29.5400 H   0  0  0  0  0  0  0  0  0  0  0  0
   21.2210   13.2820   29.4010 H   0  0  0  0  0  0  0  0  0  0  0  0
   20.4430   13.0880   31.0060 H   0  0  0  0  0  0  0  0  0  0  0  0
   23.7560   13.6420   29.5630 H   0  0  0  0  0  0  0  0  0  0  0  0
   24.4490   14.1740   31.1130 H   0  0  0  0  0  0  0  0  0  0  0  0
   24.1700   11.5180   29.8990 H   0  0  0  0  0  0  0  0  0  0  0  0
   25.0100   11.9920   31.4050 H   0  0  0  0  0  0  0  0  0  0  0  0
   21.1180   14.3840   32.6170 H   0  0  0  0  0  0  0  0  0  0  0  0
   22.8110   14.8480   32.8220 H   0  0  0  0  0  0  0  0  0  0  0  0
   20.5820   16.3380   31.4630 H   0  0  0  0  0  0  0  0  0  0  0  0
   22.1100   16.3400   30.5720 H   0  0  0  0  0  0  0  0  0  0  0  0
   21.4410   17.6270   32.8740 H   0  0  0  0  0  0  0  0  0  0  0  0
  1  2  1  0  0  0  0
  2  3  1  0  0  0  0
  3 32  1  0  0  0  0
  3  4  2  0  0  0  0
  4 10  1  0  0  0  0
  5  4  1  0  0  0  0
  5  8  1  0  0  0  0
  6  5  2  0  0  0  0
  7  2  2  0  0  0  0
  7  6  1  0  0  0  0
  8  9  1  0  0  0  0
  9 36  1  0  0  0  0
  9 37  1  0  0  0  0
  9 35  1  0  0  0  0
 10 38  1  0  0  0  0
 10 11  2  0  0  0  0
 11 30  1  0  0  0  0
 12 11  1  0  0  0  0
 12 13  1  0  0  0  0
 13 18  2  0  0  0  0
 13 14  1  0  0  0  0
 14 15  2  0  0  0  0
 15 16  1  0  0  0  0
 15 39  1  0  0  0  0
 16 40  1  0  0  0  0
 17 29  1  0  0  0  0
 17 16  2  0  0  0  0
 18 17  1  0  0  0  0
 19 18  1  0  0  0  0
 19 41  1  0  0  0  0
 20 43  1  0  0  0  0
 20 19  1  0  0  0  0
 21 44  1  0  0  0  0
 21 20  1  0  0  0  0
 22 21  1  0  0  0  0
 22 47  1  0  0  0  0
 22 23  1  0  0  0  0
 23 26  1  0  0  0  0
 24 25  1  0  0  0  0
 24 23  1  0  0  0  0
 24 49  1  0  0  0  0
 25 51  1  0  0  0  0
 25 20  1  0  0  0  0
 26 52  1  0  0  0  0
 26 53  1  0  0  0  0
 27 26  1  0  0  0  0
 27 28  1  0  0  0  0
 28 56  1  0  0  0  0
 30 31  2  0  0  0  0
 30 14  1  0  0  0  0
 33  6  1  0  0  0  0
 34  7  1  0  0  0  0
 42 19  1  0  0  0  0
 45 21  1  0  0  0  0
 46 22  1  0  0  0  0
 48 24  1  0  0  0  0
 50 25  1  0  0  0  0
 54 27  1  0  0  0  0
 55 27  1  0  0  0  0
M  END
>  <Pose>
1

>  <Score>
-7.37

$$$$
