
 OpenBabel03202209553D

 45 49  0  0  0  0  0  0  0  0999 V2000
   22.8850   21.3140   25.2560 Cl  0  0  0  0  0  0  0  0  0  0  0  0
   22.9410   19.8020   26.1090 C   0  0  0  0  0  0  0  0  0  0  0  0
   22.1890   19.6300   27.2440 C   0  0  0  0  0  0  0  0  0  0  0  0
   22.2310   18.4340   27.9240 C   0  0  0  0  0  0  0  0  0  0  0  0
   23.0120   17.3850   27.4990 C   0  0  0  0  0  0  0  0  0  0  0  0
   23.7560   17.5870   26.3570 C   0  0  0  0  0  0  0  0  0  0  0  0
   23.7270   18.7810   25.6610 C   0  0  0  0  0  0  0  0  0  0  0  0
   23.0950   16.1290   28.1560 N   0  0  0  0  0  0  0  0  0  0  0  0
   23.5400   14.9880   27.6600 N   0  0  0  0  0  0  0  0  0  0  0  0
   23.4780   14.0130   28.5450 N   0  0  0  0  0  0  0  0  0  0  0  0
   22.9720   14.4920   29.6950 C   0  0  0  0  0  0  0  0  0  0  0  0
   22.7380   15.8270   29.4300 C   0  0  0  0  0  0  0  0  0  0  0  0
   22.2190   16.5830   30.4240 N   0  0  0  0  0  0  0  0  0  0  0  0
   21.9540   16.0160   31.6150 C   0  0  0  0  0  0  0  0  0  0  0  0
   22.1870   14.7050   31.8690 N   0  0  0  0  0  0  0  0  0  0  0  0
   22.7020   13.9080   30.9160 C   0  0  0  0  0  0  0  0  0  0  0  0
   22.9530   12.5250   31.1650 N   0  0  0  0  0  0  0  0  0  0  0  0
   24.3300   12.1550   31.4350 C   0  0  0  0  0  0  0  0  0  0  0  0
   24.3980   10.8600   32.2420 C   0  0  0  0  0  0  0  0  0  0  0  0
   23.3740    9.9560   31.8590 N   0  0  0  0  0  0  0  0  0  0  0  0
   22.0000   10.4850   32.1220 C   0  0  0  0  0  0  0  0  0  0  0  0
   21.8440   11.6230   31.1310 C   0  0  0  0  0  0  0  0  0  0  0  0
   23.5450    8.7060   31.2890 C   0  0  0  0  0  0  0  0  0  0  0  0
   22.4150    8.1070   30.9510 O   0  0  0  0  0  0  0  0  0  0  0  0
   24.7230    7.9090   30.9820 C   0  0  0  0  0  0  0  0  0  0  0  0
   24.5420    6.5860   30.3420 C   0  0  0  0  0  0  0  0  0  0  0  0
   25.3330    7.6870   29.6750 C   0  0  0  0  0  0  0  0  0  0  0  0
   21.5690   20.4720   27.5770 H   0  0  0  0  0  0  0  0  0  0  0  0
   21.6280   18.3330   28.8120 H   0  0  0  0  0  0  0  0  0  0  0  0
   24.3850   16.7720   25.9960 H   0  0  0  0  0  0  0  0  0  0  0  0
   24.3500   18.8560   24.7620 H   0  0  0  0  0  0  0  0  0  0  0  0
   21.5320   16.6390   32.4150 H   0  0  0  0  0  0  0  0  0  0  0  0
   24.8980   12.0970   30.4910 H   0  0  0  0  0  0  0  0  0  0  0  0
   24.8130   12.9350   32.0560 H   0  0  0  0  0  0  0  0  0  0  0  0
   24.1440   11.1550   33.3210 H   0  0  0  0  0  0  0  0  0  0  0  0
   25.4170   10.5430   32.2820 H   0  0  0  0  0  0  0  0  0  0  0  0
   21.2510    9.7120   31.9650 H   0  0  0  0  0  0  0  0  0  0  0  0
   22.0040   10.9080   33.1270 H   0  0  0  0  0  0  0  0  0  0  0  0
   21.6900   11.1380   30.1340 H   0  0  0  0  0  0  0  0  0  0  0  0
   20.8950   12.1410   31.3820 H   0  0  0  0  0  0  0  0  0  0  0  0
   25.4980    7.9110   31.8440 H   0  0  0  0  0  0  0  0  0  0  0  0
   23.5600    6.2610   29.9680 H   0  0  0  0  0  0  0  0  0  0  0  0
   25.1380    5.7050   30.6980 H   0  0  0  0  0  0  0  0  0  0  0  0
   26.4660    7.5410   29.6590 H   0  0  0  0  0  0  0  0  0  0  0  0
   24.9830    8.0150   28.7070 H   0  0  0  0  0  0  0  0  0  0  0  0
  1  2  1  0  0  0  0
  2  3  1  0  0  0  0
  3 28  1  0  0  0  0
  3  4  2  0  0  0  0
  4 29  1  0  0  0  0
  5  4  1  0  0  0  0
  5  8  1  0  0  0  0
  6  5  2  0  0  0  0
  7  2  2  0  0  0  0
  7  6  1  0  0  0  0
  8 12  1  0  0  0  0
  9  8  1  0  0  0  0
  9 10  2  0  0  0  0
 10 11  1  0  0  0  0
 11 16  1  0  0  0  0
 12 11  2  0  0  0  0
 12 13  1  0  0  0  0
 13 14  2  0  0  0  0
 14 15  1  0  0  0  0
 14 32  1  0  0  0  0
 16 17  1  0  0  0  0
 16 15  2  0  0  0  0
 17 18  1  0  0  0  0
 18 34  1  0  0  0  0
 18 19  1  0  0  0  0
 19 36  1  0  0  0  0
 19 35  1  0  0  0  0
 20 21  1  0  0  0  0
 20 19  1  0  0  0  0
 21 38  1  0  0  0  0
 22 17  1  0  0  0  0
 22 40  1  0  0  0  0
 22 21  1  0  0  0  0
 23 20  1  0  0  0  0
 24 23  2  0  0  0  0
 25 23  1  0  0  0  0
 25 41  1  0  0  0  0
 26 43  1  0  0  0  0
 26 25  1  0  0  0  0
 27 26  1  0  0  0  0
 27 25  1  0  0  0  0
 30  6  1  0  0  0  0
 31  7  1  0  0  0  0
 33 18  1  0  0  0  0
 37 21  1  0  0  0  0
 39 22  1  0  0  0  0
 42 26  1  0  0  0  0
 44 27  1  0  0  0  0
 45 27  1  0  0  0  0
M  END
>  <Pose>
1

>  <Score>
-5.81

$$$$
