
 OpenBabel03202209553D

 45 48  0  0  0  0  0  0  0  0999 V2000
   23.5200   11.8150   31.6150 Cl  0  0  0  0  0  0  0  0  0  0  0  0
   23.0810   10.1200   31.6050 C   0  0  0  0  0  0  0  0  0  0  0  0
   21.8410    9.7660   32.0560 C   0  0  0  0  0  0  0  0  0  0  0  0
   21.4290    8.4640   32.0780 C   0  0  0  0  0  0  0  0  0  0  0  0
   22.2980    7.5040   31.6310 C   0  0  0  0  0  0  0  0  0  0  0  0
   23.5720    7.8740   31.1680 C   0  0  0  0  0  0  0  0  0  0  0  0
   23.9980    9.1720   31.1410 C   0  0  0  0  0  0  0  0  0  0  0  0
   25.2410    9.6320   30.6900 N   0  0  0  0  0  0  0  0  0  0  0  0
   25.4690   10.2510   29.4590 C   0  0  0  0  0  0  0  0  0  0  0  0
   24.5590   10.7080   28.7530 O   0  0  0  0  0  0  0  0  0  0  0  0
   26.8540   10.3930   28.9300 C   0  0  0  0  0  0  0  0  0  0  0  0
   27.3360    9.4450   28.1880 N   0  0  0  0  0  0  0  0  0  0  0  0
   28.6220    9.4990   27.6540 N   0  0  0  0  0  0  0  0  0  0  0  0
   29.4280   10.6240   27.9260 C   0  0  0  0  0  0  0  0  0  0  0  0
   30.5640   10.6700   27.3440 O   0  0  0  0  0  0  0  0  0  0  0  0
   29.0040   11.7080   28.8360 C   0  0  0  0  0  0  0  0  0  0  0  0
   27.6460   11.5330   29.2170 N   0  0  0  0  0  0  0  0  0  0  0  0
   29.1290    8.4180   26.8340 C   0  0  0  0  0  0  0  0  0  0  0  0
   28.5540    8.1000   25.6280 C   0  0  0  0  0  0  0  0  0  0  0  0
   29.0650    7.0540   24.8530 C   0  0  0  0  0  0  0  0  0  0  0  0
   30.1530    6.3210   25.2810 C   0  0  0  0  0  0  0  0  0  0  0  0
   30.7170    6.6510   26.4920 C   0  0  0  0  0  0  0  0  0  0  0  0
   30.2140    7.6730   27.2420 C   0  0  0  0  0  0  0  0  0  0  0  0
   30.7390    5.1980   24.4900 C   0  0  0  0  0  0  0  0  0  0  0  0
   21.9570    6.1540   31.6210 O   0  0  0  0  0  0  0  0  0  0  0  0
   20.5960    5.7070   31.7110 C   0  0  0  0  0  0  0  0  0  0  0  0
   19.7950    6.6820   32.5080 C   0  0  0  0  0  0  0  0  0  0  0  0
   18.8120    6.2560   33.1570 O   0  0  0  0  0  0  0  0  0  0  0  0
   20.1310    8.0660   32.5360 N   0  0  0  0  0  0  0  0  0  0  0  0
   21.1130   10.5060   32.4230 H   0  0  0  0  0  0  0  0  0  0  0  0
   24.2280    7.0850   30.8230 H   0  0  0  0  0  0  0  0  0  0  0  0
   26.0790    9.4970   31.3400 H   0  0  0  0  0  0  0  0  0  0  0  0
   29.6160   11.6330   29.7820 H   0  0  0  0  0  0  0  0  0  0  0  0
   29.2130   12.7040   28.3920 H   0  0  0  0  0  0  0  0  0  0  0  0
   27.1740   12.3030   29.7600 H   0  0  0  0  0  0  0  0  0  0  0  0
   27.7010    8.6730   25.2880 H   0  0  0  0  0  0  0  0  0  0  0  0
   28.6160    6.8120   23.9170 H   0  0  0  0  0  0  0  0  0  0  0  0
   31.5850    6.0620   26.8260 H   0  0  0  0  0  0  0  0  0  0  0  0
   30.6900    7.9030   28.1920 H   0  0  0  0  0  0  0  0  0  0  0  0
   30.9260    4.3050   25.1130 H   0  0  0  0  0  0  0  0  0  0  0  0
   30.1110    4.9100   23.6410 H   0  0  0  0  0  0  0  0  0  0  0  0
   31.7230    5.5350   24.0740 H   0  0  0  0  0  0  0  0  0  0  0  0
   20.2030    5.7450   30.6610 H   0  0  0  0  0  0  0  0  0  0  0  0
   20.5500    4.6900   32.1170 H   0  0  0  0  0  0  0  0  0  0  0  0
   19.4510    8.7720   32.8820 H   0  0  0  0  0  0  0  0  0  0  0  0
  2  1  1  0  0  0  0
  2  3  1  0  0  0  0
  3  4  2  0  0  0  0
  3 30  1  0  0  0  0
  4 29  1  0  0  0  0
  5  4  1  0  0  0  0
  6  5  2  0  0  0  0
  7  6  1  0  0  0  0
  7  2  2  0  0  0  0
  8  7  1  0  0  0  0
  8 32  1  0  0  0  0
  9  8  1  0  0  0  0
 10  9  2  0  0  0  0
 11 17  1  0  0  0  0
 11  9  1  0  0  0  0
 12 11  2  0  0  0  0
 13 14  1  0  0  0  0
 13 12  1  0  0  0  0
 14 16  1  0  0  0  0
 15 14  2  0  0  0  0
 16 17  1  0  0  0  0
 16 33  1  0  0  0  0
 17 35  1  0  0  0  0
 18 23  1  0  0  0  0
 18 13  1  0  0  0  0
 19 18  2  0  0  0  0
 20 21  2  0  0  0  0
 20 19  1  0  0  0  0
 21 22  1  0  0  0  0
 22 38  1  0  0  0  0
 22 23  2  0  0  0  0
 23 39  1  0  0  0  0
 24 40  1  0  0  0  0
 24 21  1  0  0  0  0
 25  5  1  0  0  0  0
 25 26  1  0  0  0  0
 26 44  1  0  0  0  0
 26 27  1  0  0  0  0
 27 29  1  0  0  0  0
 27 28  2  0  0  0  0
 29 45  1  0  0  0  0
 31  6  1  0  0  0  0
 34 16  1  0  0  0  0
 36 19  1  0  0  0  0
 37 20  1  0  0  0  0
 41 24  1  0  0  0  0
 42 24  1  0  0  0  0
 43 26  1  0  0  0  0
M  END
>  <Pose>
1

>  <Score>
-6.67

$$$$
