
 OpenBabel03202209553D

 41 44  0  0  1  0  0  0  0  0999 V2000
   24.2590   10.1250   30.7760 S   0  0  0  0  0  0  0  0  0  0  0  0
   24.2850   10.3660   32.2790 O   0  0  0  0  0  0  0  0  0  0  0  0
   25.6750    9.6620   30.4460 O   0  0  0  0  0  0  0  0  0  0  0  0
   23.2040    8.8910   30.3560 N   0  0  0  0  0  0  0  0  0  0  0  0
   21.9950    8.7820   31.0700 C   0  0  0  0  0  0  0  0  0  0  0  0
   21.2350    7.4990   30.8010 C   0  0  0  0  0  0  0  0  0  0  0  0
   22.2070    6.3880   31.0310 C   0  0  1  0  0  0  0  0  0  0  0  0
   23.4540    6.5310   30.4570 C   0  0  0  0  0  0  0  0  0  0  0  0
   24.3670    5.5750   30.6260 N   0  0  0  0  0  0  0  0  0  0  0  0
   24.0340    4.4930   31.3580 C   0  0  2  0  0  0  0  0  0  0  0  0
   22.8280    4.3300   31.9280 N   0  0  0  0  0  0  0  0  0  0  0  0
   22.7840    3.1610   32.5940 N   0  0  0  0  0  0  0  0  0  0  0  0
   23.9590    2.5240   32.4810 C   0  0  0  0  0  0  0  0  0  0  0  0
   24.7520    3.3420   31.7130 C   0  0  0  0  0  0  0  0  0  0  0  0
   21.8770    5.2790   31.7780 C   0  0  0  0  0  0  0  0  0  0  0  0
   20.7310    5.1840   32.2860 O   0  0  0  0  0  0  0  0  0  0  0  0
   23.6960    7.7660   29.6740 C   0  0  0  0  0  0  0  0  0  0  0  0
   24.0030   11.6510   30.0220 C   0  0  0  0  0  0  0  0  0  0  0  0
   22.8290   12.3680   30.2430 C   0  0  0  0  0  0  0  0  0  0  0  0
   22.6540   13.5850   29.6210 C   0  0  0  0  0  0  0  0  0  0  0  0
   23.5900   14.1180   28.7970 C   0  0  0  0  0  0  0  0  0  0  0  0
   24.7530   13.4400   28.5600 C   0  0  0  0  0  0  0  0  0  0  0  0
   24.9290   12.2210   29.1810 C   0  0  0  0  0  0  0  0  0  0  0  0
   25.9900   14.1110   27.4900 Cl  0  0  0  0  0  0  0  0  0  0  0  0
   21.8300   11.8990   31.0640 O   0  0  0  0  0  0  0  0  0  0  0  0
   21.1040   12.8150   31.8510 C   0  0  0  0  0  0  0  0  0  0  0  0
   21.3360    9.6500   30.8170 H   0  0  0  0  0  0  0  0  0  0  0  0
   22.1970    8.8680   32.1710 H   0  0  0  0  0  0  0  0  0  0  0  0
   20.8700    7.5200   29.7500 H   0  0  0  0  0  0  0  0  0  0  0  0
   20.3950    7.4670   31.5170 H   0  0  0  0  0  0  0  0  0  0  0  0
   21.9420    2.8250   33.1150 H   0  0  0  0  0  0  0  0  0  0  0  0
   24.2590    1.5620   32.8960 H   0  0  0  0  0  0  0  0  0  0  0  0
   25.7920    3.1820   31.3890 H   0  0  0  0  0  0  0  0  0  0  0  0
   23.1010    7.6410   28.7220 H   0  0  0  0  0  0  0  0  0  0  0  0
   24.7320    7.8910   29.3650 H   0  0  0  0  0  0  0  0  0  0  0  0
   21.7380   14.1760   29.7740 H   0  0  0  0  0  0  0  0  0  0  0  0
   23.4450   15.0890   28.3040 H   0  0  0  0  0  0  0  0  0  0  0  0
   25.8840   11.7220   28.9520 H   0  0  0  0  0  0  0  0  0  0  0  0
   21.7790   13.4390   32.4760 H   0  0  0  0  0  0  0  0  0  0  0  0
   20.5100   13.5230   31.2190 H   0  0  0  0  0  0  0  0  0  0  0  0
   20.3460   12.2850   32.4790 H   0  0  0  0  0  0  0  0  0  0  0  0
  1  2  2  0  0  0  0
  3  1  2  0  0  0  0
  4  1  1  0  0  0  0
  4  5  1  0  0  0  0
  5 28  1  0  0  0  0
  6  7  1  0  0  0  0
  6  5  1  0  0  0  0
  6 30  1  0  0  0  0
  7  8  1  1  0  0  0
  7 15  1  0  0  0  0
  8  9  2  0  0  0  0
 10  9  1  1  0  0  0
 10 14  1  0  0  0  0
 10 11  1  0  0  0  0
 11 12  1  0  0  0  0
 12 31  1  0  0  0  0
 13 12  1  0  0  0  0
 13 32  1  0  0  0  0
 14 13  2  0  0  0  0
 15 11  1  0  0  0  0
 15 16  2  0  0  0  0
 17  4  1  0  0  0  0
 17  8  1  0  0  0  0
 18 19  1  0  0  0  0
 18  1  1  0  0  0  0
 19 25  1  0  0  0  0
 20 36  1  0  0  0  0
 20 19  2  0  0  0  0
 21 20  1  0  0  0  0
 22 21  2  0  0  0  0
 22 23  1  0  0  0  0
 23 18  2  0  0  0  0
 24 22  1  0  0  0  0
 25 26  1  0  0  0  0
 26 39  1  0  0  0  0
 26 41  1  0  0  0  0
 27  5  1  0  0  0  0
 29  6  1  0  0  0  0
 33 14  1  0  0  0  0
 34 17  1  0  0  0  0
 35 17  1  0  0  0  0
 37 21  1  0  0  0  0
 38 23  1  0  0  0  0
 40 26  1  0  0  0  0
M  END
>  <Pose>
1

>  <Score>
-6.49

$$$$
