
 OpenBabel03202209553D

 47 50  0  0  1  0  0  0  0  0999 V2000
   23.4690   16.0960   34.4320 Cl  0  0  0  0  0  0  0  0  0  0  0  0
   23.1700   15.1150   33.0190 C   0  0  0  0  0  0  0  0  0  0  0  0
   22.1320   15.3650   32.1310 C   0  0  0  0  0  0  0  0  0  0  0  0
   21.9160   14.5860   31.0330 C   0  0  0  0  0  0  0  0  0  0  0  0
   22.7340   13.5060   30.7640 C   0  0  0  0  0  0  0  0  0  0  0  0
   23.7630   13.2540   31.6370 C   0  0  0  0  0  0  0  0  0  0  0  0
   23.9800   14.0460   32.7510 C   0  0  0  0  0  0  0  0  0  0  0  0
   22.4900   12.7130   29.5760 C   0  0  2  0  0  0  0  0  0  0  0  0
   22.8160   11.3800   29.4590 N   0  0  0  0  0  4  0  0  0  0  0  0
   24.2580   11.3550   29.3320 C   0  0  0  0  0  0  0  0  0  0  0  0
   25.2200   10.6400   29.8170 C   0  0  0  0  0  0  0  0  0  0  0  0
   26.6440   10.8490   29.4990 C   0  0  0  0  0  0  0  0  0  0  0  0
   26.9400   11.9770   28.5750 C   0  0  0  0  0  0  0  0  0  0  0  0
   25.7930   12.3970   27.7200 C   0  0  0  0  0  0  0  0  0  0  0  0
   24.5380   12.4190   28.4390 N   0  0  0  0  0  0  0  0  0  0  0  0
   23.4000   13.3340   28.4780 C   0  0  0  0  0  0  0  0  0  0  0  0
   22.3240   10.3770   30.2810 C   0  0  0  0  0  0  0  0  0  0  0  0
   21.5750   10.5290   31.3980 C   0  0  0  0  0  0  0  0  0  0  0  0
   21.1430    9.4160   32.1160 C   0  0  0  0  0  0  0  0  0  0  0  0
   21.4490    8.1200   31.7360 C   0  0  0  0  0  0  0  0  0  0  0  0
   22.2140    7.9970   30.5950 C   0  0  0  0  0  0  0  0  0  0  0  0
   22.6540    9.0700   29.8670 C   0  0  0  0  0  0  0  0  0  0  0  0
   21.0000    7.0410   32.4790 O   0  0  0  0  0  0  0  0  0  0  0  0
   19.6220    6.8820   32.7000 C   0  0  0  0  0  0  0  0  0  0  0  0
   21.1840   12.9850   29.0800 O   0  0  0  0  0  0  0  0  0  0  0  0
   21.4970   16.2280   32.3690 H   0  0  0  0  0  0  0  0  0  0  0  0
   21.0730   14.8570   30.3880 H   0  0  0  0  0  0  0  0  0  0  0  0
   24.4690   12.4480   31.5170 H   0  0  0  0  0  0  0  0  0  0  0  0
   24.8060   13.8380   33.4460 H   0  0  0  0  0  0  0  0  0  0  0  0
   22.5190   11.0860   28.4570 H   0  0  0  0  0  0  0  0  0  0  0  0
   25.0210    9.8330   30.5130 H   0  0  0  0  0  0  0  0  0  0  0  0
   27.1390    9.8930   29.1940 H   0  0  0  0  0  0  0  0  0  0  0  0
   27.1340   11.0830   30.4930 H   0  0  0  0  0  0  0  0  0  0  0  0
   27.7830   11.6430   27.9040 H   0  0  0  0  0  0  0  0  0  0  0  0
   27.2900   12.8960   29.1240 H   0  0  0  0  0  0  0  0  0  0  0  0
   25.7260   11.7050   26.8310 H   0  0  0  0  0  0  0  0  0  0  0  0
   25.9590   13.4080   27.2990 H   0  0  0  0  0  0  0  0  0  0  0  0
   22.8920   13.2510   27.4970 H   0  0  0  0  0  0  0  0  0  0  0  0
   23.6910   14.3550   28.7330 H   0  0  0  0  0  0  0  0  0  0  0  0
   21.3150   11.5250   31.7160 H   0  0  0  0  0  0  0  0  0  0  0  0
   20.5420    9.6090   33.0050 H   0  0  0  0  0  0  0  0  0  0  0  0
   22.4430    6.9640   30.3100 H   0  0  0  0  0  0  0  0  0  0  0  0
   23.2480    8.8960   28.9600 H   0  0  0  0  0  0  0  0  0  0  0  0
   19.2360    7.6740   33.3720 H   0  0  0  0  0  0  0  0  0  0  0  0
   19.3770    5.8610   33.0640 H   0  0  0  0  0  0  0  0  0  0  0  0
   19.0300    6.9800   31.7450 H   0  0  0  0  0  0  0  0  0  0  0  0
   21.3020   13.1750   28.1140 H   0  0  0  0  0  0  0  0  0  0  0  0
  2  1  1  0  0  0  0
  3 26  1  0  0  0  0
  3  2  2  0  0  0  0
  4  3  1  0  0  0  0
  5  4  2  0  0  0  0
  5  6  1  0  0  0  0
  6  7  2  0  0  0  0
  7  2  1  0  0  0  0
  7 29  1  0  0  0  0
  8 25  1  6  0  0  0
  8  5  1  0  0  0  0
  9  8  1  0  0  0  0
  9 17  1  0  0  0  0
 10  9  1  0  0  0  0
 10 11  2  0  0  0  0
 11 31  1  0  0  0  0
 12 11  1  0  0  0  0
 12 33  1  0  0  0  0
 13 35  1  0  0  0  0
 13 12  1  0  0  0  0
 14 15  1  0  0  0  0
 14 13  1  0  0  0  0
 15 16  1  0  0  0  0
 15 10  1  0  0  0  0
 16 39  1  0  0  0  0
 16  8  1  0  0  0  0
 17 18  1  0  0  0  0
 18 40  1  0  0  0  0
 18 19  2  0  0  0  0
 19 41  1  0  0  0  0
 20 19  1  0  0  0  0
 20 23  1  0  0  0  0
 21 20  2  0  0  0  0
 22 17  2  0  0  0  0
 22 21  1  0  0  0  0
 23 24  1  0  0  0  0
 24 45  1  0  0  0  0
 24 44  1  0  0  0  0
 27  4  1  0  0  0  0
 28  6  1  0  0  0  0
 30  9  1  0  0  0  0
 32 12  1  0  0  0  0
 34 13  1  0  0  0  0
 36 14  1  0  0  0  0
 37 14  1  0  0  0  0
 38 16  1  0  0  0  0
 42 21  1  0  0  0  0
 43 22  1  0  0  0  0
 46 24  1  0  0  0  0
 47 25  1  0  0  0  0
M  END
>  <Pose>
1

>  <Score>
-5.95

$$$$
