
 OpenBabel03202209553D

 38 40  0  0  1  0  0  0  0  0999 V2000
   23.1110   18.6740   27.4210 Cl  0  0  0  0  0  0  0  0  0  0  0  0
   22.9600   17.1870   28.3300 C   0  0  0  0  0  0  0  0  0  0  0  0
   23.4090   15.9990   27.7920 C   0  0  0  0  0  0  0  0  0  0  0  0
   23.2630   14.8690   28.5660 C   0  0  0  0  0  0  0  0  0  0  0  0
   23.6410   13.7250   28.1670 O   0  0  0  0  0  0  0  0  0  0  0  0
   22.7040   14.9570   29.7820 N   0  0  0  0  0  0  0  0  0  0  0  0
   22.2630   16.0690   30.3350 N   0  0  0  0  0  0  0  0  0  0  0  0
   21.6640   16.1190   31.6590 C   0  0  1  0  0  0  0  0  0  0  0  0
   20.2770   15.5130   31.6880 C   0  0  0  0  0  0  0  0  0  0  0  0
   20.3610   14.0000   31.7970 C   0  0  0  0  0  0  0  0  0  0  0  0
   21.0890   13.4030   30.6140 C   0  0  0  0  0  0  0  0  0  0  0  0
   22.5570   13.7360   30.5900 C   0  0  2  0  0  0  0  0  0  0  0  0
   22.9720   14.1030   31.9700 C   0  0  0  0  0  0  0  0  0  0  0  0
   22.5210   15.2240   32.5220 C   0  0  0  0  0  0  0  0  0  0  0  0
   22.3960   17.2050   29.5880 C   0  0  0  0  0  0  0  0  0  0  0  0
   21.9770   18.2980   30.0980 O   0  0  0  0  0  0  0  0  0  0  0  0
   23.9980   15.9040   26.4980 N   0  0  0  0  0  0  0  0  0  0  0  0
   25.1130   16.6930   26.0490 C   0  0  0  0  0  0  0  0  0  0  0  0
   26.2440   15.8270   25.5210 C   0  0  0  0  0  0  0  0  0  0  0  0
   24.7770   17.7010   25.0020 C   0  0  0  0  0  0  0  0  0  0  0  0
   21.6520   17.1280   32.0710 H   0  0  0  0  0  0  0  0  0  0  0  0
   19.6440   15.8370   30.8530 H   0  0  0  0  0  0  0  0  0  0  0  0
   19.7890   15.8690   32.6210 H   0  0  0  0  0  0  0  0  0  0  0  0
   19.3230   13.6150   31.7590 H   0  0  0  0  0  0  0  0  0  0  0  0
   20.8770   13.7410   32.7350 H   0  0  0  0  0  0  0  0  0  0  0  0
   20.5720   13.8160   29.7000 H   0  0  0  0  0  0  0  0  0  0  0  0
   20.8940   12.3130   30.5880 H   0  0  0  0  0  0  0  0  0  0  0  0
   23.1730   12.9160   30.1730 H   0  0  0  0  0  0  0  0  0  0  0  0
   23.6460   13.4590   32.5390 H   0  0  0  0  0  0  0  0  0  0  0  0
   22.7470   15.5020   33.5440 H   0  0  0  0  0  0  0  0  0  0  0  0
   23.5380   15.1840   25.8630 H   0  0  0  0  0  0  0  0  0  0  0  0
   25.5260   17.2360   26.9220 H   0  0  0  0  0  0  0  0  0  0  0  0
   25.9130   15.2400   24.6350 H   0  0  0  0  0  0  0  0  0  0  0  0
   27.0340   16.5160   25.1720 H   0  0  0  0  0  0  0  0  0  0  0  0
   26.6790   15.1790   26.3090 H   0  0  0  0  0  0  0  0  0  0  0  0
   25.7420   18.1580   24.6750 H   0  0  0  0  0  0  0  0  0  0  0  0
   24.1210   18.5270   25.3730 H   0  0  0  0  0  0  0  0  0  0  0  0
   24.3580   17.2160   24.1100 H   0  0  0  0  0  0  0  0  0  0  0  0
  1  2  1  0  0  0  0
  2 15  1  0  0  0  0
  3  2  2  0  0  0  0
  3  4  1  0  0  0  0
  4  6  1  0  0  0  0
  5  4  2  0  0  0  0
  6  7  1  0  0  0  0
  6 12  1  0  0  0  0
  7  8  1  0  0  0  0
  8  9  1  0  0  0  0
  8 21  1  1  0  0  0
  8 14  1  0  0  0  0
  9 10  1  0  0  0  0
  9 23  1  0  0  0  0
 10 25  1  0  0  0  0
 11 10  1  0  0  0  0
 12 28  1  6  0  0  0
 12 11  1  0  0  0  0
 12 13  1  0  0  0  0
 13 14  2  0  0  0  0
 13 29  1  0  0  0  0
 14 30  1  0  0  0  0
 15 16  2  0  0  0  0
 15  7  1  0  0  0  0
 17  3  1  0  0  0  0
 18 17  1  0  0  0  0
 18 32  1  0  0  0  0
 19 18  1  0  0  0  0
 19 35  1  0  0  0  0
 20 37  1  0  0  0  0
 20 18  1  0  0  0  0
 22  9  1  0  0  0  0
 24 10  1  0  0  0  0
 26 11  1  0  0  0  0
 27 11  1  0  0  0  0
 31 17  1  0  0  0  0
 33 19  1  0  0  0  0
 34 19  1  0  0  0  0
 36 20  1  0  0  0  0
 38 20  1  0  0  0  0
M  END
>  <Pose>
1

>  <Score>
-5.09

$$$$
