
 OpenBabel03202209553D

 56 59  0  0  1  0  0  0  0  0999 V2000
   25.8640   10.5510   29.6480 Cl  0  0  0  0  0  0  0  0  0  0  0  0
   24.9200    9.1280   30.0330 C   0  0  0  0  0  0  0  0  0  0  0  0
   23.6400    9.3340   30.5380 C   0  0  0  0  0  0  0  0  0  0  0  0
   22.9240    8.1920   30.8290 C   0  0  0  0  0  0  0  0  0  0  0  0
   23.4630    6.9780   30.6240 N   0  0  0  0  0  0  0  0  0  0  0  0
   24.6750    6.7610   30.1440 N   0  0  0  0  0  0  0  0  0  0  0  0
   25.4090    7.8500   29.8470 C   0  0  0  0  0  0  0  0  0  0  0  0
   26.5710    7.6690   29.3870 O   0  0  0  0  0  0  0  0  0  0  0  0
   25.1840    5.4340   29.9540 C   0  0  0  0  0  0  0  0  0  0  0  0
   25.0020    4.4790   30.9280 C   0  0  0  0  0  0  0  0  0  0  0  0
   25.4950    3.1810   30.7530 C   0  0  0  0  0  0  0  0  0  0  0  0
   26.1720    2.8210   29.6100 C   0  0  0  0  0  0  0  0  0  0  0  0
   26.3580    3.7710   28.6300 C   0  0  0  0  0  0  0  0  0  0  0  0
   25.8650    5.0580   28.8160 C   0  0  0  0  0  0  0  0  0  0  0  0
   23.1150   10.6360   30.7460 N   0  0  0  0  0  0  0  0  0  0  0  0
   21.9780   11.1420   30.0150 C   0  0  0  0  0  0  0  0  0  0  0  0
   22.2490   12.5390   29.5520 C   0  0  0  0  0  0  0  0  0  0  0  0
   23.6530   12.7950   29.7580 N   0  0  0  0  0  0  0  0  0  0  0  0
   23.9010   12.8900   31.1510 C   0  0  0  0  0  0  0  0  0  0  0  0
   23.7460   11.4800   31.7290 C   0  0  0  0  0  0  0  0  0  0  0  0
   24.2510   13.7360   28.8980 C   0  0  0  0  0  0  0  0  0  0  0  0
   23.4160   14.9000   28.5830 C   0  0  0  0  0  0  0  0  0  0  0  0
   22.9480   15.5410   29.5840 O   0  0  0  0  0  0  0  0  0  0  0  0
   23.0900   15.3710   27.2880 N   0  0  0  0  0  0  0  0  0  0  0  0
   23.7010   16.5170   26.6640 C   0  0  0  0  0  0  0  0  0  0  0  0
   22.9820   17.7610   27.0890 C   0  0  1  0  0  0  0  0  0  0  0  0
   23.8850   18.7800   27.2390 O   0  0  0  0  0  0  0  0  0  0  0  0
   23.5600   19.8430   26.4420 C   0  0  0  0  0  0  0  0  0  0  0  0
   22.0560   19.7300   26.3050 C   0  0  0  0  0  0  0  0  0  0  0  0
   21.9730   18.2160   26.0450 C   0  0  0  0  0  0  0  0  0  0  0  0
   21.9190    8.3250   31.2260 H   0  0  0  0  0  0  0  0  0  0  0  0
   24.4640    4.7610   31.8380 H   0  0  0  0  0  0  0  0  0  0  0  0
   25.3550    2.4290   31.5110 H   0  0  0  0  0  0  0  0  0  0  0  0
   26.5710    1.8160   29.4370 H   0  0  0  0  0  0  0  0  0  0  0  0
   26.8930    3.4840   27.7320 H   0  0  0  0  0  0  0  0  0  0  0  0
   26.0060    5.8110   28.0510 H   0  0  0  0  0  0  0  0  0  0  0  0
   21.0260   11.0430   30.5760 H   0  0  0  0  0  0  0  0  0  0  0  0
   21.8060   10.5340   29.0770 H   0  0  0  0  0  0  0  0  0  0  0  0
   21.7060   13.2490   30.2460 H   0  0  0  0  0  0  0  0  0  0  0  0
   21.9950   12.7350   28.5080 H   0  0  0  0  0  0  0  0  0  0  0  0
   24.8560   13.3540   31.4250 H   0  0  0  0  0  0  0  0  0  0  0  0
   23.0860   13.5030   31.6060 H   0  0  0  0  0  0  0  0  0  0  0  0
   23.1850   11.4930   32.6970 H   0  0  0  0  0  0  0  0  0  0  0  0
   24.7920   11.1400   31.9340 H   0  0  0  0  0  0  0  0  0  0  0  0
   24.6170   13.2720   27.9390 H   0  0  0  0  0  0  0  0  0  0  0  0
   25.1840   14.1140   29.4170 H   0  0  0  0  0  0  0  0  0  0  0  0
   22.3680   14.8460   26.7540 H   0  0  0  0  0  0  0  0  0  0  0  0
   23.6590   16.4380   25.5450 H   0  0  0  0  0  0  0  0  0  0  0  0
   24.7580   16.5640   26.9650 H   0  0  0  0  0  0  0  0  0  0  0  0
   22.4170   17.6110   28.0220 H   0  0  0  0  0  0  0  0  0  0  0  0
   23.9860   19.6790   25.4330 H   0  0  0  0  0  0  0  0  0  0  0  0
   23.8700   20.8030   26.8890 H   0  0  0  0  0  0  0  0  0  0  0  0
   21.6370   20.3190   25.4940 H   0  0  0  0  0  0  0  0  0  0  0  0
   21.5960   19.9060   27.2980 H   0  0  0  0  0  0  0  0  0  0  0  0
   22.3810   18.0790   25.0170 H   0  0  0  0  0  0  0  0  0  0  0  0
   20.9690   17.8310   26.1920 H   0  0  0  0  0  0  0  0  0  0  0  0
  1  2  1  0  0  0  0
  2  3  2  0  0  0  0
  3 15  1  0  0  0  0
  3  4  1  0  0  0  0
  4 31  1  0  0  0  0
  5  4  2  0  0  0  0
  6  5  1  0  0  0  0
  7  2  1  0  0  0  0
  7  6  1  0  0  0  0
  8  7  2  0  0  0  0
  9  6  1  0  0  0  0
  9 10  1  0  0  0  0
 10 32  1  0  0  0  0
 11 10  2  0  0  0  0
 11 33  1  0  0  0  0
 12 11  1  0  0  0  0
 13 14  1  0  0  0  0
 13 12  2  0  0  0  0
 14  9  2  0  0  0  0
 15 20  1  0  0  0  0
 16 37  1  0  0  0  0
 16 15  1  0  0  0  0
 17 18  1  0  0  0  0
 17 16  1  0  0  0  0
 17 39  1  0  0  0  0
 18 19  1  0  0  0  0
 19 41  1  0  0  0  0
 19 42  1  0  0  0  0
 19 20  1  0  0  0  0
 20 44  1  0  0  0  0
 20 43  1  0  0  0  0
 21 46  1  0  0  0  0
 21 18  1  0  0  0  0
 22 21  1  0  0  0  0
 22 23  2  0  0  0  0
 24 22  1  0  0  0  0
 25 49  1  0  0  0  0
 25 26  1  0  0  0  0
 25 24  1  0  0  0  0
 26 27  1  0  0  0  0
 26 50  1  1  0  0  0
 28 52  1  0  0  0  0
 28 27  1  0  0  0  0
 29 28  1  0  0  0  0
 29 54  1  0  0  0  0
 30 56  1  0  0  0  0
 30 29  1  0  0  0  0
 30 26  1  0  0  0  0
 34 12  1  0  0  0  0
 35 13  1  0  0  0  0
 36 14  1  0  0  0  0
 38 16  1  0  0  0  0
 40 17  1  0  0  0  0
 45 21  1  0  0  0  0
 47 24  1  0  0  0  0
 48 25  1  0  0  0  0
 51 28  1  0  0  0  0
 53 29  1  0  0  0  0
 55 30  1  0  0  0  0
M  END
>  <Pose>
1

>  <Score>
-6.06

$$$$
