
 OpenBabel03202209553D

 50 54  0  0  0  0  0  0  0  0999 V2000
   29.3130    3.8470   27.6170 S   0  0  0  0  0  0  0  0  0  0  0  0
   29.7450    2.6870   26.7260 O   0  0  0  0  0  0  0  0  0  0  0  0
   30.5300    4.5200   28.1960 O   0  0  0  0  0  0  0  0  0  0  0  0
   28.2890    3.2640   28.7850 N   0  0  0  0  0  0  0  0  0  0  0  0
   27.1530    2.5210   28.4540 C   0  0  0  0  0  0  0  0  0  0  0  0
   26.0740    2.6670   29.5320 C   0  0  0  0  0  0  0  0  0  0  0  0
   25.8760    4.0380   29.7880 N   0  0  0  0  0  0  0  0  0  0  0  0
   27.0360    4.7350   30.1960 C   0  0  0  0  0  0  0  0  0  0  0  0
   28.2510    3.8440   30.0620 C   0  0  0  0  0  0  0  0  0  0  0  0
   24.6680    4.3980   30.4590 C   0  0  0  0  0  0  0  0  0  0  0  0
   24.5410    5.8750   30.4530 C   0  0  0  0  0  0  0  0  0  0  0  0
   25.5320    6.7020   29.9640 C   0  0  0  0  0  0  0  0  0  0  0  0
   25.4600    8.0720   29.9350 C   0  0  0  0  0  0  0  0  0  0  0  0
   26.4420    8.7310   29.4590 O   0  0  0  0  0  0  0  0  0  0  0  0
   24.3450    8.6980   30.4170 N   0  0  0  0  0  0  0  0  0  0  0  0
   24.1540    9.9560   30.4480 N   0  0  0  0  0  0  0  0  0  0  0  0
   23.0650   10.4870   30.9220 C   0  0  0  0  0  0  0  0  0  0  0  0
   22.2160    9.0520   31.3730 S   0  0  0  0  0  0  0  0  0  0  0  0
   23.3890    7.8950   30.8880 C   0  0  0  0  0  0  0  0  0  0  0  0
   23.4630    6.5460   30.9140 N   0  0  0  0  0  0  0  0  0  0  0  0
   22.6320   11.8830   31.0570 C   0  0  0  0  0  0  0  0  0  0  0  0
   21.3900   12.1410   31.5960 C   0  0  0  0  0  0  0  0  0  0  0  0
   20.9230   13.4390   31.7510 C   0  0  0  0  0  0  0  0  0  0  0  0
   21.7110   14.5010   31.3610 C   0  0  0  0  0  0  0  0  0  0  0  0
   22.9630   14.2670   30.8170 C   0  0  0  0  0  0  0  0  0  0  0  0
   23.3820   12.9630   30.6830 C   0  0  0  0  0  0  0  0  0  0  0  0
   21.1410   16.1280   31.5480 Cl  0  0  0  0  0  0  0  0  0  0  0  0
   28.4900    4.9670   26.5540 C   0  0  0  0  0  0  0  0  0  0  0  0
   28.8910    5.3550   25.3110 N   0  0  0  0  0  0  0  0  0  0  0  0
   28.0190    6.2230   24.7960 C   0  0  0  0  0  0  0  0  0  0  0  0
   27.0250    6.4320   25.6700 N   0  0  0  0  0  0  0  0  0  0  0  0
   27.3190    5.6570   26.7500 C   0  0  0  0  0  0  0  0  0  0  0  0
   27.4650    1.4280   28.4080 H   0  0  0  0  0  0  0  0  0  0  0  0
   26.6550    2.7630   27.4870 H   0  0  0  0  0  0  0  0  0  0  0  0
   26.4790    2.1710   30.4380 H   0  0  0  0  0  0  0  0  0  0  0  0
   25.1440    2.1440   29.2190 H   0  0  0  0  0  0  0  0  0  0  0  0
   27.2030    5.5860   29.4970 H   0  0  0  0  0  0  0  0  0  0  0  0
   26.9930    5.0900   31.2580 H   0  0  0  0  0  0  0  0  0  0  0  0
   29.1930    4.4440   30.2430 H   0  0  0  0  0  0  0  0  0  0  0  0
   28.2510    3.0540   30.8440 H   0  0  0  0  0  0  0  0  0  0  0  0
   24.7470    4.0590   31.5120 H   0  0  0  0  0  0  0  0  0  0  0  0
   23.8170    3.9700   29.9230 H   0  0  0  0  0  0  0  0  0  0  0  0
   26.4290    6.1770   29.5770 H   0  0  0  0  0  0  0  0  0  0  0  0
   20.7320   11.3480   31.9190 H   0  0  0  0  0  0  0  0  0  0  0  0
   19.9540   13.6730   32.1700 H   0  0  0  0  0  0  0  0  0  0  0  0
   23.5810   15.1000   30.5110 H   0  0  0  0  0  0  0  0  0  0  0  0
   24.3550   12.7920   30.2600 H   0  0  0  0  0  0  0  0  0  0  0  0
   28.1040    6.6840   23.8210 H   0  0  0  0  0  0  0  0  0  0  0  0
   26.2080    7.0530   25.5460 H   0  0  0  0  0  0  0  0  0  0  0  0
   26.6890    5.6240   27.6180 H   0  0  0  0  0  0  0  0  0  0  0  0
  1  3  2  0  0  0  0
  1  4  1  0  0  0  0
  2  1  2  0  0  0  0
  4  9  1  0  0  0  0
  5  4  1  0  0  0  0
  5  6  1  0  0  0  0
  6  7  1  0  0  0  0
  6 35  1  0  0  0  0
  7  8  1  0  0  0  0
  7 10  1  0  0  0  0
  8 38  1  0  0  0  0
  9  8  1  0  0  0  0
  9 39  1  0  0  0  0
  9 40  1  0  0  0  0
 10 41  1  0  0  0  0
 11 10  1  0  0  0  0
 11 20  1  0  0  0  0
 12 11  2  0  0  0  0
 13 12  1  0  0  0  0
 13 15  1  0  0  0  0
 14 13  2  0  0  0  0
 15 16  1  0  0  0  0
 15 19  1  0  0  0  0
 16 17  2  0  0  0  0
 17 21  1  0  0  0  0
 17 18  1  0  0  0  0
 19 20  2  0  0  0  0
 19 18  1  0  0  0  0
 21 22  1  0  0  0  0
 22 23  2  0  0  0  0
 22 44  1  0  0  0  0
 23 45  1  0  0  0  0
 24 27  1  0  0  0  0
 24 23  1  0  0  0  0
 25 24  2  0  0  0  0
 26 25  1  0  0  0  0
 26 21  2  0  0  0  0
 28 32  2  0  0  0  0
 28  1  1  0  0  0  0
 29 28  1  0  0  0  0
 30 29  2  0  0  0  0
 30 31  1  0  0  0  0
 31 32  1  0  0  0  0
 32 50  1  0  0  0  0
 33  5  1  0  0  0  0
 34  5  1  0  0  0  0
 36  6  1  0  0  0  0
 37  8  1  0  0  0  0
 42 10  1  0  0  0  0
 43 12  1  0  0  0  0
 46 25  1  0  0  0  0
 47 26  1  0  0  0  0
 48 30  1  0  0  0  0
 49 31  1  0  0  0  0
M  END
>  <Pose>
1

>  <Score>
-6.41

$$$$
