
 OpenBabel03202209553D

 55 58  0  0  0  0  0  0  0  0999 V2000
   22.8590    9.9070   31.1610 S   0  0  0  0  0  0  0  0  0  0  0  0
   23.6850   10.1390   32.4120 O   0  0  0  0  0  0  0  0  0  0  0  0
   21.4130    9.9000   31.5080 O   0  0  0  0  0  0  0  0  0  0  0  0
   23.1720   11.2800   30.0730 N   0  0  0  0  0  0  0  0  0  0  0  0
   21.8810   11.7950   29.7260 C   0  0  0  0  0  0  0  0  0  0  0  0
   21.8910   13.2700   29.2850 C   0  0  0  0  0  0  0  0  0  0  0  0
   22.5030   14.0070   30.3460 N   0  0  0  0  0  0  0  0  0  0  0  0
   23.8890   13.6340   30.4000 C   0  0  0  0  0  0  0  0  0  0  0  0
   23.8760   12.2480   30.9850 C   0  0  0  0  0  0  0  0  0  0  0  0
   22.0520   15.2830   30.6360 C   0  0  0  0  0  0  0  0  0  0  0  0
   22.5410   16.3820   29.8000 C   0  0  0  0  0  0  0  0  0  0  0  0
   21.9850   17.5290   30.0990 O   0  0  0  0  0  0  0  0  0  0  0  0
   23.4590   16.4280   28.7910 N   0  0  0  0  0  0  0  0  0  0  0  0
   23.1740   16.1410   27.3830 C   0  0  0  0  0  0  0  0  0  0  0  0
   24.1190   16.8980   26.5370 C   0  0  0  0  0  0  0  0  0  0  0  0
   23.8320   18.2220   26.1320 C   0  0  0  0  0  0  0  0  0  0  0  0
   24.5920   18.8970   25.2550 C   0  0  0  0  0  0  0  0  0  0  0  0
   25.7540   18.2860   24.6850 C   0  0  0  0  0  0  0  0  0  0  0  0
   26.0340   17.0320   25.0510 C   0  0  0  0  0  0  0  0  0  0  0  0
   25.2560   16.3040   25.9600 C   0  0  0  0  0  0  0  0  0  0  0  0
   22.4070   19.0200   26.8420 Cl  0  0  0  0  0  0  0  0  0  0  0  0
   23.3240    8.4080   30.4580 C   0  0  0  0  0  0  0  0  0  0  0  0
   24.5960    8.3950   29.8700 C   0  0  0  0  0  0  0  0  0  0  0  0
   25.1840    7.2460   29.3350 C   0  0  0  0  0  0  0  0  0  0  0  0
   24.4670    6.0550   29.3920 C   0  0  0  0  0  0  0  0  0  0  0  0
   23.2110    6.0860   29.9700 C   0  0  0  0  0  0  0  0  0  0  0  0
   22.6370    7.2340   30.5020 C   0  0  0  0  0  0  0  0  0  0  0  0
   25.1110    4.9580   28.8500 O   0  0  0  0  0  0  0  0  0  0  0  0
   26.5410    4.8450   29.0780 C   0  0  0  0  0  0  0  0  0  0  0  0
   27.2620    6.1430   28.9190 C   0  0  0  0  0  0  0  0  0  0  0  0
   26.4420    7.2740   28.7570 O   0  0  0  0  0  0  0  0  0  0  0  0
   21.5750   11.2280   28.7790 H   0  0  0  0  0  0  0  0  0  0  0  0
   21.0440   11.6330   30.4180 H   0  0  0  0  0  0  0  0  0  0  0  0
   22.4800   13.3550   28.3710 H   0  0  0  0  0  0  0  0  0  0  0  0
   20.8960   13.6580   29.1190 H   0  0  0  0  0  0  0  0  0  0  0  0
   24.3260   13.5830   29.4080 H   0  0  0  0  0  0  0  0  0  0  0  0
   24.4310   14.2740   31.1460 H   0  0  0  0  0  0  0  0  0  0  0  0
   23.2040   12.2700   31.9060 H   0  0  0  0  0  0  0  0  0  0  0  0
   24.8710   11.8770   31.1240 H   0  0  0  0  0  0  0  0  0  0  0  0
   22.4420   15.4720   31.7270 H   0  0  0  0  0  0  0  0  0  0  0  0
   20.9460   15.3760   30.8150 H   0  0  0  0  0  0  0  0  0  0  0  0
   24.4860   16.7170   28.9170 H   0  0  0  0  0  0  0  0  0  0  0  0
   23.5090   15.0440   27.2920 H   0  0  0  0  0  0  0  0  0  0  0  0
   22.1390   16.2830   27.1670 H   0  0  0  0  0  0  0  0  0  0  0  0
   24.3470   19.8860   24.9770 H   0  0  0  0  0  0  0  0  0  0  0  0
   26.3420   18.8400   23.9940 H   0  0  0  0  0  0  0  0  0  0  0  0
   26.9040   16.5110   24.6370 H   0  0  0  0  0  0  0  0  0  0  0  0
   25.5180   15.2990   26.1840 H   0  0  0  0  0  0  0  0  0  0  0  0
   25.1380    9.3600   29.8190 H   0  0  0  0  0  0  0  0  0  0  0  0
   22.6930    5.1630   29.9740 H   0  0  0  0  0  0  0  0  0  0  0  0
   21.6670    7.1920   30.9520 H   0  0  0  0  0  0  0  0  0  0  0  0
   26.6250    4.4240   30.1340 H   0  0  0  0  0  0  0  0  0  0  0  0
   26.9490    4.1130   28.3800 H   0  0  0  0  0  0  0  0  0  0  0  0
   27.9410    6.1000   28.0590 H   0  0  0  0  0  0  0  0  0  0  0  0
   27.8830    6.2670   29.8510 H   0  0  0  0  0  0  0  0  0  0  0  0
  1  3  2  0  0  0  0
  1  2  2  0  0  0  0
  4  9  1  0  0  0  0
  4  1  1  0  0  0  0
  5  4  1  0  0  0  0
  5 33  1  0  0  0  0
  6  5  1  0  0  0  0
  6  7  1  0  0  0  0
  7  8  1  0  0  0  0
  7 10  1  0  0  0  0
  8  9  1  0  0  0  0
  8 37  1  0  0  0  0
  9 39  1  0  0  0  0
  9 38  1  0  0  0  0
 10 41  1  0  0  0  0
 10 40  1  0  0  0  0
 11 12  2  0  0  0  0
 11 10  1  0  0  0  0
 13 42  1  0  0  0  0
 13 11  1  0  0  0  0
 14 13  1  0  0  0  0
 15 14  1  0  0  0  0
 16 15  1  0  0  0  0
 16 21  1  0  0  0  0
 17 16  2  0  0  0  0
 18 19  2  0  0  0  0
 18 17  1  0  0  0  0
 19 20  1  0  0  0  0
 20 48  1  0  0  0  0
 20 15  2  0  0  0  0
 22 27  1  0  0  0  0
 22  1  1  0  0  0  0
 23 22  2  0  0  0  0
 24 25  2  0  0  0  0
 24 23  1  0  0  0  0
 25 26  1  0  0  0  0
 26 50  1  0  0  0  0
 26 27  2  0  0  0  0
 27 51  1  0  0  0  0
 28 29  1  0  0  0  0
 28 25  1  0  0  0  0
 29 52  1  0  0  0  0
 30 29  1  0  0  0  0
 30 55  1  0  0  0  0
 31 30  1  0  0  0  0
 31 24  1  0  0  0  0
 32  5  1  0  0  0  0
 34  6  1  0  0  0  0
 35  6  1  0  0  0  0
 36  8  1  0  0  0  0
 43 14  1  0  0  0  0
 44 14  1  0  0  0  0
 45 17  1  0  0  0  0
 46 18  1  0  0  0  0
 47 19  1  0  0  0  0
 49 23  1  0  0  0  0
 53 29  1  0  0  0  0
 54 30  1  0  0  0  0
M  END
>  <Pose>
1

>  <Score>
-7.07

$$$$
