
 OpenBabel03202209553D

 56 59  0  0  0  0  0  0  0  0999 V2000
   26.5710    4.1020   27.6280 S   0  0  0  0  0  0  0  0  0  0  0  0
   25.2230    4.3130   27.0110 O   0  0  0  0  0  0  0  0  0  0  0  0
   26.9000    2.6410   27.5420 O   0  0  0  0  0  0  0  0  0  0  0  0
   26.5380    4.6380   29.2530 N   0  0  0  0  0  0  0  0  0  0  0  0
   27.1430    5.9010   29.4770 C   0  0  0  0  0  0  0  0  0  0  0  0
   26.2180    7.0730   29.2810 C   0  0  0  0  0  0  0  0  0  0  0  0
   24.8870    6.8080   29.7830 N   0  0  0  0  0  0  0  0  0  0  0  0
   24.7360    5.6190   30.6010 C   0  0  0  0  0  0  0  0  0  0  0  0
   25.3080    4.4000   29.9210 C   0  0  0  0  0  0  0  0  0  0  0  0
   23.8380    7.6820   29.4690 C   0  0  0  0  0  0  0  0  0  0  0  0
   23.6580    8.0140   28.2730 O   0  0  0  0  0  0  0  0  0  0  0  0
   22.9250    8.2350   30.5020 C   0  0  0  0  0  0  0  0  0  0  0  0
   23.0500    9.6600   30.6280 N   0  0  0  0  0  0  0  0  0  0  0  0
   23.9590   10.3130   31.5020 C   0  0  0  0  0  0  0  0  0  0  0  0
   24.7740    9.7140   32.2820 O   0  0  0  0  0  0  0  0  0  0  0  0
   23.8540   11.7270   31.4070 N   0  0  0  0  0  0  0  0  0  0  0  0
   22.6780   12.0060   30.6030 C   0  0  0  0  0  0  0  0  0  0  0  0
   22.9560   13.0000   29.5130 C   0  0  0  0  0  0  0  0  0  0  0  0
   22.8480   14.4300   29.9550 C   0  0  0  0  0  0  0  0  0  0  0  0
   21.5780   14.7400   30.6910 C   0  0  0  0  0  0  0  0  0  0  0  0
   20.7220   13.5120   30.9100 C   0  0  0  0  0  0  0  0  0  0  0  0
   21.5900   12.4520   31.5500 C   0  0  0  0  0  0  0  0  0  0  0  0
   22.3540   10.7060   29.9640 C   0  0  0  0  0  0  0  0  0  0  0  0
   21.5890   10.5180   28.9880 O   0  0  0  0  0  0  0  0  0  0  0  0
   24.7690   12.6940   32.0130 C   0  0  0  0  0  0  0  0  0  0  0  0
   27.8070    4.9530   26.6860 C   0  0  0  0  0  0  0  0  0  0  0  0
   27.6150    6.2620   25.6210 S   0  0  0  0  0  0  0  0  0  0  0  0
   29.2350    6.4730   25.1470 C   0  0  0  0  0  0  0  0  0  0  0  0
   29.8980    5.4980   25.8440 C   0  0  0  0  0  0  0  0  0  0  0  0
   29.1520    4.7060   26.6470 C   0  0  0  0  0  0  0  0  0  0  0  0
   29.9350    7.6570   24.0220 Cl  0  0  0  0  0  0  0  0  0  0  0  0
   27.9710    6.0240   28.7340 H   0  0  0  0  0  0  0  0  0  0  0  0
   27.5720    5.9420   30.4960 H   0  0  0  0  0  0  0  0  0  0  0  0
   26.1940    7.4230   28.2290 H   0  0  0  0  0  0  0  0  0  0  0  0
   26.6290    7.9120   29.9000 H   0  0  0  0  0  0  0  0  0  0  0  0
   23.6560    5.4200   30.7880 H   0  0  0  0  0  0  0  0  0  0  0  0
   25.2180    5.7420   31.5810 H   0  0  0  0  0  0  0  0  0  0  0  0
   24.5400    3.8900   29.2750 H   0  0  0  0  0  0  0  0  0  0  0  0
   25.5060    3.6540   30.7450 H   0  0  0  0  0  0  0  0  0  0  0  0
   23.1250    7.7850   31.4820 H   0  0  0  0  0  0  0  0  0  0  0  0
   21.8990    7.9200   30.2110 H   0  0  0  0  0  0  0  0  0  0  0  0
   23.9730   12.8500   29.1040 H   0  0  0  0  0  0  0  0  0  0  0  0
   22.2170   12.8210   28.6960 H   0  0  0  0  0  0  0  0  0  0  0  0
   22.8890   15.0560   29.0260 H   0  0  0  0  0  0  0  0  0  0  0  0
   23.7420   14.7030   30.5490 H   0  0  0  0  0  0  0  0  0  0  0  0
   21.8460   15.2270   31.6520 H   0  0  0  0  0  0  0  0  0  0  0  0
   20.9450   15.4680   30.1090 H   0  0  0  0  0  0  0  0  0  0  0  0
   19.8990   13.7740   31.5880 H   0  0  0  0  0  0  0  0  0  0  0  0
   20.3750   13.1460   29.9390 H   0  0  0  0  0  0  0  0  0  0  0  0
   20.9380   11.6180   31.8760 H   0  0  0  0  0  0  0  0  0  0  0  0
   22.0420   12.8840   32.4680 H   0  0  0  0  0  0  0  0  0  0  0  0
   24.2170   13.4840   32.5600 H   0  0  0  0  0  0  0  0  0  0  0  0
   25.4340   12.1650   32.7020 H   0  0  0  0  0  0  0  0  0  0  0  0
   25.4000   13.0890   31.1900 H   0  0  0  0  0  0  0  0  0  0  0  0
   31.0080    5.3790   25.7400 H   0  0  0  0  0  0  0  0  0  0  0  0
   29.6330    3.8860   27.2480 H   0  0  0  0  0  0  0  0  0  0  0  0
  1  4  1  0  0  0  0
  2  1  2  0  0  0  0
  3  1  2  0  0  0  0
  4  5  1  0  0  0  0
  4  9  1  0  0  0  0
  5 33  1  0  0  0  0
  6  5  1  0  0  0  0
  6  7  1  0  0  0  0
  6 35  1  0  0  0  0
  7  8  1  0  0  0  0
  8 36  1  0  0  0  0
  8 37  1  0  0  0  0
  9  8  1  0  0  0  0
  9 39  1  0  0  0  0
 10  7  1  0  0  0  0
 10 12  1  0  0  0  0
 11 10  2  0  0  0  0
 12 13  1  0  0  0  0
 12 40  1  0  0  0  0
 13 14  1  0  0  0  0
 14 15  2  0  0  0  0
 16 14  1  0  0  0  0
 16 25  1  0  0  0  0
 17 16  1  0  0  0  0
 17 22  1  0  0  0  0
 18 19  1  0  0  0  0
 18 17  1  0  0  0  0
 19 45  1  0  0  0  0
 19 20  1  0  0  0  0
 20 21  1  0  0  0  0
 20 46  1  0  0  0  0
 21 22  1  0  0  0  0
 21 48  1  0  0  0  0
 22 50  1  0  0  0  0
 22 51  1  0  0  0  0
 23 17  1  0  0  0  0
 23 13  1  0  0  0  0
 24 23  2  0  0  0  0
 25 52  1  0  0  0  0
 25 53  1  0  0  0  0
 26  1  1  0  0  0  0
 27 26  1  0  0  0  0
 28 27  1  0  0  0  0
 28 29  2  0  0  0  0
 29 30  1  0  0  0  0
 30 26  2  0  0  0  0
 30 56  1  0  0  0  0
 31 28  1  0  0  0  0
 32  5  1  0  0  0  0
 34  6  1  0  0  0  0
 38  9  1  0  0  0  0
 41 12  1  0  0  0  0
 42 18  1  0  0  0  0
 43 18  1  0  0  0  0
 44 19  1  0  0  0  0
 47 20  1  0  0  0  0
 49 21  1  0  0  0  0
 54 25  1  0  0  0  0
 55 29  1  0  0  0  0
M  END
>  <Pose>
1

>  <Score>
-6.22

$$$$
