
 OpenBabel03202209553D

 68 71  0  0  0  0  0  0  0  0999 V2000
   21.8060    9.1450   31.2590 S   0  0  0  0  0  0  0  0  0  0  0  0
   21.1290    8.5560   32.4730 O   0  0  0  0  0  0  0  0  0  0  0  0
   20.7060    9.3390   30.2390 O   0  0  0  0  0  0  0  0  0  0  0  0
   22.6840   10.5180   31.5840 N   0  0  0  0  0  0  0  0  0  0  0  0
   22.1430   11.7870   31.5800 C   0  0  0  0  0  0  0  0  0  0  0  0
   22.9820   12.7220   30.7520 C   0  0  0  0  0  0  0  0  0  0  0  0
   24.3850   12.6220   30.9390 N   0  0  0  0  0  0  0  0  0  0  0  0
   24.7090   11.7770   32.0440 C   0  0  0  0  0  0  0  0  0  0  0  0
   24.0480   10.4120   31.8750 C   0  0  0  0  0  0  0  0  0  0  0  0
   25.1130   12.2730   29.7540 C   0  0  0  0  0  0  0  0  0  0  0  0
   25.0820   13.3900   28.7500 C   0  0  0  0  0  0  0  0  0  0  0  0
   23.9580   13.8480   28.4500 O   0  0  0  0  0  0  0  0  0  0  0  0
   26.2730   13.8970   28.1740 N   0  0  0  0  0  0  0  0  0  0  0  0
   26.1480   14.9620   27.2220 C   0  0  0  0  0  0  0  0  0  0  0  0
   27.2450   15.1070   26.2390 C   0  0  0  0  0  0  0  0  0  0  0  0
   26.9150   16.2230   25.2780 C   0  0  0  0  0  0  0  0  0  0  0  0
   26.1760   15.7160   24.0350 C   0  0  0  0  0  0  0  0  0  0  0  0
   27.0970   14.8570   23.1930 C   0  0  0  0  0  0  0  0  0  0  0  0
   28.0500   14.1520   24.1410 C   0  0  0  0  0  0  0  0  0  0  0  0
   27.2420   13.8270   25.3800 C   0  0  0  0  0  0  0  0  0  0  0  0
   28.5620   15.2520   26.7280 N   0  0  0  0  0  0  0  0  0  0  0  0
   28.8300   16.2990   27.6490 C   0  0  0  0  0  0  0  0  0  0  0  0
   30.3590   16.4820   27.6470 C   0  0  0  0  0  0  0  0  0  0  0  0
   30.9710   15.3390   28.1040 O   0  0  0  0  0  0  0  0  0  0  0  0
   30.1090   14.3140   28.4040 C   0  0  0  0  0  0  0  0  0  0  0  0
   29.1310   14.0340   27.2630 C   0  0  0  0  0  0  0  0  0  0  0  0
   22.8720    7.8840   30.6480 C   0  0  0  0  0  0  0  0  0  0  0  0
   22.7280    6.5810   31.0380 C   0  0  0  0  0  0  0  0  0  0  0  0
   23.5550    5.5970   30.5660 C   0  0  0  0  0  0  0  0  0  0  0  0
   24.5530    5.9340   29.6780 C   0  0  0  0  0  0  0  0  0  0  0  0
   24.7020    7.2490   29.2810 C   0  0  0  0  0  0  0  0  0  0  0  0
   23.8670    8.2270   29.7610 C   0  0  0  0  0  0  0  0  0  0  0  0
   25.5960    4.6500   29.0910 Cl  0  0  0  0  0  0  0  0  0  0  0  0
   22.0570   12.2850   32.5890 H   0  0  0  0  0  0  0  0  0  0  0  0
   21.0990   11.8410   31.1720 H   0  0  0  0  0  0  0  0  0  0  0  0
   22.6790   13.7720   31.0080 H   0  0  0  0  0  0  0  0  0  0  0  0
   22.6670   12.5850   29.6960 H   0  0  0  0  0  0  0  0  0  0  0  0
   24.3050   12.2240   32.9960 H   0  0  0  0  0  0  0  0  0  0  0  0
   25.7910   11.6140   32.0810 H   0  0  0  0  0  0  0  0  0  0  0  0
   24.6360    9.8530   31.0910 H   0  0  0  0  0  0  0  0  0  0  0  0
   24.2170    9.8460   32.8380 H   0  0  0  0  0  0  0  0  0  0  0  0
   24.8010   11.3070   29.3080 H   0  0  0  0  0  0  0  0  0  0  0  0
   26.1830   12.1590   30.0270 H   0  0  0  0  0  0  0  0  0  0  0  0
   27.1890   13.4680   28.4750 H   0  0  0  0  0  0  0  0  0  0  0  0
   25.1690   14.8190   26.7110 H   0  0  0  0  0  0  0  0  0  0  0  0
   26.0990   15.9470   27.7800 H   0  0  0  0  0  0  0  0  0  0  0  0
   27.8380   16.7180   24.8810 H   0  0  0  0  0  0  0  0  0  0  0  0
   26.2270   16.9690   25.7360 H   0  0  0  0  0  0  0  0  0  0  0  0
   25.9080   16.6100   23.4410 H   0  0  0  0  0  0  0  0  0  0  0  0
   25.2360   15.2000   24.2970 H   0  0  0  0  0  0  0  0  0  0  0  0
   26.4820   14.1010   22.6620 H   0  0  0  0  0  0  0  0  0  0  0  0
   27.6150   15.4970   22.4750 H   0  0  0  0  0  0  0  0  0  0  0  0
   28.4690   13.2190   23.6920 H   0  0  0  0  0  0  0  0  0  0  0  0
   28.8670   14.8410   24.4360 H   0  0  0  0  0  0  0  0  0  0  0  0
   27.7130   12.9890   25.8880 H   0  0  0  0  0  0  0  0  0  0  0  0
   26.1970   13.5370   25.1460 H   0  0  0  0  0  0  0  0  0  0  0  0
   28.4410   17.2900   27.3360 H   0  0  0  0  0  0  0  0  0  0  0  0
   28.5660   16.0950   28.7050 H   0  0  0  0  0  0  0  0  0  0  0  0
   30.6340   16.5910   26.5610 H   0  0  0  0  0  0  0  0  0  0  0  0
   30.6350   17.3900   28.1880 H   0  0  0  0  0  0  0  0  0  0  0  0
   29.5590   14.4490   29.3720 H   0  0  0  0  0  0  0  0  0  0  0  0
   30.6950   13.3690   28.5350 H   0  0  0  0  0  0  0  0  0  0  0  0
   29.7030   13.5290   26.4610 H   0  0  0  0  0  0  0  0  0  0  0  0
   28.3860   13.3300   27.6740 H   0  0  0  0  0  0  0  0  0  0  0  0
   21.9370    6.2940   31.7470 H   0  0  0  0  0  0  0  0  0  0  0  0
   23.4310    4.5610   30.8860 H   0  0  0  0  0  0  0  0  0  0  0  0
   25.4970    7.5010   28.5770 H   0  0  0  0  0  0  0  0  0  0  0  0
   24.0060    9.2590   29.4330 H   0  0  0  0  0  0  0  0  0  0  0  0
  1  4  1  0  0  0  0
  1  2  2  0  0  0  0
  3  1  2  0  0  0  0
  4  9  1  0  0  0  0
  5  4  1  0  0  0  0
  5 34  1  0  0  0  0
  6  7  1  0  0  0  0
  6 36  1  0  0  0  0
  6  5  1  0  0  0  0
  7  8  1  0  0  0  0
  8 39  1  0  0  0  0
  8 38  1  0  0  0  0
  9  8  1  0  0  0  0
  9 41  1  0  0  0  0
 10 43  1  0  0  0  0
 10  7  1  0  0  0  0
 11 10  1  0  0  0  0
 12 11  2  0  0  0  0
 13 44  1  0  0  0  0
 13 11  1  0  0  0  0
 14 46  1  0  0  0  0
 14 13  1  0  0  0  0
 15 21  1  0  0  0  0
 15 14  1  0  0  0  0
 16 48  1  0  0  0  0
 16 15  1  0  0  0  0
 17 50  1  0  0  0  0
 17 16  1  0  0  0  0
 18 17  1  0  0  0  0
 18 19  1  0  0  0  0
 19 54  1  0  0  0  0
 19 20  1  0  0  0  0
 20 55  1  0  0  0  0
 20 15  1  0  0  0  0
 21 26  1  0  0  0  0
 21 22  1  0  0  0  0
 22 58  1  0  0  0  0
 23 22  1  0  0  0  0
 23 24  1  0  0  0  0
 23 60  1  0  0  0  0
 24 25  1  0  0  0  0
 25 62  1  0  0  0  0
 25 61  1  0  0  0  0
 26 64  1  0  0  0  0
 26 25  1  0  0  0  0
 27 28  1  0  0  0  0
 27  1  1  0  0  0  0
 28 65  1  0  0  0  0
 29 66  1  0  0  0  0
 29 28  2  0  0  0  0
 30 29  1  0  0  0  0
 31 30  2  0  0  0  0
 31 32  1  0  0  0  0
 32 27  2  0  0  0  0
 33 30  1  0  0  0  0
 35  5  1  0  0  0  0
 37  6  1  0  0  0  0
 40  9  1  0  0  0  0
 42 10  1  0  0  0  0
 45 14  1  0  0  0  0
 47 16  1  0  0  0  0
 49 17  1  0  0  0  0
 51 18  1  0  0  0  0
 52 18  1  0  0  0  0
 53 19  1  0  0  0  0
 56 20  1  0  0  0  0
 57 22  1  0  0  0  0
 59 23  1  0  0  0  0
 63 26  1  0  0  0  0
 67 31  1  0  0  0  0
 68 32  1  0  0  0  0
M  END
>  <Pose>
1

>  <Score>
-5.98

$$$$
