
 OpenBabel03202209553D

 45 48  0  0  1  0  0  0  0  0999 V2000
   24.8160   18.4660   24.5050 Cl  0  0  0  0  0  0  0  0  0  0  0  0
   24.2910   17.5720   25.9200 C   0  0  0  0  0  0  0  0  0  0  0  0
   23.1960   18.0020   26.6700 C   0  0  0  0  0  0  0  0  0  0  0  0
   22.7780   17.3220   27.7810 C   0  0  0  0  0  0  0  0  0  0  0  0
   23.4090   16.1630   28.2390 C   0  0  0  0  0  0  0  0  0  0  0  0
   24.4940   15.7440   27.4870 C   0  0  0  0  0  0  0  0  0  0  0  0
   24.9170   16.4260   26.3710 C   0  0  0  0  0  0  0  0  0  0  0  0
   22.9620   15.4820   29.3930 N   0  0  0  0  0  0  0  0  0  0  0  0
   22.1410   16.2170   30.3130 C   0  0  0  0  0  0  0  0  0  0  0  0
   21.8300   17.4090   30.0310 O   0  0  0  0  0  0  0  0  0  0  0  0
   21.7330   15.5390   31.4880 N   0  0  0  0  0  0  0  0  0  0  0  0
   22.0390   14.3560   31.7890 C   0  0  0  0  0  0  0  0  0  0  0  0
   22.9010   13.4370   30.9680 C   0  0  1  0  0  0  0  0  0  0  0  0
   24.1280   13.2200   31.8070 C   0  0  0  0  0  0  0  0  0  0  0  0
   24.8720   12.0420   31.5800 N   0  0  0  0  0  4  0  0  0  0  0  0
   24.1230   10.8650   31.3460 C   0  0  0  0  0  0  0  0  0  0  0  0
   22.8300   10.9500   30.9390 C   0  0  0  0  0  0  0  0  0  0  0  0
   22.1260    9.7700   30.7170 C   0  0  0  0  0  0  0  0  0  0  0  0
   22.7430    8.5520   30.9140 C   0  0  0  0  0  0  0  0  0  0  0  0
   24.0630    8.4660   31.3310 C   0  0  0  0  0  0  0  0  0  0  0  0
   24.7570    9.6550   31.5490 C   0  0  0  0  0  0  0  0  0  0  0  0
   22.0090    7.2650   30.6950 C   0  0  0  0  0  0  0  0  0  0  0  0
   22.1050   12.2170   30.7030 C   0  0  0  0  0  0  0  0  0  0  0  0
   25.9320   12.1530   30.5900 C   0  0  0  0  0  0  0  0  0  0  0  0
   23.2890   14.1440   29.7230 C   0  0  0  0  0  0  0  0  0  0  0  0
   23.9800   13.5420   28.8240 O   0  0  0  0  0  0  0  0  0  0  0  0
   21.5680   13.7830   32.9850 O   0  0  0  0  0  0  0  0  0  0  0  0
   22.6980   18.9140   26.3120 H   0  0  0  0  0  0  0  0  0  0  0  0
   21.9070   17.6700   28.3680 H   0  0  0  0  0  0  0  0  0  0  0  0
   24.9760   14.8470   27.8460 H   0  0  0  0  0  0  0  0  0  0  0  0
   25.7850   16.0520   25.8110 H   0  0  0  0  0  0  0  0  0  0  0  0
   23.8860   13.3110   32.9040 H   0  0  0  0  0  0  0  0  0  0  0  0
   24.8000   14.1000   31.5970 H   0  0  0  0  0  0  0  0  0  0  0  0
   25.4000   11.8370   32.4880 H   0  0  0  0  0  0  0  0  0  0  0  0
   21.0900    9.7810   30.3940 H   0  0  0  0  0  0  0  0  0  0  0  0
   24.5760    7.5080   31.4960 H   0  0  0  0  0  0  0  0  0  0  0  0
   25.7920    9.5780   31.8770 H   0  0  0  0  0  0  0  0  0  0  0  0
   20.9080    7.4110   30.6770 H   0  0  0  0  0  0  0  0  0  0  0  0
   22.3300    6.5280   31.4790 H   0  0  0  0  0  0  0  0  0  0  0  0
   22.3040    6.8400   29.7260 H   0  0  0  0  0  0  0  0  0  0  0  0
   21.1940   12.1490   31.3740 H   0  0  0  0  0  0  0  0  0  0  0  0
   21.7080   12.1930   29.6730 H   0  0  0  0  0  0  0  0  0  0  0  0
   26.2070   13.2040   30.3600 H   0  0  0  0  0  0  0  0  0  0  0  0
   25.6670   11.5490   29.6900 H   0  0  0  0  0  0  0  0  0  0  0  0
   26.8900   11.6790   30.9640 H   0  0  0  0  0  0  0  0  0  0  0  0
  1  2  1  0  0  0  0
  2  7  2  0  0  0  0
  2  3  1  0  0  0  0
  3  4  2  0  0  0  0
  4  5  1  0  0  0  0
  4 29  1  0  0  0  0
  5  8  1  0  0  0  0
  6 30  1  0  0  0  0
  6  5  2  0  0  0  0
  7  6  1  0  0  0  0
  8 25  1  0  0  0  0
  8  9  1  0  0  0  0
  9 11  1  0  0  0  0
 10  9  2  0  0  0  0
 11 12  1  0  0  0  0
 12 27  2  0  0  0  0
 13 25  1  6  0  0  0
 13 12  1  0  0  0  0
 13 14  1  0  0  0  0
 14 32  1  0  0  0  0
 15 14  1  0  0  0  0
 15 34  1  0  0  0  0
 16 21  1  0  0  0  0
 16 15  1  0  0  0  0
 17 16  2  0  0  0  0
 18 19  2  0  0  0  0
 18 17  1  0  0  0  0
 19 20  1  0  0  0  0
 20 36  1  0  0  0  0
 20 21  2  0  0  0  0
 21 37  1  0  0  0  0
 22 19  1  0  0  0  0
 22 39  1  0  0  0  0
 23 17  1  0  0  0  0
 23 13  1  0  0  0  0
 23 41  1  0  0  0  0
 24 45  1  0  0  0  0
 24 15  1  0  0  0  0
 26 25  2  0  0  0  0
 28  3  1  0  0  0  0
 31  7  1  0  0  0  0
 33 14  1  0  0  0  0
 35 18  1  0  0  0  0
 38 22  1  0  0  0  0
 40 22  1  0  0  0  0
 42 23  1  0  0  0  0
 43 24  1  0  0  0  0
 44 24  1  0  0  0  0
M  END
>  <Pose>
1

>  <Score>
-5.26

$$$$
