
 OpenBabel03202209553D

 43 46  0  0  1  0  0  0  0  0999 V2000
   30.3030   15.1050   24.8250 Cl  0  0  0  0  0  0  0  0  0  0  0  0
   28.8520   14.8480   25.7510 C   0  0  0  0  0  0  0  0  0  0  0  0
   28.1370   13.6780   25.5380 C   0  0  0  0  0  0  0  0  0  0  0  0
   26.9810   13.4520   26.2620 C   0  0  0  0  0  0  0  0  0  0  0  0
   26.4950   14.3420   27.1990 C   0  0  0  0  0  0  0  0  0  0  0  0
   27.2210   15.5000   27.3970 C   0  0  0  0  0  0  0  0  0  0  0  0
   28.3810   15.7610   26.6910 C   0  0  0  0  0  0  0  0  0  0  0  0
   25.2840   14.0730   27.9420 N   0  0  0  0  0  0  0  0  0  0  0  0
   24.1600   14.9320   27.6900 C   0  0  0  0  0  0  0  0  0  0  0  0
   24.2290   15.8830   26.8510 O   0  0  0  0  0  0  0  0  0  0  0  0
   22.9750   14.6640   28.4230 N   0  0  0  0  0  0  0  0  0  0  0  0
   22.9240   13.5750   29.3720 C   0  0  0  0  0  0  0  0  0  0  0  0
   21.8060   13.1120   29.6290 O   0  0  0  0  0  0  0  0  0  0  0  0
   24.1560   13.0880   29.9620 C   0  0  2  0  0  0  0  0  0  0  0  0
   25.1860   13.0160   28.8820 C   0  0  0  0  0  0  0  0  0  0  0  0
   25.9910   12.0590   28.7470 O   0  0  0  0  0  0  0  0  0  0  0  0
   24.0950   11.8900   30.7670 C   0  0  0  0  0  0  0  0  0  0  0  0
   23.1890   10.9390   30.7730 C   0  0  0  0  0  0  0  0  0  0  0  0
   23.5210    9.8840   31.7630 C   0  0  2  0  0  0  0  0  0  0  0  0
   24.8770   10.2160   32.1380 N   0  0  0  0  0  0  0  0  0  0  0  0
   25.0840   11.5400   31.7580 N   0  0  0  0  0  0  0  0  0  0  0  0
   23.5320    8.5340   31.1870 C   0  0  0  0  0  0  0  0  0  0  0  0
   24.7590    7.9300   30.9620 C   0  0  0  0  0  0  0  0  0  0  0  0
   24.8050    6.6650   30.4240 C   0  0  0  0  0  0  0  0  0  0  0  0
   23.6590    5.9750   30.1020 C   0  0  0  0  0  0  0  0  0  0  0  0
   22.4340    6.5610   30.3190 C   0  0  0  0  0  0  0  0  0  0  0  0
   22.3920    7.8450   30.8640 C   0  0  0  0  0  0  0  0  0  0  0  0
   26.0380    6.0420   30.1920 O   0  0  0  0  0  0  0  0  0  0  0  0
   28.4960   12.9480   24.7980 H   0  0  0  0  0  0  0  0  0  0  0  0
   26.4280   12.5490   26.0980 H   0  0  0  0  0  0  0  0  0  0  0  0
   26.8960   16.2270   28.1100 H   0  0  0  0  0  0  0  0  0  0  0  0
   28.9750   16.6590   26.8220 H   0  0  0  0  0  0  0  0  0  0  0  0
   22.1540   15.2720   28.2550 H   0  0  0  0  0  0  0  0  0  0  0  0
   24.5090   13.9260   30.6650 H   0  0  0  0  0  0  0  0  0  0  0  0
   22.2810   10.8460   30.1740 H   0  0  0  0  0  0  0  0  0  0  0  0
   22.8260    9.9520   32.6380 H   0  0  0  0  0  0  0  0  0  0  0  0
   25.5810    9.5570   31.7400 H   0  0  0  0  0  0  0  0  0  0  0  0
   25.8420   12.1290   32.1610 H   0  0  0  0  0  0  0  0  0  0  0  0
   25.6710    8.4650   31.2140 H   0  0  0  0  0  0  0  0  0  0  0  0
   23.6960    4.9720   29.6760 H   0  0  0  0  0  0  0  0  0  0  0  0
   21.4890    6.0710   30.0860 H   0  0  0  0  0  0  0  0  0  0  0  0
   21.4350    8.3170   31.0400 H   0  0  0  0  0  0  0  0  0  0  0  0
   26.7800    6.1620   30.8600 H   0  0  0  0  0  0  0  0  0  0  0  0
  1  2  1  0  0  0  0
  2  7  1  0  0  0  0
  3  2  2  0  0  0  0
  3  4  1  0  0  0  0
  4  5  2  0  0  0  0
  5  6  1  0  0  0  0
  5  8  1  0  0  0  0
  6 31  1  0  0  0  0
  7 32  1  0  0  0  0
  7  6  2  0  0  0  0
  8 15  1  0  0  0  0
  9  8  1  0  0  0  0
  9 11  1  0  0  0  0
 10  9  2  0  0  0  0
 11 12  1  0  0  0  0
 12 13  2  0  0  0  0
 12 14  1  0  0  0  0
 14 34  1  1  0  0  0
 14 17  1  0  0  0  0
 15 14  1  0  0  0  0
 16 15  2  0  0  0  0
 17 18  2  0  0  0  0
 17 21  1  0  0  0  0
 18 19  1  0  0  0  0
 19 20  1  0  0  0  0
 19 36  1  1  0  0  0
 21 20  1  0  0  0  0
 21 38  1  0  0  0  0
 22 19  1  0  0  0  0
 23 22  1  0  0  0  0
 23 39  1  0  0  0  0
 24 23  2  0  0  0  0
 25 26  2  0  0  0  0
 25 24  1  0  0  0  0
 26 27  1  0  0  0  0
 27 42  1  0  0  0  0
 27 22  2  0  0  0  0
 28 24  1  0  0  0  0
 28 43  1  0  0  0  0
 29  3  1  0  0  0  0
 30  4  1  0  0  0  0
 33 11  1  0  0  0  0
 35 18  1  0  0  0  0
 37 20  1  0  0  0  0
 40 25  1  0  0  0  0
 41 26  1  0  0  0  0
M  END
>  <Pose>
1

>  <Score>
-6.48

$$$$
