
 OpenBabel03202209553D

 55 59  0  0  1  0  0  0  0  0999 V2000
   31.2060    6.7320   32.6780 B   0  0  0  0  0  0  0  0  0  0  0  0
   30.4700    7.0300   30.9450 C   0  0  0  0  0  0  0  0  0  0  0  0
   29.9770    6.1150   30.0360 C   0  0  0  0  0  0  0  0  0  0  0  0
   29.5530    6.7640   28.9220 N   0  0  0  0  0  0  0  0  0  0  0  0
   29.7680    8.0370   29.1150 N   0  0  0  0  0  0  0  0  0  0  0  0
   30.3220    8.2700   30.3190 C   0  0  0  0  0  0  0  0  0  0  0  0
   28.9700    6.1950   27.7300 C   0  0  0  0  0  0  0  0  0  0  0  0
   27.8730    5.2010   28.0360 C   0  0  2  0  0  0  0  0  0  0  0  0
   27.9230    4.0240   27.1220 C   0  0  0  0  0  0  0  0  0  0  0  0
   26.5560    5.8990   27.9950 C   0  0  0  0  0  0  0  0  0  0  0  0
   25.7090    5.4570   27.1780 O   0  0  0  0  0  0  0  0  0  0  0  0
   26.2610    7.0050   28.8280 N   0  0  0  0  0  0  0  0  0  0  0  0
   25.5030    6.9450   29.9750 N   0  0  0  0  0  0  0  0  0  0  0  0
   24.1010    6.9030   29.9240 C   0  0  0  0  0  0  0  0  0  0  0  0
   23.5500    5.9180   29.3450 O   0  0  0  0  0  0  0  0  0  0  0  0
   23.2120    7.9370   30.5040 C   0  0  1  0  0  0  0  0  0  0  0  0
   21.9950    7.2980   31.1430 C   0  0  0  0  0  0  0  0  0  0  0  0
   21.0840    8.3440   31.7210 C   0  0  1  0  0  0  0  0  0  0  0  0
   21.8640    9.0560   32.8280 C   0  0  0  0  0  0  0  0  0  0  0  0
   23.0880    9.6920   32.2490 C   0  0  1  0  0  0  0  0  0  0  0  0
   23.9710    8.6510   31.6010 C   0  0  0  0  0  0  0  0  0  0  0  0
   22.6720   10.7110   31.2140 C   0  0  0  0  0  0  0  0  0  0  0  0
   21.9100    9.9860   30.1290 C   0  0  2  0  0  0  0  0  0  0  0  0
   20.6650    9.3750   30.7200 C   0  0  0  0  0  0  0  0  0  0  0  0
   22.7880    8.9570   29.4700 C   0  0  0  0  0  0  0  0  0  0  0  0
   19.9540    7.6520   32.3090 N   0  0  1  0  0  0  0  0  0  0  0  0
   19.6980    6.3580   32.3900 N   0  0  0  0  0  0  0  0  0  0  0  0
   18.5740    6.1210   32.9960 N   0  0  0  0  0  0  0  0  0  0  0  0
   18.0450    7.2820   33.3390 C   0  0  0  0  0  0  0  0  0  0  0  0
   18.9090    8.2440   32.9100 N   0  0  0  0  0  0  0  0  0  0  0  0
   29.9320    5.0550   30.1820 H   0  0  0  0  0  0  0  0  0  0  0  0
   30.6180    9.2030   30.7760 H   0  0  0  0  0  0  0  0  0  0  0  0
   29.7610    5.6550   27.1830 H   0  0  0  0  0  0  0  0  0  0  0  0
   28.5650    6.9720   27.0460 H   0  0  0  0  0  0  0  0  0  0  0  0
   28.0040    4.8390   29.0770 H   0  0  0  0  0  0  0  0  0  0  0  0
   28.9800    3.6360   27.1530 H   0  0  0  0  0  0  0  0  0  0  0  0
   27.3130    3.1880   27.5330 H   0  0  0  0  0  0  0  0  0  0  0  0
   27.7080    4.2560   26.0730 H   0  0  0  0  0  0  0  0  0  0  0  0
   26.6630    7.9400   28.5350 H   0  0  0  0  0  0  0  0  0  0  0  0
   25.9810    6.9270   30.9080 H   0  0  0  0  0  0  0  0  0  0  0  0
   21.4640    6.6420   30.4070 H   0  0  0  0  0  0  0  0  0  0  0  0
   22.3790    6.7050   32.0130 H   0  0  0  0  0  0  0  0  0  0  0  0
   21.2480    9.8000   33.3400 H   0  0  0  0  0  0  0  0  0  0  0  0
   22.2040    8.2350   33.5080 H   0  0  0  0  0  0  0  0  0  0  0  0
   23.6750   10.1730   33.0480 H   0  0  0  0  0  0  0  0  0  0  0  0
   24.8950    9.1400   31.2280 H   0  0  0  0  0  0  0  0  0  0  0  0
   24.2170    7.8920   32.3780 H   0  0  0  0  0  0  0  0  0  0  0  0
   21.9780   11.4250   31.7250 H   0  0  0  0  0  0  0  0  0  0  0  0
   23.5690   11.2080   30.8320 H   0  0  0  0  0  0  0  0  0  0  0  0
   21.6470   10.7640   29.3550 H   0  0  0  0  0  0  0  0  0  0  0  0
   20.0310    8.9540   29.9230 H   0  0  0  0  0  0  0  0  0  0  0  0
   20.1300   10.1720   31.2810 H   0  0  0  0  0  0  0  0  0  0  0  0
   23.6960    9.4330   29.0900 H   0  0  0  0  0  0  0  0  0  0  0  0
   22.1890    8.4480   28.6930 H   0  0  0  0  0  0  0  0  0  0  0  0
   17.1090    7.4200   33.8590 H   0  0  0  0  0  0  0  0  0  0  0  0
  2  1  1  0  0  0  0
  3 31  1  0  0  0  0
  3  2  2  0  0  0  0
  4  5  1  0  0  0  0
  4  3  1  0  0  0  0
  5  6  2  0  0  0  0
  6 32  1  0  0  0  0
  6  2  1  0  0  0  0
  7  8  1  0  0  0  0
  7  4  1  0  0  0  0
  8 35  1  1  0  0  0
  9 36  1  0  0  0  0
  9 37  1  0  0  0  0
  9  8  1  0  0  0  0
 10  8  1  0  0  0  0
 10 12  1  0  0  0  0
 11 10  2  0  0  0  0
 12 13  1  0  0  0  0
 13 40  1  0  0  0  0
 14 13  1  0  0  0  0
 15 14  2  0  0  0  0
 16 14  1  6  0  0  0
 16 17  1  0  0  0  0
 16 21  1  0  0  0  0
 17 18  1  0  0  0  0
 17 42  1  0  0  0  0
 18 24  1  6  0  0  0
 18 26  1  0  0  0  0
 18 19  1  0  0  0  0
 19 43  1  0  0  0  0
 19 44  1  0  0  0  0
 20 19  1  0  0  0  0
 20 45  1  1  0  0  0
 21 20  1  0  0  0  0
 21 47  1  0  0  0  0
 22 48  1  0  0  0  0
 22 20  1  0  0  0  0
 23 50  1  6  0  0  0
 23 24  1  0  0  0  0
 23 22  1  0  0  0  0
 24 52  1  0  0  0  0
 25 23  1  0  0  0  0
 25 16  1  0  0  0  0
 26 27  1  1  0  0  0
 26 30  1  0  0  0  0
 27 28  1  0  0  0  0
 28 29  2  0  0  0  0
 29 55  1  0  0  0  0
 30 29  1  0  0  0  0
 33  7  1  0  0  0  0
 34  7  1  0  0  0  0
 38  9  1  0  0  0  0
 39 12  1  0  0  0  0
 41 17  1  0  0  0  0
 46 21  1  0  0  0  0
 49 22  1  0  0  0  0
 51 24  1  0  0  0  0
 53 25  1  0  0  0  0
 54 25  1  0  0  0  0
M  END
>  <Pose>
1

>  <Score>
-6.38

$$$$
