
 OpenBabel03202209553D

 52 55  0  0  1  0  0  0  0  0999 V2000
   23.7640    1.1500   33.5980 Cl  0  0  0  0  0  0  0  0  0  0  0  0
   24.0210    2.5200   32.5490 C   0  0  0  0  0  0  0  0  0  0  0  0
   25.2160    2.8030   31.9360 C   0  0  0  0  0  0  0  0  0  0  0  0
   25.3650    3.8960   31.1190 C   0  0  0  0  0  0  0  0  0  0  0  0
   24.3030    4.7720   30.8720 C   0  0  0  0  0  0  0  0  0  0  0  0
   23.1140    4.4920   31.4790 C   0  0  0  0  0  0  0  0  0  0  0  0
   22.9750    3.3940   32.2980 C   0  0  0  0  0  0  0  0  0  0  0  0
   24.5230    5.9020   29.9960 C   0  0  0  0  0  0  0  0  0  0  0  0
   24.1910    5.8050   28.7680 O   0  0  0  0  0  0  0  0  0  0  0  0
   25.1160    7.1840   30.4340 C   0  0  0  0  0  0  0  0  0  0  0  0
   24.0360    8.0380   30.9380 N   0  0  0  0  0  0  0  0  0  0  0  0
   23.9280    9.3530   31.0160 C   0  0  2  0  0  0  0  0  0  0  0  0
   22.7320    9.7120   31.5550 N   0  0  0  0  0  0  0  0  0  0  0  0
   22.0650    8.6100   31.8200 C   0  0  0  0  0  0  0  0  0  0  0  0
   22.9010    7.5430   31.4270 C   0  0  0  0  0  0  0  0  0  0  0  0
   20.7430    8.4130   32.4220 C   0  0  0  0  0  0  0  0  0  0  0  0
   19.9750    7.2980   32.3220 C   0  0  0  0  0  0  0  0  0  0  0  0
   18.6930    7.2000   32.8620 C   0  0  0  0  0  0  0  0  0  0  0  0
   18.1440    8.2550   33.5370 C   0  0  0  0  0  0  0  0  0  0  0  0
   18.8970    9.3980   33.6580 C   0  0  0  0  0  0  0  0  0  0  0  0
   20.1610    9.4790   33.1170 C   0  0  0  0  0  0  0  0  0  0  0  0
   16.8540    8.1840   34.0910 O   0  0  0  0  0  0  0  0  0  0  0  0
   16.2610    6.9730   34.4790 C   0  0  0  0  0  0  0  0  0  0  0  0
   22.3480   11.0710   31.8110 C   0  0  0  0  0  0  0  0  0  0  0  0
   21.9840   11.7760   30.5060 C   0  0  0  0  0  0  0  0  0  0  0  0
   22.9530   11.2000   29.4690 C   0  0  0  0  0  0  0  0  0  0  0  0
   24.3530   11.5270   29.9110 C   0  0  0  0  0  0  0  0  0  0  0  0
   24.9990   10.2800   30.5380 C   0  0  0  0  0  0  0  0  0  0  0  0
   26.0620    2.1460   32.1050 H   0  0  0  0  0  0  0  0  0  0  0  0
   26.3380    4.0870   30.6480 H   0  0  0  0  0  0  0  0  0  0  0  0
   22.2590    5.1210   31.3350 H   0  0  0  0  0  0  0  0  0  0  0  0
   22.0060    3.2060   32.7650 H   0  0  0  0  0  0  0  0  0  0  0  0
   25.7930    6.9220   31.2980 H   0  0  0  0  0  0  0  0  0  0  0  0
   25.6990    7.6810   29.6590 H   0  0  0  0  0  0  0  0  0  0  0  0
   22.6270    6.4890   31.5210 H   0  0  0  0  0  0  0  0  0  0  0  0
   20.3510    6.4300   31.8510 H   0  0  0  0  0  0  0  0  0  0  0  0
   18.1110    6.2870   32.7570 H   0  0  0  0  0  0  0  0  0  0  0  0
   18.4590   10.2270   34.1910 H   0  0  0  0  0  0  0  0  0  0  0  0
   20.7440   10.3830   33.2150 H   0  0  0  0  0  0  0  0  0  0  0  0
   16.6930    6.6530   35.4520 H   0  0  0  0  0  0  0  0  0  0  0  0
   15.1480    7.0530   34.5190 H   0  0  0  0  0  0  0  0  0  0  0  0
   16.4660    6.1350   33.7500 H   0  0  0  0  0  0  0  0  0  0  0  0
   21.7290   11.2740   32.6570 H   0  0  0  0  0  0  0  0  0  0  0  0
   23.3370   11.6150   32.0930 H   0  0  0  0  0  0  0  0  0  0  0  0
   20.9400   11.5680   30.2520 H   0  0  0  0  0  0  0  0  0  0  0  0
   22.1650   12.8510   30.5360 H   0  0  0  0  0  0  0  0  0  0  0  0
   22.8260   10.0830   29.4600 H   0  0  0  0  0  0  0  0  0  0  0  0
   22.7140   11.5330   28.4500 H   0  0  0  0  0  0  0  0  0  0  0  0
   24.9160   11.8190   28.9960 H   0  0  0  0  0  0  0  0  0  0  0  0
   24.4170   12.4060   30.5800 H   0  0  0  0  0  0  0  0  0  0  0  0
   25.5670   10.5760   31.4570 H   0  0  0  0  0  0  0  0  0  0  0  0
   25.7130    9.7980   29.8510 H   0  0  0  0  0  0  0  0  0  0  0  0
  2  1  1  0  0  0  0
  3 29  1  0  0  0  0
  3  2  2  0  0  0  0
  4  3  1  0  0  0  0
  5  4  2  0  0  0  0
  5  6  1  0  0  0  0
  6  7  2  0  0  0  0
  7  2  1  0  0  0  0
  7 32  1  0  0  0  0
  8 10  1  0  0  0  0
  8  5  1  0  0  0  0
  9  8  2  0  0  0  0
 10 11  1  0  0  0  0
 10 33  1  0  0  0  0
 11 12  1  0  0  0  0
 11 15  1  0  0  0  0
 12 28  1  6  0  0  0
 12 13  1  0  0  0  0
 13 24  1  0  0  0  0
 13 14  1  0  0  0  0
 14 16  1  0  0  0  0
 15 35  1  0  0  0  0
 15 14  2  0  0  0  0
 16 21  1  0  0  0  0
 17 16  2  0  0  0  0
 17 18  1  0  0  0  0
 18 19  2  0  0  0  0
 19 20  1  0  0  0  0
 19 22  1  0  0  0  0
 20 38  1  0  0  0  0
 21 39  1  0  0  0  0
 21 20  2  0  0  0  0
 22 23  1  0  0  0  0
 23 41  1  0  0  0  0
 23 40  1  0  0  0  0
 24 44  1  0  0  0  0
 24 43  1  0  0  0  0
 25 46  1  0  0  0  0
 25 24  1  0  0  0  0
 26 27  1  0  0  0  0
 26 25  1  0  0  0  0
 27 28  1  0  0  0  0
 27 50  1  0  0  0  0
 28 51  1  0  0  0  0
 30  4  1  0  0  0  0
 31  6  1  0  0  0  0
 34 10  1  0  0  0  0
 36 17  1  0  0  0  0
 37 18  1  0  0  0  0
 42 23  1  0  0  0  0
 45 25  1  0  0  0  0
 47 26  1  0  0  0  0
 48 26  1  0  0  0  0
 49 27  1  0  0  0  0
 52 28  1  0  0  0  0
M  END
>  <Pose>
1

>  <Score>
-6.21

$$$$
