
 OpenBabel03202209553D

 48 51  0  0  1  0  0  0  0  0999 V2000
   22.6190    9.7850   31.7490 Cl  0  0  0  0  0  0  0  0  0  0  0  0
   23.9800    9.2250   30.7820 C   0  0  0  0  0  0  0  0  0  0  0  0
   24.7980   10.1760   30.2190 C   0  0  0  0  0  0  0  0  0  0  0  0
   25.8590    9.7020   29.4640 C   0  0  0  0  0  0  0  0  0  0  0  0
   26.0430    8.3790   29.3140 N   0  0  0  0  0  0  0  0  0  0  0  0
   25.2630    7.4540   29.8500 N   0  0  0  0  0  0  0  0  0  0  0  0
   24.2240    7.8800   30.5890 C   0  0  0  0  0  0  0  0  0  0  0  0
   23.4360    7.0540   31.1330 O   0  0  0  0  0  0  0  0  0  0  0  0
   25.5130    6.0540   29.6540 C   0  0  0  0  0  0  0  0  0  0  0  0
   25.9530    5.5920   28.4310 C   0  0  0  0  0  0  0  0  0  0  0  0
   26.2000    4.2320   28.2250 C   0  0  0  0  0  0  0  0  0  0  0  0
   26.0070    3.3310   29.2420 C   0  0  0  0  0  0  0  0  0  0  0  0
   25.5690    3.7770   30.4630 C   0  0  0  0  0  0  0  0  0  0  0  0
   25.3310    5.1170   30.6490 C   0  0  0  0  0  0  0  0  0  0  0  0
   24.5310   11.5460   30.4270 N   0  0  0  0  0  0  0  0  0  0  0  0
   24.9450   12.2310   31.6460 C   0  0  0  0  0  0  0  0  0  0  0  0
   23.6300   12.5740   32.3730 C   0  0  0  0  0  0  0  0  0  0  0  0
   22.7440   13.2730   31.4940 N   0  0  0  0  0  0  0  0  0  0  0  0
   23.2620   13.6160   30.1530 C   0  0  0  0  0  0  0  0  0  0  0  0
   23.8350   12.3890   29.4720 C   0  0  0  0  0  0  0  0  0  0  0  0
   21.4210   13.6470   31.8460 C   0  0  0  0  0  0  0  0  0  0  0  0
   20.5420   12.7790   32.1300 O   0  0  0  0  0  0  0  0  0  0  0  0
   20.9770   15.0510   31.9040 C   0  0  1  0  0  0  0  0  0  0  0  0
   21.8710   15.8210   32.5820 O   0  0  0  0  0  0  0  0  0  0  0  0
   21.8460   17.1000   32.0410 C   0  0  0  0  0  0  0  0  0  0  0  0
   21.7980   16.7870   30.5520 C   0  0  0  0  0  0  0  0  0  0  0  0
   20.7940   15.6520   30.5290 C   0  0  0  0  0  0  0  0  0  0  0  0
   26.5090   10.4430   29.0160 H   0  0  0  0  0  0  0  0  0  0  0  0
   26.1270    6.2390   27.5890 H   0  0  0  0  0  0  0  0  0  0  0  0
   26.5470    3.8460   27.2720 H   0  0  0  0  0  0  0  0  0  0  0  0
   26.1910    2.2730   29.1100 H   0  0  0  0  0  0  0  0  0  0  0  0
   25.4040    3.1100   31.2860 H   0  0  0  0  0  0  0  0  0  0  0  0
   24.9880    5.4600   31.6060 H   0  0  0  0  0  0  0  0  0  0  0  0
   25.4420   13.1770   31.3770 H   0  0  0  0  0  0  0  0  0  0  0  0
   25.5120   11.5970   32.3230 H   0  0  0  0  0  0  0  0  0  0  0  0
   23.1930   11.5760   32.6030 H   0  0  0  0  0  0  0  0  0  0  0  0
   23.8800   13.1070   33.3120 H   0  0  0  0  0  0  0  0  0  0  0  0
   24.1020   14.3140   30.3330 H   0  0  0  0  0  0  0  0  0  0  0  0
   22.4830   14.0970   29.5640 H   0  0  0  0  0  0  0  0  0  0  0  0
   24.5370   12.7280   28.6760 H   0  0  0  0  0  0  0  0  0  0  0  0
   23.0140   11.8510   28.9590 H   0  0  0  0  0  0  0  0  0  0  0  0
   19.9640   15.0270   32.3700 H   0  0  0  0  0  0  0  0  0  0  0  0
   20.9620   17.6800   32.3620 H   0  0  0  0  0  0  0  0  0  0  0  0
   22.7600   17.6610   32.2680 H   0  0  0  0  0  0  0  0  0  0  0  0
   22.7700   16.3920   30.2310 H   0  0  0  0  0  0  0  0  0  0  0  0
   21.4480   17.6600   29.9730 H   0  0  0  0  0  0  0  0  0  0  0  0
   20.9970   14.9330   29.7120 H   0  0  0  0  0  0  0  0  0  0  0  0
   19.7970   16.1260   30.4290 H   0  0  0  0  0  0  0  0  0  0  0  0
  2  1  1  0  0  0  0
  3 15  1  0  0  0  0
  3  2  2  0  0  0  0
  4  3  1  0  0  0  0
  5  4  2  0  0  0  0
  5  6  1  0  0  0  0
  6  7  1  0  0  0  0
  7  2  1  0  0  0  0
  7  8  2  0  0  0  0
  9  6  1  0  0  0  0
  9 14  1  0  0  0  0
 10  9  2  0  0  0  0
 11 10  1  0  0  0  0
 11 12  2  0  0  0  0
 12 13  1  0  0  0  0
 13 14  2  0  0  0  0
 13 32  1  0  0  0  0
 14 33  1  0  0  0  0
 15 16  1  0  0  0  0
 16 35  1  0  0  0  0
 16 17  1  0  0  0  0
 17 36  1  0  0  0  0
 17 37  1  0  0  0  0
 18 21  1  0  0  0  0
 18 17  1  0  0  0  0
 19 38  1  0  0  0  0
 19 18  1  0  0  0  0
 20 19  1  0  0  0  0
 20 15  1  0  0  0  0
 21 23  1  0  0  0  0
 21 22  2  0  0  0  0
 23 42  1  1  0  0  0
 23 24  1  0  0  0  0
 25 44  1  0  0  0  0
 25 43  1  0  0  0  0
 25 24  1  0  0  0  0
 26 25  1  0  0  0  0
 27 26  1  0  0  0  0
 27 23  1  0  0  0  0
 28  4  1  0  0  0  0
 29 10  1  0  0  0  0
 30 11  1  0  0  0  0
 31 12  1  0  0  0  0
 34 16  1  0  0  0  0
 39 19  1  0  0  0  0
 40 20  1  0  0  0  0
 41 20  1  0  0  0  0
 45 26  1  0  0  0  0
 46 26  1  0  0  0  0
 47 27  1  0  0  0  0
 48 27  1  0  0  0  0
M  END
>  <Pose>
1

>  <Score>
-5.22

$$$$
