
 OpenBabel03202209553D

 55 58  0  0  1  0  0  0  0  0999 V2000
   27.0140   14.1380   27.1020 B   0  0  0  0  0  0  0  0  0  0  0  0
   26.5470   12.5460   28.0520 C   0  0  0  0  0  0  0  0  0  0  0  0
   27.5280   11.6230   28.2740 C   0  0  0  0  0  0  0  0  0  0  0  0
   27.2320   10.4750   28.9470 C   0  0  0  0  0  0  0  0  0  0  0  0
   25.9760   10.1680   29.4340 C   0  0  0  0  0  0  0  0  0  0  0  0
   25.0040   11.1170   29.1970 C   0  0  0  0  0  0  0  0  0  0  0  0
   25.2750   12.3000   28.5120 C   0  0  0  0  0  0  0  0  0  0  0  0
   25.7680    8.9120   30.1350 C   0  0  2  0  0  0  0  0  0  0  0  0
   26.0310    7.7330   29.3650 N   0  0  0  0  0  0  0  0  0  0  0  0
   24.8250    7.0420   29.0790 C   0  0  0  0  0  0  0  0  0  0  0  0
   24.5970    6.0850   28.3000 O   0  0  0  0  0  0  0  0  0  0  0  0
   23.7440    7.6420   29.8960 C   0  0  0  0  0  0  0  0  0  0  0  0
   22.5360    7.2990   29.9180 O   0  0  0  0  0  0  0  0  0  0  0  0
   24.3890    8.6990   30.6530 C   0  0  0  0  0  0  0  0  0  0  0  0
   23.7750    9.3620   31.6420 C   0  0  0  0  0  0  0  0  0  0  0  0
   24.5520   10.3680   32.2300 O   0  0  0  0  0  0  0  0  0  0  0  0
   22.4170    9.0690   32.0850 C   0  0  0  0  0  0  0  0  0  0  0  0
   21.7970    7.9480   32.2220 O   0  0  0  0  0  0  0  0  0  0  0  0
   20.5710    8.0540   32.6420 C   0  0  0  0  0  0  0  0  0  0  0  0
   20.3030    9.4030   32.8200 C   0  0  0  0  0  0  0  0  0  0  0  0
   21.4970   10.0290   32.4570 C   0  0  0  0  0  0  0  0  0  0  0  0
   19.0640    9.7990   33.2630 C   0  0  0  0  0  0  0  0  0  0  0  0
   18.0820    8.8740   33.5330 C   0  0  0  0  0  0  0  0  0  0  0  0
   18.3420    7.5200   33.3590 C   0  0  0  0  0  0  0  0  0  0  0  0
   19.5710    7.1390   32.9220 C   0  0  0  0  0  0  0  0  0  0  0  0
   19.8620    5.8030   32.7380 O   0  0  0  0  0  0  0  0  0  0  0  0
   21.0020    5.3130   32.0470 C   0  0  0  0  0  0  0  0  0  0  0  0
   27.3220    7.2810   28.9240 C   0  0  0  0  0  0  0  0  0  0  0  0
   27.5780    7.6520   27.4750 C   0  0  0  0  0  0  0  0  0  0  0  0
   27.2850    6.6050   26.5580 N   0  0  0  0  0  4  0  0  0  0  0  0
   28.0840    6.5700   25.3710 C   0  0  0  0  0  0  0  0  0  0  0  0
   27.2990    5.3100   27.2240 C   0  0  0  0  0  0  0  0  0  0  0  0
   28.5530   11.7880   27.9200 H   0  0  0  0  0  0  0  0  0  0  0  0
   28.0540    9.7610   29.1000 H   0  0  0  0  0  0  0  0  0  0  0  0
   24.0190   10.9320   29.5480 H   0  0  0  0  0  0  0  0  0  0  0  0
   24.5030   13.0170   28.3430 H   0  0  0  0  0  0  0  0  0  0  0  0
   26.5150    8.8640   30.9860 H   0  0  0  0  0  0  0  0  0  0  0  0
   21.6280   11.1020   32.4830 H   0  0  0  0  0  0  0  0  0  0  0  0
   18.8480   10.8450   33.4010 H   0  0  0  0  0  0  0  0  0  0  0  0
   17.1000    9.1410   33.8790 H   0  0  0  0  0  0  0  0  0  0  0  0
   17.5380    6.8050   33.5850 H   0  0  0  0  0  0  0  0  0  0  0  0
   21.2460    4.3040   32.4760 H   0  0  0  0  0  0  0  0  0  0  0  0
   20.7230    5.2350   30.9880 H   0  0  0  0  0  0  0  0  0  0  0  0
   21.8930    5.9330   32.1680 H   0  0  0  0  0  0  0  0  0  0  0  0
   27.4630    6.1930   29.0800 H   0  0  0  0  0  0  0  0  0  0  0  0
   28.1160    7.7770   29.5230 H   0  0  0  0  0  0  0  0  0  0  0  0
   28.6430    7.9910   27.3780 H   0  0  0  0  0  0  0  0  0  0  0  0
   26.9810    8.5520   27.1760 H   0  0  0  0  0  0  0  0  0  0  0  0
   26.2810    6.7440   26.2330 H   0  0  0  0  0  0  0  0  0  0  0  0
   27.8280    7.4420   24.7300 H   0  0  0  0  0  0  0  0  0  0  0  0
   29.1610    6.4620   25.5460 H   0  0  0  0  0  0  0  0  0  0  0  0
   27.7630    5.6610   24.7990 H   0  0  0  0  0  0  0  0  0  0  0  0
   28.3310    4.9390   27.2850 H   0  0  0  0  0  0  0  0  0  0  0  0
   26.9350    5.4100   28.2640 H   0  0  0  0  0  0  0  0  0  0  0  0
   26.6540    4.6210   26.6470 H   0  0  0  0  0  0  0  0  0  0  0  0
  1  2  1  0  0  0  0
  2  3  2  0  0  0  0
  2  7  1  0  0  0  0
  3  4  1  0  0  0  0
  4 34  1  0  0  0  0
  4  5  2  0  0  0  0
  5  8  1  0  0  0  0
  6  5  1  0  0  0  0
  6 35  1  0  0  0  0
  7  6  2  0  0  0  0
  8 14  1  0  0  0  0
  8 37  1  1  0  0  0
  9  8  1  0  0  0  0
 10  9  1  0  0  0  0
 10 12  1  0  0  0  0
 11 10  2  0  0  0  0
 12 13  2  0  0  0  0
 12 14  1  0  0  0  0
 14 15  2  0  0  0  0
 15 17  1  0  0  0  0
 15 16  1  0  0  0  0
 17 18  1  0  0  0  0
 17 21  2  0  0  0  0
 18 19  1  0  0  0  0
 19 20  2  0  0  0  0
 19 25  1  0  0  0  0
 20 22  1  0  0  0  0
 21 38  1  0  0  0  0
 21 20  1  0  0  0  0
 22 39  1  0  0  0  0
 22 23  2  0  0  0  0
 23 40  1  0  0  0  0
 24 23  1  0  0  0  0
 24 41  1  0  0  0  0
 25 24  2  0  0  0  0
 26 25  1  0  0  0  0
 27 44  1  0  0  0  0
 27 42  1  0  0  0  0
 27 26  1  0  0  0  0
 28 45  1  0  0  0  0
 28  9  1  0  0  0  0
 28 46  1  0  0  0  0
 29 28  1  0  0  0  0
 30 32  1  0  0  0  0
 30 29  1  0  0  0  0
 31 51  1  0  0  0  0
 31 30  1  0  0  0  0
 32 53  1  0  0  0  0
 32 54  1  0  0  0  0
 33  3  1  0  0  0  0
 36  7  1  0  0  0  0
 43 27  1  0  0  0  0
 47 29  1  0  0  0  0
 48 29  1  0  0  0  0
 49 30  1  0  0  0  0
 50 31  1  0  0  0  0
 52 31  1  0  0  0  0
 55 32  1  0  0  0  0
M  END
>  <Pose>
1

>  <Score>
-7.26

$$$$
