
 OpenBabel03202209553D

 53 56  0  0  1  0  0  0  0  0999 V2000
   23.0850    9.7450   31.4590 S   0  0  0  0  0  0  0  0  0  0  0  0
   21.6210    9.5950   31.8300 O   0  0  0  0  0  0  0  0  0  0  0  0
   23.8230    9.8900   32.7740 O   0  0  0  0  0  0  0  0  0  0  0  0
   23.5480    8.4290   30.5640 N   0  0  0  0  0  0  0  0  0  0  0  0
   22.6350    7.4890   30.0960 C   0  0  0  0  0  0  0  0  0  0  0  0
   23.4030    6.3020   29.4980 C   0  0  0  0  0  0  0  0  0  0  0  0
   24.5570    5.9930   30.3440 N   0  0  0  0  0  0  0  0  0  0  0  0
   25.5020    7.0720   30.5550 C   0  0  0  0  0  0  0  0  0  0  0  0
   24.8340    8.3410   30.0070 C   0  0  0  0  0  0  0  0  0  0  0  0
   24.6970    4.7010   30.9250 C   0  0  0  0  0  0  0  0  0  0  0  0
   23.9700    4.4280   31.9090 O   0  0  0  0  0  0  0  0  0  0  0  0
   25.6570    3.7380   30.3860 C   0  0  0  0  0  0  0  0  0  0  0  0
   25.3420    3.2710   28.9720 C   0  0  2  0  0  0  0  0  0  0  0  0
   25.5800    1.8670   28.7650 N   0  0  0  0  0  0  0  0  0  0  0  0
   26.5500    1.1630   28.0040 C   0  0  0  0  0  0  0  0  0  0  0  0
   26.3340   -0.0270   27.6500 O   0  0  0  0  0  0  0  0  0  0  0  0
   27.8600    1.6710   27.5410 C   0  0  0  0  0  0  0  0  0  0  0  0
   28.2100    3.0080   27.3230 C   0  0  0  0  0  0  0  0  0  0  0  0
   29.4730    3.3120   26.9000 C   0  0  0  0  0  0  0  0  0  0  0  0
   30.4470    2.3370   26.6740 C   0  0  0  0  0  0  0  0  0  0  0  0
   30.0680    1.0140   26.9020 C   0  0  0  0  0  0  0  0  0  0  0  0
   28.7970    0.6930   27.3270 C   0  0  0  0  0  0  0  0  0  0  0  0
   27.3600    4.1310   27.5010 N   0  0  0  0  0  0  0  0  0  0  0  0
   26.0200    4.1570   28.0020 C   0  0  0  0  0  0  0  0  0  0  0  0
   25.3330    5.1180   27.5050 O   0  0  0  0  0  0  0  0  0  0  0  0
   23.2240   11.2820   30.5980 C   0  0  0  0  0  0  0  0  0  0  0  0
   24.3400   11.5960   29.8580 C   0  0  0  0  0  0  0  0  0  0  0  0
   24.4040   12.8090   29.2090 C   0  0  0  0  0  0  0  0  0  0  0  0
   23.3910   13.7480   29.2570 C   0  0  0  0  0  0  0  0  0  0  0  0
   22.2640   13.4290   30.0040 C   0  0  0  0  0  0  0  0  0  0  0  0
   22.2060   12.2160   30.6520 C   0  0  0  0  0  0  0  0  0  0  0  0
   23.4620   15.2760   28.4410 Cl  0  0  0  0  0  0  0  0  0  0  0  0
   21.9490    7.8620   29.2780 H   0  0  0  0  0  0  0  0  0  0  0  0
   21.9820    7.0230   30.8720 H   0  0  0  0  0  0  0  0  0  0  0  0
   23.7890    6.5490   28.4960 H   0  0  0  0  0  0  0  0  0  0  0  0
   22.7480    5.4180   29.3870 H   0  0  0  0  0  0  0  0  0  0  0  0
   25.6460    7.2780   31.6400 H   0  0  0  0  0  0  0  0  0  0  0  0
   26.4340    6.9070   30.0180 H   0  0  0  0  0  0  0  0  0  0  0  0
   24.8150    8.2210   28.8840 H   0  0  0  0  0  0  0  0  0  0  0  0
   25.4850    9.2270   30.2090 H   0  0  0  0  0  0  0  0  0  0  0  0
   26.6830    4.2190   30.2970 H   0  0  0  0  0  0  0  0  0  0  0  0
   25.8090    2.8700   31.0550 H   0  0  0  0  0  0  0  0  0  0  0  0
   24.2280    3.4380   28.8440 H   0  0  0  0  0  0  0  0  0  0  0  0
   24.9240    1.1840   29.2590 H   0  0  0  0  0  0  0  0  0  0  0  0
   29.7370    4.3380   26.7310 H   0  0  0  0  0  0  0  0  0  0  0  0
   31.4340    2.5880   26.3440 H   0  0  0  0  0  0  0  0  0  0  0  0
   30.8260    0.2650   26.7280 H   0  0  0  0  0  0  0  0  0  0  0  0
   28.5030   -0.3260   27.5020 H   0  0  0  0  0  0  0  0  0  0  0  0
   27.7690    5.0270   27.2370 H   0  0  0  0  0  0  0  0  0  0  0  0
   25.1690   10.9230   29.7680 H   0  0  0  0  0  0  0  0  0  0  0  0
   25.2950   13.0660   28.6120 H   0  0  0  0  0  0  0  0  0  0  0  0
   21.4700   14.1530   30.0520 H   0  0  0  0  0  0  0  0  0  0  0  0
   21.3190   12.0040   31.2230 H   0  0  0  0  0  0  0  0  0  0  0  0
  1  2  2  0  0  0  0
  1  3  2  0  0  0  0
  4  1  1  0  0  0  0
  5  4  1  0  0  0  0
  5 34  1  0  0  0  0
  6  5  1  0  0  0  0
  6  7  1  0  0  0  0
  7  8  1  0  0  0  0
  7 10  1  0  0  0  0
  8 37  1  0  0  0  0
  9 40  1  0  0  0  0
  9  8  1  0  0  0  0
  9  4  1  0  0  0  0
 10 11  2  0  0  0  0
 12 10  1  0  0  0  0
 12 42  1  0  0  0  0
 13 43  1  6  0  0  0
 13 12  1  0  0  0  0
 14 13  1  0  0  0  0
 14 44  1  0  0  0  0
 15 14  1  0  0  0  0
 16 15  2  0  0  0  0
 17 15  1  0  0  0  0
 18 23  1  0  0  0  0
 18 17  2  0  0  0  0
 19 18  1  0  0  0  0
 20 19  2  0  0  0  0
 20 21  1  0  0  0  0
 21 22  2  0  0  0  0
 22 48  1  0  0  0  0
 22 17  1  0  0  0  0
 23 24  1  0  0  0  0
 24 13  1  0  0  0  0
 25 24  2  0  0  0  0
 26 31  1  0  0  0  0
 26  1  1  0  0  0  0
 27 26  2  0  0  0  0
 28 29  2  0  0  0  0
 28 27  1  0  0  0  0
 29 30  1  0  0  0  0
 30 52  1  0  0  0  0
 30 31  2  0  0  0  0
 31 53  1  0  0  0  0
 32 29  1  0  0  0  0
 33  5  1  0  0  0  0
 35  6  1  0  0  0  0
 36  6  1  0  0  0  0
 38  8  1  0  0  0  0
 39  9  1  0  0  0  0
 41 12  1  0  0  0  0
 45 19  1  0  0  0  0
 46 20  1  0  0  0  0
 47 21  1  0  0  0  0
 49 23  1  0  0  0  0
 50 27  1  0  0  0  0
 51 28  1  0  0  0  0
M  END
>  <Pose>
1

>  <Score>
-6.58

$$$$
