
 OpenBabel03202209553D

 53 56  0  0  1  0  0  0  0  0999 V2000
   21.1450    5.5730   31.8300 Cl  0  0  0  0  0  0  0  0  0  0  0  0
   22.7110    4.8640   31.4480 C   0  0  0  0  0  0  0  0  0  0  0  0
   23.6110    5.6430   30.7620 C   0  0  0  0  0  0  0  0  0  0  0  0
   24.8670    5.1240   30.5520 C   0  0  0  0  0  0  0  0  0  0  0  0
   25.5060    6.0490   29.8030 N   0  0  0  0  0  0  0  0  0  0  0  0
   24.7000    7.0470   29.5570 N   0  0  0  0  0  0  0  0  0  0  0  0
   23.4600    6.8630   30.1410 C   0  0  0  0  0  0  0  0  0  0  0  0
   22.3850    7.8210   30.1880 C   0  0  0  0  0  0  0  0  0  0  0  0
   22.6070    9.0340   30.9900 N   0  0  0  0  0  0  0  0  0  0  0  0
   22.7520   10.1440   30.0190 C   0  0  0  0  0  0  0  0  0  0  0  0
   24.1980   10.2250   29.8380 C   0  0  2  0  0  0  0  0  0  0  0  0
   24.6600   10.2950   31.2850 C   0  0  2  0  0  0  0  0  0  0  0  0
   23.7450    9.1060   31.8020 C   0  0  0  0  0  0  0  0  0  0  0  0
   24.0990   11.5000   31.9840 C   0  0  0  0  0  0  0  0  0  0  0  0
   25.1410   12.4410   32.1990 O   0  0  0  0  0  0  0  0  0  0  0  0
   24.7000   11.4220   29.0700 C   0  0  0  0  0  0  0  0  0  0  0  0
   25.9670   11.0930   28.4980 N   0  0  0  0  0  0  0  0  0  0  0  0
   26.2490   11.8300   27.2840 C   0  0  0  0  0  0  0  0  0  0  0  0
   27.5140   12.6540   27.3550 C   0  0  0  0  0  0  0  0  0  0  0  0
   28.6280   11.9380   27.7280 O   0  0  0  0  0  0  0  0  0  0  0  0
   28.3450   10.9490   28.6660 C   0  0  0  0  0  0  0  0  0  0  0  0
   27.0830   11.3000   29.3920 C   0  0  0  0  0  0  0  0  0  0  0  0
   26.9310    5.9760   29.4390 C   0  0  0  0  0  0  0  0  0  0  0  0
   25.2350    3.8850   30.9820 C   0  0  0  0  0  0  0  0  0  0  0  0
   24.3040    3.1050   31.6740 C   0  0  0  0  0  0  0  0  0  0  0  0
   23.0280    3.6120   31.9000 C   0  0  0  0  0  0  0  0  0  0  0  0
   21.7920    8.0690   29.3450 H   0  0  0  0  0  0  0  0  0  0  0  0
   21.5910    7.3050   30.8910 H   0  0  0  0  0  0  0  0  0  0  0  0
   22.1020   10.0640   29.1520 H   0  0  0  0  0  0  0  0  0  0  0  0
   22.3650   11.0570   30.5570 H   0  0  0  0  0  0  0  0  0  0  0  0
   24.6810    9.3540   29.4200 H   0  0  0  0  0  0  0  0  0  0  0  0
   25.6930   10.0560   31.4180 H   0  0  0  0  0  0  0  0  0  0  0  0
   24.4220    8.2930   31.8860 H   0  0  0  0  0  0  0  0  0  0  0  0
   23.4750    9.4310   32.8660 H   0  0  0  0  0  0  0  0  0  0  0  0
   23.8450   11.1970   33.0740 H   0  0  0  0  0  0  0  0  0  0  0  0
   23.2290   11.9770   31.6170 H   0  0  0  0  0  0  0  0  0  0  0  0
   25.5870   12.1510   33.0850 H   0  0  0  0  0  0  0  0  0  0  0  0
   23.9830   11.5820   28.2530 H   0  0  0  0  0  0  0  0  0  0  0  0
   24.7350   12.3270   29.6910 H   0  0  0  0  0  0  0  0  0  0  0  0
   26.2970   11.1190   26.4500 H   0  0  0  0  0  0  0  0  0  0  0  0
   25.4200   12.5610   27.0560 H   0  0  0  0  0  0  0  0  0  0  0  0
   27.3140   13.5380   27.9640 H   0  0  0  0  0  0  0  0  0  0  0  0
   27.6950   12.9980   26.3030 H   0  0  0  0  0  0  0  0  0  0  0  0
   28.2350   10.0010   28.1140 H   0  0  0  0  0  0  0  0  0  0  0  0
   29.2100   10.8930   29.3790 H   0  0  0  0  0  0  0  0  0  0  0  0
   26.9650   10.6900   30.3120 H   0  0  0  0  0  0  0  0  0  0  0  0
   27.0980   12.3820   29.6250 H   0  0  0  0  0  0  0  0  0  0  0  0
   27.5130    5.7540   30.4030 H   0  0  0  0  0  0  0  0  0  0  0  0
   27.3180    6.9690   29.1570 H   0  0  0  0  0  0  0  0  0  0  0  0
   27.1000    5.1420   28.7990 H   0  0  0  0  0  0  0  0  0  0  0  0
   26.2060    3.4050   30.7230 H   0  0  0  0  0  0  0  0  0  0  0  0
   24.5190    2.1200   31.9890 H   0  0  0  0  0  0  0  0  0  0  0  0
   22.2780    3.0730   32.4290 H   0  0  0  0  0  0  0  0  0  0  0  0
  2  1  1  0  0  0  0
  2 26  1  0  0  0  0
  3  2  2  0  0  0  0
  4  3  1  0  0  0  0
  4 24  2  0  0  0  0
  5  4  1  0  0  0  0
  6  5  1  0  0  0  0
  6  7  2  0  0  0  0
  7  8  1  0  0  0  0
  7  3  1  0  0  0  0
  8 28  1  0  0  0  0
  8  9  1  0  0  0  0
  9 13  1  0  0  0  0
 10 30  1  0  0  0  0
 10  9  1  0  0  0  0
 11 31  1  6  0  0  0
 11 10  1  0  0  0  0
 11 12  1  0  0  0  0
 12 32  1  1  0  0  0
 12 13  1  0  0  0  0
 12 14  1  0  0  0  0
 13 33  1  0  0  0  0
 13 34  1  0  0  0  0
 14 15  1  0  0  0  0
 14 35  1  0  0  0  0
 15 37  1  0  0  0  0
 16 39  1  0  0  0  0
 16 11  1  0  0  0  0
 17 16  1  0  0  0  0
 17 22  1  0  0  0  0
 18 19  1  0  0  0  0
 18 17  1  0  0  0  0
 19 20  1  0  0  0  0
 19 42  1  0  0  0  0
 20 21  1  0  0  0  0
 21 45  1  0  0  0  0
 21 22  1  0  0  0  0
 22 47  1  0  0  0  0
 22 46  1  0  0  0  0
 23  5  1  0  0  0  0
 23 48  1  0  0  0  0
 24 25  1  0  0  0  0
 25 26  2  0  0  0  0
 25 52  1  0  0  0  0
 26 53  1  0  0  0  0
 27  8  1  0  0  0  0
 29 10  1  0  0  0  0
 36 14  1  0  0  0  0
 38 16  1  0  0  0  0
 40 18  1  0  0  0  0
 41 18  1  0  0  0  0
 43 19  1  0  0  0  0
 44 21  1  0  0  0  0
 49 23  1  0  0  0  0
 50 23  1  0  0  0  0
 51 24  1  0  0  0  0
M  END
>  <Pose>
1

>  <Score>
-5.81

$$$$
