
 OpenBabel03202209553D

 58 62  0  0  1  0  0  0  0  0999 V2000
   21.4690   16.0670   31.2220 B   0  0  0  0  0  0  0  0  0  0  0  0
   22.5630   14.5450   30.7760 C   0  0  0  0  0  0  0  0  0  0  0  0
   23.3240   13.9150   31.7120 C   0  0  0  0  0  0  0  0  0  0  0  0
   24.0970   12.8360   31.3910 C   0  0  0  0  0  0  0  0  0  0  0  0
   24.1520   12.3300   30.1080 C   0  0  0  0  0  0  0  0  0  0  0  0
   23.3960   12.9560   29.1760 C   0  0  0  0  0  0  0  0  0  0  0  0
   22.5890   14.0750   29.4930 C   0  0  0  0  0  0  0  0  0  0  0  0
   25.0060   11.1910   29.8480 C   0  0  0  0  0  0  0  0  0  0  0  0
   25.9780   11.1840   28.8340 C   0  0  0  0  0  0  0  0  0  0  0  0
   26.5780   10.0020   28.8900 N   0  0  0  0  0  0  0  0  0  0  0  0
   27.5770    9.3160   28.2530 C   0  0  0  0  0  0  0  0  0  0  0  0
   27.6460    8.1030   28.8910 C   0  0  0  0  0  0  0  0  0  0  0  0
   26.7280    8.1050   29.8450 N   0  0  0  0  0  0  0  0  0  0  0  0
   26.0500    9.2890   29.8560 C   0  0  1  0  0  0  0  0  0  0  0  0
   25.0640   10.0080   30.4700 N   0  0  0  0  0  0  0  0  0  0  0  0
   24.3300    9.4710   31.5740 C   0  0  0  0  0  0  0  0  0  0  0  0
   22.8940    9.7990   31.6590 C   0  0  0  0  0  0  0  0  0  0  0  0
   21.9030    8.8190   31.1430 C   0  0  0  0  0  0  0  0  0  0  0  0
   21.6540    7.7520   32.0860 N   0  0  0  0  0  4  0  0  0  0  0  0
   20.3700    7.8400   32.7160 C   0  0  0  0  0  0  0  0  0  0  0  0
   19.6510    9.1440   32.5140 C   0  0  0  0  0  0  0  0  0  0  0  0
   18.5900    9.2220   33.6230 C   0  0  0  0  0  0  0  0  0  0  0  0
   17.6350    8.0940   33.4440 C   0  0  0  0  0  0  0  0  0  0  0  0
   18.3000    6.7400   33.3490 C   0  0  0  0  0  0  0  0  0  0  0  0
   19.3960    6.7530   32.2780 C   0  0  0  0  0  0  0  0  0  0  0  0
   28.5690    7.1280   28.5020 C   0  0  0  0  0  0  0  0  0  0  0  0
   29.4310    7.3830   27.4570 C   0  0  0  0  0  0  0  0  0  0  0  0
   29.3400    8.6070   26.8340 C   0  0  0  0  0  0  0  0  0  0  0  0
   28.4260    9.5820   27.2140 C   0  0  0  0  0  0  0  0  0  0  0  0
   23.3140   14.2820   32.7500 H   0  0  0  0  0  0  0  0  0  0  0  0
   24.6910   12.3670   32.2020 H   0  0  0  0  0  0  0  0  0  0  0  0
   23.3360   12.6920   28.1580 H   0  0  0  0  0  0  0  0  0  0  0  0
   21.9910   14.5670   28.7460 H   0  0  0  0  0  0  0  0  0  0  0  0
   26.1990   11.9870   28.1370 H   0  0  0  0  0  0  0  0  0  0  0  0
   26.5800    7.3030   30.4860 H   0  0  0  0  0  0  0  0  0  0  0  0
   24.8440    9.6020   32.5220 H   0  0  0  0  0  0  0  0  0  0  0  0
   24.3360    8.3150   31.4210 H   0  0  0  0  0  0  0  0  0  0  0  0
   22.6740    9.8710   32.7780 H   0  0  0  0  0  0  0  0  0  0  0  0
   22.6370   10.8520   31.3290 H   0  0  0  0  0  0  0  0  0  0  0  0
   22.2010    8.3430   30.1860 H   0  0  0  0  0  0  0  0  0  0  0  0
   20.9280    9.3740   31.0440 H   0  0  0  0  0  0  0  0  0  0  0  0
   21.8660    6.8080   31.7710 H   0  0  0  0  0  0  0  0  0  0  0  0
   22.3650    7.9150   32.8890 H   0  0  0  0  0  0  0  0  0  0  0  0
   20.4540    7.6950   33.8350 H   0  0  0  0  0  0  0  0  0  0  0  0
   20.2940   10.0230   32.5230 H   0  0  0  0  0  0  0  0  0  0  0  0
   19.0560    9.0810   31.5590 H   0  0  0  0  0  0  0  0  0  0  0  0
   19.1070    9.1700   34.6150 H   0  0  0  0  0  0  0  0  0  0  0  0
   18.0300   10.1670   33.5190 H   0  0  0  0  0  0  0  0  0  0  0  0
   16.9670    8.0620   34.3290 H   0  0  0  0  0  0  0  0  0  0  0  0
   17.0180    8.2780   32.5460 H   0  0  0  0  0  0  0  0  0  0  0  0
   17.5260    6.0160   33.0470 H   0  0  0  0  0  0  0  0  0  0  0  0
   18.7500    6.5060   34.3150 H   0  0  0  0  0  0  0  0  0  0  0  0
   18.9280    7.0270   31.2990 H   0  0  0  0  0  0  0  0  0  0  0  0
   19.9090    5.7930   32.2890 H   0  0  0  0  0  0  0  0  0  0  0  0
   28.6310    6.1740   28.9960 H   0  0  0  0  0  0  0  0  0  0  0  0
   30.1700    6.6410   27.1220 H   0  0  0  0  0  0  0  0  0  0  0  0
   30.0120    8.8050   26.0190 H   0  0  0  0  0  0  0  0  0  0  0  0
   28.3580   10.5340   26.7280 H   0  0  0  0  0  0  0  0  0  0  0  0
  2  1  1  0  0  0  0
  2  3  1  0  0  0  0
  3 30  1  0  0  0  0
  4  3  2  0  0  0  0
  4 31  1  0  0  0  0
  5  4  1  0  0  0  0
  6  7  1  0  0  0  0
  6  5  2  0  0  0  0
  7  2  2  0  0  0  0
  8  5  1  0  0  0  0
  8 15  1  0  0  0  0
  9 10  1  0  0  0  0
  9  8  2  0  0  0  0
 11 10  1  0  0  0  0
 11 12  1  0  0  0  0
 12 13  1  0  0  0  0
 13 14  1  0  0  0  0
 13 35  1  0  0  0  0
 14 10  1  1  0  0  0
 14 15  1  0  0  0  0
 15 16  1  0  0  0  0
 16 17  1  0  0  0  0
 16 36  1  0  0  0  0
 17 38  1  0  0  0  0
 18 17  1  0  0  0  0
 18 19  1  0  0  0  0
 19 20  1  0  0  0  0
 19 43  1  0  0  0  0
 20 44  1  0  0  0  0
 21 45  1  0  0  0  0
 21 20  1  0  0  0  0
 21 22  1  0  0  0  0
 22 47  1  0  0  0  0
 23 22  1  0  0  0  0
 23 49  1  0  0  0  0
 24 23  1  0  0  0  0
 24 52  1  0  0  0  0
 25 54  1  0  0  0  0
 25 20  1  0  0  0  0
 25 24  1  0  0  0  0
 26 12  2  0  0  0  0
 26 55  1  0  0  0  0
 27 26  1  0  0  0  0
 28 29  1  0  0  0  0
 28 27  2  0  0  0  0
 29 11  2  0  0  0  0
 32  6  1  0  0  0  0
 33  7  1  0  0  0  0
 34  9  1  0  0  0  0
 37 16  1  0  0  0  0
 39 17  1  0  0  0  0
 40 18  1  0  0  0  0
 41 18  1  0  0  0  0
 42 19  1  0  0  0  0
 46 21  1  0  0  0  0
 48 22  1  0  0  0  0
 50 23  1  0  0  0  0
 51 24  1  0  0  0  0
 53 25  1  0  0  0  0
 56 27  1  0  0  0  0
 57 28  1  0  0  0  0
 58 29  1  0  0  0  0
M  END
>  <Pose>
1

>  <Score>
-7.10

$$$$
