
 OpenBabel03202209553D

 49 52  0  0  1  0  0  0  0  0999 V2000
   24.0330   17.9830   26.0470 B   0  0  0  0  0  0  0  0  0  0  0  0
   24.0550   16.4500   27.1740 C   0  0  0  0  0  0  0  0  0  0  0  0
   22.9820   16.1550   27.9850 C   0  0  0  0  0  0  0  0  0  0  0  0
   22.9800   15.0610   28.7980 C   0  0  0  0  0  0  0  0  0  0  0  0
   22.1000   14.5180   29.6860 N   0  0  0  0  0  0  0  0  0  0  0  0
   22.6220   13.4210   30.2120 N   0  0  0  0  0  0  0  0  0  0  0  0
   23.8420   13.1950   29.7080 C   0  0  0  0  0  0  0  0  0  0  0  0
   24.0740   14.2310   28.8110 C   0  0  0  0  0  0  0  0  0  0  0  0
   25.1710   14.5050   28.0030 C   0  0  0  0  0  0  0  0  0  0  0  0
   25.1700   15.6100   27.1820 C   0  0  0  0  0  0  0  0  0  0  0  0
   24.7660   12.1500   29.9680 N   0  0  0  0  0  0  0  0  0  0  0  0
   24.9560   11.4320   31.2270 C   0  0  0  0  0  0  0  0  0  0  0  0
   25.1870   10.0080   30.7730 C   0  0  2  0  0  0  0  0  0  0  0  0
   26.1160   10.1980   29.5800 C   0  0  0  0  0  0  0  0  0  0  0  0
   25.7180   11.5600   29.0790 C   0  0  0  0  0  0  0  0  0  0  0  0
   26.1550   12.1120   28.0250 O   0  0  0  0  0  0  0  0  0  0  0  0
   23.9280    9.3530   30.3460 C   0  0  0  0  0  0  0  0  0  0  0  0
   23.6130    9.4100   29.1320 O   0  0  0  0  0  0  0  0  0  0  0  0
   23.0790    8.6730   31.2480 N   0  0  0  0  0  0  0  0  0  0  0  0
   22.2520    9.3570   32.2090 C   0  0  0  0  0  0  0  0  0  0  0  0
   21.1660    8.4220   32.6970 C   0  0  0  0  0  0  0  0  0  0  0  0
   19.8490    9.0080   32.6360 N   0  0  0  0  0  0  0  0  0  0  0  0
   18.9530    8.0090   32.0650 C   0  0  0  0  0  0  0  0  0  0  0  0
   18.4600    7.0570   33.1520 C   0  0  0  0  0  0  0  0  0  0  0  0
   17.6300    7.6730   34.0580 O   0  0  0  0  0  0  0  0  0  0  0  0
   17.8640    9.0280   34.0490 C   0  0  0  0  0  0  0  0  0  0  0  0
   19.3400    9.3540   33.9440 C   0  0  0  0  0  0  0  0  0  0  0  0
   22.1120   16.7970   27.9860 H   0  0  0  0  0  0  0  0  0  0  0  0
   21.1720   14.9810   29.8530 H   0  0  0  0  0  0  0  0  0  0  0  0
   26.0410   13.8300   28.0260 H   0  0  0  0  0  0  0  0  0  0  0  0
   26.0420   15.8110   26.5530 H   0  0  0  0  0  0  0  0  0  0  0  0
   24.1170   11.5480   31.9220 H   0  0  0  0  0  0  0  0  0  0  0  0
   25.8820   11.7830   31.7270 H   0  0  0  0  0  0  0  0  0  0  0  0
   25.7330    9.4350   31.5400 H   0  0  0  0  0  0  0  0  0  0  0  0
   25.7870    9.4940   28.7870 H   0  0  0  0  0  0  0  0  0  0  0  0
   27.1690   10.1360   29.8420 H   0  0  0  0  0  0  0  0  0  0  0  0
   23.0680    7.6230   31.1970 H   0  0  0  0  0  0  0  0  0  0  0  0
   21.7130   10.1620   31.6360 H   0  0  0  0  0  0  0  0  0  0  0  0
   22.7960    9.8380   33.0190 H   0  0  0  0  0  0  0  0  0  0  0  0
   21.3560    8.1900   33.7780 H   0  0  0  0  0  0  0  0  0  0  0  0
   21.1880    7.4520   32.1630 H   0  0  0  0  0  0  0  0  0  0  0  0
   18.0890    8.4300   31.5570 H   0  0  0  0  0  0  0  0  0  0  0  0
   19.5610    7.4020   31.3560 H   0  0  0  0  0  0  0  0  0  0  0  0
   17.8890    6.2570   32.5990 H   0  0  0  0  0  0  0  0  0  0  0  0
   19.3020    6.5880   33.6990 H   0  0  0  0  0  0  0  0  0  0  0  0
   17.3220    9.5670   33.2480 H   0  0  0  0  0  0  0  0  0  0  0  0
   17.4880    9.4260   35.0220 H   0  0  0  0  0  0  0  0  0  0  0  0
   19.4210   10.4530   34.1420 H   0  0  0  0  0  0  0  0  0  0  0  0
   19.8960    8.8430   34.7630 H   0  0  0  0  0  0  0  0  0  0  0  0
  1  2  1  0  0  0  0
  2 10  2  0  0  0  0
  2  3  1  0  0  0  0
  3 28  1  0  0  0  0
  3  4  2  0  0  0  0
  4  8  1  0  0  0  0
  4  5  1  0  0  0  0
  5 29  1  0  0  0  0
  5  6  1  0  0  0  0
  7 11  1  0  0  0  0
  7  6  2  0  0  0  0
  8  7  1  0  0  0  0
  9 30  1  0  0  0  0
  9  8  2  0  0  0  0
 10  9  1  0  0  0  0
 11 12  1  0  0  0  0
 12 33  1  0  0  0  0
 12 32  1  0  0  0  0
 13 12  1  0  0  0  0
 13 34  1  1  0  0  0
 14 36  1  0  0  0  0
 14 13  1  0  0  0  0
 15 14  1  0  0  0  0
 15 11  1  0  0  0  0
 16 15  2  0  0  0  0
 17 13  1  0  0  0  0
 17 19  1  0  0  0  0
 18 17  2  0  0  0  0
 19 20  1  0  0  0  0
 20 21  1  0  0  0  0
 20 39  1  0  0  0  0
 21 40  1  0  0  0  0
 22 21  1  0  0  0  0
 22 27  1  0  0  0  0
 23 22  1  0  0  0  0
 23 24  1  0  0  0  0
 24 45  1  0  0  0  0
 24 25  1  0  0  0  0
 26 25  1  0  0  0  0
 26 47  1  0  0  0  0
 27 26  1  0  0  0  0
 27 48  1  0  0  0  0
 27 49  1  0  0  0  0
 31 10  1  0  0  0  0
 35 14  1  0  0  0  0
 37 19  1  0  0  0  0
 38 20  1  0  0  0  0
 41 21  1  0  0  0  0
 42 23  1  0  0  0  0
 43 23  1  0  0  0  0
 44 24  1  0  0  0  0
 46 26  1  0  0  0  0
M  END
>  <Pose>
1

>  <Score>
-6.63

$$$$
