2


 38 41  0  0  0  0  0  0  0  0999 V2000
   12.4809   66.4152  -14.8954 C   0  0  0  0  0  0  0  0  0  0  0  0
   12.8997   67.6377  -15.3761 N   0  0  0  0  0  0  0  0  0  0  0  0
   11.8761   68.2249  -15.9079 N   0  0  0  0  0  0  0  0  0  0  0  0
   10.7838   67.4204  -15.7929 N   0  0  0  0  0  0  0  0  0  0  0  0
   11.1252   66.2937  -15.1705 C   0  0  0  0  0  0  0  0  0  0  0  0
    9.5289   67.8575  -16.3204 C   0  0  0  0  0  0  0  0  0  0  0  0
    8.5823   67.2213  -16.9987 N   0  0  0  0  0  0  0  0  0  0  0  0
    7.6238   68.0612  -17.2134 O   0  0  0  0  0  0  0  0  0  0  0  0
    7.8844   69.2276  -16.7120 N   0  0  0  0  0  0  0  0  0  0  0  0
    9.0748   69.1725  -16.1303 C   0  0  0  0  0  0  0  0  0  0  0  0
    9.7926   70.1871  -15.4466 N   0  0  0  0  0  0  0  0  0  0  0  0
    9.3532   70.6653  -14.6329 H   0  0  0  0  0  0  0  0  0  0  0  0
   10.7695   70.4855  -15.7315 H   0  0  0  0  0  0  0  0  0  0  0  0
   13.2155   64.7908  -13.0301 N   0  0  0  0  0  0  0  0  0  0  0  0
   13.3719   65.4963  -14.2286 C   0  0  0  0  0  0  0  0  0  0  0  0
   14.5001   65.2970  -14.8545 O   0  0  0  0  0  0  0  0  0  0  0  0
   12.4067   64.8228  -12.4319 H   0  0  0  0  0  0  0  0  0  0  0  0
   14.9443   64.1691  -11.5487 C   0  0  0  0  0  0  0  0  0  0  0  0
   14.3107   63.9456  -12.6382 N   0  0  0  0  0  0  0  0  0  0  0  0
   16.6277   59.3405  -10.0357 Br  0  0  0  0  0  0  0  0  0  0  0  0
   16.9287   61.1995  -10.4107 C   0  0  0  0  0  0  0  0  0  0  0  0
   18.2048   61.7047  -10.2510 C   0  0  0  0  0  0  0  0  0  0  0  0
   18.3992   63.0408  -10.5259 C   0  0  0  0  0  0  0  0  0  0  0  0
   17.3445   63.8347  -10.9448 C   0  0  0  0  0  0  0  0  0  0  0  0
   16.0687   63.3345  -11.1053 C   0  0  0  0  0  0  0  0  0  0  0  0
   15.8820   61.9963  -10.8280 C   0  0  0  0  0  0  0  0  0  0  0  0
   14.5800   61.4895  -10.9927 O   0  0  0  0  0  0  0  0  0  0  0  0
   20.1666   63.7362  -10.3040 Br  0  0  0  0  0  0  0  0  0  0  0  0
   19.2445   60.8750   -9.8270 O   0  0  0  0  0  0  0  0  0  0  0  0
   14.4008   60.5158  -10.8018 H   0  0  0  0  0  0  0  0  0  0  0  0
   10.2910   65.1444  -14.8210 C   0  0  0  0  0  0  0  0  0  0  0  0
    9.6041   64.4401  -15.8371 N   0  0  0  0  0  0  0  0  0  0  0  0
    8.5773   63.5438  -15.3263 C   0  0  0  0  0  0  0  0  0  0  0  0
    9.1151   62.6527  -14.2797 C   0  0  0  0  0  0  0  0  0  0  0  0
   10.3809   62.2330  -14.3270 O   0  0  0  0  0  0  0  0  0  0  0  0
   11.1994   62.6745  -15.3155 C   0  0  0  0  0  0  0  0  0  0  0  0
   10.5841   63.4569  -16.4034 C   0  0  0  0  0  0  0  0  0  0  0  0
    9.2794   65.0320  -16.5875 H   0  0  0  0  0  0  0  0  0  0  0  0
 20 21  1  0  0  0
 21 22  2  0  0  0
 21 26  1  0  0  0
 22 23  1  0  0  0
 22 29  1  0  0  0
 23 24  2  0  0  0
 23 28  1  0  0  0
 24 25  1  0  0  0
 25 26  2  0  0  0
 25 18  1  0  0  0
 26 27  1  0  0  0
 18 19  2  0  0  0
 19 14  1  0  0  0
 14 15  1  0  0  0
 15 16  2  0  0  0
 15  1  1  0  0  0
  1  2  1  0  0  0
  1  5  2  0  0  0
  2  3  2  0  0  0
  3  4  1  0  0  0
  4  5  1  0  0  0
  4  6  1  0  0  0
  5 31  1  0  0  0
 31 32  1  0  0  0
 32 33  1  0  0  0
 32 37  1  0  0  0
 33 34  1  0  0  0
 34 35  1  0  0  0
 35 36  1  0  0  0
 36 37  1  0  0  0
  6  7  2  0  0  0
  6 10  1  0  0  0
  7  8  1  0  0  0
  8  9  1  0  0  0
  9 10  2  0  0  0
 10 11  1  0  0  0
 27 30  1  0  0  0
 14 17  1  0  0  0
 32 38  1  0  0  0
 11 12  1  0  0  0
 11 13  1  0  0  0
M  CHG 1  29  -1
M  CHG 1  32   1
M  END
> <minimizedAffinity>
-7.01595

$$$$
3


 38 41  0  0  0  0  0  0  0  0999 V2000
   12.8018   66.7270  -15.0790 C   0  0  0  0  0  0  0  0  0  0  0  0
   13.1780   67.9198  -15.6441 N   0  0  0  0  0  0  0  0  0  0  0  0
   12.1248   68.5258  -16.1179 N   0  0  0  0  0  0  0  0  0  0  0  0
   11.0272   67.8184  -15.9124 N   0  0  0  0  0  0  0  0  0  0  0  0
   11.4167   66.7017  -15.2744 C   0  0  0  0  0  0  0  0  0  0  0  0
    9.7291   68.2411  -16.2905 C   0  0  0  0  0  0  0  0  0  0  0  0
    8.7598   67.5594  -16.9376 N   0  0  0  0  0  0  0  0  0  0  0  0
    7.7052   68.3177  -17.0799 O   0  0  0  0  0  0  0  0  0  0  0  0
    7.9167   69.4968  -16.5533 N   0  0  0  0  0  0  0  0  0  0  0  0
    9.1636   69.4847  -16.0533 C   0  0  0  0  0  0  0  0  0  0  0  0
    9.7672   70.5799  -15.3984 N   0  0  0  0  0  0  0  0  0  0  0  0
    9.4277   70.8491  -14.4572 H   0  0  0  0  0  0  0  0  0  0  0  0
   10.5383   71.1275  -15.8210 H   0  0  0  0  0  0  0  0  0  0  0  0
   13.7393   65.3451  -13.1351 N   0  0  0  0  0  0  0  0  0  0  0  0
   13.7019   65.7764  -14.4541 C   0  0  0  0  0  0  0  0  0  0  0  0
   14.5826   65.2743  -15.2493 O   0  0  0  0  0  0  0  0  0  0  0  0
   13.1115   65.6430  -12.3511 H   0  0  0  0  0  0  0  0  0  0  0  0
   15.3309   64.4713  -11.6453 C   0  0  0  0  0  0  0  0  0  0  0  0
   14.7493   64.3843  -12.7883 N   0  0  0  0  0  0  0  0  0  0  0  0
   16.5904   59.5626  -10.0760 Br  0  0  0  0  0  0  0  0  0  0  0  0
   17.0594   61.3557  -10.4684 C   0  0  0  0  0  0  0  0  0  0  0  0
   18.3513   61.7702  -10.3260 C   0  0  0  0  0  0  0  0  0  0  0  0
   18.6649   63.0945  -10.6209 C   0  0  0  0  0  0  0  0  0  0  0  0
   17.6630   63.9592  -11.0501 C   0  0  0  0  0  0  0  0  0  0  0  0
   16.3641   63.5512  -11.1954 C   0  0  0  0  0  0  0  0  0  0  0  0
   16.0686   62.2390  -10.9000 C   0  0  0  0  0  0  0  0  0  0  0  0
   14.7504   61.8369  -11.0510 O   0  0  0  0  0  0  0  0  0  0  0  0
   20.4507   63.7021  -10.4344 Br  0  0  0  0  0  0  0  0  0  0  0  0
   19.3649   60.9243   -9.9000 O   0  0  0  0  0  0  0  0  0  0  0  0
   14.4824   60.8823  -10.8464 H   0  0  0  0  0  0  0  0  0  0  0  0
   20.3109   61.2550   -9.8022 H   0  0  0  0  0  0  0  0  0  0  0  0
   10.5566   65.6145  -14.7978 C   0  0  0  0  0  0  0  0  0  0  0  0
   10.5652   64.4211  -15.6481 N   0  0  0  0  0  0  0  0  0  0  0  0
    9.2048   64.2189  -16.1840 C   0  0  0  0  0  0  0  0  0  0  0  0
    8.2061   64.3477  -15.0874 C   0  0  0  0  0  0  0  0  0  0  0  0
    8.5346   63.4962  -14.0612 O   0  0  0  0  0  0  0  0  0  0  0  0
    9.5388   62.6126  -14.3580 C   0  0  0  0  0  0  0  0  0  0  0  0
   10.8368   63.2464  -14.7859 C   0  0  0  0  0  0  0  0  0  0  0  0
 20 21  1  0  0  0
 21 22  2  0  0  0
 21 26  1  0  0  0
 22 23  1  0  0  0
 22 29  1  0  0  0
 23 24  2  0  0  0
 23 28  1  0  0  0
 24 25  1  0  0  0
 25 26  2  0  0  0
 25 18  1  0  0  0
 26 27  1  0  0  0
 18 19  2  0  0  0
 19 14  1  0  0  0
 14 15  1  0  0  0
 15 16  2  0  0  0
 15  1  1  0  0  0
  1  2  1  0  0  0
  1  5  2  0  0  0
  2  3  2  0  0  0
  3  4  1  0  0  0
  4  5  1  0  0  0
  4  6  1  0  0  0
  5 32  1  0  0  0
 32 33  1  0  0  0
 33 34  1  0  0  0
 33 38  1  0  0  0
 34 35  1  0  0  0
 35 36  1  0  0  0
 36 37  1  0  0  0
 37 38  1  0  0  0
  6  7  2  0  0  0
  6 10  1  0  0  0
  7  8  1  0  0  0
  8  9  1  0  0  0
  9 10  2  0  0  0
 10 11  1  0  0  0
 27 30  1  0  0  0
 14 17  1  0  0  0
 11 12  1  0  0  0
 11 13  1  0  0  0
 29 31  1  0  0  0
M  END
> <minimizedAffinity>
-7.33488

$$$$
4


 34 37  0  0  0  0  0  0  0  0999 V2000
   23.1115   63.6684   -8.3514 C   0  0  0  0  0  0  0  0  0  0  0  0
   22.6874   64.8889   -8.0314 N   0  0  0  0  0  0  0  0  0  0  0  0
   22.9272   65.4555   -6.8139 C   0  0  0  0  0  0  0  0  0  0  0  0
   23.6172   64.7157   -5.9488 N   0  0  0  0  0  0  0  0  0  0  0  0
   24.0852   63.4705   -6.1916 C   0  0  0  0  0  0  0  0  0  0  0  0
   23.8001   62.9787   -7.4343 N   0  0  0  0  0  0  0  0  0  0  0  0
   24.8112   62.7250   -5.2449 N   0  0  0  0  0  0  0  0  0  0  0  0
   24.2355   62.3882   -3.9805 C   0  0  0  0  0  0  0  0  0  0  0  0
   25.2366   62.8112   -2.9017 C   0  0  0  0  0  0  0  0  0  0  0  0
   26.3346   63.4488   -3.4374 O   0  0  0  0  0  0  0  0  0  0  0  0
   27.0240   62.7102   -4.3667 C   0  0  0  0  0  0  0  0  0  0  0  0
   26.1429   62.2925   -5.5381 C   0  0  0  0  0  0  0  0  0  0  0  0
   22.4687   66.7513   -6.4947 N   0  0  0  0  0  0  0  0  0  0  0  0
   21.0862   67.0964   -6.6749 C   0  0  0  0  0  0  0  0  0  0  0  0
   21.0452   68.4383   -7.3888 C   0  0  0  0  0  0  0  0  0  0  0  0
   21.9142   69.3589   -6.8166 O   0  0  0  0  0  0  0  0  0  0  0  0
   23.2347   68.9744   -6.8703 C   0  0  0  0  0  0  0  0  0  0  0  0
   23.3877   67.7299   -5.9868 C   0  0  0  0  0  0  0  0  0  0  0  0
   22.8409   63.1131   -9.6320 N   0  0  0  0  0  0  0  0  0  0  0  0
   23.5622   62.8090  -10.2942 H   0  0  0  0  0  0  0  0  0  0  0  0
   20.5248   62.9050   -9.2277 C   0  0  0  0  0  0  0  0  0  0  0  0
   21.5025   62.9579  -10.0428 N   0  0  0  0  0  0  0  0  0  0  0  0
   16.4533   59.6720  -10.5984 Br  0  0  0  0  0  0  0  0  0  0  0  0
   17.2430   61.3777  -10.2543 C   0  0  0  0  0  0  0  0  0  0  0  0
   16.4430   62.4947  -10.3951 C   0  0  0  0  0  0  0  0  0  0  0  0
   17.0075   63.7270  -10.1484 C   0  0  0  0  0  0  0  0  0  0  0  0
   18.3322   63.8515   -9.7695 C   0  0  0  0  0  0  0  0  0  0  0  0
   19.1361   62.7455   -9.6266 C   0  0  0  0  0  0  0  0  0  0  0  0
   18.5695   61.5124   -9.8742 C   0  0  0  0  0  0  0  0  0  0  0  0
   19.3543   60.3921   -9.7366 O   0  0  0  0  0  0  0  0  0  0  0  0
   15.9094   65.2842  -10.3411 Br  0  0  0  0  0  0  0  0  0  0  0  0
   15.1113   62.3505  -10.7779 O   0  0  0  0  0  0  0  0  0  0  0  0
   18.9701   59.4589   -9.9121 H   0  0  0  0  0  0  0  0  0  0  0  0
   14.5332   63.1680  -10.8789 H   0  0  0  0  0  0  0  0  0  0  0  0
 23 24  1  0  0  0
 24 25  2  0  0  0
 24 29  1  0  0  0
 25 26  1  0  0  0
 25 32  1  0  0  0
 26 27  2  0  0  0
 26 31  1  0  0  0
 27 28  1  0  0  0
 28 29  2  0  0  0
 28 21  1  0  0  0
 29 30  1  0  0  0
 21 22  2  0  0  0
 22 19  1  0  0  0
 19  1  1  0  0  0
  1  2  2  0  0  0
  1  6  1  0  0  0
  2  3  1  0  0  0
  3  4  2  0  0  0
  3 13  1  0  0  0
  4  5  1  0  0  0
  5  6  2  0  0  0
  5  7  1  0  0  0
  7  8  1  0  0  0
  7 12  1  0  0  0
  8  9  1  0  0  0
  9 10  1  0  0  0
 10 11  1  0  0  0
 11 12  1  0  0  0
 13 14  1  0  0  0
 13 18  1  0  0  0
 14 15  1  0  0  0
 15 16  1  0  0  0
 16 17  1  0  0  0
 17 18  1  0  0  0
 30 33  1  0  0  0
 19 20  1  0  0  0
 32 34  1  0  0  0
M  END
> <minimizedAffinity>
-9.44129

$$$$
5


 38 41  0  0  0  0  0  0  0  0999 V2000
   21.9634   63.3324   -9.8586 N   0  0  0  0  0  0  0  0  0  0  0  0
   22.1387   63.2921  -11.2061 C   0  0  0  0  0  0  0  0  0  0  0  0
   23.4407   63.5918  -11.5067 C   0  0  0  0  0  0  0  0  0  0  0  0
   24.0261   63.8029  -10.3458 N   0  0  0  0  0  0  0  0  0  0  0  0
   23.1529   63.6492   -9.3132 C   0  0  0  0  0  0  0  0  0  0  0  0
   23.9527   63.6234  -12.7756 N   0  0  0  0  0  0  0  0  0  0  0  0
   23.1043   63.3350  -13.7701 C   0  0  0  0  0  0  0  0  0  0  0  0
   23.5797   63.3658  -14.9404 O   0  0  0  0  0  0  0  0  0  0  0  0
   21.8150   63.0299  -13.5270 N   0  0  0  0  0  0  0  0  0  0  0  0
   21.2993   62.9959  -12.2878 C   0  0  0  0  0  0  0  0  0  0  0  0
   19.9798   62.6752  -12.0666 O   0  0  0  0  0  0  0  0  0  0  0  0
   25.3539   63.9652  -12.9773 C   0  0  0  0  0  0  0  0  0  0  0  0
   23.5750   63.7104   -7.9386 N   0  0  0  0  0  0  0  0  0  0  0  0
   24.1724   62.6849   -7.1735 C   0  0  0  0  0  0  0  0  0  0  0  0
   24.5230   63.2788   -5.7816 C   0  0  0  0  0  0  0  0  0  0  0  0
   23.2435   63.6522   -5.2100 N   0  0  0  0  0  0  0  0  0  0  0  0
   22.9516   64.9441   -5.8598 C   0  0  0  0  0  0  0  0  0  0  0  0
   23.4040   65.0039   -7.2637 C   0  0  0  0  0  0  0  0  0  0  0  0
   22.4609   63.0202   -5.4826 H   0  0  0  0  0  0  0  0  0  0  0  0
   23.3319   63.8378   -3.7755 C   0  0  0  0  0  0  0  0  0  0  0  0
   24.7222   63.4535   -3.3193 C   0  0  0  0  0  0  0  0  0  0  0  0
   25.3512   64.5787   -2.7722 O   0  0  0  0  0  0  0  0  0  0  0  0
   26.1792   64.8023   -3.2798 H   0  0  0  0  0  0  0  0  0  0  0  0
   20.7474   63.0774   -9.1723 C   0  0  0  0  0  0  0  0  0  0  0  0
   19.4472   63.2009   -9.8099 C   0  0  0  0  0  0  0  0  0  0  0  0
   18.9305   64.4874  -10.0452 O   0  0  0  0  0  0  0  0  0  0  0  0
   19.4652   64.9846  -10.6898 H   0  0  0  0  0  0  0  0  0  0  0  0
   18.2878   62.3317   -9.5658 C   0  0  0  0  0  0  0  0  0  0  0  0
   17.0783   63.0850   -9.6187 O   0  0  0  0  0  0  0  0  0  0  0  0
   15.8192   65.7082  -10.3186 Br  0  0  0  0  0  0  0  0  0  0  0  0
   15.2880   63.9662  -10.9072 C   0  0  0  0  0  0  0  0  0  0  0  0
   16.0333   62.8694  -10.4474 C   0  0  0  0  0  0  0  0  0  0  0  0
   15.6441   61.6407  -10.8734 C   0  0  0  0  0  0  0  0  0  0  0  0
   14.5535   61.4582  -11.7329 C   0  0  0  0  0  0  0  0  0  0  0  0
   13.8390   62.5495  -12.1701 C   0  0  0  0  0  0  0  0  0  0  0  0
   14.2171   63.8062  -11.7486 C   0  0  0  0  0  0  0  0  0  0  0  0
   12.3390   62.4241  -13.3377 Br  0  0  0  0  0  0  0  0  0  0  0  0
   16.5489   60.0878  -10.3119 Br  0  0  0  0  0  0  0  0  0  0  0  0
 30 31  1  0  0  0
 31 32  2  0  0  0
 31 36  1  0  0  0
 32 33  1  0  0  0
 32 29  1  0  0  0
 33 34  2  0  0  0
 33 38  1  0  0  0
 34 35  1  0  0  0
 35 36  2  0  0  0
 35 37  1  0  0  0
 29 28  1  0  0  0
 28 25  1  0  0  0
 25 26  1  0  0  0
 25 24  1  0  0  0
 24  1  1  0  0  0
  1  2  1  0  0  0
  1  5  1  0  0  0
  2  3  2  0  0  0
  2 10  1  0  0  0
  3  4  1  0  0  0
  3  6  1  0  0  0
  4  5  2  0  0  0
  5 13  1  0  0  0
 13 14  1  0  0  0
 13 18  1  0  0  0
 14 15  1  0  0  0
 15 16  1  0  0  0
 16 17  1  0  0  0
 16 20  1  0  0  0
 17 18  1  0  0  0
 20 21  1  0  0  0
 21 22  1  0  0  0
  6  7  1  0  0  0
  6 12  1  0  0  0
  7  8  2  0  0  0
  7  9  1  0  0  0
  9 10  2  0  0  0
 10 11  1  0  0  0
 26 27  1  0  0  0
 16 19  1  0  0  0
 22 23  1  0  0  0
M  CHG 1  11  -1
M  CHG 1  16   1
M  END
> <minimizedAffinity>
-7.68056

$$$$
6


 34 37  0  0  0  0  0  0  0  0999 V2000
   24.0493   64.0871   -6.5351 N   0  0  0  0  0  0  0  0  0  0  0  0
   24.6528   63.3260   -5.5840 C   0  0  0  0  0  0  0  0  0  0  0  0
   24.2717   63.7422   -4.3387 C   0  0  0  0  0  0  0  0  0  0  0  0
   23.4290   64.7655   -4.5495 N   0  0  0  0  0  0  0  0  0  0  0  0
   23.2904   64.9797   -5.8958 C   0  0  0  0  0  0  0  0  0  0  0  0
   24.7815   63.0890   -3.2360 C   0  0  0  0  0  0  0  0  0  0  0  0
   25.6645   62.0282   -3.3548 C   0  0  0  0  0  0  0  0  0  0  0  0
   26.0322   61.6297   -4.6280 C   0  0  0  0  0  0  0  0  0  0  0  0
   25.5232   62.2817   -5.7332 C   0  0  0  0  0  0  0  0  0  0  0  0
   22.4429   66.0182   -6.4688 C   0  0  0  0  0  0  0  0  0  0  0  0
   21.2826   65.8136   -7.1052 N   0  0  0  0  0  0  0  0  0  0  0  0
   20.7941   66.9801   -7.4867 O   0  0  0  0  0  0  0  0  0  0  0  0
   21.5883   67.9380   -7.1254 N   0  0  0  0  0  0  0  0  0  0  0  0
   22.6381   67.3807   -6.4826 C   0  0  0  0  0  0  0  0  0  0  0  0
   23.7417   68.0677   -5.9218 N   0  0  0  0  0  0  0  0  0  0  0  0
   23.5511   68.4244   -4.9756 H   0  0  0  0  0  0  0  0  0  0  0  0
   23.8997   68.9146   -6.5339 H   0  0  0  0  0  0  0  0  0  0  0  0
   24.6302   67.5027   -5.9504 H   0  0  0  0  0  0  0  0  0  0  0  0
   24.1808   63.9749   -7.9541 C   0  0  0  0  0  0  0  0  0  0  0  0
   21.9368   62.8784   -8.2652 N   0  0  0  0  0  0  0  0  0  0  0  0
   22.9622   63.7565   -8.6942 C   0  0  0  0  0  0  0  0  0  0  0  0
   22.7710   64.3604   -9.7758 O   0  0  0  0  0  0  0  0  0  0  0  0
   22.0858   62.3703   -7.3672 H   0  0  0  0  0  0  0  0  0  0  0  0
   19.6127   63.0637   -8.5658 C   0  0  0  0  0  0  0  0  0  0  0  0
   20.7576   62.6492   -8.9543 N   0  0  0  0  0  0  0  0  0  0  0  0
   16.4271   59.3913  -10.5732 Br  0  0  0  0  0  0  0  0  0  0  0  0
   16.9450   61.1993  -10.3226 C   0  0  0  0  0  0  0  0  0  0  0  0
   18.0590   61.4728   -9.5573 C   0  0  0  0  0  0  0  0  0  0  0  0
   18.4430   62.7646   -9.3682 C   0  0  0  0  0  0  0  0  0  0  0  0
   17.7313   63.8282   -9.9343 C   0  0  0  0  0  0  0  0  0  0  0  0
   16.6260   63.5275  -10.6925 C   0  0  0  0  0  0  0  0  0  0  0  0
   16.2218   62.2312  -10.8954 C   0  0  0  0  0  0  0  0  0  0  0  0
   15.6160   64.9432  -11.4897 Br  0  0  0  0  0  0  0  0  0  0  0  0
   18.7741   60.4329   -8.9902 O   0  0  0  0  0  0  0  0  0  0  0  0
 26 27  1  0  0  0
 27 28  2  0  0  0
 27 32  1  0  0  0
 28 29  1  0  0  0
 28 34  1  0  0  0
 29 30  2  0  0  0
 29 24  1  0  0  0
 30 31  1  0  0  0
 31 32  2  0  0  0
 31 33  1  0  0  0
 24 25  2  0  0  0
 25 20  1  0  0  0
 20 21  1  0  0  0
 21 22  2  0  0  0
 21 19  1  0  0  0
 19  1  1  0  0  0
  1  2  1  0  0  0
  1  5  1  0  0  0
  2  3  2  0  0  0
  2  9  1  0  0  0
  3  4  1  0  0  0
  3  6  1  0  0  0
  4  5  2  0  0  0
  5 10  1  0  0  0
 10 11  2  0  0  0
 10 14  1  0  0  0
 11 12  1  0  0  0
 12 13  1  0  0  0
 13 14  2  0  0  0
 14 15  1  0  0  0
  6  7  2  0  0  0
  7  8  1  0  0  0
  8  9  2  0  0  0
 20 23  1  0  0  0
 15 16  1  0  0  0
 15 17  1  0  0  0
 15 18  1  0  0  0
M  CHG 1  15   1
M  CHG 1  34  -1
M  END
> <minimizedAffinity>
-8.28667

$$$$
11


 36 39  0  0  0  0  0  0  0  0999 V2000
   22.3621   64.8535   -5.9942 C   0  0  0  0  0  0  0  0  0  0  0  0
   23.4040   63.9143   -6.0646 N   0  0  0  0  0  0  0  0  0  0  0  0
   24.0593   63.5247   -4.9065 C   0  0  0  0  0  0  0  0  0  0  0  0
   25.0146   62.6499   -5.2680 C   0  0  0  0  0  0  0  0  0  0  0  0
   24.9425   62.5191   -6.5833 N   0  0  0  0  0  0  0  0  0  0  0  0
   23.9274   63.3121   -7.0988 C   0  0  0  0  0  0  0  0  0  0  0  0
   25.8710   62.0557   -4.3543 C   0  0  0  0  0  0  0  0  0  0  0  0
   25.6978   62.4049   -3.0366 C   0  0  0  0  0  0  0  0  0  0  0  0
   24.7309   63.2949   -2.6100 C   0  0  0  0  0  0  0  0  0  0  0  0
   23.8980   63.8634   -3.5719 C   0  0  0  0  0  0  0  0  0  0  0  0
   23.7526   63.2741   -8.5395 C   0  0  0  0  0  0  0  0  0  0  0  0
   24.2661   62.2440   -9.3248 N   0  0  0  0  0  0  0  0  0  0  0  0
   23.9627   62.4207  -10.5466 O   0  0  0  0  0  0  0  0  0  0  0  0
   23.2818   63.4864  -10.6869 N   0  0  0  0  0  0  0  0  0  0  0  0
   23.1261   64.0540   -9.4421 C   0  0  0  0  0  0  0  0  0  0  0  0
   22.3922   65.2438   -9.2521 N   0  0  0  0  0  0  0  0  0  0  0  0
   21.8613   65.4647  -10.1765 H   0  0  0  0  0  0  0  0  0  0  0  0
   23.0319   66.0412   -9.1515 H   0  0  0  0  0  0  0  0  0  0  0  0
   21.6321   65.1179   -8.5885 H   0  0  0  0  0  0  0  0  0  0  0  0
   20.5511   63.7860   -7.1377 N   0  0  0  0  0  0  0  0  0  0  0  0
   20.9751   64.1788   -5.9108 C   0  0  0  0  0  0  0  0  0  0  0  0
   20.5367   64.1347   -4.7631 O   0  0  0  0  0  0  0  0  0  0  0  0
   19.3953   63.2725   -6.5239 H   0  0  0  0  0  0  0  0  0  0  0  0
   19.7212   63.0462   -9.2790 C   0  0  0  0  0  0  0  0  0  0  0  0
   20.1632   63.4269   -8.2518 N   0  0  0  0  0  0  0  0  0  0  0  0
   17.0335   58.4596   -9.4554 Br  0  0  0  0  0  0  0  0  0  0  0  0
   17.2058   60.3144   -9.8198 C   0  0  0  0  0  0  0  0  0  0  0  0
   16.2135   60.9833  -10.5018 C   0  0  0  0  0  0  0  0  0  0  0  0
   16.3741   62.3620  -10.7809 C   0  0  0  0  0  0  0  0  0  0  0  0
   17.5232   62.9615  -10.3535 C   0  0  0  0  0  0  0  0  0  0  0  0
   18.5589   62.3202   -9.6589 C   0  0  0  0  0  0  0  0  0  0  0  0
   18.3456   60.9814   -9.4150 C   0  0  0  0  0  0  0  0  0  0  0  0
   15.0649   60.3876  -10.9356 O   0  0  0  0  0  0  0  0  0  0  0  0
   15.3634   63.0067  -11.4688 O   0  0  0  0  0  0  0  0  0  0  0  0
   14.6467   64.0690  -10.9392 C   0  0  0  0  0  0  0  0  0  0  0  0
   15.4267   65.0443  -10.1036 C   0  0  0  0  0  0  0  0  0  0  0  0
 26 27  1  0  0  0
 27 28  2  0  0  0
 27 32  1  0  0  0
 28 29  1  0  0  0
 28 33  1  0  0  0
 29 30  2  0  0  0
 29 34  1  0  0  0
 30 31  1  0  0  0
 31 32  2  0  0  0
 31 24  1  0  0  0
 24 25  2  0  0  0
 25 20  1  0  0  0
 20 21  1  0  0  0
 21 22  2  0  0  0
 21  1  1  0  0  0
  1  2  1  0  0  0
  2  3  1  0  0  0
  2  6  1  0  0  0
  3  4  2  0  0  0
  3 10  1  0  0  0
  4  5  1  0  0  0
  4  7  1  0  0  0
  5  6  2  0  0  0
  6 11  1  0  0  0
 11 12  2  0  0  0
 11 15  1  0  0  0
 12 13  1  0  0  0
 13 14  1  0  0  0
 14 15  2  0  0  0
 15 16  1  0  0  0
  7  8  2  0  0  0
  8  9  1  0  0  0
  9 10  2  0  0  0
 34 35  1  0  0  0
 35 36  1  0  0  0
 20 23  1  0  0  0
 16 17  1  0  0  0
 16 18  1  0  0  0
 16 19  1  0  0  0
M  CHG 1  16   1
M  CHG 1  33  -1
M  END
> <minimizedAffinity>
-9.24853

$$$$
17


 38 41  0  0  0  0  0  0  0  0999 V2000
   12.5510   66.3928  -14.5285 C   0  0  0  0  0  0  0  0  0  0  0  0
   12.1141   67.5715  -14.0663 N   0  0  0  0  0  0  0  0  0  0  0  0
   11.0025   67.8987  -14.6781 N   0  0  0  0  0  0  0  0  0  0  0  0
   10.6552   66.9527  -15.5694 N   0  0  0  0  0  0  0  0  0  0  0  0
   11.5999   66.0109  -15.4938 C   0  0  0  0  0  0  0  0  0  0  0  0
    9.4945   67.0503  -16.4018 C   0  0  0  0  0  0  0  0  0  0  0  0
    8.7152   66.0685  -16.8824 N   0  0  0  0  0  0  0  0  0  0  0  0
    7.7512   66.5963  -17.5985 O   0  0  0  0  0  0  0  0  0  0  0  0
    7.8570   67.9034  -17.6159 N   0  0  0  0  0  0  0  0  0  0  0  0
    8.9371   68.2130  -16.8761 C   0  0  0  0  0  0  0  0  0  0  0  0
    9.3770   69.5437  -16.6544 N   0  0  0  0  0  0  0  0  0  0  0  0
   10.0119   70.0610  -17.2963 H   0  0  0  0  0  0  0  0  0  0  0  0
    9.0665   70.0782  -15.8027 H   0  0  0  0  0  0  0  0  0  0  0  0
   13.8126   64.9377  -12.9219 N   0  0  0  0  0  0  0  0  0  0  0  0
   13.7398   65.6436  -14.1437 C   0  0  0  0  0  0  0  0  0  0  0  0
   14.7198   65.6251  -14.9141 O   0  0  0  0  0  0  0  0  0  0  0  0
   12.9701   64.9638  -12.2779 H   0  0  0  0  0  0  0  0  0  0  0  0
   15.1786   63.9236  -11.2823 C   0  0  0  0  0  0  0  0  0  0  0  0
   14.8997   64.2133  -12.4994 N   0  0  0  0  0  0  0  0  0  0  0  0
   16.9657   59.2037   -9.8184 Br  0  0  0  0  0  0  0  0  0  0  0  0
   17.2509   61.0350  -10.2620 C   0  0  0  0  0  0  0  0  0  0  0  0
   18.5213   61.5993  -10.2473 C   0  0  0  0  0  0  0  0  0  0  0  0
   18.7343   62.9209  -10.5662 C   0  0  0  0  0  0  0  0  0  0  0  0
   17.6376   63.6776  -10.9038 C   0  0  0  0  0  0  0  0  0  0  0  0
   16.3568   63.1483  -10.9289 C   0  0  0  0  0  0  0  0  0  0  0  0
   16.1896   61.8206  -10.6029 C   0  0  0  0  0  0  0  0  0  0  0  0
   19.5939   60.7846   -9.8966 O   0  0  0  0  0  0  0  0  0  0  0  0
   20.5315   61.1677   -9.8773 H   0  0  0  0  0  0  0  0  0  0  0  0
   20.0177   63.4113  -10.5302 O   0  0  0  0  0  0  0  0  0  0  0  0
   20.5667   64.2490   -9.5665 C   0  0  0  0  0  0  0  0  0  0  0  0
   21.0502   63.5611   -8.3308 C   0  0  0  0  0  0  0  0  0  0  0  0
   11.7326   64.7730  -16.2641 C   0  0  0  0  0  0  0  0  0  0  0  0
   10.8012   63.7147  -15.9661 N   0  0  0  0  0  0  0  0  0  0  0  0
   11.3699   62.5285  -16.6187 C   0  0  0  0  0  0  0  0  0  0  0  0
   12.7051   62.1277  -16.1310 C   0  0  0  0  0  0  0  0  0  0  0  0
   12.8624   62.4186  -14.7847 O   0  0  0  0  0  0  0  0  0  0  0  0
   11.6389   62.2812  -14.1656 C   0  0  0  0  0  0  0  0  0  0  0  0
   10.7787   63.4780  -14.5209 C   0  0  0  0  0  0  0  0  0  0  0  0
 20 21  1  0  0  0
 21 22  2  0  0  0
 21 26  1  0  0  0
 22 23  1  0  0  0
 22 27  1  0  0  0
 23 24  2  0  0  0
 23 29  1  0  0  0
 24 25  1  0  0  0
 25 26  2  0  0  0
 25 18  1  0  0  0
 18 19  2  0  0  0
 19 14  1  0  0  0
 14 15  1  0  0  0
 15 16  2  0  0  0
 15  1  1  0  0  0
  1  2  1  0  0  0
  1  5  2  0  0  0
  2  3  2  0  0  0
  3  4  1  0  0  0
  4  5  1  0  0  0
  4  6  1  0  0  0
  5 32  1  0  0  0
 32 33  1  0  0  0
 33 34  1  0  0  0
 33 38  1  0  0  0
 34 35  1  0  0  0
 35 36  1  0  0  0
 36 37  1  0  0  0
 37 38  1  0  0  0
  6  7  2  0  0  0
  6 10  1  0  0  0
  7  8  1  0  0  0
  8  9  1  0  0  0
  9 10  2  0  0  0
 10 11  1  0  0  0
 29 30  1  0  0  0
 30 31  1  0  0  0
 14 17  1  0  0  0
 11 12  1  0  0  0
 11 13  1  0  0  0
 27 28  1  0  0  0
M  END
> <minimizedAffinity>
-7.24405

$$$$
18


 37 40  0  0  0  0  0  0  0  0999 V2000
   23.5100   63.3693   -7.7338 C   0  0  0  0  0  0  0  0  0  0  0  0
   24.3155   62.3821   -7.5566 N   0  0  0  0  0  0  0  0  0  0  0  0
   24.8339   62.4342   -6.3414 N   0  0  0  0  0  0  0  0  0  0  0  0
   24.3496   63.4985   -5.7176 N   0  0  0  0  0  0  0  0  0  0  0  0
   23.5166   64.1849   -6.4867 C   0  0  0  0  0  0  0  0  0  0  0  0
   24.3994   63.5791   -4.2720 C   0  0  0  0  0  0  0  0  0  0  0  0
   23.5495   63.8509   -3.3721 N   0  0  0  0  0  0  0  0  0  0  0  0
   24.0835   63.8517   -2.1501 O   0  0  0  0  0  0  0  0  0  0  0  0
   25.3256   63.5638   -2.2995 N   0  0  0  0  0  0  0  0  0  0  0  0
   25.6341   63.3741   -3.5829 C   0  0  0  0  0  0  0  0  0  0  0  0
   26.8852   63.0646   -4.1417 N   0  0  0  0  0  0  0  0  0  0  0  0
   27.4255   63.7338   -4.7185 H   0  0  0  0  0  0  0  0  0  0  0  0
   27.3596   62.1119   -3.9870 H   0  0  0  0  0  0  0  0  0  0  0  0
   21.0660   63.1464   -8.2519 N   0  0  0  0  0  0  0  0  0  0  0  0
   22.3804   63.6422   -8.5940 C   0  0  0  0  0  0  0  0  0  0  0  0
   22.5320   64.3661   -9.5773 O   0  0  0  0  0  0  0  0  0  0  0  0
   20.5838   62.5110   -7.7711 H   0  0  0  0  0  0  0  0  0  0  0  0
   19.1317   63.2654   -9.2514 C   0  0  0  0  0  0  0  0  0  0  0  0
   20.1112   64.1620   -9.0292 N   0  0  0  0  0  0  0  0  0  0  0  0
   15.8532   59.5206  -10.7302 Br  0  0  0  0  0  0  0  0  0  0  0  0
   16.3326   61.3786  -10.5188 C   0  0  0  0  0  0  0  0  0  0  0  0
   15.4290   62.3448  -10.9075 C   0  0  0  0  0  0  0  0  0  0  0  0
   15.7339   63.6684  -10.7501 C   0  0  0  0  0  0  0  0  0  0  0  0
   16.9557   63.9876  -10.2040 C   0  0  0  0  0  0  0  0  0  0  0  0
   17.8976   63.0587   -9.8000 C   0  0  0  0  0  0  0  0  0  0  0  0
   17.5131   61.6801   -9.9899 C   0  0  0  0  0  0  0  0  0  0  0  0
   14.2045   61.9611  -11.4618 O   0  0  0  0  0  0  0  0  0  0  0  0
   14.0307   60.9436  -11.6049 H   0  0  0  0  0  0  0  0  0  0  0  0
   14.8363   64.6784  -11.1166 O   0  0  0  0  0  0  0  0  0  0  0  0
   14.4683   64.8073  -12.5048 C   0  0  0  0  0  0  0  0  0  0  0  0
   22.6274   65.2931   -6.2889 C   0  0  0  0  0  0  0  0  0  0  0  0
   22.5913   66.3377   -7.3145 N   0  0  0  0  0  0  0  0  0  0  0  0
   23.3136   67.5057   -6.9278 C   0  0  0  0  0  0  0  0  0  0  0  0
   22.7029   68.2792   -5.7945 C   0  0  0  0  0  0  0  0  0  0  0  0
   21.5815   68.9546   -6.2457 O   0  0  0  0  0  0  0  0  0  0  0  0
   21.0448   68.3225   -7.3731 C   0  0  0  0  0  0  0  0  0  0  0  0
   21.1534   66.8427   -7.2173 C   0  0  0  0  0  0  0  0  0  0  0  0
 20 21  1  0  0  0
 21 22  2  0  0  0
 21 26  1  0  0  0
 22 23  1  0  0  0
 22 27  1  0  0  0
 23 24  2  0  0  0
 23 29  1  0  0  0
 24 25  1  0  0  0
 25 26  2  0  0  0
 25 18  1  0  0  0
 18 19  2  0  0  0
 19 14  1  0  0  0
 14 15  1  0  0  0
 15 16  2  0  0  0
 15  1  1  0  0  0
  1  2  1  0  0  0
  1  5  2  0  0  0
  2  3  2  0  0  0
  3  4  1  0  0  0
  4  5  1  0  0  0
  4  6  1  0  0  0
  5 31  1  0  0  0
 31 32  1  0  0  0
 32 33  1  0  0  0
 32 37  1  0  0  0
 33 34  1  0  0  0
 34 35  1  0  0  0
 35 36  1  0  0  0
 36 37  1  0  0  0
  6  7  2  0  0  0
  6 10  1  0  0  0
  7  8  1  0  0  0
  8  9  1  0  0  0
  9 10  2  0  0  0
 10 11  1  0  0  0
 29 30  1  0  0  0
 14 17  1  0  0  0
 11 12  1  0  0  0
 11 13  1  0  0  0
 27 28  1  0  0  0
M  END
> <minimizedAffinity>
-7.84101

$$$$
20


 34 37  0  0  0  0  0  0  0  0999 V2000
   23.2030   63.4854   -8.2185 C   0  0  0  0  0  0  0  0  0  0  0  0
   22.7624   64.7100   -8.0016 N   0  0  0  0  0  0  0  0  0  0  0  0
   22.8981   65.2985   -6.7788 C   0  0  0  0  0  0  0  0  0  0  0  0
   23.5062   64.5497   -5.8285 N   0  0  0  0  0  0  0  0  0  0  0  0
   23.9735   63.2975   -5.9907 C   0  0  0  0  0  0  0  0  0  0  0  0
   23.8024   62.7736   -7.2255 N   0  0  0  0  0  0  0  0  0  0  0  0
   24.7163   62.6515   -5.0182 N   0  0  0  0  0  0  0  0  0  0  0  0
   24.3805   62.3264   -3.6860 C   0  0  0  0  0  0  0  0  0  0  0  0
   25.3694   63.0779   -2.7902 C   0  0  0  0  0  0  0  0  0  0  0  0
   26.6411   62.7279   -3.1869 O   0  0  0  0  0  0  0  0  0  0  0  0
   26.9731   63.0559   -4.4813 C   0  0  0  0  0  0  0  0  0  0  0  0
   26.0816   62.2268   -5.4499 C   0  0  0  0  0  0  0  0  0  0  0  0
   22.5182   66.6384   -6.5294 N   0  0  0  0  0  0  0  0  0  0  0  0
   21.0995   67.0190   -6.6205 C   0  0  0  0  0  0  0  0  0  0  0  0
   21.0922   68.3261   -7.4544 C   0  0  0  0  0  0  0  0  0  0  0  0
   21.6971   69.2477   -6.6484 O   0  0  0  0  0  0  0  0  0  0  0  0
   23.0365   69.0398   -6.4741 C   0  0  0  0  0  0  0  0  0  0  0  0
   23.4743   67.6333   -6.2282 C   0  0  0  0  0  0  0  0  0  0  0  0
   23.2896   62.8532   -9.5555 N   0  0  0  0  0  0  0  0  0  0  0  0
   24.0933   62.2754   -9.7059 H   0  0  0  0  0  0  0  0  0  0  0  0
   21.3372   63.4910  -10.9270 C   0  0  0  0  0  0  0  0  0  0  0  0
   22.2485   63.1856  -10.2759 N   0  0  0  0  0  0  0  0  0  0  0  0
   17.9558   59.7378   -9.3320 Br  0  0  0  0  0  0  0  0  0  0  0  0
   18.3266   61.4352  -10.1460 C   0  0  0  0  0  0  0  0  0  0  0  0
   17.3093   62.1375  -10.7308 C   0  0  0  0  0  0  0  0  0  0  0  0
   17.5841   63.3621  -11.3359 C   0  0  0  0  0  0  0  0  0  0  0  0
   18.8798   63.8592  -11.3462 C   0  0  0  0  0  0  0  0  0  0  0  0
   19.9048   63.1630  -10.7745 C   0  0  0  0  0  0  0  0  0  0  0  0
   19.6005   61.9586  -10.1806 C   0  0  0  0  0  0  0  0  0  0  0  0
   16.0398   61.6007  -10.6995 O   0  0  0  0  0  0  0  0  0  0  0  0
   15.8151   60.7244  -10.2938 H   0  0  0  0  0  0  0  0  0  0  0  0
   16.5138   63.9959  -11.8853 O   0  0  0  0  0  0  0  0  0  0  0  0
   15.4174   64.5741  -11.2709 C   0  0  0  0  0  0  0  0  0  0  0  0
   15.7199   65.0661   -9.8631 C   0  0  0  0  0  0  0  0  0  0  0  0
 23 24  1  0  0  0
 24 25  2  0  0  0
 24 29  1  0  0  0
 25 26  1  0  0  0
 25 30  1  0  0  0
 26 27  2  0  0  0
 26 32  1  0  0  0
 27 28  1  0  0  0
 28 29  2  0  0  0
 28 21  1  0  0  0
 21 22  2  0  0  0
 22 19  1  0  0  0
 19  1  1  0  0  0
  1  2  2  0  0  0
  1  6  1  0  0  0
  2  3  1  0  0  0
  3  4  2  0  0  0
  3 13  1  0  0  0
  4  5  1  0  0  0
  5  6  2  0  0  0
  5  7  1  0  0  0
  7  8  1  0  0  0
  7 12  1  0  0  0
  8  9  1  0  0  0
  9 10  1  0  0  0
 10 11  1  0  0  0
 11 12  1  0  0  0
 13 14  1  0  0  0
 13 18  1  0  0  0
 14 15  1  0  0  0
 15 16  1  0  0  0
 16 17  1  0  0  0
 17 18  1  0  0  0
 32 33  1  0  0  0
 33 34  1  0  0  0
 19 20  1  0  0  0
 30 31  1  0  0  0
M  END
> <minimizedAffinity>
-9.06878

$$$$
23


 37 40  0  0  0  0  0  0  0  0999 V2000
   11.6822   64.6480  -13.7413 C   0  0  0  0  0  0  0  0  0  0  0  0
   10.9673   63.7189  -14.5908 N   0  0  0  0  0  0  0  0  0  0  0  0
   11.6515   62.5053  -14.7167 C   0  0  0  0  0  0  0  0  0  0  0  0
   11.3522   61.5698  -15.4738 O   0  0  0  0  0  0  0  0  0  0  0  0
   12.7869   62.5393  -13.7943 C   0  0  0  0  0  0  0  0  0  0  0  0
   13.5984   61.5850  -13.6816 O   0  0  0  0  0  0  0  0  0  0  0  0
   12.7643   63.8113  -13.1045 C   0  0  0  0  0  0  0  0  0  0  0  0
   13.5755   64.1628  -12.1437 C   0  0  0  0  0  0  0  0  0  0  0  0
   13.4918   65.4381  -11.6082 O   0  0  0  0  0  0  0  0  0  0  0  0
   14.5635   63.2599  -11.6062 C   0  0  0  0  0  0  0  0  0  0  0  0
   15.8105   63.8429  -11.3460 C   0  0  0  0  0  0  0  0  0  0  0  0
   16.8355   63.1110  -10.7996 C   0  0  0  0  0  0  0  0  0  0  0  0
   16.6506   61.7817  -10.4986 C   0  0  0  0  0  0  0  0  0  0  0  0
   15.4120   61.2287  -10.7650 C   0  0  0  0  0  0  0  0  0  0  0  0
   14.3710   61.9477  -11.3115 C   0  0  0  0  0  0  0  0  0  0  0  0
   17.8540   61.2839   -9.9567 O   0  0  0  0  0  0  0  0  0  0  0  0
   18.9019   62.1928  -10.2787 C   0  0  0  0  0  0  0  0  0  0  0  0
   18.2307   63.5354  -10.4547 C   0  0  0  0  0  0  0  0  0  0  0  0
   19.5765   61.8415  -11.5913 C   0  0  0  0  0  0  0  0  0  0  0  0
   15.1261   66.1907  -17.5407 Br  0  0  0  0  0  0  0  0  0  0  0  0
   13.7379   66.4935  -16.2851 C   0  0  0  0  0  0  0  0  0  0  0  0
   13.2136   67.7874  -16.1544 C   0  0  0  0  0  0  0  0  0  0  0  0
   12.1973   68.0100  -15.2343 C   0  0  0  0  0  0  0  0  0  0  0  0
   11.7488   66.9669  -14.4953 C   0  0  0  0  0  0  0  0  0  0  0  0
   12.2682   65.6888  -14.6257 C   0  0  0  0  0  0  0  0  0  0  0  0
   13.2734   65.4378  -15.5265 C   0  0  0  0  0  0  0  0  0  0  0  0
   13.6771   68.8347  -16.9099 O   0  0  0  0  0  0  0  0  0  0  0  0
   13.2947   69.7414  -16.8011 H   0  0  0  0  0  0  0  0  0  0  0  0
   11.6713   69.2976  -15.1005 O   0  0  0  0  0  0  0  0  0  0  0  0
   11.9821   70.1474  -14.0300 C   0  0  0  0  0  0  0  0  0  0  0  0
    9.7058   64.0783  -15.2051 C   0  0  0  0  0  0  0  0  0  0  0  0
    8.4943   63.4904  -14.6157 C   0  0  0  0  0  0  0  0  0  0  0  0
    7.6771   62.5824  -15.4577 C   0  0  0  0  0  0  0  0  0  0  0  0
    8.4038   61.4597  -15.9978 N   0  0  0  0  0  0  0  0  0  0  0  0
    7.9621   61.2257  -17.3803 C   0  0  0  0  0  0  0  0  0  0  0  0
    8.0226   60.2901  -15.2268 C   0  0  0  0  0  0  0  0  0  0  0  0
    9.4236   61.5383  -15.9550 H   0  0  0  0  0  0  0  0  0  0  0  0
 20 21  1  0  0  0
 21 22  2  0  0  0
 21 26  1  0  0  0
 22 23  1  0  0  0
 22 27  1  0  0  0
 23 24  2  0  0  0
 23 29  1  0  0  0
 24 25  1  0  0  0
 25 26  2  0  0  0
 25  1  1  0  0  0
  1  2  1  0  0  0
  1  7  1  0  0  0
  2  3  1  0  0  0
  2 31  1  0  0  0
  3  4  2  0  0  0
  3  5  1  0  0  0
  5  6  2  0  0  0
  5  7  1  0  0  0
  7  8  2  0  0  0
  8  9  1  0  0  0
  8 10  1  0  0  0
 10 11  2  0  0  0
 10 15  1  0  0  0
 11 12  1  0  0  0
 12 13  2  0  0  0
 12 18  1  0  0  0
 13 14  1  0  0  0
 13 16  1  0  0  0
 14 15  2  0  0  0
 16 17  1  0  0  0
 17 18  1  0  0  0
 17 19  1  0  0  0
 31 32  1  0  0  0
 32 33  1  0  0  0
 33 34  1  0  0  0
 34 35  1  0  0  0
 34 36  1  0  0  0
 29 30  1  0  0  0
 34 37  1  0  0  0
 27 28  1  0  0  0
M  CHG 1   9  -1
M  CHG 1  34   1
M  END
> <minimizedAffinity>
-6.06213

$$$$
26


 29 32  0  0  0  0  0  0  0  0999 V2000
   20.1145   62.4766   -9.0736 C   0  0  0  0  0  0  0  0  0  0  0  0
   20.2923   63.2519   -7.9170 N   0  0  0  0  0  0  0  0  0  0  0  0
   21.4721   64.0143   -7.7616 C   0  0  0  0  0  0  0  0  0  0  0  0
   22.6402   63.5781   -8.6040 C   0  0  0  0  0  0  0  0  0  0  0  0
   22.2409   63.2933  -10.0027 C   0  0  0  0  0  0  0  0  0  0  0  0
   22.8828   63.4630  -11.1995 C   0  0  0  0  0  0  0  0  0  0  0  0
   21.9886   63.0086  -12.1529 C   0  0  0  0  0  0  0  0  0  0  0  0
   20.8556   62.5845  -11.5322 N   0  0  0  0  0  0  0  0  0  0  0  0
   21.0069   62.7575  -10.2125 C   0  0  0  0  0  0  0  0  0  0  0  0
   22.3974   63.0705  -13.4680 C   0  0  0  0  0  0  0  0  0  0  0  0
   23.6369   63.5614  -13.8194 C   0  0  0  0  0  0  0  0  0  0  0  0
   24.5271   64.0144  -12.8676 C   0  0  0  0  0  0  0  0  0  0  0  0
   24.1326   63.9586  -11.5411 C   0  0  0  0  0  0  0  0  0  0  0  0
   19.4645   63.8905   -7.7395 H   0  0  0  0  0  0  0  0  0  0  0  0
   20.2283   62.5939   -7.0751 H   0  0  0  0  0  0  0  0  0  0  0  0
   20.0535   62.2018  -12.0786 H   0  0  0  0  0  0  0  0  0  0  0  0
   15.7476   59.9998  -10.8578 Br  0  0  0  0  0  0  0  0  0  0  0  0
   16.7095   61.5710  -10.3893 C   0  0  0  0  0  0  0  0  0  0  0  0
   16.1147   62.8035  -10.5144 C   0  0  0  0  0  0  0  0  0  0  0  0
   16.8365   63.9258  -10.1668 C   0  0  0  0  0  0  0  0  0  0  0  0
   18.1317   63.8891   -9.6975 C   0  0  0  0  0  0  0  0  0  0  0  0
   18.7217   62.6492   -9.5741 C   0  0  0  0  0  0  0  0  0  0  0  0
   18.0232   61.5116   -9.9143 C   0  0  0  0  0  0  0  0  0  0  0  0
   15.9912   65.6243  -10.3496 Br  0  0  0  0  0  0  0  0  0  0  0  0
   14.7927   62.9261  -10.9876 O   0  0  0  0  0  0  0  0  0  0  0  0
   14.3006   62.0781  -11.2314 H   0  0  0  0  0  0  0  0  0  0  0  0
   21.2602   65.4650   -8.0212 C   0  0  0  0  0  0  0  0  0  0  0  0
   20.7508   65.8334   -9.1342 O   0  0  0  0  0  0  0  0  0  0  0  0
   21.6190   66.3947   -7.0588 O   0  0  0  0  0  0  0  0  0  0  0  0
 17 18  1  0  0  0
 18 19  2  0  0  0
 18 23  1  0  0  0
 19 20  1  0  0  0
 19 25  1  0  0  0
 20 21  2  0  0  0
 20 24  1  0  0  0
 21 22  1  0  0  0
 22 23  2  0  0  0
 22  1  1  0  0  0
  1  2  1  0  0  0
  1  9  1  0  0  0
  2  3  1  0  0  0
  3  4  1  0  0  0
  3 27  1  0  0  0
  4  5  1  0  0  0
  5  6  1  0  0  0
  5  9  2  0  0  0
  6  7  2  0  0  0
  6 13  1  0  0  0
  7  8  1  0  0  0
  7 10  1  0  0  0
  8  9  1  0  0  0
 10 11  2  0  0  0
 11 12  1  0  0  0
 12 13  2  0  0  0
 27 28  2  0  0  0
 27 29  1  0  0  0
  2 14  1  0  0  0
  2 15  1  0  0  0
  8 16  1  0  0  0
 25 26  1  0  0  0
M  CHG 1   2   1
M  END
> <minimizedAffinity>
-6.74787

$$$$
31


 24 27  0  0  0  0  0  0  0  0999 V2000
   20.4150   64.0267   -9.8644 Br  0  0  0  0  0  0  0  0  0  0  0  0
   21.5420   64.6287   -8.4301 C   0  0  0  0  0  0  0  0  0  0  0  0
   22.6433   63.9388   -8.0668 C   0  0  0  0  0  0  0  0  0  0  0  0
   23.4358   64.3616   -6.9599 C   0  0  0  0  0  0  0  0  0  0  0  0
   23.0392   65.4661   -6.2889 C   0  0  0  0  0  0  0  0  0  0  0  0
   21.9021   66.1514   -6.6695 C   0  0  0  0  0  0  0  0  0  0  0  0
   21.1501   65.7501   -7.7309 C   0  0  0  0  0  0  0  0  0  0  0  0
   24.3354   63.3058   -6.4553 C   0  0  0  0  0  0  0  0  0  0  0  0
   24.7281   63.2551   -5.1070 N   0  0  0  0  0  0  0  0  0  0  0  0
   24.6663   64.3544   -4.2823 C   0  0  0  0  0  0  0  0  0  0  0  0
   24.9958   64.0248   -2.8976 N   0  0  0  0  0  0  0  0  0  0  0  0
   26.3362   63.4623   -2.8894 C   0  0  0  0  0  0  0  0  0  0  0  0
   26.4554   62.3219   -3.7741 N   0  0  0  0  0  0  0  0  0  0  0  0
   26.0780   62.5941   -5.1042 C   0  0  0  0  0  0  0  0  0  0  0  0
   25.6433   61.2507   -3.2352 C   0  0  0  0  0  0  0  0  0  0  0  0
   24.2315   61.7780   -3.1783 C   0  0  0  0  0  0  0  0  0  0  0  0
   23.8413   62.1721   -4.5546 C   0  0  0  0  0  0  0  0  0  0  0  0
   24.1200   63.0352   -2.3199 C   0  0  0  0  0  0  0  0  0  0  0  0
   23.0292   62.8321   -8.7351 O   0  0  0  0  0  0  0  0  0  0  0  0
   24.1170   62.8050   -9.6813 C   0  0  0  0  0  0  0  0  0  0  0  0
   23.7898   63.0415  -11.0847 C   0  0  0  0  0  0  0  0  0  0  0  0
   22.6896   62.8739  -11.5911 O   0  0  0  0  0  0  0  0  0  0  0  0
   24.8109   63.5313  -11.9069 O   0  0  0  0  0  0  0  0  0  0  0  0
   24.7723   63.4510  -13.3068 C   0  0  0  0  0  0  0  0  0  0  0  0
  1  2  1  0  0  0
  2  3  2  0  0  0
  2  7  1  0  0  0
  3  4  1  0  0  0
  3 19  1  0  0  0
  4  5  2  0  0  0
  4  8  1  0  0  0
  5  6  1  0  0  0
  6  7  2  0  0  0
  8  9  1  0  0  0
  9 10  1  0  0  0
  9 14  1  0  0  0
  9 17  1  0  0  0
 10 11  1  0  0  0
 11 12  1  0  0  0
 11 18  1  0  0  0
 12 13  1  0  0  0
 13 14  1  0  0  0
 13 15  1  0  0  0
 15 16  1  0  0  0
 16 17  1  0  0  0
 16 18  1  0  0  0
 19 20  1  0  0  0
 20 21  1  0  0  0
 21 22  2  0  0  0
 21 23  1  0  0  0
 23 24  1  0  0  0
M  CHG 1   9   1
M  END
> <minimizedAffinity>
-5.97991

$$$$
33


 33 36  0  0  0  0  0  0  0  0999 V2000
   23.0416   63.6224   -8.3339 C   0  0  0  0  0  0  0  0  0  0  0  0
   22.6576   64.8565   -8.0492 N   0  0  0  0  0  0  0  0  0  0  0  0
   22.9210   65.4837   -6.8896 C   0  0  0  0  0  0  0  0  0  0  0  0
   23.6260   64.7875   -5.9713 N   0  0  0  0  0  0  0  0  0  0  0  0
   24.0492   63.5165   -6.2053 C   0  0  0  0  0  0  0  0  0  0  0  0
   23.7457   62.9493   -7.3993 N   0  0  0  0  0  0  0  0  0  0  0  0
   24.7702   62.7961   -5.2320 N   0  0  0  0  0  0  0  0  0  0  0  0
   26.0683   62.2414   -5.5184 C   0  0  0  0  0  0  0  0  0  0  0  0
   26.9868   62.7639   -4.4040 C   0  0  0  0  0  0  0  0  0  0  0  0
   26.4214   62.4666   -3.1807 O   0  0  0  0  0  0  0  0  0  0  0  0
   25.2800   63.2389   -2.9694 C   0  0  0  0  0  0  0  0  0  0  0  0
   24.2235   62.6211   -3.9104 C   0  0  0  0  0  0  0  0  0  0  0  0
   22.4785   66.8251   -6.6242 N   0  0  0  0  0  0  0  0  0  0  0  0
   23.3957   67.8444   -6.2004 C   0  0  0  0  0  0  0  0  0  0  0  0
   22.8910   69.2346   -6.2006 C   0  0  0  0  0  0  0  0  0  0  0  0
   21.5088   69.3472   -6.2559 O   0  0  0  0  0  0  0  0  0  0  0  0
   20.9592   68.5560   -7.2554 C   0  0  0  0  0  0  0  0  0  0  0  0
   21.0872   67.1244   -6.7954 C   0  0  0  0  0  0  0  0  0  0  0  0
   22.6879   63.0289   -9.5770 N   0  0  0  0  0  0  0  0  0  0  0  0
   23.4262   62.6585  -10.1869 H   0  0  0  0  0  0  0  0  0  0  0  0
   20.3819   62.7272   -9.1599 C   0  0  0  0  0  0  0  0  0  0  0  0
   21.3614   62.9510   -9.9670 N   0  0  0  0  0  0  0  0  0  0  0  0
   15.7224   65.1311  -10.2997 Br  0  0  0  0  0  0  0  0  0  0  0  0
   16.8578   63.6106  -10.1831 C   0  0  0  0  0  0  0  0  0  0  0  0
   16.3469   62.3812  -10.5684 C   0  0  0  0  0  0  0  0  0  0  0  0
   17.1893   61.2904  -10.4694 C   0  0  0  0  0  0  0  0  0  0  0  0
   18.4733   61.4245  -10.0082 C   0  0  0  0  0  0  0  0  0  0  0  0
   19.0096   62.6509   -9.6172 C   0  0  0  0  0  0  0  0  0  0  0  0
   18.1555   63.7268   -9.7222 C   0  0  0  0  0  0  0  0  0  0  0  0
   19.3201   60.3156   -9.9091 O   0  0  0  0  0  0  0  0  0  0  0  0
   15.0434   62.2332  -11.0377 O   0  0  0  0  0  0  0  0  0  0  0  0
   18.9577   59.4080  -10.1855 H   0  0  0  0  0  0  0  0  0  0  0  0
   14.3922   62.9978  -11.1339 H   0  0  0  0  0  0  0  0  0  0  0  0
 23 24  1  0  0  0
 24 25  2  0  0  0
 24 29  1  0  0  0
 25 26  1  0  0  0
 25 31  1  0  0  0
 26 27  2  0  0  0
 27 28  1  0  0  0
 27 30  1  0  0  0
 28 29  2  0  0  0
 28 21  1  0  0  0
 21 22  2  0  0  0
 22 19  1  0  0  0
 19  1  1  0  0  0
  1  2  2  0  0  0
  1  6  1  0  0  0
  2  3  1  0  0  0
  3  4  2  0  0  0
  3 13  1  0  0  0
  4  5  1  0  0  0
  5  6  2  0  0  0
  5  7  1  0  0  0
  7  8  1  0  0  0
  7 12  1  0  0  0
  8  9  1  0  0  0
  9 10  1  0  0  0
 10 11  1  0  0  0
 11 12  1  0  0  0
 13 14  1  0  0  0
 13 18  1  0  0  0
 14 15  1  0  0  0
 15 16  1  0  0  0
 16 17  1  0  0  0
 17 18  1  0  0  0
 19 20  1  0  0  0
 30 32  1  0  0  0
 31 33  1  0  0  0
M  END
> <minimizedAffinity>
-10.39102

$$$$
35


 33 36  0  0  0  0  0  0  0  0999 V2000
   21.1652   64.4225   -9.4998 C   0  0  0  0  0  0  0  0  0  0  0  0
   21.8100   64.4628   -8.3301 N   0  0  0  0  0  0  0  0  0  0  0  0
   23.1192   64.1150   -8.2117 C   0  0  0  0  0  0  0  0  0  0  0  0
   23.7839   63.7174   -9.3080 N   0  0  0  0  0  0  0  0  0  0  0  0
   23.1652   63.6662  -10.4972 C   0  0  0  0  0  0  0  0  0  0  0  0
   21.8488   64.0233  -10.5766 N   0  0  0  0  0  0  0  0  0  0  0  0
   23.8642   63.2426  -11.6673 N   0  0  0  0  0  0  0  0  0  0  0  0
   25.2394   62.8051  -11.6600 C   0  0  0  0  0  0  0  0  0  0  0  0
   26.0113   63.4381  -12.7980 C   0  0  0  0  0  0  0  0  0  0  0  0
   25.2304   64.2963  -13.5574 O   0  0  0  0  0  0  0  0  0  0  0  0
   24.1261   63.5823  -14.0618 C   0  0  0  0  0  0  0  0  0  0  0  0
   23.1650   63.2539  -12.9365 C   0  0  0  0  0  0  0  0  0  0  0  0
   23.7020   64.1900   -6.9303 N   0  0  0  0  0  0  0  0  0  0  0  0
   23.1482   65.0907   -5.9556 C   0  0  0  0  0  0  0  0  0  0  0  0
   22.8084   64.2115   -4.7418 C   0  0  0  0  0  0  0  0  0  0  0  0
   24.0280   63.6903   -4.3087 O   0  0  0  0  0  0  0  0  0  0  0  0
   24.5532   62.7700   -5.2096 C   0  0  0  0  0  0  0  0  0  0  0  0
   24.8458   63.3924   -6.5600 C   0  0  0  0  0  0  0  0  0  0  0  0
   19.8090   64.8043   -9.5558 N   0  0  0  0  0  0  0  0  0  0  0  0
   19.5897   65.8173   -9.6547 H   0  0  0  0  0  0  0  0  0  0  0  0
   18.4134   63.1706  -10.5280 C   0  0  0  0  0  0  0  0  0  0  0  0
   18.7565   63.8502   -9.4837 N   0  0  0  0  0  0  0  0  0  0  0  0
   15.7050   64.3004  -11.3946 Br  0  0  0  0  0  0  0  0  0  0  0  0
   16.0719   62.4926  -10.9131 C   0  0  0  0  0  0  0  0  0  0  0  0
   15.0654   61.5441  -10.9292 C   0  0  0  0  0  0  0  0  0  0  0  0
   15.3588   60.2361  -10.5747 C   0  0  0  0  0  0  0  0  0  0  0  0
   16.6435   59.9011  -10.2103 C   0  0  0  0  0  0  0  0  0  0  0  0
   17.6250   60.8805  -10.2065 C   0  0  0  0  0  0  0  0  0  0  0  0
   17.3625   62.1835  -10.5537 C   0  0  0  0  0  0  0  0  0  0  0  0
   16.8926   58.5828   -9.8621 O   0  0  0  0  0  0  0  0  0  0  0  0
   13.7766   61.8856  -11.2953 O   0  0  0  0  0  0  0  0  0  0  0  0
   17.1757   57.8655  -10.5157 H   0  0  0  0  0  0  0  0  0  0  0  0
   13.5901   62.8467  -11.5503 H   0  0  0  0  0  0  0  0  0  0  0  0
 23 24  1  0  0  0
 24 25  2  0  0  0
 24 29  1  0  0  0
 25 26  1  0  0  0
 25 31  1  0  0  0
 26 27  2  0  0  0
 27 28  1  0  0  0
 27 30  1  0  0  0
 28 29  2  0  0  0
 29 21  1  0  0  0
 21 22  2  0  0  0
 22 19  1  0  0  0
 19  1  1  0  0  0
  1  2  2  0  0  0
  1  6  1  0  0  0
  2  3  1  0  0  0
  3  4  2  0  0  0
  3 13  1  0  0  0
  4  5  1  0  0  0
  5  6  2  0  0  0
  5  7  1  0  0  0
  7  8  1  0  0  0
  7 12  1  0  0  0
  8  9  1  0  0  0
  9 10  1  0  0  0
 10 11  1  0  0  0
 11 12  1  0  0  0
 13 14  1  0  0  0
 13 18  1  0  0  0
 14 15  1  0  0  0
 15 16  1  0  0  0
 16 17  1  0  0  0
 17 18  1  0  0  0
 19 20  1  0  0  0
 30 32  1  0  0  0
 31 33  1  0  0  0
M  END
> <minimizedAffinity>
-9.22048

$$$$
37


 27 30  0  0  0  0  0  0  0  0999 V2000
   19.8825   63.4581  -10.0802 N   0  0  0  0  0  0  0  0  0  0  0  0
   20.3824   63.9394   -8.8140 C   0  0  0  0  0  0  0  0  0  0  0  0
   21.7826   63.3662   -8.7949 C   0  0  0  0  0  0  0  0  0  0  0  0
   22.2500   63.6867  -10.2037 C   0  0  0  0  0  0  0  0  0  0  0  0
   20.9984   63.3879  -10.9493 C   0  0  0  0  0  0  0  0  0  0  0  0
   20.9523   63.1158  -12.1677 O   0  0  0  0  0  0  0  0  0  0  0  0
   13.9887   62.1797  -11.1560 Br  0  0  0  0  0  0  0  0  0  0  0  0
   15.8197   62.5903  -10.8219 C   0  0  0  0  0  0  0  0  0  0  0  0
   16.6964   61.5452  -10.5557 C   0  0  0  0  0  0  0  0  0  0  0  0
   18.0057   61.8651  -10.3212 C   0  0  0  0  0  0  0  0  0  0  0  0
   18.5188   63.1440  -10.3282 C   0  0  0  0  0  0  0  0  0  0  0  0
   17.6048   64.1654  -10.5999 C   0  0  0  0  0  0  0  0  0  0  0  0
   16.2728   63.8935  -10.8433 C   0  0  0  0  0  0  0  0  0  0  0  0
   16.1762   60.1509  -10.5385 C   0  0  0  0  0  0  0  0  0  0  0  0
   22.6340   64.0083   -7.7718 C   0  0  0  0  0  0  0  0  0  0  0  0
   23.7910   64.4080   -8.0453 O   0  0  0  0  0  0  0  0  0  0  0  0
   22.1277   64.1716   -6.4656 N   0  0  0  0  0  0  0  0  0  0  0  0
   21.1742   63.8433   -6.2305 H   0  0  0  0  0  0  0  0  0  0  0  0
   22.9228   64.7957   -5.4365 C   0  0  0  0  0  0  0  0  0  0  0  0
   23.4116   63.7918   -4.4501 C   0  0  0  0  0  0  0  0  0  0  0  0
   24.5915   63.1222   -4.4607 N   0  0  0  0  0  0  0  0  0  0  0  0
   24.6525   62.3084   -3.3934 C   0  0  0  0  0  0  0  0  0  0  0  0
   23.4826   62.4982   -2.7316 N   0  0  0  0  0  0  0  0  0  0  0  0
   22.7388   63.3842   -3.3620 N   0  0  0  0  0  0  0  0  0  0  0  0
   25.9465   61.5505   -3.3735 C   0  0  0  0  0  0  0  0  0  0  0  0
   26.4600   61.7601   -4.7806 C   0  0  0  0  0  0  0  0  0  0  0  0
   25.7895   63.0247   -5.2748 C   0  0  0  0  0  0  0  0  0  0  0  0
  7  8  1  0  0  0
  8  9  2  0  0  0
  8 13  1  0  0  0
  9 10  1  0  0  0
  9 14  1  0  0  0
 10 11  2  0  0  0
 11 12  1  0  0  0
 11  1  1  0  0  0
 12 13  2  0  0  0
  1  2  1  0  0  0
  1  5  1  0  0  0
  2  3  1  0  0  0
  3  4  1  0  0  0
  3 15  1  0  0  0
  4  5  1  0  0  0
  5  6  2  0  0  0
 15 16  2  0  0  0
 15 17  1  0  0  0
 17 19  1  0  0  0
 19 20  1  0  0  0
 20 21  1  0  0  0
 20 24  2  0  0  0
 21 22  1  0  0  0
 21 27  1  0  0  0
 22 23  2  0  0  0
 22 25  1  0  0  0
 23 24  1  0  0  0
 25 26  1  0  0  0
 26 27  1  0  0  0
 17 18  1  0  0  0
M  END
> <minimizedAffinity>
-10.32313

$$$$
39


 21 23  0  0  0  0  0  0  0  0999 V2000
   18.7436   63.0425   -9.2354 N   0  0  0  0  0  0  0  0  0  0  0  0
   20.0264   63.3092   -9.7166 C   0  0  0  0  0  0  0  0  0  0  0  0
   20.2063   63.8208  -10.8309 O   0  0  0  0  0  0  0  0  0  0  0  0
   18.6928   62.6028   -8.2683 H   0  0  0  0  0  0  0  0  0  0  0  0
   17.4994   60.4603  -10.1412 Br  0  0  0  0  0  0  0  0  0  0  0  0
   16.7414   62.2123  -10.3659 C   0  0  0  0  0  0  0  0  0  0  0  0
   17.4996   63.2801   -9.8641 C   0  0  0  0  0  0  0  0  0  0  0  0
   16.9330   64.5247  -10.0394 C   0  0  0  0  0  0  0  0  0  0  0  0
   15.6973   64.6883  -10.6699 C   0  0  0  0  0  0  0  0  0  0  0  0
   14.9727   63.6266  -11.1537 C   0  0  0  0  0  0  0  0  0  0  0  0
   15.5273   62.3806  -10.9858 C   0  0  0  0  0  0  0  0  0  0  0  0
   13.6525   63.8218  -11.8265 C   0  0  0  0  0  0  0  0  0  0  0  0
   21.1901   62.9716   -8.8737 C   0  0  0  0  0  0  0  0  0  0  0  0
   21.6127   63.9817   -7.9591 N   0  0  0  0  0  0  0  0  0  0  0  0
   23.0390   63.7557   -7.6778 C   0  0  0  0  0  0  0  0  0  0  0  0
   23.6190   65.0756   -7.2339 C   0  0  0  0  0  0  0  0  0  0  0  0
   22.5984   65.7011   -6.3936 N   0  0  0  0  0  0  0  0  0  0  0  0
   21.6482   66.3079   -7.3210 C   0  0  0  0  0  0  0  0  0  0  0  0
   21.4344   65.3370   -8.4735 C   0  0  0  0  0  0  0  0  0  0  0  0
   21.8759   64.6657   -5.6717 C   0  0  0  0  0  0  0  0  0  0  0  0
   20.9605   63.9330   -6.6665 C   0  0  0  0  0  0  0  0  0  0  0  0
  5  6  1  0  0  0
  6  7  2  0  0  0
  6 11  1  0  0  0
  7  8  1  0  0  0
  7  1  1  0  0  0
  8  9  2  0  0  0
  9 10  1  0  0  0
 10 11  2  0  0  0
 10 12  1  0  0  0
  1  2  1  0  0  0
  2  3  2  0  0  0
  2 13  1  0  0  0
 13 14  1  0  0  0
 14 15  1  0  0  0
 14 19  1  0  0  0
 14 21  1  0  0  0
 15 16  1  0  0  0
 16 17  1  0  0  0
 17 18  1  0  0  0
 17 20  1  0  0  0
 18 19  1  0  0  0
 20 21  1  0  0  0
  1  4  1  0  0  0
M  CHG 1  14   1
M  END
> <minimizedAffinity>
-7.23226

$$$$
56


 24 27  0  0  0  0  0  0  0  0999 V2000
   11.3546   68.6946  -14.2632 C   0  0  0  0  0  0  0  0  0  0  0  0
   12.0586   69.8709  -14.5265 C   0  0  0  0  0  0  0  0  0  0  0  0
   12.4305   70.6847  -15.7159 C   0  0  0  0  0  0  0  0  0  0  0  0
   11.2811   71.6145  -15.5803 N   0  0  0  0  0  0  0  0  0  0  0  0
   10.2451   70.9159  -15.2358 C   0  0  0  0  0  0  0  0  0  0  0  0
   10.6637   69.5522  -15.1469 C   0  0  0  0  0  0  0  0  0  0  0  0
    8.9198   71.4376  -14.9912 N   0  0  0  0  0  0  0  0  0  0  0  0
   13.6116   71.3737  -15.4190 O   0  0  0  0  0  0  0  0  0  0  0  0
   14.4852   71.1483  -16.4650 C   0  0  0  0  0  0  0  0  0  0  0  0
   13.5409   70.8401  -17.6147 C   0  0  0  0  0  0  0  0  0  0  0  0
   12.5618   70.0974  -16.9093 O   0  0  0  0  0  0  0  0  0  0  0  0
    8.5417   72.2254  -15.5510 H   0  0  0  0  0  0  0  0  0  0  0  0
    8.3200   71.0326  -14.2486 H   0  0  0  0  0  0  0  0  0  0  0  0
    9.4302   66.1519  -14.2613 Br  0  0  0  0  0  0  0  0  0  0  0  0
   11.2723   66.2425  -14.7534 C   0  0  0  0  0  0  0  0  0  0  0  0
   11.9750   67.4200  -14.7087 C   0  0  0  0  0  0  0  0  0  0  0  0
   13.2990   67.4485  -15.0773 C   0  0  0  0  0  0  0  0  0  0  0  0
   13.9594   66.3027  -15.4995 C   0  0  0  0  0  0  0  0  0  0  0  0
   13.2746   65.1126  -15.5523 C   0  0  0  0  0  0  0  0  0  0  0  0
   11.9271   65.0933  -15.1752 C   0  0  0  0  0  0  0  0  0  0  0  0
   10.6428   68.9866  -16.5295 C   0  0  0  0  0  0  0  0  0  0  0  0
   10.6140   68.5167  -17.6152 N   0  0  0  0  0  0  0  0  0  0  0  0
   12.0281   70.8277  -13.3630 C   0  0  0  0  0  0  0  0  0  0  0  0
   12.0230   71.5694  -12.4436 N   0  0  0  0  0  0  0  0  0  0  0  0
 14 15  1  0  0  0
 15 16  2  0  0  0
 15 20  1  0  0  0
 16 17  1  0  0  0
 16  1  1  0  0  0
 17 18  2  0  0  0
 18 19  1  0  0  0
 19 20  2  0  0  0
  1  2  1  0  0  0
  1  6  1  0  0  0
  2  3  1  0  0  0
  2  6  1  0  0  0
  2 23  1  0  0  0
  3  4  1  0  0  0
  3  8  1  0  0  0
  3 11  1  0  0  0
  4  5  2  0  0  0
  5  6  1  0  0  0
  5  7  1  0  0  0
  6 21  1  0  0  0
 21 22  3  0  0  0
  8  9  1  0  0  0
  9 10  1  0  0  0
 10 11  1  0  0  0
 23 24  3  0  0  0
  7 12  1  0  0  0
  7 13  1  0  0  0
M  END
> <minimizedAffinity>
-3.62342

$$$$
64


 22 25  0  0  0  0  0  0  0  0999 V2000
   18.7521   63.0026  -10.1362 N   0  0  0  0  0  0  0  0  0  0  0  0
   19.4571   62.8199   -8.9190 C   0  0  0  0  0  0  0  0  0  0  0  0
   18.9213   62.7843   -7.7972 O   0  0  0  0  0  0  0  0  0  0  0  0
   20.9111   62.6767   -9.1612 C   0  0  0  0  0  0  0  0  0  0  0  0
   21.7166   63.7873   -8.5820 C   0  0  0  0  0  0  0  0  0  0  0  0
   22.5147   64.2698   -9.6530 O   0  0  0  0  0  0  0  0  0  0  0  0
   21.4470   64.4609  -10.5681 C   0  0  0  0  0  0  0  0  0  0  0  0
   21.0211   62.9909  -10.6639 C   0  0  0  0  0  0  0  0  0  0  0  0
   19.6687   62.8530  -11.2248 C   0  0  0  0  0  0  0  0  0  0  0  0
   19.3413   62.6438  -12.4133 O   0  0  0  0  0  0  0  0  0  0  0  0
   20.5152   65.2514   -9.7363 C   0  0  0  0  0  0  0  0  0  0  0  0
   20.8074   64.9690   -8.4670 C   0  0  0  0  0  0  0  0  0  0  0  0
   16.9808   60.4966  -10.4718 Br  0  0  0  0  0  0  0  0  0  0  0  0
   16.4075   62.3358  -10.5160 C   0  0  0  0  0  0  0  0  0  0  0  0
   17.3778   63.2963  -10.3419 C   0  0  0  0  0  0  0  0  0  0  0  0
   16.9367   64.6147  -10.3810 C   0  0  0  0  0  0  0  0  0  0  0  0
   15.6102   64.9450  -10.5807 C   0  0  0  0  0  0  0  0  0  0  0  0
   14.6567   63.9481  -10.7525 C   0  0  0  0  0  0  0  0  0  0  0  0
   15.0810   62.6467  -10.7157 C   0  0  0  0  0  0  0  0  0  0  0  0
   22.4957   63.5037   -7.3677 C   0  0  0  0  0  0  0  0  0  0  0  0
   23.3353   62.4057   -7.6338 O   0  0  0  0  0  0  0  0  0  0  0  0
   22.7900   61.5655   -7.6351 H   0  0  0  0  0  0  0  0  0  0  0  0
 13 14  1  0  0  0
 14 15  2  0  0  0
 14 19  1  0  0  0
 15 16  1  0  0  0
 15  1  1  0  0  0
 16 17  2  0  0  0
 17 18  1  0  0  0
 18 19  2  0  0  0
  1  2  1  0  0  0
  1  9  1  0  0  0
  2  3  2  0  0  0
  2  4  1  0  0  0
  4  5  1  0  0  0
  4  8  1  0  0  0
  5  6  1  0  0  0
  5 12  1  0  0  0
  5 20  1  0  0  0
  6  7  1  0  0  0
  7  8  1  0  0  0
  7 11  1  0  0  0
  8  9  1  0  0  0
  9 10  2  0  0  0
 11 12  2  0  0  0
 20 21  1  0  0  0
 21 22  1  0  0  0
M  END
> <minimizedAffinity>
-6.93143

$$$$
67


 22 25  0  0  0  0  0  0  0  0999 V2000
   18.1354   62.3445   -9.6250 N   0  0  0  0  0  0  0  0  0  0  0  0
   18.4576   63.2024   -8.4686 C   0  0  0  0  0  0  0  0  0  0  0  0
   19.8417   63.5629   -8.7477 C   0  0  0  0  0  0  0  0  0  0  0  0
   20.0328   64.6652   -9.5978 O   0  0  0  0  0  0  0  0  0  0  0  0
   21.4378   64.5046   -9.7289 C   0  0  0  0  0  0  0  0  0  0  0  0
   21.4166   63.1335  -10.4184 C   0  0  0  0  0  0  0  0  0  0  0  0
   20.4982   62.3915   -9.4983 C   0  0  0  0  0  0  0  0  0  0  0  0
   19.3391   61.7546  -10.1016 C   0  0  0  0  0  0  0  0  0  0  0  0
   19.3701   60.8174  -10.9257 O   0  0  0  0  0  0  0  0  0  0  0  0
   21.8349   64.3995   -8.2940 C   0  0  0  0  0  0  0  0  0  0  0  0
   20.7479   63.9091   -7.6572 C   0  0  0  0  0  0  0  0  0  0  0  0
   16.4978   64.9635  -10.3158 Br  0  0  0  0  0  0  0  0  0  0  0  0
   16.0126   63.1584  -10.5592 C   0  0  0  0  0  0  0  0  0  0  0  0
   16.8566   62.1222  -10.1987 C   0  0  0  0  0  0  0  0  0  0  0  0
   16.3686   60.8434  -10.4370 C   0  0  0  0  0  0  0  0  0  0  0  0
   15.1378   60.5921  -10.9892 C   0  0  0  0  0  0  0  0  0  0  0  0
   14.3244   61.6233  -11.3371 C   0  0  0  0  0  0  0  0  0  0  0  0
   14.7599   62.9036  -11.1219 C   0  0  0  0  0  0  0  0  0  0  0  0
   20.7464   63.3780  -11.7350 C   0  0  0  0  0  0  0  0  0  0  0  0
   19.6218   63.8895  -11.8334 O   0  0  0  0  0  0  0  0  0  0  0  0
   21.4171   63.0132  -12.8956 O   0  0  0  0  0  0  0  0  0  0  0  0
   22.8474   63.0933  -12.9132 C   0  0  0  0  0  0  0  0  0  0  0  0
 12 13  1  0  0  0
 13 14  2  0  0  0
 13 18  1  0  0  0
 14 15  1  0  0  0
 14  1  1  0  0  0
 15 16  2  0  0  0
 16 17  1  0  0  0
 17 18  2  0  0  0
  1  2  1  0  0  0
  1  8  1  0  0  0
  2  3  1  0  0  0
  3  4  1  0  0  0
  3  7  1  0  0  0
  3 11  1  0  0  0
  4  5  1  0  0  0
  5  6  1  0  0  0
  5 10  1  0  0  0
  6  7  1  0  0  0
  6 19  1  0  0  0
  7  8  1  0  0  0
  8  9  2  0  0  0
 19 20  2  0  0  0
 19 21  1  0  0  0
 21 22  1  0  0  0
 10 11  2  0  0  0
M  END
> <minimizedAffinity>
-6.19976

$$$$
81


 22 25  0  0  0  0  0  0  0  0999 V2000
   21.2017   63.5188   -9.1144 C   0  0  0  0  0  0  0  0  0  0  0  0
   20.7238   64.2773   -8.1112 N   0  0  0  0  0  0  0  0  0  0  0  0
   21.5794   64.2494   -7.0876 N   0  0  0  0  0  0  0  0  0  0  0  0
   22.6283   63.4684   -7.4171 C   0  0  0  0  0  0  0  0  0  0  0  0
   22.3718   63.0327   -8.6644 N   0  0  0  0  0  0  0  0  0  0  0  0
   23.6488   63.2898   -6.5033 C   0  0  0  0  0  0  0  0  0  0  0  0
   23.6368   63.8844   -5.2577 C   0  0  0  0  0  0  0  0  0  0  0  0
   24.7467   63.5459   -4.5717 N   0  0  0  0  0  0  0  0  0  0  0  0
   25.4594   62.7542   -5.3496 N   0  0  0  0  0  0  0  0  0  0  0  0
   24.8247   62.5689   -6.5446 C   0  0  0  0  0  0  0  0  0  0  0  0
   25.1301   63.9507   -3.2290 C   0  0  0  0  0  0  0  0  0  0  0  0
   22.5725   64.6549   -4.9686 N   0  0  0  0  0  0  0  0  0  0  0  0
   21.5717   64.8265   -5.8728 C   0  0  0  0  0  0  0  0  0  0  0  0
   20.5619   63.2697  -10.4525 C   0  0  0  0  0  0  0  0  0  0  0  0
   15.4935   61.5486  -10.7654 Br  0  0  0  0  0  0  0  0  0  0  0  0
   17.3595   61.6847  -10.4404 C   0  0  0  0  0  0  0  0  0  0  0  0
   18.1653   62.7559  -10.7270 C   0  0  0  0  0  0  0  0  0  0  0  0
   19.4008   62.4187  -10.3316 N   0  0  0  0  0  0  0  0  0  0  0  0
   19.3812   61.2027   -9.8220 N   0  0  0  0  0  0  0  0  0  0  0  0
   18.1254   60.7027   -9.8688 C   0  0  0  0  0  0  0  0  0  0  0  0
   17.6842   59.3443   -9.3867 C   0  0  0  0  0  0  0  0  0  0  0  0
   17.7090   64.0345  -11.3604 C   0  0  0  0  0  0  0  0  0  0  0  0
 15 16  1  0  0  0
 16 17  2  0  0  0
 16 20  1  0  0  0
 17 18  1  0  0  0
 17 22  1  0  0  0
 18 19  1  0  0  0
 18 14  1  0  0  0
 19 20  2  0  0  0
 20 21  1  0  0  0
 14  1  1  0  0  0
  1  2  2  0  0  0
  1  5  1  0  0  0
  2  3  1  0  0  0
  3  4  1  0  0  0
  3 13  1  0  0  0
  4  5  2  0  0  0
  4  6  1  0  0  0
  6  7  2  0  0  0
  6 10  1  0  0  0
  7  8  1  0  0  0
  7 12  1  0  0  0
  8  9  1  0  0  0
  8 11  1  0  0  0
  9 10  2  0  0  0
 12 13  2  0  0  0
M  END
> <minimizedAffinity>
-7.56234

$$$$
85


 26 29  0  0  0  0  0  0  0  0999 V2000
   14.4046   63.8793  -11.8751 C   0  0  0  0  0  0  0  0  0  0  0  0
   14.7080   62.6051  -11.3540 C   0  0  0  0  0  0  0  0  0  0  0  0
   13.9247   61.5049  -11.1898 N   0  0  0  0  0  0  0  0  0  0  0  0
   14.6712   60.5795  -10.6682 O   0  0  0  0  0  0  0  0  0  0  0  0
   15.8792   61.0149  -10.4877 N   0  0  0  0  0  0  0  0  0  0  0  0
   15.9612   62.2859  -10.9019 C   0  0  0  0  0  0  0  0  0  0  0  0
   17.0071   63.1861  -10.9259 C   0  0  0  0  0  0  0  0  0  0  0  0
   16.7058   64.4342  -11.4372 C   0  0  0  0  0  0  0  0  0  0  0  0
   15.4348   64.7697  -11.8998 C   0  0  0  0  0  0  0  0  0  0  0  0
   18.2987   62.8735  -10.4648 N   0  0  0  0  0  0  0  0  0  0  0  0
   18.6104   63.1119   -9.0580 C   0  0  0  0  0  0  0  0  0  0  0  0
   20.0696   62.8929   -8.7677 C   0  0  0  0  0  0  0  0  0  0  0  0
   20.9373   63.3252   -9.7154 O   0  0  0  0  0  0  0  0  0  0  0  0
   20.5375   63.3158  -11.0197 C   0  0  0  0  0  0  0  0  0  0  0  0
   19.4005   62.3320  -11.2013 C   0  0  0  0  0  0  0  0  0  0  0  0
   12.6753   64.2576  -13.6367 C   0  0  0  0  0  0  0  0  0  0  0  0
   13.5502   64.2104  -14.5798 O   0  0  0  0  0  0  0  0  0  0  0  0
   13.0736   64.0953  -12.3128 N   0  0  0  0  0  0  0  0  0  0  0  0
   12.2887   64.1295  -11.5950 H   0  0  0  0  0  0  0  0  0  0  0  0
   11.2635   67.4465  -14.0409 Br  0  0  0  0  0  0  0  0  0  0  0  0
   10.6156   65.6596  -14.2248 C   0  0  0  0  0  0  0  0  0  0  0  0
   11.2760   64.4870  -14.0533 C   0  0  0  0  0  0  0  0  0  0  0  0
   10.4014   63.4560  -14.3153 N   0  0  0  0  0  0  0  0  0  0  0  0
    9.2582   64.0049  -14.6308 N   0  0  0  0  0  0  0  0  0  0  0  0
    9.2978   65.3321  -14.6019 C   0  0  0  0  0  0  0  0  0  0  0  0
   10.6940   62.0480  -14.2505 C   0  0  0  0  0  0  0  0  0  0  0  0
 20 21  1  0  0  0
 21 22  2  0  0  0
 21 25  1  0  0  0
 22 23  1  0  0  0
 22 16  1  0  0  0
 23 24  1  0  0  0
 23 26  1  0  0  0
 24 25  2  0  0  0
 16 17  2  0  0  0
 16 18  1  0  0  0
 18  1  1  0  0  0
  1  2  1  0  0  0
  1  9  2  0  0  0
  2  3  2  0  0  0
  2  6  1  0  0  0
  3  4  1  0  0  0
  4  5  1  0  0  0
  5  6  2  0  0  0
  6  7  1  0  0  0
  7  8  2  0  0  0
  7 10  1  0  0  0
  8  9  1  0  0  0
 10 11  1  0  0  0
 10 15  1  0  0  0
 11 12  1  0  0  0
 12 13  1  0  0  0
 13 14  1  0  0  0
 14 15  1  0  0  0
 18 19  1  0  0  0
M  END
> <minimizedAffinity>
-7.62770

$$$$
95


 26 29  0  0  0  0  0  0  0  0999 V2000
   12.5990   63.6135  -14.3314 C   0  0  0  0  0  0  0  0  0  0  0  0
   13.1652   63.7932  -15.4579 O   0  0  0  0  0  0  0  0  0  0  0  0
   13.1794   63.7801  -13.0968 N   0  0  0  0  0  0  0  0  0  0  0  0
   14.3577   64.1288  -13.6833 H   0  0  0  0  0  0  0  0  0  0  0  0
    8.9269   59.7096  -14.0816 Br  0  0  0  0  0  0  0  0  0  0  0  0
    9.4441   61.5163  -14.3099 C   0  0  0  0  0  0  0  0  0  0  0  0
   10.7982   61.8626  -14.2275 C   0  0  0  0  0  0  0  0  0  0  0  0
   11.1540   63.1762  -14.3967 C   0  0  0  0  0  0  0  0  0  0  0  0
   10.2107   64.1389  -14.6406 C   0  0  0  0  0  0  0  0  0  0  0  0
    8.8504   63.7962  -14.7255 C   0  0  0  0  0  0  0  0  0  0  0  0
    8.4912   62.4744  -14.5554 C   0  0  0  0  0  0  0  0  0  0  0  0
   10.6501   65.4760  -14.7973 N   0  0  0  0  0  0  0  0  0  0  0  0
   10.7889   66.3236  -13.7960 N   0  0  0  0  0  0  0  0  0  0  0  0
   11.2111   67.4928  -14.2278 N   0  0  0  0  0  0  0  0  0  0  0  0
   11.3552   67.4188  -15.5409 N   0  0  0  0  0  0  0  0  0  0  0  0
   11.0075   66.1746  -15.8850 C   0  0  0  0  0  0  0  0  0  0  0  0
   13.7572   63.9457  -11.8698 C   0  0  0  0  0  0  0  0  0  0  0  0
   14.4715   62.7087  -11.3510 C   0  0  0  0  0  0  0  0  0  0  0  0
   15.7717   62.6599  -10.9874 N   0  0  0  0  0  0  0  0  0  0  0  0
   16.0906   61.4263  -10.5751 C   0  0  0  0  0  0  0  0  0  0  0  0
   14.9656   60.7028  -10.6859 N   0  0  0  0  0  0  0  0  0  0  0  0
   13.9798   61.4801  -11.1577 N   0  0  0  0  0  0  0  0  0  0  0  0
   17.3911   61.1314  -10.1448 C   0  0  0  0  0  0  0  0  0  0  0  0
   18.3523   62.1037  -10.1412 C   0  0  0  0  0  0  0  0  0  0  0  0
   18.0228   63.3755  -10.5662 C   0  0  0  0  0  0  0  0  0  0  0  0
   16.7261   63.6332  -10.9865 C   0  0  0  0  0  0  0  0  0  0  0  0
  5  6  1  0  0  0
  6  7  2  0  0  0
  6 11  1  0  0  0
  7  8  1  0  0  0
  8  9  2  0  0  0
  8  1  1  0  0  0
  9 10  1  0  0  0
  9 12  1  0  0  0
 10 11  2  0  0  0
 12 13  1  0  0  0
 12 16  1  0  0  0
 13 14  2  0  0  0
 14 15  1  0  0  0
 15 16  2  0  0  0
  1  2  2  0  0  0
  1  3  1  0  0  0
  3 17  1  0  0  0
 17 18  1  0  0  0
 18 19  1  0  0  0
 18 22  2  0  0  0
 19 20  1  0  0  0
 19 26  1  0  0  0
 20 21  2  0  0  0
 20 23  1  0  0  0
 21 22  1  0  0  0
 23 24  2  0  0  0
 24 25  1  0  0  0
 25 26  2  0  0  0
  3  4  1  0  0  0
M  END
> <minimizedAffinity>
-7.38686

$$$$
106


 29 32  0  0  0  0  0  0  0  0999 V2000
   19.1956   63.0824  -12.3029 C   0  0  0  0  0  0  0  0  0  0  0  0
   20.3447   63.1065  -11.6863 C   0  0  0  0  0  0  0  0  0  0  0  0
   20.4967   63.1020  -10.3085 O   0  0  0  0  0  0  0  0  0  0  0  0
   21.8278   63.1340   -9.9372 C   0  0  0  0  0  0  0  0  0  0  0  0
   22.6393   63.1632  -11.0485 C   0  0  0  0  0  0  0  0  0  0  0  0
   24.0102   63.1987  -10.9044 C   0  0  0  0  0  0  0  0  0  0  0  0
   24.5585   63.2062   -9.6394 C   0  0  0  0  0  0  0  0  0  0  0  0
   23.7058   63.1766   -8.5182 C   0  0  0  0  0  0  0  0  0  0  0  0
   22.3504   63.1397   -8.6360 C   0  0  0  0  0  0  0  0  0  0  0  0
   24.4030   63.1899   -7.2997 O   0  0  0  0  0  0  0  0  0  0  0  0
   21.7204   63.1458  -12.1916 C   0  0  0  0  0  0  0  0  0  0  0  0
   22.0409   63.1620  -13.4006 O   0  0  0  0  0  0  0  0  0  0  0  0
   14.4163   65.4236  -11.4428 Br  0  0  0  0  0  0  0  0  0  0  0  0
   15.7226   64.0508  -11.2489 C   0  0  0  0  0  0  0  0  0  0  0  0
   16.9549   64.0549  -11.8362 C   0  0  0  0  0  0  0  0  0  0  0  0
   17.8833   63.0493  -11.6799 C   0  0  0  0  0  0  0  0  0  0  0  0
   17.5181   61.9725  -10.8661 C   0  0  0  0  0  0  0  0  0  0  0  0
   16.2969   61.9142  -10.2529 C   0  0  0  0  0  0  0  0  0  0  0  0
   15.4010   62.9588  -10.4479 C   0  0  0  0  0  0  0  0  0  0  0  0
   18.4330   60.9529  -10.6888 O   0  0  0  0  0  0  0  0  0  0  0  0
   18.5134   60.2771   -9.4614 C   0  0  0  0  0  0  0  0  0  0  0  0
   21.4339   63.0887   -7.5303 C   0  0  0  0  0  0  0  0  0  0  0  0
   20.8931   64.2404   -6.9332 N   0  0  0  0  0  0  0  0  0  0  0  0
   20.5947   64.1381   -5.5307 C   0  0  0  0  0  0  0  0  0  0  0  0
   21.7860   64.3515   -4.6298 C   0  0  0  0  0  0  0  0  0  0  0  0
   22.9844   64.4873   -5.3170 O   0  0  0  0  0  0  0  0  0  0  0  0
   22.8291   65.5808   -6.1620 C   0  0  0  0  0  0  0  0  0  0  0  0
   21.7271   65.4349   -7.1593 C   0  0  0  0  0  0  0  0  0  0  0  0
   20.0092   64.4941   -7.4206 H   0  0  0  0  0  0  0  0  0  0  0  0
 13 14  1  0  0  0
 14 15  2  0  0  0
 14 19  1  0  0  0
 15 16  1  0  0  0
 16 17  2  0  0  0
 16  1  1  0  0  0
 17 18  1  0  0  0
 17 20  1  0  0  0
 18 19  2  0  0  0
 20 21  1  0  0  0
  1  2  2  0  0  0
  2  3  1  0  0  0
  2 11  1  0  0  0
  3  4  1  0  0  0
  4  5  2  0  0  0
  4  9  1  0  0  0
  5  6  1  0  0  0
  5 11  1  0  0  0
  6  7  2  0  0  0
  7  8  1  0  0  0
  8  9  2  0  0  0
  8 10  1  0  0  0
  9 22  1  0  0  0
 22 23  1  0  0  0
 23 24  1  0  0  0
 23 28  1  0  0  0
 24 25  1  0  0  0
 25 26  1  0  0  0
 26 27  1  0  0  0
 27 28  1  0  0  0
 11 12  2  0  0  0
 23 29  1  0  0  0
M  CHG 1  10  -1
M  CHG 1  23   1
M  END
> <minimizedAffinity>
-2.57204

$$$$
107


 31 34  0  0  0  0  0  0  0  0999 V2000
   22.6307   66.6128   -6.5009 C   0  0  0  0  0  0  0  0  0  0  0  0
   21.8487   66.1173   -7.4842 N   0  0  0  0  0  0  0  0  0  0  0  0
   21.7699   64.8032   -7.7237 C   0  0  0  0  0  0  0  0  0  0  0  0
   22.4924   63.9697   -6.9592 N   0  0  0  0  0  0  0  0  0  0  0  0
   23.2997   64.3987   -5.9525 C   0  0  0  0  0  0  0  0  0  0  0  0
   23.3304   65.7472   -5.7669 N   0  0  0  0  0  0  0  0  0  0  0  0
   20.9480   64.2820   -8.7589 N   0  0  0  0  0  0  0  0  0  0  0  0
   19.8619   63.3635   -8.4977 C   0  0  0  0  0  0  0  0  0  0  0  0
   19.8235   62.2476   -9.5309 C   0  0  0  0  0  0  0  0  0  0  0  0
   19.9859   62.7673  -10.8201 O   0  0  0  0  0  0  0  0  0  0  0  0
   21.1981   63.3983  -10.9656 C   0  0  0  0  0  0  0  0  0  0  0  0
   21.1783   64.6630  -10.1345 C   0  0  0  0  0  0  0  0  0  0  0  0
   24.0545   63.5198   -5.1549 N   0  0  0  0  0  0  0  0  0  0  0  0
   23.8676   63.4531   -3.7362 C   0  0  0  0  0  0  0  0  0  0  0  0
   25.2411   63.6426   -3.0958 C   0  0  0  0  0  0  0  0  0  0  0  0
   26.0722   62.6707   -3.6253 O   0  0  0  0  0  0  0  0  0  0  0  0
   26.3295   62.8536   -4.9635 C   0  0  0  0  0  0  0  0  0  0  0  0
   25.0370   62.6685   -5.7590 C   0  0  0  0  0  0  0  0  0  0  0  0
   22.7375   68.0029   -6.2190 N   0  0  0  0  0  0  0  0  0  0  0  0
   21.9309   68.6586   -6.4054 H   0  0  0  0  0  0  0  0  0  0  0  0
   23.9659   69.7893   -5.2806 C   0  0  0  0  0  0  0  0  0  0  0  0
   23.8929   68.5787   -5.6882 N   0  0  0  0  0  0  0  0  0  0  0  0
   27.0969   70.6292   -1.0429 Br  0  0  0  0  0  0  0  0  0  0  0  0
   26.6541   70.8048   -2.8884 C   0  0  0  0  0  0  0  0  0  0  0  0
   25.5026   70.2475   -3.3986 C   0  0  0  0  0  0  0  0  0  0  0  0
   25.1825   70.3745   -4.7285 C   0  0  0  0  0  0  0  0  0  0  0  0
   26.0472   71.0767   -5.5397 C   0  0  0  0  0  0  0  0  0  0  0  0
   27.2189   71.6464   -5.0352 C   0  0  0  0  0  0  0  0  0  0  0  0
   27.5360   71.5153   -3.6930 C   0  0  0  0  0  0  0  0  0  0  0  0
   25.6996   71.1893   -6.8808 O   0  0  0  0  0  0  0  0  0  0  0  0
   26.5813   71.6364   -7.8843 C   0  0  0  0  0  0  0  0  0  0  0  0
 23 24  1  0  0  0
 24 25  2  0  0  0
 24 29  1  0  0  0
 25 26  1  0  0  0
 26 27  2  0  0  0
 26 21  1  0  0  0
 27 28  1  0  0  0
 27 30  1  0  0  0
 28 29  2  0  0  0
 30 31  1  0  0  0
 21 22  2  0  0  0
 22 19  1  0  0  0
 19  1  1  0  0  0
  1  2  2  0  0  0
  1  6  1  0  0  0
  2  3  1  0  0  0
  3  4  2  0  0  0
  3  7  1  0  0  0
  4  5  1  0  0  0
  5  6  2  0  0  0
  5 13  1  0  0  0
 13 14  1  0  0  0
 13 18  1  0  0  0
 14 15  1  0  0  0
 15 16  1  0  0  0
 16 17  1  0  0  0
 17 18  1  0  0  0
  7  8  1  0  0  0
  7 12  1  0  0  0
  8  9  1  0  0  0
  9 10  1  0  0  0
 10 11  1  0  0  0
 11 12  1  0  0  0
 19 20  1  0  0  0
M  END
> <minimizedAffinity>
-8.53349

$$$$
111


 29 32  0  0  0  0  0  0  0  0999 V2000
   18.8704   62.8830   -9.3104 C   0  0  0  0  0  0  0  0  0  0  0  0
   20.1352   63.0434   -9.6340 N   0  0  0  0  0  0  0  0  0  0  0  0
   20.8902   63.2836   -8.5156 C   0  0  0  0  0  0  0  0  0  0  0  0
   20.0339   63.2739   -7.4688 N   0  0  0  0  0  0  0  0  0  0  0  0
   18.8476   63.0418   -7.9179 N   0  0  0  0  0  0  0  0  0  0  0  0
   22.1694   63.4444   -8.8618 N   0  0  0  0  0  0  0  0  0  0  0  0
   22.2344   63.3129  -10.1967 C   0  0  0  0  0  0  0  0  0  0  0  0
   20.9657   63.0638  -10.7077 C   0  0  0  0  0  0  0  0  0  0  0  0
   20.7327   62.9149  -11.9976 N   0  0  0  0  0  0  0  0  0  0  0  0
   21.8134   63.0091  -12.8343 C   0  0  0  0  0  0  0  0  0  0  0  0
   21.7062   62.8810  -14.0802 O   0  0  0  0  0  0  0  0  0  0  0  0
   23.0599   63.2455  -12.3738 N   0  0  0  0  0  0  0  0  0  0  0  0
   23.2964   63.4004  -11.0765 C   0  0  0  0  0  0  0  0  0  0  0  0
   24.4325   63.6228  -10.5863 O   0  0  0  0  0  0  0  0  0  0  0  0
   19.4833   62.7346  -12.6731 C   0  0  0  0  0  0  0  0  0  0  0  0
   23.8716   63.3129  -13.0231 H   0  0  0  0  0  0  0  0  0  0  0  0
   14.3538   64.5637  -11.6422 Br  0  0  0  0  0  0  0  0  0  0  0  0
   15.5003   63.1732  -11.0179 C   0  0  0  0  0  0  0  0  0  0  0  0
   16.6932   63.4904  -10.4361 C   0  0  0  0  0  0  0  0  0  0  0  0
   17.6115   62.6131   -9.9446 C   0  0  0  0  0  0  0  0  0  0  0  0
   17.2153   61.2634  -10.0893 C   0  0  0  0  0  0  0  0  0  0  0  0
   16.0236   60.8976  -10.6679 C   0  0  0  0  0  0  0  0  0  0  0  0
   15.1475   61.8619  -11.1414 C   0  0  0  0  0  0  0  0  0  0  0  0
   18.0610   60.2692   -9.6288 O   0  0  0  0  0  0  0  0  0  0  0  0
   17.6419   59.0051   -9.2181 C   0  0  0  0  0  0  0  0  0  0  0  0
   23.2816   63.7072   -7.9967 C   0  0  0  0  0  0  0  0  0  0  0  0
   23.1925   65.1275   -7.4784 C   0  0  0  0  0  0  0  0  0  0  0  0
   22.8109   65.0811   -6.1521 O   0  0  0  0  0  0  0  0  0  0  0  0
   23.5370   64.1125   -5.4377 C   0  0  0  0  0  0  0  0  0  0  0  0
 17 18  1  0  0  0
 18 19  2  0  0  0
 18 23  1  0  0  0
 19 20  1  0  0  0
 20 21  2  0  0  0
 20  1  1  0  0  0
 21 22  1  0  0  0
 21 24  1  0  0  0
 22 23  2  0  0  0
 24 25  1  0  0  0
  1  2  1  0  0  0
  1  5  2  0  0  0
  2  3  1  0  0  0
  2  8  1  0  0  0
  3  4  2  0  0  0
  3  6  1  0  0  0
  4  5  1  0  0  0
  6  7  1  0  0  0
  6 26  1  0  0  0
  7  8  2  0  0  0
  7 13  1  0  0  0
  8  9  1  0  0  0
  9 10  1  0  0  0
  9 15  1  0  0  0
 10 11  2  0  0  0
 10 12  1  0  0  0
 12 13  1  0  0  0
 13 14  2  0  0  0
 26 27  1  0  0  0
 27 28  1  0  0  0
 28 29  1  0  0  0
 12 16  1  0  0  0
M  END
> <minimizedAffinity>
-6.62632

$$$$
127


 29 32  0  0  0  0  0  0  0  0999 V2000
   22.0445   63.3421   -9.3097 N   0  0  0  0  0  0  0  0  0  0  0  0
   21.5914   63.9235  -10.5182 C   0  0  0  0  0  0  0  0  0  0  0  0
   20.2575   63.4880  -10.9905 C   0  0  0  0  0  0  0  0  0  0  0  0
   19.2760   63.6215   -9.9621 N   0  0  0  0  0  0  0  0  0  0  0  0
   19.7162   63.6655   -8.5973 C   0  0  0  0  0  0  0  0  0  0  0  0
   21.0472   62.9905   -8.3600 C   0  0  0  0  0  0  0  0  0  0  0  0
   17.8855   63.6844  -10.2428 C   0  0  0  0  0  0  0  0  0  0  0  0
   17.2138   62.5382  -10.3326 C   0  0  0  0  0  0  0  0  0  0  0  0
   17.5472   61.1666  -10.2136 N   0  0  0  0  0  0  0  0  0  0  0  0
   16.3353   60.4713  -10.4276 N   0  0  0  0  0  0  0  0  0  0  0  0
   15.3040   61.4089  -10.6697 C   0  0  0  0  0  0  0  0  0  0  0  0
   15.7677   62.6485  -10.6248 C   0  0  0  0  0  0  0  0  0  0  0  0
   15.1722   63.9305  -10.7928 N   0  0  0  0  0  0  0  0  0  0  0  0
   15.8672   65.0093  -10.6951 C   0  0  0  0  0  0  0  0  0  0  0  0
   17.2471   64.9662  -10.4185 N   0  0  0  0  0  0  0  0  0  0  0  0
   13.8736   61.1069  -10.9425 C   0  0  0  0  0  0  0  0  0  0  0  0
   18.8468   60.6057   -9.9340 C   0  0  0  0  0  0  0  0  0  0  0  0
   16.2868   59.4315  -10.3973 H   0  0  0  0  0  0  0  0  0  0  0  0
   17.8467   65.8046  -10.3312 H   0  0  0  0  0  0  0  0  0  0  0  0
   23.2642   63.8249   -8.7915 C   0  0  0  0  0  0  0  0  0  0  0  0
   23.1264   64.6051   -7.5604 C   0  0  0  0  0  0  0  0  0  0  0  0
   22.5682   65.7313   -7.6095 O   0  0  0  0  0  0  0  0  0  0  0  0
   26.9271   61.7695   -5.1041 Br  0  0  0  0  0  0  0  0  0  0  0  0
   25.3174   62.7836   -5.1238 C   0  0  0  0  0  0  0  0  0  0  0  0
   24.7998   63.3228   -6.2947 C   0  0  0  0  0  0  0  0  0  0  0  0
   23.6412   64.0543   -6.3110 C   0  0  0  0  0  0  0  0  0  0  0  0
   22.9672   64.2623   -5.1300 C   0  0  0  0  0  0  0  0  0  0  0  0
   23.4733   63.7323   -3.9701 C   0  0  0  0  0  0  0  0  0  0  0  0
   24.6460   62.9888   -3.9384 C   0  0  0  0  0  0  0  0  0  0  0  0
 23 24  1  0  0  0
 24 25  2  0  0  0
 24 29  1  0  0  0
 25 26  1  0  0  0
 26 27  2  0  0  0
 26 21  1  0  0  0
 27 28  1  0  0  0
 28 29  2  0  0  0
 21 22  2  0  0  0
 21 20  1  0  0  0
 20  1  1  0  0  0
  1  2  1  0  0  0
  1  6  1  0  0  0
  2  3  1  0  0  0
  3  4  1  0  0  0
  4  5  1  0  0  0
  4  7  1  0  0  0
  5  6  1  0  0  0
  7  8  2  0  0  0
  7 15  1  0  0  0
  8  9  1  0  0  0
  8 12  1  0  0  0
  9 10  1  0  0  0
  9 17  1  0  0  0
 10 11  1  0  0  0
 11 12  2  0  0  0
 11 16  1  0  0  0
 12 13  1  0  0  0
 13 14  2  0  0  0
 14 15  1  0  0  0
 10 18  1  0  0  0
 15 19  1  0  0  0
M  END
> <minimizedAffinity>
-8.24489

$$$$
129


 31 34  0  0  0  0  0  0  0  0999 V2000
   16.0321   63.0540  -10.8828 C   0  0  0  0  0  0  0  0  0  0  0  0
   15.2197   62.1588  -10.4910 O   0  0  0  0  0  0  0  0  0  0  0  0
   17.4349   62.8061  -10.8860 N   0  0  0  0  0  0  0  0  0  0  0  0
   18.4045   63.8357  -11.1609 C   0  0  0  0  0  0  0  0  0  0  0  0
   19.1477   63.9777   -9.8111 C   0  0  0  0  0  0  0  0  0  0  0  0
   20.0127   62.7492   -9.7223 C   0  0  0  0  0  0  0  0  0  0  0  0
   20.4433   62.6471   -8.3289 N   0  0  0  0  0  0  0  0  0  0  0  0
   21.1221   63.7992   -7.8659 C   0  0  0  0  0  0  0  0  0  0  0  0
   22.4278   64.0564   -8.5958 C   0  0  0  0  0  0  0  0  0  0  0  0
   22.3552   63.6461  -10.0106 C   0  0  0  0  0  0  0  0  0  0  0  0
   23.2755   63.7741  -10.9810 N   0  0  0  0  0  0  0  0  0  0  0  0
   22.7502   63.2411  -12.1061 C   0  0  0  0  0  0  0  0  0  0  0  0
   21.5039   62.7889  -11.8161 N   0  0  0  0  0  0  0  0  0  0  0  0
   21.2285   63.0295  -10.5194 C   0  0  0  0  0  0  0  0  0  0  0  0
   19.3479   61.4716  -10.0960 C   0  0  0  0  0  0  0  0  0  0  0  0
   17.9444   61.5136  -10.5968 C   0  0  0  0  0  0  0  0  0  0  0  0
   20.9734   61.7576   -8.1434 H   0  0  0  0  0  0  0  0  0  0  0  0
   20.9437   62.3399  -12.5681 H   0  0  0  0  0  0  0  0  0  0  0  0
   15.4542   64.3226  -11.3019 C   0  0  0  0  0  0  0  0  0  0  0  0
   15.4852   65.3082  -10.1446 C   0  0  0  0  0  0  0  0  0  0  0  0
   13.9087   64.7029  -13.2211 C   0  0  0  0  0  0  0  0  0  0  0  0
   14.6170   65.2740  -14.0320 O   0  0  0  0  0  0  0  0  0  0  0  0
   14.2013   64.2072  -11.9541 N   0  0  0  0  0  0  0  0  0  0  0  0
   13.4615   63.6495  -11.4302 H   0  0  0  0  0  0  0  0  0  0  0  0
   10.3823   61.3676  -15.3967 Br  0  0  0  0  0  0  0  0  0  0  0  0
   10.8509   63.0655  -14.6162 C   0  0  0  0  0  0  0  0  0  0  0  0
   12.1407   63.2853  -14.1942 C   0  0  0  0  0  0  0  0  0  0  0  0
   12.4680   64.4980  -13.6272 C   0  0  0  0  0  0  0  0  0  0  0  0
   11.5325   65.4725  -13.4868 C   0  0  0  0  0  0  0  0  0  0  0  0
   10.2555   65.2353  -13.9157 C   0  0  0  0  0  0  0  0  0  0  0  0
    9.8672   64.0249  -14.4939 C   0  0  0  0  0  0  0  0  0  0  0  0
 25 26  1  0  0  0
 26 27  2  0  0  0
 26 31  1  0  0  0
 27 28  1  0  0  0
 28 29  2  0  0  0
 28 21  1  0  0  0
 29 30  1  0  0  0
 30 31  2  0  0  0
 21 22  2  0  0  0
 21 23  1  0  0  0
 23 19  1  0  0  0
 19 20  1  0  0  0
 19  1  1  0  0  0
  1  2  2  0  0  0
  1  3  1  0  0  0
  3  4  1  0  0  0
  3 16  1  0  0  0
  4  5  1  0  0  0
  5  6  1  0  0  0
  6  7  1  0  0  0
  6 14  1  0  0  0
  6 15  1  0  0  0
  7  8  1  0  0  0
  8  9  1  0  0  0
  9 10  1  0  0  0
 10 11  1  0  0  0
 10 14  2  0  0  0
 11 12  2  0  0  0
 12 13  1  0  0  0
 13 14  1  0  0  0
 15 16  1  0  0  0
 23 24  1  0  0  0
  7 17  1  0  0  0
 13 18  1  0  0  0
M  END
> <minimizedAffinity>
-9.31271

$$$$
130


 30 33  0  0  0  0  0  0  0  0999 V2000
   13.4713   65.5016  -14.5115 C   0  0  0  0  0  0  0  0  0  0  0  0
   14.7232   65.4244  -14.2494 O   0  0  0  0  0  0  0  0  0  0  0  0
   13.0078   66.0914  -15.6951 N   0  0  0  0  0  0  0  0  0  0  0  0
   11.6211   66.1988  -16.0184 C   0  0  0  0  0  0  0  0  0  0  0  0
   11.2915   67.4711  -16.7465 C   0  0  0  0  0  0  0  0  0  0  0  0
   12.2921   68.5898  -16.5559 C   0  0  0  0  0  0  0  0  0  0  0  0
   11.9156   69.5670  -17.5683 N   0  0  0  0  0  0  0  0  0  0  0  0
   12.5552   70.8242  -17.4888 C   0  0  0  0  0  0  0  0  0  0  0  0
   13.2136   71.1904  -16.2095 C   0  0  0  0  0  0  0  0  0  0  0  0
   12.5728   70.5089  -15.0419 C   0  0  0  0  0  0  0  0  0  0  0  0
   12.3398   70.9140  -13.7942 N   0  0  0  0  0  0  0  0  0  0  0  0
   11.7318   69.8782  -13.1788 C   0  0  0  0  0  0  0  0  0  0  0  0
   11.5905   68.8424  -14.0347 N   0  0  0  0  0  0  0  0  0  0  0  0
   12.1231   69.2268  -15.2307 C   0  0  0  0  0  0  0  0  0  0  0  0
   13.7260   68.1652  -16.7431 C   0  0  0  0  0  0  0  0  0  0  0  0
   13.9244   66.6619  -16.6757 C   0  0  0  0  0  0  0  0  0  0  0  0
   12.1272   69.0763  -18.4843 H   0  0  0  0  0  0  0  0  0  0  0  0
   11.1575   67.9304  -13.8122 H   0  0  0  0  0  0  0  0  0  0  0  0
   12.5737   64.9138  -13.4527 C   0  0  0  0  0  0  0  0  0  0  0  0
   13.8054   62.9150  -12.1017 C   0  0  0  0  0  0  0  0  0  0  0  0
   13.4875   61.6750  -12.0438 O   0  0  0  0  0  0  0  0  0  0  0  0
   13.2039   63.8912  -12.7613 N   0  0  0  0  0  0  0  0  0  0  0  0
   12.2488   63.0057  -13.2280 H   0  0  0  0  0  0  0  0  0  0  0  0
   18.4158   61.3102   -9.9409 Br  0  0  0  0  0  0  0  0  0  0  0  0
   17.1055   62.6289  -10.2649 C   0  0  0  0  0  0  0  0  0  0  0  0
   15.9974   62.3158  -11.0372 C   0  0  0  0  0  0  0  0  0  0  0  0
   15.0312   63.2518  -11.2946 C   0  0  0  0  0  0  0  0  0  0  0  0
   15.1036   64.5244  -10.8131 C   0  0  0  0  0  0  0  0  0  0  0  0
   16.2176   64.8481  -10.0325 C   0  0  0  0  0  0  0  0  0  0  0  0
   17.1946   63.9063   -9.7696 C   0  0  0  0  0  0  0  0  0  0  0  0
 24 25  1  0  0  0
 25 26  2  0  0  0
 25 30  1  0  0  0
 26 27  1  0  0  0
 27 28  2  0  0  0
 27 20  1  0  0  0
 28 29  1  0  0  0
 29 30  2  0  0  0
 20 21  2  0  0  0
 20 22  1  0  0  0
 22 19  1  0  0  0
 19  1  1  0  0  0
  1  2  2  0  0  0
  1  3  1  0  0  0
  3  4  1  0  0  0
  3 16  1  0  0  0
  4  5  1  0  0  0
  5  6  1  0  0  0
  6  7  1  0  0  0
  6 14  1  0  0  0
  6 15  1  0  0  0
  7  8  1  0  0  0
  8  9  1  0  0  0
  9 10  1  0  0  0
 10 11  1  0  0  0
 10 14  2  0  0  0
 11 12  2  0  0  0
 12 13  1  0  0  0
 13 14  1  0  0  0
 15 16  1  0  0  0
 22 23  1  0  0  0
  7 17  1  0  0  0
 13 18  1  0  0  0
M  END
> <minimizedAffinity>
-8.13960

$$$$
131


 30 33  0  0  0  0  0  0  0  0999 V2000
   21.5896   63.8964  -10.1813 C   0  0  0  0  0  0  0  0  0  0  0  0
   21.8038   65.1297  -10.0836 O   0  0  0  0  0  0  0  0  0  0  0  0
   20.3259   63.3893   -9.8411 N   0  0  0  0  0  0  0  0  0  0  0  0
   20.0054   61.9861   -9.9271 C   0  0  0  0  0  0  0  0  0  0  0  0
   18.9286   61.8459  -10.9810 C   0  0  0  0  0  0  0  0  0  0  0  0
   17.8076   62.8166  -10.6955 C   0  0  0  0  0  0  0  0  0  0  0  0
   17.7272   63.7452  -11.8030 N   0  0  0  0  0  0  0  0  0  0  0  0
   16.6345   64.6521  -11.7462 C   0  0  0  0  0  0  0  0  0  0  0  0
   15.3365   64.1192  -11.2608 C   0  0  0  0  0  0  0  0  0  0  0  0
   15.3282   62.6663  -10.9898 C   0  0  0  0  0  0  0  0  0  0  0  0
   14.3215   61.7406  -10.9465 N   0  0  0  0  0  0  0  0  0  0  0  0
   14.8926   60.5672  -10.6487 C   0  0  0  0  0  0  0  0  0  0  0  0
   16.2166   60.7431  -10.5089 N   0  0  0  0  0  0  0  0  0  0  0  0
   16.5270   62.0477  -10.7152 C   0  0  0  0  0  0  0  0  0  0  0  0
   17.9401   63.5499   -9.3998 C   0  0  0  0  0  0  0  0  0  0  0  0
   19.2881   64.2774   -9.3846 C   0  0  0  0  0  0  0  0  0  0  0  0
   18.6179   64.3081  -11.8258 H   0  0  0  0  0  0  0  0  0  0  0  0
   13.2979   61.9618  -11.1221 H   0  0  0  0  0  0  0  0  0  0  0  0
   22.7161   63.0525  -10.6606 C   0  0  0  0  0  0  0  0  0  0  0  0
   24.1857   63.2734  -12.6730 C   0  0  0  0  0  0  0  0  0  0  0  0
   25.1765   63.2556  -11.8986 O   0  0  0  0  0  0  0  0  0  0  0  0
   22.9017   63.1721  -12.0909 N   0  0  0  0  0  0  0  0  0  0  0  0
   22.0678   63.1848  -12.7104 H   0  0  0  0  0  0  0  0  0  0  0  0
   22.1666   64.1479  -17.5242 Br  0  0  0  0  0  0  0  0  0  0  0  0
   23.6173   63.7753  -16.3653 C   0  0  0  0  0  0  0  0  0  0  0  0
   23.3844   63.6647  -15.0063 C   0  0  0  0  0  0  0  0  0  0  0  0
   24.3998   63.3951  -14.1079 C   0  0  0  0  0  0  0  0  0  0  0  0
   25.6831   63.2331  -14.6100 C   0  0  0  0  0  0  0  0  0  0  0  0
   25.9075   63.3445  -15.9618 C   0  0  0  0  0  0  0  0  0  0  0  0
   24.9082   63.6129  -16.8706 C   0  0  0  0  0  0  0  0  0  0  0  0
 24 25  1  0  0  0
 25 26  2  0  0  0
 25 30  1  0  0  0
 26 27  1  0  0  0
 27 28  2  0  0  0
 27 20  1  0  0  0
 28 29  1  0  0  0
 29 30  2  0  0  0
 20 21  2  0  0  0
 20 22  1  0  0  0
 22 19  1  0  0  0
 19  1  1  0  0  0
  1  2  2  0  0  0
  1  3  1  0  0  0
  3  4  1  0  0  0
  3 16  1  0  0  0
  4  5  1  0  0  0
  5  6  1  0  0  0
  6  7  1  0  0  0
  6 14  1  0  0  0
  6 15  1  0  0  0
  7  8  1  0  0  0
  8  9  1  0  0  0
  9 10  1  0  0  0
 10 11  1  0  0  0
 10 14  2  0  0  0
 11 12  1  0  0  0
 12 13  2  0  0  0
 13 14  1  0  0  0
 15 16  1  0  0  0
 22 23  1  0  0  0
  7 17  1  0  0  0
 11 18  1  0  0  0
M  END
> <minimizedAffinity>
-8.22693

$$$$
136


 30 33  0  0  0  0  0  0  0  0999 V2000
   18.3229   62.9078  -10.3929 C   0  0  0  0  0  0  0  0  0  0  0  0
   17.2395   63.9636  -10.2855 C   0  0  0  0  0  0  0  0  0  0  0  0
   16.1078   63.3332  -10.9366 N   0  0  0  0  0  0  0  0  0  0  0  0
   16.3836   61.9402  -11.2235 C   0  0  0  0  0  0  0  0  0  0  0  0
   17.5286   61.6409  -10.2464 C   0  0  0  0  0  0  0  0  0  0  0  0
   15.1892   61.1554  -10.9156 C   0  0  0  0  0  0  0  0  0  0  0  0
   15.2364   60.1693  -10.1657 O   0  0  0  0  0  0  0  0  0  0  0  0
   13.9626   61.5563  -11.5048 N   0  0  0  0  0  0  0  0  0  0  0  0
   13.7667   62.9417  -11.8676 C   0  0  0  0  0  0  0  0  0  0  0  0
   14.8203   63.8309  -11.3286 C   0  0  0  0  0  0  0  0  0  0  0  0
   14.5930   65.0631  -11.2044 O   0  0  0  0  0  0  0  0  0  0  0  0
   13.1823   60.8863  -11.6898 H   0  0  0  0  0  0  0  0  0  0  0  0
   20.5505   63.6602   -9.7192 C   0  0  0  0  0  0  0  0  0  0  0  0
   20.7356   64.0325  -10.9360 O   0  0  0  0  0  0  0  0  0  0  0  0
   19.3251   63.0668   -9.3546 N   0  0  0  0  0  0  0  0  0  0  0  0
   19.1728   62.7618   -8.3835 H   0  0  0  0  0  0  0  0  0  0  0  0
   22.8907   66.9471   -6.2583 Br  0  0  0  0  0  0  0  0  0  0  0  0
   22.7445   65.2780   -7.1827 C   0  0  0  0  0  0  0  0  0  0  0  0
   21.7384   65.0782   -8.0869 C   0  0  0  0  0  0  0  0  0  0  0  0
   21.6245   63.8695   -8.7630 C   0  0  0  0  0  0  0  0  0  0  0  0
   22.5384   62.8985   -8.4966 C   0  0  0  0  0  0  0  0  0  0  0  0
   23.5543   63.1109   -7.5779 C   0  0  0  0  0  0  0  0  0  0  0  0
   23.6652   64.3066   -6.9120 C   0  0  0  0  0  0  0  0  0  0  0  0
   13.5708   63.1299  -13.3569 C   0  0  0  0  0  0  0  0  0  0  0  0
   12.2349   63.6394  -13.7074 C   0  0  0  0  0  0  0  0  0  0  0  0
   11.2939   62.7845  -14.2522 C   0  0  0  0  0  0  0  0  0  0  0  0
   10.0431   63.2530  -14.5826 C   0  0  0  0  0  0  0  0  0  0  0  0
    9.6660   64.5692  -14.3944 C   0  0  0  0  0  0  0  0  0  0  0  0
   10.6017   65.4239  -13.8517 C   0  0  0  0  0  0  0  0  0  0  0  0
   11.8624   64.9712  -13.5139 C   0  0  0  0  0  0  0  0  0  0  0  0
 17 18  1  0  0  0
 18 19  2  0  0  0
 18 23  1  0  0  0
 19 20  1  0  0  0
 20 21  2  0  0  0
 20 13  1  0  0  0
 21 22  1  0  0  0
 22 23  2  0  0  0
 13 14  2  0  0  0
 13 15  1  0  0  0
 15  1  1  0  0  0
  1  2  1  0  0  0
  1  5  1  0  0  0
  2  3  1  0  0  0
  3  4  1  0  0  0
  3 10  1  0  0  0
  4  5  1  0  0  0
  4  6  1  0  0  0
  6  7  2  0  0  0
  6  8  1  0  0  0
  8  9  1  0  0  0
  9 10  1  0  0  0
  9 24  1  0  0  0
 10 11  2  0  0  0
 24 25  1  0  0  0
 25 26  2  0  0  0
 25 30  1  0  0  0
 26 27  1  0  0  0
 27 28  2  0  0  0
 28 29  1  0  0  0
 29 30  2  0  0  0
 15 16  1  0  0  0
  8 12  1  0  0  0
M  END
> <minimizedAffinity>
-8.05937

$$$$
137


 25 28  0  0  0  0  0  0  0  0999 V2000
   20.3347   63.2907  -10.6861 C   0  0  0  0  0  0  0  0  0  0  0  0
   19.2358   64.1197   -9.9243 C   0  0  0  0  0  0  0  0  0  0  0  0
   18.0128   63.5677  -10.3990 N   0  0  0  0  0  0  0  0  0  0  0  0
   18.2663   62.2404  -10.9402 C   0  0  0  0  0  0  0  0  0  0  0  0
   19.6332   61.9103  -10.4997 C   0  0  0  0  0  0  0  0  0  0  0  0
   17.1875   61.3177  -10.5520 C   0  0  0  0  0  0  0  0  0  0  0  0
   17.4689   60.1513  -10.2253 O   0  0  0  0  0  0  0  0  0  0  0  0
   15.8429   61.7518  -10.5507 N   0  0  0  0  0  0  0  0  0  0  0  0
   15.5369   63.1308  -10.2408 C   0  0  0  0  0  0  0  0  0  0  0  0
   14.3102   63.4702  -11.0632 C   0  0  0  0  0  0  0  0  0  0  0  0
   13.9210   62.1918  -11.7190 C   0  0  0  0  0  0  0  0  0  0  0  0
   14.5501   61.1261  -10.8088 C   0  0  0  0  0  0  0  0  0  0  0  0
   16.6677   64.0302  -10.4435 C   0  0  0  0  0  0  0  0  0  0  0  0
   16.4622   65.2738  -10.6695 O   0  0  0  0  0  0  0  0  0  0  0  0
   22.8103   63.5843   -9.6469 C   0  0  0  0  0  0  0  0  0  0  0  0
   23.9439   63.5131  -10.2143 O   0  0  0  0  0  0  0  0  0  0  0  0
   21.5506   63.4363  -10.1724 N   0  0  0  0  0  0  0  0  0  0  0  0
   22.1151   63.2112  -11.4085 H   0  0  0  0  0  0  0  0  0  0  0  0
   25.4620   62.6834   -5.0474 Br  0  0  0  0  0  0  0  0  0  0  0  0
   24.0994   63.5132   -6.0802 C   0  0  0  0  0  0  0  0  0  0  0  0
   23.9342   63.2639   -7.4205 C   0  0  0  0  0  0  0  0  0  0  0  0
   22.9625   63.8799   -8.1708 C   0  0  0  0  0  0  0  0  0  0  0  0
   22.1220   64.7784   -7.5652 C   0  0  0  0  0  0  0  0  0  0  0  0
   22.2542   65.0604   -6.2112 C   0  0  0  0  0  0  0  0  0  0  0  0
   23.2311   64.4294   -5.4933 C   0  0  0  0  0  0  0  0  0  0  0  0
 19 20  1  0  0  0
 20 21  2  0  0  0
 20 25  1  0  0  0
 21 22  1  0  0  0
 22 23  2  0  0  0
 22 15  1  0  0  0
 23 24  1  0  0  0
 24 25  2  0  0  0
 15 16  2  0  0  0
 15 17  1  0  0  0
 17  1  1  0  0  0
  1  2  1  0  0  0
  1  5  1  0  0  0
  2  3  1  0  0  0
  3  4  1  0  0  0
  3 13  1  0  0  0
  4  5  1  0  0  0
  4  6  1  0  0  0
  6  7  2  0  0  0
  6  8  1  0  0  0
  8  9  1  0  0  0
  8 12  1  0  0  0
  9 10  1  0  0  0
  9 13  1  0  0  0
 10 11  1  0  0  0
 11 12  1  0  0  0
 13 14  2  0  0  0
 17 18  1  0  0  0
M  END
> <minimizedAffinity>
-9.00965

$$$$
138


 25 28  0  0  0  0  0  0  0  0999 V2000
   20.6234   64.3079   -9.7226 C   0  0  0  0  0  0  0  0  0  0  0  0
   21.5044   63.1279   -9.4805 C   0  0  0  0  0  0  0  0  0  0  0  0
   22.3922   63.5978   -8.4027 N   0  0  0  0  0  0  0  0  0  0  0  0
   21.8495   64.8241   -7.8368 C   0  0  0  0  0  0  0  0  0  0  0  0
   20.4206   64.8130   -8.2862 C   0  0  0  0  0  0  0  0  0  0  0  0
   22.0270   64.7684   -6.3884 C   0  0  0  0  0  0  0  0  0  0  0  0
   21.1811   65.2445   -5.6219 O   0  0  0  0  0  0  0  0  0  0  0  0
   23.2010   64.1514   -5.8419 N   0  0  0  0  0  0  0  0  0  0  0  0
   24.2568   63.8541   -6.7791 C   0  0  0  0  0  0  0  0  0  0  0  0
   25.3541   63.1366   -6.1074 C   0  0  0  0  0  0  0  0  0  0  0  0
   25.0758   63.4147   -4.6434 C   0  0  0  0  0  0  0  0  0  0  0  0
   23.6224   63.7311   -4.5411 C   0  0  0  0  0  0  0  0  0  0  0  0
   23.6048   63.0633   -7.8798 C   0  0  0  0  0  0  0  0  0  0  0  0
   24.1014   61.9979   -8.3094 O   0  0  0  0  0  0  0  0  0  0  0  0
   18.4399   63.1915   -9.7759 C   0  0  0  0  0  0  0  0  0  0  0  0
   18.6835   62.6880   -8.6237 O   0  0  0  0  0  0  0  0  0  0  0  0
   19.4022   64.0282  -10.3822 N   0  0  0  0  0  0  0  0  0  0  0  0
   19.2016   64.4342  -11.3140 H   0  0  0  0  0  0  0  0  0  0  0  0
   14.0102   64.7129  -12.3661 Br  0  0  0  0  0  0  0  0  0  0  0  0
   15.1203   63.4232  -11.5189 C   0  0  0  0  0  0  0  0  0  0  0  0
   16.3351   63.7455  -10.9703 C   0  0  0  0  0  0  0  0  0  0  0  0
   17.1556   62.8350  -10.3532 C   0  0  0  0  0  0  0  0  0  0  0  0
   16.7105   61.5361  -10.2964 C   0  0  0  0  0  0  0  0  0  0  0  0
   15.4743   61.1637  -10.8454 C   0  0  0  0  0  0  0  0  0  0  0  0
   14.6795   62.1191  -11.4583 C   0  0  0  0  0  0  0  0  0  0  0  0
 19 20  1  0  0  0
 20 21  2  0  0  0
 20 25  1  0  0  0
 21 22  1  0  0  0
 22 23  2  0  0  0
 22 15  1  0  0  0
 23 24  1  0  0  0
 24 25  2  0  0  0
 15 16  2  0  0  0
 15 17  1  0  0  0
 17  1  1  0  0  0
  1  2  1  0  0  0
  1  5  1  0  0  0
  2  3  1  0  0  0
  3  4  1  0  0  0
  3 13  1  0  0  0
  4  5  1  0  0  0
  4  6  1  0  0  0
  6  7  2  0  0  0
  6  8  1  0  0  0
  8  9  1  0  0  0
  8 12  1  0  0  0
  9 10  1  0  0  0
  9 13  1  0  0  0
 10 11  1  0  0  0
 11 12  1  0  0  0
 13 14  2  0  0  0
 17 18  1  0  0  0
M  END
> <minimizedAffinity>
-8.30770

$$$$
141


 23 26  0  0  0  0  0  0  0  0999 V2000
   21.0210   63.5428  -11.6998 N   0  0  0  0  0  0  0  0  0  0  0  0
   20.9044   64.2405  -10.4448 C   0  0  0  0  0  0  0  0  0  0  0  0
   21.7917   64.9273   -9.8466 O   0  0  0  0  0  0  0  0  0  0  0  0
   19.5622   64.0388   -9.9334 C   0  0  0  0  0  0  0  0  0  0  0  0
   18.7058   63.5908  -11.1342 C   0  0  0  0  0  0  0  0  0  0  0  0
   17.7913   62.5321  -10.6100 C   0  0  0  0  0  0  0  0  0  0  0  0
   17.8480   62.7861   -9.0904 C   0  0  0  0  0  0  0  0  0  0  0  0
   19.3916   62.7996   -9.0664 C   0  0  0  0  0  0  0  0  0  0  0  0
   19.6475   61.5635   -9.8599 C   0  0  0  0  0  0  0  0  0  0  0  0
   18.5788   61.2457  -10.6027 C   0  0  0  0  0  0  0  0  0  0  0  0
   19.7909   62.9237  -11.9559 C   0  0  0  0  0  0  0  0  0  0  0  0
   19.5873   61.9656  -12.7349 O   0  0  0  0  0  0  0  0  0  0  0  0
   23.4721   63.1114  -11.9664 C   0  0  0  0  0  0  0  0  0  0  0  0
   23.6006   62.6419  -10.8222 O   0  0  0  0  0  0  0  0  0  0  0  0
   22.2247   63.5621  -12.4316 N   0  0  0  0  0  0  0  0  0  0  0  0
   22.2244   63.9481  -13.4287 H   0  0  0  0  0  0  0  0  0  0  0  0
   25.3278   63.1887  -16.8938 Br  0  0  0  0  0  0  0  0  0  0  0  0
   25.6026   63.2244  -15.0103 C   0  0  0  0  0  0  0  0  0  0  0  0
   24.5086   63.1589  -14.1836 C   0  0  0  0  0  0  0  0  0  0  0  0
   24.6568   63.1775  -12.7989 C   0  0  0  0  0  0  0  0  0  0  0  0
   25.9148   63.2632  -12.2886 C   0  0  0  0  0  0  0  0  0  0  0  0
   27.0087   63.3288  -13.1230 C   0  0  0  0  0  0  0  0  0  0  0  0
   26.8887   63.3123  -14.4912 C   0  0  0  0  0  0  0  0  0  0  0  0
 17 18  1  0  0  0
 18 19  2  0  0  0
 18 23  1  0  0  0
 19 20  1  0  0  0
 20 21  2  0  0  0
 20 13  1  0  0  0
 21 22  1  0  0  0
 22 23  2  0  0  0
 13 14  2  0  0  0
 13 15  1  0  0  0
 15  1  1  0  0  0
  1  2  1  0  0  0
  1 11  1  0  0  0
  2  3  2  0  0  0
  2  4  1  0  0  0
  4  5  1  0  0  0
  4  8  1  0  0  0
  5  6  1  0  0  0
  5 11  1  0  0  0
  6  7  1  0  0  0
  6 10  1  0  0  0
  7  8  1  0  0  0
  8  9  1  0  0  0
  9 10  2  0  0  0
 11 12  2  0  0  0
 15 16  1  0  0  0
M  END
> <minimizedAffinity>
-8.48877

$$$$
152


 27 30  0  0  0  0  0  0  0  0999 V2000
   18.7613   63.4205  -11.8736 C   0  0  0  0  0  0  0  0  0  0  0  0
   19.9501   63.3829  -11.2611 C   0  0  0  0  0  0  0  0  0  0  0  0
   20.1674   63.4990   -9.9515 O   0  0  0  0  0  0  0  0  0  0  0  0
   21.5535   63.3768   -9.6796 C   0  0  0  0  0  0  0  0  0  0  0  0
   22.2546   63.1753  -10.8203 C   0  0  0  0  0  0  0  0  0  0  0  0
   23.6265   62.9593  -10.7163 C   0  0  0  0  0  0  0  0  0  0  0  0
   24.2388   62.9760   -9.5023 C   0  0  0  0  0  0  0  0  0  0  0  0
   23.5007   63.2154   -8.3604 C   0  0  0  0  0  0  0  0  0  0  0  0
   22.1435   63.4298   -8.3866 C   0  0  0  0  0  0  0  0  0  0  0  0
   24.1759   63.2338   -7.1376 O   0  0  0  0  0  0  0  0  0  0  0  0
   21.2515   63.1795  -11.9113 C   0  0  0  0  0  0  0  0  0  0  0  0
   21.4726   63.0435  -13.1287 O   0  0  0  0  0  0  0  0  0  0  0  0
   13.9513   61.4260  -10.8584 Br  0  0  0  0  0  0  0  0  0  0  0  0
   15.2141   62.8495  -10.7122 C   0  0  0  0  0  0  0  0  0  0  0  0
   16.5288   62.6013  -11.1288 C   0  0  0  0  0  0  0  0  0  0  0  0
   17.5182   63.5946  -11.0745 C   0  0  0  0  0  0  0  0  0  0  0  0
   17.1459   64.8145  -10.5870 C   0  0  0  0  0  0  0  0  0  0  0  0
   15.8286   65.0909  -10.1614 C   0  0  0  0  0  0  0  0  0  0  0  0
   14.8574   64.0583  -10.2376 C   0  0  0  0  0  0  0  0  0  0  0  0
   21.3290   64.1269   -7.4119 C   0  0  0  0  0  0  0  0  0  0  0  0
   21.3652   65.1532   -6.5394 N   0  0  0  0  0  0  0  0  0  0  0  0
   22.4378   65.5444   -5.7344 C   0  0  0  0  0  0  0  0  0  0  0  0
   23.2958   66.6767   -6.3406 C   0  0  0  0  0  0  0  0  0  0  0  0
   22.6217   67.8686   -6.4596 O   0  0  0  0  0  0  0  0  0  0  0  0
   21.3035   67.6229   -6.8605 C   0  0  0  0  0  0  0  0  0  0  0  0
   21.1319   66.3499   -7.5053 C   0  0  0  0  0  0  0  0  0  0  0  0
   20.4549   65.1529   -5.9419 H   0  0  0  0  0  0  0  0  0  0  0  0
 13 14  1  0  0  0
 14 15  2  0  0  0
 14 19  1  0  0  0
 15 16  1  0  0  0
 16 17  2  0  0  0
 16  1  1  0  0  0
 17 18  1  0  0  0
 18 19  2  0  0  0
  1  2  2  0  0  0
  2  3  1  0  0  0
  2 11  1  0  0  0
  3  4  1  0  0  0
  4  5  2  0  0  0
  4  9  1  0  0  0
  5  6  1  0  0  0
  5 11  1  0  0  0
  6  7  2  0  0  0
  7  8  1  0  0  0
  8  9  2  0  0  0
  8 10  1  0  0  0
  9 20  1  0  0  0
 20 21  1  0  0  0
 21 22  1  0  0  0
 21 26  1  0  0  0
 22 23  1  0  0  0
 23 24  1  0  0  0
 24 25  1  0  0  0
 25 26  1  0  0  0
 11 12  2  0  0  0
 21 27  1  0  0  0
M  CHG 1  10  -1
M  CHG 1  21   1
M  END
> <minimizedAffinity>
-8.11374

$$$$
153


 34 37  0  0  0  0  0  0  0  0999 V2000
   23.5040   64.0121   -8.1661 C   0  0  0  0  0  0  0  0  0  0  0  0
   24.2202   64.4224   -7.1760 N   0  0  0  0  0  0  0  0  0  0  0  0
   23.6431   65.4738   -6.6029 N   0  0  0  0  0  0  0  0  0  0  0  0
   22.4951   65.7576   -7.2725 N   0  0  0  0  0  0  0  0  0  0  0  0
   22.3469   64.8847   -8.2133 C   0  0  0  0  0  0  0  0  0  0  0  0
   21.9717   67.1081   -7.1292 C   0  0  0  0  0  0  0  0  0  0  0  0
   22.5178   67.8190   -5.9981 N   0  0  0  0  0  0  0  0  0  0  0  0
   22.0352   68.9664   -5.9142 O   0  0  0  0  0  0  0  0  0  0  0  0
   21.1862   69.1428   -6.8798 N   0  0  0  0  0  0  0  0  0  0  0  0
   21.1594   67.9702   -7.6340 C   0  0  0  0  0  0  0  0  0  0  0  0
   20.3149   67.8935   -8.7600 N   0  0  0  0  0  0  0  0  0  0  0  0
   20.4963   68.6869   -9.4700 H   0  0  0  0  0  0  0  0  0  0  0  0
   19.5908   67.2514   -9.0177 H   0  0  0  0  0  0  0  0  0  0  0  0
   23.7946   63.4918  -10.5283 N   0  0  0  0  0  0  0  0  0  0  0  0
   23.7842   62.9904   -9.2588 C   0  0  0  0  0  0  0  0  0  0  0  0
   23.9898   61.8136   -8.8892 O   0  0  0  0  0  0  0  0  0  0  0  0
   23.6908   64.6973  -10.3471 H   0  0  0  0  0  0  0  0  0  0  0  0
   24.9877   63.5210  -12.5571 C   0  0  0  0  0  0  0  0  0  0  0  0
   23.9066   63.4175  -11.8360 N   0  0  0  0  0  0  0  0  0  0  0  0
   22.5916   64.1782  -17.3904 Br  0  0  0  0  0  0  0  0  0  0  0  0
   24.0449   63.7426  -16.2176 C   0  0  0  0  0  0  0  0  0  0  0  0
   23.8865   63.7262  -14.8325 C   0  0  0  0  0  0  0  0  0  0  0  0
   24.9740   63.4391  -14.0305 C   0  0  0  0  0  0  0  0  0  0  0  0
   26.1829   63.1696  -14.6464 C   0  0  0  0  0  0  0  0  0  0  0  0
   26.2916   63.1936  -16.0063 C   0  0  0  0  0  0  0  0  0  0  0  0
   25.2542   63.4835  -16.8531 C   0  0  0  0  0  0  0  0  0  0  0  0
   21.3313   64.5919   -9.2194 C   0  0  0  0  0  0  0  0  0  0  0  0
   20.7426   63.3409   -9.3739 N   0  0  0  0  0  0  0  0  0  0  0  0
   19.9511   62.5460   -8.6365 C   0  0  0  0  0  0  0  0  0  0  0  0
   18.5362   62.5324   -9.2767 C   0  0  0  0  0  0  0  0  0  0  0  0
   18.3933   63.7398  -10.0087 N   0  0  0  0  0  0  0  0  0  0  0  0
   19.2152   63.7311  -11.1811 C   0  0  0  0  0  0  0  0  0  0  0  0
   20.5322   63.0324  -10.8200 C   0  0  0  0  0  0  0  0  0  0  0  0
   17.1299   64.3347  -10.1292 C   0  0  0  0  0  0  0  0  0  0  0  0
 20 21  1  0  0  0
 21 22  2  0  0  0
 21 26  1  0  0  0
 22 23  1  0  0  0
 23 24  2  0  0  0
 23 18  1  0  0  0
 24 25  1  0  0  0
 25 26  2  0  0  0
 18 19  2  0  0  0
 19 14  1  0  0  0
 14 15  1  0  0  0
 15 16  2  0  0  0
 15  1  1  0  0  0
  1  2  1  0  0  0
  1  5  2  0  0  0
  2  3  2  0  0  0
  3  4  1  0  0  0
  4  5  1  0  0  0
  4  6  1  0  0  0
  5 27  1  0  0  0
 27 28  1  0  0  0
 28 29  1  0  0  0
 28 33  1  0  0  0
 29 30  1  0  0  0
 30 31  1  0  0  0
 31 32  1  0  0  0
 31 34  1  0  0  0
 32 33  1  0  0  0
  6  7  2  0  0  0
  6 10  1  0  0  0
  7  8  1  0  0  0
  8  9  1  0  0  0
  9 10  2  0  0  0
 10 11  1  0  0  0
 14 17  1  0  0  0
 11 12  1  0  0  0
 11 13  1  0  0  0
M  END
> <minimizedAffinity>
-7.61465

$$$$
156


 29 32  0  0  0  0  0  0  0  0999 V2000
   23.1317   63.7076   -8.2196 C   0  0  0  0  0  0  0  0  0  0  0  0
   22.7184   64.9454   -7.9293 N   0  0  0  0  0  0  0  0  0  0  0  0
   22.9763   65.5547   -6.7385 C   0  0  0  0  0  0  0  0  0  0  0  0
   23.6857   64.8239   -5.8517 N   0  0  0  0  0  0  0  0  0  0  0  0
   24.1284   63.5765   -6.0845 C   0  0  0  0  0  0  0  0  0  0  0  0
   23.8272   63.0473   -7.2960 N   0  0  0  0  0  0  0  0  0  0  0  0
   24.8651   62.8374   -5.1439 N   0  0  0  0  0  0  0  0  0  0  0  0
   26.2705   62.5786   -5.3064 C   0  0  0  0  0  0  0  0  0  0  0  0
   26.8780   62.6679   -3.8998 C   0  0  0  0  0  0  0  0  0  0  0  0
   26.1106   63.5058   -3.0945 O   0  0  0  0  0  0  0  0  0  0  0  0
   24.8769   62.9999   -2.7718 C   0  0  0  0  0  0  0  0  0  0  0  0
   24.2174   62.3125   -3.9756 C   0  0  0  0  0  0  0  0  0  0  0  0
   22.5287   66.8632   -6.4546 N   0  0  0  0  0  0  0  0  0  0  0  0
   23.4438   67.8676   -5.9882 C   0  0  0  0  0  0  0  0  0  0  0  0
   23.3025   69.0636   -6.9232 C   0  0  0  0  0  0  0  0  0  0  0  0
   21.9763   69.4775   -6.8286 O   0  0  0  0  0  0  0  0  0  0  0  0
   21.0981   68.5565   -7.3706 C   0  0  0  0  0  0  0  0  0  0  0  0
   21.1487   67.2279   -6.6230 C   0  0  0  0  0  0  0  0  0  0  0  0
   22.8278   63.1315   -9.4845 N   0  0  0  0  0  0  0  0  0  0  0  0
   23.5919   62.8216  -10.1199 H   0  0  0  0  0  0  0  0  0  0  0  0
   20.5220   62.7026   -9.1484 C   0  0  0  0  0  0  0  0  0  0  0  0
   21.5077   62.9661   -9.9123 N   0  0  0  0  0  0  0  0  0  0  0  0
   15.8021   64.9771  -10.2455 Br  0  0  0  0  0  0  0  0  0  0  0  0
   16.9758   63.4666  -10.1510 C   0  0  0  0  0  0  0  0  0  0  0  0
   18.2700   63.5944   -9.7084 C   0  0  0  0  0  0  0  0  0  0  0  0
   19.1548   62.5335   -9.6233 C   0  0  0  0  0  0  0  0  0  0  0  0
   18.6745   61.3011  -10.0105 C   0  0  0  0  0  0  0  0  0  0  0  0
   17.3690   61.1304  -10.4648 C   0  0  0  0  0  0  0  0  0  0  0  0
   16.5257   62.2194  -10.5322 C   0  0  0  0  0  0  0  0  0  0  0  0
 23 24  1  0  0  0
 24 25  2  0  0  0
 24 29  1  0  0  0
 25 26  1  0  0  0
 26 27  2  0  0  0
 26 21  1  0  0  0
 27 28  1  0  0  0
 28 29  2  0  0  0
 21 22  2  0  0  0
 22 19  1  0  0  0
 19  1  1  0  0  0
  1  2  2  0  0  0
  1  6  1  0  0  0
  2  3  1  0  0  0
  3  4  2  0  0  0
  3 13  1  0  0  0
  4  5  1  0  0  0
  5  6  2  0  0  0
  5  7  1  0  0  0
  7  8  1  0  0  0
  7 12  1  0  0  0
  8  9  1  0  0  0
  9 10  1  0  0  0
 10 11  1  0  0  0
 11 12  1  0  0  0
 13 14  1  0  0  0
 13 18  1  0  0  0
 14 15  1  0  0  0
 15 16  1  0  0  0
 16 17  1  0  0  0
 17 18  1  0  0  0
 19 20  1  0  0  0
M  END
> <minimizedAffinity>
-8.93877

$$$$
167


 35 38  0  0  0  0  0  0  0  0999 V2000
   19.6261   64.1219  -10.4934 C   0  0  0  0  0  0  0  0  0  0  0  0
   18.4761   63.3296  -10.2650 N   0  0  0  0  0  0  0  0  0  0  0  0
   18.5406   62.7550   -8.9702 C   0  0  0  0  0  0  0  0  0  0  0  0
   17.7063   61.9192   -8.5019 O   0  0  0  0  0  0  0  0  0  0  0  0
   19.7007   63.2865   -8.2882 C   0  0  0  0  0  0  0  0  0  0  0  0
   19.9968   62.9365   -7.1138 O   0  0  0  0  0  0  0  0  0  0  0  0
   20.3540   64.2056   -9.2002 C   0  0  0  0  0  0  0  0  0  0  0  0
   21.4206   64.9146   -8.9077 C   0  0  0  0  0  0  0  0  0  0  0  0
   21.9893   65.7025   -9.8819 O   0  0  0  0  0  0  0  0  0  0  0  0
   24.6308   63.2665  -12.0935 Br  0  0  0  0  0  0  0  0  0  0  0  0
   22.7397   63.1304  -12.3175 C   0  0  0  0  0  0  0  0  0  0  0  0
   21.8329   63.6275  -11.4320 C   0  0  0  0  0  0  0  0  0  0  0  0
   20.4566   63.5487  -11.5575 C   0  0  0  0  0  0  0  0  0  0  0  0
   19.9563   62.9064  -12.6870 C   0  0  0  0  0  0  0  0  0  0  0  0
   20.8486   62.3908  -13.6073 C   0  0  0  0  0  0  0  0  0  0  0  0
   22.2206   62.4855  -13.4519 C   0  0  0  0  0  0  0  0  0  0  0  0
   21.9980   64.8872   -7.5870 C   0  0  0  0  0  0  0  0  0  0  0  0
   22.9528   63.9444   -7.1669 C   0  0  0  0  0  0  0  0  0  0  0  0
   23.3108   64.2156   -5.9059 N   0  0  0  0  0  0  0  0  0  0  0  0
   22.6238   65.2780   -5.5286 N   0  0  0  0  0  0  0  0  0  0  0  0
   21.8232   65.7143   -6.5124 C   0  0  0  0  0  0  0  0  0  0  0  0
   23.4593   62.8358   -8.0272 C   0  0  0  0  0  0  0  0  0  0  0  0
   24.2581   63.5163   -5.1111 C   0  0  0  0  0  0  0  0  0  0  0  0
   24.0150   63.3750   -3.7514 C   0  0  0  0  0  0  0  0  0  0  0  0
   24.8868   62.6989   -2.9212 C   0  0  0  0  0  0  0  0  0  0  0  0
   26.0564   62.1257   -3.4220 C   0  0  0  0  0  0  0  0  0  0  0  0
   26.2987   62.2665   -4.7768 C   0  0  0  0  0  0  0  0  0  0  0  0
   25.4173   62.9430   -5.5801 C   0  0  0  0  0  0  0  0  0  0  0  0
   17.3340   63.1215  -11.1991 C   0  0  0  0  0  0  0  0  0  0  0  0
   16.4480   64.3405  -11.1939 C   0  0  0  0  0  0  0  0  0  0  0  0
   15.1241   64.1131  -10.5356 C   0  0  0  0  0  0  0  0  0  0  0  0
   14.0320   63.8137  -11.4015 N   0  0  0  0  0  0  0  0  0  0  0  0
   14.0067   64.4987  -12.6518 C   0  0  0  0  0  0  0  0  0  0  0  0
   13.9913   62.3699  -11.6846 C   0  0  0  0  0  0  0  0  0  0  0  0
   13.1146   64.0046  -10.8957 H   0  0  0  0  0  0  0  0  0  0  0  0
 10 11  1  0  0  0
 11 12  2  0  0  0
 11 16  1  0  0  0
 12 13  1  0  0  0
 13 14  2  0  0  0
 13  1  1  0  0  0
 14 15  1  0  0  0
 15 16  2  0  0  0
  1  2  1  0  0  0
  1  7  1  0  0  0
  2  3  1  0  0  0
  2 29  1  0  0  0
  3  4  2  0  0  0
  3  5  1  0  0  0
  5  6  2  0  0  0
  5  7  1  0  0  0
  7  8  2  0  0  0
  8  9  1  0  0  0
  8 17  1  0  0  0
 17 18  2  0  0  0
 17 21  1  0  0  0
 18 19  1  0  0  0
 18 22  1  0  0  0
 19 20  1  0  0  0
 19 23  1  0  0  0
 20 21  2  0  0  0
 23 24  2  0  0  0
 23 28  1  0  0  0
 24 25  1  0  0  0
 25 26  2  0  0  0
 26 27  1  0  0  0
 27 28  2  0  0  0
 29 30  1  0  0  0
 30 31  1  0  0  0
 31 32  1  0  0  0
 32 33  1  0  0  0
 32 34  1  0  0  0
 32 35  1  0  0  0
M  CHG 1   9  -1
M  CHG 1  32   1
M  END
> <minimizedAffinity>
-4.16384

$$$$
169


 37 40  0  0  0  0  0  0  0  0999 V2000
   21.2685   63.9954   -7.7740 C   0  0  0  0  0  0  0  0  0  0  0  0
   22.4644   63.5095   -8.4348 N   0  0  0  0  0  0  0  0  0  0  0  0
   22.2364   63.6588   -9.8285 C   0  0  0  0  0  0  0  0  0  0  0  0
   23.0939   63.7882  -10.7301 O   0  0  0  0  0  0  0  0  0  0  0  0
   20.7702   63.6362  -10.0268 C   0  0  0  0  0  0  0  0  0  0  0  0
   20.1489   63.7324  -11.1078 O   0  0  0  0  0  0  0  0  0  0  0  0
   20.2001   63.4726   -8.6963 C   0  0  0  0  0  0  0  0  0  0  0  0
   19.0467   62.9446   -8.4225 C   0  0  0  0  0  0  0  0  0  0  0  0
   18.6844   62.8095   -7.0659 O   0  0  0  0  0  0  0  0  0  0  0  0
   18.0738   62.4748   -9.3983 C   0  0  0  0  0  0  0  0  0  0  0  0
   17.8030   61.2626   -9.9377 C   0  0  0  0  0  0  0  0  0  0  0  0
   16.7451   61.3957  -10.7645 N   0  0  0  0  0  0  0  0  0  0  0  0
   16.3068   62.6604  -10.7923 C   0  0  0  0  0  0  0  0  0  0  0  0
   17.1225   63.3604   -9.9437 C   0  0  0  0  0  0  0  0  0  0  0  0
   17.0144   64.8215   -9.6511 C   0  0  0  0  0  0  0  0  0  0  0  0
   18.5465   59.9745   -9.7308 C   0  0  0  0  0  0  0  0  0  0  0  0
   16.3232   60.5953  -11.3191 H   0  0  0  0  0  0  0  0  0  0  0  0
   15.1750   63.1933  -11.5770 C   0  0  0  0  0  0  0  0  0  0  0  0
   14.0956   62.5832  -11.5730 O   0  0  0  0  0  0  0  0  0  0  0  0
   15.3102   64.3574  -12.3091 O   0  0  0  0  0  0  0  0  0  0  0  0
   14.2512   64.9710  -13.0075 C   0  0  0  0  0  0  0  0  0  0  0  0
   23.3675   68.5281   -5.8554 Br  0  0  0  0  0  0  0  0  0  0  0  0
   22.1655   67.5868   -6.9988 C   0  0  0  0  0  0  0  0  0  0  0  0
   22.1465   66.2084   -6.9863 C   0  0  0  0  0  0  0  0  0  0  0  0
   21.2902   65.4776   -7.7995 C   0  0  0  0  0  0  0  0  0  0  0  0
   20.4593   66.2249   -8.6207 C   0  0  0  0  0  0  0  0  0  0  0  0
   20.4706   67.6033   -8.6401 C   0  0  0  0  0  0  0  0  0  0  0  0
   21.3297   68.3062   -7.8244 C   0  0  0  0  0  0  0  0  0  0  0  0
   23.6709   62.9676   -7.8044 C   0  0  0  0  0  0  0  0  0  0  0  0
   24.0978   63.8145   -6.6258 C   0  0  0  0  0  0  0  0  0  0  0  0
   24.2409   63.0841   -5.4089 N   0  0  0  0  0  0  0  0  0  0  0  0
   23.8393   63.8304   -4.2224 C   0  0  0  0  0  0  0  0  0  0  0  0
   23.6047   62.8346   -3.1190 C   0  0  0  0  0  0  0  0  0  0  0  0
   24.3123   61.6882   -3.3820 O   0  0  0  0  0  0  0  0  0  0  0  0
   25.5989   61.9038   -3.8438 C   0  0  0  0  0  0  0  0  0  0  0  0
   25.6189   62.6796   -5.1599 C   0  0  0  0  0  0  0  0  0  0  0  0
   23.7007   62.2025   -5.4721 H   0  0  0  0  0  0  0  0  0  0  0  0
 22 23  1  0  0  0
 23 24  2  0  0  0
 23 28  1  0  0  0
 24 25  1  0  0  0
 25 26  2  0  0  0
 25  1  1  0  0  0
 26 27  1  0  0  0
 27 28  2  0  0  0
  1  2  1  0  0  0
  1  7  1  0  0  0
  2  3  1  0  0  0
  2 29  1  0  0  0
  3  4  2  0  0  0
  3  5  1  0  0  0
  5  6  2  0  0  0
  5  7  1  0  0  0
  7  8  2  0  0  0
  8  9  1  0  0  0
  8 10  1  0  0  0
 10 11  2  0  0  0
 10 14  1  0  0  0
 11 12  1  0  0  0
 11 16  1  0  0  0
 12 13  1  0  0  0
 13 14  2  0  0  0
 13 18  1  0  0  0
 14 15  1  0  0  0
 18 19  2  0  0  0
 18 20  1  0  0  0
 20 21  1  0  0  0
 29 30  1  0  0  0
 30 31  1  0  0  0
 31 32  1  0  0  0
 31 36  1  0  0  0
 32 33  1  0  0  0
 33 34  1  0  0  0
 34 35  1  0  0  0
 35 36  1  0  0  0
 12 17  1  0  0  0
 31 37  1  0  0  0
M  CHG 1   9  -1
M  CHG 1  31   1
M  END
> <minimizedAffinity>
-5.71596

$$$$
170


 35 38  0  0  0  0  0  0  0  0999 V2000
   21.8872   62.6500  -10.0779 C   0  0  0  0  0  0  0  0  0  0  0  0
   22.2833   63.4413   -8.9297 N   0  0  0  0  0  0  0  0  0  0  0  0
   21.5010   64.6118   -8.8346 C   0  0  0  0  0  0  0  0  0  0  0  0
   21.6928   65.6861   -8.2092 O   0  0  0  0  0  0  0  0  0  0  0  0
   20.2985   64.3588   -9.6676 C   0  0  0  0  0  0  0  0  0  0  0  0
   19.3754   65.1845   -9.8150 O   0  0  0  0  0  0  0  0  0  0  0  0
   20.4383   63.0261  -10.2255 C   0  0  0  0  0  0  0  0  0  0  0  0
   19.4696   62.2909  -10.7077 C   0  0  0  0  0  0  0  0  0  0  0  0
   19.7530   60.9865  -11.1487 O   0  0  0  0  0  0  0  0  0  0  0  0
   26.6505   63.3086  -12.4411 Br  0  0  0  0  0  0  0  0  0  0  0  0
   24.7457   63.2827  -12.4565 C   0  0  0  0  0  0  0  0  0  0  0  0
   24.0358   62.9846  -11.2989 C   0  0  0  0  0  0  0  0  0  0  0  0
   22.6595   62.9635  -11.2931 C   0  0  0  0  0  0  0  0  0  0  0  0
   21.9870   63.2428  -12.4618 C   0  0  0  0  0  0  0  0  0  0  0  0
   22.6867   63.5399  -13.6143 C   0  0  0  0  0  0  0  0  0  0  0  0
   24.0648   63.5642  -13.6302 C   0  0  0  0  0  0  0  0  0  0  0  0
   18.1174   62.7698  -10.8117 C   0  0  0  0  0  0  0  0  0  0  0  0
   17.0974   61.8210  -10.6473 C   0  0  0  0  0  0  0  0  0  0  0  0
   15.7837   62.1791  -10.7701 C   0  0  0  0  0  0  0  0  0  0  0  0
   15.4016   63.4830  -11.0602 C   0  0  0  0  0  0  0  0  0  0  0  0
   16.4068   64.3857  -11.2163 C   0  0  0  0  0  0  0  0  0  0  0  0
   17.7379   64.0415  -11.0968 C   0  0  0  0  0  0  0  0  0  0  0  0
   14.7071   61.1529  -10.5917 C   0  0  0  0  0  0  0  0  0  0  0  0
   14.0547   63.7633  -11.1670 O   0  0  0  0  0  0  0  0  0  0  0  0
   13.4929   64.1785  -12.4030 C   0  0  0  0  0  0  0  0  0  0  0  0
   23.3444   63.0971   -7.9698 C   0  0  0  0  0  0  0  0  0  0  0  0
   23.8084   64.3363   -7.2557 C   0  0  0  0  0  0  0  0  0  0  0  0
   23.6558   64.3059   -5.7731 C   0  0  0  0  0  0  0  0  0  0  0  0
   24.1321   63.0829   -5.1644 N   0  0  0  0  0  0  0  0  0  0  0  0
   25.4986   62.7877   -5.5469 C   0  0  0  0  0  0  0  0  0  0  0  0
   26.4120   62.8392   -4.3520 C   0  0  0  0  0  0  0  0  0  0  0  0
   25.9796   61.8547   -3.4402 O   0  0  0  0  0  0  0  0  0  0  0  0
   24.7045   62.1546   -2.9660 C   0  0  0  0  0  0  0  0  0  0  0  0
   24.0243   63.2569   -3.7128 C   0  0  0  0  0  0  0  0  0  0  0  0
   23.5395   62.2543   -5.3814 H   0  0  0  0  0  0  0  0  0  0  0  0
 10 11  1  0  0  0
 11 12  2  0  0  0
 11 16  1  0  0  0
 12 13  1  0  0  0
 13 14  2  0  0  0
 13  1  1  0  0  0
 14 15  1  0  0  0
 15 16  2  0  0  0
  1  2  1  0  0  0
  1  7  1  0  0  0
  2  3  1  0  0  0
  2 26  1  0  0  0
  3  4  2  0  0  0
  3  5  1  0  0  0
  5  6  2  0  0  0
  5  7  1  0  0  0
  7  8  2  0  0  0
  8  9  1  0  0  0
  8 17  1  0  0  0
 17 18  2  0  0  0
 17 22  1  0  0  0
 18 19  1  0  0  0
 19 20  2  0  0  0
 19 23  1  0  0  0
 20 21  1  0  0  0
 20 24  1  0  0  0
 21 22  2  0  0  0
 24 25  1  0  0  0
 26 27  1  0  0  0
 27 28  1  0  0  0
 28 29  1  0  0  0
 29 30  1  0  0  0
 29 34  1  0  0  0
 30 31  1  0  0  0
 31 32  1  0  0  0
 32 33  1  0  0  0
 33 34  1  0  0  0
 29 35  1  0  0  0
M  CHG 1   9  -1
M  CHG 1  29   1
M  END
> <minimizedAffinity>
-7.56320

$$$$
175


 32 35  0  0  0  0  0  0  0  0999 V2000
   22.1356   64.3803   -7.4166 C   0  0  0  0  0  0  0  0  0  0  0  0
   23.3480   64.0238   -8.0910 N   0  0  0  0  0  0  0  0  0  0  0  0
   23.0317   63.9608   -9.4733 C   0  0  0  0  0  0  0  0  0  0  0  0
   23.8568   64.0111  -10.4192 O   0  0  0  0  0  0  0  0  0  0  0  0
   21.5646   63.8230   -9.6320 C   0  0  0  0  0  0  0  0  0  0  0  0
   20.9179   63.7355  -10.6893 O   0  0  0  0  0  0  0  0  0  0  0  0
   21.0393   63.8121   -8.2799 C   0  0  0  0  0  0  0  0  0  0  0  0
   19.8767   63.3575   -7.8668 C   0  0  0  0  0  0  0  0  0  0  0  0
   19.5742   63.3682   -6.5218 O   0  0  0  0  0  0  0  0  0  0  0  0
   24.0356   69.0805   -5.5828 Br  0  0  0  0  0  0  0  0  0  0  0  0
   22.7308   68.0211   -6.4900 C   0  0  0  0  0  0  0  0  0  0  0  0
   22.8883   66.6456   -6.6251 C   0  0  0  0  0  0  0  0  0  0  0  0
   21.9643   65.8534   -7.2740 C   0  0  0  0  0  0  0  0  0  0  0  0
   20.8536   66.5020   -7.7954 C   0  0  0  0  0  0  0  0  0  0  0  0
   20.6785   67.8639   -7.6733 C   0  0  0  0  0  0  0  0  0  0  0  0
   21.6251   68.6099   -7.0185 C   0  0  0  0  0  0  0  0  0  0  0  0
   18.8925   62.8478   -8.7871 C   0  0  0  0  0  0  0  0  0  0  0  0
   18.8030   61.5697   -9.2573 C   0  0  0  0  0  0  0  0  0  0  0  0
   17.7764   61.2077  -10.1095 C   0  0  0  0  0  0  0  0  0  0  0  0
   16.7996   62.0785  -10.5358 C   0  0  0  0  0  0  0  0  0  0  0  0
   16.8917   63.3698  -10.0607 C   0  0  0  0  0  0  0  0  0  0  0  0
   17.9036   63.7498   -9.2139 C   0  0  0  0  0  0  0  0  0  0  0  0
   15.7039   61.6627  -11.4554 C   0  0  0  0  0  0  0  0  0  0  0  0
   24.6791   63.7691   -7.5052 C   0  0  0  0  0  0  0  0  0  0  0  0
   24.4700   62.9540   -6.2598 C   0  0  0  0  0  0  0  0  0  0  0  0
   24.8742   63.5783   -5.0524 N   0  0  0  0  0  0  0  0  0  0  0  0
   23.8330   63.8557   -4.1065 C   0  0  0  0  0  0  0  0  0  0  0  0
   23.5962   62.7577   -3.1061 C   0  0  0  0  0  0  0  0  0  0  0  0
   24.7529   62.1870   -2.6232 O   0  0  0  0  0  0  0  0  0  0  0  0
   25.5518   61.6946   -3.6284 C   0  0  0  0  0  0  0  0  0  0  0  0
   25.9838   62.8554   -4.4840 C   0  0  0  0  0  0  0  0  0  0  0  0
   25.2870   64.5206   -5.3247 H   0  0  0  0  0  0  0  0  0  0  0  0
 10 11  1  0  0  0
 11 12  2  0  0  0
 11 16  1  0  0  0
 12 13  1  0  0  0
 13 14  2  0  0  0
 13  1  1  0  0  0
 14 15  1  0  0  0
 15 16  2  0  0  0
  1  2  1  0  0  0
  1  7  1  0  0  0
  2  3  1  0  0  0
  2 24  1  0  0  0
  3  4  2  0  0  0
  3  5  1  0  0  0
  5  6  2  0  0  0
  5  7  1  0  0  0
  7  8  2  0  0  0
  8  9  1  0  0  0
  8 17  1  0  0  0
 17 18  2  0  0  0
 17 22  1  0  0  0
 18 19  1  0  0  0
 19 20  2  0  0  0
 20 21  1  0  0  0
 20 23  1  0  0  0
 21 22  2  0  0  0
 24 25  1  0  0  0
 25 26  1  0  0  0
 26 27  1  0  0  0
 26 31  1  0  0  0
 27 28  1  0  0  0
 28 29  1  0  0  0
 29 30  1  0  0  0
 30 31  1  0  0  0
 26 32  1  0  0  0
M  CHG 1   9  -1
M  CHG 1  26   1
M  END
> <minimizedAffinity>
-5.72031

$$$$
176


 33 36  0  0  0  0  0  0  0  0999 V2000
   22.0207   62.6470  -10.3445 C   0  0  0  0  0  0  0  0  0  0  0  0
   22.5186   63.3898   -9.1983 N   0  0  0  0  0  0  0  0  0  0  0  0
   21.7171   64.5848   -9.0929 C   0  0  0  0  0  0  0  0  0  0  0  0
   22.0449   65.6116   -8.4487 O   0  0  0  0  0  0  0  0  0  0  0  0
   20.5086   64.3528   -9.8554 C   0  0  0  0  0  0  0  0  0  0  0  0
   19.5291   65.1424  -10.0346 O   0  0  0  0  0  0  0  0  0  0  0  0
   20.5930   63.0104  -10.4145 C   0  0  0  0  0  0  0  0  0  0  0  0
   19.5756   62.3191  -10.9070 C   0  0  0  0  0  0  0  0  0  0  0  0
   19.9366   61.0633  -11.4389 O   0  0  0  0  0  0  0  0  0  0  0  0
   26.7989   63.3877  -12.6719 Br  0  0  0  0  0  0  0  0  0  0  0  0
   24.8990   63.3616  -12.6779 C   0  0  0  0  0  0  0  0  0  0  0  0
   24.1506   63.0281  -11.5575 C   0  0  0  0  0  0  0  0  0  0  0  0
   22.7745   63.0080  -11.5715 C   0  0  0  0  0  0  0  0  0  0  0  0
   22.1419   63.3283  -12.7354 C   0  0  0  0  0  0  0  0  0  0  0  0
   22.8868   63.6679  -13.8733 C   0  0  0  0  0  0  0  0  0  0  0  0
   24.2628   63.6871  -13.8572 C   0  0  0  0  0  0  0  0  0  0  0  0
   18.1933   62.7686  -10.9178 C   0  0  0  0  0  0  0  0  0  0  0  0
   17.7519   63.9739  -11.4100 C   0  0  0  0  0  0  0  0  0  0  0  0
   16.4191   64.3330  -11.4246 C   0  0  0  0  0  0  0  0  0  0  0  0
   15.4585   63.4781  -10.9336 C   0  0  0  0  0  0  0  0  0  0  0  0
   15.8834   62.2629  -10.4345 C   0  0  0  0  0  0  0  0  0  0  0  0
   17.2193   61.9126  -10.4246 C   0  0  0  0  0  0  0  0  0  0  0  0
   13.7465   63.9143  -10.9417 Cl  0  0  0  0  0  0  0  0  0  0  0  0
   23.6548   63.0401   -8.4084 C   0  0  0  0  0  0  0  0  0  0  0  0
   23.7666   63.5601   -7.0342 C   0  0  0  0  0  0  0  0  0  0  0  0
   24.8072   63.0315   -6.1191 C   0  0  0  0  0  0  0  0  0  0  0  0
   24.3941   62.4774   -4.8742 N   0  0  0  0  0  0  0  0  0  0  0  0
   25.5331   62.1159   -4.0691 C   0  0  0  0  0  0  0  0  0  0  0  0
   25.9667   63.2117   -3.1180 C   0  0  0  0  0  0  0  0  0  0  0  0
   24.9726   63.4383   -2.1633 O   0  0  0  0  0  0  0  0  0  0  0  0
   23.7197   63.0630   -2.6512 C   0  0  0  0  0  0  0  0  0  0  0  0
   23.6518   63.5090   -4.0855 C   0  0  0  0  0  0  0  0  0  0  0  0
   23.7125   61.7298   -4.9765 H   0  0  0  0  0  0  0  0  0  0  0  0
 10 11  1  0  0  0
 11 12  2  0  0  0
 11 16  1  0  0  0
 12 13  1  0  0  0
 13 14  2  0  0  0
 13  1  1  0  0  0
 14 15  1  0  0  0
 15 16  2  0  0  0
  1  2  1  0  0  0
  1  7  1  0  0  0
  2  3  1  0  0  0
  2 24  1  0  0  0
  3  4  2  0  0  0
  3  5  1  0  0  0
  5  6  2  0  0  0
  5  7  1  0  0  0
  7  8  2  0  0  0
  8  9  1  0  0  0
  8 17  1  0  0  0
 17 18  2  0  0  0
 17 22  1  0  0  0
 18 19  1  0  0  0
 19 20  2  0  0  0
 20 21  1  0  0  0
 20 23  1  0  0  0
 21 22  2  0  0  0
 24 25  1  0  0  0
 25 26  1  0  0  0
 26 27  1  0  0  0
 27 28  1  0  0  0
 27 32  1  0  0  0
 28 29  1  0  0  0
 29 30  1  0  0  0
 30 31  1  0  0  0
 31 32  1  0  0  0
 27 33  1  0  0  0
M  CHG 1   9  -1
M  CHG 1  27   1
M  END
> <minimizedAffinity>
-6.95623

$$$$
182


 36 40  0  0  0  0  0  0  0  0999 V2000
   22.2319   63.8331   -9.5509 C   0  0  0  0  0  0  0  0  0  0  0  0
   22.5418   63.5087   -8.2023 N   0  0  0  0  0  0  0  0  0  0  0  0
   21.3431   63.9282   -7.4701 C   0  0  0  0  0  0  0  0  0  0  0  0
   21.2973   64.2887   -6.2831 O   0  0  0  0  0  0  0  0  0  0  0  0
   20.2252   63.8322   -8.4233 C   0  0  0  0  0  0  0  0  0  0  0  0
   19.0158   64.0886   -8.2251 O   0  0  0  0  0  0  0  0  0  0  0  0
   20.8201   63.3643   -9.6729 C   0  0  0  0  0  0  0  0  0  0  0  0
   20.2316   62.6696  -10.6120 C   0  0  0  0  0  0  0  0  0  0  0  0
   21.0259   62.2706  -11.7088 O   0  0  0  0  0  0  0  0  0  0  0  0
   18.8217   62.3115  -10.5692 C   0  0  0  0  0  0  0  0  0  0  0  0
   17.7188   62.9737  -10.9470 N   0  0  0  0  0  0  0  0  0  0  0  0
   16.6368   62.2427  -10.6655 C   0  0  0  0  0  0  0  0  0  0  0  0
   17.0680   61.0869  -10.0952 N   0  0  0  0  0  0  0  0  0  0  0  0
   18.4053   61.0890  -10.0187 C   0  0  0  0  0  0  0  0  0  0  0  0
   19.2746   60.0144   -9.4615 C   0  0  0  0  0  0  0  0  0  0  0  0
   15.3523   62.6890  -10.9683 C   0  0  0  0  0  0  0  0  0  0  0  0
   15.2416   63.9235  -11.5779 C   0  0  0  0  0  0  0  0  0  0  0  0
   16.3817   64.6541  -11.8570 C   0  0  0  0  0  0  0  0  0  0  0  0
   17.6383   64.1936  -11.5474 C   0  0  0  0  0  0  0  0  0  0  0  0
   14.1869   61.8354  -10.6308 C   0  0  0  0  0  0  0  0  0  0  0  0
   23.0228   63.9928  -14.7968 Br  0  0  0  0  0  0  0  0  0  0  0  0
   23.5622   63.5134  -13.0220 C   0  0  0  0  0  0  0  0  0  0  0  0
   22.7752   63.8162  -11.9420 C   0  0  0  0  0  0  0  0  0  0  0  0
   23.1241   63.4879  -10.6165 C   0  0  0  0  0  0  0  0  0  0  0  0
   24.3316   62.8325  -10.5180 C   0  0  0  0  0  0  0  0  0  0  0  0
   25.1394   62.5186  -11.5898 C   0  0  0  0  0  0  0  0  0  0  0  0
   24.7553   62.8607  -12.8663 C   0  0  0  0  0  0  0  0  0  0  0  0
   23.7041   62.9591   -7.5265 C   0  0  0  0  0  0  0  0  0  0  0  0
   24.0644   63.6217   -6.2419 C   0  0  0  0  0  0  0  0  0  0  0  0
   24.1432   62.6944   -5.1305 N   0  0  0  0  0  0  0  0  0  0  0  0
   25.4330   62.0432   -5.0745 C   0  0  0  0  0  0  0  0  0  0  0  0
   26.4916   63.0394   -4.5909 C   0  0  0  0  0  0  0  0  0  0  0  0
   26.1473   63.3473   -3.2701 O   0  0  0  0  0  0  0  0  0  0  0  0
   24.9831   64.1383   -3.3564 C   0  0  0  0  0  0  0  0  0  0  0  0
   23.8112   63.3388   -3.8751 C   0  0  0  0  0  0  0  0  0  0  0  0
   23.4332   61.9346   -5.2714 H   0  0  0  0  0  0  0  0  0  0  0  0
 21 22  1  0  0  0
 22 23  2  0  0  0
 22 27  1  0  0  0
 23 24  1  0  0  0
 24 25  2  0  0  0
 24  1  1  0  0  0
 25 26  1  0  0  0
 26 27  2  0  0  0
  1  2  1  0  0  0
  1  7  1  0  0  0
  2  3  1  0  0  0
  2 28  1  0  0  0
  3  4  2  0  0  0
  3  5  1  0  0  0
  5  6  2  0  0  0
  5  7  1  0  0  0
  7  8  2  0  0  0
  8  9  1  0  0  0
  8 10  1  0  0  0
 10 11  1  0  0  0
 10 14  2  0  0  0
 11 12  1  0  0  0
 11 19  1  0  0  0
 12 13  2  0  0  0
 12 16  1  0  0  0
 13 14  1  0  0  0
 14 15  1  0  0  0
 16 17  2  0  0  0
 16 20  1  0  0  0
 17 18  1  0  0  0
 18 19  2  0  0  0
 28 29  1  0  0  0
 29 30  1  0  0  0
 30 31  1  0  0  0
 30 35  1  0  0  0
 31 32  1  0  0  0
 32 33  1  0  0  0
 33 34  1  0  0  0
 34 35  1  0  0  0
 30 36  1  0  0  0
M  CHG 1   9  -1
M  CHG 1  30   1
M  END
> <minimizedAffinity>
-4.86563

$$$$
184


 33 36  0  0  0  0  0  0  0  0999 V2000
   21.7619   62.7677  -10.1347 C   0  0  0  0  0  0  0  0  0  0  0  0
   22.1688   63.4302  -11.3585 N   0  0  0  0  0  0  0  0  0  0  0  0
   21.4433   62.7661  -12.4018 C   0  0  0  0  0  0  0  0  0  0  0  0
   21.7531   62.6752  -13.6030 O   0  0  0  0  0  0  0  0  0  0  0  0
   20.2454   62.2014  -11.7920 C   0  0  0  0  0  0  0  0  0  0  0  0
   19.3014   61.5273  -12.3022 O   0  0  0  0  0  0  0  0  0  0  0  0
   20.3013   62.5577  -10.3822 C   0  0  0  0  0  0  0  0  0  0  0  0
   19.2747   62.6174   -9.5574 C   0  0  0  0  0  0  0  0  0  0  0  0
   19.5757   62.9204   -8.2220 O   0  0  0  0  0  0  0  0  0  0  0  0
   17.8845   62.4026   -9.9305 C   0  0  0  0  0  0  0  0  0  0  0  0
   16.9774   63.3281  -10.2758 N   0  0  0  0  0  0  0  0  0  0  0  0
   15.7941   62.7474  -10.6019 C   0  0  0  0  0  0  0  0  0  0  0  0
   16.0028   61.4110  -10.4426 N   0  0  0  0  0  0  0  0  0  0  0  0
   17.2380   61.1622  -10.0425 C   0  0  0  0  0  0  0  0  0  0  0  0
   17.9294   59.8899   -9.7377 C   0  0  0  0  0  0  0  0  0  0  0  0
   14.6784   63.4752  -10.9846 C   0  0  0  0  0  0  0  0  0  0  0  0
   14.7456   64.8517  -11.0440 C   0  0  0  0  0  0  0  0  0  0  0  0
   15.9600   65.4382  -10.7069 C   0  0  0  0  0  0  0  0  0  0  0  0
   17.0352   64.6918  -10.3357 C   0  0  0  0  0  0  0  0  0  0  0  0
   24.2303   63.4280   -5.4389 Br  0  0  0  0  0  0  0  0  0  0  0  0
   23.0109   63.9708   -6.7907 C   0  0  0  0  0  0  0  0  0  0  0  0
   22.8556   63.1797   -7.9295 C   0  0  0  0  0  0  0  0  0  0  0  0
   21.9935   63.5418   -8.9092 C   0  0  0  0  0  0  0  0  0  0  0  0
   21.2693   64.7274   -8.7439 C   0  0  0  0  0  0  0  0  0  0  0  0
   21.4237   65.4973   -7.6297 C   0  0  0  0  0  0  0  0  0  0  0  0
   22.2947   65.1471   -6.6212 C   0  0  0  0  0  0  0  0  0  0  0  0
   23.1231   64.5289  -11.5260 C   0  0  0  0  0  0  0  0  0  0  0  0
   24.5066   64.0757  -11.8169 C   0  0  0  0  0  0  0  0  0  0  0  0
   24.8672   63.7634  -13.2104 C   0  0  0  0  0  0  0  0  0  0  0  0
   26.2059   64.0379  -13.6005 N   0  0  0  0  0  0  0  0  0  0  0  0
   26.4021   63.6823  -14.9853 C   0  0  0  0  0  0  0  0  0  0  0  0
   27.1224   63.1744  -12.8322 C   0  0  0  0  0  0  0  0  0  0  0  0
   26.5314   65.0044  -13.3801 H   0  0  0  0  0  0  0  0  0  0  0  0
 20 21  1  0  0  0
 21 22  2  0  0  0
 21 26  1  0  0  0
 22 23  1  0  0  0
 23 24  2  0  0  0
 23  1  1  0  0  0
 24 25  1  0  0  0
 25 26  2  0  0  0
  1  2  1  0  0  0
  1  7  1  0  0  0
  2  3  1  0  0  0
  2 27  1  0  0  0
  3  4  2  0  0  0
  3  5  1  0  0  0
  5  6  2  0  0  0
  5  7  1  0  0  0
  7  8  2  0  0  0
  8  9  1  0  0  0
  8 10  1  0  0  0
 10 11  1  0  0  0
 10 14  2  0  0  0
 11 12  1  0  0  0
 11 19  1  0  0  0
 12 13  2  0  0  0
 12 16  1  0  0  0
 13 14  1  0  0  0
 14 15  1  0  0  0
 16 17  2  0  0  0
 17 18  1  0  0  0
 18 19  2  0  0  0
 27 28  1  0  0  0
 28 29  1  0  0  0
 29 30  1  0  0  0
 30 31  1  0  0  0
 30 32  1  0  0  0
 30 33  1  0  0  0
M  CHG 1   9  -1
M  CHG 1  30   1
M  END
> <minimizedAffinity>
-4.81758

$$$$
188


 31 34  0  0  0  0  0  0  0  0999 V2000
   22.9342   64.9578   -7.5438 C   0  0  0  0  0  0  0  0  0  0  0  0
   21.8242   64.1792   -8.0725 N   0  0  0  0  0  0  0  0  0  0  0  0
   21.0184   63.9185   -6.8989 C   0  0  0  0  0  0  0  0  0  0  0  0
   19.7933   63.6729   -6.8766 O   0  0  0  0  0  0  0  0  0  0  0  0
   21.8718   63.9894   -5.7204 C   0  0  0  0  0  0  0  0  0  0  0  0
   21.6108   63.8373   -4.4993 O   0  0  0  0  0  0  0  0  0  0  0  0
   23.2124   64.2979   -6.2164 C   0  0  0  0  0  0  0  0  0  0  0  0
   24.3706   64.0893   -5.6595 C   0  0  0  0  0  0  0  0  0  0  0  0
   25.5245   64.5222   -6.3471 O   0  0  0  0  0  0  0  0  0  0  0  0
   24.2767   69.6928   -5.3891 Br  0  0  0  0  0  0  0  0  0  0  0  0
   23.0379   68.5233   -6.2699 C   0  0  0  0  0  0  0  0  0  0  0  0
   23.3779   67.2180   -6.5904 C   0  0  0  0  0  0  0  0  0  0  0  0
   22.5126   66.3538   -7.2241 C   0  0  0  0  0  0  0  0  0  0  0  0
   21.2565   66.8321   -7.5444 C   0  0  0  0  0  0  0  0  0  0  0  0
   20.8976   68.1449   -7.2292 C   0  0  0  0  0  0  0  0  0  0  0  0
   21.7821   68.9954   -6.5929 C   0  0  0  0  0  0  0  0  0  0  0  0
   24.4656   63.4281   -4.3710 C   0  0  0  0  0  0  0  0  0  0  0  0
   24.3849   64.0601   -3.2305 O   0  0  0  0  0  0  0  0  0  0  0  0
   24.5043   63.2380   -2.2245 C   0  0  0  0  0  0  0  0  0  0  0  0
   24.6745   61.9816   -2.7216 C   0  0  0  0  0  0  0  0  0  0  0  0
   24.6522   62.0974   -4.1163 C   0  0  0  0  0  0  0  0  0  0  0  0
   21.5123   63.7484   -9.4095 C   0  0  0  0  0  0  0  0  0  0  0  0
   20.4462   64.5783  -10.0868 C   0  0  0  0  0  0  0  0  0  0  0  0
   19.4151   63.6894  -10.6603 C   0  0  0  0  0  0  0  0  0  0  0  0
   18.3862   63.2664   -9.7373 N   0  0  0  0  0  0  0  0  0  0  0  0
   17.1243   63.9273   -9.9739 C   0  0  0  0  0  0  0  0  0  0  0  0
   16.1647   63.1630  -10.8144 C   0  0  0  0  0  0  0  0  0  0  0  0
   16.0895   61.8114  -10.5520 O   0  0  0  0  0  0  0  0  0  0  0  0
   17.3264   61.1823  -10.5052 C   0  0  0  0  0  0  0  0  0  0  0  0
   18.2712   61.8604   -9.5469 C   0  0  0  0  0  0  0  0  0  0  0  0
   18.7125   63.6573   -8.7969 H   0  0  0  0  0  0  0  0  0  0  0  0
 10 11  1  0  0  0
 11 12  2  0  0  0
 11 16  1  0  0  0
 12 13  1  0  0  0
 13 14  2  0  0  0
 13  1  1  0  0  0
 14 15  1  0  0  0
 15 16  2  0  0  0
  1  2  1  0  0  0
  1  7  1  0  0  0
  2  3  1  0  0  0
  2 22  1  0  0  0
  3  4  2  0  0  0
  3  5  1  0  0  0
  5  6  2  0  0  0
  5  7  1  0  0  0
  7  8  2  0  0  0
  8  9  1  0  0  0
  8 17  1  0  0  0
 17 18  1  0  0  0
 17 21  2  0  0  0
 18 19  1  0  0  0
 19 20  2  0  0  0
 20 21  1  0  0  0
 22 23  1  0  0  0
 23 24  1  0  0  0
 24 25  1  0  0  0
 25 26  1  0  0  0
 25 30  1  0  0  0
 26 27  1  0  0  0
 27 28  1  0  0  0
 28 29  1  0  0  0
 29 30  1  0  0  0
 25 31  1  0  0  0
M  CHG 1   9  -1
M  CHG 1  25   1
M  END
> <minimizedAffinity>
-4.95060

$$$$
191


 34 37  0  0  0  0  0  0  0  0999 V2000
   22.4553   64.4565  -10.3019 C   0  0  0  0  0  0  0  0  0  0  0  0
   23.6454   63.9545  -10.9584 N   0  0  0  0  0  0  0  0  0  0  0  0
   24.0216   62.7660  -10.2293 C   0  0  0  0  0  0  0  0  0  0  0  0
   24.7246   61.8284  -10.6779 O   0  0  0  0  0  0  0  0  0  0  0  0
   23.4265   62.8864   -8.8948 C   0  0  0  0  0  0  0  0  0  0  0  0
   23.4967   62.0805   -7.9316 O   0  0  0  0  0  0  0  0  0  0  0  0
   22.6987   64.1490   -8.8433 C   0  0  0  0  0  0  0  0  0  0  0  0
   22.3376   64.8320   -7.7704 C   0  0  0  0  0  0  0  0  0  0  0  0
   21.6345   66.0004   -7.9228 O   0  0  0  0  0  0  0  0  0  0  0  0
   22.6772   64.3659   -6.4129 C   0  0  0  0  0  0  0  0  0  0  0  0
   23.8710   64.0351   -6.0011 O   0  0  0  0  0  0  0  0  0  0  0  0
   23.9075   63.6584   -4.7668 C   0  0  0  0  0  0  0  0  0  0  0  0
   22.6213   63.7384   -4.2901 C   0  0  0  0  0  0  0  0  0  0  0  0
   21.8422   64.1869   -5.3358 C   0  0  0  0  0  0  0  0  0  0  0  0
   22.3891   63.3835   -2.9793 C   0  0  0  0  0  0  0  0  0  0  0  0
   23.4072   62.9563   -2.1509 C   0  0  0  0  0  0  0  0  0  0  0  0
   24.7009   62.8912   -2.6781 C   0  0  0  0  0  0  0  0  0  0  0  0
   24.9700   63.2365   -3.9783 C   0  0  0  0  0  0  0  0  0  0  0  0
   26.2535   63.1601   -4.4556 O   0  0  0  0  0  0  0  0  0  0  0  0
   26.8680   62.0491   -5.0254 C   0  0  0  0  0  0  0  0  0  0  0  0
   17.1590   63.9073   -9.6458 Br  0  0  0  0  0  0  0  0  0  0  0  0
   18.8044   63.4908  -10.5543 C   0  0  0  0  0  0  0  0  0  0  0  0
   19.9768   64.0661  -10.1577 C   0  0  0  0  0  0  0  0  0  0  0  0
   21.2042   63.8094  -10.7723 C   0  0  0  0  0  0  0  0  0  0  0  0
   21.1576   62.9231  -11.8256 C   0  0  0  0  0  0  0  0  0  0  0  0
   19.9676   62.3301  -12.2396 C   0  0  0  0  0  0  0  0  0  0  0  0
   18.7950   62.6177  -11.6014 C   0  0  0  0  0  0  0  0  0  0  0  0
   24.3278   64.4853  -12.1132 C   0  0  0  0  0  0  0  0  0  0  0  0
   24.7044   63.3936  -13.0853 C   0  0  0  0  0  0  0  0  0  0  0  0
   26.1095   63.4331  -13.5668 C   0  0  0  0  0  0  0  0  0  0  0  0
   26.2694   63.8042  -14.9381 N   0  0  0  0  0  0  0  0  0  0  0  0
   25.1871   63.2475  -15.7547 C   0  0  0  0  0  0  0  0  0  0  0  0
   27.5308   63.4028  -15.4801 C   0  0  0  0  0  0  0  0  0  0  0  0
   26.1866   64.8511  -15.0851 H   0  0  0  0  0  0  0  0  0  0  0  0
 21 22  1  0  0  0
 22 23  2  0  0  0
 22 27  1  0  0  0
 23 24  1  0  0  0
 24 25  2  0  0  0
 24  1  1  0  0  0
 25 26  1  0  0  0
 26 27  2  0  0  0
  1  2  1  0  0  0
  1  7  1  0  0  0
  2  3  1  0  0  0
  2 28  1  0  0  0
  3  4  2  0  0  0
  3  5  1  0  0  0
  5  6  2  0  0  0
  5  7  1  0  0  0
  7  8  2  0  0  0
  8  9  1  0  0  0
  8 10  1  0  0  0
 10 11  1  0  0  0
 10 14  2  0  0  0
 11 12  1  0  0  0
 12 13  2  0  0  0
 12 18  1  0  0  0
 13 14  1  0  0  0
 13 15  1  0  0  0
 15 16  2  0  0  0
 16 17  1  0  0  0
 17 18  2  0  0  0
 18 19  1  0  0  0
 19 20  1  0  0  0
 28 29  1  0  0  0
 29 30  1  0  0  0
 30 31  1  0  0  0
 31 32  1  0  0  0
 31 33  1  0  0  0
 31 34  1  0  0  0
M  CHG 1   9  -1
M  CHG 1  31   1
M  END
> <minimizedAffinity>
-6.80919

$$$$
199


 25 28  0  0  0  0  0  0  0  0999 V2000
   22.2298   64.3016   -9.6682 C   0  0  0  0  0  0  0  0  0  0  0  0
   20.7604   64.5709   -9.4735 C   0  0  0  0  0  0  0  0  0  0  0  0
   20.4113   63.3018  -10.1290 N   0  0  0  0  0  0  0  0  0  0  0  0
   21.7496   63.3132  -10.6901 C   0  0  0  0  0  0  0  0  0  0  0  0
   19.2420   62.4928  -10.1458 C   0  0  0  0  0  0  0  0  0  0  0  0
   19.2576   61.1926   -9.7530 N   0  0  0  0  0  0  0  0  0  0  0  0
   18.1205   60.4373   -9.7781 C   0  0  0  0  0  0  0  0  0  0  0  0
   16.9569   60.9508  -10.1890 N   0  0  0  0  0  0  0  0  0  0  0  0
   16.8694   62.2206  -10.5888 C   0  0  0  0  0  0  0  0  0  0  0  0
   15.8359   62.9596  -11.0394 N   0  0  0  0  0  0  0  0  0  0  0  0
   16.3183   64.1569  -11.2918 N   0  0  0  0  0  0  0  0  0  0  0  0
   17.6266   64.2028  -11.0160 N   0  0  0  0  0  0  0  0  0  0  0  0
   18.0200   62.9822  -10.5628 C   0  0  0  0  0  0  0  0  0  0  0  0
   14.4465   62.5481  -11.2228 C   0  0  0  0  0  0  0  0  0  0  0  0
   22.9235   64.3961   -7.2603 N   0  0  0  0  0  0  0  0  0  0  0  0
   22.9003   63.6857   -8.4705 C   0  0  0  0  0  0  0  0  0  0  0  0
   23.3935   62.5647   -8.6624 O   0  0  0  0  0  0  0  0  0  0  0  0
   22.4537   65.3739   -7.2234 H   0  0  0  0  0  0  0  0  0  0  0  0
   27.0215   61.8284   -5.1266 Br  0  0  0  0  0  0  0  0  0  0  0  0
   25.3717   62.7737   -5.0015 C   0  0  0  0  0  0  0  0  0  0  0  0
   24.7283   63.2476   -6.1207 C   0  0  0  0  0  0  0  0  0  0  0  0
   23.5132   63.9465   -6.0629 C   0  0  0  0  0  0  0  0  0  0  0  0
   22.9877   64.1393   -4.8162 C   0  0  0  0  0  0  0  0  0  0  0  0
   23.6484   63.6536   -3.6852 C   0  0  0  0  0  0  0  0  0  0  0  0
   24.8246   62.9796   -3.7700 C   0  0  0  0  0  0  0  0  0  0  0  0
 19 20  1  0  0  0
 20 21  2  0  0  0
 20 25  1  0  0  0
 21 22  1  0  0  0
 22 23  2  0  0  0
 22 15  1  0  0  0
 23 24  1  0  0  0
 24 25  2  0  0  0
 15 16  1  0  0  0
 16 17  2  0  0  0
 16  1  1  0  0  0
  1  2  1  0  0  0
  1  4  1  0  0  0
  2  3  1  0  0  0
  3  4  1  0  0  0
  3  5  1  0  0  0
  5  6  2  0  0  0
  5 13  1  0  0  0
  6  7  1  0  0  0
  7  8  2  0  0  0
  8  9  1  0  0  0
  9 10  1  0  0  0
  9 13  2  0  0  0
 10 11  1  0  0  0
 10 14  1  0  0  0
 11 12  2  0  0  0
 12 13  1  0  0  0
 15 18  1  0  0  0
M  END
> <minimizedAffinity>
-8.96541

$$$$
200


 21 24  0  0  0  0  0  0  0  0999 V2000
   18.2313   63.1798  -10.2911 C   0  0  0  0  0  0  0  0  0  0  0  0
   18.4020   61.9156   -9.9201 N   0  0  0  0  0  0  0  0  0  0  0  0
   17.4861   60.9406  -10.0454 C   0  0  0  0  0  0  0  0  0  0  0  0
   17.4155   59.6289   -9.7591 N   0  0  0  0  0  0  0  0  0  0  0  0
   16.2645   59.1355  -10.0917 O   0  0  0  0  0  0  0  0  0  0  0  0
   15.5651   60.0899  -10.5948 N   0  0  0  0  0  0  0  0  0  0  0  0
   16.2518   61.2442  -10.6026 C   0  0  0  0  0  0  0  0  0  0  0  0
   16.0318   62.5087  -10.9920 N   0  0  0  0  0  0  0  0  0  0  0  0
   14.9439   63.0387  -11.5453 N   0  0  0  0  0  0  0  0  0  0  0  0
   15.2008   64.3387  -11.7555 N   0  0  0  0  0  0  0  0  0  0  0  0
   16.4407   64.5876  -11.3298 N   0  0  0  0  0  0  0  0  0  0  0  0
   16.9697   63.4584  -10.8521 C   0  0  0  0  0  0  0  0  0  0  0  0
   19.1639   64.2377  -10.1786 N   0  0  0  0  0  0  0  0  0  0  0  0
   18.8365   65.2388  -10.2965 H   0  0  0  0  0  0  0  0  0  0  0  0
   24.1519   63.2225  -11.8689 Br  0  0  0  0  0  0  0  0  0  0  0  0
   22.8628   63.6251  -10.5230 C   0  0  0  0  0  0  0  0  0  0  0  0
   21.5199   63.7821  -10.8250 C   0  0  0  0  0  0  0  0  0  0  0  0
   20.5395   64.0703   -9.9144 C   0  0  0  0  0  0  0  0  0  0  0  0
   21.0035   64.2038   -8.5885 C   0  0  0  0  0  0  0  0  0  0  0  0
   22.3267   64.0550   -8.2534 C   0  0  0  0  0  0  0  0  0  0  0  0
   23.2637   63.7640   -9.2195 C   0  0  0  0  0  0  0  0  0  0  0  0
 15 16  1  0  0  0
 16 17  2  0  0  0
 16 21  1  0  0  0
 17 18  1  0  0  0
 18 19  2  0  0  0
 18 13  1  0  0  0
 19 20  1  0  0  0
 20 21  2  0  0  0
 13  1  1  0  0  0
  1  2  2  0  0  0
  1 12  1  0  0  0
  2  3  1  0  0  0
  3  4  2  0  0  0
  3  7  1  0  0  0
  4  5  1  0  0  0
  5  6  1  0  0  0
  6  7  2  0  0  0
  7  8  1  0  0  0
  8  9  1  0  0  0
  8 12  1  0  0  0
  9 10  2  0  0  0
 10 11  1  0  0  0
 11 12  2  0  0  0
 13 14  1  0  0  0
M  END
> <minimizedAffinity>
-9.47633

$$$$
201


 25 28  0  0  0  0  0  0  0  0999 V2000
   21.7746   64.2352   -8.3084 C   0  0  0  0  0  0  0  0  0  0  0  0
   22.7554   64.8971   -8.7298 O   0  0  0  0  0  0  0  0  0  0  0  0
   21.5645   64.1395   -6.9177 N   0  0  0  0  0  0  0  0  0  0  0  0
   20.7437   63.5848   -6.5861 H   0  0  0  0  0  0  0  0  0  0  0  0
   19.1258   62.7042  -10.2510 N   0  0  0  0  0  0  0  0  0  0  0  0
   20.1269   62.6732  -11.0902 N   0  0  0  0  0  0  0  0  0  0  0  0
   21.2102   63.2021  -10.5449 N   0  0  0  0  0  0  0  0  0  0  0  0
   20.9009   63.5992   -9.2866 C   0  0  0  0  0  0  0  0  0  0  0  0
   19.5739   63.2744   -9.1204 C   0  0  0  0  0  0  0  0  0  0  0  0
   13.9710   63.7552  -11.2145 Br  0  0  0  0  0  0  0  0  0  0  0  0
   15.4317   62.5865  -10.8482 C   0  0  0  0  0  0  0  0  0  0  0  0
   16.7282   63.0864  -10.6875 C   0  0  0  0  0  0  0  0  0  0  0  0
   17.7791   62.2421  -10.4233 C   0  0  0  0  0  0  0  0  0  0  0  0
   17.5154   60.8934  -10.3224 C   0  0  0  0  0  0  0  0  0  0  0  0
   16.2231   60.3810  -10.4807 C   0  0  0  0  0  0  0  0  0  0  0  0
   15.1777   61.2363  -10.7447 C   0  0  0  0  0  0  0  0  0  0  0  0
   22.4079   64.7552   -5.9185 C   0  0  0  0  0  0  0  0  0  0  0  0
   23.5634   63.8613   -5.5593 C   0  0  0  0  0  0  0  0  0  0  0  0
   23.8462   63.2979   -4.3602 N   0  0  0  0  0  0  0  0  0  0  0  0
   24.9629   62.5695   -4.4617 C   0  0  0  0  0  0  0  0  0  0  0  0
   25.3709   62.6916   -5.7476 N   0  0  0  0  0  0  0  0  0  0  0  0
   24.5312   63.4658   -6.4056 N   0  0  0  0  0  0  0  0  0  0  0  0
   25.3118   61.9254   -3.1434 C   0  0  0  0  0  0  0  0  0  0  0  0
   24.4836   62.7604   -2.1898 C   0  0  0  0  0  0  0  0  0  0  0  0
   23.3074   63.2523   -3.0117 C   0  0  0  0  0  0  0  0  0  0  0  0
 10 11  1  0  0  0
 11 12  2  0  0  0
 11 16  1  0  0  0
 12 13  1  0  0  0
 13 14  2  0  0  0
 13  5  1  0  0  0
 14 15  1  0  0  0
 15 16  2  0  0  0
  5  6  1  0  0  0
  5  9  1  0  0  0
  6  7  2  0  0  0
  7  8  1  0  0  0
  8  9  2  0  0  0
  8  1  1  0  0  0
  1  2  2  0  0  0
  1  3  1  0  0  0
  3 17  1  0  0  0
 17 18  1  0  0  0
 18 19  1  0  0  0
 18 22  2  0  0  0
 19 20  1  0  0  0
 19 25  1  0  0  0
 20 21  2  0  0  0
 20 23  1  0  0  0
 21 22  1  0  0  0
 23 24  1  0  0  0
 24 25  1  0  0  0
  3  4  1  0  0  0
M  END
> <minimizedAffinity>
-9.78336

$$$$
205


 25 28  0  0  0  0  0  0  0  0999 V2000
   19.1311   62.5260  -10.7281 N   0  0  0  0  0  0  0  0  0  0  0  0
   20.0457   62.6220  -11.8386 C   0  0  0  0  0  0  0  0  0  0  0  0
   19.9204   61.9610  -12.9080 O   0  0  0  0  0  0  0  0  0  0  0  0
   21.0968   63.5841  -11.5132 C   0  0  0  0  0  0  0  0  0  0  0  0
   22.3620   63.3324  -11.9654 O   0  0  0  0  0  0  0  0  0  0  0  0
   23.1486   63.8434  -10.9356 N   0  0  0  0  0  0  0  0  0  0  0  0
   22.5271   63.5280   -9.7126 C   0  0  0  0  0  0  0  0  0  0  0  0
   21.2364   63.3495  -10.0274 C   0  0  0  0  0  0  0  0  0  0  0  0
   19.8911   62.9865   -9.5971 C   0  0  0  0  0  0  0  0  0  0  0  0
   19.4650   63.0624   -8.4256 O   0  0  0  0  0  0  0  0  0  0  0  0
   24.0301   64.3595  -11.0495 H   0  0  0  0  0  0  0  0  0  0  0  0
   13.9666   63.7637  -11.2187 Br  0  0  0  0  0  0  0  0  0  0  0  0
   15.4062   62.5501  -10.9166 C   0  0  0  0  0  0  0  0  0  0  0  0
   16.7208   62.9426  -10.9271 C   0  0  0  0  0  0  0  0  0  0  0  0
   17.7911   62.0782  -10.7071 C   0  0  0  0  0  0  0  0  0  0  0  0
   17.4479   60.7564  -10.4690 C   0  0  0  0  0  0  0  0  0  0  0  0
   16.1347   60.3522  -10.4571 C   0  0  0  0  0  0  0  0  0  0  0  0
   15.0784   61.2312  -10.6783 C   0  0  0  0  0  0  0  0  0  0  0  0
   23.1019   63.4569   -8.3782 C   0  0  0  0  0  0  0  0  0  0  0  0
   22.7150   64.2624   -7.3030 C   0  0  0  0  0  0  0  0  0  0  0  0
   23.4203   63.9119   -6.2459 N   0  0  0  0  0  0  0  0  0  0  0  0
   24.2388   62.9224   -6.5955 N   0  0  0  0  0  0  0  0  0  0  0  0
   24.0674   62.6315   -7.8739 C   0  0  0  0  0  0  0  0  0  0  0  0
   23.3436   64.4965   -4.9082 C   0  0  0  0  0  0  0  0  0  0  0  0
   21.7063   65.3472   -7.3426 C   0  0  0  0  0  0  0  0  0  0  0  0
 12 13  1  0  0  0
 13 14  2  0  0  0
 13 18  1  0  0  0
 14 15  1  0  0  0
 15 16  2  0  0  0
 15  1  1  0  0  0
 16 17  1  0  0  0
 17 18  2  0  0  0
  1  2  1  0  0  0
  1  9  1  0  0  0
  2  3  2  0  0  0
  2  4  1  0  0  0
  4  5  1  0  0  0
  4  8  1  0  0  0
  5  6  1  0  0  0
  6  7  1  0  0  0
  7  8  2  0  0  0
  7 19  1  0  0  0
  8  9  1  0  0  0
  9 10  2  0  0  0
 19 20  2  0  0  0
 19 23  1  0  0  0
 20 21  1  0  0  0
 20 25  1  0  0  0
 21 22  1  0  0  0
 21 24  1  0  0  0
 22 23  2  0  0  0
  6 11  1  0  0  0
M  END
> <minimizedAffinity>
-9.49693

$$$$
211


 22 25  0  0  0  0  0  0  0  0999 V2000
   22.6113   64.2792   -6.1710 N   0  0  0  0  0  0  0  0  0  0  0  0
   23.0626   64.9718   -7.3261 C   0  0  0  0  0  0  0  0  0  0  0  0
   24.2079   65.5474   -7.4337 O   0  0  0  0  0  0  0  0  0  0  0  0
   22.0153   64.9166   -8.3562 C   0  0  0  0  0  0  0  0  0  0  0  0
   22.2836   63.7365   -9.2382 C   0  0  0  0  0  0  0  0  0  0  0  0
   21.9688   62.6884   -8.3357 O   0  0  0  0  0  0  0  0  0  0  0  0
   20.6117   63.0571   -8.1376 C   0  0  0  0  0  0  0  0  0  0  0  0
   20.7917   64.4675   -7.6075 C   0  0  0  0  0  0  0  0  0  0  0  0
   21.1951   64.3360   -6.1931 C   0  0  0  0  0  0  0  0  0  0  0  0
   20.4149   64.2846   -5.2065 O   0  0  0  0  0  0  0  0  0  0  0  0
   20.1476   63.0801   -9.5435 C   0  0  0  0  0  0  0  0  0  0  0  0
   21.2181   63.4927  -10.2481 C   0  0  0  0  0  0  0  0  0  0  0  0
   27.1284   61.6964   -5.1652 Br  0  0  0  0  0  0  0  0  0  0  0  0
   25.4748   62.4540   -4.5841 C   0  0  0  0  0  0  0  0  0  0  0  0
   24.6568   63.0629   -5.4811 C   0  0  0  0  0  0  0  0  0  0  0  0
   23.4373   63.6436   -5.1680 C   0  0  0  0  0  0  0  0  0  0  0  0
   23.0573   63.5829   -3.8468 C   0  0  0  0  0  0  0  0  0  0  0  0
   23.8759   62.9644   -2.8985 C   0  0  0  0  0  0  0  0  0  0  0  0
   25.0811   62.4002   -3.2612 C   0  0  0  0  0  0  0  0  0  0  0  0
   23.6586   63.6478   -9.7823 C   0  0  0  0  0  0  0  0  0  0  0  0
   23.7705   62.4723  -10.5266 O   0  0  0  0  0  0  0  0  0  0  0  0
   24.5951   61.9851  -10.2769 H   0  0  0  0  0  0  0  0  0  0  0  0
 13 14  1  0  0  0
 14 15  2  0  0  0
 14 19  1  0  0  0
 15 16  1  0  0  0
 16 17  2  0  0  0
 16  1  1  0  0  0
 17 18  1  0  0  0
 18 19  2  0  0  0
  1  2  1  0  0  0
  1  9  1  0  0  0
  2  3  2  0  0  0
  2  4  1  0  0  0
  4  5  1  0  0  0
  4  8  1  0  0  0
  5  6  1  0  0  0
  5 12  1  0  0  0
  5 20  1  0  0  0
  6  7  1  0  0  0
  7  8  1  0  0  0
  7 11  1  0  0  0
  8  9  1  0  0  0
  9 10  2  0  0  0
 11 12  2  0  0  0
 20 21  1  0  0  0
 21 22  1  0  0  0
M  END
> <minimizedAffinity>
-7.30558

$$$$
213


 25 28  0  0  0  0  0  0  0  0999 V2000
   18.8898   62.7579  -10.2490 N   0  0  0  0  0  0  0  0  0  0  0  0
   19.7540   63.2964  -11.2736 C   0  0  0  0  0  0  0  0  0  0  0  0
   19.4314   63.8261  -12.3427 O   0  0  0  0  0  0  0  0  0  0  0  0
   21.1617   63.1061  -10.8182 C   0  0  0  0  0  0  0  0  0  0  0  0
   22.0188   64.1312  -11.1740 O   0  0  0  0  0  0  0  0  0  0  0  0
   22.9174   64.1136  -10.1335 N   0  0  0  0  0  0  0  0  0  0  0  0
   22.0984   63.9872   -8.9573 C   0  0  0  0  0  0  0  0  0  0  0  0
   21.0039   63.3716   -9.3345 C   0  0  0  0  0  0  0  0  0  0  0  0
   19.6806   62.8085   -9.0406 C   0  0  0  0  0  0  0  0  0  0  0  0
   19.3468   62.4483   -7.9068 O   0  0  0  0  0  0  0  0  0  0  0  0
   23.9409   64.1752  -10.1583 H   0  0  0  0  0  0  0  0  0  0  0  0
   13.8572   64.0048  -11.2815 Br  0  0  0  0  0  0  0  0  0  0  0  0
   15.2375   62.7521  -10.8987 C   0  0  0  0  0  0  0  0  0  0  0  0
   16.5550   63.1839  -10.7150 C   0  0  0  0  0  0  0  0  0  0  0  0
   17.5676   62.2943  -10.4363 C   0  0  0  0  0  0  0  0  0  0  0  0
   17.2378   60.9648  -10.3456 C   0  0  0  0  0  0  0  0  0  0  0  0
   15.9181   60.5278  -10.5292 C   0  0  0  0  0  0  0  0  0  0  0  0
   14.9055   61.4205  -10.8082 C   0  0  0  0  0  0  0  0  0  0  0  0
   22.3736   64.4379   -7.6198 C   0  0  0  0  0  0  0  0  0  0  0  0
   23.1229   63.6872   -6.7164 C   0  0  0  0  0  0  0  0  0  0  0  0
   23.2306   64.3580   -5.5553 N   0  0  0  0  0  0  0  0  0  0  0  0
   22.5694   65.4892   -5.7315 N   0  0  0  0  0  0  0  0  0  0  0  0
   22.0370   65.5901   -6.9475 C   0  0  0  0  0  0  0  0  0  0  0  0
   21.2306   66.7223   -7.5166 C   0  0  0  0  0  0  0  0  0  0  0  0
   23.9398   63.9105   -4.3455 C   0  0  0  0  0  0  0  0  0  0  0  0
 12 13  1  0  0  0
 13 14  2  0  0  0
 13 18  1  0  0  0
 14 15  1  0  0  0
 15 16  2  0  0  0
 15  1  1  0  0  0
 16 17  1  0  0  0
 17 18  2  0  0  0
  1  2  1  0  0  0
  1  9  1  0  0  0
  2  3  2  0  0  0
  2  4  1  0  0  0
  4  5  1  0  0  0
  4  8  1  0  0  0
  5  6  1  0  0  0
  6  7  1  0  0  0
  7  8  2  0  0  0
  7 19  1  0  0  0
  8  9  1  0  0  0
  9 10  2  0  0  0
 19 20  2  0  0  0
 19 23  1  0  0  0
 20 21  1  0  0  0
 21 22  1  0  0  0
 21 25  1  0  0  0
 22 23  2  0  0  0
 23 24  1  0  0  0
  6 11  1  0  0  0
M  END
> <minimizedAffinity>
-8.28743

$$$$
216


 28 31  0  0  0  0  0  0  0  0999 V2000
   22.5992   63.8159   -9.3668 C   0  0  0  0  0  0  0  0  0  0  0  0
   23.6527   64.0144  -10.0219 O   0  0  0  0  0  0  0  0  0  0  0  0
   22.5336   64.0456   -7.9762 N   0  0  0  0  0  0  0  0  0  0  0  0
   21.3301   63.8287   -7.1855 C   0  0  0  0  0  0  0  0  0  0  0  0
   21.3563   64.7656   -5.9846 C   0  0  0  0  0  0  0  0  0  0  0  0
   22.1181   65.9740   -6.2316 N   0  0  0  0  0  0  0  0  0  0  0  0
   23.4944   65.6429   -6.3525 C   0  0  0  0  0  0  0  0  0  0  0  0
   23.7498   64.5299   -7.3110 C   0  0  0  0  0  0  0  0  0  0  0  0
   19.4315   63.6488  -11.0504 N   0  0  0  0  0  0  0  0  0  0  0  0
   20.3771   64.4489  -10.2864 C   0  0  0  0  0  0  0  0  0  0  0  0
   21.4289   63.3396  -10.0770 C   0  0  0  0  0  0  0  0  0  0  0  0
   21.6782   63.0350  -11.5584 C   0  0  0  0  0  0  0  0  0  0  0  0
   20.2588   62.9969  -12.0076 C   0  0  0  0  0  0  0  0  0  0  0  0
   19.8524   62.4704  -13.0688 O   0  0  0  0  0  0  0  0  0  0  0  0
   15.1939   60.5712  -10.7523 Br  0  0  0  0  0  0  0  0  0  0  0  0
   16.0067   62.2729  -10.6472 C   0  0  0  0  0  0  0  0  0  0  0  0
   17.3746   62.3875  -10.8681 C   0  0  0  0  0  0  0  0  0  0  0  0
   18.0399   63.5979  -10.8085 C   0  0  0  0  0  0  0  0  0  0  0  0
   17.2616   64.6961  -10.5155 C   0  0  0  0  0  0  0  0  0  0  0  0
   15.9018   64.6551  -10.2861 C   0  0  0  0  0  0  0  0  0  0  0  0
   15.2809   63.4269  -10.3555 C   0  0  0  0  0  0  0  0  0  0  0  0
   21.5487   66.7759   -7.2553 C   0  0  0  0  0  0  0  0  0  0  0  0
   21.2148   68.1808   -6.8226 C   0  0  0  0  0  0  0  0  0  0  0  0
   22.3612   68.9859   -6.5129 N   0  0  0  0  0  0  0  0  0  0  0  0
   23.4881   69.1310   -7.2124 C   0  0  0  0  0  0  0  0  0  0  0  0
   24.3166   69.9767   -6.5626 N   0  0  0  0  0  0  0  0  0  0  0  0
   23.7096   70.3736   -5.4381 C   0  0  0  0  0  0  0  0  0  0  0  0
   22.4856   69.7466   -5.4166 C   0  0  0  0  0  0  0  0  0  0  0  0
 15 16  1  0  0  0
 16 17  2  0  0  0
 16 21  1  0  0  0
 17 18  1  0  0  0
 18 19  2  0  0  0
 18  9  1  0  0  0
 19 20  1  0  0  0
 20 21  2  0  0  0
  9 10  1  0  0  0
  9 13  1  0  0  0
 10 11  1  0  0  0
 11 12  1  0  0  0
 11  1  1  0  0  0
 12 13  1  0  0  0
 13 14  2  0  0  0
  1  2  2  0  0  0
  1  3  1  0  0  0
  3  4  1  0  0  0
  3  8  1  0  0  0
  4  5  1  0  0  0
  5  6  1  0  0  0
  6  7  1  0  0  0
  6 22  1  0  0  0
  7  8  1  0  0  0
 22 23  1  0  0  0
 23 24  1  0  0  0
 24 25  1  0  0  0
 24 28  1  0  0  0
 25 26  2  0  0  0
 26 27  1  0  0  0
 27 28  2  0  0  0
M  END
> <minimizedAffinity>
-7.95643

$$$$
219


 27 30  0  0  0  0  0  0  0  0999 V2000
   22.7836   64.5250   -9.3516 N   0  0  0  0  0  0  0  0  0  0  0  0
   23.3677   63.7282   -8.3287 C   0  0  0  0  0  0  0  0  0  0  0  0
   22.8557   62.5626   -8.1927 O   0  0  0  0  0  0  0  0  0  0  0  0
   23.1645   65.4815   -9.5098 H   0  0  0  0  0  0  0  0  0  0  0  0
   24.4803   64.1523   -7.4542 C   0  0  0  0  0  0  0  0  0  0  0  0
   24.3976   63.6734   -6.1014 N   0  0  0  0  0  0  0  0  0  0  0  0
   23.4207   64.1746   -5.1736 C   0  0  0  0  0  0  0  0  0  0  0  0
   22.7457   65.2306   -5.2620 O   0  0  0  0  0  0  0  0  0  0  0  0
   23.3341   63.2240   -4.0652 C   0  0  0  0  0  0  0  0  0  0  0  0
   24.3266   62.0850   -4.3728 C   0  0  0  0  0  0  0  0  0  0  0  0
   25.1448   61.9045   -3.1432 C   0  0  0  0  0  0  0  0  0  0  0  0
   24.1466   62.3688   -2.0615 C   0  0  0  0  0  0  0  0  0  0  0  0
   23.8908   63.7199   -2.7588 C   0  0  0  0  0  0  0  0  0  0  0  0
   25.3187   64.1291   -2.9830 C   0  0  0  0  0  0  0  0  0  0  0  0
   26.0875   63.0481   -3.0637 C   0  0  0  0  0  0  0  0  0  0  0  0
   25.1805   62.6715   -5.4385 C   0  0  0  0  0  0  0  0  0  0  0  0
   26.3532   62.3755   -5.7259 O   0  0  0  0  0  0  0  0  0  0  0  0
   21.7000   64.0665  -10.1667 C   0  0  0  0  0  0  0  0  0  0  0  0
   20.3657   64.6293   -9.6524 C   0  0  0  0  0  0  0  0  0  0  0  0
   19.3923   63.7947   -9.8212 O   0  0  0  0  0  0  0  0  0  0  0  0
   14.3710   63.5660  -11.1642 Br  0  0  0  0  0  0  0  0  0  0  0  0
   16.0513   62.7944  -10.6873 C   0  0  0  0  0  0  0  0  0  0  0  0
   17.1509   63.5619  -10.4167 C   0  0  0  0  0  0  0  0  0  0  0  0
   18.4001   63.0204  -10.0632 C   0  0  0  0  0  0  0  0  0  0  0  0
   18.4368   61.6124  -10.0065 C   0  0  0  0  0  0  0  0  0  0  0  0
   17.3346   60.8394  -10.2774 C   0  0  0  0  0  0  0  0  0  0  0  0
   16.1346   61.4301  -10.6198 C   0  0  0  0  0  0  0  0  0  0  0  0
 21 22  1  0  0  0
 22 23  2  0  0  0
 22 27  1  0  0  0
 23 24  1  0  0  0
 24 25  2  0  0  0
 24 20  1  0  0  0
 25 26  1  0  0  0
 26 27  2  0  0  0
 20 19  1  0  0  0
 19 18  1  0  0  0
 18  1  1  0  0  0
  1  2  1  0  0  0
  2  3  2  0  0  0
  2  5  1  0  0  0
  5  6  1  0  0  0
  6  7  1  0  0  0
  6 16  1  0  0  0
  7  8  2  0  0  0
  7  9  1  0  0  0
  9 10  1  0  0  0
  9 13  1  0  0  0
 10 11  1  0  0  0
 10 16  1  0  0  0
 11 12  1  0  0  0
 11 15  1  0  0  0
 12 13  1  0  0  0
 13 14  1  0  0  0
 14 15  2  0  0  0
 16 17  2  0  0  0
  1  4  1  0  0  0
M  END
> <minimizedAffinity>
-8.20321

$$$$
226


 30 33  0  0  0  0  0  0  0  0999 V2000
   22.0388   63.3686  -10.1274 N   0  0  0  0  0  0  0  0  0  0  0  0
   22.3910   63.3292  -11.4232 C   0  0  0  0  0  0  0  0  0  0  0  0
   23.6858   63.7894  -11.5687 C   0  0  0  0  0  0  0  0  0  0  0  0
   24.0851   64.0980  -10.3289 N   0  0  0  0  0  0  0  0  0  0  0  0
   23.1092   63.8536   -9.4363 C   0  0  0  0  0  0  0  0  0  0  0  0
   24.2531   63.8372  -12.7877 N   0  0  0  0  0  0  0  0  0  0  0  0
   23.5720   63.4413  -13.8774 C   0  0  0  0  0  0  0  0  0  0  0  0
   24.0631   63.4694  -15.0331 O   0  0  0  0  0  0  0  0  0  0  0  0
   22.2957   62.9851  -13.7483 N   0  0  0  0  0  0  0  0  0  0  0  0
   21.6853   62.9185  -12.5516 C   0  0  0  0  0  0  0  0  0  0  0  0
   20.4890   62.4878  -12.4724 O   0  0  0  0  0  0  0  0  0  0  0  0
   25.6077   64.3153  -12.9735 C   0  0  0  0  0  0  0  0  0  0  0  0
   21.8014   62.6858  -14.6208 H   0  0  0  0  0  0  0  0  0  0  0  0
   23.1230   64.0346   -8.0323 N   0  0  0  0  0  0  0  0  0  0  0  0
   23.8041   63.0812   -7.2174 C   0  0  0  0  0  0  0  0  0  0  0  0
   24.1023   63.4752   -5.8189 C   0  0  0  0  0  0  0  0  0  0  0  0
   23.2438   64.4748   -5.2554 N   0  0  0  0  0  0  0  0  0  0  0  0
   23.1956   65.5943   -6.1756 C   0  0  0  0  0  0  0  0  0  0  0  0
   22.4653   65.1629   -7.4486 C   0  0  0  0  0  0  0  0  0  0  0  0
   21.9417   63.9849   -4.9035 C   0  0  0  0  0  0  0  0  0  0  0  0
   20.7841   62.9712   -9.5539 C   0  0  0  0  0  0  0  0  0  0  0  0
   19.6974   63.9783   -9.7624 C   0  0  0  0  0  0  0  0  0  0  0  0
   19.9267   65.1929   -9.6438 O   0  0  0  0  0  0  0  0  0  0  0  0
   13.9665   62.1645  -11.2472 Br  0  0  0  0  0  0  0  0  0  0  0  0
   15.7171   62.7529  -10.7936 C   0  0  0  0  0  0  0  0  0  0  0  0
   16.7182   61.8294  -10.5299 C   0  0  0  0  0  0  0  0  0  0  0  0
   18.0023   62.2272  -10.1968 C   0  0  0  0  0  0  0  0  0  0  0  0
   18.3429   63.5548  -10.1109 C   0  0  0  0  0  0  0  0  0  0  0  0
   17.3361   64.4659  -10.3761 C   0  0  0  0  0  0  0  0  0  0  0  0
   16.0561   64.0851  -10.7089 C   0  0  0  0  0  0  0  0  0  0  0  0
 24 25  1  0  0  0
 25 26  2  0  0  0
 25 30  1  0  0  0
 26 27  1  0  0  0
 27 28  2  0  0  0
 28 29  1  0  0  0
 28 22  1  0  0  0
 29 30  2  0  0  0
 22 23  2  0  0  0
 22 21  1  0  0  0
 21  1  1  0  0  0
  1  2  1  0  0  0
  1  5  1  0  0  0
  2  3  2  0  0  0
  2 10  1  0  0  0
  3  4  1  0  0  0
  3  6  1  0  0  0
  4  5  2  0  0  0
  5 14  1  0  0  0
 14 15  1  0  0  0
 14 19  1  0  0  0
 15 16  1  0  0  0
 16 17  1  0  0  0
 17 18  1  0  0  0
 17 20  1  0  0  0
 18 19  1  0  0  0
  6  7  1  0  0  0
  6 12  1  0  0  0
  7  8  2  0  0  0
  7  9  1  0  0  0
  9 10  1  0  0  0
 10 11  2  0  0  0
  9 13  1  0  0  0
M  END
> <minimizedAffinity>
-6.53133

$$$$
231


 34 37  0  0  0  0  0  0  0  0999 V2000
   22.5685   64.4541   -9.0878 C   0  0  0  0  0  0  0  0  0  0  0  0
   21.8892   64.1658  -10.4042 C   0  0  0  0  0  0  0  0  0  0  0  0
   22.8941   63.3985  -11.1036 N   0  0  0  0  0  0  0  0  0  0  0  0
   23.5723   62.6315  -10.1139 C   0  0  0  0  0  0  0  0  0  0  0  0
   24.4292   61.7216  -10.3378 O   0  0  0  0  0  0  0  0  0  0  0  0
   23.1051   63.0760   -8.7866 C   0  0  0  0  0  0  0  0  0  0  0  0
   23.1585   62.4472   -7.7178 O   0  0  0  0  0  0  0  0  0  0  0  0
   20.6008   63.5010  -10.2850 C   0  0  0  0  0  0  0  0  0  0  0  0
   19.4100   64.1039  -10.7149 C   0  0  0  0  0  0  0  0  0  0  0  0
   18.1923   63.4655  -10.6025 C   0  0  0  0  0  0  0  0  0  0  0  0
   18.0994   62.1973  -10.0596 C   0  0  0  0  0  0  0  0  0  0  0  0
   19.2582   61.5854   -9.6314 C   0  0  0  0  0  0  0  0  0  0  0  0
   20.4740   62.2402   -9.7503 C   0  0  0  0  0  0  0  0  0  0  0  0
   16.8861   61.5323   -9.9344 O   0  0  0  0  0  0  0  0  0  0  0  0
   17.0135   64.0551  -11.0242 O   0  0  0  0  0  0  0  0  0  0  0  0
   16.2018   64.8500  -10.1980 C   0  0  0  0  0  0  0  0  0  0  0  0
   21.6966   64.9459   -8.0371 C   0  0  0  0  0  0  0  0  0  0  0  0
   20.7331   64.2675   -7.6251 O   0  0  0  0  0  0  0  0  0  0  0  0
   22.7914   70.4103   -5.4746 Br  0  0  0  0  0  0  0  0  0  0  0  0
   22.4326   68.7290   -6.2782 C   0  0  0  0  0  0  0  0  0  0  0  0
   23.3450   67.7126   -6.1261 C   0  0  0  0  0  0  0  0  0  0  0  0
   23.0985   66.4933   -6.7015 C   0  0  0  0  0  0  0  0  0  0  0  0
   21.9372   66.2484   -7.4434 C   0  0  0  0  0  0  0  0  0  0  0  0
   21.0625   67.3098   -7.5581 C   0  0  0  0  0  0  0  0  0  0  0  0
   21.2774   68.5530   -6.9925 C   0  0  0  0  0  0  0  0  0  0  0  0
   23.2152   63.3560  -12.5083 C   0  0  0  0  0  0  0  0  0  0  0  0
   24.6847   63.2559  -12.7843 C   0  0  0  0  0  0  0  0  0  0  0  0
   25.2241   64.2777  -13.5956 N   0  0  0  0  0  0  0  0  0  0  0  0
   24.5395   64.2380  -14.8921 C   0  0  0  0  0  0  0  0  0  0  0  0
   24.9157   63.0417  -15.7021 C   0  0  0  0  0  0  0  0  0  0  0  0
   26.0299   62.3723  -15.2585 O   0  0  0  0  0  0  0  0  0  0  0  0
   27.0308   63.2452  -14.9101 C   0  0  0  0  0  0  0  0  0  0  0  0
   26.6206   64.2265  -13.8456 C   0  0  0  0  0  0  0  0  0  0  0  0
   24.9967   65.2343  -13.2050 H   0  0  0  0  0  0  0  0  0  0  0  0
 19 20  1  0  0  0
 20 21  2  0  0  0
 20 25  1  0  0  0
 21 22  1  0  0  0
 22 23  2  0  0  0
 23 24  1  0  0  0
 23 17  1  0  0  0
 24 25  2  0  0  0
 17 18  2  0  0  0
 17  1  1  0  0  0
  1  2  1  0  0  0
  1  6  1  0  0  0
  2  3  1  0  0  0
  2  8  1  0  0  0
  3  4  1  0  0  0
  3 26  1  0  0  0
  4  5  2  0  0  0
  4  6  1  0  0  0
  6  7  2  0  0  0
 26 27  1  0  0  0
 27 28  1  0  0  0
 28 29  1  0  0  0
 28 33  1  0  0  0
 29 30  1  0  0  0
 30 31  1  0  0  0
 31 32  1  0  0  0
 32 33  1  0  0  0
  8  9  2  0  0  0
  8 13  1  0  0  0
  9 10  1  0  0  0
 10 11  2  0  0  0
 10 15  1  0  0  0
 11 12  1  0  0  0
 11 14  1  0  0  0
 12 13  2  0  0  0
 15 16  1  0  0  0
 28 34  1  0  0  0
M  CHG 1  14  -1
M  CHG 1  28   1
M  END
> <minimizedAffinity>
-6.27288

$$$$
235


 25 28  0  0  0  0  0  0  0  0999 V2000
   11.6160   64.4983  -13.2191 C   0  0  0  0  0  0  0  0  0  0  0  0
   10.8403   65.4845  -13.9547 N   0  0  0  0  0  0  0  0  0  0  0  0
   11.0754   66.6869  -14.5894 N   0  0  0  0  0  0  0  0  0  0  0  0
   10.1894   67.3122  -15.2814 C   0  0  0  0  0  0  0  0  0  0  0  0
    8.8618   66.7574  -15.4115 C   0  0  0  0  0  0  0  0  0  0  0  0
    8.5528   65.6302  -14.8137 C   0  0  0  0  0  0  0  0  0  0  0  0
    9.5026   64.8994  -13.9958 C   0  0  0  0  0  0  0  0  0  0  0  0
    9.8089   63.5078  -14.4233 C   0  0  0  0  0  0  0  0  0  0  0  0
   11.2510   63.2408  -13.9770 C   0  0  0  0  0  0  0  0  0  0  0  0
   11.9871   63.0942  -15.2308 C   0  0  0  0  0  0  0  0  0  0  0  0
   13.2430   63.1256  -15.3519 O   0  0  0  0  0  0  0  0  0  0  0  0
   11.0632   62.9132  -16.2862 N   0  0  0  0  0  0  0  0  0  0  0  0
    9.7600   63.3076  -15.8767 C   0  0  0  0  0  0  0  0  0  0  0  0
    8.7533   63.4587  -16.6106 O   0  0  0  0  0  0  0  0  0  0  0  0
   13.0532   64.7998  -13.2693 C   0  0  0  0  0  0  0  0  0  0  0  0
   13.4188   65.6785  -14.1162 O   0  0  0  0  0  0  0  0  0  0  0  0
   17.4492   62.2589   -9.7571 Br  0  0  0  0  0  0  0  0  0  0  0  0
   16.0986   63.0606  -10.8424 C   0  0  0  0  0  0  0  0  0  0  0  0
   14.9734   62.3588  -11.2162 C   0  0  0  0  0  0  0  0  0  0  0  0
   13.9737   62.8933  -11.9968 C   0  0  0  0  0  0  0  0  0  0  0  0
   14.0683   64.1861  -12.4434 C   0  0  0  0  0  0  0  0  0  0  0  0
   15.1957   64.9022  -12.0737 C   0  0  0  0  0  0  0  0  0  0  0  0
   16.1900   64.3594  -11.2929 C   0  0  0  0  0  0  0  0  0  0  0  0
   11.3729   62.4013  -17.6006 C   0  0  0  0  0  0  0  0  0  0  0  0
   11.6769   60.9341  -17.6159 C   0  0  0  0  0  0  0  0  0  0  0  0
 17 18  1  0  0  0
 18 19  2  0  0  0
 18 23  1  0  0  0
 19 20  1  0  0  0
 20 21  2  0  0  0
 21 22  1  0  0  0
 21 15  1  0  0  0
 22 23  2  0  0  0
 15 16  2  0  0  0
 15  1  1  0  0  0
  1  2  1  0  0  0
  1  9  1  0  0  0
  2  3  1  0  0  0
  2  7  1  0  0  0
  3  4  2  0  0  0
  4  5  1  0  0  0
  5  6  2  0  0  0
  6  7  1  0  0  0
  7  8  1  0  0  0
  8  9  1  0  0  0
  8 13  1  0  0  0
  9 10  1  0  0  0
 10 11  2  0  0  0
 10 12  1  0  0  0
 12 13  1  0  0  0
 12 24  1  0  0  0
 13 14  2  0  0  0
 24 25  1  0  0  0
M  END
> <minimizedAffinity>
-5.12428

$$$$
243


 30 33  0  0  0  0  0  0  0  0999 V2000
   21.1691   64.1230  -10.3789 C   0  0  0  0  0  0  0  0  0  0  0  0
   21.0471   65.2824   -9.4206 C   0  0  0  0  0  0  0  0  0  0  0  0
   21.6208   64.7879   -8.1873 N   0  0  0  0  0  0  0  0  0  0  0  0
   21.6650   63.3353   -8.2076 C   0  0  0  0  0  0  0  0  0  0  0  0
   21.2121   62.8710   -9.5474 C   0  0  0  0  0  0  0  0  0  0  0  0
   23.0639   62.9646   -7.8948 C   0  0  0  0  0  0  0  0  0  0  0  0
   23.6539   62.1297   -8.6158 O   0  0  0  0  0  0  0  0  0  0  0  0
   23.6834   63.5781   -6.7791 N   0  0  0  0  0  0  0  0  0  0  0  0
   23.2046   64.7946   -6.1639 C   0  0  0  0  0  0  0  0  0  0  0  0
   22.1301   65.3935   -7.0063 C   0  0  0  0  0  0  0  0  0  0  0  0
   21.6173   66.5215   -6.6723 O   0  0  0  0  0  0  0  0  0  0  0  0
   24.5403   63.0948   -6.4009 H   0  0  0  0  0  0  0  0  0  0  0  0
   22.5018   63.4519  -12.3461 C   0  0  0  0  0  0  0  0  0  0  0  0
   21.5444   62.7172  -12.7652 O   0  0  0  0  0  0  0  0  0  0  0  0
   22.3777   64.1804  -11.1603 N   0  0  0  0  0  0  0  0  0  0  0  0
   23.1542   64.7740  -10.8240 H   0  0  0  0  0  0  0  0  0  0  0  0
   27.6186   63.5220  -15.8532 Br  0  0  0  0  0  0  0  0  0  0  0  0
   26.0329   63.5010  -14.8065 C   0  0  0  0  0  0  0  0  0  0  0  0
   24.7654   63.5311  -15.3516 C   0  0  0  0  0  0  0  0  0  0  0  0
   23.6334   63.5146  -14.5626 C   0  0  0  0  0  0  0  0  0  0  0  0
   23.7080   63.4687  -13.1859 C   0  0  0  0  0  0  0  0  0  0  0  0
   24.9716   63.4390  -12.6426 C   0  0  0  0  0  0  0  0  0  0  0  0
   26.1056   63.4546  -13.4188 C   0  0  0  0  0  0  0  0  0  0  0  0
   22.7544   64.5502   -4.7439 C   0  0  0  0  0  0  0  0  0  0  0  0
   23.7037   63.6607   -4.0170 C   0  0  0  0  0  0  0  0  0  0  0  0
   23.3268   63.0493   -2.8206 C   0  0  0  0  0  0  0  0  0  0  0  0
   24.2447   62.2371   -2.1923 C   0  0  0  0  0  0  0  0  0  0  0  0
   25.5133   62.0032   -2.6937 C   0  0  0  0  0  0  0  0  0  0  0  0
   25.8385   62.6275   -3.8753 C   0  0  0  0  0  0  0  0  0  0  0  0
   24.9633   63.4509   -4.5483 C   0  0  0  0  0  0  0  0  0  0  0  0
 17 18  1  0  0  0
 18 19  2  0  0  0
 18 23  1  0  0  0
 19 20  1  0  0  0
 20 21  2  0  0  0
 21 22  1  0  0  0
 21 13  1  0  0  0
 22 23  2  0  0  0
 13 14  2  0  0  0
 13 15  1  0  0  0
 15  1  1  0  0  0
  1  2  1  0  0  0
  1  5  1  0  0  0
  2  3  1  0  0  0
  3  4  1  0  0  0
  3 10  1  0  0  0
  4  5  1  0  0  0
  4  6  1  0  0  0
  6  7  2  0  0  0
  6  8  1  0  0  0
  8  9  1  0  0  0
  9 10  1  0  0  0
  9 24  1  0  0  0
 10 11  2  0  0  0
 24 25  1  0  0  0
 25 26  2  0  0  0
 25 30  1  0  0  0
 26 27  1  0  0  0
 27 28  2  0  0  0
 28 29  1  0  0  0
 29 30  2  0  0  0
 15 16  1  0  0  0
  8 12  1  0  0  0
M  END
> <minimizedAffinity>
-7.92355

$$$$
244


 25 28  0  0  0  0  0  0  0  0999 V2000
   20.9904   64.1449  -10.2984 C   0  0  0  0  0  0  0  0  0  0  0  0
   20.8250   65.2856   -9.3214 C   0  0  0  0  0  0  0  0  0  0  0  0
   21.5075   64.8002   -8.1351 N   0  0  0  0  0  0  0  0  0  0  0  0
   21.4874   63.3506   -8.1374 C   0  0  0  0  0  0  0  0  0  0  0  0
   20.9540   62.8949   -9.4538 C   0  0  0  0  0  0  0  0  0  0  0  0
   22.8828   62.9075   -7.8890 C   0  0  0  0  0  0  0  0  0  0  0  0
   23.4517   62.0051   -8.5466 O   0  0  0  0  0  0  0  0  0  0  0  0
   23.6377   63.5193   -6.8595 N   0  0  0  0  0  0  0  0  0  0  0  0
   23.3846   64.8726   -6.4099 C   0  0  0  0  0  0  0  0  0  0  0  0
   23.2969   64.6669   -4.9310 C   0  0  0  0  0  0  0  0  0  0  0  0
   24.4389   63.6715   -4.6934 C   0  0  0  0  0  0  0  0  0  0  0  0
   24.7295   63.0405   -6.0586 C   0  0  0  0  0  0  0  0  0  0  0  0
   22.1539   65.4225   -7.0318 C   0  0  0  0  0  0  0  0  0  0  0  0
   21.6373   66.4984   -6.5733 O   0  0  0  0  0  0  0  0  0  0  0  0
   22.3672   63.4753  -12.2229 C   0  0  0  0  0  0  0  0  0  0  0  0
   21.3948   62.8410  -12.6824 O   0  0  0  0  0  0  0  0  0  0  0  0
   22.2338   64.1740  -10.9961 N   0  0  0  0  0  0  0  0  0  0  0  0
   23.0264   64.7196  -10.5732 H   0  0  0  0  0  0  0  0  0  0  0  0
   27.5830   63.5144  -15.5476 Br  0  0  0  0  0  0  0  0  0  0  0  0
   26.0161   63.4987  -14.4764 C   0  0  0  0  0  0  0  0  0  0  0  0
   24.7718   63.5711  -15.0788 C   0  0  0  0  0  0  0  0  0  0  0  0
   23.6039   63.5638  -14.3486 C   0  0  0  0  0  0  0  0  0  0  0  0
   23.6378   63.4809  -12.9742 C   0  0  0  0  0  0  0  0  0  0  0  0
   24.8591   63.4092  -12.3750 C   0  0  0  0  0  0  0  0  0  0  0  0
   26.0504   63.4160  -13.0971 C   0  0  0  0  0  0  0  0  0  0  0  0
 19 20  1  0  0  0
 20 21  2  0  0  0
 20 25  1  0  0  0
 21 22  1  0  0  0
 22 23  2  0  0  0
 23 24  1  0  0  0
 23 15  1  0  0  0
 24 25  2  0  0  0
 15 16  2  0  0  0
 15 17  1  0  0  0
 17  1  1  0  0  0
  1  2  1  0  0  0
  1  5  1  0  0  0
  2  3  1  0  0  0
  3  4  1  0  0  0
  3 13  1  0  0  0
  4  5  1  0  0  0
  4  6  1  0  0  0
  6  7  2  0  0  0
  6  8  1  0  0  0
  8  9  1  0  0  0
  8 12  1  0  0  0
  9 10  1  0  0  0
  9 13  1  0  0  0
 10 11  1  0  0  0
 11 12  1  0  0  0
 13 14  2  0  0  0
 17 18  1  0  0  0
M  END
> <minimizedAffinity>
-7.66804

$$$$
247


 23 26  0  0  0  0  0  0  0  0999 V2000
   21.4324   64.8498   -8.9608 N   0  0  0  0  0  0  0  0  0  0  0  0
   21.8716   65.7350   -7.9370 C   0  0  0  0  0  0  0  0  0  0  0  0
   21.0795   66.5848   -7.4039 O   0  0  0  0  0  0  0  0  0  0  0  0
   23.3070   65.5059   -7.6279 C   0  0  0  0  0  0  0  0  0  0  0  0
   23.6162   64.2796   -8.4650 C   0  0  0  0  0  0  0  0  0  0  0  0
   23.5108   63.1910   -7.4187 C   0  0  0  0  0  0  0  0  0  0  0  0
   24.4262   63.8459   -6.3631 C   0  0  0  0  0  0  0  0  0  0  0  0
   23.4953   65.0628   -6.2044 C   0  0  0  0  0  0  0  0  0  0  0  0
   22.2432   64.3104   -5.8375 C   0  0  0  0  0  0  0  0  0  0  0  0
   22.2230   63.2814   -6.6761 C   0  0  0  0  0  0  0  0  0  0  0  0
   22.5599   64.1798   -9.4876 C   0  0  0  0  0  0  0  0  0  0  0  0
   22.6676   63.6090  -10.5944 O   0  0  0  0  0  0  0  0  0  0  0  0
   19.5555   63.3199   -9.4403 C   0  0  0  0  0  0  0  0  0  0  0  0
   20.2038   62.3083   -9.0173 O   0  0  0  0  0  0  0  0  0  0  0  0
   20.1157   64.6150   -9.4355 N   0  0  0  0  0  0  0  0  0  0  0  0
   19.5619   65.4209   -9.7773 H   0  0  0  0  0  0  0  0  0  0  0  0
   13.9043   62.1825  -11.5659 Br  0  0  0  0  0  0  0  0  0  0  0  0
   15.6551   62.5642  -10.8977 C   0  0  0  0  0  0  0  0  0  0  0  0
   16.5305   61.5424  -10.6714 C   0  0  0  0  0  0  0  0  0  0  0  0
   17.7985   61.7994  -10.1924 C   0  0  0  0  0  0  0  0  0  0  0  0
   18.2153   63.1005   -9.9286 C   0  0  0  0  0  0  0  0  0  0  0  0
   17.3192   64.1180  -10.1629 C   0  0  0  0  0  0  0  0  0  0  0  0
   16.0569   63.8741  -10.6384 C   0  0  0  0  0  0  0  0  0  0  0  0
 17 18  1  0  0  0
 18 19  2  0  0  0
 18 23  1  0  0  0
 19 20  1  0  0  0
 20 21  2  0  0  0
 21 22  1  0  0  0
 21 13  1  0  0  0
 22 23  2  0  0  0
 13 14  2  0  0  0
 13 15  1  0  0  0
 15  1  1  0  0  0
  1  2  1  0  0  0
  1 11  1  0  0  0
  2  3  2  0  0  0
  2  4  1  0  0  0
  4  5  1  0  0  0
  4  8  1  0  0  0
  5  6  1  0  0  0
  5 11  1  0  0  0
  6  7  1  0  0  0
  6 10  1  0  0  0
  7  8  1  0  0  0
  8  9  1  0  0  0
  9 10  2  0  0  0
 11 12  2  0  0  0
 15 16  1  0  0  0
M  END
> <minimizedAffinity>
-7.13017

$$$$
257


 31 34  0  0  0  0  0  0  0  0999 V2000
   20.0777   63.4564   -9.3295 C   0  0  0  0  0  0  0  0  0  0  0  0
   20.9459   63.6972  -10.2778 C   0  0  0  0  0  0  0  0  0  0  0  0
   22.3128   64.2988  -10.1606 C   0  0  0  0  0  0  0  0  0  0  0  0
   23.0478   63.4983  -11.1329 N   0  0  0  0  0  0  0  0  0  0  0  0
   22.1296   63.3429  -12.2333 C   0  0  0  0  0  0  0  0  0  0  0  0
   22.4714   63.1388  -13.4096 O   0  0  0  0  0  0  0  0  0  0  0  0
   20.7632   63.4696  -11.7033 C   0  0  0  0  0  0  0  0  0  0  0  0
   19.6771   63.4007  -12.3363 O   0  0  0  0  0  0  0  0  0  0  0  0
   20.4169   63.7898   -8.0035 O   0  0  0  0  0  0  0  0  0  0  0  0
   14.6835   60.7944  -10.7949 Br  0  0  0  0  0  0  0  0  0  0  0  0
   16.3498   61.5952  -10.3336 C   0  0  0  0  0  0  0  0  0  0  0  0
   17.4929   60.8666  -10.0834 C   0  0  0  0  0  0  0  0  0  0  0  0
   18.6897   61.4628   -9.7506 C   0  0  0  0  0  0  0  0  0  0  0  0
   18.7946   62.8562   -9.6516 C   0  0  0  0  0  0  0  0  0  0  0  0
   17.6426   63.5697   -9.9048 C   0  0  0  0  0  0  0  0  0  0  0  0
   16.4315   62.9682  -10.2409 C   0  0  0  0  0  0  0  0  0  0  0  0
   22.8344   64.1555   -8.7791 C   0  0  0  0  0  0  0  0  0  0  0  0
   23.2904   62.9505   -8.4012 N   0  0  0  0  0  0  0  0  0  0  0  0
   23.7927   62.7048   -7.1889 C   0  0  0  0  0  0  0  0  0  0  0  0
   23.8415   63.7416   -6.2865 C   0  0  0  0  0  0  0  0  0  0  0  0
   23.3856   64.9924   -6.6304 C   0  0  0  0  0  0  0  0  0  0  0  0
   22.8795   65.1922   -7.8889 C   0  0  0  0  0  0  0  0  0  0  0  0
   24.3862   62.9983  -11.0108 C   0  0  0  0  0  0  0  0  0  0  0  0
   24.9604   62.5686  -12.3518 C   0  0  0  0  0  0  0  0  0  0  0  0
   25.6673   63.7790  -12.9614 C   0  0  0  0  0  0  0  0  0  0  0  0
   25.9911   63.5614  -14.3580 N   0  0  0  0  0  0  0  0  0  0  0  0
   27.2209   63.5338  -14.9228 C   0  0  0  0  0  0  0  0  0  0  0  0
   27.0898   63.3035  -16.2402 N   0  0  0  0  0  0  0  0  0  0  0  0
   25.7902   63.1797  -16.5479 C   0  0  0  0  0  0  0  0  0  0  0  0
   25.1183   63.3447  -15.3535 C   0  0  0  0  0  0  0  0  0  0  0  0
   27.8761   63.2271  -16.9451 H   0  0  0  0  0  0  0  0  0  0  0  0
 10 11  1  0  0  0
 11 12  2  0  0  0
 11 16  1  0  0  0
 12 13  1  0  0  0
 13 14  2  0  0  0
 14 15  1  0  0  0
 14  1  1  0  0  0
 15 16  2  0  0  0
  1  2  2  0  0  0
  1  9  1  0  0  0
  2  3  1  0  0  0
  2  7  1  0  0  0
  3  4  1  0  0  0
  3 17  1  0  0  0
  4  5  1  0  0  0
  4 23  1  0  0  0
  5  6  2  0  0  0
  5  7  1  0  0  0
  7  8  2  0  0  0
 23 24  1  0  0  0
 24 25  1  0  0  0
 25 26  1  0  0  0
 26 27  1  0  0  0
 26 30  1  0  0  0
 27 28  2  0  0  0
 28 29  1  0  0  0
 29 30  2  0  0  0
 17 18  2  0  0  0
 17 22  1  0  0  0
 18 19  1  0  0  0
 19 20  2  0  0  0
 20 21  1  0  0  0
 21 22  2  0  0  0
 28 31  1  0  0  0
M  CHG 1   9  -1
M  END
> <minimizedAffinity>
-8.53858

$$$$
263


 34 37  0  0  0  0  0  0  0  0999 V2000
   20.0764   63.2450   -9.6754 C   0  0  0  0  0  0  0  0  0  0  0  0
   20.8993   63.4720  -10.6649 C   0  0  0  0  0  0  0  0  0  0  0  0
   22.2834   64.0613  -10.5810 C   0  0  0  0  0  0  0  0  0  0  0  0
   22.9765   63.4238  -11.6471 N   0  0  0  0  0  0  0  0  0  0  0  0
   21.9978   63.1252  -12.6719 C   0  0  0  0  0  0  0  0  0  0  0  0
   22.2127   62.8828  -13.8838 O   0  0  0  0  0  0  0  0  0  0  0  0
   20.6755   63.1523  -12.0564 C   0  0  0  0  0  0  0  0  0  0  0  0
   19.5742   62.9293  -12.6635 O   0  0  0  0  0  0  0  0  0  0  0  0
   20.5018   63.5695   -8.3678 O   0  0  0  0  0  0  0  0  0  0  0  0
   14.4145   61.2572  -10.8487 Br  0  0  0  0  0  0  0  0  0  0  0  0
   16.2128   61.8170  -10.4592 C   0  0  0  0  0  0  0  0  0  0  0  0
   16.4669   63.1692  -10.4164 C   0  0  0  0  0  0  0  0  0  0  0  0
   17.7367   63.5920  -10.1414 C   0  0  0  0  0  0  0  0  0  0  0  0
   18.7597   62.6746   -9.9071 C   0  0  0  0  0  0  0  0  0  0  0  0
   18.4975   61.3449   -9.9526 C   0  0  0  0  0  0  0  0  0  0  0  0
   17.2202   60.9043  -10.2290 C   0  0  0  0  0  0  0  0  0  0  0  0
   22.8338   63.9408   -9.2370 C   0  0  0  0  0  0  0  0  0  0  0  0
   22.7234   64.8692   -8.2371 C   0  0  0  0  0  0  0  0  0  0  0  0
   23.2635   64.6756   -6.9925 C   0  0  0  0  0  0  0  0  0  0  0  0
   23.9420   63.5175   -6.7254 C   0  0  0  0  0  0  0  0  0  0  0  0
   24.0879   62.5363   -7.7012 C   0  0  0  0  0  0  0  0  0  0  0  0
   23.5351   62.7622   -8.9353 C   0  0  0  0  0  0  0  0  0  0  0  0
   23.1108   65.6741   -6.0102 N   0  0  0  0  0  0  0  0  0  0  0  0
   22.6826   65.4204   -4.8551 O   0  0  0  0  0  0  0  0  0  0  0  0
   23.4440   66.9694   -6.3342 O   0  0  0  0  0  0  0  0  0  0  0  0
   24.3714   63.0996  -11.8810 C   0  0  0  0  0  0  0  0  0  0  0  0
   25.1074   64.0356  -12.7843 C   0  0  0  0  0  0  0  0  0  0  0  0
   25.5620   63.3983  -14.0094 N   0  0  0  0  0  0  0  0  0  0  0  0
   26.9021   63.8698  -14.3734 C   0  0  0  0  0  0  0  0  0  0  0  0
   27.3108   63.0064  -15.5747 C   0  0  0  0  0  0  0  0  0  0  0  0
   26.4515   63.1489  -16.6365 O   0  0  0  0  0  0  0  0  0  0  0  0
   25.1167   62.9535  -16.3179 C   0  0  0  0  0  0  0  0  0  0  0  0
   24.6986   63.7520  -15.1079 C   0  0  0  0  0  0  0  0  0  0  0  0
   25.6324   62.3791  -13.9544 H   0  0  0  0  0  0  0  0  0  0  0  0
 10 11  1  0  0  0
 11 12  2  0  0  0
 11 16  1  0  0  0
 12 13  1  0  0  0
 13 14  2  0  0  0
 14 15  1  0  0  0
 14  1  1  0  0  0
 15 16  2  0  0  0
  1  2  2  0  0  0
  1  9  1  0  0  0
  2  3  1  0  0  0
  2  7  1  0  0  0
  3  4  1  0  0  0
  3 17  1  0  0  0
  4  5  1  0  0  0
  4 26  1  0  0  0
  5  6  2  0  0  0
  5  7  1  0  0  0
  7  8  2  0  0  0
 26 27  1  0  0  0
 27 28  1  0  0  0
 28 29  1  0  0  0
 28 33  1  0  0  0
 29 30  1  0  0  0
 30 31  1  0  0  0
 31 32  1  0  0  0
 32 33  1  0  0  0
 17 18  2  0  0  0
 17 22  1  0  0  0
 18 19  1  0  0  0
 19 20  2  0  0  0
 19 23  1  0  0  0
 20 21  1  0  0  0
 21 22  2  0  0  0
 23 24  2  0  0  0
 23 25  1  0  0  0
 28 34  1  0  0  0
M  CHG 1   9  -1
M  CHG 1  25  -1
M  CHG 1  28   1
M  END
> <minimizedAffinity>
-8.88160

$$$$
265


 35 38  0  0  0  0  0  0  0  0999 V2000
   19.8599   62.5099  -10.3982 C   0  0  0  0  0  0  0  0  0  0  0  0
   20.6191   63.2183   -9.5918 C   0  0  0  0  0  0  0  0  0  0  0  0
   22.0463   62.9061   -9.2205 C   0  0  0  0  0  0  0  0  0  0  0  0
   22.4301   63.8896   -8.2683 N   0  0  0  0  0  0  0  0  0  0  0  0
   21.4008   64.8877   -8.1070 C   0  0  0  0  0  0  0  0  0  0  0  0
   21.4201   65.9160   -7.4164 O   0  0  0  0  0  0  0  0  0  0  0  0
   20.2589   64.4599   -8.9471 C   0  0  0  0  0  0  0  0  0  0  0  0
   19.1628   65.0971   -9.0638 O   0  0  0  0  0  0  0  0  0  0  0  0
   20.4662   61.3608  -10.9569 O   0  0  0  0  0  0  0  0  0  0  0  0
   13.9091   63.8254  -11.5674 Br  0  0  0  0  0  0  0  0  0  0  0  0
   15.7554   63.4517  -11.2343 C   0  0  0  0  0  0  0  0  0  0  0  0
   16.1095   62.2999  -10.5650 C   0  0  0  0  0  0  0  0  0  0  0  0
   17.4349   62.0126  -10.3183 C   0  0  0  0  0  0  0  0  0  0  0  0
   18.4825   62.8508  -10.7215 C   0  0  0  0  0  0  0  0  0  0  0  0
   18.1100   63.9949  -11.3868 C   0  0  0  0  0  0  0  0  0  0  0  0
   16.7646   64.2915  -11.6404 C   0  0  0  0  0  0  0  0  0  0  0  0
   22.8055   63.0538  -10.5003 C   0  0  0  0  0  0  0  0  0  0  0  0
   24.1369   62.7801  -10.4932 C   0  0  0  0  0  0  0  0  0  0  0  0
   24.8871   62.9047  -11.6444 C   0  0  0  0  0  0  0  0  0  0  0  0
   24.2898   63.3071  -12.8082 C   0  0  0  0  0  0  0  0  0  0  0  0
   22.9468   63.5815  -12.8132 C   0  0  0  0  0  0  0  0  0  0  0  0
   22.1882   63.4582  -11.6606 C   0  0  0  0  0  0  0  0  0  0  0  0
   25.0761   63.4465  -14.0362 C   0  0  0  0  0  0  0  0  0  0  0  0
   24.4842   63.5668  -15.1391 O   0  0  0  0  0  0  0  0  0  0  0  0
   26.4440   63.4517  -14.0514 O   0  0  0  0  0  0  0  0  0  0  0  0
   27.1996   63.4105  -15.2412 C   0  0  0  0  0  0  0  0  0  0  0  0
   23.6580   63.9700   -7.5238 C   0  0  0  0  0  0  0  0  0  0  0  0
   23.5055   64.2791   -6.0742 C   0  0  0  0  0  0  0  0  0  0  0  0
   24.5932   63.8647   -5.2394 N   0  0  0  0  0  0  0  0  0  0  0  0
   25.2938   62.6925   -5.7223 C   0  0  0  0  0  0  0  0  0  0  0  0
   26.5155   62.5105   -4.8454 C   0  0  0  0  0  0  0  0  0  0  0  0
   26.0207   62.1551   -3.5678 O   0  0  0  0  0  0  0  0  0  0  0  0
   25.3937   63.3022   -3.0732 C   0  0  0  0  0  0  0  0  0  0  0  0
   24.1253   63.5177   -3.8829 C   0  0  0  0  0  0  0  0  0  0  0  0
   25.2724   64.6507   -5.0571 H   0  0  0  0  0  0  0  0  0  0  0  0
 10 11  1  0  0  0
 11 12  2  0  0  0
 11 16  1  0  0  0
 12 13  1  0  0  0
 13 14  2  0  0  0
 14 15  1  0  0  0
 14  1  1  0  0  0
 15 16  2  0  0  0
  1  2  2  0  0  0
  1  9  1  0  0  0
  2  3  1  0  0  0
  2  7  1  0  0  0
  3  4  1  0  0  0
  3 17  1  0  0  0
  4  5  1  0  0  0
  4 27  1  0  0  0
  5  6  2  0  0  0
  5  7  1  0  0  0
  7  8  2  0  0  0
 27 28  1  0  0  0
 28 29  1  0  0  0
 29 30  1  0  0  0
 29 34  1  0  0  0
 30 31  1  0  0  0
 31 32  1  0  0  0
 32 33  1  0  0  0
 33 34  1  0  0  0
 17 18  2  0  0  0
 17 22  1  0  0  0
 18 19  1  0  0  0
 19 20  2  0  0  0
 20 21  1  0  0  0
 20 23  1  0  0  0
 21 22  2  0  0  0
 23 24  2  0  0  0
 23 25  1  0  0  0
 25 26  1  0  0  0
 29 35  1  0  0  0
M  CHG 1   9  -1
M  CHG 1  29   1
M  END
> <minimizedAffinity>
-8.13050

$$$$
274


 31 34  0  0  0  0  0  0  0  0999 V2000
   19.7008   63.3515   -7.9225 C   0  0  0  0  0  0  0  0  0  0  0  0
   20.8897   63.7894   -8.2890 C   0  0  0  0  0  0  0  0  0  0  0  0
   22.0255   64.2846   -7.4597 C   0  0  0  0  0  0  0  0  0  0  0  0
   23.2051   63.8374   -8.2191 N   0  0  0  0  0  0  0  0  0  0  0  0
   22.8252   63.9490   -9.5769 C   0  0  0  0  0  0  0  0  0  0  0  0
   23.6137   64.0505  -10.5255 O   0  0  0  0  0  0  0  0  0  0  0  0
   21.3694   63.9245   -9.6621 C   0  0  0  0  0  0  0  0  0  0  0  0
   20.6082   64.0001  -10.6590 O   0  0  0  0  0  0  0  0  0  0  0  0
   19.4135   63.3353   -6.5433 O   0  0  0  0  0  0  0  0  0  0  0  0
   15.2517   61.3453  -11.7258 Br  0  0  0  0  0  0  0  0  0  0  0  0
   16.6346   61.9716  -10.5541 C   0  0  0  0  0  0  0  0  0  0  0  0
   16.7013   63.2914  -10.1709 C   0  0  0  0  0  0  0  0  0  0  0  0
   17.7047   63.7371   -9.3241 C   0  0  0  0  0  0  0  0  0  0  0  0
   18.6695   62.8857   -8.8335 C   0  0  0  0  0  0  0  0  0  0  0  0
   18.5998   61.5662   -9.2170 C   0  0  0  0  0  0  0  0  0  0  0  0
   17.5909   61.1104  -10.0708 C   0  0  0  0  0  0  0  0  0  0  0  0
   22.0119   65.7298   -7.2233 C   0  0  0  0  0  0  0  0  0  0  0  0
   23.0544   66.3538   -6.5276 C   0  0  0  0  0  0  0  0  0  0  0  0
   23.1017   67.6904   -6.2762 C   0  0  0  0  0  0  0  0  0  0  0  0
   22.0791   68.5098   -6.7171 C   0  0  0  0  0  0  0  0  0  0  0  0
   21.0476   67.9300   -7.3987 C   0  0  0  0  0  0  0  0  0  0  0  0
   21.0004   66.5568   -7.6563 C   0  0  0  0  0  0  0  0  0  0  0  0
   24.4045   63.4172   -7.5916 C   0  0  0  0  0  0  0  0  0  0  0  0
   24.3241   62.7488   -6.2812 C   0  0  0  0  0  0  0  0  0  0  0  0
   25.1208   63.3062   -5.2318 N   0  0  0  0  0  0  0  0  0  0  0  0
   26.1384   62.4642   -4.7084 C   0  0  0  0  0  0  0  0  0  0  0  0
   25.7135   61.9741   -3.3413 C   0  0  0  0  0  0  0  0  0  0  0  0
   24.3589   61.6568   -3.2909 O   0  0  0  0  0  0  0  0  0  0  0  0
   23.5491   62.7692   -3.4230 C   0  0  0  0  0  0  0  0  0  0  0  0
   24.3330   63.8431   -4.1438 C   0  0  0  0  0  0  0  0  0  0  0  0
   25.6051   64.1475   -5.6734 H   0  0  0  0  0  0  0  0  0  0  0  0
 10 11  1  0  0  0
 11 12  2  0  0  0
 11 16  1  0  0  0
 12 13  1  0  0  0
 13 14  2  0  0  0
 14 15  1  0  0  0
 14  1  1  0  0  0
 15 16  2  0  0  0
  1  2  2  0  0  0
  1  9  1  0  0  0
  2  3  1  0  0  0
  2  7  1  0  0  0
  3  4  1  0  0  0
  3 17  1  0  0  0
  4  5  1  0  0  0
  4 23  1  0  0  0
  5  6  2  0  0  0
  5  7  1  0  0  0
  7  8  2  0  0  0
 23 24  1  0  0  0
 24 25  1  0  0  0
 25 26  1  0  0  0
 25 30  1  0  0  0
 26 27  1  0  0  0
 27 28  1  0  0  0
 28 29  1  0  0  0
 29 30  1  0  0  0
 17 18  2  0  0  0
 17 22  1  0  0  0
 18 19  1  0  0  0
 19 20  2  0  0  0
 20 21  1  0  0  0
 21 22  2  0  0  0
 25 31  1  0  0  0
M  CHG 1   9  -1
M  CHG 1  25   1
M  END
> <minimizedAffinity>
-6.17575

$$$$
278


 30 33  0  0  0  0  0  0  0  0999 V2000
   21.6332   63.7058   -9.1833 N   0  0  0  0  0  0  0  0  0  0  0  0
   21.4523   63.3721  -10.4833 C   0  0  0  0  0  0  0  0  0  0  0  0
   20.1884   62.8100  -10.5656 C   0  0  0  0  0  0  0  0  0  0  0  0
   19.7385   62.3655  -11.7948 C   0  0  0  0  0  0  0  0  0  0  0  0
   20.5220   62.4691  -12.9508 C   0  0  0  0  0  0  0  0  0  0  0  0
   21.7810   63.0389  -12.8175 C   0  0  0  0  0  0  0  0  0  0  0  0
   22.2528   63.4884  -11.6091 C   0  0  0  0  0  0  0  0  0  0  0  0
   19.6008   62.8021   -9.3318 N   0  0  0  0  0  0  0  0  0  0  0  0
   20.5231   63.3613   -8.5037 C   0  0  0  0  0  0  0  0  0  0  0  0
   20.3289   63.5252   -7.2380 N   0  0  0  0  0  0  0  0  0  0  0  0
   21.0985   63.9720   -6.6545 H   0  0  0  0  0  0  0  0  0  0  0  0
   19.4943   63.2622   -6.7094 H   0  0  0  0  0  0  0  0  0  0  0  0
   22.8412   64.3222   -8.7172 C   0  0  0  0  0  0  0  0  0  0  0  0
   22.6960   64.9827   -7.3798 C   0  0  0  0  0  0  0  0  0  0  0  0
   23.1818   66.2749   -7.3294 O   0  0  0  0  0  0  0  0  0  0  0  0
   24.1295   66.3473   -7.5550 H   0  0  0  0  0  0  0  0  0  0  0  0
   25.6518   61.7944   -3.0247 Br  0  0  0  0  0  0  0  0  0  0  0  0
   24.7311   62.7849   -4.3800 C   0  0  0  0  0  0  0  0  0  0  0  0
   25.0847   62.6101   -5.6987 C   0  0  0  0  0  0  0  0  0  0  0  0
   24.4222   63.3219   -6.6631 C   0  0  0  0  0  0  0  0  0  0  0  0
   23.4225   64.1953   -6.3143 C   0  0  0  0  0  0  0  0  0  0  0  0
   23.0974   64.3442   -4.9875 C   0  0  0  0  0  0  0  0  0  0  0  0
   23.7386   63.6467   -3.9757 C   0  0  0  0  0  0  0  0  0  0  0  0
   18.2839   62.3021   -9.0733 C   0  0  0  0  0  0  0  0  0  0  0  0
   17.2034   63.0416   -9.8123 C   0  0  0  0  0  0  0  0  0  0  0  0
   16.2797   62.3194  -10.5483 C   0  0  0  0  0  0  0  0  0  0  0  0
   15.2575   62.9256  -11.2525 C   0  0  0  0  0  0  0  0  0  0  0  0
   15.1794   64.2952  -11.2016 C   0  0  0  0  0  0  0  0  0  0  0  0
   16.0808   65.0341  -10.4817 C   0  0  0  0  0  0  0  0  0  0  0  0
   17.0825   64.4028   -9.7943 C   0  0  0  0  0  0  0  0  0  0  0  0
 17 18  1  0  0  0
 18 19  2  0  0  0
 18 23  1  0  0  0
 19 20  1  0  0  0
 20 21  2  0  0  0
 21 22  1  0  0  0
 21 14  1  0  0  0
 22 23  2  0  0  0
 14 15  1  0  0  0
 14 13  1  0  0  0
 13  1  1  0  0  0
  1  2  1  0  0  0
  1  9  1  0  0  0
  2  3  1  0  0  0
  2  7  2  0  0  0
  3  4  2  0  0  0
  3  8  1  0  0  0
  4  5  1  0  0  0
  5  6  2  0  0  0
  6  7  1  0  0  0
  8  9  1  0  0  0
  8 24  1  0  0  0
  9 10  2  0  0  0
 24 25  1  0  0  0
 25 26  2  0  0  0
 25 30  1  0  0  0
 26 27  1  0  0  0
 27 28  2  0  0  0
 28 29  1  0  0  0
 29 30  2  0  0  0
 15 16  1  0  0  0
 10 11  1  0  0  0
 10 12  1  0  0  0
M  END
> <minimizedAffinity>
-9.61397

$$$$
289


 31 34  0  0  0  0  0  0  0  0999 V2000
   23.3819   63.8460   -7.5015 C   0  0  0  0  0  0  0  0  0  0  0  0
   22.7717   64.1276   -6.3384 N   0  0  0  0  0  0  0  0  0  0  0  0
   23.5092   63.6324   -5.3168 C   0  0  0  0  0  0  0  0  0  0  0  0
   24.6241   63.0140   -5.8391 C   0  0  0  0  0  0  0  0  0  0  0  0
   24.5222   63.1562   -7.1607 N   0  0  0  0  0  0  0  0  0  0  0  0
   25.5159   62.4427   -5.0085 N   0  0  0  0  0  0  0  0  0  0  0  0
   25.3535   62.4561   -3.6787 C   0  0  0  0  0  0  0  0  0  0  0  0
   26.2198   61.9069   -2.9254 O   0  0  0  0  0  0  0  0  0  0  0  0
   24.2730   63.0547   -3.1490 N   0  0  0  0  0  0  0  0  0  0  0  0
   23.3651   63.6326   -3.9475 C   0  0  0  0  0  0  0  0  0  0  0  0
   22.3571   64.1918   -3.4499 O   0  0  0  0  0  0  0  0  0  0  0  0
   26.6933   61.7983   -5.6005 C   0  0  0  0  0  0  0  0  0  0  0  0
   24.1378   63.0685   -2.0965 H   0  0  0  0  0  0  0  0  0  0  0  0
   20.9189   63.4562   -9.9581 N   0  0  0  0  0  0  0  0  0  0  0  0
   20.8986   64.8394   -9.7321 C   0  0  0  0  0  0  0  0  0  0  0  0
   22.1866   65.3471   -9.0920 C   0  0  0  0  0  0  0  0  0  0  0  0
   22.9868   64.2090   -8.8010 N   0  0  0  0  0  0  0  0  0  0  0  0
   23.3790   63.3950   -9.9261 C   0  0  0  0  0  0  0  0  0  0  0  0
   22.0639   62.8162  -10.4612 C   0  0  0  0  0  0  0  0  0  0  0  0
   20.0019   62.6792   -9.1921 C   0  0  0  0  0  0  0  0  0  0  0  0
   14.2441   62.3539  -11.4090 Br  0  0  0  0  0  0  0  0  0  0  0  0
   16.0360   62.4746  -10.7251 C   0  0  0  0  0  0  0  0  0  0  0  0
   16.7923   61.3373  -10.5288 C   0  0  0  0  0  0  0  0  0  0  0  0
   18.0839   61.4208  -10.0336 C   0  0  0  0  0  0  0  0  0  0  0  0
   18.6286   62.6431   -9.7297 C   0  0  0  0  0  0  0  0  0  0  0  0
   17.8871   63.7899   -9.9213 C   0  0  0  0  0  0  0  0  0  0  0  0
   16.6021   63.6905  -10.4153 C   0  0  0  0  0  0  0  0  0  0  0  0
   21.5159   64.7955   -6.1252 C   0  0  0  0  0  0  0  0  0  0  0  0
   21.6409   66.2974   -6.2477 C   0  0  0  0  0  0  0  0  0  0  0  0
   22.9081   66.7779   -5.9869 O   0  0  0  0  0  0  0  0  0  0  0  0
   22.8874   68.1409   -6.3635 C   0  0  0  0  0  0  0  0  0  0  0  0
 21 22  1  0  0  0
 22 23  2  0  0  0
 22 27  1  0  0  0
 23 24  1  0  0  0
 24 25  2  0  0  0
 25 26  1  0  0  0
 25 20  1  0  0  0
 26 27  2  0  0  0
 20 14  1  0  0  0
 14 15  1  0  0  0
 14 19  1  0  0  0
 15 16  1  0  0  0
 16 17  1  0  0  0
 17 18  1  0  0  0
 17  1  1  0  0  0
 18 19  1  0  0  0
  1  2  1  0  0  0
  1  5  2  0  0  0
  2  3  1  0  0  0
  2 28  1  0  0  0
  3  4  2  0  0  0
  3 10  1  0  0  0
  4  5  1  0  0  0
  4  6  1  0  0  0
  6  7  1  0  0  0
  6 12  1  0  0  0
  7  8  2  0  0  0
  7  9  1  0  0  0
  9 10  1  0  0  0
 10 11  2  0  0  0
 28 29  1  0  0  0
 29 30  1  0  0  0
 30 31  1  0  0  0
  9 13  1  0  0  0
M  END
> <minimizedAffinity>
-7.15120

$$$$
293


 27 30  0  0  0  0  0  0  0  0999 V2000
   12.1049   62.2524  -14.0813 C   0  0  0  0  0  0  0  0  0  0  0  0
   11.2919   62.9990  -14.8379 C   0  0  0  0  0  0  0  0  0  0  0  0
   11.2649   64.3834  -14.7941 O   0  0  0  0  0  0  0  0  0  0  0  0
   10.3302   64.9066  -15.6817 C   0  0  0  0  0  0  0  0  0  0  0  0
    9.7282   63.8658  -16.3216 C   0  0  0  0  0  0  0  0  0  0  0  0
    8.7509   64.1072  -17.2648 C   0  0  0  0  0  0  0  0  0  0  0  0
    8.4243   65.4139  -17.5184 C   0  0  0  0  0  0  0  0  0  0  0  0
    9.0422   66.4862  -16.8618 C   0  0  0  0  0  0  0  0  0  0  0  0
   10.0155   66.2664  -15.9196 C   0  0  0  0  0  0  0  0  0  0  0  0
    8.6511   67.7879  -17.1786 O   0  0  0  0  0  0  0  0  0  0  0  0
   10.3095   62.6147  -15.8151 C   0  0  0  0  0  0  0  0  0  0  0  0
   10.0344   61.4326  -16.1436 O   0  0  0  0  0  0  0  0  0  0  0  0
   16.0101   64.9175  -10.0623 Br  0  0  0  0  0  0  0  0  0  0  0  0
   14.7984   64.1035  -11.3133 C   0  0  0  0  0  0  0  0  0  0  0  0
   14.4415   62.7796  -11.1970 C   0  0  0  0  0  0  0  0  0  0  0  0
   13.5728   62.1930  -12.0976 C   0  0  0  0  0  0  0  0  0  0  0  0
   13.0225   62.9031  -13.1515 C   0  0  0  0  0  0  0  0  0  0  0  0
   13.3815   64.2275  -13.2634 C   0  0  0  0  0  0  0  0  0  0  0  0
   14.2599   64.8267  -12.3566 C   0  0  0  0  0  0  0  0  0  0  0  0
   10.7472   67.2812  -15.1517 C   0  0  0  0  0  0  0  0  0  0  0  0
   11.1208   68.4769  -15.8021 N   0  0  0  0  0  0  0  0  0  0  0  0
   10.6710   69.6566  -15.0928 C   0  0  0  0  0  0  0  0  0  0  0  0
   11.6981   70.0381  -14.0427 C   0  0  0  0  0  0  0  0  0  0  0  0
   12.7437   70.6852  -14.6829 O   0  0  0  0  0  0  0  0  0  0  0  0
   12.9119   70.0903  -15.9380 C   0  0  0  0  0  0  0  0  0  0  0  0
   12.5872   68.6072  -15.8583 C   0  0  0  0  0  0  0  0  0  0  0  0
   10.8237   68.4923  -16.7989 H   0  0  0  0  0  0  0  0  0  0  0  0
 13 14  1  0  0  0
 14 15  2  0  0  0
 14 19  1  0  0  0
 15 16  1  0  0  0
 16 17  2  0  0  0
 17 18  1  0  0  0
 17  1  1  0  0  0
 18 19  2  0  0  0
  1  2  2  0  0  0
  2  3  1  0  0  0
  2 11  1  0  0  0
  3  4  1  0  0  0
  4  5  2  0  0  0
  4  9  1  0  0  0
  5  6  1  0  0  0
  5 11  1  0  0  0
  6  7  2  0  0  0
  7  8  1  0  0  0
  8  9  2  0  0  0
  8 10  1  0  0  0
  9 20  1  0  0  0
 20 21  1  0  0  0
 21 22  1  0  0  0
 21 26  1  0  0  0
 22 23  1  0  0  0
 23 24  1  0  0  0
 24 25  1  0  0  0
 25 26  1  0  0  0
 11 12  2  0  0  0
 21 27  1  0  0  0
M  CHG 1  10  -1
M  CHG 1  21   1
M  END
> <minimizedAffinity>
-5.61048

$$$$
294


 35 38  0  0  0  0  0  0  0  0999 V2000
   23.8654   64.2854   -7.1812 N   0  0  0  0  0  0  0  0  0  0  0  0
   24.3358   63.2040   -6.4881 N   0  0  0  0  0  0  0  0  0  0  0  0
   24.2172   63.4476   -5.1757 C   0  0  0  0  0  0  0  0  0  0  0  0
   23.6811   64.6634   -5.0831 N   0  0  0  0  0  0  0  0  0  0  0  0
   23.4564   65.1991   -6.3415 C   0  0  0  0  0  0  0  0  0  0  0  0
   24.5934   62.5717   -4.0726 C   0  0  0  0  0  0  0  0  0  0  0  0
   23.9098   62.3536   -2.9451 N   0  0  0  0  0  0  0  0  0  0  0  0
   24.5767   61.4959   -2.1924 O   0  0  0  0  0  0  0  0  0  0  0  0
   25.6807   61.1369   -2.7835 N   0  0  0  0  0  0  0  0  0  0  0  0
   25.7242   61.8004   -3.9792 C   0  0  0  0  0  0  0  0  0  0  0  0
   26.7826   61.6697   -4.9145 N   0  0  0  0  0  0  0  0  0  0  0  0
   27.3815   60.7971   -4.9108 H   0  0  0  0  0  0  0  0  0  0  0  0
   27.0199   62.3893   -5.6239 H   0  0  0  0  0  0  0  0  0  0  0  0
   22.8805   66.5145   -6.5313 C   0  0  0  0  0  0  0  0  0  0  0  0
   23.4611   67.6567   -5.9869 N   0  0  0  0  0  0  0  0  0  0  0  0
   22.7761   68.6824   -6.3102 O   0  0  0  0  0  0  0  0  0  0  0  0
   21.7810   68.3361   -7.0274 N   0  0  0  0  0  0  0  0  0  0  0  0
   21.8140   66.9782   -7.1874 C   0  0  0  0  0  0  0  0  0  0  0  0
   20.8358   66.3281   -7.9494 N   0  0  0  0  0  0  0  0  0  0  0  0
   19.9518   66.0140   -7.4859 H   0  0  0  0  0  0  0  0  0  0  0  0
   20.9162   66.1357   -8.9695 H   0  0  0  0  0  0  0  0  0  0  0  0
   23.8659   64.2633   -8.6308 C   0  0  0  0  0  0  0  0  0  0  0  0
   21.7487   62.8873   -8.5740 N   0  0  0  0  0  0  0  0  0  0  0  0
   22.5247   63.9126   -9.1667 C   0  0  0  0  0  0  0  0  0  0  0  0
   22.0689   64.5294  -10.1558 O   0  0  0  0  0  0  0  0  0  0  0  0
   22.1090   62.3452   -7.7308 H   0  0  0  0  0  0  0  0  0  0  0  0
   19.5067   63.3754   -9.1308 C   0  0  0  0  0  0  0  0  0  0  0  0
   20.5088   62.5879   -9.0948 N   0  0  0  0  0  0  0  0  0  0  0  0
   14.0142   61.8384  -11.5261 Br  0  0  0  0  0  0  0  0  0  0  0  0
   15.7060   62.3237  -10.7871 C   0  0  0  0  0  0  0  0  0  0  0  0
   16.6727   61.3639  -10.5264 C   0  0  0  0  0  0  0  0  0  0  0  0
   17.9050   61.6929   -9.9906 C   0  0  0  0  0  0  0  0  0  0  0  0
   18.2142   63.0042   -9.6961 C   0  0  0  0  0  0  0  0  0  0  0  0
   17.2471   63.9507   -9.9591 C   0  0  0  0  0  0  0  0  0  0  0  0
   16.0147   63.6353  -10.4935 C   0  0  0  0  0  0  0  0  0  0  0  0
 29 30  1  0  0  0
 30 31  2  0  0  0
 30 35  1  0  0  0
 31 32  1  0  0  0
 32 33  2  0  0  0
 33 34  1  0  0  0
 33 27  1  0  0  0
 34 35  2  0  0  0
 27 28  2  0  0  0
 28 23  1  0  0  0
 23 24  1  0  0  0
 24 25  2  0  0  0
 24 22  1  0  0  0
 22  1  1  0  0  0
  1  2  1  0  0  0
  1  5  1  0  0  0
  2  3  2  0  0  0
  3  4  1  0  0  0
  3  6  1  0  0  0
  4  5  2  0  0  0
  5 14  1  0  0  0
 14 15  2  0  0  0
 14 18  1  0  0  0
 15 16  1  0  0  0
 16 17  1  0  0  0
 17 18  2  0  0  0
 18 19  1  0  0  0
  6  7  2  0  0  0
  6 10  1  0  0  0
  7  8  1  0  0  0
  8  9  1  0  0  0
  9 10  2  0  0  0
 10 11  1  0  0  0
 23 26  1  0  0  0
 19 20  1  0  0  0
 19 21  1  0  0  0
 11 12  1  0  0  0
 11 13  1  0  0  0
M  END
> <minimizedAffinity>
-10.39537

$$$$
302


 29 33  0  0  0  0  0  0  0  0999 V2000
   22.8440   63.3854  -12.1949 C   0  0  0  0  0  0  0  0  0  0  0  0
   22.7817   63.5057  -10.8527 N   0  0  0  0  0  0  0  0  0  0  0  0
   21.4916   63.4416  -10.4393 C   0  0  0  0  0  0  0  0  0  0  0  0
   20.7106   63.2770  -11.5207 N   0  0  0  0  0  0  0  0  0  0  0  0
   21.5316   63.2427  -12.5955 C   0  0  0  0  0  0  0  0  0  0  0  0
   19.4462   63.2186  -11.0602 C   0  0  0  0  0  0  0  0  0  0  0  0
   19.4340   63.3461   -9.6878 C   0  0  0  0  0  0  0  0  0  0  0  0
   18.2545   63.3209   -8.9526 C   0  0  0  0  0  0  0  0  0  0  0  0
   17.0520   63.1631   -9.6026 C   0  0  0  0  0  0  0  0  0  0  0  0
   17.0739   63.0362  -10.9746 C   0  0  0  0  0  0  0  0  0  0  0  0
   18.2280   63.0580  -11.7281 C   0  0  0  0  0  0  0  0  0  0  0  0
   20.7379   63.4853   -9.3290 N   0  0  0  0  0  0  0  0  0  0  0  0
   23.5885   63.6318  -10.2085 H   0  0  0  0  0  0  0  0  0  0  0  0
   27.9231   63.4695  -15.6980 Br  0  0  0  0  0  0  0  0  0  0  0  0
   26.3586   63.4435  -14.6240 C   0  0  0  0  0  0  0  0  0  0  0  0
   26.4577   63.3800  -13.2476 C   0  0  0  0  0  0  0  0  0  0  0  0
   25.3079   63.3618  -12.4620 C   0  0  0  0  0  0  0  0  0  0  0  0
   24.0493   63.4054  -13.0177 C   0  0  0  0  0  0  0  0  0  0  0  0
   23.9597   63.4692  -14.3900 C   0  0  0  0  0  0  0  0  0  0  0  0
   25.1025   63.4878  -15.1938 C   0  0  0  0  0  0  0  0  0  0  0  0
   21.1513   63.6476   -7.9505 C   0  0  0  0  0  0  0  0  0  0  0  0
   21.8888   64.9515   -7.7375 C   0  0  0  0  0  0  0  0  0  0  0  0
   22.9045   64.7927   -6.7362 N   0  0  0  0  0  0  0  0  0  0  0  0
   24.0193   64.0347   -7.2641 C   0  0  0  0  0  0  0  0  0  0  0  0
   24.5042   62.9702   -6.3101 C   0  0  0  0  0  0  0  0  0  0  0  0
   24.7271   63.5528   -5.0607 O   0  0  0  0  0  0  0  0  0  0  0  0
   23.5905   64.1407   -4.5479 C   0  0  0  0  0  0  0  0  0  0  0  0
   22.4568   64.1451   -5.5396 C   0  0  0  0  0  0  0  0  0  0  0  0
   23.2922   65.7286   -6.4554 H   0  0  0  0  0  0  0  0  0  0  0  0
 14 15  1  0  0  0
 15 16  2  0  0  0
 15 20  1  0  0  0
 16 17  1  0  0  0
 17 18  2  0  0  0
 18 19  1  0  0  0
 18  1  1  0  0  0
 19 20  2  0  0  0
  1  2  1  0  0  0
  1  5  2  0  0  0
  2  3  2  0  0  0
  3  4  1  0  0  0
  3 12  1  0  0  0
  4  5  1  0  0  0
  4  6  1  0  0  0
  6  7  2  0  0  0
  6 11  1  0  0  0
  7  8  1  0  0  0
  7 12  1  0  0  0
  8  9  2  0  0  0
  9 10  1  0  0  0
 10 11  2  0  0  0
 12 21  1  0  0  0
 21 22  1  0  0  0
 22 23  1  0  0  0
 23 24  1  0  0  0
 23 28  1  0  0  0
 24 25  1  0  0  0
 25 26  1  0  0  0
 26 27  1  0  0  0
 27 28  1  0  0  0
  2 13  1  0  0  0
 23 29  1  0  0  0
M  CHG 1  23   1
M  END
> <minimizedAffinity>
-8.14696

$$$$
305


 27 30  0  0  0  0  0  0  0  0999 V2000
   19.1511   63.0630   -9.1372 C   0  0  0  0  0  0  0  0  0  0  0  0
   20.3850   63.1844   -9.6094 N   0  0  0  0  0  0  0  0  0  0  0  0
   21.2675   63.3817   -8.5991 C   0  0  0  0  0  0  0  0  0  0  0  0
   20.5458   63.3721   -7.4629 N   0  0  0  0  0  0  0  0  0  0  0  0
   19.3000   63.1835   -7.7530 N   0  0  0  0  0  0  0  0  0  0  0  0
   22.5229   63.5031   -9.0468 N   0  0  0  0  0  0  0  0  0  0  0  0
   22.4369   63.3718  -10.3749 C   0  0  0  0  0  0  0  0  0  0  0  0
   21.1066   63.1643  -10.7644 C   0  0  0  0  0  0  0  0  0  0  0  0
   20.7878   62.9691  -12.0337 N   0  0  0  0  0  0  0  0  0  0  0  0
   21.8040   62.9906  -12.9504 C   0  0  0  0  0  0  0  0  0  0  0  0
   21.5442   62.8143  -14.1641 O   0  0  0  0  0  0  0  0  0  0  0  0
   23.0827   63.1949  -12.6114 N   0  0  0  0  0  0  0  0  0  0  0  0
   23.4283   63.3868  -11.3274 C   0  0  0  0  0  0  0  0  0  0  0  0
   24.6197   63.5803  -10.9703 O   0  0  0  0  0  0  0  0  0  0  0  0
   19.4926   62.6226  -12.5591 C   0  0  0  0  0  0  0  0  0  0  0  0
   23.8549   63.2131  -13.3084 H   0  0  0  0  0  0  0  0  0  0  0  0
   13.7210   62.5706  -11.9333 Br  0  0  0  0  0  0  0  0  0  0  0  0
   15.3801   62.6753  -11.0261 C   0  0  0  0  0  0  0  0  0  0  0  0
   15.8723   63.9048  -10.6411 C   0  0  0  0  0  0  0  0  0  0  0  0
   17.0635   63.9823   -9.9895 C   0  0  0  0  0  0  0  0  0  0  0  0
   17.8254   62.8520   -9.6861 C   0  0  0  0  0  0  0  0  0  0  0  0
   17.2807   61.6629  -10.0980 C   0  0  0  0  0  0  0  0  0  0  0  0
   16.0856   61.5234  -10.7578 C   0  0  0  0  0  0  0  0  0  0  0  0
   23.7174   63.7323   -8.2659 C   0  0  0  0  0  0  0  0  0  0  0  0
   23.4419   64.4987   -6.9902 C   0  0  0  0  0  0  0  0  0  0  0  0
   23.7171   65.8536   -7.1292 O   0  0  0  0  0  0  0  0  0  0  0  0
   22.7796   66.5491   -6.3660 C   0  0  0  0  0  0  0  0  0  0  0  0
 17 18  1  0  0  0
 18 19  2  0  0  0
 18 23  1  0  0  0
 19 20  1  0  0  0
 20 21  2  0  0  0
 21 22  1  0  0  0
 21  1  1  0  0  0
 22 23  2  0  0  0
  1  2  1  0  0  0
  1  5  2  0  0  0
  2  3  1  0  0  0
  2  8  1  0  0  0
  3  4  2  0  0  0
  3  6  1  0  0  0
  4  5  1  0  0  0
  6  7  1  0  0  0
  6 24  1  0  0  0
  7  8  2  0  0  0
  7 13  1  0  0  0
  8  9  1  0  0  0
  9 10  1  0  0  0
  9 15  1  0  0  0
 10 11  2  0  0  0
 10 12  1  0  0  0
 12 13  1  0  0  0
 13 14  2  0  0  0
 24 25  1  0  0  0
 25 26  1  0  0  0
 26 27  1  0  0  0
 12 16  1  0  0  0
M  END
> <minimizedAffinity>
-6.94413

$$$$
309


 33 36  0  0  0  0  0  0  0  0999 V2000
   15.4549   63.4522  -11.6973 C   0  0  0  0  0  0  0  0  0  0  0  0
   14.6532   62.3367  -11.7279 C   0  0  0  0  0  0  0  0  0  0  0  0
   13.5244   62.2845  -12.4087 O   0  0  0  0  0  0  0  0  0  0  0  0
   13.0966   63.3052  -13.1067 C   0  0  0  0  0  0  0  0  0  0  0  0
   13.8400   64.4314  -13.1162 C   0  0  0  0  0  0  0  0  0  0  0  0
   13.4173   65.5217  -13.8441 C   0  0  0  0  0  0  0  0  0  0  0  0
   12.2417   65.4252  -14.5434 C   0  0  0  0  0  0  0  0  0  0  0  0
   11.4739   64.2450  -14.5267 C   0  0  0  0  0  0  0  0  0  0  0  0
   11.8713   63.1541  -13.8131 C   0  0  0  0  0  0  0  0  0  0  0  0
   10.3220   64.3321  -15.2904 O   0  0  0  0  0  0  0  0  0  0  0  0
   15.0308   64.5631  -12.4286 C   0  0  0  0  0  0  0  0  0  0  0  0
   15.7095   65.5952  -12.4388 O   0  0  0  0  0  0  0  0  0  0  0  0
   20.7479   63.3860   -8.5496 Br  0  0  0  0  0  0  0  0  0  0  0  0
   19.1161   63.4128   -9.5468 C   0  0  0  0  0  0  0  0  0  0  0  0
   17.9365   63.4924   -8.8666 C   0  0  0  0  0  0  0  0  0  0  0  0
   16.7536   63.5095   -9.5729 C   0  0  0  0  0  0  0  0  0  0  0  0
   16.6917   63.4487  -10.9627 C   0  0  0  0  0  0  0  0  0  0  0  0
   17.8905   63.3702  -11.6217 C   0  0  0  0  0  0  0  0  0  0  0  0
   19.1094   63.3513  -10.9242 C   0  0  0  0  0  0  0  0  0  0  0  0
   15.0802   61.1551  -10.9622 C   0  0  0  0  0  0  0  0  0  0  0  0
   14.2199   60.5664  -10.2606 O   0  0  0  0  0  0  0  0  0  0  0  0
   16.3501   60.6670  -10.9724 O   0  0  0  0  0  0  0  0  0  0  0  0
   16.7083   59.5842  -10.1482 C   0  0  0  0  0  0  0  0  0  0  0  0
   18.0284   59.8816   -9.4923 C   0  0  0  0  0  0  0  0  0  0  0  0
   11.1869   61.8909  -13.6819 C   0  0  0  0  0  0  0  0  0  0  0  0
   10.3594   61.3502  -14.6813 N   0  0  0  0  0  0  0  0  0  0  0  0
    9.2788   60.6005  -14.1464 C   0  0  0  0  0  0  0  0  0  0  0  0
    8.6988   59.5014  -14.9457 C   0  0  0  0  0  0  0  0  0  0  0  0
    9.5374   59.0413  -15.9663 N   0  0  0  0  0  0  0  0  0  0  0  0
   10.2087   59.9782  -16.7565 C   0  0  0  0  0  0  0  0  0  0  0  0
   10.9510   60.9646  -15.9113 C   0  0  0  0  0  0  0  0  0  0  0  0
    9.7064   57.6666  -16.1846 C   0  0  0  0  0  0  0  0  0  0  0  0
    9.8065   62.2868  -15.0151 H   0  0  0  0  0  0  0  0  0  0  0  0
 13 14  1  0  0  0
 14 15  2  0  0  0
 14 19  1  0  0  0
 15 16  1  0  0  0
 16 17  2  0  0  0
 17 18  1  0  0  0
 17  1  1  0  0  0
 18 19  2  0  0  0
  1  2  2  0  0  0
  1 11  1  0  0  0
  2  3  1  0  0  0
  2 20  1  0  0  0
  3  4  1  0  0  0
  4  5  2  0  0  0
  4  9  1  0  0  0
  5  6  1  0  0  0
  5 11  1  0  0  0
  6  7  2  0  0  0
  7  8  1  0  0  0
  8  9  2  0  0  0
  8 10  1  0  0  0
  9 25  1  0  0  0
 25 26  1  0  0  0
 26 27  1  0  0  0
 26 31  1  0  0  0
 27 28  1  0  0  0
 28 29  1  0  0  0
 29 30  1  0  0  0
 29 32  1  0  0  0
 30 31  1  0  0  0
 11 12  2  0  0  0
 20 21  2  0  0  0
 20 22  1  0  0  0
 22 23  1  0  0  0
 23 24  1  0  0  0
 26 33  1  0  0  0
M  CHG 1  10  -1
M  CHG 1  26   1
M  END
> <minimizedAffinity>
-5.15062

$$$$
320


 32 36  0  0  0  0  0  0  0  0999 V2000
   20.3831   63.0472  -11.2215 C   0  0  0  0  0  0  0  0  0  0  0  0
   21.0024   63.1301  -12.4796 C   0  0  0  0  0  0  0  0  0  0  0  0
   22.3073   63.2215  -12.2569 N   0  0  0  0  0  0  0  0  0  0  0  0
   23.4730   63.3370  -12.9638 C   0  0  0  0  0  0  0  0  0  0  0  0
   24.4658   63.3897  -12.0181 C   0  0  0  0  0  0  0  0  0  0  0  0
   23.8852   63.3079  -10.8307 N   0  0  0  0  0  0  0  0  0  0  0  0
   22.5321   63.2014  -10.9646 C   0  0  0  0  0  0  0  0  0  0  0  0
   21.3466   63.0921  -10.2948 N   0  0  0  0  0  0  0  0  0  0  0  0
   25.8106   63.5104  -12.3799 C   0  0  0  0  0  0  0  0  0  0  0  0
   26.1548   63.5768  -13.7128 C   0  0  0  0  0  0  0  0  0  0  0  0
   25.1405   63.5213  -14.6416 C   0  0  0  0  0  0  0  0  0  0  0  0
   23.8010   63.4024  -14.2900 C   0  0  0  0  0  0  0  0  0  0  0  0
   24.4174   63.3364   -9.9404 H   0  0  0  0  0  0  0  0  0  0  0  0
   14.2329   62.8884  -10.6590 Br  0  0  0  0  0  0  0  0  0  0  0  0
   16.1515   62.9210  -10.8242 C   0  0  0  0  0  0  0  0  0  0  0  0
   16.8090   64.0171  -11.2919 C   0  0  0  0  0  0  0  0  0  0  0  0
   18.1693   64.0353  -11.4069 C   0  0  0  0  0  0  0  0  0  0  0  0
   18.9489   62.9506  -11.0589 C   0  0  0  0  0  0  0  0  0  0  0  0
   18.2967   61.8597  -10.5937 C   0  0  0  0  0  0  0  0  0  0  0  0
   16.8865   61.8251  -10.4685 C   0  0  0  0  0  0  0  0  0  0  0  0
   21.3000   63.0631   -8.8649 C   0  0  0  0  0  0  0  0  0  0  0  0
   21.6639   64.3000   -8.1479 C   0  0  0  0  0  0  0  0  0  0  0  0
   22.9467   64.3441   -7.3991 C   0  0  0  0  0  0  0  0  0  0  0  0
   22.7381   64.3960   -5.9689 N   0  0  0  0  0  0  0  0  0  0  0  0
   22.3429   65.2567   -5.5987 H   0  0  0  0  0  0  0  0  0  0  0  0
   21.9672   63.6587   -5.7712 H   0  0  0  0  0  0  0  0  0  0  0  0
   23.8711   63.9478   -5.2147 C   0  0  0  0  0  0  0  0  0  0  0  0
   23.5622   63.4767   -3.8217 C   0  0  0  0  0  0  0  0  0  0  0  0
   24.8912   63.5194   -3.0530 C   0  0  0  0  0  0  0  0  0  0  0  0
   25.8427   62.5732   -3.6992 C   0  0  0  0  0  0  0  0  0  0  0  0
   26.0064   62.7926   -5.1853 C   0  0  0  0  0  0  0  0  0  0  0  0
   24.6399   62.8133   -5.8797 C   0  0  0  0  0  0  0  0  0  0  0  0
 14 15  1  0  0  0
 15 16  2  0  0  0
 15 20  1  0  0  0
 16 17  1  0  0  0
 17 18  2  0  0  0
 18 19  1  0  0  0
 18  1  1  0  0  0
 19 20  2  0  0  0
  1  2  2  0  0  0
  1  8  1  0  0  0
  2  3  1  0  0  0
  3  4  1  0  0  0
  3  7  1  0  0  0
  4  5  2  0  0  0
  4 12  1  0  0  0
  5  6  1  0  0  0
  5  9  1  0  0  0
  6  7  2  0  0  0
  7  8  1  0  0  0
  8 21  1  0  0  0
 21 22  1  0  0  0
 22 23  1  0  0  0
 23 24  1  0  0  0
 24 27  1  0  0  0
 27 28  1  0  0  0
 27 32  1  0  0  0
 28 29  1  0  0  0
 29 30  1  0  0  0
 30 31  1  0  0  0
 31 32  1  0  0  0
  9 10  2  0  0  0
 10 11  1  0  0  0
 11 12  2  0  0  0
  6 13  1  0  0  0
 24 25  1  0  0  0
 24 26  1  0  0  0
M  CHG 1  24   1
M  END
> <minimizedAffinity>
-9.71330

$$$$
324


 34 38  0  0  0  0  0  0  0  0999 V2000
   20.1907   63.0146  -11.3279 C   0  0  0  0  0  0  0  0  0  0  0  0
   20.8488   63.1344  -12.5665 C   0  0  0  0  0  0  0  0  0  0  0  0
   22.1728   63.2145  -12.3958 N   0  0  0  0  0  0  0  0  0  0  0  0
   23.3576   63.3366  -13.0433 C   0  0  0  0  0  0  0  0  0  0  0  0
   24.3266   63.3444  -12.0699 C   0  0  0  0  0  0  0  0  0  0  0  0
   23.7091   63.2272  -10.8616 N   0  0  0  0  0  0  0  0  0  0  0  0
   22.3839   63.1482  -11.0844 C   0  0  0  0  0  0  0  0  0  0  0  0
   21.1755   63.0265  -10.4271 N   0  0  0  0  0  0  0  0  0  0  0  0
   25.6426   63.4606  -12.4658 C   0  0  0  0  0  0  0  0  0  0  0  0
   25.9968   63.5684  -13.8047 C   0  0  0  0  0  0  0  0  0  0  0  0
   25.0275   63.5612  -14.7758 C   0  0  0  0  0  0  0  0  0  0  0  0
   23.6922   63.4428  -14.3724 C   0  0  0  0  0  0  0  0  0  0  0  0
   24.2055   63.2054   -9.9439 H   0  0  0  0  0  0  0  0  0  0  0  0
   13.9995   63.0507  -10.6972 Br  0  0  0  0  0  0  0  0  0  0  0  0
   15.9064   63.0198  -10.9004 C   0  0  0  0  0  0  0  0  0  0  0  0
   16.6289   61.8937  -10.5999 C   0  0  0  0  0  0  0  0  0  0  0  0
   18.0256   61.8730  -10.7490 C   0  0  0  0  0  0  0  0  0  0  0  0
   18.7367   62.9425  -11.1897 C   0  0  0  0  0  0  0  0  0  0  0  0
   17.9816   64.0769  -11.4910 C   0  0  0  0  0  0  0  0  0  0  0  0
   16.6035   64.1069  -11.3474 C   0  0  0  0  0  0  0  0  0  0  0  0
   21.0747   62.9534   -8.9847 C   0  0  0  0  0  0  0  0  0  0  0  0
   20.9109   64.2955   -8.3116 C   0  0  0  0  0  0  0  0  0  0  0  0
   21.5278   64.2956   -6.9354 C   0  0  0  0  0  0  0  0  0  0  0  0
   22.9161   64.6641   -6.8948 N   0  0  0  0  0  0  0  0  0  0  0  0
   23.6602   63.4372   -7.1309 C   0  0  0  0  0  0  0  0  0  0  0  0
   24.8063   63.2198   -6.2160 C   0  0  0  0  0  0  0  0  0  0  0  0
   24.5595   63.4735   -4.8229 N   0  0  0  0  0  0  0  0  0  0  0  0
   23.4309   64.3486   -4.5851 C   0  0  0  0  0  0  0  0  0  0  0  0
   23.3537   65.3462   -5.7225 C   0  0  0  0  0  0  0  0  0  0  0  0
   25.4027   64.0324   -4.4793 H   0  0  0  0  0  0  0  0  0  0  0  0
   24.5618   62.2733   -4.0487 C   0  0  0  0  0  0  0  0  0  0  0  0
   25.6580   62.1417   -3.0471 C   0  0  0  0  0  0  0  0  0  0  0  0
   26.0931   63.3596   -2.5277 O   0  0  0  0  0  0  0  0  0  0  0  0
   25.3270   63.9072   -2.2841 H   0  0  0  0  0  0  0  0  0  0  0  0
 14 15  1  0  0  0
 15 16  2  0  0  0
 15 20  1  0  0  0
 16 17  1  0  0  0
 17 18  2  0  0  0
 18 19  1  0  0  0
 18  1  1  0  0  0
 19 20  2  0  0  0
  1  2  2  0  0  0
  1  8  1  0  0  0
  2  3  1  0  0  0
  3  4  1  0  0  0
  3  7  1  0  0  0
  4  5  2  0  0  0
  4 12  1  0  0  0
  5  6  1  0  0  0
  5  9  1  0  0  0
  6  7  2  0  0  0
  7  8  1  0  0  0
  8 21  1  0  0  0
 21 22  1  0  0  0
 22 23  1  0  0  0
 23 24  1  0  0  0
 24 25  1  0  0  0
 24 29  1  0  0  0
 25 26  1  0  0  0
 26 27  1  0  0  0
 27 28  1  0  0  0
 27 31  1  0  0  0
 28 29  1  0  0  0
 31 32  1  0  0  0
 32 33  1  0  0  0
  9 10  2  0  0  0
 10 11  1  0  0  0
 11 12  2  0  0  0
  6 13  1  0  0  0
 27 30  1  0  0  0
 33 34  1  0  0  0
M  CHG 1  27   1
M  END
> <minimizedAffinity>
-9.39885

$$$$
346


 35 38  0  0  0  0  0  0  0  0999 V2000
   21.5587   63.3069   -9.6136 C   0  0  0  0  0  0  0  0  0  0  0  0
   22.3777   63.3466  -10.7943 N   0  0  0  0  0  0  0  0  0  0  0  0
   21.5967   63.1863  -11.9628 C   0  0  0  0  0  0  0  0  0  0  0  0
   21.9872   63.1481  -13.1704 O   0  0  0  0  0  0  0  0  0  0  0  0
   20.1734   63.0618  -11.5760 C   0  0  0  0  0  0  0  0  0  0  0  0
   19.2206   62.9055  -12.3723 O   0  0  0  0  0  0  0  0  0  0  0  0
   20.1586   63.1578  -10.1316 C   0  0  0  0  0  0  0  0  0  0  0  0
   19.0555   63.0699   -9.4219 C   0  0  0  0  0  0  0  0  0  0  0  0
   19.1761   63.1115   -8.0169 O   0  0  0  0  0  0  0  0  0  0  0  0
   22.1776   68.3352   -6.0431 Br  0  0  0  0  0  0  0  0  0  0  0  0
   22.0026   66.7624   -7.1323 C   0  0  0  0  0  0  0  0  0  0  0  0
   21.1562   66.7785   -8.2184 C   0  0  0  0  0  0  0  0  0  0  0  0
   21.0121   65.6476   -9.0284 C   0  0  0  0  0  0  0  0  0  0  0  0
   21.7104   64.4895   -8.7621 C   0  0  0  0  0  0  0  0  0  0  0  0
   22.5457   64.5146   -7.6683 C   0  0  0  0  0  0  0  0  0  0  0  0
   22.6990   65.6172   -6.8616 C   0  0  0  0  0  0  0  0  0  0  0  0
   17.7175   62.9419   -9.9410 C   0  0  0  0  0  0  0  0  0  0  0  0
   17.0657   61.7934  -10.2252 C   0  0  0  0  0  0  0  0  0  0  0  0
   15.7665   61.8122  -10.6872 C   0  0  0  0  0  0  0  0  0  0  0  0
   15.0535   62.9748  -10.8874 C   0  0  0  0  0  0  0  0  0  0  0  0
   15.7420   64.1345  -10.5905 C   0  0  0  0  0  0  0  0  0  0  0  0
   17.0302   64.1507  -10.1318 C   0  0  0  0  0  0  0  0  0  0  0  0
   15.0854   60.5098  -10.9875 C   0  0  0  0  0  0  0  0  0  0  0  0
   13.7445   62.9866  -11.3534 O   0  0  0  0  0  0  0  0  0  0  0  0
   13.4224   63.6793  -12.5506 C   0  0  0  0  0  0  0  0  0  0  0  0
   23.8186   63.5209  -10.7641 C   0  0  0  0  0  0  0  0  0  0  0  0
   24.5220   62.8801  -11.9289 C   0  0  0  0  0  0  0  0  0  0  0  0
   25.2375   63.8918  -12.7707 C   0  0  0  0  0  0  0  0  0  0  0  0
   25.5427   63.4183  -14.0894 N   0  0  0  0  0  0  0  0  0  0  0  0
   26.8320   63.8646  -14.5758 C   0  0  0  0  0  0  0  0  0  0  0  0
   27.1106   63.0850  -15.8653 C   0  0  0  0  0  0  0  0  0  0  0  0
   25.9738   62.4117  -16.2869 O   0  0  0  0  0  0  0  0  0  0  0  0
   24.8840   63.3050  -16.3821 C   0  0  0  0  0  0  0  0  0  0  0  0
   24.4760   63.7621  -14.9862 C   0  0  0  0  0  0  0  0  0  0  0  0
   25.5939   62.3564  -14.0606 H   0  0  0  0  0  0  0  0  0  0  0  0
 10 11  1  0  0  0
 11 12  2  0  0  0
 11 16  1  0  0  0
 12 13  1  0  0  0
 13 14  2  0  0  0
 14 15  1  0  0  0
 14  1  1  0  0  0
 15 16  2  0  0  0
  1  2  1  0  0  0
  1  7  1  0  0  0
  2  3  1  0  0  0
  2 26  1  0  0  0
  3  4  2  0  0  0
  3  5  1  0  0  0
  5  6  2  0  0  0
  5  7  1  0  0  0
  7  8  2  0  0  0
  8  9  1  0  0  0
  8 17  1  0  0  0
 17 18  2  0  0  0
 17 22  1  0  0  0
 18 19  1  0  0  0
 19 20  2  0  0  0
 19 23  1  0  0  0
 20 21  1  0  0  0
 20 24  1  0  0  0
 21 22  2  0  0  0
 24 25  1  0  0  0
 26 27  1  0  0  0
 27 28  1  0  0  0
 28 29  1  0  0  0
 29 30  1  0  0  0
 29 34  1  0  0  0
 30 31  1  0  0  0
 31 32  1  0  0  0
 32 33  1  0  0  0
 33 34  1  0  0  0
 29 35  1  0  0  0
M  CHG 1   9  -1
M  CHG 1  29   1
M  END
> <minimizedAffinity>
-8.78368

$$$$
347


 34 37  0  0  0  0  0  0  0  0999 V2000
   21.8558   63.8826   -7.5262 C   0  0  0  0  0  0  0  0  0  0  0  0
   22.9804   63.3804   -8.2889 N   0  0  0  0  0  0  0  0  0  0  0  0
   22.7320   63.7340   -9.6511 C   0  0  0  0  0  0  0  0  0  0  0  0
   23.5886   63.9012  -10.5543 O   0  0  0  0  0  0  0  0  0  0  0  0
   21.2835   63.8584   -9.7719 C   0  0  0  0  0  0  0  0  0  0  0  0
   20.5894   64.1536  -10.7768 O   0  0  0  0  0  0  0  0  0  0  0  0
   20.7116   63.5714   -8.4603 C   0  0  0  0  0  0  0  0  0  0  0  0
   19.4884   63.1808   -8.1986 C   0  0  0  0  0  0  0  0  0  0  0  0
   19.1675   63.0240   -6.8385 O   0  0  0  0  0  0  0  0  0  0  0  0
   22.3815   69.9284   -6.4357 Br  0  0  0  0  0  0  0  0  0  0  0  0
   22.2103   68.0604   -6.7837 C   0  0  0  0  0  0  0  0  0  0  0  0
   23.1846   67.1885   -6.3582 C   0  0  0  0  0  0  0  0  0  0  0  0
   23.0615   65.8196   -6.6104 C   0  0  0  0  0  0  0  0  0  0  0  0
   21.9765   65.3133   -7.2826 C   0  0  0  0  0  0  0  0  0  0  0  0
   21.0175   66.2102   -7.6966 C   0  0  0  0  0  0  0  0  0  0  0  0
   21.1227   67.5683   -7.4554 C   0  0  0  0  0  0  0  0  0  0  0  0
   18.4929   62.9079   -9.2301 C   0  0  0  0  0  0  0  0  0  0  0  0
   17.6318   63.8519   -9.7416 C   0  0  0  0  0  0  0  0  0  0  0  0
   16.6716   63.5962  -10.7042 C   0  0  0  0  0  0  0  0  0  0  0  0
   16.5605   62.3246  -11.1890 C   0  0  0  0  0  0  0  0  0  0  0  0
   17.4117   61.3372  -10.7012 C   0  0  0  0  0  0  0  0  0  0  0  0
   18.3570   61.6293   -9.7409 C   0  0  0  0  0  0  0  0  0  0  0  0
   15.8956   64.6617  -11.1010 O   0  0  0  0  0  0  0  0  0  0  0  0
   14.7363   64.6336  -11.8603 C   0  0  0  0  0  0  0  0  0  0  0  0
   24.1554   62.6496   -7.7844 C   0  0  0  0  0  0  0  0  0  0  0  0
   24.9005   63.4951   -6.7405 C   0  0  0  0  0  0  0  0  0  0  0  0
   25.1851   62.6489   -5.5327 C   0  0  0  0  0  0  0  0  0  0  0  0
   25.2693   63.5003   -4.3707 N   0  0  0  0  0  0  0  0  0  0  0  0
   25.9969   62.9309   -3.2803 C   0  0  0  0  0  0  0  0  0  0  0  0
   25.2604   61.8331   -2.5914 C   0  0  0  0  0  0  0  0  0  0  0  0
   24.0191   62.2659   -2.1582 O   0  0  0  0  0  0  0  0  0  0  0  0
   23.2881   62.6492   -3.2831 C   0  0  0  0  0  0  0  0  0  0  0  0
   23.9581   63.8753   -3.8725 C   0  0  0  0  0  0  0  0  0  0  0  0
   25.7379   64.3921   -4.6539 H   0  0  0  0  0  0  0  0  0  0  0  0
 10 11  1  0  0  0
 11 12  2  0  0  0
 11 16  1  0  0  0
 12 13  1  0  0  0
 13 14  2  0  0  0
 14 15  1  0  0  0
 14  1  1  0  0  0
 15 16  2  0  0  0
  1  2  1  0  0  0
  1  7  1  0  0  0
  2  3  1  0  0  0
  2 25  1  0  0  0
  3  4  2  0  0  0
  3  5  1  0  0  0
  5  6  2  0  0  0
  5  7  1  0  0  0
  7  8  2  0  0  0
  8  9  1  0  0  0
  8 17  1  0  0  0
 17 18  2  0  0  0
 17 22  1  0  0  0
 18 19  1  0  0  0
 19 20  2  0  0  0
 19 23  1  0  0  0
 20 21  1  0  0  0
 21 22  2  0  0  0
 23 24  1  0  0  0
 25 26  1  0  0  0
 26 27  1  0  0  0
 27 28  1  0  0  0
 28 29  1  0  0  0
 28 33  1  0  0  0
 29 30  1  0  0  0
 30 31  1  0  0  0
 31 32  1  0  0  0
 32 33  1  0  0  0
 28 34  1  0  0  0
M  CHG 1   9  -1
M  CHG 1  28   1
M  END
> <minimizedAffinity>
-6.66858

$$$$
349


 32 35  0  0  0  0  0  0  0  0999 V2000
   21.8954   63.6740  -10.1949 C   0  0  0  0  0  0  0  0  0  0  0  0
   22.5753   63.1090  -11.2793 N   0  0  0  0  0  0  0  0  0  0  0  0
   21.6736   63.3643  -12.4218 C   0  0  0  0  0  0  0  0  0  0  0  0
   22.0029   63.5411  -13.6271 O   0  0  0  0  0  0  0  0  0  0  0  0
   20.3308   63.3618  -11.8326 C   0  0  0  0  0  0  0  0  0  0  0  0
   19.2163   63.5271  -12.4164 O   0  0  0  0  0  0  0  0  0  0  0  0
   20.5281   63.1163  -10.3910 C   0  0  0  0  0  0  0  0  0  0  0  0
   19.7093   62.5141   -9.5587 C   0  0  0  0  0  0  0  0  0  0  0  0
   20.0810   62.3000   -8.2367 O   0  0  0  0  0  0  0  0  0  0  0  0
   24.1676   64.3232   -4.5236 Br  0  0  0  0  0  0  0  0  0  0  0  0
   23.4521   64.1341   -6.2901 C   0  0  0  0  0  0  0  0  0  0  0  0
   23.9017   63.1588   -7.1535 C   0  0  0  0  0  0  0  0  0  0  0  0
   23.3776   63.0429   -8.4090 C   0  0  0  0  0  0  0  0  0  0  0  0
   22.3691   63.8955   -8.8832 C   0  0  0  0  0  0  0  0  0  0  0  0
   21.9318   64.8485   -8.0329 C   0  0  0  0  0  0  0  0  0  0  0  0
   22.4643   64.9717   -6.7488 C   0  0  0  0  0  0  0  0  0  0  0  0
   18.3862   62.0488   -9.9442 C   0  0  0  0  0  0  0  0  0  0  0  0
   18.0008   60.7522  -10.0818 C   0  0  0  0  0  0  0  0  0  0  0  0
   16.6895   60.4406  -10.4127 C   0  0  0  0  0  0  0  0  0  0  0  0
   15.7624   61.4392  -10.6064 C   0  0  0  0  0  0  0  0  0  0  0  0
   16.1121   62.7628  -10.4771 C   0  0  0  0  0  0  0  0  0  0  0  0
   17.4289   63.0498  -10.1454 C   0  0  0  0  0  0  0  0  0  0  0  0
   14.3428   61.1426  -10.9633 C   0  0  0  0  0  0  0  0  0  0  0  0
   23.8382   62.4356  -11.5429 C   0  0  0  0  0  0  0  0  0  0  0  0
   24.9374   63.3534  -12.0101 C   0  0  0  0  0  0  0  0  0  0  0  0
   25.5193   62.9714  -13.2546 N   0  0  0  0  0  0  0  0  0  0  0  0
   26.9051   63.3971  -13.3124 C   0  0  0  0  0  0  0  0  0  0  0  0
   27.4955   62.9391  -14.6198 C   0  0  0  0  0  0  0  0  0  0  0  0
   26.8791   63.7069  -15.6212 O   0  0  0  0  0  0  0  0  0  0  0  0
   25.5415   63.3869  -15.6308 C   0  0  0  0  0  0  0  0  0  0  0  0
   24.8481   63.7211  -14.3354 C   0  0  0  0  0  0  0  0  0  0  0  0
   25.4310   61.9647  -13.4551 H   0  0  0  0  0  0  0  0  0  0  0  0
 10 11  1  0  0  0
 11 12  2  0  0  0
 11 16  1  0  0  0
 12 13  1  0  0  0
 13 14  2  0  0  0
 14 15  1  0  0  0
 14  1  1  0  0  0
 15 16  2  0  0  0
  1  2  1  0  0  0
  1  7  1  0  0  0
  2  3  1  0  0  0
  2 24  1  0  0  0
  3  4  2  0  0  0
  3  5  1  0  0  0
  5  6  2  0  0  0
  5  7  1  0  0  0
  7  8  2  0  0  0
  8  9  1  0  0  0
  8 17  1  0  0  0
 17 18  2  0  0  0
 17 22  1  0  0  0
 18 19  1  0  0  0
 19 20  2  0  0  0
 20 21  1  0  0  0
 20 23  1  0  0  0
 21 22  2  0  0  0
 24 25  1  0  0  0
 25 26  1  0  0  0
 26 27  1  0  0  0
 26 31  1  0  0  0
 27 28  1  0  0  0
 28 29  1  0  0  0
 29 30  1  0  0  0
 30 31  1  0  0  0
 26 32  1  0  0  0
M  CHG 1   9  -1
M  CHG 1  26   1
M  END
> <minimizedAffinity>
-7.94372

$$$$
351


 32 35  0  0  0  0  0  0  0  0999 V2000
   21.9298   63.9299  -10.1678 C   0  0  0  0  0  0  0  0  0  0  0  0
   22.6393   63.2637  -11.1980 N   0  0  0  0  0  0  0  0  0  0  0  0
   21.7480   63.3775  -12.3482 C   0  0  0  0  0  0  0  0  0  0  0  0
   22.0981   63.4046  -13.5596 O   0  0  0  0  0  0  0  0  0  0  0  0
   20.3955   63.4492  -11.7979 C   0  0  0  0  0  0  0  0  0  0  0  0
   19.3048   63.5469  -12.4178 O   0  0  0  0  0  0  0  0  0  0  0  0
   20.5526   63.3803  -10.3435 C   0  0  0  0  0  0  0  0  0  0  0  0
   19.6941   62.9038   -9.4599 C   0  0  0  0  0  0  0  0  0  0  0  0
   20.0286   62.8534   -8.1158 O   0  0  0  0  0  0  0  0  0  0  0  0
   24.1124   64.1337   -4.4361 Br  0  0  0  0  0  0  0  0  0  0  0  0
   23.4095   64.1181   -6.2031 C   0  0  0  0  0  0  0  0  0  0  0  0
   22.5109   65.0529   -6.6642 C   0  0  0  0  0  0  0  0  0  0  0  0
   22.0146   65.0091   -7.9754 C   0  0  0  0  0  0  0  0  0  0  0  0
   22.4095   64.0302   -8.8426 C   0  0  0  0  0  0  0  0  0  0  0  0
   23.3108   63.1077   -8.3528 C   0  0  0  0  0  0  0  0  0  0  0  0
   23.8083   63.1361   -7.0702 C   0  0  0  0  0  0  0  0  0  0  0  0
   18.3669   62.4156   -9.8075 C   0  0  0  0  0  0  0  0  0  0  0  0
   17.3965   63.4166   -9.9508 C   0  0  0  0  0  0  0  0  0  0  0  0
   16.1017   63.1295  -10.3156 C   0  0  0  0  0  0  0  0  0  0  0  0
   15.7627   61.8006  -10.5457 C   0  0  0  0  0  0  0  0  0  0  0  0
   16.7220   60.8223  -10.4033 C   0  0  0  0  0  0  0  0  0  0  0  0
   18.0178   61.1211  -10.0377 C   0  0  0  0  0  0  0  0  0  0  0  0
   14.1132   61.4473  -11.0080 Cl  0  0  0  0  0  0  0  0  0  0  0  0
   23.9569   62.6268  -11.2767 C   0  0  0  0  0  0  0  0  0  0  0  0
   24.5233   62.5461  -12.6606 C   0  0  0  0  0  0  0  0  0  0  0  0
   24.8490   63.8434  -13.2093 N   0  0  0  0  0  0  0  0  0  0  0  0
   24.6691   63.9105  -14.6325 C   0  0  0  0  0  0  0  0  0  0  0  0
   25.6756   63.1159  -15.4119 C   0  0  0  0  0  0  0  0  0  0  0  0
   26.9868   63.4231  -15.0447 O   0  0  0  0  0  0  0  0  0  0  0  0
   27.0958   63.1050  -13.6825 C   0  0  0  0  0  0  0  0  0  0  0  0
   26.2486   64.1077  -12.9289 C   0  0  0  0  0  0  0  0  0  0  0  0
   24.3008   64.6105  -12.7744 H   0  0  0  0  0  0  0  0  0  0  0  0
 10 11  1  0  0  0
 11 12  2  0  0  0
 11 16  1  0  0  0
 12 13  1  0  0  0
 13 14  2  0  0  0
 14 15  1  0  0  0
 14  1  1  0  0  0
 15 16  2  0  0  0
  1  2  1  0  0  0
  1  7  1  0  0  0
  2  3  1  0  0  0
  2 24  1  0  0  0
  3  4  2  0  0  0
  3  5  1  0  0  0
  5  6  2  0  0  0
  5  7  1  0  0  0
  7  8  2  0  0  0
  8  9  1  0  0  0
  8 17  1  0  0  0
 17 18  2  0  0  0
 17 22  1  0  0  0
 18 19  1  0  0  0
 19 20  2  0  0  0
 20 21  1  0  0  0
 20 23  1  0  0  0
 21 22  2  0  0  0
 24 25  1  0  0  0
 25 26  1  0  0  0
 26 27  1  0  0  0
 26 31  1  0  0  0
 27 28  1  0  0  0
 28 29  1  0  0  0
 29 30  1  0  0  0
 30 31  1  0  0  0
 26 32  1  0  0  0
M  CHG 1   9  -1
M  CHG 1  26   1
M  END
> <minimizedAffinity>
-8.35023

$$$$
354


 32 35  0  0  0  0  0  0  0  0999 V2000
   21.8570   64.0674  -10.2006 C   0  0  0  0  0  0  0  0  0  0  0  0
   22.7369   63.5243  -11.1851 N   0  0  0  0  0  0  0  0  0  0  0  0
   21.8919   63.1741  -12.3116 C   0  0  0  0  0  0  0  0  0  0  0  0
   22.3040   63.0119  -13.4897 O   0  0  0  0  0  0  0  0  0  0  0  0
   20.5306   63.0525  -11.8262 C   0  0  0  0  0  0  0  0  0  0  0  0
   19.4925   62.7562  -12.4924 O   0  0  0  0  0  0  0  0  0  0  0  0
   20.5779   63.3375  -10.4066 C   0  0  0  0  0  0  0  0  0  0  0  0
   19.6731   62.9789   -9.5132 C   0  0  0  0  0  0  0  0  0  0  0  0
   19.9531   63.3268   -8.1693 O   0  0  0  0  0  0  0  0  0  0  0  0
   23.9281   63.7539   -4.3854 Br  0  0  0  0  0  0  0  0  0  0  0  0
   23.2697   63.8911   -6.1722 C   0  0  0  0  0  0  0  0  0  0  0  0
   22.3821   64.8732   -6.5549 C   0  0  0  0  0  0  0  0  0  0  0  0
   21.9148   64.9588   -7.8524 C   0  0  0  0  0  0  0  0  0  0  0  0
   22.2952   64.0911   -8.8190 C   0  0  0  0  0  0  0  0  0  0  0  0
   23.2004   63.0946   -8.4170 C   0  0  0  0  0  0  0  0  0  0  0  0
   23.6793   62.9908   -7.1315 C   0  0  0  0  0  0  0  0  0  0  0  0
   18.4441   62.2773   -9.8251 C   0  0  0  0  0  0  0  0  0  0  0  0
   17.3512   63.0777  -10.1804 C   0  0  0  0  0  0  0  0  0  0  0  0
   16.1333   62.5416  -10.5427 C   0  0  0  0  0  0  0  0  0  0  0  0
   15.9752   61.2057  -10.5593 N   0  0  0  0  0  0  0  0  0  0  0  0
   17.0112   60.4102  -10.2220 C   0  0  0  0  0  0  0  0  0  0  0  0
   18.2467   60.9399   -9.8545 C   0  0  0  0  0  0  0  0  0  0  0  0
   24.1929   63.3735  -11.2237 C   0  0  0  0  0  0  0  0  0  0  0  0
   24.8794   64.1252  -12.3129 C   0  0  0  0  0  0  0  0  0  0  0  0
   26.1193   63.3992  -12.8112 C   0  0  0  0  0  0  0  0  0  0  0  0
   26.4761   63.8252  -14.1445 N   0  0  0  0  0  0  0  0  0  0  0  0
   27.4977   62.9929  -14.7385 C   0  0  0  0  0  0  0  0  0  0  0  0
   27.4674   63.2690  -16.2437 C   0  0  0  0  0  0  0  0  0  0  0  0
   26.3579   62.6224  -16.7874 O   0  0  0  0  0  0  0  0  0  0  0  0
   25.2443   62.7262  -15.9550 C   0  0  0  0  0  0  0  0  0  0  0  0
   25.3538   63.9183  -15.0268 C   0  0  0  0  0  0  0  0  0  0  0  0
   26.8856   64.7854  -14.0491 H   0  0  0  0  0  0  0  0  0  0  0  0
 10 11  1  0  0  0
 11 12  2  0  0  0
 11 16  1  0  0  0
 12 13  1  0  0  0
 13 14  2  0  0  0
 14 15  1  0  0  0
 14  1  1  0  0  0
 15 16  2  0  0  0
  1  2  1  0  0  0
  1  7  1  0  0  0
  2  3  1  0  0  0
  2 23  1  0  0  0
  3  4  2  0  0  0
  3  5  1  0  0  0
  5  6  2  0  0  0
  5  7  1  0  0  0
  7  8  2  0  0  0
  8  9  1  0  0  0
  8 17  1  0  0  0
 17 18  2  0  0  0
 17 22  1  0  0  0
 18 19  1  0  0  0
 19 20  2  0  0  0
 20 21  1  0  0  0
 21 22  2  0  0  0
 23 24  1  0  0  0
 24 25  1  0  0  0
 25 26  1  0  0  0
 26 27  1  0  0  0
 26 31  1  0  0  0
 27 28  1  0  0  0
 28 29  1  0  0  0
 29 30  1  0  0  0
 30 31  1  0  0  0
 26 32  1  0  0  0
M  CHG 1   9  -1
M  CHG 1  26   1
M  END
> <minimizedAffinity>
-8.38103

$$$$
361


 33 36  0  0  0  0  0  0  0  0999 V2000
   20.9446   64.4715   -9.7925 C   0  0  0  0  0  0  0  0  0  0  0  0
   19.7500   63.6191   -9.9376 N   0  0  0  0  0  0  0  0  0  0  0  0
   20.1330   62.3712   -9.3703 C   0  0  0  0  0  0  0  0  0  0  0  0
   19.6086   61.2610   -9.6738 O   0  0  0  0  0  0  0  0  0  0  0  0
   21.2038   62.6013   -8.4062 C   0  0  0  0  0  0  0  0  0  0  0  0
   21.7847   61.7434   -7.7101 O   0  0  0  0  0  0  0  0  0  0  0  0
   21.4359   64.0335   -8.4344 C   0  0  0  0  0  0  0  0  0  0  0  0
   21.9230   64.7941   -7.4875 C   0  0  0  0  0  0  0  0  0  0  0  0
   22.0343   66.1666   -7.6587 O   0  0  0  0  0  0  0  0  0  0  0  0
   22.3725   64.2453   -6.2221 C   0  0  0  0  0  0  0  0  0  0  0  0
   23.5764   63.7875   -5.8220 N   0  0  0  0  0  0  0  0  0  0  0  0
   23.5196   63.3347   -4.5611 C   0  0  0  0  0  0  0  0  0  0  0  0
   22.2432   63.5131   -4.1575 N   0  0  0  0  0  0  0  0  0  0  0  0
   21.5169   64.0556   -5.1153 C   0  0  0  0  0  0  0  0  0  0  0  0
   20.0668   64.4323   -5.1170 C   0  0  0  0  0  0  0  0  0  0  0  0
   24.6272   62.8197   -3.8867 C   0  0  0  0  0  0  0  0  0  0  0  0
   25.8493   62.7613   -4.5159 C   0  0  0  0  0  0  0  0  0  0  0  0
   25.8894   63.2323   -5.8080 C   0  0  0  0  0  0  0  0  0  0  0  0
   24.7806   63.7336   -6.4473 C   0  0  0  0  0  0  0  0  0  0  0  0
   25.3135   62.8849  -13.9274 Br  0  0  0  0  0  0  0  0  0  0  0  0
   23.9656   63.3717  -12.6474 C   0  0  0  0  0  0  0  0  0  0  0  0
   22.6234   63.2088  -12.9383 C   0  0  0  0  0  0  0  0  0  0  0  0
   21.6572   63.5664  -11.9996 C   0  0  0  0  0  0  0  0  0  0  0  0
   21.9865   64.0851  -10.7699 C   0  0  0  0  0  0  0  0  0  0  0  0
   23.3290   64.2388  -10.5002 C   0  0  0  0  0  0  0  0  0  0  0  0
   24.2908   63.8897  -11.4189 C   0  0  0  0  0  0  0  0  0  0  0  0
   18.4995   63.9974  -10.5413 C   0  0  0  0  0  0  0  0  0  0  0  0
   17.2340   63.6977   -9.8389 C   0  0  0  0  0  0  0  0  0  0  0  0
   16.0313   64.5249  -10.0657 C   0  0  0  0  0  0  0  0  0  0  0  0
   14.8735   63.8921  -10.6213 N   0  0  0  0  0  0  0  0  0  0  0  0
   14.6597   64.5013  -11.9650 C   0  0  0  0  0  0  0  0  0  0  0  0
   15.1603   62.5011  -10.9064 C   0  0  0  0  0  0  0  0  0  0  0  0
   14.0052   63.9698  -10.0922 H   0  0  0  0  0  0  0  0  0  0  0  0
 20 21  1  0  0  0
 21 22  2  0  0  0
 21 26  1  0  0  0
 22 23  1  0  0  0
 23 24  2  0  0  0
 24 25  1  0  0  0
 24  1  1  0  0  0
 25 26  2  0  0  0
  1  2  1  0  0  0
  1  7  1  0  0  0
  2  3  1  0  0  0
  2 27  1  0  0  0
  3  4  2  0  0  0
  3  5  1  0  0  0
  5  6  2  0  0  0
  5  7  1  0  0  0
  7  8  2  0  0  0
  8  9  1  0  0  0
  8 10  1  0  0  0
 10 11  1  0  0  0
 10 14  2  0  0  0
 11 12  1  0  0  0
 11 19  1  0  0  0
 12 13  2  0  0  0
 12 16  1  0  0  0
 13 14  1  0  0  0
 14 15  1  0  0  0
 16 17  2  0  0  0
 17 18  1  0  0  0
 18 19  2  0  0  0
 27 28  1  0  0  0
 28 29  1  0  0  0
 29 30  1  0  0  0
 30 31  1  0  0  0
 30 32  1  0  0  0
 30 33  1  0  0  0
M  CHG 1   9  -1
M  CHG 1  30   1
M  END
> <minimizedAffinity>
-2.41609

$$$$
362


 36 40  0  0  0  0  0  0  0  0999 V2000
   21.5750   63.7598   -9.6369 C   0  0  0  0  0  0  0  0  0  0  0  0
   22.0266   63.4015   -8.3583 N   0  0  0  0  0  0  0  0  0  0  0  0
   20.8643   63.6582   -7.5248 C   0  0  0  0  0  0  0  0  0  0  0  0
   20.8363   63.9414   -6.2787 O   0  0  0  0  0  0  0  0  0  0  0  0
   19.6813   63.5356   -8.3693 C   0  0  0  0  0  0  0  0  0  0  0  0
   18.4457   63.6727   -8.0959 O   0  0  0  0  0  0  0  0  0  0  0  0
   20.1988   63.2035   -9.6951 C   0  0  0  0  0  0  0  0  0  0  0  0
   19.5767   62.6035  -10.6924 C   0  0  0  0  0  0  0  0  0  0  0  0
   20.2249   62.4231  -11.9065 O   0  0  0  0  0  0  0  0  0  0  0  0
   18.2141   62.1056  -10.5833 C   0  0  0  0  0  0  0  0  0  0  0  0
   17.0768   62.7265  -10.9389 N   0  0  0  0  0  0  0  0  0  0  0  0
   16.0159   61.9166  -10.7147 C   0  0  0  0  0  0  0  0  0  0  0  0
   16.5122   60.7752  -10.2111 N   0  0  0  0  0  0  0  0  0  0  0  0
   17.8378   60.8460  -10.1137 C   0  0  0  0  0  0  0  0  0  0  0  0
   18.8112   59.8370   -9.6176 C   0  0  0  0  0  0  0  0  0  0  0  0
   14.7199   62.3041  -10.9806 C   0  0  0  0  0  0  0  0  0  0  0  0
   14.4458   63.5507  -11.4914 C   0  0  0  0  0  0  0  0  0  0  0  0
   15.5136   64.3886  -11.7236 C   0  0  0  0  0  0  0  0  0  0  0  0
   16.7735   63.9576  -11.4451 C   0  0  0  0  0  0  0  0  0  0  0  0
   25.0939   62.9959  -14.6081 Br  0  0  0  0  0  0  0  0  0  0  0  0
   23.9833   63.2392  -13.0761 C   0  0  0  0  0  0  0  0  0  0  0  0
   22.6077   63.3368  -13.1737 C   0  0  0  0  0  0  0  0  0  0  0  0
   21.8043   63.5125  -12.0669 C   0  0  0  0  0  0  0  0  0  0  0  0
   22.3586   63.5953  -10.8217 C   0  0  0  0  0  0  0  0  0  0  0  0
   23.7174   63.4992  -10.7201 C   0  0  0  0  0  0  0  0  0  0  0  0
   24.5355   63.3240  -11.8125 C   0  0  0  0  0  0  0  0  0  0  0  0
   23.2095   62.9313   -7.7133 C   0  0  0  0  0  0  0  0  0  0  0  0
   24.1389   63.7987   -7.0231 C   0  0  0  0  0  0  0  0  0  0  0  0
   23.9780   63.9620   -5.5299 C   0  0  0  0  0  0  0  0  0  0  0  0
   24.1331   62.6873   -4.8358 N   0  0  0  0  0  0  0  0  0  0  0  0
   23.5447   62.6590   -3.5294 C   0  0  0  0  0  0  0  0  0  0  0  0
   24.4432   63.1337   -2.4255 C   0  0  0  0  0  0  0  0  0  0  0  0
   25.5557   63.7989   -2.8671 O   0  0  0  0  0  0  0  0  0  0  0  0
   26.3017   63.1390   -3.8085 C   0  0  0  0  0  0  0  0  0  0  0  0
   25.5040   62.2865   -4.7390 C   0  0  0  0  0  0  0  0  0  0  0  0
   23.6203   61.9769   -5.4154 H   0  0  0  0  0  0  0  0  0  0  0  0
 20 21  1  0  0  0
 21 22  2  0  0  0
 21 26  1  0  0  0
 22 23  1  0  0  0
 23 24  2  0  0  0
 24 25  1  0  0  0
 24  1  1  0  0  0
 25 26  2  0  0  0
  1  2  1  0  0  0
  1  7  1  0  0  0
  2  3  1  0  0  0
  2 27  1  0  0  0
  3  4  2  0  0  0
  3  5  1  0  0  0
  5  6  2  0  0  0
  5  7  1  0  0  0
  7  8  2  0  0  0
  8  9  1  0  0  0
  8 10  1  0  0  0
 10 11  1  0  0  0
 10 14  2  0  0  0
 11 12  1  0  0  0
 11 19  1  0  0  0
 12 13  2  0  0  0
 12 16  1  0  0  0
 13 14  1  0  0  0
 14 15  1  0  0  0
 16 17  2  0  0  0
 17 18  1  0  0  0
 18 19  2  0  0  0
 27 28  1  0  0  0
 28 29  1  0  0  0
 29 30  1  0  0  0
 30 31  1  0  0  0
 30 35  1  0  0  0
 31 32  1  0  0  0
 32 33  1  0  0  0
 33 34  1  0  0  0
 34 35  1  0  0  0
 30 36  1  0  0  0
M  CHG 1   9  -1
M  CHG 1  30   1
M  END
> <minimizedAffinity>
-8.16899

$$$$
364


 32 35  0  0  0  0  0  0  0  0999 V2000
   11.9888   64.1950  -14.7465 C   0  0  0  0  0  0  0  0  0  0  0  0
   10.9267   63.2511  -14.5327 N   0  0  0  0  0  0  0  0  0  0  0  0
    9.7777   63.9846  -14.1458 C   0  0  0  0  0  0  0  0  0  0  0  0
    8.7103   63.4902  -13.6827 O   0  0  0  0  0  0  0  0  0  0  0  0
   10.0219   65.4121  -14.3669 C   0  0  0  0  0  0  0  0  0  0  0  0
    9.2365   66.3672  -14.1472 O   0  0  0  0  0  0  0  0  0  0  0  0
   11.3665   65.5271  -14.9025 C   0  0  0  0  0  0  0  0  0  0  0  0
   11.8838   66.6074  -15.4652 C   0  0  0  0  0  0  0  0  0  0  0  0
   13.1843   66.4958  -15.9949 O   0  0  0  0  0  0  0  0  0  0  0  0
   11.2494   67.8967  -15.5832 C   0  0  0  0  0  0  0  0  0  0  0  0
   11.3460   69.0320  -14.8806 N   0  0  0  0  0  0  0  0  0  0  0  0
   10.5071   69.9664  -15.3604 C   0  0  0  0  0  0  0  0  0  0  0  0
    9.8574   69.4137  -16.3986 N   0  0  0  0  0  0  0  0  0  0  0  0
   10.2822   68.1598  -16.5626 C   0  0  0  0  0  0  0  0  0  0  0  0
    9.7990   67.2201  -17.6130 C   0  0  0  0  0  0  0  0  0  0  0  0
   10.4056   71.2504  -14.8360 C   0  0  0  0  0  0  0  0  0  0  0  0
   11.2031   71.5812  -13.7754 C   0  0  0  0  0  0  0  0  0  0  0  0
   12.0684   70.6228  -13.2804 C   0  0  0  0  0  0  0  0  0  0  0  0
   12.1312   69.3649  -13.8336 C   0  0  0  0  0  0  0  0  0  0  0  0
   16.1920   64.1987  -10.1633 Br  0  0  0  0  0  0  0  0  0  0  0  0
   14.8877   64.1598  -11.5594 C   0  0  0  0  0  0  0  0  0  0  0  0
   14.7948   65.2290  -12.4037 C   0  0  0  0  0  0  0  0  0  0  0  0
   13.8600   65.2145  -13.4124 C   0  0  0  0  0  0  0  0  0  0  0  0
   12.9876   64.1752  -13.6438 C   0  0  0  0  0  0  0  0  0  0  0  0
   13.1092   63.0985  -12.7639 C   0  0  0  0  0  0  0  0  0  0  0  0
   14.0377   63.0965  -11.7498 C   0  0  0  0  0  0  0  0  0  0  0  0
   11.0056   61.7819  -14.6872 C   0  0  0  0  0  0  0  0  0  0  0  0
   10.2568   61.3530  -15.9309 C   0  0  0  0  0  0  0  0  0  0  0  0
    9.3152   60.3155  -15.6947 N   0  0  0  0  0  0  0  0  0  0  0  0
    9.7553   59.1373  -16.4424 C   0  0  0  0  0  0  0  0  0  0  0  0
    9.1416   59.9488  -14.3233 C   0  0  0  0  0  0  0  0  0  0  0  0
    8.3570   60.5553  -16.0763 H   0  0  0  0  0  0  0  0  0  0  0  0
 20 21  1  0  0  0
 21 22  2  0  0  0
 21 26  1  0  0  0
 22 23  1  0  0  0
 23 24  2  0  0  0
 24 25  1  0  0  0
 24  1  1  0  0  0
 25 26  2  0  0  0
  1  2  1  0  0  0
  1  7  1  0  0  0
  2  3  1  0  0  0
  2 27  1  0  0  0
  3  4  2  0  0  0
  3  5  1  0  0  0
  5  6  2  0  0  0
  5  7  1  0  0  0
  7  8  2  0  0  0
  8  9  1  0  0  0
  8 10  1  0  0  0
 10 11  1  0  0  0
 10 14  2  0  0  0
 11 12  1  0  0  0
 11 19  1  0  0  0
 12 13  2  0  0  0
 12 16  1  0  0  0
 13 14  1  0  0  0
 14 15  1  0  0  0
 16 17  2  0  0  0
 17 18  1  0  0  0
 18 19  2  0  0  0
 27 28  1  0  0  0
 28 29  1  0  0  0
 29 30  1  0  0  0
 29 31  1  0  0  0
 29 32  1  0  0  0
M  CHG 1   9  -1
M  CHG 1  29   1
M  END
> <minimizedAffinity>
-5.66804

$$$$
381


 29 32  0  0  0  0  0  0  0  0999 V2000
   21.1062   64.7970   -9.2056 N   0  0  0  0  0  0  0  0  0  0  0  0
   19.8960   64.5204   -9.6823 N   0  0  0  0  0  0  0  0  0  0  0  0
   19.7216   63.7423  -10.7887 C   0  0  0  0  0  0  0  0  0  0  0  0
   20.7978   63.2427  -11.4157 N   0  0  0  0  0  0  0  0  0  0  0  0
   20.3972   62.4711  -12.5717 C   0  0  0  0  0  0  0  0  0  0  0  0
   18.8991   62.5133  -12.6267 C   0  0  0  0  0  0  0  0  0  0  0  0
   18.5477   63.2848  -11.4493 N   0  0  0  0  0  0  0  0  0  0  0  0
   22.0420   63.4865  -10.9829 C   0  0  0  0  0  0  0  0  0  0  0  0
   23.0461   63.0185  -11.5705 O   0  0  0  0  0  0  0  0  0  0  0  0
   22.1612   64.2783   -9.8584 C   0  0  0  0  0  0  0  0  0  0  0  0
   23.3088   64.5362   -9.4151 O   0  0  0  0  0  0  0  0  0  0  0  0
   17.2080   63.5176  -11.0588 C   0  0  0  0  0  0  0  0  0  0  0  0
   16.7509   64.7162  -10.5804 C   0  0  0  0  0  0  0  0  0  0  0  0
   15.4368   64.9076  -10.1914 C   0  0  0  0  0  0  0  0  0  0  0  0
   14.5388   63.8614  -10.2832 C   0  0  0  0  0  0  0  0  0  0  0  0
   14.9722   62.6631  -10.7566 C   0  0  0  0  0  0  0  0  0  0  0  0
   16.2835   62.4806  -11.1409 C   0  0  0  0  0  0  0  0  0  0  0  0
   21.3090   65.6076   -7.9934 C   0  0  0  0  0  0  0  0  0  0  0  0
   23.2769   64.7259   -6.5916 N   0  0  0  0  0  0  0  0  0  0  0  0
   21.9217   64.8091   -6.9330 C   0  0  0  0  0  0  0  0  0  0  0  0
   21.0623   64.1137   -6.2585 O   0  0  0  0  0  0  0  0  0  0  0  0
   23.9453   65.3039   -7.1759 H   0  0  0  0  0  0  0  0  0  0  0  0
   25.8292   61.0738   -2.3306 Br  0  0  0  0  0  0  0  0  0  0  0  0
   25.0212   62.2282   -3.6210 C   0  0  0  0  0  0  0  0  0  0  0  0
   24.0102   63.0906   -3.2883 C   0  0  0  0  0  0  0  0  0  0  0  0
   23.4235   63.9304   -4.2452 C   0  0  0  0  0  0  0  0  0  0  0  0
   23.8135   63.9496   -5.5609 C   0  0  0  0  0  0  0  0  0  0  0  0
   24.8554   63.0524   -5.8675 C   0  0  0  0  0  0  0  0  0  0  0  0
   25.4314   62.2296   -4.9397 C   0  0  0  0  0  0  0  0  0  0  0  0
 23 24  1  0  0  0
 24 25  2  0  0  0
 24 29  1  0  0  0
 25 26  1  0  0  0
 26 27  2  0  0  0
 27 28  1  0  0  0
 27 19  1  0  0  0
 28 29  2  0  0  0
 19 20  1  0  0  0
 20 21  2  0  0  0
 20 18  1  0  0  0
 18  1  1  0  0  0
  1  2  1  0  0  0
  1 10  1  0  0  0
  2  3  2  0  0  0
  3  4  1  0  0  0
  3  7  1  0  0  0
  4  5  1  0  0  0
  4  8  1  0  0  0
  5  6  1  0  0  0
  6  7  1  0  0  0
  7 12  1  0  0  0
 12 13  2  0  0  0
 12 17  1  0  0  0
 13 14  1  0  0  0
 14 15  2  0  0  0
 15 16  1  0  0  0
 16 17  2  0  0  0
  8  9  2  0  0  0
  8 10  1  0  0  0
 10 11  2  0  0  0
 19 22  1  0  0  0
M  END
> <minimizedAffinity>
-7.52104

$$$$
382


 31 34  0  0  0  0  0  0  0  0999 V2000
   14.8350   62.3744  -10.7729 N   0  0  0  0  0  0  0  0  0  0  0  0
   14.5865   61.0918  -11.0386 N   0  0  0  0  0  0  0  0  0  0  0  0
   15.6897   60.3943  -10.8960 N   0  0  0  0  0  0  0  0  0  0  0  0
   16.6844   61.2365  -10.5270 C   0  0  0  0  0  0  0  0  0  0  0  0
   16.1387   62.4566  -10.4555 C   0  0  0  0  0  0  0  0  0  0  0  0
   17.1785   63.2809  -10.0795 C   0  0  0  0  0  0  0  0  0  0  0  0
   17.0328   64.5281   -9.9101 O   0  0  0  0  0  0  0  0  0  0  0  0
   18.3265   62.6041   -9.9219 N   0  0  0  0  0  0  0  0  0  0  0  0
   18.0194   61.3063  -10.2053 C   0  0  0  0  0  0  0  0  0  0  0  0
   18.8708   60.3770  -10.1589 O   0  0  0  0  0  0  0  0  0  0  0  0
   13.6455   60.7405  -11.3129 H   0  0  0  0  0  0  0  0  0  0  0  0
   15.8343   59.3626  -11.0302 H   0  0  0  0  0  0  0  0  0  0  0  0
   19.6184   63.0979   -9.5389 C   0  0  0  0  0  0  0  0  0  0  0  0
   19.9565   63.2431   -8.2105 C   0  0  0  0  0  0  0  0  0  0  0  0
   21.2010   63.7071   -7.8337 C   0  0  0  0  0  0  0  0  0  0  0  0
   22.1674   64.0503   -8.7617 C   0  0  0  0  0  0  0  0  0  0  0  0
   21.8319   63.9060  -10.0914 C   0  0  0  0  0  0  0  0  0  0  0  0
   20.5819   63.4392  -10.4639 C   0  0  0  0  0  0  0  0  0  0  0  0
   23.5007   64.5427   -8.3213 C   0  0  0  0  0  0  0  0  0  0  0  0
   13.8449   63.4313  -10.8333 C   0  0  0  0  0  0  0  0  0  0  0  0
   13.0788   64.8948  -12.7487 N   0  0  0  0  0  0  0  0  0  0  0  0
   14.1346   64.2956  -12.0491 C   0  0  0  0  0  0  0  0  0  0  0  0
   15.3196   64.4560  -12.4089 O   0  0  0  0  0  0  0  0  0  0  0  0
   12.0806   64.7233  -12.4070 H   0  0  0  0  0  0  0  0  0  0  0  0
   13.3469   68.6429  -17.6150 Br  0  0  0  0  0  0  0  0  0  0  0  0
   13.3108   67.4535  -16.1331 C   0  0  0  0  0  0  0  0  0  0  0  0
   14.0708   66.3128  -16.0814 C   0  0  0  0  0  0  0  0  0  0  0  0
   14.0068   65.4759  -14.9756 C   0  0  0  0  0  0  0  0  0  0  0  0
   13.2003   65.7251  -13.8862 C   0  0  0  0  0  0  0  0  0  0  0  0
   12.4358   66.9042  -13.9743 C   0  0  0  0  0  0  0  0  0  0  0  0
   12.4965   67.7240  -15.0555 C   0  0  0  0  0  0  0  0  0  0  0  0
 25 26  1  0  0  0
 26 27  2  0  0  0
 26 31  1  0  0  0
 27 28  1  0  0  0
 28 29  2  0  0  0
 29 30  1  0  0  0
 29 21  1  0  0  0
 30 31  2  0  0  0
 21 22  1  0  0  0
 22 23  2  0  0  0
 22 20  1  0  0  0
 20  1  1  0  0  0
  1  2  1  0  0  0
  1  5  1  0  0  0
  2  3  1  0  0  0
  3  4  1  0  0  0
  4  5  2  0  0  0
  4  9  1  0  0  0
  5  6  1  0  0  0
  6  7  2  0  0  0
  6  8  1  0  0  0
  8  9  1  0  0  0
  8 13  1  0  0  0
  9 10  2  0  0  0
 13 14  2  0  0  0
 13 18  1  0  0  0
 14 15  1  0  0  0
 15 16  2  0  0  0
 16 17  1  0  0  0
 16 19  1  0  0  0
 17 18  2  0  0  0
 21 24  1  0  0  0
  2 11  1  0  0  0
  3 12  1  0  0  0
M  END
> <minimizedAffinity>
-8.92986

$$$$
385


 32 35  0  0  0  0  0  0  0  0999 V2000
   20.9314   64.1624   -9.0412 C   0  0  0  0  0  0  0  0  0  0  0  0
   21.4692   64.2461  -10.4388 C   0  0  0  0  0  0  0  0  0  0  0  0
   22.6674   63.4329  -10.6819 C   0  0  0  0  0  0  0  0  0  0  0  0
   22.8420   62.9711  -11.8423 O   0  0  0  0  0  0  0  0  0  0  0  0
   23.5855   63.1837   -9.6324 N   0  0  0  0  0  0  0  0  0  0  0  0
   23.2086   63.4211   -8.2928 C   0  0  0  0  0  0  0  0  0  0  0  0
   24.1172   63.1860   -7.2956 N   0  0  0  0  0  0  0  0  0  0  0  0
   23.8328   63.4016   -6.0096 C   0  0  0  0  0  0  0  0  0  0  0  0
   22.6112   63.8622   -5.7118 N   0  0  0  0  0  0  0  0  0  0  0  0
   21.6680   64.1114   -6.6667 C   0  0  0  0  0  0  0  0  0  0  0  0
   21.9372   63.8975   -8.0040 C   0  0  0  0  0  0  0  0  0  0  0  0
   20.3784   64.5890   -6.2980 N   0  0  0  0  0  0  0  0  0  0  0  0
   24.5635   62.8186   -9.8221 H   0  0  0  0  0  0  0  0  0  0  0  0
   19.7229   65.0087   -6.9640 H   0  0  0  0  0  0  0  0  0  0  0  0
   20.0861   64.5132   -5.2903 H   0  0  0  0  0  0  0  0  0  0  0  0
   24.8083   63.1430   -4.9738 N   0  0  0  0  0  0  0  0  0  0  0  0
   26.0383   62.5549   -5.3750 C   0  0  0  0  0  0  0  0  0  0  0  0
   27.1542   62.7183   -4.3838 C   0  0  0  0  0  0  0  0  0  0  0  0
   26.7874   63.5004   -3.2940 O   0  0  0  0  0  0  0  0  0  0  0  0
   25.6014   63.0637   -2.7194 C   0  0  0  0  0  0  0  0  0  0  0  0
   24.4697   63.5026   -3.6123 C   0  0  0  0  0  0  0  0  0  0  0  0
   18.6677   63.3223   -9.6154 N   0  0  0  0  0  0  0  0  0  0  0  0
   19.8519   63.0595   -9.0891 C   0  0  0  0  0  0  0  0  0  0  0  0
   20.3207   61.9736   -8.5622 O   0  0  0  0  0  0  0  0  0  0  0  0
   18.2067   62.1124   -9.1920 H   0  0  0  0  0  0  0  0  0  0  0  0
   13.0530   63.9948  -11.9062 Br  0  0  0  0  0  0  0  0  0  0  0  0
   14.8318   63.8241  -11.2049 C   0  0  0  0  0  0  0  0  0  0  0  0
   15.4674   62.6079  -11.1771 C   0  0  0  0  0  0  0  0  0  0  0  0
   16.7142   62.4744  -10.6834 C   0  0  0  0  0  0  0  0  0  0  0  0
   17.4381   63.5931  -10.1612 C   0  0  0  0  0  0  0  0  0  0  0  0
   16.7642   64.7937  -10.2084 C   0  0  0  0  0  0  0  0  0  0  0  0
   15.4946   64.9275  -10.7136 C   0  0  0  0  0  0  0  0  0  0  0  0
 26 27  1  0  0  0
 27 28  2  0  0  0
 27 32  1  0  0  0
 28 29  1  0  0  0
 29 30  2  0  0  0
 30 31  1  0  0  0
 30 22  1  0  0  0
 31 32  2  0  0  0
 22 23  1  0  0  0
 23 24  2  0  0  0
 23  1  1  0  0  0
  1  2  1  0  0  0
  1 11  1  0  0  0
  2  3  1  0  0  0
  3  4  2  0  0  0
  3  5  1  0  0  0
  5  6  1  0  0  0
  6  7  2  0  0  0
  6 11  1  0  0  0
  7  8  1  0  0  0
  8  9  2  0  0  0
  8 16  1  0  0  0
  9 10  1  0  0  0
 10 11  2  0  0  0
 10 12  1  0  0  0
 16 17  1  0  0  0
 16 21  1  0  0  0
 17 18  1  0  0  0
 18 19  1  0  0  0
 19 20  1  0  0  0
 20 21  1  0  0  0
 22 25  1  0  0  0
  5 13  1  0  0  0
 12 14  1  0  0  0
 12 15  1  0  0  0
M  END
> <minimizedAffinity>
-8.80925

$$$$
386


 36 39  0  0  0  0  0  0  0  0999 V2000
   16.8110   62.4128  -10.2287 C   0  0  0  0  0  0  0  0  0  0  0  0
   17.3222   61.0095  -10.4961 C   0  0  0  0  0  0  0  0  0  0  0  0
   16.1560   60.0777  -10.4282 C   0  0  0  0  0  0  0  0  0  0  0  0
   16.2102   59.0575   -9.7651 O   0  0  0  0  0  0  0  0  0  0  0  0
   15.0198   60.4442  -11.1637 N   0  0  0  0  0  0  0  0  0  0  0  0
   14.8044   61.7893  -11.5417 C   0  0  0  0  0  0  0  0  0  0  0  0
   13.7692   62.1396  -12.3313 N   0  0  0  0  0  0  0  0  0  0  0  0
   13.5427   63.3634  -12.8097 C   0  0  0  0  0  0  0  0  0  0  0  0
   14.4563   64.3006  -12.4459 N   0  0  0  0  0  0  0  0  0  0  0  0
   15.5214   64.0211  -11.6516 C   0  0  0  0  0  0  0  0  0  0  0  0
   15.7487   62.7720  -11.1602 C   0  0  0  0  0  0  0  0  0  0  0  0
   16.4126   65.0414  -11.3299 O   0  0  0  0  0  0  0  0  0  0  0  0
   14.2868   59.7492  -11.4698 H   0  0  0  0  0  0  0  0  0  0  0  0
   17.0949   65.3983  -11.9954 H   0  0  0  0  0  0  0  0  0  0  0  0
   12.4202   63.7157  -13.5950 N   0  0  0  0  0  0  0  0  0  0  0  0
   11.6947   64.9585  -13.5477 C   0  0  0  0  0  0  0  0  0  0  0  0
   11.3030   65.3383  -14.9725 C   0  0  0  0  0  0  0  0  0  0  0  0
   12.2805   64.8215  -15.9867 C   0  0  0  0  0  0  0  0  0  0  0  0
   12.3826   63.3375  -15.9423 C   0  0  0  0  0  0  0  0  0  0  0  0
   11.9206   62.7559  -14.5863 C   0  0  0  0  0  0  0  0  0  0  0  0
   13.5962   65.4961  -15.8835 C   0  0  0  0  0  0  0  0  0  0  0  0
   14.6190   64.8006  -16.0499 O   0  0  0  0  0  0  0  0  0  0  0  0
   13.7554   66.8717  -15.6041 N   0  0  0  0  0  0  0  0  0  0  0  0
   13.1023   67.5943  -15.9583 H   0  0  0  0  0  0  0  0  0  0  0  0
   14.5618   67.1715  -15.0173 H   0  0  0  0  0  0  0  0  0  0  0  0
   19.1144   63.3198  -10.4440 N   0  0  0  0  0  0  0  0  0  0  0  0
   17.8792   63.3987   -9.9124 C   0  0  0  0  0  0  0  0  0  0  0  0
   17.4158   64.2950   -9.0836 O   0  0  0  0  0  0  0  0  0  0  0  0
   19.4394   64.5028   -9.8873 H   0  0  0  0  0  0  0  0  0  0  0  0
   24.8216   63.3285  -12.4202 Br  0  0  0  0  0  0  0  0  0  0  0  0
   23.0137   63.2865  -11.8612 C   0  0  0  0  0  0  0  0  0  0  0  0
   22.6947   63.5612  -10.5429 C   0  0  0  0  0  0  0  0  0  0  0  0
   21.4268   63.5514  -10.0654 C   0  0  0  0  0  0  0  0  0  0  0  0
   20.3738   63.2401  -10.9846 C   0  0  0  0  0  0  0  0  0  0  0  0
   20.7241   62.9723  -12.2864 C   0  0  0  0  0  0  0  0  0  0  0  0
   22.0208   62.9882  -12.7499 C   0  0  0  0  0  0  0  0  0  0  0  0
 30 31  1  0  0  0
 31 32  2  0  0  0
 31 36  1  0  0  0
 32 33  1  0  0  0
 33 34  2  0  0  0
 34 35  1  0  0  0
 34 26  1  0  0  0
 35 36  2  0  0  0
 26 27  1  0  0  0
 27 28  2  0  0  0
 27  1  1  0  0  0
  1  2  1  0  0  0
  1 11  1  0  0  0
  2  3  1  0  0  0
  3  4  2  0  0  0
  3  5  1  0  0  0
  5  6  1  0  0  0
  6  7  2  0  0  0
  6 11  1  0  0  0
  7  8  1  0  0  0
  8  9  2  0  0  0
  8 15  1  0  0  0
  9 10  1  0  0  0
 10 11  2  0  0  0
 10 12  1  0  0  0
 15 16  1  0  0  0
 15 20  1  0  0  0
 16 17  1  0  0  0
 17 18  1  0  0  0
 18 19  1  0  0  0
 18 21  1  0  0  0
 19 20  1  0  0  0
 21 22  2  0  0  0
 21 23  1  0  0  0
 26 29  1  0  0  0
  5 13  1  0  0  0
 12 14  1  0  0  0
 23 24  1  0  0  0
 23 25  1  0  0  0
M  END
> <minimizedAffinity>
-8.52523

$$$$
393


 27 30  0  0  0  0  0  0  0  0999 V2000
   19.9246   62.9324  -12.1125 N   0  0  0  0  0  0  0  0  0  0  0  0
   20.2772   62.5051  -13.2995 N   0  0  0  0  0  0  0  0  0  0  0  0
   21.6136   62.5150  -13.4747 C   0  0  0  0  0  0  0  0  0  0  0  0
   22.1407   62.9861  -12.3037 C   0  0  0  0  0  0  0  0  0  0  0  0
   21.0713   63.2392  -11.4710 C   0  0  0  0  0  0  0  0  0  0  0  0
   23.5616   63.1685  -12.0338 C   0  0  0  0  0  0  0  0  0  0  0  0
   23.9786   62.7546  -10.9255 O   0  0  0  0  0  0  0  0  0  0  0  0
   24.4562   63.7734  -12.9432 N   0  0  0  0  0  0  0  0  0  0  0  0
   25.8458   63.9053  -12.5770 C   0  0  0  0  0  0  0  0  0  0  0  0
   26.6491   63.0201  -13.4825 C   0  0  0  0  0  0  0  0  0  0  0  0
   25.9381   62.7023  -14.7155 N   0  0  0  0  0  0  0  0  0  0  0  0
   24.8943   63.5214  -15.2309 C   0  0  0  0  0  0  0  0  0  0  0  0
   24.6881   63.5652  -16.4684 O   0  0  0  0  0  0  0  0  0  0  0  0
   24.0975   64.2885  -14.2449 C   0  0  0  0  0  0  0  0  0  0  0  0
   26.2269   61.8190  -15.2335 H   0  0  0  0  0  0  0  0  0  0  0  0
   14.1433   63.4099  -10.0378 Br  0  0  0  0  0  0  0  0  0  0  0  0
   15.9380   63.2591  -10.6809 C   0  0  0  0  0  0  0  0  0  0  0  0
   16.5265   64.3028  -11.3637 C   0  0  0  0  0  0  0  0  0  0  0  0
   17.8229   64.1768  -11.8204 C   0  0  0  0  0  0  0  0  0  0  0  0
   18.5829   63.0381  -11.6293 C   0  0  0  0  0  0  0  0  0  0  0  0
   17.9796   62.0008  -10.9420 C   0  0  0  0  0  0  0  0  0  0  0  0
   16.6840   62.1124  -10.4787 C   0  0  0  0  0  0  0  0  0  0  0  0
   21.1448   63.7521  -10.1215 N   0  0  0  0  0  0  0  0  0  0  0  0
   21.2127   65.0139   -9.7239 C   0  0  0  0  0  0  0  0  0  0  0  0
   21.2689   65.0850   -8.3512 C   0  0  0  0  0  0  0  0  0  0  0  0
   21.2325   63.7811   -7.9178 C   0  0  0  0  0  0  0  0  0  0  0  0
   21.1550   62.9713   -9.0289 C   0  0  0  0  0  0  0  0  0  0  0  0
 16 17  1  0  0  0
 17 18  2  0  0  0
 17 22  1  0  0  0
 18 19  1  0  0  0
 19 20  2  0  0  0
 20 21  1  0  0  0
 20  1  1  0  0  0
 21 22  2  0  0  0
  1  2  1  0  0  0
  1  5  1  0  0  0
  2  3  2  0  0  0
  3  4  1  0  0  0
  4  5  2  0  0  0
  4  6  1  0  0  0
  5 23  1  0  0  0
 23 24  1  0  0  0
 23 27  1  0  0  0
 24 25  2  0  0  0
 25 26  1  0  0  0
 26 27  2  0  0  0
  6  7  2  0  0  0
  6  8  1  0  0  0
  8  9  1  0  0  0
  8 14  1  0  0  0
  9 10  1  0  0  0
 10 11  1  0  0  0
 11 12  1  0  0  0
 12 13  2  0  0  0
 12 14  1  0  0  0
 11 15  1  0  0  0
M  END
> <minimizedAffinity>
-4.83155

$$$$
395


 28 31  0  0  0  0  0  0  0  0999 V2000
   19.7486   63.1593  -11.1452 N   0  0  0  0  0  0  0  0  0  0  0  0
   20.5398   62.8885  -12.1690 N   0  0  0  0  0  0  0  0  0  0  0  0
   21.8089   63.1097  -11.8708 N   0  0  0  0  0  0  0  0  0  0  0  0
   21.8825   63.5515  -10.5866 C   0  0  0  0  0  0  0  0  0  0  0  0
   20.5666   63.5711  -10.1605 C   0  0  0  0  0  0  0  0  0  0  0  0
   20.3407   63.9749   -8.9051 N   0  0  0  0  0  0  0  0  0  0  0  0
   21.3571   64.3420   -8.1054 C   0  0  0  0  0  0  0  0  0  0  0  0
   22.6463   64.3259   -8.5147 N   0  0  0  0  0  0  0  0  0  0  0  0
   22.9169   63.9289   -9.7639 C   0  0  0  0  0  0  0  0  0  0  0  0
   24.1079   63.9133  -10.1456 O   0  0  0  0  0  0  0  0  0  0  0  0
   13.6047   62.7493  -10.8650 Br  0  0  0  0  0  0  0  0  0  0  0  0
   15.5149   62.8621  -10.9475 C   0  0  0  0  0  0  0  0  0  0  0  0
   16.1463   64.0285  -11.3249 C   0  0  0  0  0  0  0  0  0  0  0  0
   17.5281   64.1290  -11.3905 C   0  0  0  0  0  0  0  0  0  0  0  0
   18.3250   63.0486  -11.0750 C   0  0  0  0  0  0  0  0  0  0  0  0
   17.6858   61.8845  -10.6978 C   0  0  0  0  0  0  0  0  0  0  0  0
   16.3118   61.7818  -10.6320 C   0  0  0  0  0  0  0  0  0  0  0  0
   23.6743   64.7417   -7.5788 C   0  0  0  0  0  0  0  0  0  0  0  0
   23.2536   64.4181   -6.1678 C   0  0  0  0  0  0  0  0  0  0  0  0
   22.1578   64.8413   -5.7122 O   0  0  0  0  0  0  0  0  0  0  0  0
   24.0785   63.6344   -5.3270 N   0  0  0  0  0  0  0  0  0  0  0  0
   23.6867   63.3189   -3.9740 C   0  0  0  0  0  0  0  0  0  0  0  0
   24.9080   63.5403   -3.0982 C   0  0  0  0  0  0  0  0  0  0  0  0
   26.0114   62.8368   -3.5070 O   0  0  0  0  0  0  0  0  0  0  0  0
   25.8864   62.2224   -4.7287 C   0  0  0  0  0  0  0  0  0  0  0  0
   25.3429   63.1319   -5.8117 C   0  0  0  0  0  0  0  0  0  0  0  0
   27.1523   61.5724   -5.2041 C   0  0  0  0  0  0  0  0  0  0  0  0
   24.5329   63.0192   -1.7069 C   0  0  0  0  0  0  0  0  0  0  0  0
 11 12  1  0  0  0
 12 13  2  0  0  0
 12 17  1  0  0  0
 13 14  1  0  0  0
 14 15  2  0  0  0
 15 16  1  0  0  0
 15  1  1  0  0  0
 16 17  2  0  0  0
  1  2  1  0  0  0
  1  5  1  0  0  0
  2  3  2  0  0  0
  3  4  1  0  0  0
  4  5  2  0  0  0
  4  9  1  0  0  0
  5  6  1  0  0  0
  6  7  2  0  0  0
  7  8  1  0  0  0
  8  9  1  0  0  0
  8 18  1  0  0  0
  9 10  2  0  0  0
 18 19  1  0  0  0
 19 20  2  0  0  0
 19 21  1  0  0  0
 21 22  1  0  0  0
 21 26  1  0  0  0
 22 23  1  0  0  0
 23 24  1  0  0  0
 23 28  1  0  0  0
 24 25  1  0  0  0
 25 26  1  0  0  0
 25 27  1  0  0  0
M  END
> <minimizedAffinity>
-9.64470

$$$$
399


 28 31  0  0  0  0  0  0  0  0999 V2000
   12.3925   65.7471  -14.3483 N   0  0  0  0  0  0  0  0  0  0  0  0
   13.6932   65.2057  -14.1456 C   0  0  0  0  0  0  0  0  0  0  0  0
   14.7579   65.7378  -14.5258 O   0  0  0  0  0  0  0  0  0  0  0  0
   13.6319   63.9252  -13.4253 C   0  0  0  0  0  0  0  0  0  0  0  0
   12.2165   63.4526  -13.7368 C   0  0  0  0  0  0  0  0  0  0  0  0
   11.4706   64.7427  -13.8821 C   0  0  0  0  0  0  0  0  0  0  0  0
   10.2567   64.8169  -13.6155 O   0  0  0  0  0  0  0  0  0  0  0  0
   10.7841   71.2113  -16.7133 Br  0  0  0  0  0  0  0  0  0  0  0  0
   11.2827   69.5174  -15.9723 C   0  0  0  0  0  0  0  0  0  0  0  0
   11.3127   69.3049  -14.6213 C   0  0  0  0  0  0  0  0  0  0  0  0
   11.6786   68.0652  -14.0865 C   0  0  0  0  0  0  0  0  0  0  0  0
   12.0195   67.0160  -14.8901 C   0  0  0  0  0  0  0  0  0  0  0  0
   11.9916   67.2232  -16.2390 C   0  0  0  0  0  0  0  0  0  0  0  0
   11.6272   68.4630  -16.7864 C   0  0  0  0  0  0  0  0  0  0  0  0
   13.8285   64.0122  -11.9959 N   0  0  0  0  0  0  0  0  0  0  0  0
   13.9422   62.7141  -11.3755 C   0  0  0  0  0  0  0  0  0  0  0  0
   15.3645   62.2634  -11.1271 C   0  0  0  0  0  0  0  0  0  0  0  0
   16.1846   63.3492  -10.6535 N   0  0  0  0  0  0  0  0  0  0  0  0
   15.4498   64.5379  -10.2899 C   0  0  0  0  0  0  0  0  0  0  0  0
   14.7858   64.9834  -11.6065 C   0  0  0  0  0  0  0  0  0  0  0  0
   12.8825   64.3781  -11.6366 H   0  0  0  0  0  0  0  0  0  0  0  0
   17.5791   63.2923  -10.5618 C   0  0  0  0  0  0  0  0  0  0  0  0
   18.4586   63.4822  -11.6085 C   0  0  0  0  0  0  0  0  0  0  0  0
   19.8339   63.3905  -11.4672 C   0  0  0  0  0  0  0  0  0  0  0  0
   20.3804   63.0986  -10.2464 C   0  0  0  0  0  0  0  0  0  0  0  0
   19.5468   62.8982   -9.1647 C   0  0  0  0  0  0  0  0  0  0  0  0
   18.1768   62.9956   -9.3309 C   0  0  0  0  0  0  0  0  0  0  0  0
   21.7556   62.9918  -10.0360 O   0  0  0  0  0  0  0  0  0  0  0  0
  8  9  1  0  0  0
  9 10  2  0  0  0
  9 14  1  0  0  0
 10 11  1  0  0  0
 11 12  2  0  0  0
 12 13  1  0  0  0
 12  1  1  0  0  0
 13 14  2  0  0  0
  1  2  1  0  0  0
  1  6  1  0  0  0
  2  3  2  0  0  0
  2  4  1  0  0  0
  4  5  1  0  0  0
  4 15  1  0  0  0
  5  6  1  0  0  0
  6  7  2  0  0  0
 15 16  1  0  0  0
 15 20  1  0  0  0
 16 17  1  0  0  0
 17 18  1  0  0  0
 18 19  1  0  0  0
 18 22  1  0  0  0
 19 20  1  0  0  0
 22 23  2  0  0  0
 22 27  1  0  0  0
 23 24  1  0  0  0
 24 25  2  0  0  0
 25 26  1  0  0  0
 25 28  1  0  0  0
 26 27  2  0  0  0
 15 21  1  0  0  0
M  CHG 1  15   1
M  CHG 1  28  -1
M  END
> <minimizedAffinity>
-7.63273

$$$$
400


 31 34  0  0  0  0  0  0  0  0999 V2000
   20.5624   63.4038  -10.1868 N   0  0  0  0  0  0  0  0  0  0  0  0
   19.7452   63.3716  -11.3319 C   0  0  0  0  0  0  0  0  0  0  0  0
   18.9547   62.0564  -11.3321 C   0  0  0  0  0  0  0  0  0  0  0  0
   17.9532   62.0204  -10.1992 C   0  0  0  0  0  0  0  0  0  0  0  0
   18.5631   62.5877   -8.9814 C   0  0  0  0  0  0  0  0  0  0  0  0
   20.0653   62.6705   -9.0850 C   0  0  0  0  0  0  0  0  0  0  0  0
   22.5080   64.6422   -7.8764 N   0  0  0  0  0  0  0  0  0  0  0  0
   22.5776   64.1949   -9.2345 C   0  0  0  0  0  0  0  0  0  0  0  0
   23.5262   63.5957   -9.7968 O   0  0  0  0  0  0  0  0  0  0  0  0
   21.3003   64.5656   -9.8970 C   0  0  0  0  0  0  0  0  0  0  0  0
   20.5965   65.5325   -8.9711 C   0  0  0  0  0  0  0  0  0  0  0  0
   21.5988   65.7355   -7.8911 C   0  0  0  0  0  0  0  0  0  0  0  0
   21.6527   66.7318   -7.0870 O   0  0  0  0  0  0  0  0  0  0  0  0
   25.5024   62.3123   -3.0137 Br  0  0  0  0  0  0  0  0  0  0  0  0
   24.5719   63.0371   -4.5190 C   0  0  0  0  0  0  0  0  0  0  0  0
   23.5028   63.8908   -4.3765 C   0  0  0  0  0  0  0  0  0  0  0  0
   22.8264   64.4171   -5.4839 C   0  0  0  0  0  0  0  0  0  0  0  0
   23.2118   64.0956   -6.7580 C   0  0  0  0  0  0  0  0  0  0  0  0
   24.2824   63.2396   -6.8893 C   0  0  0  0  0  0  0  0  0  0  0  0
   24.9597   62.7132   -5.8009 C   0  0  0  0  0  0  0  0  0  0  0  0
   16.7581   62.6085  -10.6437 N   0  0  0  0  0  0  0  0  0  0  0  0
   16.7661   63.9612  -11.0139 C   0  0  0  0  0  0  0  0  0  0  0  0
   15.6772   64.6567  -10.1783 C   0  0  0  0  0  0  0  0  0  0  0  0
   14.3629   64.0601  -10.6395 C   0  0  0  0  0  0  0  0  0  0  0  0
   14.5222   62.7844  -11.3973 C   0  0  0  0  0  0  0  0  0  0  0  0
   15.6023   61.8682  -10.8028 C   0  0  0  0  0  0  0  0  0  0  0  0
   17.6811   60.5594   -9.9545 C   0  0  0  0  0  0  0  0  0  0  0  0
   18.5515   59.8444   -9.3725 O   0  0  0  0  0  0  0  0  0  0  0  0
   16.4786   59.9255  -10.3476 N   0  0  0  0  0  0  0  0  0  0  0  0
   16.5064   59.1641  -11.0364 H   0  0  0  0  0  0  0  0  0  0  0  0
   15.5660   60.2174   -9.9484 H   0  0  0  0  0  0  0  0  0  0  0  0
 14 15  1  0  0  0
 15 16  2  0  0  0
 15 20  1  0  0  0
 16 17  1  0  0  0
 17 18  2  0  0  0
 18 19  1  0  0  0
 18  7  1  0  0  0
 19 20  2  0  0  0
  7  8  1  0  0  0
  7 12  1  0  0  0
  8  9  2  0  0  0
  8 10  1  0  0  0
 10 11  1  0  0  0
 10  1  1  0  0  0
 11 12  1  0  0  0
 12 13  2  0  0  0
  1  2  1  0  0  0
  1  6  1  0  0  0
  2  3  1  0  0  0
  3  4  1  0  0  0
  4  5  1  0  0  0
  4 21  1  0  0  0
  4 27  1  0  0  0
  5  6  1  0  0  0
 21 22  1  0  0  0
 21 26  1  0  0  0
 22 23  1  0  0  0
 23 24  1  0  0  0
 24 25  1  0  0  0
 25 26  1  0  0  0
 27 28  2  0  0  0
 27 29  1  0  0  0
 29 30  1  0  0  0
 29 31  1  0  0  0
M  END
> <minimizedAffinity>
-10.46433

$$$$
408


 31 34  0  0  0  0  0  0  0  0999 V2000
   19.7035   63.1509  -10.9013 N   0  0  0  0  0  0  0  0  0  0  0  0
   20.4331   63.7059   -9.9188 C   0  0  0  0  0  0  0  0  0  0  0  0
   19.9416   64.1189   -8.8238 O   0  0  0  0  0  0  0  0  0  0  0  0
   21.7825   63.7623  -10.2683 C   0  0  0  0  0  0  0  0  0  0  0  0
   21.8553   63.2285  -11.4841 C   0  0  0  0  0  0  0  0  0  0  0  0
   23.1612   63.2931  -11.8002 N   0  0  0  0  0  0  0  0  0  0  0  0
   23.8468   63.8437  -10.8120 N   0  0  0  0  0  0  0  0  0  0  0  0
   22.9997   64.1383   -9.8560 N   0  0  0  0  0  0  0  0  0  0  0  0
   20.5876   62.8518  -11.8800 C   0  0  0  0  0  0  0  0  0  0  0  0
   20.2623   62.3158  -12.9621 O   0  0  0  0  0  0  0  0  0  0  0  0
   23.5180   62.9359  -12.7229 H   0  0  0  0  0  0  0  0  0  0  0  0
   24.8817   63.9909  -10.8479 H   0  0  0  0  0  0  0  0  0  0  0  0
   13.6055   62.2525  -10.9764 Br  0  0  0  0  0  0  0  0  0  0  0  0
   15.5061   62.5229  -10.9499 C   0  0  0  0  0  0  0  0  0  0  0  0
   16.0554   63.7444  -11.2758 C   0  0  0  0  0  0  0  0  0  0  0  0
   17.4232   63.9415  -11.2576 C   0  0  0  0  0  0  0  0  0  0  0  0
   18.2967   62.9240  -10.9132 C   0  0  0  0  0  0  0  0  0  0  0  0
   17.7260   61.7093  -10.5907 C   0  0  0  0  0  0  0  0  0  0  0  0
   16.3655   61.5039  -10.6057 C   0  0  0  0  0  0  0  0  0  0  0  0
   23.2942   64.7532   -8.5866 C   0  0  0  0  0  0  0  0  0  0  0  0
   23.7742   63.7509   -7.5776 C   0  0  0  0  0  0  0  0  0  0  0  0
   23.6026   62.5548   -7.9132 O   0  0  0  0  0  0  0  0  0  0  0  0
   24.3622   64.1248   -6.3666 N   0  0  0  0  0  0  0  0  0  0  0  0
   24.4403   65.1872   -6.2215 H   0  0  0  0  0  0  0  0  0  0  0  0
   24.8419   63.2788   -5.3598 C   0  0  0  0  0  0  0  0  0  0  0  0
   24.0532   63.1433   -4.2057 C   0  0  0  0  0  0  0  0  0  0  0  0
   24.4849   62.3241   -3.1936 C   0  0  0  0  0  0  0  0  0  0  0  0
   25.6680   61.6183   -3.2543 C   0  0  0  0  0  0  0  0  0  0  0  0
   26.4394   61.7453   -4.3712 C   0  0  0  0  0  0  0  0  0  0  0  0
   26.0157   62.5666   -5.3950 C   0  0  0  0  0  0  0  0  0  0  0  0
   22.7728   63.8627   -4.0603 C   0  0  0  0  0  0  0  0  0  0  0  0
 13 14  1  0  0  0
 14 15  2  0  0  0
 14 19  1  0  0  0
 15 16  1  0  0  0
 16 17  2  0  0  0
 17 18  1  0  0  0
 17  1  1  0  0  0
 18 19  2  0  0  0
  1  2  1  0  0  0
  1  9  1  0  0  0
  2  3  2  0  0  0
  2  4  1  0  0  0
  4  5  2  0  0  0
  4  8  1  0  0  0
  5  6  1  0  0  0
  5  9  1  0  0  0
  6  7  1  0  0  0
  7  8  1  0  0  0
  8 20  1  0  0  0
 20 21  1  0  0  0
 21 22  2  0  0  0
 21 23  1  0  0  0
 23 25  1  0  0  0
 25 26  2  0  0  0
 25 30  1  0  0  0
 26 27  1  0  0  0
 26 31  1  0  0  0
 27 28  2  0  0  0
 28 29  1  0  0  0
 29 30  2  0  0  0
  9 10  2  0  0  0
  6 11  1  0  0  0
  7 12  1  0  0  0
 23 24  1  0  0  0
M  END
> <minimizedAffinity>
-9.73965

$$$$
411


 34 37  0  0  0  0  0  0  0  0999 V2000
   13.2482   63.8978  -13.0890 N   0  0  0  0  0  0  0  0  0  0  0  0
   14.1875   64.3262  -12.2303 C   0  0  0  0  0  0  0  0  0  0  0  0
   14.4890   65.5414  -12.1103 O   0  0  0  0  0  0  0  0  0  0  0  0
   14.7451   63.2694  -11.5301 C   0  0  0  0  0  0  0  0  0  0  0  0
   14.1320   62.1789  -11.9725 C   0  0  0  0  0  0  0  0  0  0  0  0
   14.6730   61.1551  -11.2942 N   0  0  0  0  0  0  0  0  0  0  0  0
   15.5915   61.6086  -10.4602 N   0  0  0  0  0  0  0  0  0  0  0  0
   15.6508   62.9071  -10.5896 N   0  0  0  0  0  0  0  0  0  0  0  0
   13.2131   62.5560  -12.9293 C   0  0  0  0  0  0  0  0  0  0  0  0
   12.4445   61.7627  -13.5675 O   0  0  0  0  0  0  0  0  0  0  0  0
   14.4330   60.1479  -11.3840 H   0  0  0  0  0  0  0  0  0  0  0  0
   16.1907   61.0401   -9.7904 H   0  0  0  0  0  0  0  0  0  0  0  0
    9.6154   67.0809  -16.9134 Br  0  0  0  0  0  0  0  0  0  0  0  0
   10.7559   66.0912  -15.7354 C   0  0  0  0  0  0  0  0  0  0  0  0
   12.0243   65.7051  -16.1214 C   0  0  0  0  0  0  0  0  0  0  0  0
   12.8492   64.9865  -15.2611 C   0  0  0  0  0  0  0  0  0  0  0  0
   12.4325   64.6316  -13.9949 C   0  0  0  0  0  0  0  0  0  0  0  0
   11.1661   65.0191  -13.6156 C   0  0  0  0  0  0  0  0  0  0  0  0
   10.3472   65.7325  -14.4665 C   0  0  0  0  0  0  0  0  0  0  0  0
   16.5100   63.8258   -9.8817 C   0  0  0  0  0  0  0  0  0  0  0  0
   17.9408   63.3542   -9.9975 C   0  0  0  0  0  0  0  0  0  0  0  0
   18.2312   62.1919   -9.6373 O   0  0  0  0  0  0  0  0  0  0  0  0
   18.9264   64.2144  -10.5033 N   0  0  0  0  0  0  0  0  0  0  0  0
   18.6051   65.1950  -10.7926 H   0  0  0  0  0  0  0  0  0  0  0  0
   20.2900   63.9009  -10.6692 C   0  0  0  0  0  0  0  0  0  0  0  0
   21.2813   64.1016   -9.7422 C   0  0  0  0  0  0  0  0  0  0  0  0
   22.6048   63.7882   -9.9732 C   0  0  0  0  0  0  0  0  0  0  0  0
   22.9385   63.2469  -11.1969 C   0  0  0  0  0  0  0  0  0  0  0  0
   21.9673   63.0274  -12.1603 C   0  0  0  0  0  0  0  0  0  0  0  0
   20.6609   63.3473  -11.9097 C   0  0  0  0  0  0  0  0  0  0  0  0
   24.2686   62.9228  -11.4504 O   0  0  0  0  0  0  0  0  0  0  0  0
   24.8792   63.3932  -12.6356 C   0  0  0  0  0  0  0  0  0  0  0  0
   23.5898   64.0033   -9.0119 O   0  0  0  0  0  0  0  0  0  0  0  0
   23.3394   63.5178   -7.6865 C   0  0  0  0  0  0  0  0  0  0  0  0
 13 14  1  0  0  0
 14 15  2  0  0  0
 14 19  1  0  0  0
 15 16  1  0  0  0
 16 17  2  0  0  0
 17 18  1  0  0  0
 17  1  1  0  0  0
 18 19  2  0  0  0
  1  2  1  0  0  0
  1  9  1  0  0  0
  2  3  2  0  0  0
  2  4  1  0  0  0
  4  5  2  0  0  0
  4  8  1  0  0  0
  5  6  1  0  0  0
  5  9  1  0  0  0
  6  7  1  0  0  0
  7  8  1  0  0  0
  8 20  1  0  0  0
 20 21  1  0  0  0
 21 22  2  0  0  0
 21 23  1  0  0  0
 23 25  1  0  0  0
 25 26  2  0  0  0
 25 30  1  0  0  0
 26 27  1  0  0  0
 27 28  2  0  0  0
 27 33  1  0  0  0
 28 29  1  0  0  0
 28 31  1  0  0  0
 29 30  2  0  0  0
 31 32  1  0  0  0
 33 34  1  0  0  0
  9 10  2  0  0  0
  6 11  1  0  0  0
  7 12  1  0  0  0
 23 24  1  0  0  0
M  END
> <minimizedAffinity>
-7.88421

$$$$
412


 34 37  0  0  0  0  0  0  0  0999 V2000
   18.2057   62.6109   -9.8775 N   0  0  0  0  0  0  0  0  0  0  0  0
   17.0956   63.3149  -10.1127 C   0  0  0  0  0  0  0  0  0  0  0  0
   17.0190   64.5846  -10.0085 O   0  0  0  0  0  0  0  0  0  0  0  0
   16.0217   62.5379  -10.4802 C   0  0  0  0  0  0  0  0  0  0  0  0
   16.5083   61.2819  -10.4695 C   0  0  0  0  0  0  0  0  0  0  0  0
   15.4673   60.4931  -10.8302 N   0  0  0  0  0  0  0  0  0  0  0  0
   14.3944   61.2311  -11.0529 N   0  0  0  0  0  0  0  0  0  0  0  0
   14.7295   62.4871  -10.8399 N   0  0  0  0  0  0  0  0  0  0  0  0
   17.8341   61.3129  -10.1046 C   0  0  0  0  0  0  0  0  0  0  0  0
   18.6322   60.3529   -9.9796 O   0  0  0  0  0  0  0  0  0  0  0  0
   15.5310   59.4513  -10.9102 H   0  0  0  0  0  0  0  0  0  0  0  0
   13.4658   60.8230  -11.3439 H   0  0  0  0  0  0  0  0  0  0  0  0
   23.8114   64.5250   -8.1559 Br  0  0  0  0  0  0  0  0  0  0  0  0
   22.0619   63.9241   -8.7002 C   0  0  0  0  0  0  0  0  0  0  0  0
   21.7348   63.8007  -10.0291 C   0  0  0  0  0  0  0  0  0  0  0  0
   20.4596   63.3658  -10.4230 C   0  0  0  0  0  0  0  0  0  0  0  0
   19.5078   63.0527   -9.4836 C   0  0  0  0  0  0  0  0  0  0  0  0
   19.8604   63.1835   -8.1574 C   0  0  0  0  0  0  0  0  0  0  0  0
   21.1063   63.6099   -7.7616 C   0  0  0  0  0  0  0  0  0  0  0  0
   13.8408   63.6044  -10.9792 C   0  0  0  0  0  0  0  0  0  0  0  0
   13.9279   64.2697  -12.2768 C   0  0  0  0  0  0  0  0  0  0  0  0
   15.0323   64.5941  -12.8026 O   0  0  0  0  0  0  0  0  0  0  0  0
   12.7252   64.5623  -12.9581 N   0  0  0  0  0  0  0  0  0  0  0  0
   11.7830   64.3034  -12.5308 H   0  0  0  0  0  0  0  0  0  0  0  0
   12.7905   65.2079  -14.2189 C   0  0  0  0  0  0  0  0  0  0  0  0
   12.9576   64.3978  -15.3148 C   0  0  0  0  0  0  0  0  0  0  0  0
   13.0618   64.9599  -16.5929 C   0  0  0  0  0  0  0  0  0  0  0  0
   12.9986   66.3195  -16.7469 C   0  0  0  0  0  0  0  0  0  0  0  0
   12.8303   67.1544  -15.6443 C   0  0  0  0  0  0  0  0  0  0  0  0
   12.7287   66.5664  -14.3930 C   0  0  0  0  0  0  0  0  0  0  0  0
   12.7801   68.5129  -15.8753 O   0  0  0  0  0  0  0  0  0  0  0  0
   12.1436   69.4761  -15.0948 C   0  0  0  0  0  0  0  0  0  0  0  0
   13.2228   64.0562  -17.6158 O   0  0  0  0  0  0  0  0  0  0  0  0
   13.1899   62.6847  -17.4626 C   0  0  0  0  0  0  0  0  0  0  0  0
 13 14  1  0  0  0
 14 15  2  0  0  0
 14 19  1  0  0  0
 15 16  1  0  0  0
 16 17  2  0  0  0
 17 18  1  0  0  0
 17  1  1  0  0  0
 18 19  2  0  0  0
  1  2  1  0  0  0
  1  9  1  0  0  0
  2  3  2  0  0  0
  2  4  1  0  0  0
  4  5  2  0  0  0
  4  8  1  0  0  0
  5  6  1  0  0  0
  5  9  1  0  0  0
  6  7  1  0  0  0
  7  8  1  0  0  0
  8 20  1  0  0  0
 20 21  1  0  0  0
 21 22  2  0  0  0
 21 23  1  0  0  0
 23 25  1  0  0  0
 25 26  2  0  0  0
 25 30  1  0  0  0
 26 27  1  0  0  0
 27 28  2  0  0  0
 27 33  1  0  0  0
 28 29  1  0  0  0
 29 30  2  0  0  0
 29 31  1  0  0  0
 31 32  1  0  0  0
 33 34  1  0  0  0
  9 10  2  0  0  0
  6 11  1  0  0  0
  7 12  1  0  0  0
 23 24  1  0  0  0
M  END
> <minimizedAffinity>
-8.35848

$$$$
414


 35 38  0  0  0  0  0  0  0  0999 V2000
   13.7518   63.8610  -12.5744 N   0  0  0  0  0  0  0  0  0  0  0  0
   14.8284   64.2106  -11.8257 C   0  0  0  0  0  0  0  0  0  0  0  0
   15.2859   65.3861  -11.6745 O   0  0  0  0  0  0  0  0  0  0  0  0
   15.3701   63.0810  -11.2370 C   0  0  0  0  0  0  0  0  0  0  0  0
   14.6088   62.0671  -11.6413 C   0  0  0  0  0  0  0  0  0  0  0  0
   15.1194   60.9460  -11.0776 N   0  0  0  0  0  0  0  0  0  0  0  0
   16.1706   61.3102  -10.3494 N   0  0  0  0  0  0  0  0  0  0  0  0
   16.3555   62.6141  -10.4240 N   0  0  0  0  0  0  0  0  0  0  0  0
   13.6109   62.5325  -12.4643 C   0  0  0  0  0  0  0  0  0  0  0  0
   12.7174   61.8591  -13.0233 O   0  0  0  0  0  0  0  0  0  0  0  0
   14.7457   59.9831  -11.2003 H   0  0  0  0  0  0  0  0  0  0  0  0
   16.7580   60.6558   -9.8036 H   0  0  0  0  0  0  0  0  0  0  0  0
   10.4592   67.9018  -15.7994 Br  0  0  0  0  0  0  0  0  0  0  0  0
   11.5006   66.6559  -14.8098 C   0  0  0  0  0  0  0  0  0  0  0  0
   12.8650   66.5250  -14.9611 C   0  0  0  0  0  0  0  0  0  0  0  0
   13.5822   65.6234  -14.2386 C   0  0  0  0  0  0  0  0  0  0  0  0
   12.9671   64.7938  -13.3138 C   0  0  0  0  0  0  0  0  0  0  0  0
   11.6105   64.9136  -13.1532 C   0  0  0  0  0  0  0  0  0  0  0  0
   10.9023   65.8255  -13.8881 C   0  0  0  0  0  0  0  0  0  0  0  0
   17.3777   63.4399   -9.7921 C   0  0  0  0  0  0  0  0  0  0  0  0
   18.5747   63.5282  -10.7072 C   0  0  0  0  0  0  0  0  0  0  0  0
   18.2665   63.8906  -11.8696 O   0  0  0  0  0  0  0  0  0  0  0  0
   19.8446   63.2207  -10.2227 N   0  0  0  0  0  0  0  0  0  0  0  0
   19.8882   62.9314   -9.1943 H   0  0  0  0  0  0  0  0  0  0  0  0
   21.0666   63.2507  -10.9395 C   0  0  0  0  0  0  0  0  0  0  0  0
   21.1988   63.0295  -12.2897 C   0  0  0  0  0  0  0  0  0  0  0  0
   22.4466   63.0763  -12.9267 C   0  0  0  0  0  0  0  0  0  0  0  0
   23.5975   63.3473  -12.2261 C   0  0  0  0  0  0  0  0  0  0  0  0
   23.4769   63.5706  -10.8762 C   0  0  0  0  0  0  0  0  0  0  0  0
   22.2461   63.5236  -10.2503 C   0  0  0  0  0  0  0  0  0  0  0  0
   24.8743   63.3860  -12.9311 C   0  0  0  0  0  0  0  0  0  0  0  0
   25.9197   63.1468  -12.2763 O   0  0  0  0  0  0  0  0  0  0  0  0
   25.0140   63.6667  -14.2615 O   0  0  0  0  0  0  0  0  0  0  0  0
   26.1362   63.3973  -15.0516 C   0  0  0  0  0  0  0  0  0  0  0  0
   25.6307   62.6232  -16.2772 C   0  0  0  0  0  0  0  0  0  0  0  0
 13 14  1  0  0  0
 14 15  2  0  0  0
 14 19  1  0  0  0
 15 16  1  0  0  0
 16 17  2  0  0  0
 17 18  1  0  0  0
 17  1  1  0  0  0
 18 19  2  0  0  0
  1  2  1  0  0  0
  1  9  1  0  0  0
  2  3  2  0  0  0
  2  4  1  0  0  0
  4  5  2  0  0  0
  4  8  1  0  0  0
  5  6  1  0  0  0
  5  9  1  0  0  0
  6  7  1  0  0  0
  7  8  1  0  0  0
  8 20  1  0  0  0
 20 21  1  0  0  0
 21 22  2  0  0  0
 21 23  1  0  0  0
 23 25  1  0  0  0
 25 26  2  0  0  0
 25 30  1  0  0  0
 26 27  1  0  0  0
 27 28  2  0  0  0
 28 29  1  0  0  0
 28 31  1  0  0  0
 29 30  2  0  0  0
 31 32  2  0  0  0
 31 33  1  0  0  0
 33 34  1  0  0  0
 34 35  1  0  0  0
  9 10  2  0  0  0
  6 11  1  0  0  0
  7 12  1  0  0  0
 23 24  1  0  0  0
M  END
> <minimizedAffinity>
-8.61525

$$$$
416


 33 36  0  0  0  0  0  0  0  0999 V2000
   13.6352   63.8769  -12.5907 N   0  0  0  0  0  0  0  0  0  0  0  0
   14.6966   64.1716  -11.7889 C   0  0  0  0  0  0  0  0  0  0  0  0
   15.1265   65.3350  -11.6022 O   0  0  0  0  0  0  0  0  0  0  0  0
   15.2194   63.0282  -11.2243 C   0  0  0  0  0  0  0  0  0  0  0  0
   14.4786   62.0285  -11.6796 C   0  0  0  0  0  0  0  0  0  0  0  0
   14.9678   60.8951  -11.1445 N   0  0  0  0  0  0  0  0  0  0  0  0
   15.9964   61.2165  -10.3732 N   0  0  0  0  0  0  0  0  0  0  0  0
   16.1792   62.5232  -10.3995 N   0  0  0  0  0  0  0  0  0  0  0  0
   13.5116   62.5443  -12.5125 C   0  0  0  0  0  0  0  0  0  0  0  0
   12.6164   61.8895  -13.1338 O   0  0  0  0  0  0  0  0  0  0  0  0
   14.6268   59.9282  -11.2836 H   0  0  0  0  0  0  0  0  0  0  0  0
   16.5769   60.5200   -9.8212 H   0  0  0  0  0  0  0  0  0  0  0  0
   10.3170   67.8240  -15.9759 Br  0  0  0  0  0  0  0  0  0  0  0  0
   11.3206   66.5984  -14.9116 C   0  0  0  0  0  0  0  0  0  0  0  0
   10.7307   65.8103  -13.9458 C   0  0  0  0  0  0  0  0  0  0  0  0
   11.4744   64.9224  -13.1831 C   0  0  0  0  0  0  0  0  0  0  0  0
   12.8366   64.7805  -13.3494 C   0  0  0  0  0  0  0  0  0  0  0  0
   13.4318   65.5700  -14.3167 C   0  0  0  0  0  0  0  0  0  0  0  0
   12.6927   66.4541  -15.0755 C   0  0  0  0  0  0  0  0  0  0  0  0
   17.1824   63.2918   -9.7223 C   0  0  0  0  0  0  0  0  0  0  0  0
   18.5921   62.9192  -10.1173 C   0  0  0  0  0  0  0  0  0  0  0  0
   18.8177   61.6943  -10.2238 O   0  0  0  0  0  0  0  0  0  0  0  0
   19.5708   63.8832  -10.3504 N   0  0  0  0  0  0  0  0  0  0  0  0
   19.2491   64.9054  -10.2177 H   0  0  0  0  0  0  0  0  0  0  0  0
   20.9157   63.7349  -10.7300 C   0  0  0  0  0  0  0  0  0  0  0  0
   21.2343   63.2507  -11.9988 C   0  0  0  0  0  0  0  0  0  0  0  0
   22.5300   63.0737  -12.4036 C   0  0  0  0  0  0  0  0  0  0  0  0
   23.5849   63.3772  -11.5416 C   0  0  0  0  0  0  0  0  0  0  0  0
   23.2386   63.8529  -10.3003 C   0  0  0  0  0  0  0  0  0  0  0  0
   21.9387   64.0344   -9.8889 C   0  0  0  0  0  0  0  0  0  0  0  0
   24.8712   63.1804  -11.9875 O   0  0  0  0  0  0  0  0  0  0  0  0
   25.3867   63.5339  -13.2298 C   0  0  0  0  0  0  0  0  0  0  0  0
   26.8695   63.4284  -13.3349 C   0  0  0  0  0  0  0  0  0  0  0  0
 13 14  1  0  0  0
 14 15  2  0  0  0
 14 19  1  0  0  0
 15 16  1  0  0  0
 16 17  2  0  0  0
 17 18  1  0  0  0
 17  1  1  0  0  0
 18 19  2  0  0  0
  1  2  1  0  0  0
  1  9  1  0  0  0
  2  3  2  0  0  0
  2  4  1  0  0  0
  4  5  2  0  0  0
  4  8  1  0  0  0
  5  6  1  0  0  0
  5  9  1  0  0  0
  6  7  1  0  0  0
  7  8  1  0  0  0
  8 20  1  0  0  0
 20 21  1  0  0  0
 21 22  2  0  0  0
 21 23  1  0  0  0
 23 25  1  0  0  0
 25 26  2  0  0  0
 25 30  1  0  0  0
 26 27  1  0  0  0
 27 28  2  0  0  0
 28 29  1  0  0  0
 28 31  1  0  0  0
 29 30  2  0  0  0
 31 32  1  0  0  0
 32 33  1  0  0  0
  9 10  2  0  0  0
  6 11  1  0  0  0
  7 12  1  0  0  0
 23 24  1  0  0  0
M  END
> <minimizedAffinity>
-8.57106

$$$$
421


 28 31  0  0  0  0  0  0  0  0999 V2000
   19.9341   63.1075  -10.3344 N   0  0  0  0  0  0  0  0  0  0  0  0
   20.6027   63.2040   -9.1640 C   0  0  0  0  0  0  0  0  0  0  0  0
   20.1281   63.0933   -7.9885 O   0  0  0  0  0  0  0  0  0  0  0  0
   21.9450   63.4528   -9.3839 C   0  0  0  0  0  0  0  0  0  0  0  0
   22.0751   63.5042  -10.7115 C   0  0  0  0  0  0  0  0  0  0  0  0
   23.3900   63.7473  -10.9301 N   0  0  0  0  0  0  0  0  0  0  0  0
   24.0019   63.8337   -9.7608 N   0  0  0  0  0  0  0  0  0  0  0  0
   23.1305   63.6551   -8.7820 N   0  0  0  0  0  0  0  0  0  0  0  0
   20.8475   63.2940  -11.3024 C   0  0  0  0  0  0  0  0  0  0  0  0
   20.5698   63.2690  -12.5273 O   0  0  0  0  0  0  0  0  0  0  0  0
   23.8249   63.8466  -11.8843 H   0  0  0  0  0  0  0  0  0  0  0  0
   25.0243   64.0162   -9.5860 H   0  0  0  0  0  0  0  0  0  0  0  0
   13.8801   62.1591  -10.9996 Br  0  0  0  0  0  0  0  0  0  0  0  0
   15.7640   62.4293  -10.7902 C   0  0  0  0  0  0  0  0  0  0  0  0
   16.6275   61.3747  -10.5763 C   0  0  0  0  0  0  0  0  0  0  0  0
   17.9952   61.5864  -10.4252 C   0  0  0  0  0  0  0  0  0  0  0  0
   18.5308   62.8559  -10.4853 C   0  0  0  0  0  0  0  0  0  0  0  0
   17.6555   63.9006  -10.6995 C   0  0  0  0  0  0  0  0  0  0  0  0
   16.2963   63.7005  -10.8499 C   0  0  0  0  0  0  0  0  0  0  0  0
   23.4033   63.6747   -7.3755 C   0  0  0  0  0  0  0  0  0  0  0  0
   24.3735   62.8613   -6.8271 C   0  0  0  0  0  0  0  0  0  0  0  0
   24.6612   62.8585   -5.4680 C   0  0  0  0  0  0  0  0  0  0  0  0
   23.9668   63.6889   -4.6142 C   0  0  0  0  0  0  0  0  0  0  0  0
   22.9969   64.5026   -5.1594 C   0  0  0  0  0  0  0  0  0  0  0  0
   22.7128   64.5034   -6.5161 C   0  0  0  0  0  0  0  0  0  0  0  0
   24.2389   63.7085   -3.2155 N   0  0  0  0  0  0  0  0  0  0  0  0
   25.0788   64.4791   -2.7139 O   0  0  0  0  0  0  0  0  0  0  0  0
   23.5640   62.8608   -2.3957 O   0  0  0  0  0  0  0  0  0  0  0  0
 13 14  1  0  0  0
 14 15  2  0  0  0
 14 19  1  0  0  0
 15 16  1  0  0  0
 16 17  2  0  0  0
 17 18  1  0  0  0
 17  1  1  0  0  0
 18 19  2  0  0  0
  1  2  1  0  0  0
  1  9  1  0  0  0
  2  3  2  0  0  0
  2  4  1  0  0  0
  4  5  2  0  0  0
  4  8  1  0  0  0
  5  6  1  0  0  0
  5  9  1  0  0  0
  6  7  1  0  0  0
  7  8  1  0  0  0
  8 20  1  0  0  0
 20 21  2  0  0  0
 20 25  1  0  0  0
 21 22  1  0  0  0
 22 23  2  0  0  0
 23 24  1  0  0  0
 23 26  1  0  0  0
 24 25  2  0  0  0
 26 27  2  0  0  0
 26 28  1  0  0  0
  9 10  2  0  0  0
  6 11  1  0  0  0
  7 12  1  0  0  0
M  CHG 1  28  -1
M  END
> <minimizedAffinity>
-10.35550

$$$$
425


 24 28  0  0  0  0  0  0  0  0999 V2000
   16.2050   62.7503  -10.5723 N   0  0  0  0  0  0  0  0  0  0  0  0
   16.9376   63.6049   -9.7081 C   0  0  0  0  0  0  0  0  0  0  0  0
   16.5719   64.7603   -9.3839 O   0  0  0  0  0  0  0  0  0  0  0  0
   18.1760   62.9072   -9.2693 C   0  0  0  0  0  0  0  0  0  0  0  0
   19.3528   63.2477  -10.1307 C   0  0  0  0  0  0  0  0  0  0  0  0
   20.0801   62.0389  -10.0585 O   0  0  0  0  0  0  0  0  0  0  0  0
   19.0747   61.2024  -10.6056 C   0  0  0  0  0  0  0  0  0  0  0  0
   17.9528   61.4444   -9.6557 C   0  0  0  0  0  0  0  0  0  0  0  0
   16.6506   61.4089  -10.3741 C   0  0  0  0  0  0  0  0  0  0  0  0
   16.0707   60.3794  -10.7295 O   0  0  0  0  0  0  0  0  0  0  0  0
   18.7978   61.9473  -11.8615 C   0  0  0  0  0  0  0  0  0  0  0  0
   18.9129   63.2310  -11.5347 C   0  0  0  0  0  0  0  0  0  0  0  0
   11.8977   64.7683  -14.3797 Br  0  0  0  0  0  0  0  0  0  0  0  0
   13.2441   64.1484  -13.1961 C   0  0  0  0  0  0  0  0  0  0  0  0
   14.2883   64.9775  -12.8649 C   0  0  0  0  0  0  0  0  0  0  0  0
   15.2512   64.5017  -12.0024 C   0  0  0  0  0  0  0  0  0  0  0  0
   15.1977   63.2323  -11.4706 C   0  0  0  0  0  0  0  0  0  0  0  0
   14.1427   62.3937  -11.8038 C   0  0  0  0  0  0  0  0  0  0  0  0
   13.1681   62.8800  -12.6776 C   0  0  0  0  0  0  0  0  0  0  0  0
   20.1363   64.4136   -9.7038 C   0  0  0  0  0  0  0  0  0  0  0  0
   21.3002   64.5887  -10.4010 O   0  0  0  0  0  0  0  0  0  0  0  0
   22.3581   64.3239   -9.5679 C   0  0  0  0  0  0  0  0  0  0  0  0
   21.7723   63.9643   -8.2422 C   0  0  0  0  0  0  0  0  0  0  0  0
   20.4450   64.3621   -8.3564 O   0  0  0  0  0  0  0  0  0  0  0  0
 13 14  1  0  0  0
 14 15  2  0  0  0
 14 19  1  0  0  0
 15 16  1  0  0  0
 16 17  2  0  0  0
 17 18  1  0  0  0
 17  1  1  0  0  0
 18 19  2  0  0  0
  1  2  1  0  0  0
  1  9  1  0  0  0
  2  3  2  0  0  0
  2  4  1  0  0  0
  4  5  1  0  0  0
  4  8  1  0  0  0
  5  6  1  0  0  0
  5 12  1  0  0  0
  5 20  1  0  0  0
  6  7  1  0  0  0
  7  8  1  0  0  0
  7 11  1  0  0  0
  8  9  1  0  0  0
  9 10  2  0  0  0
 11 12  2  0  0  0
 20 21  1  0  0  0
 20 24  1  0  0  0
 21 22  1  0  0  0
 22 23  1  0  0  0
 23 24  1  0  0  0
M  END
> <minimizedAffinity>
-7.25436

$$$$
426


 29 32  0  0  0  0  0  0  0  0999 V2000
   22.8878   63.4212   -8.6185 N   0  0  0  0  0  0  0  0  0  0  0  0
   23.6464   62.9748   -9.7591 C   0  0  0  0  0  0  0  0  0  0  0  0
   24.6421   62.1970   -9.7350 O   0  0  0  0  0  0  0  0  0  0  0  0
   23.0341   63.6012  -10.9530 C   0  0  0  0  0  0  0  0  0  0  0  0
   23.0760   62.7816  -12.1481 N   0  0  0  0  0  0  0  0  0  0  0  0
   21.8121   63.1485  -12.7056 N   0  0  0  0  0  0  0  0  0  0  0  0
   20.8558   63.2289  -11.6485 C   0  0  0  0  0  0  0  0  0  0  0  0
   21.5758   63.5035  -10.5666 C   0  0  0  0  0  0  0  0  0  0  0  0
   21.5911   63.7514   -9.1301 C   0  0  0  0  0  0  0  0  0  0  0  0
   20.5732   64.1871   -8.5241 O   0  0  0  0  0  0  0  0  0  0  0  0
   22.9363   61.7896  -11.8055 H   0  0  0  0  0  0  0  0  0  0  0  0
   21.6112   63.3275  -13.7086 H   0  0  0  0  0  0  0  0  0  0  0  0
   24.8523   63.6831   -2.8076 Br  0  0  0  0  0  0  0  0  0  0  0  0
   24.2190   63.6161   -4.6270 C   0  0  0  0  0  0  0  0  0  0  0  0
   24.8197   62.7684   -5.5222 C   0  0  0  0  0  0  0  0  0  0  0  0
   24.3607   62.7355   -6.7996 C   0  0  0  0  0  0  0  0  0  0  0  0
   23.3012   63.5201   -7.2714 C   0  0  0  0  0  0  0  0  0  0  0  0
   22.7183   64.3573   -6.3588 C   0  0  0  0  0  0  0  0  0  0  0  0
   23.1695   64.4072   -5.0532 C   0  0  0  0  0  0  0  0  0  0  0  0
   19.4091   63.0576  -11.7233 C   0  0  0  0  0  0  0  0  0  0  0  0
   18.6790   63.8713  -12.3362 O   0  0  0  0  0  0  0  0  0  0  0  0
   18.7601   61.9890  -11.1226 O   0  0  0  0  0  0  0  0  0  0  0  0
   18.0158   62.1463   -9.9224 C   0  0  0  0  0  0  0  0  0  0  0  0
   16.6683   62.7225  -10.2476 C   0  0  0  0  0  0  0  0  0  0  0  0
   16.3924   64.0624   -9.9810 C   0  0  0  0  0  0  0  0  0  0  0  0
   15.1792   64.6283  -10.2664 C   0  0  0  0  0  0  0  0  0  0  0  0
   14.1859   63.8398  -10.8409 C   0  0  0  0  0  0  0  0  0  0  0  0
   14.4627   62.5159  -11.1020 C   0  0  0  0  0  0  0  0  0  0  0  0
   15.7049   61.9490  -10.8080 C   0  0  0  0  0  0  0  0  0  0  0  0
 13 14  1  0  0  0
 14 15  2  0  0  0
 14 19  1  0  0  0
 15 16  1  0  0  0
 16 17  2  0  0  0
 17 18  1  0  0  0
 17  1  1  0  0  0
 18 19  2  0  0  0
  1  2  1  0  0  0
  1  9  1  0  0  0
  2  3  2  0  0  0
  2  4  1  0  0  0
  4  5  1  0  0  0
  4  8  1  0  0  0
  5  6  1  0  0  0
  6  7  1  0  0  0
  7  8  2  0  0  0
  7 20  1  0  0  0
  8  9  1  0  0  0
  9 10  2  0  0  0
 20 21  2  0  0  0
 20 22  1  0  0  0
 22 23  1  0  0  0
 23 24  1  0  0  0
 24 25  2  0  0  0
 24 29  1  0  0  0
 25 26  1  0  0  0
 26 27  2  0  0  0
 27 28  1  0  0  0
 28 29  2  0  0  0
  5 11  1  0  0  0
  6 12  1  0  0  0
M  END
> <minimizedAffinity>
-10.25093

$$$$
428


 28 31  0  0  0  0  0  0  0  0999 V2000
   20.3110   63.0623  -10.9550 N   0  0  0  0  0  0  0  0  0  0  0  0
   21.0153   62.6464  -12.1398 C   0  0  0  0  0  0  0  0  0  0  0  0
   20.3620   62.3323  -13.1728 O   0  0  0  0  0  0  0  0  0  0  0  0
   22.4229   62.6153  -12.0732 N   0  0  0  0  0  0  0  0  0  0  0  0
   23.0998   62.9273  -11.0473 C   0  0  0  0  0  0  0  0  0  0  0  0
   22.5516   63.3764   -9.7436 C   0  0  0  0  0  0  0  0  0  0  0  0
   23.0921   62.4848   -8.6796 C   0  0  0  0  0  0  0  0  0  0  0  0
   23.2274   63.0373   -7.3808 N   0  0  0  0  0  0  0  0  0  0  0  0
   22.6107   64.2877   -7.1745 C   0  0  0  0  0  0  0  0  0  0  0  0
   22.5273   65.2184   -8.2176 C   0  0  0  0  0  0  0  0  0  0  0  0
   21.9257   66.4255   -7.9984 C   0  0  0  0  0  0  0  0  0  0  0  0
   21.3814   66.7990   -6.7908 C   0  0  0  0  0  0  0  0  0  0  0  0
   21.4654   65.8791   -5.7667 C   0  0  0  0  0  0  0  0  0  0  0  0
   22.0710   64.6443   -5.9580 C   0  0  0  0  0  0  0  0  0  0  0  0
   20.7349   68.1174   -6.5918 C   0  0  0  0  0  0  0  0  0  0  0  0
   23.1262   64.7755   -9.5034 C   0  0  0  0  0  0  0  0  0  0  0  0
   24.6301   63.0773   -6.9343 C   0  0  0  0  0  0  0  0  0  0  0  0
   21.0748   63.4109   -9.8051 C   0  0  0  0  0  0  0  0  0  0  0  0
   20.3904   63.7683   -8.7900 O   0  0  0  0  0  0  0  0  0  0  0  0
   24.5073   62.8508  -11.1206 O   0  0  0  0  0  0  0  0  0  0  0  0
   22.7646   62.3646   -6.6989 H   0  0  0  0  0  0  0  0  0  0  0  0
   14.1996   63.0222  -10.8198 Br  0  0  0  0  0  0  0  0  0  0  0  0
   16.1053   63.0767  -10.8760 C   0  0  0  0  0  0  0  0  0  0  0  0
   16.8149   61.9670  -10.5026 C   0  0  0  0  0  0  0  0  0  0  0  0
   18.2036   61.9998  -10.5409 C   0  0  0  0  0  0  0  0  0  0  0  0
   18.8925   63.1209  -10.9455 C   0  0  0  0  0  0  0  0  0  0  0  0
   18.1590   64.2260  -11.3167 C   0  0  0  0  0  0  0  0  0  0  0  0
   16.7742   64.2183  -11.2876 C   0  0  0  0  0  0  0  0  0  0  0  0
 22 23  1  0  0  0
 23 24  2  0  0  0
 23 28  1  0  0  0
 24 25  1  0  0  0
 25 26  2  0  0  0
 26 27  1  0  0  0
 26  1  1  0  0  0
 27 28  2  0  0  0
  1  2  1  0  0  0
  1 18  1  0  0  0
  2  3  2  0  0  0
  2  4  1  0  0  0
  4  5  2  0  0  0
  5  6  1  0  0  0
  5 20  1  0  0  0
  6  7  1  0  0  0
  6 16  1  0  0  0
  6 18  1  0  0  0
  7  8  1  0  0  0
  8  9  1  0  0  0
  8 17  1  0  0  0
  9 10  2  0  0  0
  9 14  1  0  0  0
 10 11  1  0  0  0
 10 16  1  0  0  0
 11 12  2  0  0  0
 12 13  1  0  0  0
 12 15  1  0  0  0
 13 14  2  0  0  0
 18 19  2  0  0  0
  8 21  1  0  0  0
M  CHG 1   8   1
M  CHG 1  20  -1
M  END
> <minimizedAffinity>
-4.30836

$$$$
429


 36 39  0  0  0  0  0  0  0  0999 V2000
   17.7626   62.1514  -10.7234 N   0  0  0  0  0  0  0  0  0  0  0  0
   17.4340   60.8500  -10.2335 C   0  0  0  0  0  0  0  0  0  0  0  0
   18.3939   60.1095   -9.8474 O   0  0  0  0  0  0  0  0  0  0  0  0
   16.0805   60.4348  -10.1949 N   0  0  0  0  0  0  0  0  0  0  0  0
   14.9907   61.2462  -10.6219 C   0  0  0  0  0  0  0  0  0  0  0  0
   13.7932   60.8485  -10.5748 O   0  0  0  0  0  0  0  0  0  0  0  0
   15.2931   62.5953  -11.1326 C   0  0  0  0  0  0  0  0  0  0  0  0
   14.3236   63.3968  -11.5461 C   0  0  0  0  0  0  0  0  0  0  0  0
   16.6960   62.9930  -11.1593 C   0  0  0  0  0  0  0  0  0  0  0  0
   17.0029   64.1353  -11.5872 O   0  0  0  0  0  0  0  0  0  0  0  0
   15.8830   59.4746   -9.8285 H   0  0  0  0  0  0  0  0  0  0  0  0
   23.6194   63.9230  -11.0260 Br  0  0  0  0  0  0  0  0  0  0  0  0
   21.7895   63.3713  -10.9179 C   0  0  0  0  0  0  0  0  0  0  0  0
   21.0987   62.9812  -12.0528 C   0  0  0  0  0  0  0  0  0  0  0  0
   19.7784   62.5839  -11.9652 C   0  0  0  0  0  0  0  0  0  0  0  0
   19.1005   62.5596  -10.7628 C   0  0  0  0  0  0  0  0  0  0  0  0
   19.7744   62.9454   -9.6233 C   0  0  0  0  0  0  0  0  0  0  0  0
   21.0933   63.3386   -9.7292 C   0  0  0  0  0  0  0  0  0  0  0  0
   14.6469   64.6914  -12.0335 N   0  0  0  0  0  0  0  0  0  0  0  0
   15.0229   65.3651  -11.3124 H   0  0  0  0  0  0  0  0  0  0  0  0
   14.5044   65.1118  -13.3457 N   0  0  0  0  0  0  0  0  0  0  0  0
   15.4069   65.1444  -13.9040 H   0  0  0  0  0  0  0  0  0  0  0  0
   13.2696   65.4844  -13.9454 C   0  0  0  0  0  0  0  0  0  0  0  0
   12.3507   64.6316  -14.4101 N   0  0  0  0  0  0  0  0  0  0  0  0
   11.3095   65.3201  -14.9061 C   0  0  0  0  0  0  0  0  0  0  0  0
   11.5936   66.6693  -14.7428 C   0  0  0  0  0  0  0  0  0  0  0  0
   12.7895   66.7104  -14.1577 N   0  0  0  0  0  0  0  0  0  0  0  0
   10.7366   67.6248  -15.1449 N   0  0  0  0  0  0  0  0  0  0  0  0
    9.5872   67.2615  -15.7142 C   0  0  0  0  0  0  0  0  0  0  0  0
    8.7509   68.1317  -16.1072 O   0  0  0  0  0  0  0  0  0  0  0  0
    9.2457   65.9587  -15.9043 N   0  0  0  0  0  0  0  0  0  0  0  0
   10.1153   65.0049  -15.4966 C   0  0  0  0  0  0  0  0  0  0  0  0
    9.8062   63.8081  -15.6702 O   0  0  0  0  0  0  0  0  0  0  0  0
    7.9902   65.6172  -16.5229 C   0  0  0  0  0  0  0  0  0  0  0  0
   11.0995   68.9964  -14.9438 C   0  0  0  0  0  0  0  0  0  0  0  0
   12.3724   63.1646  -14.4253 C   0  0  0  0  0  0  0  0  0  0  0  0
 12 13  1  0  0  0
 13 14  2  0  0  0
 13 18  1  0  0  0
 14 15  1  0  0  0
 15 16  2  0  0  0
 16 17  1  0  0  0
 16  1  1  0  0  0
 17 18  2  0  0  0
  1  2  1  0  0  0
  1  9  1  0  0  0
  2  3  2  0  0  0
  2  4  1  0  0  0
  4  5  1  0  0  0
  5  6  2  0  0  0
  5  7  1  0  0  0
  7  8  2  0  0  0
  7  9  1  0  0  0
  8 19  1  0  0  0
 19 21  1  0  0  0
 21 23  1  0  0  0
 23 24  1  0  0  0
 23 27  2  0  0  0
 24 25  1  0  0  0
 24 36  1  0  0  0
 25 26  2  0  0  0
 25 32  1  0  0  0
 26 27  1  0  0  0
 26 28  1  0  0  0
 28 29  1  0  0  0
 28 35  1  0  0  0
 29 30  2  0  0  0
 29 31  1  0  0  0
 31 32  1  0  0  0
 31 34  1  0  0  0
 32 33  2  0  0  0
  9 10  2  0  0  0
  4 11  1  0  0  0
 19 20  1  0  0  0
 21 22  1  0  0  0
M  END
> <minimizedAffinity>
-8.70734

$$$$
436


 29 32  0  0  0  0  0  0  0  0999 V2000
   20.8820   63.3429   -9.9685 N   0  0  0  0  0  0  0  0  0  0  0  0
   21.7355   63.6385  -11.1019 C   0  0  0  0  0  0  0  0  0  0  0  0
   23.1557   63.9640  -10.7022 C   0  0  0  0  0  0  0  0  0  0  0  0
   23.5697   62.9252   -9.6485 C   0  0  0  0  0  0  0  0  0  0  0  0
   22.7996   63.2562   -8.4781 N   0  0  0  0  0  0  0  0  0  0  0  0
   21.4612   63.4578   -8.6747 C   0  0  0  0  0  0  0  0  0  0  0  0
   20.8985   63.7564   -7.4922 N   0  0  0  0  0  0  0  0  0  0  0  0
   21.8963   63.7350   -6.5731 C   0  0  0  0  0  0  0  0  0  0  0  0
   23.0991   63.4196   -7.1860 C   0  0  0  0  0  0  0  0  0  0  0  0
   24.2651   63.3386   -6.4505 C   0  0  0  0  0  0  0  0  0  0  0  0
   25.3519   63.0452   -7.0529 O   0  0  0  0  0  0  0  0  0  0  0  0
   24.2263   63.5679   -5.1260 N   0  0  0  0  0  0  0  0  0  0  0  0
   23.0467   63.8715   -4.5569 C   0  0  0  0  0  0  0  0  0  0  0  0
   23.0554   64.0789   -3.3134 O   0  0  0  0  0  0  0  0  0  0  0  0
   21.9094   63.9556   -5.2467 N   0  0  0  0  0  0  0  0  0  0  0  0
   20.6497   64.2872   -4.5975 C   0  0  0  0  0  0  0  0  0  0  0  0
   15.1913   61.3618  -10.8583 Br  0  0  0  0  0  0  0  0  0  0  0  0
   16.9353   62.0307  -10.5995 C   0  0  0  0  0  0  0  0  0  0  0  0
   17.2578   63.3528  -10.8235 C   0  0  0  0  0  0  0  0  0  0  0  0
   18.5566   63.8240  -10.6245 C   0  0  0  0  0  0  0  0  0  0  0  0
   19.5403   62.9621  -10.1965 C   0  0  0  0  0  0  0  0  0  0  0  0
   19.1820   61.6509   -9.9833 C   0  0  0  0  0  0  0  0  0  0  0  0
   17.9176   61.1610  -10.1700 C   0  0  0  0  0  0  0  0  0  0  0  0
   25.4471   63.4840   -4.3433 C   0  0  0  0  0  0  0  0  0  0  0  0
   25.7126   62.0420   -4.0268 C   0  0  0  0  0  0  0  0  0  0  0  0
   25.0772   61.4624   -3.1153 O   0  0  0  0  0  0  0  0  0  0  0  0
   26.6792   61.2979   -4.7409 N   0  0  0  0  0  0  0  0  0  0  0  0
   26.5527   60.2878   -4.9778 H   0  0  0  0  0  0  0  0  0  0  0  0
   27.5754   61.7375   -5.0666 H   0  0  0  0  0  0  0  0  0  0  0  0
 17 18  1  0  0  0
 18 19  2  0  0  0
 18 23  1  0  0  0
 19 20  1  0  0  0
 20 21  2  0  0  0
 21 22  1  0  0  0
 21  1  1  0  0  0
 22 23  2  0  0  0
  1  2  1  0  0  0
  1  6  1  0  0  0
  2  3  1  0  0  0
  3  4  1  0  0  0
  4  5  1  0  0  0
  5  6  1  0  0  0
  5  9  1  0  0  0
  6  7  2  0  0  0
  7  8  1  0  0  0
  8  9  2  0  0  0
  8 15  1  0  0  0
  9 10  1  0  0  0
 10 11  2  0  0  0
 10 12  1  0  0  0
 12 13  1  0  0  0
 12 24  1  0  0  0
 13 14  2  0  0  0
 13 15  1  0  0  0
 15 16  1  0  0  0
 24 25  1  0  0  0
 25 26  2  0  0  0
 25 27  1  0  0  0
 27 28  1  0  0  0
 27 29  1  0  0  0
M  END
> <minimizedAffinity>
-6.35972

$$$$
439


 28 32  0  0  0  0  0  0  0  0999 V2000
   20.7939   63.0917   -9.6185 N   0  0  0  0  0  0  0  0  0  0  0  0
   21.8171   62.9881  -10.4598 N   0  0  0  0  0  0  0  0  0  0  0  0
   22.9809   63.1787   -9.8113 C   0  0  0  0  0  0  0  0  0  0  0  0
   24.1943   63.1436  -10.3474 C   0  0  0  0  0  0  0  0  0  0  0  0
   22.7071   63.4177   -8.4803 C   0  0  0  0  0  0  0  0  0  0  0  0
   23.5627   63.6580   -7.4828 C   0  0  0  0  0  0  0  0  0  0  0  0
   21.3238   63.3542   -8.4054 C   0  0  0  0  0  0  0  0  0  0  0  0
   20.6738   63.5213   -7.3481 O   0  0  0  0  0  0  0  0  0  0  0  0
   21.7305   62.7885  -11.4762 H   0  0  0  0  0  0  0  0  0  0  0  0
   14.8135   62.4537  -10.8814 Br  0  0  0  0  0  0  0  0  0  0  0  0
   16.6877   62.6273  -10.4862 C   0  0  0  0  0  0  0  0  0  0  0  0
   17.4966   61.5393  -10.3484 C   0  0  0  0  0  0  0  0  0  0  0  0
   18.8493   61.7061  -10.0623 C   0  0  0  0  0  0  0  0  0  0  0  0
   19.4077   62.9583   -9.9104 C   0  0  0  0  0  0  0  0  0  0  0  0
   18.5596   64.0348  -10.0563 C   0  0  0  0  0  0  0  0  0  0  0  0
   17.2199   63.8977  -10.3391 C   0  0  0  0  0  0  0  0  0  0  0  0
   23.0259   63.8769   -6.1837 N   0  0  0  0  0  0  0  0  0  0  0  0
   22.0868   64.2953   -6.1142 H   0  0  0  0  0  0  0  0  0  0  0  0
   23.7466   63.5356   -4.9912 C   0  0  0  0  0  0  0  0  0  0  0  0
   22.8485   62.8675   -3.9994 C   0  0  0  0  0  0  0  0  0  0  0  0
   23.6369   62.4508   -2.8482 N   0  0  0  0  0  0  0  0  0  0  0  0
   24.6538   61.5196   -3.3214 C   0  0  0  0  0  0  0  0  0  0  0  0
   25.5788   62.1540   -4.2285 N   0  0  0  0  0  0  0  0  0  0  0  0
   26.1488   63.3387   -3.5942 C   0  0  0  0  0  0  0  0  0  0  0  0
   25.1237   64.2696   -3.1797 N   0  0  0  0  0  0  0  0  0  0  0  0
   24.2410   63.6113   -2.2448 C   0  0  0  0  0  0  0  0  0  0  0  0
   24.3761   64.7355   -4.3229 C   0  0  0  0  0  0  0  0  0  0  0  0
   24.8740   62.5855   -5.4072 C   0  0  0  0  0  0  0  0  0  0  0  0
 10 11  1  0  0  0
 11 12  2  0  0  0
 11 16  1  0  0  0
 12 13  1  0  0  0
 13 14  2  0  0  0
 14 15  1  0  0  0
 14  1  1  0  0  0
 15 16  2  0  0  0
  1  2  1  0  0  0
  1  7  1  0  0  0
  2  3  1  0  0  0
  3  4  2  0  0  0
  3  5  1  0  0  0
  5  6  2  0  0  0
  5  7  1  0  0  0
  6 17  1  0  0  0
 17 19  1  0  0  0
 19 20  1  0  0  0
 19 27  1  0  0  0
 19 28  1  0  0  0
 20 21  1  0  0  0
 21 22  1  0  0  0
 21 26  1  0  0  0
 22 23  1  0  0  0
 23 24  1  0  0  0
 23 28  1  0  0  0
 24 25  1  0  0  0
 25 26  1  0  0  0
 25 27  1  0  0  0
  7  8  2  0  0  0
  2  9  1  0  0  0
 17 18  1  0  0  0
M  END
> <minimizedAffinity>
-8.01464

$$$$
441


 36 39  0  0  0  0  0  0  0  0999 V2000
   19.0519   63.7823  -10.3308 C   0  0  0  0  0  0  0  0  0  0  0  0
   20.1026   64.2256   -9.6160 N   0  0  0  0  0  0  0  0  0  0  0  0
   21.3319   63.9690  -10.0321 C   0  0  0  0  0  0  0  0  0  0  0  0
   22.5177   64.2965   -9.5022 N   0  0  0  0  0  0  0  0  0  0  0  0
   23.4465   63.7790  -10.3382 C   0  0  0  0  0  0  0  0  0  0  0  0
   22.8508   63.1502  -11.3558 N   0  0  0  0  0  0  0  0  0  0  0  0
   21.5273   63.2403  -11.2116 C   0  0  0  0  0  0  0  0  0  0  0  0
   20.4529   62.7819  -11.9510 C   0  0  0  0  0  0  0  0  0  0  0  0
   19.2361   63.0716  -11.4824 N   0  0  0  0  0  0  0  0  0  0  0  0
   20.7048   62.0645  -13.1113 O   0  0  0  0  0  0  0  0  0  0  0  0
   21.4594   62.4292  -13.7035 H   0  0  0  0  0  0  0  0  0  0  0  0
   22.8497   65.0194   -8.3349 C   0  0  0  0  0  0  0  0  0  0  0  0
   24.0306   64.5482   -7.7463 O   0  0  0  0  0  0  0  0  0  0  0  0
   23.5566   63.7170   -6.7348 C   0  0  0  0  0  0  0  0  0  0  0  0
   22.5691   64.6536   -6.0547 C   0  0  0  0  0  0  0  0  0  0  0  0
   21.8219   65.1464   -7.2916 C   0  0  0  0  0  0  0  0  0  0  0  0
   21.4161   66.4867   -7.1045 O   0  0  0  0  0  0  0  0  0  0  0  0
   21.7628   64.0325   -5.1428 O   0  0  0  0  0  0  0  0  0  0  0  0
   20.6370   66.4426   -6.4955 H   0  0  0  0  0  0  0  0  0  0  0  0
   22.1956   63.2287   -4.7105 H   0  0  0  0  0  0  0  0  0  0  0  0
   24.6440   63.2662   -5.8032 C   0  0  0  0  0  0  0  0  0  0  0  0
   24.2379   62.3366   -4.8848 O   0  0  0  0  0  0  0  0  0  0  0  0
   24.3753   61.4323   -5.2700 H   0  0  0  0  0  0  0  0  0  0  0  0
   16.6862   64.3847  -10.8131 C   0  0  0  0  0  0  0  0  0  0  0  0
   16.9264   64.4877  -12.0290 O   0  0  0  0  0  0  0  0  0  0  0  0
   17.7125   64.0352   -9.9125 N   0  0  0  0  0  0  0  0  0  0  0  0
   17.5082   63.9475   -8.8754 H   0  0  0  0  0  0  0  0  0  0  0  0
   15.3231   64.6308  -10.3076 C   0  0  0  0  0  0  0  0  0  0  0  0
   14.4413   63.5763  -10.5637 O   0  0  0  0  0  0  0  0  0  0  0  0
   11.6149   63.2417  -15.9418 Br  0  0  0  0  0  0  0  0  0  0  0  0
   12.5061   63.3557  -14.2449 C   0  0  0  0  0  0  0  0  0  0  0  0
   12.8777   62.2019  -13.5906 C   0  0  0  0  0  0  0  0  0  0  0  0
   13.5262   62.2859  -12.3554 C   0  0  0  0  0  0  0  0  0  0  0  0
   13.8010   63.5042  -11.7814 C   0  0  0  0  0  0  0  0  0  0  0  0
   13.4232   64.6425  -12.4496 C   0  0  0  0  0  0  0  0  0  0  0  0
   12.7839   64.5765  -13.6656 C   0  0  0  0  0  0  0  0  0  0  0  0
 30 31  1  0  0  0
 31 32  2  0  0  0
 31 36  1  0  0  0
 32 33  1  0  0  0
 33 34  2  0  0  0
 34 35  1  0  0  0
 34 29  1  0  0  0
 35 36  2  0  0  0
 29 28  1  0  0  0
 28 24  1  0  0  0
 24 25  2  0  0  0
 24 26  1  0  0  0
 26  1  1  0  0  0
  1  2  2  0  0  0
  1  9  1  0  0  0
  2  3  1  0  0  0
  3  4  1  0  0  0
  3  7  2  0  0  0
  4  5  1  0  0  0
  4 12  1  0  0  0
  5  6  2  0  0  0
  6  7  1  0  0  0
  7  8  1  0  0  0
  8  9  2  0  0  0
  8 10  1  0  0  0
 12 13  1  0  0  0
 12 16  1  0  0  0
 13 14  1  0  0  0
 14 15  1  0  0  0
 14 21  1  0  0  0
 15 16  1  0  0  0
 15 18  1  0  0  0
 16 17  1  0  0  0
 21 22  1  0  0  0
 26 27  1  0  0  0
 10 11  1  0  0  0
 17 19  1  0  0  0
 18 20  1  0  0  0
 22 23  1  0  0  0
M  END
> <minimizedAffinity>
-9.88768

$$$$
444


 33 36  0  0  0  0  0  0  0  0999 V2000
   21.7217   63.7277  -10.3941 N   0  0  0  0  0  0  0  0  0  0  0  0
   22.2314   63.4683  -11.6203 C   0  0  0  0  0  0  0  0  0  0  0  0
   23.6027   63.5601  -11.5482 C   0  0  0  0  0  0  0  0  0  0  0  0
   23.8652   63.8715  -10.2958 N   0  0  0  0  0  0  0  0  0  0  0  0
   22.7265   63.9887   -9.5433 C   0  0  0  0  0  0  0  0  0  0  0  0
   24.4376   63.3578  -12.6090 N   0  0  0  0  0  0  0  0  0  0  0  0
   23.8774   63.0538  -13.7808 C   0  0  0  0  0  0  0  0  0  0  0  0
   24.6334   62.8624  -14.7714 O   0  0  0  0  0  0  0  0  0  0  0  0
   22.5449   62.9590  -13.8818 N   0  0  0  0  0  0  0  0  0  0  0  0
   21.6923   63.1536  -12.8488 C   0  0  0  0  0  0  0  0  0  0  0  0
   20.4625   63.0603  -12.9723 O   0  0  0  0  0  0  0  0  0  0  0  0
   25.8857   63.4692  -12.4297 C   0  0  0  0  0  0  0  0  0  0  0  0
   22.1448   62.7201  -14.8128 H   0  0  0  0  0  0  0  0  0  0  0  0
   22.7222   64.3896   -8.1596 N   0  0  0  0  0  0  0  0  0  0  0  0
   23.4397   63.4479   -7.2720 C   0  0  0  0  0  0  0  0  0  0  0  0
   23.7165   63.9669   -5.9194 C   0  0  0  0  0  0  0  0  0  0  0  0
   22.6813   64.8322   -5.4123 N   0  0  0  0  0  0  0  0  0  0  0  0
   22.6524   65.9664   -6.2806 C   0  0  0  0  0  0  0  0  0  0  0  0
   22.1474   65.5939   -7.6742 C   0  0  0  0  0  0  0  0  0  0  0  0
   21.4362   64.1596   -5.2391 C   0  0  0  0  0  0  0  0  0  0  0  0
   20.3232   63.6772  -10.0269 C   0  0  0  0  0  0  0  0  0  0  0  0
   19.7861   62.3114   -9.7126 C   0  0  0  0  0  0  0  0  0  0  0  0
   19.6586   61.5163  -10.8604 O   0  0  0  0  0  0  0  0  0  0  0  0
   19.6807   60.5436  -10.5849 H   0  0  0  0  0  0  0  0  0  0  0  0
   18.4849   62.2500   -8.9774 C   0  0  0  0  0  0  0  0  0  0  0  0
   17.4087   62.1655   -9.7307 O   0  0  0  0  0  0  0  0  0  0  0  0
   12.9795   64.4237  -13.0752 Br  0  0  0  0  0  0  0  0  0  0  0  0
   14.3810   63.7034  -12.0139 C   0  0  0  0  0  0  0  0  0  0  0  0
   14.2989   62.3997  -11.6048 C   0  0  0  0  0  0  0  0  0  0  0  0
   15.3129   61.8731  -10.8349 C   0  0  0  0  0  0  0  0  0  0  0  0
   16.4151   62.6142  -10.4586 C   0  0  0  0  0  0  0  0  0  0  0  0
   16.4695   63.9570  -10.8958 C   0  0  0  0  0  0  0  0  0  0  0  0
   15.4700   64.4703  -11.6528 C   0  0  0  0  0  0  0  0  0  0  0  0
 27 28  1  0  0  0
 28 29  2  0  0  0
 28 33  1  0  0  0
 29 30  1  0  0  0
 30 31  2  0  0  0
 31 32  1  0  0  0
 31 26  1  0  0  0
 32 33  2  0  0  0
 26 25  1  0  0  0
 25 22  1  0  0  0
 22 23  1  0  0  0
 22 21  1  0  0  0
 21  1  1  0  0  0
  1  2  1  0  0  0
  1  5  1  0  0  0
  2  3  2  0  0  0
  2 10  1  0  0  0
  3  4  1  0  0  0
  3  6  1  0  0  0
  4  5  2  0  0  0
  5 14  1  0  0  0
 14 15  1  0  0  0
 14 19  1  0  0  0
 15 16  1  0  0  0
 16 17  1  0  0  0
 17 18  1  0  0  0
 17 20  1  0  0  0
 18 19  1  0  0  0
  6  7  1  0  0  0
  6 12  1  0  0  0
  7  8  2  0  0  0
  7  9  1  0  0  0
  9 10  1  0  0  0
 10 11  2  0  0  0
 23 24  1  0  0  0
  9 13  1  0  0  0
M  END
> <minimizedAffinity>
-6.54339

$$$$
454


 21 25  0  0  0  0  0  0  0  0999 V2000
   21.1115   64.7446   -9.6203 C   0  0  0  0  0  0  0  0  0  0  0  0
   23.5719   63.1510  -10.7705 Br  0  0  0  0  0  0  0  0  0  0  0  0
   23.2449   63.7212   -8.9737 C   0  0  0  0  0  0  0  0  0  0  0  0
   24.1186   63.3716   -7.9609 C   0  0  0  0  0  0  0  0  0  0  0  0
   23.8933   63.7702   -6.6589 C   0  0  0  0  0  0  0  0  0  0  0  0
   22.8121   64.5190   -6.2586 C   0  0  0  0  0  0  0  0  0  0  0  0
   21.9507   64.8603   -7.2652 C   0  0  0  0  0  0  0  0  0  0  0  0
   22.1282   64.4879   -8.5996 C   0  0  0  0  0  0  0  0  0  0  0  0
   22.9683   64.6779   -4.8911 O   0  0  0  0  0  0  0  0  0  0  0  0
   23.7225   63.5360   -4.3979 C   0  0  0  0  0  0  0  0  0  0  0  0
   24.6809   63.5004   -5.4980 O   0  0  0  0  0  0  0  0  0  0  0  0
   20.1093   63.7971   -9.8775 N   0  0  0  0  0  0  0  0  0  0  0  0
   20.2319   63.6579  -11.3733 C   0  0  0  0  0  0  0  0  0  0  0  0
   19.1622   62.9951  -11.9900 N   0  0  0  0  0  0  0  0  0  0  0  0
   17.9485   63.7114  -11.6383 C   0  0  0  0  0  0  0  0  0  0  0  0
   17.7739   63.5813  -10.2128 N   0  0  0  0  0  0  0  0  0  0  0  0
   18.7862   64.2894   -9.4981 C   0  0  0  0  0  0  0  0  0  0  0  0
   17.7668   62.1902   -9.7453 C   0  0  0  0  0  0  0  0  0  0  0  0
   19.0793   61.6379  -10.0385 N   0  0  0  0  0  0  0  0  0  0  0  0
   20.1544   62.4431   -9.4208 C   0  0  0  0  0  0  0  0  0  0  0  0
   19.1856   61.6202  -11.4778 C   0  0  0  0  0  0  0  0  0  0  0  0
  2  3  1  0  0  0
  3  4  2  0  0  0
  3  8  1  0  0  0
  4  5  1  0  0  0
  5  6  2  0  0  0
  5 11  1  0  0  0
  6  7  1  0  0  0
  6  9  1  0  0  0
  7  8  2  0  0  0
  8  1  1  0  0  0
  1 12  1  0  0  0
 12 13  1  0  0  0
 12 17  1  0  0  0
 12 20  1  0  0  0
 13 14  1  0  0  0
 14 15  1  0  0  0
 14 21  1  0  0  0
 15 16  1  0  0  0
 16 17  1  0  0  0
 16 18  1  0  0  0
 18 19  1  0  0  0
 19 20  1  0  0  0
 19 21  1  0  0  0
  9 10  1  0  0  0
 10 11  1  0  0  0
M  CHG 1  12   1
M  END
> <minimizedAffinity>
-6.56407

$$$$
455


 26 29  0  0  0  0  0  0  0  0999 V2000
   20.0185   62.3462  -10.0177 N   0  0  0  0  0  0  0  0  0  0  0  0
   19.8795   62.5183  -11.4874 C   0  0  0  0  0  0  0  0  0  0  0  0
   21.0942   63.3646  -11.8536 C   0  0  0  0  0  0  0  0  0  0  0  0
   21.7687   63.9163  -10.7364 N   0  0  0  0  0  0  0  0  0  0  0  0
   20.8817   64.5618   -9.8042 C   0  0  0  0  0  0  0  0  0  0  0  0
   19.6981   63.6847   -9.5181 C   0  0  0  0  0  0  0  0  0  0  0  0
   19.0415   61.3809   -9.5532 C   0  0  0  0  0  0  0  0  0  0  0  0
   17.1744   58.9522   -9.5638 Br  0  0  0  0  0  0  0  0  0  0  0  0
   16.7211   60.6929  -10.2062 C   0  0  0  0  0  0  0  0  0  0  0  0
   15.4679   60.9431  -10.7166 C   0  0  0  0  0  0  0  0  0  0  0  0
   15.1268   62.1889  -11.1815 C   0  0  0  0  0  0  0  0  0  0  0  0
   16.0703   63.1750  -11.1218 C   0  0  0  0  0  0  0  0  0  0  0  0
   17.3388   62.9179  -10.6043 C   0  0  0  0  0  0  0  0  0  0  0  0
   17.7063   61.6755  -10.1309 C   0  0  0  0  0  0  0  0  0  0  0  0
   15.7457   64.4399  -11.5858 O   0  0  0  0  0  0  0  0  0  0  0  0
   14.6031   64.7166  -12.3538 C   0  0  0  0  0  0  0  0  0  0  0  0
   13.4777   63.7936  -12.0118 C   0  0  0  0  0  0  0  0  0  0  0  0
   13.8733   62.4816  -11.7025 O   0  0  0  0  0  0  0  0  0  0  0  0
   22.8319   63.1775  -10.1687 C   0  0  0  0  0  0  0  0  0  0  0  0
   23.1394   63.4524   -8.7775 C   0  0  0  0  0  0  0  0  0  0  0  0
   23.3296   62.5246   -7.9631 O   0  0  0  0  0  0  0  0  0  0  0  0
   23.2350   64.7807   -8.3022 N   0  0  0  0  0  0  0  0  0  0  0  0
   23.0896   65.6222   -8.9313 H   0  0  0  0  0  0  0  0  0  0  0  0
   23.5415   65.0949   -6.9120 C   0  0  0  0  0  0  0  0  0  0  0  0
   22.4875   65.0554   -5.8857 C   0  0  0  0  0  0  0  0  0  0  0  0
   22.9239   66.3936   -6.4005 C   0  0  0  0  0  0  0  0  0  0  0  0
  8  9  1  0  0  0
  9 10  2  0  0  0
  9 14  1  0  0  0
 10 11  1  0  0  0
 11 12  2  0  0  0
 11 18  1  0  0  0
 12 13  1  0  0  0
 12 15  1  0  0  0
 13 14  2  0  0  0
 14  7  1  0  0  0
  7  1  1  0  0  0
  1  2  1  0  0  0
  1  6  1  0  0  0
  2  3  1  0  0  0
  3  4  1  0  0  0
  4  5  1  0  0  0
  4 19  1  0  0  0
  5  6  1  0  0  0
 19 20  1  0  0  0
 20 21  2  0  0  0
 20 22  1  0  0  0
 22 24  1  0  0  0
 24 25  1  0  0  0
 24 26  1  0  0  0
 25 26  1  0  0  0
 15 16  1  0  0  0
 16 17  1  0  0  0
 17 18  1  0  0  0
 22 23  1  0  0  0
M  END
> <minimizedAffinity>
-9.00457

$$$$
459


 29 32  0  0  0  0  0  0  0  0999 V2000
   21.5948   63.2036   -9.5823 C   0  0  0  0  0  0  0  0  0  0  0  0
   20.4964   63.0432   -8.7267 C   0  0  0  0  0  0  0  0  0  0  0  0
   19.1932   63.1569   -9.1543 C   0  0  0  0  0  0  0  0  0  0  0  0
   18.9122   63.4412  -10.4727 C   0  0  0  0  0  0  0  0  0  0  0  0
   19.9807   63.6035  -11.3286 C   0  0  0  0  0  0  0  0  0  0  0  0
   21.3033   63.4883  -10.8975 C   0  0  0  0  0  0  0  0  0  0  0  0
   17.5302   63.5654  -10.9426 C   0  0  0  0  0  0  0  0  0  0  0  0
   16.4633   62.8126  -10.6272 N   0  0  0  0  0  0  0  0  0  0  0  0
   15.3987   63.2812  -11.2864 N   0  0  0  0  0  0  0  0  0  0  0  0
   15.7818   64.3196  -12.0148 N   0  0  0  0  0  0  0  0  0  0  0  0
   17.0761   64.4894  -11.8043 N   0  0  0  0  0  0  0  0  0  0  0  0
   14.0378   62.7872  -11.2564 C   0  0  0  0  0  0  0  0  0  0  0  0
   13.4240   62.8981  -12.5977 C   0  0  0  0  0  0  0  0  0  0  0  0
   13.2918   61.8818  -13.2984 O   0  0  0  0  0  0  0  0  0  0  0  0
   12.9985   64.1620  -13.0601 N   0  0  0  0  0  0  0  0  0  0  0  0
   13.4663   65.0645  -12.7673 H   0  0  0  0  0  0  0  0  0  0  0  0
   12.1930   64.2316  -13.7175 H   0  0  0  0  0  0  0  0  0  0  0  0
   22.8856   63.0823   -9.0983 O   0  0  0  0  0  0  0  0  0  0  0  0
   23.5823   64.1140   -8.4664 C   0  0  0  0  0  0  0  0  0  0  0  0
   21.7633   65.8699   -6.7607 Br  0  0  0  0  0  0  0  0  0  0  0  0
   23.0342   64.6070   -6.0839 C   0  0  0  0  0  0  0  0  0  0  0  0
   23.1936   64.3978   -4.7367 C   0  0  0  0  0  0  0  0  0  0  0  0
   24.1145   63.4834   -4.2671 C   0  0  0  0  0  0  0  0  0  0  0  0
   24.8786   62.7764   -5.1711 C   0  0  0  0  0  0  0  0  0  0  0  0
   24.7098   62.9946   -6.5374 C   0  0  0  0  0  0  0  0  0  0  0  0
   23.7975   63.9026   -7.0246 C   0  0  0  0  0  0  0  0  0  0  0  0
   25.7032   61.9460   -4.4382 O   0  0  0  0  0  0  0  0  0  0  0  0
   25.2728   61.8867   -3.0896 C   0  0  0  0  0  0  0  0  0  0  0  0
   24.4962   63.0609   -2.9919 O   0  0  0  0  0  0  0  0  0  0  0  0
 20 21  1  0  0  0
 21 22  2  0  0  0
 21 26  1  0  0  0
 22 23  1  0  0  0
 23 24  2  0  0  0
 23 29  1  0  0  0
 24 25  1  0  0  0
 24 27  1  0  0  0
 25 26  2  0  0  0
 26 19  1  0  0  0
 19 18  1  0  0  0
 18  1  1  0  0  0
  1  2  2  0  0  0
  1  6  1  0  0  0
  2  3  1  0  0  0
  3  4  2  0  0  0
  4  5  1  0  0  0
  4  7  1  0  0  0
  5  6  2  0  0  0
  7  8  2  0  0  0
  7 11  1  0  0  0
  8  9  1  0  0  0
  9 10  1  0  0  0
  9 12  1  0  0  0
 10 11  2  0  0  0
 12 13  1  0  0  0
 13 14  2  0  0  0
 13 15  1  0  0  0
 27 28  1  0  0  0
 28 29  1  0  0  0
 15 16  1  0  0  0
 15 17  1  0  0  0
M  END
> <minimizedAffinity>
-9.34281

$$$$
467


 28 31  0  0  0  0  0  0  0  0999 V2000
   21.9382   63.2264   -9.1693 N   0  0  0  0  0  0  0  0  0  0  0  0
   22.6968   62.6963   -9.6500 H   0  0  0  0  0  0  0  0  0  0  0  0
   22.2670   64.0007   -8.0354 C   0  0  0  0  0  0  0  0  0  0  0  0
   23.0390   63.4079   -7.1097 N   0  0  0  0  0  0  0  0  0  0  0  0
   23.4573   64.0456   -5.9832 C   0  0  0  0  0  0  0  0  0  0  0  0
   23.0534   65.3075   -5.8456 N   0  0  0  0  0  0  0  0  0  0  0  0
   22.2893   65.9516   -6.7244 C   0  0  0  0  0  0  0  0  0  0  0  0
   21.8962   65.2651   -7.8387 N   0  0  0  0  0  0  0  0  0  0  0  0
   24.2500   63.3522   -5.0661 N   0  0  0  0  0  0  0  0  0  0  0  0
   25.4938   62.7361   -5.4626 C   0  0  0  0  0  0  0  0  0  0  0  0
   26.3499   62.4099   -4.2570 C   0  0  0  0  0  0  0  0  0  0  0  0
   26.2567   63.2734   -3.2154 O   0  0  0  0  0  0  0  0  0  0  0  0
   25.0479   63.8143   -2.9053 C   0  0  0  0  0  0  0  0  0  0  0  0
   23.8672   63.2388   -3.6818 C   0  0  0  0  0  0  0  0  0  0  0  0
   21.8862   67.2647   -6.5522 O   0  0  0  0  0  0  0  0  0  0  0  0
   22.8290   68.2814   -6.3411 C   0  0  0  0  0  0  0  0  0  0  0  0
   19.5716   62.9930   -9.0324 C   0  0  0  0  0  0  0  0  0  0  0  0
   20.6538   63.1426   -9.6692 N   0  0  0  0  0  0  0  0  0  0  0  0
   18.5203   60.1064   -9.4447 Br  0  0  0  0  0  0  0  0  0  0  0  0
   17.6768   61.7176   -9.9764 C   0  0  0  0  0  0  0  0  0  0  0  0
   16.4577   61.6813  -10.6270 C   0  0  0  0  0  0  0  0  0  0  0  0
   15.7997   62.8419  -11.0385 C   0  0  0  0  0  0  0  0  0  0  0  0
   16.4137   64.0631  -10.7714 C   0  0  0  0  0  0  0  0  0  0  0  0
   17.6302   64.0743  -10.1208 C   0  0  0  0  0  0  0  0  0  0  0  0
   18.2921   62.9200   -9.7077 C   0  0  0  0  0  0  0  0  0  0  0  0
   15.5784   65.0371  -11.2697 O   0  0  0  0  0  0  0  0  0  0  0  0
   14.5218   64.4670  -12.0166 C   0  0  0  0  0  0  0  0  0  0  0  0
   14.6068   63.1040  -11.6925 O   0  0  0  0  0  0  0  0  0  0  0  0
 19 20  1  0  0  0
 20 21  2  0  0  0
 20 25  1  0  0  0
 21 22  1  0  0  0
 22 23  2  0  0  0
 22 28  1  0  0  0
 23 24  1  0  0  0
 23 26  1  0  0  0
 24 25  2  0  0  0
 25 17  1  0  0  0
 17 18  2  0  0  0
 18  1  1  0  0  0
  1  3  1  0  0  0
  3  4  2  0  0  0
  3  8  1  0  0  0
  4  5  1  0  0  0
  5  6  2  0  0  0
  5  9  1  0  0  0
  6  7  1  0  0  0
  7  8  2  0  0  0
  7 15  1  0  0  0
 15 16  1  0  0  0
  9 10  1  0  0  0
  9 14  1  0  0  0
 10 11  1  0  0  0
 11 12  1  0  0  0
 12 13  1  0  0  0
 13 14  1  0  0  0
 26 27  1  0  0  0
 27 28  1  0  0  0
  1  2  1  0  0  0
M  END
> <minimizedAffinity>
-9.25684

$$$$
469


 32 36  0  0  0  0  0  0  0  0999 V2000
   21.6296   64.0803  -10.8782 C   0  0  0  0  0  0  0  0  0  0  0  0
   20.2698   63.6056  -10.7668 N   0  0  0  0  0  0  0  0  0  0  0  0
   19.6224   63.8835   -9.5743 C   0  0  0  0  0  0  0  0  0  0  0  0
   18.5774   62.9745   -9.0523 C   0  0  0  0  0  0  0  0  0  0  0  0
   18.1065   62.1430  -10.1226 N   0  0  0  0  0  0  0  0  0  0  0  0
   19.1472   61.4131  -10.8018 C   0  0  0  0  0  0  0  0  0  0  0  0
   19.9980   62.4363  -11.5084 C   0  0  0  0  0  0  0  0  0  0  0  0
   16.7745   61.9931  -10.5422 C   0  0  0  0  0  0  0  0  0  0  0  0
   16.0533   60.8555  -10.3763 N   0  0  0  0  0  0  0  0  0  0  0  0
   14.7776   60.7426  -10.7878 C   0  0  0  0  0  0  0  0  0  0  0  0
   14.1494   61.7675  -11.3905 N   0  0  0  0  0  0  0  0  0  0  0  0
   14.7882   62.9368  -11.5970 C   0  0  0  0  0  0  0  0  0  0  0  0
   14.4143   64.1117  -12.1657 N   0  0  0  0  0  0  0  0  0  0  0  0
   15.4644   64.9091  -12.0881 N   0  0  0  0  0  0  0  0  0  0  0  0
   16.5009   64.3095  -11.4982 C   0  0  0  0  0  0  0  0  0  0  0  0
   16.0889   63.0366  -11.1721 C   0  0  0  0  0  0  0  0  0  0  0  0
   13.1005   64.4041  -12.7414 C   0  0  0  0  0  0  0  0  0  0  0  0
   22.3528   64.4007   -8.5082 N   0  0  0  0  0  0  0  0  0  0  0  0
   22.4667   63.6481   -9.6954 C   0  0  0  0  0  0  0  0  0  0  0  0
   23.1972   62.6569   -9.8591 O   0  0  0  0  0  0  0  0  0  0  0  0
   21.6795   65.2301   -8.5177 H   0  0  0  0  0  0  0  0  0  0  0  0
   21.4830   66.3363   -6.3855 Br  0  0  0  0  0  0  0  0  0  0  0  0
   22.7772   64.9607   -6.1985 C   0  0  0  0  0  0  0  0  0  0  0  0
   23.4407   64.7479   -5.0133 C   0  0  0  0  0  0  0  0  0  0  0  0
   24.3691   63.7654   -4.8680 C   0  0  0  0  0  0  0  0  0  0  0  0
   24.6644   62.9494   -5.9383 C   0  0  0  0  0  0  0  0  0  0  0  0
   24.0019   63.1476   -7.1547 C   0  0  0  0  0  0  0  0  0  0  0  0
   23.0562   64.1469   -7.3061 C   0  0  0  0  0  0  0  0  0  0  0  0
   25.6040   61.9648   -5.7681 O   0  0  0  0  0  0  0  0  0  0  0  0
   26.6226   62.0021   -4.7986 C   0  0  0  0  0  0  0  0  0  0  0  0
   26.4231   63.0708   -3.7721 C   0  0  0  0  0  0  0  0  0  0  0  0
   25.0625   63.5157   -3.6915 O   0  0  0  0  0  0  0  0  0  0  0  0
 22 23  1  0  0  0
 23 24  2  0  0  0
 23 28  1  0  0  0
 24 25  1  0  0  0
 25 26  2  0  0  0
 25 32  1  0  0  0
 26 27  1  0  0  0
 26 29  1  0  0  0
 27 28  2  0  0  0
 28 18  1  0  0  0
 18 19  1  0  0  0
 19 20  2  0  0  0
 19  1  1  0  0  0
  1  2  1  0  0  0
  2  3  1  0  0  0
  2  7  1  0  0  0
  3  4  1  0  0  0
  4  5  1  0  0  0
  5  6  1  0  0  0
  5  8  1  0  0  0
  6  7  1  0  0  0
  8  9  2  0  0  0
  8 16  1  0  0  0
  9 10  1  0  0  0
 10 11  2  0  0  0
 11 12  1  0  0  0
 12 13  1  0  0  0
 12 16  2  0  0  0
 13 14  1  0  0  0
 13 17  1  0  0  0
 14 15  2  0  0  0
 15 16  1  0  0  0
 29 30  1  0  0  0
 30 31  1  0  0  0
 31 32  1  0  0  0
 18 21  1  0  0  0
M  END
> <minimizedAffinity>
-8.41363

$$$$
471


 27 30  0  0  0  0  0  0  0  0999 V2000
   20.8762   63.6509   -8.1680 C   0  0  0  0  0  0  0  0  0  0  0  0
   19.8235   63.0384   -7.8254 O   0  0  0  0  0  0  0  0  0  0  0  0
   21.5527   64.4450   -7.2207 N   0  0  0  0  0  0  0  0  0  0  0  0
   21.0238   64.5369   -5.8837 C   0  0  0  0  0  0  0  0  0  0  0  0
   22.0379   64.1640   -4.8232 C   0  0  0  0  0  0  0  0  0  0  0  0
   23.3276   64.5067   -5.2951 N   0  0  0  0  0  0  0  0  0  0  0  0
   23.3251   65.6454   -6.1265 C   0  0  0  0  0  0  0  0  0  0  0  0
   22.7594   65.1909   -7.4847 C   0  0  0  0  0  0  0  0  0  0  0  0
   26.6812   63.5132  -13.1576 Br  0  0  0  0  0  0  0  0  0  0  0  0
   24.8207   63.3843  -12.7578 C   0  0  0  0  0  0  0  0  0  0  0  0
   24.3731   63.5270  -11.4554 C   0  0  0  0  0  0  0  0  0  0  0  0
   23.0263   63.4382  -11.1343 C   0  0  0  0  0  0  0  0  0  0  0  0
   22.1642   63.2010  -12.1874 C   0  0  0  0  0  0  0  0  0  0  0  0
   22.5803   63.0546  -13.4879 C   0  0  0  0  0  0  0  0  0  0  0  0
   23.9196   63.1476  -13.7786 C   0  0  0  0  0  0  0  0  0  0  0  0
   20.8204   63.1110  -11.8729 C   0  0  0  0  0  0  0  0  0  0  0  0
   19.9706   62.8926  -12.7983 O   0  0  0  0  0  0  0  0  0  0  0  0
   20.4313   63.2613  -10.5585 C   0  0  0  0  0  0  0  0  0  0  0  0
   21.3393   63.4979   -9.5529 C   0  0  0  0  0  0  0  0  0  0  0  0
   22.5990   63.5733   -9.9027 O   0  0  0  0  0  0  0  0  0  0  0  0
   24.1926   63.4487   -5.6323 C   0  0  0  0  0  0  0  0  0  0  0  0
   24.6577   62.6300   -4.5161 C   0  0  0  0  0  0  0  0  0  0  0  0
   23.8733   62.0683   -3.5818 N   0  0  0  0  0  0  0  0  0  0  0  0
   24.6410   61.4298   -2.7726 O   0  0  0  0  0  0  0  0  0  0  0  0
   25.8986   61.5377   -3.1219 N   0  0  0  0  0  0  0  0  0  0  0  0
   25.9551   62.3000   -4.2360 C   0  0  0  0  0  0  0  0  0  0  0  0
   27.1809   62.6937   -4.9932 C   0  0  0  0  0  0  0  0  0  0  0  0
  9 10  1  0  0  0
 10 11  2  0  0  0
 10 15  1  0  0  0
 11 12  1  0  0  0
 12 13  2  0  0  0
 12 20  1  0  0  0
 13 14  1  0  0  0
 13 16  1  0  0  0
 14 15  2  0  0  0
 16 17  2  0  0  0
 16 18  1  0  0  0
 18 19  2  0  0  0
 19 20  1  0  0  0
 19  1  1  0  0  0
  1  2  2  0  0  0
  1  3  1  0  0  0
  3  4  1  0  0  0
  3  8  1  0  0  0
  4  5  1  0  0  0
  5  6  1  0  0  0
  6  7  1  0  0  0
  6 21  1  0  0  0
  7  8  1  0  0  0
 21 22  1  0  0  0
 22 23  2  0  0  0
 22 26  1  0  0  0
 23 24  1  0  0  0
 24 25  1  0  0  0
 25 26  2  0  0  0
 26 27  1  0  0  0
M  END
> <minimizedAffinity>
-8.82459

$$$$
473


 29 32  0  0  0  0  0  0  0  0999 V2000
   20.0825   63.6073  -10.3285 C   0  0  0  0  0  0  0  0  0  0  0  0
   21.5162   63.7309   -9.9790 C   0  0  0  0  0  0  0  0  0  0  0  0
   22.4473   63.6658  -10.8231 O   0  0  0  0  0  0  0  0  0  0  0  0
   21.9195   63.9386   -8.6110 N   0  0  0  0  0  0  0  0  0  0  0  0
   23.3157   64.0622   -8.2600 C   0  0  0  0  0  0  0  0  0  0  0  0
   23.5923   65.1670   -7.2959 C   0  0  0  0  0  0  0  0  0  0  0  0
   22.4211   65.9020   -6.8811 N   0  0  0  0  0  0  0  0  0  0  0  0
   21.0939   65.3522   -6.8094 C   0  0  0  0  0  0  0  0  0  0  0  0
   20.9571   64.0330   -7.5296 C   0  0  0  0  0  0  0  0  0  0  0  0
   22.5930   67.2746   -6.5145 C   0  0  0  0  0  0  0  0  0  0  0  0
   23.8019   67.7623   -6.1244 N   0  0  0  0  0  0  0  0  0  0  0  0
   24.0039   69.0320   -5.7757 C   0  0  0  0  0  0  0  0  0  0  0  0
   22.9330   69.9127   -5.8072 C   0  0  0  0  0  0  0  0  0  0  0  0
   21.7151   69.4599   -6.1912 N   0  0  0  0  0  0  0  0  0  0  0  0
   21.5505   68.1725   -6.5358 C   0  0  0  0  0  0  0  0  0  0  0  0
   19.4922   62.2532  -10.0534 C   0  0  0  0  0  0  0  0  0  0  0  0
   18.2458   62.3986   -9.2619 C   0  0  0  0  0  0  0  0  0  0  0  0
   12.1747   65.0159  -13.5434 Br  0  0  0  0  0  0  0  0  0  0  0  0
   13.3844   63.8500  -12.6395 C   0  0  0  0  0  0  0  0  0  0  0  0
   14.4575   64.3939  -11.9629 C   0  0  0  0  0  0  0  0  0  0  0  0
   15.3626   63.5933  -11.2909 C   0  0  0  0  0  0  0  0  0  0  0  0
   15.1569   62.2278  -11.3211 C   0  0  0  0  0  0  0  0  0  0  0  0
   14.0805   61.6950  -12.0008 C   0  0  0  0  0  0  0  0  0  0  0  0
   13.1724   62.4876  -12.6731 C   0  0  0  0  0  0  0  0  0  0  0  0
   16.2280   61.6172  -10.5535 C   0  0  0  0  0  0  0  0  0  0  0  0
   16.3447   60.3621  -10.3759 O   0  0  0  0  0  0  0  0  0  0  0  0
   17.0722   62.6507  -10.0687 N   0  0  0  0  0  0  0  0  0  0  0  0
   16.5702   63.8892  -10.5050 C   0  0  0  0  0  0  0  0  0  0  0  0
   17.0366   65.0402  -10.2829 O   0  0  0  0  0  0  0  0  0  0  0  0
 18 19  1  0  0  0
 19 20  2  0  0  0
 19 24  1  0  0  0
 20 21  1  0  0  0
 21 22  2  0  0  0
 21 28  1  0  0  0
 22 23  1  0  0  0
 22 25  1  0  0  0
 23 24  2  0  0  0
 25 26  2  0  0  0
 25 27  1  0  0  0
 27 28  1  0  0  0
 27 17  1  0  0  0
 28 29  2  0  0  0
 17 16  1  0  0  0
 16  1  1  0  0  0
  1  2  1  0  0  0
  2  3  2  0  0  0
  2  4  1  0  0  0
  4  5  1  0  0  0
  4  9  1  0  0  0
  5  6  1  0  0  0
  6  7  1  0  0  0
  7  8  1  0  0  0
  7 10  1  0  0  0
  8  9  1  0  0  0
 10 11  2  0  0  0
 10 15  1  0  0  0
 11 12  1  0  0  0
 12 13  2  0  0  0
 13 14  1  0  0  0
 14 15  2  0  0  0
M  END
> <minimizedAffinity>
-8.42467

$$$$
483


 31 34  0  0  0  0  0  0  0  0999 V2000
   19.1745   63.8745  -11.2078 N   0  0  0  0  0  0  0  0  0  0  0  0
   18.2309   62.8927  -10.8171 C   0  0  0  0  0  0  0  0  0  0  0  0
   18.4026   61.7054  -11.1758 O   0  0  0  0  0  0  0  0  0  0  0  0
   19.0285   64.8626  -10.9185 H   0  0  0  0  0  0  0  0  0  0  0  0
   20.7554   64.3592   -6.1071 Br  0  0  0  0  0  0  0  0  0  0  0  0
   21.7533   63.9608   -7.6750 C   0  0  0  0  0  0  0  0  0  0  0  0
   21.1457   63.8774   -8.9334 C   0  0  0  0  0  0  0  0  0  0  0  0
   21.8647   63.5889  -10.0738 C   0  0  0  0  0  0  0  0  0  0  0  0
   23.2442   63.3716   -9.9728 C   0  0  0  0  0  0  0  0  0  0  0  0
   23.8350   63.4573   -8.7208 C   0  0  0  0  0  0  0  0  0  0  0  0
   23.1010   63.7459   -7.5949 C   0  0  0  0  0  0  0  0  0  0  0  0
   23.7985   63.0903  -11.2532 N   0  0  0  0  0  0  0  0  0  0  0  0
   22.7283   63.1330  -12.1843 C   0  0  0  0  0  0  0  0  0  0  0  0
   22.7348   62.9488  -13.4324 O   0  0  0  0  0  0  0  0  0  0  0  0
   21.4733   63.4498  -11.4689 C   0  0  0  0  0  0  0  0  0  0  0  0
   20.2974   63.5719  -11.9819 N   0  0  0  0  0  0  0  0  0  0  0  0
   25.1700   62.8055  -11.6246 C   0  0  0  0  0  0  0  0  0  0  0  0
   25.5466   63.5689  -12.8038 C   0  0  0  0  0  0  0  0  0  0  0  0
   25.8685   64.1879  -13.7844 C   0  0  0  0  0  0  0  0  0  0  0  0
   17.0773   63.2629  -10.0096 C   0  0  0  0  0  0  0  0  0  0  0  0
   15.8405   63.2955  -10.7662 N   0  0  0  0  0  0  0  0  0  0  0  0
   14.8582   62.4115  -10.7307 N   0  0  0  0  0  0  0  0  0  0  0  0
   13.8873   62.7684  -11.5555 N   0  0  0  0  0  0  0  0  0  0  0  0
   14.2484   63.9198  -12.1471 C   0  0  0  0  0  0  0  0  0  0  0  0
   15.4520   64.2147  -11.6388 N   0  0  0  0  0  0  0  0  0  0  0  0
   13.4561   64.6522  -13.1298 C   0  0  0  0  0  0  0  0  0  0  0  0
   12.0971   64.4403  -13.2183 C   0  0  0  0  0  0  0  0  0  0  0  0
   11.3355   65.1397  -14.1574 C   0  0  0  0  0  0  0  0  0  0  0  0
   11.9071   66.0520  -15.0151 C   0  0  0  0  0  0  0  0  0  0  0  0
   13.2714   66.2670  -14.9277 C   0  0  0  0  0  0  0  0  0  0  0  0
   14.0207   65.5674  -13.9916 C   0  0  0  0  0  0  0  0  0  0  0  0
  5  6  1  0  0  0
  6  7  2  0  0  0
  6 11  1  0  0  0
  7  8  1  0  0  0
  8  9  2  0  0  0
  8 15  1  0  0  0
  9 10  1  0  0  0
  9 12  1  0  0  0
 10 11  2  0  0  0
 12 13  1  0  0  0
 12 17  1  0  0  0
 13 14  2  0  0  0
 13 15  1  0  0  0
 15 16  2  0  0  0
 16  1  1  0  0  0
  1  2  1  0  0  0
  2  3  2  0  0  0
  2 20  1  0  0  0
 20 21  1  0  0  0
 21 22  1  0  0  0
 21 25  1  0  0  0
 22 23  2  0  0  0
 23 24  1  0  0  0
 24 25  2  0  0  0
 24 26  1  0  0  0
 26 27  2  0  0  0
 26 31  1  0  0  0
 27 28  1  0  0  0
 28 29  2  0  0  0
 29 30  1  0  0  0
 30 31  2  0  0  0
 17 18  1  0  0  0
 18 19  3  0  0  0
  1  4  1  0  0  0
M  END
> <minimizedAffinity>
-7.56486

$$$$
484


 35 38  0  0  0  0  0  0  0  0999 V2000
   17.1800   58.4737   -9.4512 Br  0  0  0  0  0  0  0  0  0  0  0  0
   16.4224   60.1000  -10.1051 C   0  0  0  0  0  0  0  0  0  0  0  0
   17.1870   61.2698  -10.2262 C   0  0  0  0  0  0  0  0  0  0  0  0
   16.5429   62.3703  -10.7135 C   0  0  0  0  0  0  0  0  0  0  0  0
   15.2132   62.3912  -11.0798 C   0  0  0  0  0  0  0  0  0  0  0  0
   14.4642   61.2434  -10.9546 C   0  0  0  0  0  0  0  0  0  0  0  0
   15.0921   60.0893  -10.4631 C   0  0  0  0  0  0  0  0  0  0  0  0
   14.8123   63.6709  -11.5522 N   0  0  0  0  0  0  0  0  0  0  0  0
   15.9881   64.5174  -11.4635 C   0  0  0  0  0  0  0  0  0  0  0  0
   16.0369   65.7173  -11.8049 O   0  0  0  0  0  0  0  0  0  0  0  0
   17.0465   63.6912  -10.9269 C   0  0  0  0  0  0  0  0  0  0  0  0
   18.2076   64.0453  -10.5302 N   0  0  0  0  0  0  0  0  0  0  0  0
   19.1962   63.7419   -9.9903 N   0  0  0  0  0  0  0  0  0  0  0  0
   20.3864   63.3549   -9.3336 C   0  0  0  0  0  0  0  0  0  0  0  0
   20.7677   62.2975   -8.8842 O   0  0  0  0  0  0  0  0  0  0  0  0
   18.7333   62.4615   -9.7165 H   0  0  0  0  0  0  0  0  0  0  0  0
   21.3118   64.5850   -9.1938 C   0  0  0  0  0  0  0  0  0  0  0  0
   22.6336   64.0527   -9.4268 O   0  0  0  0  0  0  0  0  0  0  0  0
   23.0424   64.0695  -10.7910 N   0  0  0  0  0  0  0  0  0  0  0  0
   24.0705   63.4262  -11.1859 C   0  0  0  0  0  0  0  0  0  0  0  0
   24.4739   63.4722  -12.5725 C   0  0  0  0  0  0  0  0  0  0  0  0
   23.6353   63.4860  -13.6362 C   0  0  0  0  0  0  0  0  0  0  0  0
   24.2400   63.4556  -14.9190 C   0  0  0  0  0  0  0  0  0  0  0  0
   25.5434   63.4280  -15.1899 C   0  0  0  0  0  0  0  0  0  0  0  0
   26.3392   63.4198  -14.0951 C   0  0  0  0  0  0  0  0  0  0  0  0
   25.9575   63.4331  -12.8076 C   0  0  0  0  0  0  0  0  0  0  0  0
   26.0031   63.4072  -16.5114 O   0  0  0  0  0  0  0  0  0  0  0  0
   25.5217   62.4349  -17.4321 C   0  0  0  0  0  0  0  0  0  0  0  0
   13.5560   64.1607  -12.0955 C   0  0  0  0  0  0  0  0  0  0  0  0
   13.5069   64.0504  -13.4696 N   0  0  0  0  0  0  0  0  0  0  0  0
   12.6713   63.0043  -13.9006 C   0  0  0  0  0  0  0  0  0  0  0  0
   11.7968   63.4896  -15.0591 C   0  0  0  0  0  0  0  0  0  0  0  0
   11.2128   64.6801  -14.5461 O   0  0  0  0  0  0  0  0  0  0  0  0
   12.1682   65.7050  -14.5709 C   0  0  0  0  0  0  0  0  0  0  0  0
   13.5471   65.2449  -14.2128 C   0  0  0  0  0  0  0  0  0  0  0  0
  1  2  1  0  0  0
  2  3  2  0  0  0
  2  7  1  0  0  0
  3  4  1  0  0  0
  4  5  2  0  0  0
  4 11  1  0  0  0
  5  6  1  0  0  0
  5  8  1  0  0  0
  6  7  2  0  0  0
  8  9  1  0  0  0
  8 29  1  0  0  0
  9 10  2  0  0  0
  9 11  1  0  0  0
 11 12  2  0  0  0
 12 13  1  0  0  0
 13 14  1  0  0  0
 14 15  2  0  0  0
 14 17  1  0  0  0
 17 18  1  0  0  0
 18 19  1  0  0  0
 19 20  2  0  0  0
 20 21  1  0  0  0
 21 22  2  0  0  0
 21 26  1  0  0  0
 22 23  1  0  0  0
 23 24  2  0  0  0
 24 25  1  0  0  0
 24 27  1  0  0  0
 25 26  2  0  0  0
 27 28  1  0  0  0
 29 30  1  0  0  0
 30 31  1  0  0  0
 30 35  1  0  0  0
 31 32  1  0  0  0
 32 33  1  0  0  0
 33 34  1  0  0  0
 34 35  1  0  0  0
 13 16  1  0  0  0
M  END
> <minimizedAffinity>
-7.72633

$$$$
485


 34 37  0  0  0  0  0  0  0  0999 V2000
    9.1295   60.3516  -14.2529 Br  0  0  0  0  0  0  0  0  0  0  0  0
   10.2547   61.8572  -14.6554 C   0  0  0  0  0  0  0  0  0  0  0  0
   11.2825   62.2299  -13.8201 C   0  0  0  0  0  0  0  0  0  0  0  0
   12.1217   63.3109  -14.0681 C   0  0  0  0  0  0  0  0  0  0  0  0
   11.9080   64.0580  -15.2302 C   0  0  0  0  0  0  0  0  0  0  0  0
   10.8775   63.6843  -16.0684 C   0  0  0  0  0  0  0  0  0  0  0  0
   10.0494   62.5980  -15.8000 C   0  0  0  0  0  0  0  0  0  0  0  0
   12.8673   65.1215  -15.3121 N   0  0  0  0  0  0  0  0  0  0  0  0
   13.6913   65.0165  -14.1587 C   0  0  0  0  0  0  0  0  0  0  0  0
   14.6463   65.7751  -13.8799 O   0  0  0  0  0  0  0  0  0  0  0  0
   13.2481   63.8900  -13.3601 C   0  0  0  0  0  0  0  0  0  0  0  0
   13.7451   63.4793  -12.2483 N   0  0  0  0  0  0  0  0  0  0  0  0
   14.8294   64.0887  -11.6281 N   0  0  0  0  0  0  0  0  0  0  0  0
   15.7524   63.3073  -10.9024 C   0  0  0  0  0  0  0  0  0  0  0  0
   15.6195   62.0388  -10.7979 O   0  0  0  0  0  0  0  0  0  0  0  0
   14.9507   65.1083  -11.7028 H   0  0  0  0  0  0  0  0  0  0  0  0
   16.9371   63.8746  -10.2110 C   0  0  0  0  0  0  0  0  0  0  0  0
   17.9127   62.8563   -9.9933 O   0  0  0  0  0  0  0  0  0  0  0  0
   19.1366   62.9244  -10.6374 C   0  0  0  0  0  0  0  0  0  0  0  0
   20.2594   63.3330   -9.9494 C   0  0  0  0  0  0  0  0  0  0  0  0
   21.4859   63.3991  -10.6032 C   0  0  0  0  0  0  0  0  0  0  0  0
   21.5880   63.0593  -11.9386 C   0  0  0  0  0  0  0  0  0  0  0  0
   20.4687   62.6575  -12.6055 C   0  0  0  0  0  0  0  0  0  0  0  0
   19.2483   62.5922  -11.9538 C   0  0  0  0  0  0  0  0  0  0  0  0
   20.1919   63.6775   -8.6233 O   0  0  0  0  0  0  0  0  0  0  0  0
   21.3646   63.9025   -7.8824 C   0  0  0  0  0  0  0  0  0  0  0  0
   12.9414   66.0923  -16.3909 C   0  0  0  0  0  0  0  0  0  0  0  0
   12.5441   67.4081  -16.0398 N   0  0  0  0  0  0  0  0  0  0  0  0
   13.3302   68.4619  -16.5836 C   0  0  0  0  0  0  0  0  0  0  0  0
   12.8718   69.8355  -16.0851 C   0  0  0  0  0  0  0  0  0  0  0  0
   11.9867   69.6017  -14.9803 N   0  0  0  0  0  0  0  0  0  0  0  0
   10.7689   68.9575  -15.3637 C   0  0  0  0  0  0  0  0  0  0  0  0
   11.1301   67.6501  -16.0454 C   0  0  0  0  0  0  0  0  0  0  0  0
   11.8153   70.7378  -14.1213 C   0  0  0  0  0  0  0  0  0  0  0  0
  1  2  1  0  0  0
  2  3  2  0  0  0
  2  7  1  0  0  0
  3  4  1  0  0  0
  4  5  2  0  0  0
  4 11  1  0  0  0
  5  6  1  0  0  0
  5  8  1  0  0  0
  6  7  2  0  0  0
  8  9  1  0  0  0
  8 27  1  0  0  0
  9 10  2  0  0  0
  9 11  1  0  0  0
 11 12  2  0  0  0
 12 13  1  0  0  0
 13 14  1  0  0  0
 14 15  2  0  0  0
 14 17  1  0  0  0
 17 18  1  0  0  0
 18 19  1  0  0  0
 19 20  2  0  0  0
 19 24  1  0  0  0
 20 21  1  0  0  0
 20 25  1  0  0  0
 21 22  2  0  0  0
 22 23  1  0  0  0
 23 24  2  0  0  0
 25 26  1  0  0  0
 27 28  1  0  0  0
 28 29  1  0  0  0
 28 33  1  0  0  0
 29 30  1  0  0  0
 30 31  1  0  0  0
 31 32  1  0  0  0
 31 34  1  0  0  0
 32 33  1  0  0  0
 13 16  1  0  0  0
M  END
> <minimizedAffinity>
-7.15800

$$$$
500


 32 35  0  0  0  0  0  0  0  0999 V2000
   17.6940   58.4188   -9.3397 Br  0  0  0  0  0  0  0  0  0  0  0  0
   17.9659   60.2925   -9.6896 C   0  0  0  0  0  0  0  0  0  0  0  0
   19.1867   60.8995   -9.6328 C   0  0  0  0  0  0  0  0  0  0  0  0
   19.3335   62.2438   -9.8590 C   0  0  0  0  0  0  0  0  0  0  0  0
   18.2047   62.9574  -10.1469 C   0  0  0  0  0  0  0  0  0  0  0  0
   16.9401   62.3586  -10.2144 C   0  0  0  0  0  0  0  0  0  0  0  0
   16.8046   61.0051   -9.9834 C   0  0  0  0  0  0  0  0  0  0  0  0
   18.4943   64.3313  -10.3163 N   0  0  0  0  0  0  0  0  0  0  0  0
   19.8645   64.4942  -10.1252 C   0  0  0  0  0  0  0  0  0  0  0  0
   20.4513   65.6064  -10.1860 O   0  0  0  0  0  0  0  0  0  0  0  0
   20.4941   63.1517   -9.8437 C   0  0  0  0  0  0  0  0  0  0  0  0
   21.4802   62.9743  -10.8984 C   0  0  0  0  0  0  0  0  0  0  0  0
   22.8077   62.9487  -10.5974 C   0  0  0  0  0  0  0  0  0  0  0  0
   23.4702   62.7816  -11.7763 N   0  0  0  0  0  0  0  0  0  0  0  0
   22.6041   62.7087  -12.7536 N   0  0  0  0  0  0  0  0  0  0  0  0
   21.3390   62.8213  -12.2870 C   0  0  0  0  0  0  0  0  0  0  0  0
   23.2960   63.0833   -9.2823 O   0  0  0  0  0  0  0  0  0  0  0  0
   22.3550   63.2503   -8.2849 C   0  0  0  0  0  0  0  0  0  0  0  0
   21.0727   63.2854   -8.5146 C   0  0  0  0  0  0  0  0  0  0  0  0
   22.8540   63.3898   -6.9330 N   0  0  0  0  0  0  0  0  0  0  0  0
   17.5226   65.3956  -10.6400 C   0  0  0  0  0  0  0  0  0  0  0  0
   22.8140   62.5792  -13.7857 H   0  0  0  0  0  0  0  0  0  0  0  0
   23.7998   63.0904   -6.6389 H   0  0  0  0  0  0  0  0  0  0  0  0
   22.2251   63.8129   -6.2320 H   0  0  0  0  0  0  0  0  0  0  0  0
   20.1540   63.4738   -7.3876 C   0  0  0  0  0  0  0  0  0  0  0  0
   19.4509   63.6151   -6.4942 N   0  0  0  0  0  0  0  0  0  0  0  0
   20.1132   62.7604  -13.1230 C   0  0  0  0  0  0  0  0  0  0  0  0
   20.4239   62.3562  -14.5116 C   0  0  0  0  0  0  0  0  0  0  0  0
   21.3961   62.7733  -15.1916 O   0  0  0  0  0  0  0  0  0  0  0  0
   19.5786   61.4476  -15.1086 O   0  0  0  0  0  0  0  0  0  0  0  0
   19.5750   61.0811  -16.4627 C   0  0  0  0  0  0  0  0  0  0  0  0
   18.6119   61.9601  -17.2256 C   0  0  0  0  0  0  0  0  0  0  0  0
  1  2  1  0  0  0
  2  3  2  0  0  0
  2  7  1  0  0  0
  3  4  1  0  0  0
  4  5  2  0  0  0
  4 11  1  0  0  0
  5  6  1  0  0  0
  5  8  1  0  0  0
  6  7  2  0  0  0
  8  9  1  0  0  0
  8 21  1  0  0  0
  9 10  2  0  0  0
  9 11  1  0  0  0
 11 12  1  0  0  0
 11 19  1  0  0  0
 12 13  1  0  0  0
 12 16  2  0  0  0
 13 14  2  0  0  0
 13 17  1  0  0  0
 14 15  1  0  0  0
 15 16  1  0  0  0
 16 27  1  0  0  0
 27 28  1  0  0  0
 28 29  2  0  0  0
 28 30  1  0  0  0
 30 31  1  0  0  0
 31 32  1  0  0  0
 17 18  1  0  0  0
 18 19  2  0  0  0
 18 20  1  0  0  0
 19 25  1  0  0  0
 25 26  3  0  0  0
 15 22  1  0  0  0
 20 23  1  0  0  0
 20 24  1  0  0  0
M  END
> <minimizedAffinity>
2.43615

$$$$
502


 27 30  0  0  0  0  0  0  0  0999 V2000
   14.8419   63.9267  -11.0488 Br  0  0  0  0  0  0  0  0  0  0  0  0
   13.7925   63.9124  -12.6652 C   0  0  0  0  0  0  0  0  0  0  0  0
   13.6395   65.0464  -13.4184 C   0  0  0  0  0  0  0  0  0  0  0  0
   12.8843   65.0118  -14.5718 C   0  0  0  0  0  0  0  0  0  0  0  0
   12.3092   63.8196  -14.9194 C   0  0  0  0  0  0  0  0  0  0  0  0
   12.4679   62.6536  -14.1434 C   0  0  0  0  0  0  0  0  0  0  0  0
   13.2214   62.7061  -13.0012 C   0  0  0  0  0  0  0  0  0  0  0  0
   11.5648   63.9425  -16.1276 N   0  0  0  0  0  0  0  0  0  0  0  0
   11.6712   65.2684  -16.5659 C   0  0  0  0  0  0  0  0  0  0  0  0
   11.1310   65.7369  -17.6142 O   0  0  0  0  0  0  0  0  0  0  0  0
   12.5263   66.0306  -15.5891 C   0  0  0  0  0  0  0  0  0  0  0  0
   13.6747   66.5072  -16.3511 C   0  0  0  0  0  0  0  0  0  0  0  0
   13.9049   67.8367  -16.5234 C   0  0  0  0  0  0  0  0  0  0  0  0
   15.0425   67.9416  -17.2717 N   0  0  0  0  0  0  0  0  0  0  0  0
   15.5093   66.7449  -17.5602 N   0  0  0  0  0  0  0  0  0  0  0  0
   14.7036   65.8351  -17.0171 C   0  0  0  0  0  0  0  0  0  0  0  0
   14.7990   64.3422  -17.0569 C   0  0  0  0  0  0  0  0  0  0  0  0
   13.0712   68.8255  -15.9898 O   0  0  0  0  0  0  0  0  0  0  0  0
   11.9766   68.3669  -15.2641 C   0  0  0  0  0  0  0  0  0  0  0  0
   11.7028   67.1041  -15.0647 C   0  0  0  0  0  0  0  0  0  0  0  0
   11.0728   69.3497  -14.6843 N   0  0  0  0  0  0  0  0  0  0  0  0
   10.8127   62.8755  -16.8052 C   0  0  0  0  0  0  0  0  0  0  0  0
   16.3652   66.4927  -18.1187 H   0  0  0  0  0  0  0  0  0  0  0  0
   10.2963   69.6463  -15.3084 H   0  0  0  0  0  0  0  0  0  0  0  0
   11.1802   69.7262  -13.7447 H   0  0  0  0  0  0  0  0  0  0  0  0
   10.5001   66.8017  -14.2694 C   0  0  0  0  0  0  0  0  0  0  0  0
    9.5423   66.5436  -13.6528 N   0  0  0  0  0  0  0  0  0  0  0  0
  1  2  1  0  0  0
  2  3  2  0  0  0
  2  7  1  0  0  0
  3  4  1  0  0  0
  4  5  2  0  0  0
  4 11  1  0  0  0
  5  6  1  0  0  0
  5  8  1  0  0  0
  6  7  2  0  0  0
  8  9  1  0  0  0
  8 22  1  0  0  0
  9 10  2  0  0  0
  9 11  1  0  0  0
 11 12  1  0  0  0
 11 20  1  0  0  0
 12 13  1  0  0  0
 12 16  2  0  0  0
 13 14  2  0  0  0
 13 18  1  0  0  0
 14 15  1  0  0  0
 15 16  1  0  0  0
 16 17  1  0  0  0
 18 19  1  0  0  0
 19 20  2  0  0  0
 19 21  1  0  0  0
 20 26  1  0  0  0
 26 27  3  0  0  0
 15 23  1  0  0  0
 21 24  1  0  0  0
 21 25  1  0  0  0
M  END
> <minimizedAffinity>
-4.84265

$$$$
504


 29 32  0  0  0  0  0  0  0  0999 V2000
   15.2485   64.5501  -10.8647 Br  0  0  0  0  0  0  0  0  0  0  0  0
   14.1531   64.1690  -12.3695 C   0  0  0  0  0  0  0  0  0  0  0  0
   13.8749   65.0936  -13.3475 C   0  0  0  0  0  0  0  0  0  0  0  0
   13.0611   64.7354  -14.4215 C   0  0  0  0  0  0  0  0  0  0  0  0
   12.5170   63.5030  -14.5615 C   0  0  0  0  0  0  0  0  0  0  0  0
   12.8008   62.5628  -13.5670 C   0  0  0  0  0  0  0  0  0  0  0  0
   13.6023   62.8988  -12.4991 C   0  0  0  0  0  0  0  0  0  0  0  0
   11.7338   63.3944  -15.7344 N   0  0  0  0  0  0  0  0  0  0  0  0
   11.7777   64.6401  -16.3900 C   0  0  0  0  0  0  0  0  0  0  0  0
   11.1990   64.9315  -17.4730 O   0  0  0  0  0  0  0  0  0  0  0  0
   12.6275   65.5665  -15.5907 C   0  0  0  0  0  0  0  0  0  0  0  0
   11.8263   66.7212  -15.1123 C   0  0  0  0  0  0  0  0  0  0  0  0
   12.1819   67.9390  -15.3090 C   0  0  0  0  0  0  0  0  0  0  0  0
   13.4005   68.2980  -16.0176 N   0  0  0  0  0  0  0  0  0  0  0  0
   14.1723   67.2083  -16.4777 C   0  0  0  0  0  0  0  0  0  0  0  0
   13.8297   65.9636  -16.2894 C   0  0  0  0  0  0  0  0  0  0  0  0
   15.4024   67.5071  -17.1936 N   0  0  0  0  0  0  0  0  0  0  0  0
   11.1562   68.8428  -14.7023 C   0  0  0  0  0  0  0  0  0  0  0  0
   10.2067   68.0045  -14.1557 O   0  0  0  0  0  0  0  0  0  0  0  0
   10.5318   66.6975  -14.3564 C   0  0  0  0  0  0  0  0  0  0  0  0
    9.9214   65.6416  -14.0104 O   0  0  0  0  0  0  0  0  0  0  0  0
   10.6009   69.7790  -15.7584 C   0  0  0  0  0  0  0  0  0  0  0  0
   11.7626   69.6635  -13.5788 C   0  0  0  0  0  0  0  0  0  0  0  0
   10.9930   62.2183  -16.2158 C   0  0  0  0  0  0  0  0  0  0  0  0
   13.6393   69.2959  -16.1479 H   0  0  0  0  0  0  0  0  0  0  0  0
   15.4171   67.2935  -18.2116 H   0  0  0  0  0  0  0  0  0  0  0  0
   16.2204   67.9089  -16.7149 H   0  0  0  0  0  0  0  0  0  0  0  0
   14.7264   64.9451  -16.8224 C   0  0  0  0  0  0  0  0  0  0  0  0
   15.4541   64.1510  -17.2484 N   0  0  0  0  0  0  0  0  0  0  0  0
  1  2  1  0  0  0
  2  3  2  0  0  0
  2  7  1  0  0  0
  3  4  1  0  0  0
  4  5  2  0  0  0
  4 11  1  0  0  0
  5  6  1  0  0  0
  5  8  1  0  0  0
  6  7  2  0  0  0
  8  9  1  0  0  0
  8 24  1  0  0  0
  9 10  2  0  0  0
  9 11  1  0  0  0
 11 12  1  0  0  0
 11 16  1  0  0  0
 12 13  2  0  0  0
 12 20  1  0  0  0
 13 14  1  0  0  0
 13 18  1  0  0  0
 14 15  1  0  0  0
 15 16  2  0  0  0
 15 17  1  0  0  0
 16 28  1  0  0  0
 28 29  3  0  0  0
 18 19  1  0  0  0
 18 22  1  0  0  0
 18 23  1  0  0  0
 19 20  1  0  0  0
 20 21  2  0  0  0
 14 25  1  0  0  0
 17 26  1  0  0  0
 17 27  1  0  0  0
M  END
> <minimizedAffinity>
-6.12045

$$$$
505


 30 33  0  0  0  0  0  0  0  0999 V2000
   15.1866   64.8516  -10.8351 Br  0  0  0  0  0  0  0  0  0  0  0  0
   14.2097   64.1491  -12.3097 C   0  0  0  0  0  0  0  0  0  0  0  0
   13.9459   64.9487  -13.4003 C   0  0  0  0  0  0  0  0  0  0  0  0
   13.2303   64.4564  -14.4964 C   0  0  0  0  0  0  0  0  0  0  0  0
   12.8077   63.1672  -14.4457 C   0  0  0  0  0  0  0  0  0  0  0  0
   13.0779   62.3500  -13.3283 C   0  0  0  0  0  0  0  0  0  0  0  0
   13.7830   62.8418  -12.2544 C   0  0  0  0  0  0  0  0  0  0  0  0
   12.1063   62.8650  -15.6450 N   0  0  0  0  0  0  0  0  0  0  0  0
   12.0843   63.9964  -16.4803 C   0  0  0  0  0  0  0  0  0  0  0  0
   11.5569   64.1019  -17.6159 O   0  0  0  0  0  0  0  0  0  0  0  0
   12.8139   65.0949  -15.7803 C   0  0  0  0  0  0  0  0  0  0  0  0
   11.9308   66.2416  -15.5400 C   0  0  0  0  0  0  0  0  0  0  0  0
   12.2521   67.4897  -15.9644 C   0  0  0  0  0  0  0  0  0  0  0  0
   13.4489   67.7130  -16.6521 O   0  0  0  0  0  0  0  0  0  0  0  0
   14.3146   66.6675  -16.9044 C   0  0  0  0  0  0  0  0  0  0  0  0
   14.0309   65.4633  -16.5091 C   0  0  0  0  0  0  0  0  0  0  0  0
   15.5253   66.9733  -17.6159 N   0  0  0  0  0  0  0  0  0  0  0  0
   11.3801   68.5523  -15.7120 C   0  0  0  0  0  0  0  0  0  0  0  0
   11.6872   69.6957  -16.1087 O   0  0  0  0  0  0  0  0  0  0  0  0
   10.2065   68.3167  -15.0352 C   0  0  0  0  0  0  0  0  0  0  0  0
    9.9327   67.0283  -14.6272 C   0  0  0  0  0  0  0  0  0  0  0  0
   10.7754   66.0871  -14.8884 O   0  0  0  0  0  0  0  0  0  0  0  0
   11.5110   61.5424  -15.9176 C   0  0  0  0  0  0  0  0  0  0  0  0
   16.4109   66.6417  -17.2381 H   0  0  0  0  0  0  0  0  0  0  0  0
   15.4575   67.5140  -18.4770 H   0  0  0  0  0  0  0  0  0  0  0  0
    8.6466   66.7438  -13.8804 C   0  0  0  0  0  0  0  0  0  0  0  0
    8.1810   65.4794  -14.2410 O   0  0  0  0  0  0  0  0  0  0  0  0
    8.5007   65.2655  -15.1684 H   0  0  0  0  0  0  0  0  0  0  0  0
   15.0097   64.4121  -16.8214 C   0  0  0  0  0  0  0  0  0  0  0  0
   15.7732   63.6035  -17.0677 N   0  0  0  0  0  0  0  0  0  0  0  0
  1  2  1  0  0  0
  2  3  2  0  0  0
  2  7  1  0  0  0
  3  4  1  0  0  0
  4  5  2  0  0  0
  4 11  1  0  0  0
  5  6  1  0  0  0
  5  8  1  0  0  0
  6  7  2  0  0  0
  8  9  1  0  0  0
  8 23  1  0  0  0
  9 10  2  0  0  0
  9 11  1  0  0  0
 11 12  1  0  0  0
 11 16  1  0  0  0
 12 13  2  0  0  0
 12 22  1  0  0  0
 13 14  1  0  0  0
 13 18  1  0  0  0
 14 15  1  0  0  0
 15 16  2  0  0  0
 15 17  1  0  0  0
 16 29  1  0  0  0
 29 30  3  0  0  0
 18 19  2  0  0  0
 18 20  1  0  0  0
 20 21  2  0  0  0
 21 22  1  0  0  0
 21 26  1  0  0  0
 26 27  1  0  0  0
 17 24  1  0  0  0
 17 25  1  0  0  0
 27 28  1  0  0  0
M  END
> <minimizedAffinity>
-2.64191

$$$$
513


 33 36  0  0  0  0  0  0  0  0999 V2000
   21.4769   62.7915  -11.2461 N   0  0  0  0  0  0  0  0  0  0  0  0
   20.8761   63.6795  -10.3138 C   0  0  0  0  0  0  0  0  0  0  0  0
   21.0996   64.8916  -10.4610 O   0  0  0  0  0  0  0  0  0  0  0  0
   21.2989   61.7726  -11.1122 H   0  0  0  0  0  0  0  0  0  0  0  0
   22.2736   63.2061  -12.2974 N   0  0  0  0  0  0  0  0  0  0  0  0
   21.8247   63.5261  -13.1987 H   0  0  0  0  0  0  0  0  0  0  0  0
   21.0537   63.4655  -17.6159 Br  0  0  0  0  0  0  0  0  0  0  0  0
   22.7764   63.4549  -16.7809 C   0  0  0  0  0  0  0  0  0  0  0  0
   22.8905   63.3825  -15.3929 C   0  0  0  0  0  0  0  0  0  0  0  0
   24.1015   63.3749  -14.7356 C   0  0  0  0  0  0  0  0  0  0  0  0
   25.2319   63.4421  -15.5153 C   0  0  0  0  0  0  0  0  0  0  0  0
   25.1550   63.5155  -16.9138 C   0  0  0  0  0  0  0  0  0  0  0  0
   23.9271   63.5199  -17.5234 C   0  0  0  0  0  0  0  0  0  0  0  0
   26.3540   63.4246  -14.6440 N   0  0  0  0  0  0  0  0  0  0  0  0
   25.9308   63.3450  -13.2953 C   0  0  0  0  0  0  0  0  0  0  0  0
   26.6310   63.3068  -12.2546 O   0  0  0  0  0  0  0  0  0  0  0  0
   24.4595   63.3114  -13.3146 C   0  0  0  0  0  0  0  0  0  0  0  0
   23.6740   63.2385  -12.2620 C   0  0  0  0  0  0  0  0  0  0  0  0
   27.3569   63.4627  -14.9418 H   0  0  0  0  0  0  0  0  0  0  0  0
   20.0111   63.2252   -9.2024 C   0  0  0  0  0  0  0  0  0  0  0  0
   19.0631   62.2982   -9.6120 N   0  0  0  0  0  0  0  0  0  0  0  0
   17.8133   62.4333  -10.0526 C   0  0  0  0  0  0  0  0  0  0  0  0
   17.2752   61.1722  -10.2710 C   0  0  0  0  0  0  0  0  0  0  0  0
   18.2341   60.2827   -9.9514 N   0  0  0  0  0  0  0  0  0  0  0  0
   19.2967   60.9486   -9.5608 C   0  0  0  0  0  0  0  0  0  0  0  0
   15.9839   61.0443  -10.7424 C   0  0  0  0  0  0  0  0  0  0  0  0
   15.5231   59.8884  -10.9279 O   0  0  0  0  0  0  0  0  0  0  0  0
   15.3028   62.1573  -10.9698 N   0  0  0  0  0  0  0  0  0  0  0  0
   15.8349   63.3739  -10.7571 C   0  0  0  0  0  0  0  0  0  0  0  0
   15.1555   64.4023  -10.9866 O   0  0  0  0  0  0  0  0  0  0  0  0
   17.1036   63.5548  -10.2930 N   0  0  0  0  0  0  0  0  0  0  0  0
   17.6549   64.8671  -10.1109 C   0  0  0  0  0  0  0  0  0  0  0  0
   13.9204   62.0775  -11.4704 C   0  0  0  0  0  0  0  0  0  0  0  0
  7  8  1  0  0  0
  8  9  2  0  0  0
  8 13  1  0  0  0
  9 10  1  0  0  0
 10 11  2  0  0  0
 10 17  1  0  0  0
 11 12  1  0  0  0
 11 14  1  0  0  0
 12 13  2  0  0  0
 14 15  1  0  0  0
 15 16  2  0  0  0
 15 17  1  0  0  0
 17 18  2  0  0  0
 18  5  1  0  0  0
  5  1  1  0  0  0
  1  2  1  0  0  0
  2  3  2  0  0  0
  2 20  1  0  0  0
 20 21  1  0  0  0
 21 22  1  0  0  0
 21 25  1  0  0  0
 22 23  2  0  0  0
 22 31  1  0  0  0
 23 24  1  0  0  0
 23 26  1  0  0  0
 24 25  2  0  0  0
 26 27  2  0  0  0
 26 28  1  0  0  0
 28 29  1  0  0  0
 28 33  1  0  0  0
 29 30  2  0  0  0
 29 31  1  0  0  0
 31 32  1  0  0  0
 14 19  1  0  0  0
  5  6  1  0  0  0
  1  4  1  0  0  0
M  END
> <minimizedAffinity>
-8.04116

$$$$
526


 31 34  0  0  0  0  0  0  0  0999 V2000
   20.1197   64.1194   -9.8622 N   0  0  0  0  0  0  0  0  0  0  0  0
   21.2086   63.8232  -10.7029 C   0  0  0  0  0  0  0  0  0  0  0  0
   20.9724   63.2116  -11.8048 O   0  0  0  0  0  0  0  0  0  0  0  0
   20.2993   64.6117   -8.9451 H   0  0  0  0  0  0  0  0  0  0  0  0
   13.4245   64.6207  -12.4030 Br  0  0  0  0  0  0  0  0  0  0  0  0
   14.6065   63.3429  -11.6467 C   0  0  0  0  0  0  0  0  0  0  0  0
   15.8789   63.6668  -11.2709 C   0  0  0  0  0  0  0  0  0  0  0  0
   16.7290   62.7290  -10.7263 C   0  0  0  0  0  0  0  0  0  0  0  0
   16.3567   61.4368  -10.5306 C   0  0  0  0  0  0  0  0  0  0  0  0
   15.0550   61.0963  -10.9123 C   0  0  0  0  0  0  0  0  0  0  0  0
   14.2046   62.0263  -11.4550 C   0  0  0  0  0  0  0  0  0  0  0  0
   17.3970   60.6707   -9.9628 N   0  0  0  0  0  0  0  0  0  0  0  0
   18.5409   61.5070   -9.7707 C   0  0  0  0  0  0  0  0  0  0  0  0
   19.6568   61.2563   -9.3107 O   0  0  0  0  0  0  0  0  0  0  0  0
   18.1178   62.8509  -10.2656 C   0  0  0  0  0  0  0  0  0  0  0  0
   18.8650   63.7775  -10.2221 N   0  0  0  0  0  0  0  0  0  0  0  0
   17.3788   59.6530   -9.7130 H   0  0  0  0  0  0  0  0  0  0  0  0
   22.6216   64.1421  -10.4782 C   0  0  0  0  0  0  0  0  0  0  0  0
   23.1933   63.6674   -9.2500 N   0  0  0  0  0  0  0  0  0  0  0  0
   22.9487   64.3219   -8.0100 C   0  0  0  0  0  0  0  0  0  0  0  0
   22.1877   65.3648   -8.0687 O   0  0  0  0  0  0  0  0  0  0  0  0
   23.8171   62.8468   -9.2158 H   0  0  0  0  0  0  0  0  0  0  0  0
   23.4619   63.9386   -6.7306 C   0  0  0  0  0  0  0  0  0  0  0  0
   24.5617   63.1209   -6.5173 C   0  0  0  0  0  0  0  0  0  0  0  0
   25.0011   62.8026   -5.2777 C   0  0  0  0  0  0  0  0  0  0  0  0
   24.3659   63.2842   -4.1505 C   0  0  0  0  0  0  0  0  0  0  0  0
   23.2804   64.0861   -4.3115 C   0  0  0  0  0  0  0  0  0  0  0  0
   22.8121   64.4297   -5.5886 C   0  0  0  0  0  0  0  0  0  0  0  0
   25.0413   62.8003   -3.0180 O   0  0  0  0  0  0  0  0  0  0  0  0
   26.4036   62.7018   -3.4987 C   0  0  0  0  0  0  0  0  0  0  0  0
   26.0893   62.0075   -4.7583 O   0  0  0  0  0  0  0  0  0  0  0  0
  5  6  1  0  0  0
  6  7  2  0  0  0
  6 11  1  0  0  0
  7  8  1  0  0  0
  8  9  2  0  0  0
  8 15  1  0  0  0
  9 10  1  0  0  0
  9 12  1  0  0  0
 10 11  2  0  0  0
 12 13  1  0  0  0
 13 14  2  0  0  0
 13 15  1  0  0  0
 15 16  2  0  0  0
 16  1  1  0  0  0
  1  2  1  0  0  0
  2  3  2  0  0  0
  2 18  1  0  0  0
 18 19  1  0  0  0
 19 20  1  0  0  0
 20 21  2  0  0  0
 20 23  1  0  0  0
 23 24  2  0  0  0
 23 28  1  0  0  0
 24 25  1  0  0  0
 25 26  2  0  0  0
 25 31  1  0  0  0
 26 27  1  0  0  0
 26 29  1  0  0  0
 27 28  2  0  0  0
 29 30  1  0  0  0
 30 31  1  0  0  0
 12 17  1  0  0  0
  1  4  1  0  0  0
 19 22  1  0  0  0
M  END
> <minimizedAffinity>
-9.97043

$$$$
550


 30 35  0  0  0  0  0  0  0  0999 V2000
   25.2136   62.2778   -5.0404 Br  0  0  0  0  0  0  0  0  0  0  0  0
   24.0324   63.4849   -5.9267 C   0  0  0  0  0  0  0  0  0  0  0  0
   23.5328   63.2296   -7.1983 C   0  0  0  0  0  0  0  0  0  0  0  0
   22.6854   64.1005   -7.8289 C   0  0  0  0  0  0  0  0  0  0  0  0
   22.3401   65.2570   -7.1460 C   0  0  0  0  0  0  0  0  0  0  0  0
   22.8323   65.5170   -5.8842 C   0  0  0  0  0  0  0  0  0  0  0  0
   23.6838   64.6347   -5.2611 C   0  0  0  0  0  0  0  0  0  0  0  0
   21.4515   66.0494   -7.9378 N   0  0  0  0  0  0  0  0  0  0  0  0
   21.2206   65.3835   -9.1608 C   0  0  0  0  0  0  0  0  0  0  0  0
   20.4874   65.8132  -10.0629 O   0  0  0  0  0  0  0  0  0  0  0  0
   22.0057   64.1313   -9.1215 C   0  0  0  0  0  0  0  0  0  0  0  0
   22.8509   64.1250  -10.2776 N   0  0  0  0  0  0  0  0  0  0  0  0
   21.9461   63.7938  -11.3766 C   0  0  0  0  0  0  0  0  0  0  0  0
   20.9060   62.8864  -10.8067 C   0  0  0  0  0  0  0  0  0  0  0  0
   21.1514   62.9072   -9.3378 C   0  0  0  0  0  0  0  0  0  0  0  0
   19.8260   63.0061   -8.7352 C   0  0  0  0  0  0  0  0  0  0  0  0
   19.5565   62.9088   -7.5169 O   0  0  0  0  0  0  0  0  0  0  0  0
   18.8714   63.2332   -9.7417 N   0  0  0  0  0  0  0  0  0  0  0  0
   19.5175   63.4094  -11.0121 C   0  0  0  0  0  0  0  0  0  0  0  0
   19.0536   63.8923  -12.0752 O   0  0  0  0  0  0  0  0  0  0  0  0
   22.7831   62.9955  -12.3652 C   0  0  0  0  0  0  0  0  0  0  0  0
   24.1799   62.9427  -11.7820 C   0  0  0  0  0  0  0  0  0  0  0  0
   23.8569   63.0835  -10.2882 C   0  0  0  0  0  0  0  0  0  0  0  0
   21.0452   66.9832   -7.6349 H   0  0  0  0  0  0  0  0  0  0  0  0
   17.4547   63.2872   -9.5619 C   0  0  0  0  0  0  0  0  0  0  0  0
   16.6653   62.4246  -10.4774 C   0  0  0  0  0  0  0  0  0  0  0  0
   15.3083   62.7255  -10.5028 O   0  0  0  0  0  0  0  0  0  0  0  0
   14.7517   61.6699  -11.2123 C   0  0  0  0  0  0  0  0  0  0  0  0
   15.4924   60.4211  -10.8498 C   0  0  0  0  0  0  0  0  0  0  0  0
   16.7912   60.9572  -10.2485 C   0  0  0  0  0  0  0  0  0  0  0  0
  1  2  1  0  0  0
  2  3  2  0  0  0
  2  7  1  0  0  0
  3  4  1  0  0  0
  4  5  2  0  0  0
  4 11  1  0  0  0
  5  6  1  0  0  0
  5  8  1  0  0  0
  6  7  2  0  0  0
  8  9  1  0  0  0
  9 10  2  0  0  0
  9 11  1  0  0  0
 11 12  1  0  0  0
 11 15  1  0  0  0
 12 13  1  0  0  0
 12 23  1  0  0  0
 13 14  1  0  0  0
 13 21  1  0  0  0
 14 15  1  0  0  0
 14 19  1  0  0  0
 15 16  1  0  0  0
 16 17  2  0  0  0
 16 18  1  0  0  0
 18 19  1  0  0  0
 18 25  1  0  0  0
 19 20  2  0  0  0
 25 26  1  0  0  0
 26 27  1  0  0  0
 26 30  1  0  0  0
 27 28  1  0  0  0
 28 29  1  0  0  0
 29 30  1  0  0  0
 21 22  1  0  0  0
 22 23  1  0  0  0
  8 24  1  0  0  0
M  END
> <minimizedAffinity>
-8.07908

$$$$
556


 30 33  0  0  0  0  0  0  0  0999 V2000
   14.8888   64.2834  -11.1543 Br  0  0  0  0  0  0  0  0  0  0  0  0
   13.8064   64.1470  -12.7186 C   0  0  0  0  0  0  0  0  0  0  0  0
   13.6485   65.2839  -13.4727 C   0  0  0  0  0  0  0  0  0  0  0  0
   12.8639   65.2339  -14.6300 C   0  0  0  0  0  0  0  0  0  0  0  0
   12.2750   64.0631  -14.9815 C   0  0  0  0  0  0  0  0  0  0  0  0
   12.4241   62.8864  -14.2228 C   0  0  0  0  0  0  0  0  0  0  0  0
   13.2006   62.9655  -13.0910 C   0  0  0  0  0  0  0  0  0  0  0  0
   11.5233   64.2177  -16.1711 N   0  0  0  0  0  0  0  0  0  0  0  0
   11.6486   65.5469  -16.5789 C   0  0  0  0  0  0  0  0  0  0  0  0
   11.1091   66.0985  -17.6148 O   0  0  0  0  0  0  0  0  0  0  0  0
   12.5306   66.2587  -15.6064 C   0  0  0  0  0  0  0  0  0  0  0  0
   13.6161   66.8042  -16.3787 C   0  0  0  0  0  0  0  0  0  0  0  0
   13.7647   68.1308  -16.5390 C   0  0  0  0  0  0  0  0  0  0  0  0
   14.8821   68.3160  -17.3170 N   0  0  0  0  0  0  0  0  0  0  0  0
   15.3850   67.1367  -17.6124 N   0  0  0  0  0  0  0  0  0  0  0  0
   14.6604   66.1573  -17.0704 C   0  0  0  0  0  0  0  0  0  0  0  0
   14.8758   64.6838  -17.1551 C   0  0  0  0  0  0  0  0  0  0  0  0
   12.8913   69.0807  -15.9784 O   0  0  0  0  0  0  0  0  0  0  0  0
   11.8369   68.5744  -15.2289 C   0  0  0  0  0  0  0  0  0  0  0  0
   11.6434   67.3041  -15.0410 C   0  0  0  0  0  0  0  0  0  0  0  0
   10.8963   69.4876  -14.6205 N   0  0  0  0  0  0  0  0  0  0  0  0
   10.9571   63.4846  -16.6862 H   0  0  0  0  0  0  0  0  0  0  0  0
   15.2640   69.2400  -17.6219 H   0  0  0  0  0  0  0  0  0  0  0  0
   10.0036   69.6451  -15.0937 H   0  0  0  0  0  0  0  0  0  0  0  0
   11.1426   69.9468  -13.7431 H   0  0  0  0  0  0  0  0  0  0  0  0
   10.4791   66.8653  -14.2182 C   0  0  0  0  0  0  0  0  0  0  0  0
   10.6611   66.6913  -13.0000 O   0  0  0  0  0  0  0  0  0  0  0  0
    9.2321   66.6504  -14.7384 O   0  0  0  0  0  0  0  0  0  0  0  0
    8.5199   65.4401  -14.6442 C   0  0  0  0  0  0  0  0  0  0  0  0
    7.9410   65.1455  -16.0320 C   0  0  0  0  0  0  0  0  0  0  0  0
  1  2  1  0  0  0
  2  3  2  0  0  0
  2  7  1  0  0  0
  3  4  1  0  0  0
  4  5  2  0  0  0
  4 11  1  0  0  0
  5  6  1  0  0  0
  5  8  1  0  0  0
  6  7  2  0  0  0
  8  9  1  0  0  0
  9 10  2  0  0  0
  9 11  1  0  0  0
 11 12  1  0  0  0
 11 20  1  0  0  0
 12 13  2  0  0  0
 12 16  1  0  0  0
 13 14  1  0  0  0
 13 18  1  0  0  0
 14 15  1  0  0  0
 15 16  2  0  0  0
 16 17  1  0  0  0
 18 19  1  0  0  0
 19 20  2  0  0  0
 19 21  1  0  0  0
 20 26  1  0  0  0
 26 27  2  0  0  0
 26 28  1  0  0  0
 28 29  1  0  0  0
 29 30  1  0  0  0
  8 22  1  0  0  0
 14 23  1  0  0  0
 21 24  1  0  0  0
 21 25  1  0  0  0
M  END
> <minimizedAffinity>
-4.59377

$$$$
558


 29 32  0  0  0  0  0  0  0  0999 V2000
   15.3077   64.5355  -10.8376 Br  0  0  0  0  0  0  0  0  0  0  0  0
   14.1871   64.1693  -12.3265 C   0  0  0  0  0  0  0  0  0  0  0  0
   13.9356   65.1218  -13.3192 C   0  0  0  0  0  0  0  0  0  0  0  0
   13.1265   64.8493  -14.3902 C   0  0  0  0  0  0  0  0  0  0  0  0
   12.5474   63.6186  -14.4941 C   0  0  0  0  0  0  0  0  0  0  0  0
   12.7682   62.6303  -13.5248 C   0  0  0  0  0  0  0  0  0  0  0  0
   13.5855   62.9323  -12.4621 C   0  0  0  0  0  0  0  0  0  0  0  0
   11.7508   63.5325  -15.6635 N   0  0  0  0  0  0  0  0  0  0  0  0
   11.8361   64.7713  -16.3226 C   0  0  0  0  0  0  0  0  0  0  0  0
   11.2791   65.1165  -17.3979 O   0  0  0  0  0  0  0  0  0  0  0  0
   12.7160   65.6700  -15.5437 C   0  0  0  0  0  0  0  0  0  0  0  0
   11.9342   66.8672  -15.0938 C   0  0  0  0  0  0  0  0  0  0  0  0
   12.2487   68.1126  -15.3358 C   0  0  0  0  0  0  0  0  0  0  0  0
   13.4215   68.3734  -16.0832 N   0  0  0  0  0  0  0  0  0  0  0  0
   14.2260   67.3027  -16.5520 C   0  0  0  0  0  0  0  0  0  0  0  0
   13.9136   66.0532  -16.3110 C   0  0  0  0  0  0  0  0  0  0  0  0
   15.4264   67.5953  -17.3180 N   0  0  0  0  0  0  0  0  0  0  0  0
   11.2207   68.9863  -14.7194 C   0  0  0  0  0  0  0  0  0  0  0  0
   10.2829   68.1453  -14.0990 O   0  0  0  0  0  0  0  0  0  0  0  0
   10.6877   66.8415  -14.3085 C   0  0  0  0  0  0  0  0  0  0  0  0
   10.0729   65.8032  -13.8843 O   0  0  0  0  0  0  0  0  0  0  0  0
   10.4551   69.7642  -15.7922 C   0  0  0  0  0  0  0  0  0  0  0  0
   11.8484   69.9537  -13.7257 C   0  0  0  0  0  0  0  0  0  0  0  0
   11.1958   62.6730  -15.9696 H   0  0  0  0  0  0  0  0  0  0  0  0
   13.7246   69.3560  -16.3082 H   0  0  0  0  0  0  0  0  0  0  0  0
   16.2293   66.9488  -17.3850 H   0  0  0  0  0  0  0  0  0  0  0  0
   15.4679   68.4981  -17.8178 H   0  0  0  0  0  0  0  0  0  0  0  0
   14.7983   65.0062  -16.8311 C   0  0  0  0  0  0  0  0  0  0  0  0
   15.5079   64.1942  -17.2485 N   0  0  0  0  0  0  0  0  0  0  0  0
  1  2  1  0  0  0
  2  3  2  0  0  0
  2  7  1  0  0  0
  3  4  1  0  0  0
  4  5  2  0  0  0
  4 11  1  0  0  0
  5  6  1  0  0  0
  5  8  1  0  0  0
  6  7  2  0  0  0
  8  9  1  0  0  0
  9 10  2  0  0  0
  9 11  1  0  0  0
 11 12  1  0  0  0
 11 16  1  0  0  0
 12 13  2  0  0  0
 12 20  1  0  0  0
 13 14  1  0  0  0
 13 18  1  0  0  0
 14 15  1  0  0  0
 15 16  2  0  0  0
 15 17  1  0  0  0
 16 28  1  0  0  0
 28 29  3  0  0  0
 18 19  1  0  0  0
 18 22  1  0  0  0
 18 23  1  0  0  0
 19 20  1  0  0  0
 20 21  2  0  0  0
  8 24  1  0  0  0
 14 25  1  0  0  0
 17 26  1  0  0  0
 17 27  1  0  0  0
M  END
> <minimizedAffinity>
-6.05577

$$$$
559


 32 35  0  0  0  0  0  0  0  0999 V2000
    8.4846   61.8163  -16.4174 Br  0  0  0  0  0  0  0  0  0  0  0  0
   10.0192   62.3786  -15.4106 C   0  0  0  0  0  0  0  0  0  0  0  0
   10.6466   63.5863  -15.6545 C   0  0  0  0  0  0  0  0  0  0  0  0
   11.7503   63.9988  -14.9365 C   0  0  0  0  0  0  0  0  0  0  0  0
   12.2003   63.1390  -13.9560 C   0  0  0  0  0  0  0  0  0  0  0  0
   11.5720   61.9227  -13.7079 C   0  0  0  0  0  0  0  0  0  0  0  0
   10.4840   61.5396  -14.4307 C   0  0  0  0  0  0  0  0  0  0  0  0
   13.3495   63.7228  -13.3221 N   0  0  0  0  0  0  0  0  0  0  0  0
   13.6230   64.9764  -13.9231 C   0  0  0  0  0  0  0  0  0  0  0  0
   14.5730   65.7231  -13.5913 O   0  0  0  0  0  0  0  0  0  0  0  0
   12.6055   65.2077  -14.9695 C   0  0  0  0  0  0  0  0  0  0  0  0
   13.2200   65.4141  -16.2531 N   0  0  0  0  0  0  0  0  0  0  0  0
   13.6295   66.8027  -16.2234 C   0  0  0  0  0  0  0  0  0  0  0  0
   12.4576   67.5043  -15.5902 C   0  0  0  0  0  0  0  0  0  0  0  0
   11.8706   66.4645  -14.6661 C   0  0  0  0  0  0  0  0  0  0  0  0
   10.4314   66.4478  -14.9632 C   0  0  0  0  0  0  0  0  0  0  0  0
    9.5415   65.8148  -14.3409 O   0  0  0  0  0  0  0  0  0  0  0  0
   10.1602   67.2869  -16.1091 N   0  0  0  0  0  0  0  0  0  0  0  0
   11.3889   67.8359  -16.5574 C   0  0  0  0  0  0  0  0  0  0  0  0
   11.5192   68.4959  -17.6158 O   0  0  0  0  0  0  0  0  0  0  0  0
   13.8683   63.2577  -12.5458 H   0  0  0  0  0  0  0  0  0  0  0  0
   12.5055   65.2990  -16.9898 H   0  0  0  0  0  0  0  0  0  0  0  0
    8.8734   67.5376  -16.7090 C   0  0  0  0  0  0  0  0  0  0  0  0
    8.8986   68.7440  -17.6159 C   0  0  0  0  0  0  0  0  0  0  0  0
    8.4520   66.3016  -17.5094 C   0  0  0  0  0  0  0  0  0  0  0  0
    7.8260   67.7971  -15.6486 C   0  0  0  0  0  0  0  0  0  0  0  0
   13.9458   67.2867  -17.6127 C   0  0  0  0  0  0  0  0  0  0  0  0
   14.8292   68.4637  -17.5742 C   0  0  0  0  0  0  0  0  0  0  0  0
   16.0777   68.2841  -17.5847 O   0  0  0  0  0  0  0  0  0  0  0  0
   14.3803   69.8080  -17.5265 N   0  0  0  0  0  0  0  0  0  0  0  0
   13.6520   70.1712  -16.8949 H   0  0  0  0  0  0  0  0  0  0  0  0
   14.8337   70.4844  -18.1955 H   0  0  0  0  0  0  0  0  0  0  0  0
  1  2  1  0  0  0
  2  3  2  0  0  0
  2  7  1  0  0  0
  3  4  1  0  0  0
  4  5  2  0  0  0
  4 11  1  0  0  0
  5  6  1  0  0  0
  5  8  1  0  0  0
  6  7  2  0  0  0
  8  9  1  0  0  0
  9 10  2  0  0  0
  9 11  1  0  0  0
 11 12  1  0  0  0
 11 15  1  0  0  0
 12 13  1  0  0  0
 13 14  1  0  0  0
 13 27  1  0  0  0
 14 15  1  0  0  0
 14 19  1  0  0  0
 15 16  1  0  0  0
 16 17  2  0  0  0
 16 18  1  0  0  0
 18 19  1  0  0  0
 18 23  1  0  0  0
 19 20  2  0  0  0
 23 24  1  0  0  0
 23 25  1  0  0  0
 23 26  1  0  0  0
 27 28  1  0  0  0
 28 29  2  0  0  0
 28 30  1  0  0  0
  8 21  1  0  0  0
 12 22  1  0  0  0
 30 31  1  0  0  0
 30 32  1  0  0  0
M  END
> <minimizedAffinity>
-3.48569

$$$$
566


 30 33  0  0  0  0  0  0  0  0999 V2000
   11.4813   70.3308  -17.6160 Br  0  0  0  0  0  0  0  0  0  0  0  0
   10.3455   69.0571  -16.7625 C   0  0  0  0  0  0  0  0  0  0  0  0
   10.8635   67.9098  -16.2170 C   0  0  0  0  0  0  0  0  0  0  0  0
   10.0355   66.9637  -15.5858 C   0  0  0  0  0  0  0  0  0  0  0  0
    8.6853   67.1546  -15.4940 C   0  0  0  0  0  0  0  0  0  0  0  0
    8.1562   68.3276  -16.0513 C   0  0  0  0  0  0  0  0  0  0  0  0
    8.9837   69.2393  -16.6643 C   0  0  0  0  0  0  0  0  0  0  0  0
    8.0638   66.0709  -14.8177 N   0  0  0  0  0  0  0  0  0  0  0  0
    9.0812   65.1535  -14.4684 C   0  0  0  0  0  0  0  0  0  0  0  0
    8.8306   64.0691  -13.8450 O   0  0  0  0  0  0  0  0  0  0  0  0
   10.3547   65.6740  -14.9351 C   0  0  0  0  0  0  0  0  0  0  0  0
   11.3402   65.8254  -13.8822 N   0  0  0  0  0  0  0  0  0  0  0  0
   12.0458   64.5584  -13.8189 C   0  0  0  0  0  0  0  0  0  0  0  0
   12.2116   64.2204  -15.2726 C   0  0  0  0  0  0  0  0  0  0  0  0
   10.9616   64.7030  -15.9261 C   0  0  0  0  0  0  0  0  0  0  0  0
   10.1333   63.5057  -16.1385 C   0  0  0  0  0  0  0  0  0  0  0  0
    8.8882   63.4332  -16.4018 O   0  0  0  0  0  0  0  0  0  0  0  0
   10.9387   62.3412  -16.0064 N   0  0  0  0  0  0  0  0  0  0  0  0
   12.1981   62.7630  -15.5228 C   0  0  0  0  0  0  0  0  0  0  0  0
   13.2089   62.0248  -15.3171 O   0  0  0  0  0  0  0  0  0  0  0  0
    7.0288   66.0151  -14.6377 H   0  0  0  0  0  0  0  0  0  0  0  0
   10.9213   66.1014  -12.9759 H   0  0  0  0  0  0  0  0  0  0  0  0
   13.3447   64.7528  -13.1020 C   0  0  0  0  0  0  0  0  0  0  0  0
   14.3530   64.8661  -14.0673 O   0  0  0  0  0  0  0  0  0  0  0  0
   13.6640   63.5382  -12.2657 C   0  0  0  0  0  0  0  0  0  0  0  0
   15.1486   64.3322  -13.8122 H   0  0  0  0  0  0  0  0  0  0  0  0
   10.5507   60.9775  -16.3085 C   0  0  0  0  0  0  0  0  0  0  0  0
    9.6184   60.4095  -15.2880 C   0  0  0  0  0  0  0  0  0  0  0  0
    9.3556   58.9529  -15.6904 C   0  0  0  0  0  0  0  0  0  0  0  0
    9.0707   58.1152  -14.4743 C   0  0  0  0  0  0  0  0  0  0  0  0
  1  2  1  0  0  0
  2  3  2  0  0  0
  2  7  1  0  0  0
  3  4  1  0  0  0
  4  5  2  0  0  0
  4 11  1  0  0  0
  5  6  1  0  0  0
  5  8  1  0  0  0
  6  7  2  0  0  0
  8  9  1  0  0  0
  9 10  2  0  0  0
  9 11  1  0  0  0
 11 12  1  0  0  0
 11 15  1  0  0  0
 12 13  1  0  0  0
 13 14  1  0  0  0
 13 23  1  0  0  0
 14 15  1  0  0  0
 14 19  1  0  0  0
 15 16  1  0  0  0
 16 17  2  0  0  0
 16 18  1  0  0  0
 18 19  1  0  0  0
 18 27  1  0  0  0
 19 20  2  0  0  0
 27 28  1  0  0  0
 28 29  1  0  0  0
 29 30  1  0  0  0
 23 24  1  0  0  0
 23 25  1  0  0  0
  8 21  1  0  0  0
 12 22  1  0  0  0
 24 26  1  0  0  0
M  END
> <minimizedAffinity>
-4.85933

$$$$
571


 34 38  0  0  0  0  0  0  0  0999 V2000
   21.4834   64.8340   -6.6253 Br  0  0  0  0  0  0  0  0  0  0  0  0
   21.5701   64.2226   -8.4320 C   0  0  0  0  0  0  0  0  0  0  0  0
   20.5803   63.4543   -9.0034 C   0  0  0  0  0  0  0  0  0  0  0  0
   20.6521   63.0020  -10.3298 C   0  0  0  0  0  0  0  0  0  0  0  0
   21.7619   63.3572  -11.0569 C   0  0  0  0  0  0  0  0  0  0  0  0
   22.7629   64.1320  -10.4881 C   0  0  0  0  0  0  0  0  0  0  0  0
   22.6818   64.5693   -9.1845 C   0  0  0  0  0  0  0  0  0  0  0  0
   21.7038   62.8207  -12.3644 N   0  0  0  0  0  0  0  0  0  0  0  0
   20.5015   62.0912  -12.4696 C   0  0  0  0  0  0  0  0  0  0  0  0
   20.1625   61.4884  -13.5266 O   0  0  0  0  0  0  0  0  0  0  0  0
   19.7882   62.1809  -11.1784 C   0  0  0  0  0  0  0  0  0  0  0  0
   19.6041   60.8454  -10.6019 N   0  0  0  0  0  0  0  0  0  0  0  0
   18.3502   60.9022   -9.8845 C   0  0  0  0  0  0  0  0  0  0  0  0
   17.5147   61.9546  -10.4993 C   0  0  0  0  0  0  0  0  0  0  0  0
   18.4283   62.7049  -11.4512 C   0  0  0  0  0  0  0  0  0  0  0  0
   18.1779   64.1193  -11.2008 C   0  0  0  0  0  0  0  0  0  0  0  0
   18.8140   65.0876  -11.6861 O   0  0  0  0  0  0  0  0  0  0  0  0
   17.0671   64.2742  -10.2917 N   0  0  0  0  0  0  0  0  0  0  0  0
   17.0214   63.0117   -9.5945 C   0  0  0  0  0  0  0  0  0  0  0  0
   16.6278   62.8622   -8.4280 O   0  0  0  0  0  0  0  0  0  0  0  0
   22.4306   62.9468  -13.1217 H   0  0  0  0  0  0  0  0  0  0  0  0
   20.3953   60.5905   -9.9677 H   0  0  0  0  0  0  0  0  0  0  0  0
   17.6985   59.5397   -9.8621 C   0  0  0  0  0  0  0  0  0  0  0  0
   17.7953   58.9913   -8.5976 O   0  0  0  0  0  0  0  0  0  0  0  0
   16.2777   59.5740  -10.3703 C   0  0  0  0  0  0  0  0  0  0  0  0
   17.3154   58.1451   -8.5184 H   0  0  0  0  0  0  0  0  0  0  0  0
   16.1837   65.3832  -10.1219 C   0  0  0  0  0  0  0  0  0  0  0  0
   14.7191   65.0590  -10.0694 C   0  0  0  0  0  0  0  0  0  0  0  0
   14.2277   64.2189  -11.1752 C   0  0  0  0  0  0  0  0  0  0  0  0
   14.1061   62.8476  -10.9868 C   0  0  0  0  0  0  0  0  0  0  0  0
   13.6310   62.0676  -11.9871 C   0  0  0  0  0  0  0  0  0  0  0  0
   13.2554   62.5719  -13.1987 C   0  0  0  0  0  0  0  0  0  0  0  0
   13.3801   63.9414  -13.3757 C   0  0  0  0  0  0  0  0  0  0  0  0
   13.8573   64.7484  -12.3833 C   0  0  0  0  0  0  0  0  0  0  0  0
  1  2  1  0  0  0
  2  3  2  0  0  0
  2  7  1  0  0  0
  3  4  1  0  0  0
  4  5  2  0  0  0
  4 11  1  0  0  0
  5  6  1  0  0  0
  5  8  1  0  0  0
  6  7  2  0  0  0
  8  9  1  0  0  0
  9 10  2  0  0  0
  9 11  1  0  0  0
 11 12  1  0  0  0
 11 15  1  0  0  0
 12 13  1  0  0  0
 13 14  1  0  0  0
 13 23  1  0  0  0
 14 15  1  0  0  0
 14 19  1  0  0  0
 15 16  1  0  0  0
 16 17  2  0  0  0
 16 18  1  0  0  0
 18 19  1  0  0  0
 18 27  1  0  0  0
 19 20  2  0  0  0
 27 28  1  0  0  0
 28 29  1  0  0  0
 29 30  2  0  0  0
 29 34  1  0  0  0
 30 31  1  0  0  0
 31 32  2  0  0  0
 32 33  1  0  0  0
 33 34  2  0  0  0
 23 24  1  0  0  0
 23 25  1  0  0  0
  8 21  1  0  0  0
 12 22  1  0  0  0
 24 26  1  0  0  0
M  END
> <minimizedAffinity>
-2.68093

$$$$
578


 27 30  0  0  0  0  0  0  0  0999 V2000
   15.8202   65.6455  -10.5297 Br  0  0  0  0  0  0  0  0  0  0  0  0
   14.7368   64.3149  -11.3684 C   0  0  0  0  0  0  0  0  0  0  0  0
   14.0662   64.5499  -12.5423 C   0  0  0  0  0  0  0  0  0  0  0  0
   13.2602   63.5954  -13.1877 C   0  0  0  0  0  0  0  0  0  0  0  0
   13.1586   62.3751  -12.5902 C   0  0  0  0  0  0  0  0  0  0  0  0
   13.8386   62.1162  -11.3851 C   0  0  0  0  0  0  0  0  0  0  0  0
   14.6194   63.0718  -10.7783 C   0  0  0  0  0  0  0  0  0  0  0  0
   12.3267   61.5093  -13.3500 N   0  0  0  0  0  0  0  0  0  0  0  0
   11.8911   62.2319  -14.4780 C   0  0  0  0  0  0  0  0  0  0  0  0
   11.1301   61.7779  -15.4092 O   0  0  0  0  0  0  0  0  0  0  0  0
   12.4626   63.5882  -14.3960 C   0  0  0  0  0  0  0  0  0  0  0  0
   13.3332   63.6671  -15.5828 N   0  0  0  0  0  0  0  0  0  0  0  0
   12.6524   64.4096  -16.5973 C   0  0  0  0  0  0  0  0  0  0  0  0
   11.7585   65.3271  -15.8475 C   0  0  0  0  0  0  0  0  0  0  0  0
   11.4464   64.6607  -14.5350 C   0  0  0  0  0  0  0  0  0  0  0  0
   11.4620   65.7500  -13.5856 C   0  0  0  0  0  0  0  0  0  0  0  0
   10.9952   65.6969  -12.4098 O   0  0  0  0  0  0  0  0  0  0  0  0
   12.0813   66.8801  -14.1839 N   0  0  0  0  0  0  0  0  0  0  0  0
   12.5472   66.5463  -15.4834 C   0  0  0  0  0  0  0  0  0  0  0  0
   13.4188   67.1744  -16.1163 O   0  0  0  0  0  0  0  0  0  0  0  0
   11.9217   63.5664  -17.6158 C   0  0  0  0  0  0  0  0  0  0  0  0
   12.0689   60.5033  -13.1273 H   0  0  0  0  0  0  0  0  0  0  0  0
   14.2557   64.0905  -15.3394 H   0  0  0  0  0  0  0  0  0  0  0  0
   12.1927   68.1673  -13.5111 C   0  0  0  0  0  0  0  0  0  0  0  0
   11.4566   69.2489  -14.2421 C   0  0  0  0  0  0  0  0  0  0  0  0
   12.0824   70.6077  -14.0779 C   0  0  0  0  0  0  0  0  0  0  0  0
   12.1802   70.8606  -12.5692 C   0  0  0  0  0  0  0  0  0  0  0  0
  1  2  1  0  0  0
  2  3  2  0  0  0
  2  7  1  0  0  0
  3  4  1  0  0  0
  4  5  2  0  0  0
  4 11  1  0  0  0
  5  6  1  0  0  0
  5  8  1  0  0  0
  6  7  2  0  0  0
  8  9  1  0  0  0
  9 10  2  0  0  0
  9 11  1  0  0  0
 11 12  1  0  0  0
 11 15  1  0  0  0
 12 13  1  0  0  0
 13 14  1  0  0  0
 13 21  1  0  0  0
 14 15  1  0  0  0
 14 19  1  0  0  0
 15 16  1  0  0  0
 16 17  2  0  0  0
 16 18  1  0  0  0
 18 19  1  0  0  0
 18 24  1  0  0  0
 19 20  2  0  0  0
 24 25  1  0  0  0
 25 26  1  0  0  0
 26 27  1  0  0  0
  8 22  1  0  0  0
 12 23  1  0  0  0
M  END
> <minimizedAffinity>
-4.15267

$$$$
579


 32 35  0  0  0  0  0  0  0  0999 V2000
   23.9104   63.4176   -1.9722 Br  0  0  0  0  0  0  0  0  0  0  0  0
   24.1656   63.3010   -3.8587 C   0  0  0  0  0  0  0  0  0  0  0  0
   23.3803   63.9809   -4.7629 C   0  0  0  0  0  0  0  0  0  0  0  0
   23.5725   63.8919   -6.1411 C   0  0  0  0  0  0  0  0  0  0  0  0
   24.5804   63.0969   -6.6265 C   0  0  0  0  0  0  0  0  0  0  0  0
   25.3870   62.3999   -5.7413 C   0  0  0  0  0  0  0  0  0  0  0  0
   25.1726   62.5078   -4.3621 C   0  0  0  0  0  0  0  0  0  0  0  0
   24.6059   63.1531   -8.0559 N   0  0  0  0  0  0  0  0  0  0  0  0
   23.5692   64.0201   -8.4838 C   0  0  0  0  0  0  0  0  0  0  0  0
   23.3460   64.2807   -9.6819 O   0  0  0  0  0  0  0  0  0  0  0  0
   22.8716   64.5076   -7.3047 C   0  0  0  0  0  0  0  0  0  0  0  0
   23.0213   65.9622   -7.2836 N   0  0  0  0  0  0  0  0  0  0  0  0
   21.7682   66.4740   -6.8152 C   0  0  0  0  0  0  0  0  0  0  0  0
   20.7626   65.5642   -7.4207 C   0  0  0  0  0  0  0  0  0  0  0  0
   21.4036   64.2062   -7.2528 C   0  0  0  0  0  0  0  0  0  0  0  0
   20.8779   63.4118   -8.3546 C   0  0  0  0  0  0  0  0  0  0  0  0
   20.8944   62.1646   -8.4323 O   0  0  0  0  0  0  0  0  0  0  0  0
   20.3461   64.3081   -9.3224 N   0  0  0  0  0  0  0  0  0  0  0  0
   20.6294   65.6618   -8.8952 C   0  0  0  0  0  0  0  0  0  0  0  0
   20.7153   66.6113   -9.6905 O   0  0  0  0  0  0  0  0  0  0  0  0
   25.2933   62.6247   -8.6621 H   0  0  0  0  0  0  0  0  0  0  0  0
   23.1743   66.3263   -8.2542 H   0  0  0  0  0  0  0  0  0  0  0  0
   19.6499   63.8992  -10.5078 C   0  0  0  0  0  0  0  0  0  0  0  0
   18.1619   63.8684  -10.3976 C   0  0  0  0  0  0  0  0  0  0  0  0
   17.6909   62.8210   -9.6233 O   0  0  0  0  0  0  0  0  0  0  0  0
   17.9297   61.5879  -10.2253 C   0  0  0  0  0  0  0  0  0  0  0  0
   21.5687   67.9246   -7.0920 C   0  0  0  0  0  0  0  0  0  0  0  0
   22.5736   68.7127   -6.3698 C   0  0  0  0  0  0  0  0  0  0  0  0
   23.7779   68.6909   -6.7520 O   0  0  0  0  0  0  0  0  0  0  0  0
   22.2098   69.5050   -5.2410 N   0  0  0  0  0  0  0  0  0  0  0  0
   22.7376   70.3730   -5.0173 H   0  0  0  0  0  0  0  0  0  0  0  0
   21.4118   69.2080   -4.6430 H   0  0  0  0  0  0  0  0  0  0  0  0
  1  2  1  0  0  0
  2  3  2  0  0  0
  2  7  1  0  0  0
  3  4  1  0  0  0
  4  5  2  0  0  0
  4 11  1  0  0  0
  5  6  1  0  0  0
  5  8  1  0  0  0
  6  7  2  0  0  0
  8  9  1  0  0  0
  9 10  2  0  0  0
  9 11  1  0  0  0
 11 12  1  0  0  0
 11 15  1  0  0  0
 12 13  1  0  0  0
 13 14  1  0  0  0
 13 27  1  0  0  0
 14 15  1  0  0  0
 14 19  1  0  0  0
 15 16  1  0  0  0
 16 17  2  0  0  0
 16 18  1  0  0  0
 18 19  1  0  0  0
 18 23  1  0  0  0
 19 20  2  0  0  0
 23 24  1  0  0  0
 24 25  1  0  0  0
 25 26  1  0  0  0
 27 28  1  0  0  0
 28 29  2  0  0  0
 28 30  1  0  0  0
  8 21  1  0  0  0
 12 22  1  0  0  0
 30 31  1  0  0  0
 30 32  1  0  0  0
M  END
> <minimizedAffinity>
-4.82147

$$$$
588


 24 27  0  0  0  0  0  0  0  0999 V2000
   15.2814   63.8936  -10.6659 Br  0  0  0  0  0  0  0  0  0  0  0  0
   17.1762   63.7163  -10.7620 C   0  0  0  0  0  0  0  0  0  0  0  0
   17.8530   63.3708   -9.6286 C   0  0  0  0  0  0  0  0  0  0  0  0
   19.2303   63.2353   -9.6696 C   0  0  0  0  0  0  0  0  0  0  0  0
   19.9209   63.4491  -10.8563 C   0  0  0  0  0  0  0  0  0  0  0  0
   19.2507   63.7988  -12.0108 C   0  0  0  0  0  0  0  0  0  0  0  0
   17.8823   63.9226  -11.9225 C   0  0  0  0  0  0  0  0  0  0  0  0
   21.3208   63.3394  -11.0176 N   0  0  0  0  0  0  0  0  0  0  0  0
   21.8615   63.1171  -12.2214 N   0  0  0  0  0  0  0  0  0  0  0  0
   23.1522   63.0696  -12.0315 N   0  0  0  0  0  0  0  0  0  0  0  0
   23.4387   63.2546  -10.7529 N   0  0  0  0  0  0  0  0  0  0  0  0
   22.2587   63.4301  -10.0905 C   0  0  0  0  0  0  0  0  0  0  0  0
   22.2140   63.6681   -8.6061 C   0  0  0  0  0  0  0  0  0  0  0  0
   21.1324   62.9019   -7.9923 N   0  0  0  0  0  0  0  0  0  0  0  0
   19.7563   62.8603   -8.3514 C   0  0  0  0  0  0  0  0  0  0  0  0
   18.9266   62.4756   -7.4807 O   0  0  0  0  0  0  0  0  0  0  0  0
   21.8543   65.1183   -8.4279 C   0  0  0  0  0  0  0  0  0  0  0  0
   22.2608   65.5754   -7.0652 C   0  0  0  0  0  0  0  0  0  0  0  0
   23.6247   65.4713   -6.9918 O   0  0  0  0  0  0  0  0  0  0  0  0
   24.1244   64.1980   -7.0405 C   0  0  0  0  0  0  0  0  0  0  0  0
   23.5135   63.2753   -8.0050 C   0  0  0  0  0  0  0  0  0  0  0  0
   21.9205   67.0628   -6.9081 C   0  0  0  0  0  0  0  0  0  0  0  0
   21.5424   64.8599   -5.9528 C   0  0  0  0  0  0  0  0  0  0  0  0
   21.3880   62.2856   -7.1624 H   0  0  0  0  0  0  0  0  0  0  0  0
  1  2  1  0  0  0
  2  3  2  0  0  0
  2  7  1  0  0  0
  3  4  1  0  0  0
  4  5  2  0  0  0
  4 15  1  0  0  0
  5  6  1  0  0  0
  5  8  1  0  0  0
  6  7  2  0  0  0
  8  9  1  0  0  0
  8 12  1  0  0  0
  9 10  2  0  0  0
 10 11  1  0  0  0
 11 12  2  0  0  0
 12 13  1  0  0  0
 13 14  1  0  0  0
 13 17  1  0  0  0
 13 21  1  0  0  0
 14 15  1  0  0  0
 15 16  2  0  0  0
 17 18  1  0  0  0
 18 19  1  0  0  0
 18 22  1  0  0  0
 18 23  1  0  0  0
 19 20  1  0  0  0
 20 21  1  0  0  0
 14 24  1  0  0  0
M  END
> <minimizedAffinity>
-8.18868

$$$$
591


 23 26  0  0  0  0  0  0  0  0999 V2000
   11.0372   70.0832  -15.0130 Br  0  0  0  0  0  0  0  0  0  0  0  0
   11.2621   68.1919  -14.7699 C   0  0  0  0  0  0  0  0  0  0  0  0
   10.1658   67.3566  -14.7418 C   0  0  0  0  0  0  0  0  0  0  0  0
   10.3330   65.9985  -14.5675 C   0  0  0  0  0  0  0  0  0  0  0  0
   11.5743   65.4110  -14.4142 C   0  0  0  0  0  0  0  0  0  0  0  0
   12.6705   66.2696  -14.4441 C   0  0  0  0  0  0  0  0  0  0  0  0
   12.5113   67.6283  -14.6193 C   0  0  0  0  0  0  0  0  0  0  0  0
   11.9171   64.0573  -14.2280 N   0  0  0  0  0  0  0  0  0  0  0  0
   13.1150   63.6547  -13.8359 N   0  0  0  0  0  0  0  0  0  0  0  0
   13.0928   62.3330  -13.7655 N   0  0  0  0  0  0  0  0  0  0  0  0
   11.8981   61.9147  -14.1086 N   0  0  0  0  0  0  0  0  0  0  0  0
   11.1205   62.9841  -14.4104 C   0  0  0  0  0  0  0  0  0  0  0  0
    9.7296   62.8005  -14.8292 C   0  0  0  0  0  0  0  0  0  0  0  0
    8.8296   63.8628  -14.5402 N   0  0  0  0  0  0  0  0  0  0  0  0
    9.0680   65.2609  -14.5620 C   0  0  0  0  0  0  0  0  0  0  0  0
    8.0781   66.0406  -14.5804 O   0  0  0  0  0  0  0  0  0  0  0  0
    9.6260   62.5450  -16.3409 C   0  0  0  0  0  0  0  0  0  0  0  0
    8.4730   61.6074  -16.5949 C   0  0  0  0  0  0  0  0  0  0  0  0
    8.9147   60.2739  -16.2544 N   0  0  0  0  0  0  0  0  0  0  0  0
    9.5475   60.3043  -14.9624 C   0  0  0  0  0  0  0  0  0  0  0  0
    9.2026   61.5354  -14.1612 C   0  0  0  0  0  0  0  0  0  0  0  0
    9.8383   59.8339  -17.2990 C   0  0  0  0  0  0  0  0  0  0  0  0
    7.8657   63.5711  -14.2782 H   0  0  0  0  0  0  0  0  0  0  0  0
  1  2  1  0  0  0
  2  3  2  0  0  0
  2  7  1  0  0  0
  3  4  1  0  0  0
  4  5  2  0  0  0
  4 15  1  0  0  0
  5  6  1  0  0  0
  5  8  1  0  0  0
  6  7  2  0  0  0
  8  9  1  0  0  0
  8 12  1  0  0  0
  9 10  2  0  0  0
 10 11  1  0  0  0
 11 12  2  0  0  0
 12 13  1  0  0  0
 13 14  1  0  0  0
 13 17  1  0  0  0
 13 21  1  0  0  0
 14 15  1  0  0  0
 15 16  2  0  0  0
 17 18  1  0  0  0
 18 19  1  0  0  0
 19 20  1  0  0  0
 19 22  1  0  0  0
 20 21  1  0  0  0
 14 23  1  0  0  0
M  END
> <minimizedAffinity>
-4.99420

$$$$
592


 27 30  0  0  0  0  0  0  0  0999 V2000
   14.2841   62.4563  -11.2618 Br  0  0  0  0  0  0  0  0  0  0  0  0
   13.6314   63.5838  -12.6438 C   0  0  0  0  0  0  0  0  0  0  0  0
   12.5267   63.1945  -13.3492 C   0  0  0  0  0  0  0  0  0  0  0  0
   12.0472   64.0253  -14.3671 C   0  0  0  0  0  0  0  0  0  0  0  0
   12.6924   65.1901  -14.6208 C   0  0  0  0  0  0  0  0  0  0  0  0
   13.8317   65.5882  -13.8911 C   0  0  0  0  0  0  0  0  0  0  0  0
   14.3002   64.7691  -12.8926 C   0  0  0  0  0  0  0  0  0  0  0  0
   12.2573   66.0463  -15.6163 O   0  0  0  0  0  0  0  0  0  0  0  0
   11.1471   65.6919  -16.3519 C   0  0  0  0  0  0  0  0  0  0  0  0
   10.4720   64.5832  -16.1637 C   0  0  0  0  0  0  0  0  0  0  0  0
   10.8540   63.6204  -15.1396 C   0  0  0  0  0  0  0  0  0  0  0  0
   10.9934   62.2424  -15.6687 C   0  0  0  0  0  0  0  0  0  0  0  0
   10.0558   61.4491  -15.0680 C   0  0  0  0  0  0  0  0  0  0  0  0
   10.1867   60.1810  -15.5579 N   0  0  0  0  0  0  0  0  0  0  0  0
   11.1785   60.2174  -16.4298 N   0  0  0  0  0  0  0  0  0  0  0  0
   11.6975   61.4479  -16.5295 C   0  0  0  0  0  0  0  0  0  0  0  0
   12.8320   61.8122  -17.4314 C   0  0  0  0  0  0  0  0  0  0  0  0
    9.2727   62.1876  -14.1550 N   0  0  0  0  0  0  0  0  0  0  0  0
    9.7364   63.5130  -14.1769 C   0  0  0  0  0  0  0  0  0  0  0  0
    9.2988   64.4827  -13.5019 O   0  0  0  0  0  0  0  0  0  0  0  0
   10.7079   66.5916  -17.3826 N   0  0  0  0  0  0  0  0  0  0  0  0
   11.4824   59.3542  -16.9542 H   0  0  0  0  0  0  0  0  0  0  0  0
    8.4730   61.7851  -13.5619 H   0  0  0  0  0  0  0  0  0  0  0  0
   11.3928   67.2441  -17.8216 H   0  0  0  0  0  0  0  0  0  0  0  0
    9.7180   66.6203  -17.7153 H   0  0  0  0  0  0  0  0  0  0  0  0
    9.3175   64.2819  -16.9760 C   0  0  0  0  0  0  0  0  0  0  0  0
    8.3796   64.0438  -17.6121 N   0  0  0  0  0  0  0  0  0  0  0  0
  1  2  1  0  0  0
  2  3  2  0  0  0
  2  7  1  0  0  0
  3  4  1  0  0  0
  4  5  2  0  0  0
  4 11  1  0  0  0
  5  6  1  0  0  0
  5  8  1  0  0  0
  6  7  2  0  0  0
  8  9  1  0  0  0
  9 10  2  0  0  0
  9 21  1  0  0  0
 10 11  1  0  0  0
 10 26  1  0  0  0
 11 12  1  0  0  0
 11 19  1  0  0  0
 12 13  1  0  0  0
 12 16  2  0  0  0
 13 14  2  0  0  0
 13 18  1  0  0  0
 14 15  1  0  0  0
 15 16  1  0  0  0
 16 17  1  0  0  0
 18 19  1  0  0  0
 19 20  2  0  0  0
 26 27  3  0  0  0
 15 22  1  0  0  0
 18 23  1  0  0  0
 21 24  1  0  0  0
 21 25  1  0  0  0
M  END
> <minimizedAffinity>
-4.40404

$$$$
596


 29 32  0  0  0  0  0  0  0  0999 V2000
   17.7566   62.2116  -10.5817 C   0  0  0  0  0  0  0  0  0  0  0  0
   17.4077   60.8975  -10.3141 C   0  0  0  0  0  0  0  0  0  0  0  0
   16.1232   60.4556  -10.5506 C   0  0  0  0  0  0  0  0  0  0  0  0
   15.8790   59.2380  -10.2777 O   0  0  0  0  0  0  0  0  0  0  0  0
   15.2221   61.2578  -11.0285 O   0  0  0  0  0  0  0  0  0  0  0  0
   15.4785   62.4798  -11.2979 C   0  0  0  0  0  0  0  0  0  0  0  0
   16.7638   63.0146  -11.0863 C   0  0  0  0  0  0  0  0  0  0  0  0
   17.0112   64.3204  -11.3950 C   0  0  0  0  0  0  0  0  0  0  0  0
   15.9568   65.0816  -11.9112 C   0  0  0  0  0  0  0  0  0  0  0  0
   14.7064   64.5284  -12.1032 C   0  0  0  0  0  0  0  0  0  0  0  0
   14.4228   63.2144  -11.8054 C   0  0  0  0  0  0  0  0  0  0  0  0
   13.7121   65.3846  -12.6242 O   0  0  0  0  0  0  0  0  0  0  0  0
   22.9581   64.8042   -5.4517 Br  0  0  0  0  0  0  0  0  0  0  0  0
   22.4326   64.3009   -7.2010 C   0  0  0  0  0  0  0  0  0  0  0  0
   21.1494   63.8619   -7.4720 C   0  0  0  0  0  0  0  0  0  0  0  0
   20.7187   63.4957   -8.7340 C   0  0  0  0  0  0  0  0  0  0  0  0
   21.6276   63.5788   -9.7691 C   0  0  0  0  0  0  0  0  0  0  0  0
   22.9285   64.0111   -9.5586 C   0  0  0  0  0  0  0  0  0  0  0  0
   23.3169   64.3646   -8.2875 C   0  0  0  0  0  0  0  0  0  0  0  0
   21.2382   63.2310  -10.9972 O   0  0  0  0  0  0  0  0  0  0  0  0
   20.0507   62.8188  -11.2699 C   0  0  0  0  0  0  0  0  0  0  0  0
   19.6715   62.4880  -12.4363 O   0  0  0  0  0  0  0  0  0  0  0  0
   19.0967   62.7123  -10.2803 C   0  0  0  0  0  0  0  0  0  0  0  0
   19.4446   63.0571   -8.9939 C   0  0  0  0  0  0  0  0  0  0  0  0
   13.0723   62.7386  -11.9387 C   0  0  0  0  0  0  0  0  0  0  0  0
   12.4185   62.5517  -13.1690 N   0  0  0  0  0  0  0  0  0  0  0  0
   11.6687   63.6570  -13.6987 C   0  0  0  0  0  0  0  0  0  0  0  0
   13.2989   61.9203  -14.1853 C   0  0  0  0  0  0  0  0  0  0  0  0
   11.6766   61.8092  -13.0133 H   0  0  0  0  0  0  0  0  0  0  0  0
 13 14  1  0  0  0
 14 15  2  0  0  0
 14 19  1  0  0  0
 15 16  1  0  0  0
 16 17  2  0  0  0
 16 24  1  0  0  0
 17 18  1  0  0  0
 17 20  1  0  0  0
 18 19  2  0  0  0
 20 21  1  0  0  0
 21 22  2  0  0  0
 21 23  1  0  0  0
 23 24  2  0  0  0
 23  1  1  0  0  0
  1  2  2  0  0  0
  1  7  1  0  0  0
  2  3  1  0  0  0
  3  4  2  0  0  0
  3  5  1  0  0  0
  5  6  1  0  0  0
  6  7  2  0  0  0
  6 11  1  0  0  0
  7  8  1  0  0  0
  8  9  2  0  0  0
  9 10  1  0  0  0
 10 11  2  0  0  0
 10 12  1  0  0  0
 11 25  1  0  0  0
 25 26  1  0  0  0
 26 27  1  0  0  0
 26 28  1  0  0  0
 26 29  1  0  0  0
M  CHG 1  12  -1
M  CHG 1  26   1
M  END
> <minimizedAffinity>
-7.18146

$$$$
610


 32 35  0  0  0  0  0  0  0  0999 V2000
   14.4497   60.9064  -10.6899 Br  0  0  0  0  0  0  0  0  0  0  0  0
   14.2825   62.5249  -11.6868 C   0  0  0  0  0  0  0  0  0  0  0  0
   13.5135   62.5691  -12.8463 C   0  0  0  0  0  0  0  0  0  0  0  0
   13.3906   63.7462  -13.5718 C   0  0  0  0  0  0  0  0  0  0  0  0
   14.0343   64.8881  -13.1460 C   0  0  0  0  0  0  0  0  0  0  0  0
   13.9120   66.0407  -13.8517 N   0  0  0  0  0  0  0  0  0  0  0  0
   13.1718   66.1100  -14.9725 C   0  0  0  0  0  0  0  0  0  0  0  0
   12.5541   64.9914  -15.3707 N   0  0  0  0  0  0  0  0  0  0  0  0
   12.6315   63.8151  -14.7217 C   0  0  0  0  0  0  0  0  0  0  0  0
   14.7963   64.8185  -11.9869 C   0  0  0  0  0  0  0  0  0  0  0  0
   14.9314   63.6611  -11.2516 C   0  0  0  0  0  0  0  0  0  0  0  0
   13.0641   67.3460  -15.6899 N   0  0  0  0  0  0  0  0  0  0  0  0
   12.3172   68.3007  -14.9169 C   0  0  0  0  0  0  0  0  0  0  0  0
   10.8466   68.0568  -14.8892 C   0  0  0  0  0  0  0  0  0  0  0  0
   10.4237   67.1014  -15.8890 N   0  0  0  0  0  0  0  0  0  0  0  0
   11.0970   67.1575  -17.1680 C   0  0  0  0  0  0  0  0  0  0  0  0
   12.5876   67.1833  -17.0288 C   0  0  0  0  0  0  0  0  0  0  0  0
    9.3949   66.1854  -15.5626 C   0  0  0  0  0  0  0  0  0  0  0  0
    8.8588   66.1965  -14.4328 O   0  0  0  0  0  0  0  0  0  0  0  0
   14.0599   67.7192  -15.7201 H   0  0  0  0  0  0  0  0  0  0  0  0
    8.9961   65.2232  -16.6305 C   0  0  0  0  0  0  0  0  0  0  0  0
    7.6228   64.6727  -16.3903 C   0  0  0  0  0  0  0  0  0  0  0  0
    7.6308   63.3170  -15.8200 C   0  0  0  0  0  0  0  0  0  0  0  0
    7.6251   62.3023  -16.5475 O   0  0  0  0  0  0  0  0  0  0  0  0
    7.6463   63.1600  -14.4493 O   0  0  0  0  0  0  0  0  0  0  0  0
   11.9199   62.6573  -15.2387 C   0  0  0  0  0  0  0  0  0  0  0  0
   12.2776   62.1005  -16.4588 C   0  0  0  0  0  0  0  0  0  0  0  0
   11.6355   60.9952  -16.9748 C   0  0  0  0  0  0  0  0  0  0  0  0
   10.6010   60.3905  -16.2911 C   0  0  0  0  0  0  0  0  0  0  0  0
   10.2443   60.9490  -15.0698 C   0  0  0  0  0  0  0  0  0  0  0  0
   10.8910   62.0541  -14.5618 C   0  0  0  0  0  0  0  0  0  0  0  0
   13.5978   62.8532  -17.3570 Cl  0  0  0  0  0  0  0  0  0  0  0  0
  1  2  1  0  0  0
  2  3  2  0  0  0
  2 11  1  0  0  0
  3  4  1  0  0  0
  4  5  2  0  0  0
  4  9  1  0  0  0
  5  6  1  0  0  0
  5 10  1  0  0  0
  6  7  2  0  0  0
  7  8  1  0  0  0
  7 12  1  0  0  0
  8  9  2  0  0  0
  9 26  1  0  0  0
 26 27  2  0  0  0
 26 31  1  0  0  0
 27 28  1  0  0  0
 27 32  1  0  0  0
 28 29  2  0  0  0
 29 30  1  0  0  0
 30 31  2  0  0  0
 12 13  1  0  0  0
 12 17  1  0  0  0
 13 14  1  0  0  0
 14 15  1  0  0  0
 15 16  1  0  0  0
 15 18  1  0  0  0
 16 17  1  0  0  0
 18 19  2  0  0  0
 18 21  1  0  0  0
 21 22  1  0  0  0
 22 23  1  0  0  0
 23 24  2  0  0  0
 23 25  1  0  0  0
 10 11  2  0  0  0
 12 20  1  0  0  0
M  CHG 1  12   1
M  END
> <minimizedAffinity>
-4.49011

$$$$
611


 33 36  0  0  0  0  0  0  0  0999 V2000
   25.8634   63.5554  -12.6913 Br  0  0  0  0  0  0  0  0  0  0  0  0
   23.9708   63.3703  -12.4942 C   0  0  0  0  0  0  0  0  0  0  0  0
   23.3456   63.4893  -11.2657 C   0  0  0  0  0  0  0  0  0  0  0  0
   21.9849   63.3611  -11.0909 C   0  0  0  0  0  0  0  0  0  0  0  0
   21.1762   63.1001  -12.1817 C   0  0  0  0  0  0  0  0  0  0  0  0
   19.8356   62.9624  -12.0305 N   0  0  0  0  0  0  0  0  0  0  0  0
   19.2303   63.0711  -10.8358 C   0  0  0  0  0  0  0  0  0  0  0  0
   20.0155   63.3263   -9.7738 N   0  0  0  0  0  0  0  0  0  0  0  0
   21.3580   63.4721   -9.8713 C   0  0  0  0  0  0  0  0  0  0  0  0
   21.7894   62.9809  -13.4093 C   0  0  0  0  0  0  0  0  0  0  0  0
   23.1625   63.1106  -13.5793 C   0  0  0  0  0  0  0  0  0  0  0  0
   17.8202   62.9211  -10.7152 N   0  0  0  0  0  0  0  0  0  0  0  0
   17.2831   63.8380   -9.7345 C   0  0  0  0  0  0  0  0  0  0  0  0
   15.8105   63.9687   -9.9627 C   0  0  0  0  0  0  0  0  0  0  0  0
   15.3765   62.8841  -10.8195 N   0  0  0  0  0  0  0  0  0  0  0  0
   15.8838   61.5571  -10.5199 C   0  0  0  0  0  0  0  0  0  0  0  0
   17.4069   61.5924  -10.3452 C   0  0  0  0  0  0  0  0  0  0  0  0
   14.5003   63.1626  -11.8815 C   0  0  0  0  0  0  0  0  0  0  0  0
   14.1418   62.2064  -12.6126 O   0  0  0  0  0  0  0  0  0  0  0  0
   17.4088   63.1332  -11.6481 H   0  0  0  0  0  0  0  0  0  0  0  0
   14.0021   64.5116  -12.1579 C   0  0  0  0  0  0  0  0  0  0  0  0
   13.0089   64.4687  -13.2832 C   0  0  0  0  0  0  0  0  0  0  0  0
   13.0761   65.6953  -14.1659 C   0  0  0  0  0  0  0  0  0  0  0  0
   13.9772   65.5278  -15.3233 C   0  0  0  0  0  0  0  0  0  0  0  0
   14.8027   66.4438  -15.5491 O   0  0  0  0  0  0  0  0  0  0  0  0
   13.8915   64.3907  -16.1125 O   0  0  0  0  0  0  0  0  0  0  0  0
   22.1603   63.7451   -8.6886 C   0  0  0  0  0  0  0  0  0  0  0  0
   22.0015   64.9064   -7.9481 C   0  0  0  0  0  0  0  0  0  0  0  0
   22.7714   65.1865   -6.8333 C   0  0  0  0  0  0  0  0  0  0  0  0
   23.7378   64.2438   -6.4629 C   0  0  0  0  0  0  0  0  0  0  0  0
   23.9217   63.0786   -7.1776 C   0  0  0  0  0  0  0  0  0  0  0  0
   23.1431   62.8460   -8.2662 C   0  0  0  0  0  0  0  0  0  0  0  0
   20.7817   66.0724   -8.4352 Cl  0  0  0  0  0  0  0  0  0  0  0  0
  1  2  1  0  0  0
  2  3  2  0  0  0
  2 11  1  0  0  0
  3  4  1  0  0  0
  4  5  2  0  0  0
  4  9  1  0  0  0
  5  6  1  0  0  0
  5 10  1  0  0  0
  6  7  2  0  0  0
  7  8  1  0  0  0
  7 12  1  0  0  0
  8  9  2  0  0  0
  9 27  1  0  0  0
 27 28  2  0  0  0
 27 32  1  0  0  0
 28 29  1  0  0  0
 28 33  1  0  0  0
 29 30  2  0  0  0
 30 31  1  0  0  0
 31 32  2  0  0  0
 12 13  1  0  0  0
 12 17  1  0  0  0
 13 14  1  0  0  0
 14 15  1  0  0  0
 15 16  1  0  0  0
 15 18  1  0  0  0
 16 17  1  0  0  0
 18 19  2  0  0  0
 18 21  1  0  0  0
 21 22  1  0  0  0
 22 23  1  0  0  0
 23 24  1  0  0  0
 24 25  2  0  0  0
 24 26  1  0  0  0
 10 11  2  0  0  0
 12 20  1  0  0  0
M  CHG 1  12   1
M  END
> <minimizedAffinity>
-7.93949

$$$$
616


 28 31  0  0  0  0  0  0  0  0999 V2000
   21.1875   63.1656  -10.3639 C   0  0  0  0  0  0  0  0  0  0  0  0
   21.9885   62.7026  -11.2626 O   0  0  0  0  0  0  0  0  0  0  0  0
   21.7846   63.9149   -9.3498 N   0  0  0  0  0  0  0  0  0  0  0  0
   21.1172   64.5228   -8.2305 C   0  0  0  0  0  0  0  0  0  0  0  0
   22.0992   65.2215   -7.2809 C   0  0  0  0  0  0  0  0  0  0  0  0
   23.2003   64.3121   -7.0034 N   0  0  0  0  0  0  0  0  0  0  0  0
   23.7994   63.5411   -8.0938 C   0  0  0  0  0  0  0  0  0  0  0  0
   23.2530   64.1488   -9.3887 C   0  0  0  0  0  0  0  0  0  0  0  0
   23.7055   64.1529   -5.6944 C   0  0  0  0  0  0  0  0  0  0  0  0
   23.1626   64.8254   -4.7853 O   0  0  0  0  0  0  0  0  0  0  0  0
   13.4171   63.5491  -11.5286 Br  0  0  0  0  0  0  0  0  0  0  0  0
   15.1833   62.9116  -11.1357 C   0  0  0  0  0  0  0  0  0  0  0  0
   16.2761   63.7388  -11.1693 C   0  0  0  0  0  0  0  0  0  0  0  0
   17.5598   63.2663  -10.8823 C   0  0  0  0  0  0  0  0  0  0  0  0
   17.7424   61.9499  -10.5590 C   0  0  0  0  0  0  0  0  0  0  0  0
   19.0757   61.7442  -10.3261 N   0  0  0  0  0  0  0  0  0  0  0  0
   19.7729   62.8722  -10.4847 C   0  0  0  0  0  0  0  0  0  0  0  0
   18.7989   63.8395  -10.8391 C   0  0  0  0  0  0  0  0  0  0  0  0
   16.6458   61.1094  -10.5224 C   0  0  0  0  0  0  0  0  0  0  0  0
   15.3751   61.5873  -10.8092 C   0  0  0  0  0  0  0  0  0  0  0  0
   19.4284   60.8129  -10.0613 H   0  0  0  0  0  0  0  0  0  0  0  0
   24.8082   63.2339   -5.4608 C   0  0  0  0  0  0  0  0  0  0  0  0
   24.5592   62.2209   -4.4594 N   0  0  0  0  0  0  0  0  0  0  0  0
   23.6349   62.7588   -3.4587 C   0  0  0  0  0  0  0  0  0  0  0  0
   24.3708   63.2769   -2.2720 C   0  0  0  0  0  0  0  0  0  0  0  0
   25.5803   63.8521   -2.6542 O   0  0  0  0  0  0  0  0  0  0  0  0
   26.4845   62.8834   -3.0960 C   0  0  0  0  0  0  0  0  0  0  0  0
   25.7727   61.7573   -3.8099 C   0  0  0  0  0  0  0  0  0  0  0  0
 11 12  1  0  0  0
 12 13  2  0  0  0
 12 20  1  0  0  0
 13 14  1  0  0  0
 14 15  2  0  0  0
 14 18  1  0  0  0
 15 16  1  0  0  0
 15 19  1  0  0  0
 16 17  1  0  0  0
 17 18  2  0  0  0
 17  1  1  0  0  0
  1  2  2  0  0  0
  1  3  1  0  0  0
  3  4  1  0  0  0
  3  8  1  0  0  0
  4  5  1  0  0  0
  5  6  1  0  0  0
  6  7  1  0  0  0
  6  9  1  0  0  0
  7  8  1  0  0  0
  9 10  2  0  0  0
  9 22  1  0  0  0
 22 23  1  0  0  0
 23 24  1  0  0  0
 23 28  1  0  0  0
 24 25  1  0  0  0
 25 26  1  0  0  0
 26 27  1  0  0  0
 27 28  1  0  0  0
 19 20  2  0  0  0
 16 21  1  0  0  0
M  END
> <minimizedAffinity>
-9.66741

$$$$
617


 25 28  0  0  0  0  0  0  0  0999 V2000
   15.0770   64.1220  -11.1649 Br  0  0  0  0  0  0  0  0  0  0  0  0
   16.7123   63.3203  -10.6164 C   0  0  0  0  0  0  0  0  0  0  0  0
   17.7138   64.0623  -10.0252 C   0  0  0  0  0  0  0  0  0  0  0  0
   18.9059   63.4959   -9.6218 C   0  0  0  0  0  0  0  0  0  0  0  0
   19.0837   62.1406   -9.8256 C   0  0  0  0  0  0  0  0  0  0  0  0
   20.3101   61.8630   -9.3479 N   0  0  0  0  0  0  0  0  0  0  0  0
   20.9053   62.9780   -8.8555 C   0  0  0  0  0  0  0  0  0  0  0  0
   20.0266   64.0273   -9.0209 C   0  0  0  0  0  0  0  0  0  0  0  0
   20.4033   65.2515   -8.6022 N   0  0  0  0  0  0  0  0  0  0  0  0
   21.6027   65.4737   -8.0316 C   0  0  0  0  0  0  0  0  0  0  0  0
   22.4762   64.4731   -7.8576 N   0  0  0  0  0  0  0  0  0  0  0  0
   22.1210   63.2467   -8.2682 C   0  0  0  0  0  0  0  0  0  0  0  0
   22.9277   62.2959   -8.1135 O   0  0  0  0  0  0  0  0  0  0  0  0
   18.0725   61.4087  -10.4198 C   0  0  0  0  0  0  0  0  0  0  0  0
   16.8774   61.9667  -10.8270 C   0  0  0  0  0  0  0  0  0  0  0  0
   20.7638   60.9307   -9.3441 H   0  0  0  0  0  0  0  0  0  0  0  0
   23.7907   64.7097   -7.2362 C   0  0  0  0  0  0  0  0  0  0  0  0
   23.6842   64.6486   -5.7612 C   0  0  0  0  0  0  0  0  0  0  0  0
   24.1079   63.4477   -5.1382 N   0  0  0  0  0  0  0  0  0  0  0  0
   23.8922   63.3779   -3.7346 C   0  0  0  0  0  0  0  0  0  0  0  0
   25.0986   63.7536   -2.9226 C   0  0  0  0  0  0  0  0  0  0  0  0
   26.3353   63.3002   -3.5221 N   0  0  0  0  0  0  0  0  0  0  0  0
   26.0910   62.2693   -4.5169 C   0  0  0  0  0  0  0  0  0  0  0  0
   25.3309   62.9314   -5.6399 C   0  0  0  0  0  0  0  0  0  0  0  0
   26.8910   64.0868   -3.9288 H   0  0  0  0  0  0  0  0  0  0  0  0
  1  2  1  0  0  0
  2  3  2  0  0  0
  2 15  1  0  0  0
  3  4  1  0  0  0
  4  5  2  0  0  0
  4  8  1  0  0  0
  5  6  1  0  0  0
  5 14  1  0  0  0
  6  7  1  0  0  0
  7  8  2  0  0  0
  7 12  1  0  0  0
  8  9  1  0  0  0
  9 10  2  0  0  0
 10 11  1  0  0  0
 11 12  1  0  0  0
 11 17  1  0  0  0
 12 13  2  0  0  0
 17 18  1  0  0  0
 18 19  1  0  0  0
 19 20  1  0  0  0
 19 24  1  0  0  0
 20 21  1  0  0  0
 21 22  1  0  0  0
 22 23  1  0  0  0
 23 24  1  0  0  0
 14 15  2  0  0  0
  6 16  1  0  0  0
 22 25  1  0  0  0
M  END
> <minimizedAffinity>
-8.54617

$$$$
624


 22 25  0  0  0  0  0  0  0  0999 V2000
   22.9013   64.7991   -6.2871 Br  0  0  0  0  0  0  0  0  0  0  0  0
   22.1056   64.1645   -7.8968 C   0  0  0  0  0  0  0  0  0  0  0  0
   22.8516   64.1707   -9.0567 C   0  0  0  0  0  0  0  0  0  0  0  0
   22.2948   63.7107  -10.2568 C   0  0  0  0  0  0  0  0  0  0  0  0
   21.0131   63.2637  -10.2393 C   0  0  0  0  0  0  0  0  0  0  0  0
   20.2293   63.2382   -9.1066 C   0  0  0  0  0  0  0  0  0  0  0  0
   20.7956   63.6939   -7.9444 C   0  0  0  0  0  0  0  0  0  0  0  0
   18.9515   62.7620   -9.2319 C   0  0  0  0  0  0  0  0  0  0  0  0
   18.2344   62.7328   -8.2183 O   0  0  0  0  0  0  0  0  0  0  0  0
   18.4340   62.3139  -10.4381 C   0  0  0  0  0  0  0  0  0  0  0  0
   19.2698   62.3661  -11.5328 C   0  0  0  0  0  0  0  0  0  0  0  0
   20.5511   62.8422  -11.4177 N   0  0  0  0  0  0  0  0  0  0  0  0
   21.6176   63.0046  -12.3803 C   0  0  0  0  0  0  0  0  0  0  0  0
   22.7918   63.5817  -11.6374 C   0  0  0  0  0  0  0  0  0  0  0  0
   17.0704   61.8082  -10.5543 C   0  0  0  0  0  0  0  0  0  0  0  0
   16.8776   60.5710  -10.5732 O   0  0  0  0  0  0  0  0  0  0  0  0
   15.9585   62.7096  -10.6467 N   0  0  0  0  0  0  0  0  0  0  0  0
   14.5965   62.2345  -10.7634 C   0  0  0  0  0  0  0  0  0  0  0  0
   14.0137   62.9188  -12.0065 C   0  0  0  0  0  0  0  0  0  0  0  0
   14.1900   64.2775  -11.9023 O   0  0  0  0  0  0  0  0  0  0  0  0
   15.5093   64.6789  -11.9082 C   0  0  0  0  0  0  0  0  0  0  0  0
   16.1570   64.1452  -10.6276 C   0  0  0  0  0  0  0  0  0  0  0  0
  1  2  1  0  0  0
  2  3  2  0  0  0
  2  7  1  0  0  0
  3  4  1  0  0  0
  4  5  2  0  0  0
  4 14  1  0  0  0
  5  6  1  0  0  0
  5 12  1  0  0  0
  6  7  2  0  0  0
  6  8  1  0  0  0
  8  9  2  0  0  0
  8 10  1  0  0  0
 10 11  2  0  0  0
 10 15  1  0  0  0
 11 12  1  0  0  0
 12 13  1  0  0  0
 13 14  1  0  0  0
 15 16  2  0  0  0
 15 17  1  0  0  0
 17 18  1  0  0  0
 17 22  1  0  0  0
 18 19  1  0  0  0
 19 20  1  0  0  0
 20 21  1  0  0  0
 21 22  1  0  0  0
M  END
> <minimizedAffinity>
-8.38473

$$$$
625


 31 34  0  0  0  0  0  0  0  0999 V2000
   24.9346   63.3898   -2.6260 Br  0  0  0  0  0  0  0  0  0  0  0  0
   24.6348   63.2756   -4.4830 C   0  0  0  0  0  0  0  0  0  0  0  0
   23.6307   64.0069   -5.0963 C   0  0  0  0  0  0  0  0  0  0  0  0
   23.3822   63.9293   -6.4359 C   0  0  0  0  0  0  0  0  0  0  0  0
   22.4867   64.6102   -7.2125 N   0  0  0  0  0  0  0  0  0  0  0  0
   22.6927   64.2276   -8.4848 C   0  0  0  0  0  0  0  0  0  0  0  0
   23.7274   63.2540   -8.5158 C   0  0  0  0  0  0  0  0  0  0  0  0
   24.1282   63.1139   -7.2118 C   0  0  0  0  0  0  0  0  0  0  0  0
   25.1488   62.3671   -6.6175 C   0  0  0  0  0  0  0  0  0  0  0  0
   25.4143   62.4376   -5.2577 C   0  0  0  0  0  0  0  0  0  0  0  0
   26.4396   61.7063   -4.6315 O   0  0  0  0  0  0  0  0  0  0  0  0
   26.5844   61.8171   -3.6175 H   0  0  0  0  0  0  0  0  0  0  0  0
   24.1553   62.4239   -9.6496 C   0  0  0  0  0  0  0  0  0  0  0  0
   24.7379   61.3387   -9.3824 O   0  0  0  0  0  0  0  0  0  0  0  0
   23.9662   62.7165  -10.9590 O   0  0  0  0  0  0  0  0  0  0  0  0
   24.7412   63.4052  -11.8731 C   0  0  0  0  0  0  0  0  0  0  0  0
   24.1533   63.4767  -13.2769 C   0  0  0  0  0  0  0  0  0  0  0  0
   21.3469   65.3289   -6.6104 C   0  0  0  0  0  0  0  0  0  0  0  0
   21.7625   66.8178   -6.6109 C   0  0  0  0  0  0  0  0  0  0  0  0
   23.0447   67.0672   -6.2161 C   0  0  0  0  0  0  0  0  0  0  0  0
   23.4982   68.3968   -6.2026 C   0  0  0  0  0  0  0  0  0  0  0  0
   22.7135   69.4474   -6.5738 C   0  0  0  0  0  0  0  0  0  0  0  0
   21.4123   69.1412   -6.9736 C   0  0  0  0  0  0  0  0  0  0  0  0
   20.9458   67.8208   -6.9869 C   0  0  0  0  0  0  0  0  0  0  0  0
   22.0746   64.7164   -9.7171 C   0  0  0  0  0  0  0  0  0  0  0  0
   20.8159   64.1732  -10.1234 N   0  0  0  0  0  0  0  0  0  0  0  0
   19.8483   63.5517   -9.4063 C   0  0  0  0  0  0  0  0  0  0  0  0
   19.1917   62.4904  -10.3221 C   0  0  0  0  0  0  0  0  0  0  0  0
   19.4717   63.1103  -11.6890 C   0  0  0  0  0  0  0  0  0  0  0  0
   20.9117   63.5440  -11.4516 C   0  0  0  0  0  0  0  0  0  0  0  0
   20.3155   65.1733  -10.4996 H   0  0  0  0  0  0  0  0  0  0  0  0
  1  2  1  0  0  0
  2  3  2  0  0  0
  2 10  1  0  0  0
  3  4  1  0  0  0
  4  5  1  0  0  0
  4  8  2  0  0  0
  5  6  1  0  0  0
  5 18  1  0  0  0
  6  7  2  0  0  0
  6 25  1  0  0  0
  7  8  1  0  0  0
  7 13  1  0  0  0
  8  9  1  0  0  0
  9 10  2  0  0  0
 10 11  1  0  0  0
 13 14  2  0  0  0
 13 15  1  0  0  0
 15 16  1  0  0  0
 16 17  1  0  0  0
 25 26  1  0  0  0
 26 27  1  0  0  0
 26 30  1  0  0  0
 27 28  1  0  0  0
 28 29  1  0  0  0
 29 30  1  0  0  0
 18 19  1  0  0  0
 19 20  2  0  0  0
 19 24  1  0  0  0
 20 21  1  0  0  0
 21 22  2  0  0  0
 22 23  1  0  0  0
 23 24  2  0  0  0
 11 12  1  0  0  0
 26 31  1  0  0  0
M  CHG 1  26   1
M  END
> <minimizedAffinity>
-5.44746

$$$$
626


 32 35  0  0  0  0  0  0  0  0999 V2000
   19.1522   63.5917  -10.5573 N   0  0  0  0  0  0  0  0  0  0  0  0
   20.2634   63.2390  -11.3340 C   0  0  0  0  0  0  0  0  0  0  0  0
   20.1037   62.6926  -12.4552 O   0  0  0  0  0  0  0  0  0  0  0  0
   19.3875   64.0657   -9.6323 H   0  0  0  0  0  0  0  0  0  0  0  0
   18.2567   60.8692   -9.6894 Br  0  0  0  0  0  0  0  0  0  0  0  0
   17.1771   62.2081  -10.5387 C   0  0  0  0  0  0  0  0  0  0  0  0
   15.8524   61.9324  -10.7901 C   0  0  0  0  0  0  0  0  0  0  0  0
   15.0510   62.8630  -11.4048 C   0  0  0  0  0  0  0  0  0  0  0  0
   13.7618   62.9268  -11.7880 N   0  0  0  0  0  0  0  0  0  0  0  0
   13.5006   64.1170  -12.3604 C   0  0  0  0  0  0  0  0  0  0  0  0
   14.6641   64.7897  -12.3211 N   0  0  0  0  0  0  0  0  0  0  0  0
   15.6336   64.0514  -11.7428 C   0  0  0  0  0  0  0  0  0  0  0  0
   16.9826   64.3374  -11.4883 C   0  0  0  0  0  0  0  0  0  0  0  0
   17.7880   63.4067  -10.8722 C   0  0  0  0  0  0  0  0  0  0  0  0
   12.2653   64.5484  -12.8826 O   0  0  0  0  0  0  0  0  0  0  0  0
   14.8126   65.7693  -12.6919 H   0  0  0  0  0  0  0  0  0  0  0  0
   11.6727   65.0717  -12.2245 H   0  0  0  0  0  0  0  0  0  0  0  0
   21.6536   63.4678  -10.9255 C   0  0  0  0  0  0  0  0  0  0  0  0
   21.8977   63.8993   -9.6073 N   0  0  0  0  0  0  0  0  0  0  0  0
   21.1979   63.2630   -8.5509 C   0  0  0  0  0  0  0  0  0  0  0  0
   21.1902   64.1042   -7.2741 C   0  0  0  0  0  0  0  0  0  0  0  0
   22.5167   64.4209   -6.9563 N   0  0  0  0  0  0  0  0  0  0  0  0
   23.5356   64.0750   -7.8684 C   0  0  0  0  0  0  0  0  0  0  0  0
   23.2368   64.2897   -9.3217 C   0  0  0  0  0  0  0  0  0  0  0  0
   22.7140   65.4454   -6.0340 C   0  0  0  0  0  0  0  0  0  0  0  0
   22.5510   66.8306   -6.4766 C   0  0  0  0  0  0  0  0  0  0  0  0
   21.4290   67.0902   -7.0624 O   0  0  0  0  0  0  0  0  0  0  0  0
   23.4460   67.8862   -6.3427 N   0  0  0  0  0  0  0  0  0  0  0  0
   24.3623   67.7432   -5.8715 H   0  0  0  0  0  0  0  0  0  0  0  0
   23.1714   69.2359   -6.8268 C   0  0  0  0  0  0  0  0  0  0  0  0
   23.0172   70.3589   -5.8885 C   0  0  0  0  0  0  0  0  0  0  0  0
   24.2822   70.2586   -6.7200 C   0  0  0  0  0  0  0  0  0  0  0  0
  5  6  1  0  0  0
  6  7  2  0  0  0
  6 14  1  0  0  0
  7  8  1  0  0  0
  8  9  1  0  0  0
  8 12  2  0  0  0
  9 10  2  0  0  0
 10 11  1  0  0  0
 10 15  1  0  0  0
 11 12  1  0  0  0
 12 13  1  0  0  0
 13 14  2  0  0  0
 14  1  1  0  0  0
  1  2  1  0  0  0
  2  3  2  0  0  0
  2 18  1  0  0  0
 18 19  1  0  0  0
 19 20  1  0  0  0
 19 24  1  0  0  0
 20 21  1  0  0  0
 21 22  1  0  0  0
 22 23  1  0  0  0
 22 25  1  0  0  0
 23 24  1  0  0  0
 25 26  1  0  0  0
 26 27  2  0  0  0
 26 28  1  0  0  0
 28 30  1  0  0  0
 30 31  1  0  0  0
 30 32  1  0  0  0
 31 32  1  0  0  0
 11 16  1  0  0  0
  1  4  1  0  0  0
 28 29  1  0  0  0
 15 17  1  0  0  0
M  END
> <minimizedAffinity>
-8.61559

$$$$
631


 29 32  0  0  0  0  0  0  0  0999 V2000
   20.5196   62.9980   -9.4078 N   0  0  0  0  0  0  0  0  0  0  0  0
   20.7080   63.5499   -8.0481 C   0  0  0  0  0  0  0  0  0  0  0  0
   21.1817   64.9688   -8.3194 C   0  0  0  0  0  0  0  0  0  0  0  0
   21.9740   64.8177   -9.6006 C   0  0  0  0  0  0  0  0  0  0  0  0
   21.5742   63.5234  -10.2106 C   0  0  0  0  0  0  0  0  0  0  0  0
   22.0528   62.9867  -11.2188 O   0  0  0  0  0  0  0  0  0  0  0  0
   13.7557   63.1716  -11.4632 Br  0  0  0  0  0  0  0  0  0  0  0  0
   15.5659   62.8816  -10.9085 C   0  0  0  0  0  0  0  0  0  0  0  0
   16.0601   61.5921  -10.7230 C   0  0  0  0  0  0  0  0  0  0  0  0
   17.3703   61.4662  -10.3228 C   0  0  0  0  0  0  0  0  0  0  0  0
   18.1453   60.4000  -10.0567 N   0  0  0  0  0  0  0  0  0  0  0  0
   19.3599   60.8081   -9.7001 N   0  0  0  0  0  0  0  0  0  0  0  0
   19.4428   62.1462   -9.7148 C   0  0  0  0  0  0  0  0  0  0  0  0
   18.1591   62.5648  -10.1163 C   0  0  0  0  0  0  0  0  0  0  0  0
   17.6848   63.8337  -10.2961 C   0  0  0  0  0  0  0  0  0  0  0  0
   16.3798   63.9852  -10.6942 C   0  0  0  0  0  0  0  0  0  0  0  0
   20.1202   60.1465   -9.4495 H   0  0  0  0  0  0  0  0  0  0  0  0
   21.9848   65.3457   -7.1452 C   0  0  0  0  0  0  0  0  0  0  0  0
   22.0934   66.5423   -6.7899 O   0  0  0  0  0  0  0  0  0  0  0  0
   22.6362   64.3116   -6.4198 N   0  0  0  0  0  0  0  0  0  0  0  0
   22.5258   63.3346   -6.7545 H   0  0  0  0  0  0  0  0  0  0  0  0
   23.4379   64.5931   -5.2493 C   0  0  0  0  0  0  0  0  0  0  0  0
   23.3998   63.4719   -4.2327 C   0  0  0  0  0  0  0  0  0  0  0  0
   24.6426   62.6771   -4.2815 C   0  0  0  0  0  0  0  0  0  0  0  0
   25.5271   62.7347   -5.2900 N   0  0  0  0  0  0  0  0  0  0  0  0
   26.5476   61.9100   -5.0519 C   0  0  0  0  0  0  0  0  0  0  0  0
   26.3158   61.3027   -3.8567 N   0  0  0  0  0  0  0  0  0  0  0  0
   25.1541   61.7780   -3.3974 C   0  0  0  0  0  0  0  0  0  0  0  0
   26.9760   60.6041   -3.4463 H   0  0  0  0  0  0  0  0  0  0  0  0
  7  8  1  0  0  0
  8  9  2  0  0  0
  8 16  1  0  0  0
  9 10  1  0  0  0
 10 11  2  0  0  0
 10 14  1  0  0  0
 11 12  1  0  0  0
 12 13  1  0  0  0
 13 14  2  0  0  0
 13  1  1  0  0  0
 14 15  1  0  0  0
 15 16  2  0  0  0
  1  2  1  0  0  0
  1  5  1  0  0  0
  2  3  1  0  0  0
  3  4  1  0  0  0
  3 18  1  0  0  0
  4  5  1  0  0  0
  5  6  2  0  0  0
 18 19  2  0  0  0
 18 20  1  0  0  0
 20 22  1  0  0  0
 22 23  1  0  0  0
 23 24  1  0  0  0
 24 25  1  0  0  0
 24 28  2  0  0  0
 25 26  2  0  0  0
 26 27  1  0  0  0
 27 28  1  0  0  0
 12 17  1  0  0  0
 20 21  1  0  0  0
 27 29  1  0  0  0
M  END
> <minimizedAffinity>
-9.83655

$$$$
648


 32 35  0  0  0  0  0  0  0  0999 V2000
   20.6112   63.1117  -10.7259 C   0  0  0  0  0  0  0  0  0  0  0  0
   20.9256   63.2516  -11.9626 O   0  0  0  0  0  0  0  0  0  0  0  0
   19.5868   62.2540  -10.4246 N   0  0  0  0  0  0  0  0  0  0  0  0
   19.0825   61.9784   -9.1152 C   0  0  0  0  0  0  0  0  0  0  0  0
   17.7368   62.6110   -8.9756 C   0  0  0  0  0  0  0  0  0  0  0  0
   17.0705   62.7392  -10.2635 N   0  0  0  0  0  0  0  0  0  0  0  0
   17.3989   61.9438  -11.3994 C   0  0  0  0  0  0  0  0  0  0  0  0
   18.8606   61.5141  -11.4772 C   0  0  0  0  0  0  0  0  0  0  0  0
   16.0904   63.7880  -10.3001 C   0  0  0  0  0  0  0  0  0  0  0  0
   15.9894   64.5305   -9.2360 O   0  0  0  0  0  0  0  0  0  0  0  0
   23.9953   62.9667  -10.8105 Br  0  0  0  0  0  0  0  0  0  0  0  0
   22.7818   63.9502   -9.6878 C   0  0  0  0  0  0  0  0  0  0  0  0
   23.1081   64.8084   -8.6732 C   0  0  0  0  0  0  0  0  0  0  0  0
   21.9614   65.2688   -8.1628 N   0  0  0  0  0  0  0  0  0  0  0  0
   20.9612   64.7357   -8.8127 N   0  0  0  0  0  0  0  0  0  0  0  0
   21.3887   63.8891   -9.7948 C   0  0  0  0  0  0  0  0  0  0  0  0
   21.9381   66.2099   -7.0497 C   0  0  0  0  0  0  0  0  0  0  0  0
   23.0261   65.9528   -6.0416 C   0  0  0  0  0  0  0  0  0  0  0  0
   15.2375   64.0684  -11.4022 C   0  0  0  0  0  0  0  0  0  0  0  0
   14.2308   63.2074  -11.8202 N   0  0  0  0  0  0  0  0  0  0  0  0
   13.6574   63.6841  -12.8763 N   0  0  0  0  0  0  0  0  0  0  0  0
   14.1996   64.8423  -13.2407 C   0  0  0  0  0  0  0  0  0  0  0  0
   15.2137   65.0842  -12.2921 C   0  0  0  0  0  0  0  0  0  0  0  0
   13.8676   61.9667  -11.1774 C   0  0  0  0  0  0  0  0  0  0  0  0
   13.8528   65.7215  -14.3427 C   0  0  0  0  0  0  0  0  0  0  0  0
   14.8309   66.1777  -15.0358 O   0  0  0  0  0  0  0  0  0  0  0  0
   12.5678   66.1015  -14.6973 N   0  0  0  0  0  0  0  0  0  0  0  0
   12.4049   66.9812  -15.8591 C   0  0  0  0  0  0  0  0  0  0  0  0
   11.5756   68.1525  -15.3758 C   0  0  0  0  0  0  0  0  0  0  0  0
   10.3100   67.6147  -15.0788 O   0  0  0  0  0  0  0  0  0  0  0  0
   10.3786   66.8618  -13.9397 C   0  0  0  0  0  0  0  0  0  0  0  0
   11.3806   65.7162  -14.0003 C   0  0  0  0  0  0  0  0  0  0  0  0
 11 12  1  0  0  0
 12 13  2  0  0  0
 12 16  1  0  0  0
 13 14  1  0  0  0
 14 15  1  0  0  0
 14 17  1  0  0  0
 15 16  2  0  0  0
 16  1  1  0  0  0
  1  2  2  0  0  0
  1  3  1  0  0  0
  3  4  1  0  0  0
  3  8  1  0  0  0
  4  5  1  0  0  0
  5  6  1  0  0  0
  6  7  1  0  0  0
  6  9  1  0  0  0
  7  8  1  0  0  0
  9 10  2  0  0  0
  9 19  1  0  0  0
 19 20  1  0  0  0
 19 23  2  0  0  0
 20 21  1  0  0  0
 20 24  1  0  0  0
 21 22  2  0  0  0
 22 23  1  0  0  0
 22 25  1  0  0  0
 25 26  2  0  0  0
 25 27  1  0  0  0
 27 28  1  0  0  0
 27 32  1  0  0  0
 28 29  1  0  0  0
 29 30  1  0  0  0
 30 31  1  0  0  0
 31 32  1  0  0  0
 17 18  1  0  0  0
M  END
> <minimizedAffinity>
-5.99256

$$$$
653


 29 32  0  0  0  0  0  0  0  0999 V2000
   19.7099   63.3389   -9.7775 C   0  0  0  0  0  0  0  0  0  0  0  0
   20.1823   63.1731  -11.0545 C   0  0  0  0  0  0  0  0  0  0  0  0
   21.5297   63.2914  -11.3424 C   0  0  0  0  0  0  0  0  0  0  0  0
   22.4424   63.5816  -10.3527 C   0  0  0  0  0  0  0  0  0  0  0  0
   21.9712   63.7556   -9.0373 C   0  0  0  0  0  0  0  0  0  0  0  0
   20.6364   63.6374   -8.7528 C   0  0  0  0  0  0  0  0  0  0  0  0
   20.1600   63.8108   -7.3785 C   0  0  0  0  0  0  0  0  0  0  0  0
   21.0234   64.5609   -6.4443 C   0  0  0  0  0  0  0  0  0  0  0  0
   22.4497   64.3724   -6.6772 N   0  0  0  0  0  0  0  0  0  0  0  0
   22.9221   64.1278   -7.9950 C   0  0  0  0  0  0  0  0  0  0  0  0
   24.1622   64.2391   -8.2359 O   0  0  0  0  0  0  0  0  0  0  0  0
   23.3166   64.4678   -5.5251 C   0  0  0  0  0  0  0  0  0  0  0  0
   21.6628   63.0654  -12.6983 O   0  0  0  0  0  0  0  0  0  0  0  0
   20.4464   62.6254  -13.2473 C   0  0  0  0  0  0  0  0  0  0  0  0
   19.4704   62.8744  -12.2391 O   0  0  0  0  0  0  0  0  0  0  0  0
   23.7973   63.7056  -10.6025 O   0  0  0  0  0  0  0  0  0  0  0  0
   24.3983   63.0700  -11.7114 C   0  0  0  0  0  0  0  0  0  0  0  0
   18.2711   63.2618   -9.4463 C   0  0  0  0  0  0  0  0  0  0  0  0
   16.1960   64.5217  -10.2528 C   0  0  0  0  0  0  0  0  0  0  0  0
   15.6378   64.5865   -9.1105 O   0  0  0  0  0  0  0  0  0  0  0  0
   17.4179   63.9089  -10.4265 N   0  0  0  0  0  0  0  0  0  0  0  0
   17.8327   63.8934  -11.4114 H   0  0  0  0  0  0  0  0  0  0  0  0
   15.4746   65.1346  -11.4006 C   0  0  0  0  0  0  0  0  0  0  0  0
   11.7026   62.5629  -14.3517 Br  0  0  0  0  0  0  0  0  0  0  0  0
   13.0995   62.9955  -13.1241 C   0  0  0  0  0  0  0  0  0  0  0  0
   13.6709   64.2267  -12.8994 C   0  0  0  0  0  0  0  0  0  0  0  0
   14.6019   64.0854  -11.9616 N   0  0  0  0  0  0  0  0  0  0  0  0
   14.6182   62.8037  -11.6042 N   0  0  0  0  0  0  0  0  0  0  0  0
   13.7124   62.0898  -12.2892 C   0  0  0  0  0  0  0  0  0  0  0  0
 24 25  1  0  0  0
 25 26  2  0  0  0
 25 29  1  0  0  0
 26 27  1  0  0  0
 27 28  1  0  0  0
 27 23  1  0  0  0
 28 29  2  0  0  0
 23 19  1  0  0  0
 19 20  2  0  0  0
 19 21  1  0  0  0
 21 18  1  0  0  0
 18  1  1  0  0  0
  1  2  2  0  0  0
  1  6  1  0  0  0
  2  3  1  0  0  0
  2 15  1  0  0  0
  3  4  2  0  0  0
  3 13  1  0  0  0
  4  5  1  0  0  0
  4 16  1  0  0  0
  5  6  2  0  0  0
  5 10  1  0  0  0
  6  7  1  0  0  0
  7  8  1  0  0  0
  8  9  1  0  0  0
  9 10  1  0  0  0
  9 12  1  0  0  0
 10 11  2  0  0  0
 16 17  1  0  0  0
 13 14  1  0  0  0
 14 15  1  0  0  0
 21 22  1  0  0  0
M  END
> <minimizedAffinity>
-7.09073

$$$$
662


 25 29  0  0  0  0  0  0  0  0999 V2000
   19.4719   62.6856   -9.7734 C   0  0  0  0  0  0  0  0  0  0  0  0
   19.1991   61.3726   -9.7100 N   0  0  0  0  0  0  0  0  0  0  0  0
   17.9278   61.1505  -10.0436 N   0  0  0  0  0  0  0  0  0  0  0  0
   17.3648   62.3591  -10.3313 C   0  0  0  0  0  0  0  0  0  0  0  0
   18.3313   63.2812  -10.1579 N   0  0  0  0  0  0  0  0  0  0  0  0
   16.0388   62.3910  -10.7078 C   0  0  0  0  0  0  0  0  0  0  0  0
   15.2630   61.2494  -10.8042 C   0  0  0  0  0  0  0  0  0  0  0  0
   14.0218   61.5911  -11.1896 N   0  0  0  0  0  0  0  0  0  0  0  0
   14.0069   62.9065  -11.3346 N   0  0  0  0  0  0  0  0  0  0  0  0
   15.2171   63.4313  -11.0502 C   0  0  0  0  0  0  0  0  0  0  0  0
   15.8600   60.0832  -10.5113 N   0  0  0  0  0  0  0  0  0  0  0  0
   17.1520   60.0564  -10.1455 C   0  0  0  0  0  0  0  0  0  0  0  0
   13.2063   60.9627  -11.3521 H   0  0  0  0  0  0  0  0  0  0  0  0
   22.3671   64.4157   -8.4631 N   0  0  0  0  0  0  0  0  0  0  0  0
   21.1231   63.9797   -8.3693 N   0  0  0  0  0  0  0  0  0  0  0  0
   20.7571   63.3178   -9.4802 C   0  0  0  0  0  0  0  0  0  0  0  0
   21.8586   63.3548  -10.3087 C   0  0  0  0  0  0  0  0  0  0  0  0
   22.8703   64.0506   -9.6545 C   0  0  0  0  0  0  0  0  0  0  0  0
   23.0790   65.1738   -7.4310 C   0  0  0  0  0  0  0  0  0  0  0  0
   24.0885   62.9264   -2.6371 Br  0  0  0  0  0  0  0  0  0  0  0  0
   24.0831   63.3388   -4.4829 C   0  0  0  0  0  0  0  0  0  0  0  0
   23.3552   64.3340   -5.1032 C   0  0  0  0  0  0  0  0  0  0  0  0
   23.6307   64.2990   -6.4174 N   0  0  0  0  0  0  0  0  0  0  0  0
   24.4961   63.3253   -6.6364 N   0  0  0  0  0  0  0  0  0  0  0  0
   24.8031   62.7081   -5.4727 C   0  0  0  0  0  0  0  0  0  0  0  0
 20 21  1  0  0  0
 21 22  2  0  0  0
 21 25  1  0  0  0
 22 23  1  0  0  0
 23 24  1  0  0  0
 23 19  1  0  0  0
 24 25  2  0  0  0
 19 14  1  0  0  0
 14 15  1  0  0  0
 14 18  1  0  0  0
 15 16  2  0  0  0
 16 17  1  0  0  0
 16  1  1  0  0  0
 17 18  2  0  0  0
  1  2  2  0  0  0
  1  5  1  0  0  0
  2  3  1  0  0  0
  3  4  1  0  0  0
  3 12  1  0  0  0
  4  5  2  0  0  0
  4  6  1  0  0  0
  6  7  2  0  0  0
  6 10  1  0  0  0
  7  8  1  0  0  0
  7 11  1  0  0  0
  8  9  1  0  0  0
  9 10  2  0  0  0
 11 12  2  0  0  0
  8 13  1  0  0  0
M  END
> <minimizedAffinity>
-10.01206

$$$$
663


 28 31  0  0  0  0  0  0  0  0999 V2000
   11.9765   64.5322  -13.8076 C   0  0  0  0  0  0  0  0  0  0  0  0
   11.0161   65.0791  -13.1325 O   0  0  0  0  0  0  0  0  0  0  0  0
   11.7414   64.3709  -15.1624 N   0  0  0  0  0  0  0  0  0  0  0  0
   12.5740   63.8645  -16.2199 C   0  0  0  0  0  0  0  0  0  0  0  0
   12.1447   62.4332  -16.4782 C   0  0  0  0  0  0  0  0  0  0  0  0
   10.6406   62.3018  -16.3490 C   0  0  0  0  0  0  0  0  0  0  0  0
   10.2010   61.3899  -17.3825 N   0  0  0  0  0  0  0  0  0  0  0  0
   10.3419   60.0674  -16.8858 C   0  0  0  0  0  0  0  0  0  0  0  0
   10.4094   58.9824  -17.5501 O   0  0  0  0  0  0  0  0  0  0  0  0
   10.3954   60.1701  -15.4542 N   0  0  0  0  0  0  0  0  0  0  0  0
   10.2850   61.5700  -15.1190 C   0  0  0  0  0  0  0  0  0  0  0  0
    9.9499   61.9997  -13.9943 O   0  0  0  0  0  0  0  0  0  0  0  0
    9.9122   63.5960  -16.5180 C   0  0  0  0  0  0  0  0  0  0  0  0
   10.3764   64.7260  -15.6630 C   0  0  0  0  0  0  0  0  0  0  0  0
    9.8410   61.6159  -18.3300 H   0  0  0  0  0  0  0  0  0  0  0  0
   10.4950   59.4123  -14.7440 H   0  0  0  0  0  0  0  0  0  0  0  0
   15.3962   63.2948  -11.5109 C   0  0  0  0  0  0  0  0  0  0  0  0
   14.3580   62.4487  -11.8150 C   0  0  0  0  0  0  0  0  0  0  0  0
   13.2715   62.8653  -12.5365 C   0  0  0  0  0  0  0  0  0  0  0  0
   13.1354   64.1839  -13.0175 C   0  0  0  0  0  0  0  0  0  0  0  0
   14.1820   65.0205  -12.7077 C   0  0  0  0  0  0  0  0  0  0  0  0
   15.2900   64.5811  -11.9662 C   0  0  0  0  0  0  0  0  0  0  0  0
   19.9703   63.1842   -8.5929 Br  0  0  0  0  0  0  0  0  0  0  0  0
   18.3775   62.7051   -9.5627 C   0  0  0  0  0  0  0  0  0  0  0  0
   17.4980   63.5544  -10.1976 C   0  0  0  0  0  0  0  0  0  0  0  0
   16.5109   62.8350  -10.7609 N   0  0  0  0  0  0  0  0  0  0  0  0
   16.7641   61.5726  -10.4879 N   0  0  0  0  0  0  0  0  0  0  0  0
   17.8764   61.4389   -9.7685 C   0  0  0  0  0  0  0  0  0  0  0  0
 23 24  1  0  0  0
 24 25  2  0  0  0
 24 28  1  0  0  0
 25 26  1  0  0  0
 26 27  1  0  0  0
 26 17  1  0  0  0
 27 28  2  0  0  0
 17 18  2  0  0  0
 17 22  1  0  0  0
 18 19  1  0  0  0
 19 20  2  0  0  0
 20 21  1  0  0  0
 20  1  1  0  0  0
 21 22  2  0  0  0
  1  2  2  0  0  0
  1  3  1  0  0  0
  3  4  1  0  0  0
  3 14  1  0  0  0
  4  5  1  0  0  0
  5  6  1  0  0  0
  6  7  1  0  0  0
  6 11  1  0  0  0
  6 13  1  0  0  0
  7  8  1  0  0  0
  8  9  2  0  0  0
  8 10  1  0  0  0
 10 11  1  0  0  0
 11 12  2  0  0  0
 13 14  1  0  0  0
  7 15  1  0  0  0
 10 16  1  0  0  0
M  END
> <minimizedAffinity>
-6.10948

$$$$
666


 28 31  0  0  0  0  0  0  0  0999 V2000
   21.5496   64.0053  -10.3988 C   0  0  0  0  0  0  0  0  0  0  0  0
   21.7538   63.3757  -11.5180 C   0  0  0  0  0  0  0  0  0  0  0  0
   20.5311   62.6230  -11.8033 C   0  0  0  0  0  0  0  0  0  0  0  0
   20.3758   61.8862  -12.8265 O   0  0  0  0  0  0  0  0  0  0  0  0
   19.5475   62.8304  -10.7792 N   0  0  0  0  0  0  0  0  0  0  0  0
   20.1938   63.7205   -9.8701 C   0  0  0  0  0  0  0  0  0  0  0  0
   19.6979   64.1810   -8.8080 O   0  0  0  0  0  0  0  0  0  0  0  0
   18.2481   62.2668  -10.6995 C   0  0  0  0  0  0  0  0  0  0  0  0
   17.1004   62.9773  -10.9416 C   0  0  0  0  0  0  0  0  0  0  0  0
   15.8250   62.3789  -10.8696 C   0  0  0  0  0  0  0  0  0  0  0  0
   15.6974   61.0464  -10.5500 C   0  0  0  0  0  0  0  0  0  0  0  0
   16.8424   60.3314  -10.3071 C   0  0  0  0  0  0  0  0  0  0  0  0
   18.0961   60.9398  -10.3827 C   0  0  0  0  0  0  0  0  0  0  0  0
   22.9157   63.3891  -12.3499 N   0  0  0  0  0  0  0  0  0  0  0  0
   24.1350   63.2351  -11.8023 C   0  0  0  0  0  0  0  0  0  0  0  0
   25.2987   63.2518  -12.5908 C   0  0  0  0  0  0  0  0  0  0  0  0
   25.2010   63.4309  -13.9579 C   0  0  0  0  0  0  0  0  0  0  0  0
   23.9411   63.5860  -14.4952 C   0  0  0  0  0  0  0  0  0  0  0  0
   22.8318   63.5627  -13.6914 C   0  0  0  0  0  0  0  0  0  0  0  0
   22.4200   64.8677   -9.6911 N   0  0  0  0  0  0  0  0  0  0  0  0
   22.7457   65.7390  -10.1088 H   0  0  0  0  0  0  0  0  0  0  0  0
   24.1794   63.3339   -4.0300 Br  0  0  0  0  0  0  0  0  0  0  0  0
   23.6231   63.8005   -5.7984 C   0  0  0  0  0  0  0  0  0  0  0  0
   22.8236   64.8848   -6.0467 C   0  0  0  0  0  0  0  0  0  0  0  0
   22.4532   65.1959   -7.2940 N   0  0  0  0  0  0  0  0  0  0  0  0
   22.8263   64.4851   -8.3917 C   0  0  0  0  0  0  0  0  0  0  0  0
   23.6413   63.3774   -8.1274 C   0  0  0  0  0  0  0  0  0  0  0  0
   24.0379   63.0347   -6.8634 C   0  0  0  0  0  0  0  0  0  0  0  0
 22 23  1  0  0  0
 23 24  2  0  0  0
 23 28  1  0  0  0
 24 25  1  0  0  0
 25 26  2  0  0  0
 26 27  1  0  0  0
 26 20  1  0  0  0
 27 28  2  0  0  0
 20  1  1  0  0  0
  1  2  2  0  0  0
  1  6  1  0  0  0
  2  3  1  0  0  0
  2 14  1  0  0  0
  3  4  2  0  0  0
  3  5  1  0  0  0
  5  6  1  0  0  0
  5  8  1  0  0  0
  6  7  2  0  0  0
  8  9  2  0  0  0
  8 13  1  0  0  0
  9 10  1  0  0  0
 10 11  2  0  0  0
 11 12  1  0  0  0
 12 13  2  0  0  0
 14 15  2  0  0  0
 14 19  1  0  0  0
 15 16  1  0  0  0
 16 17  2  0  0  0
 17 18  1  0  0  0
 18 19  2  0  0  0
 20 21  1  0  0  0
M  END
> <minimizedAffinity>
-8.81945

$$$$
670


 23 26  0  0  0  0  0  0  0  0999 V2000
   19.2370   62.7431   -9.0994 C   0  0  0  0  0  0  0  0  0  0  0  0
   18.0557   62.1772   -9.6956 N   0  0  0  0  0  0  0  0  0  0  0  0
   17.0668   63.0062  -10.2250 N   0  0  0  0  0  0  0  0  0  0  0  0
   15.8840   62.4942  -10.8234 C   0  0  0  0  0  0  0  0  0  0  0  0
   14.9799   63.3230  -11.3091 C   0  0  0  0  0  0  0  0  0  0  0  0
   14.3954   64.6375  -11.6415 C   0  0  0  0  0  0  0  0  0  0  0  0
   13.6394   63.4489  -12.0044 C   0  0  0  0  0  0  0  0  0  0  0  0
   15.6652   61.0633  -10.9030 C   0  0  0  0  0  0  0  0  0  0  0  0
   16.5900   60.2574  -10.4066 C   0  0  0  0  0  0  0  0  0  0  0  0
   17.8235   60.7795   -9.7834 C   0  0  0  0  0  0  0  0  0  0  0  0
   18.6884   59.9908   -9.3183 O   0  0  0  0  0  0  0  0  0  0  0  0
   17.2347   64.0526  -10.1626 H   0  0  0  0  0  0  0  0  0  0  0  0
   21.8041   63.4384  -11.1591 N   0  0  0  0  0  0  0  0  0  0  0  0
   20.3744   63.5124  -11.2502 C   0  0  0  0  0  0  0  0  0  0  0  0
   20.3682   62.5696  -10.0632 C   0  0  0  0  0  0  0  0  0  0  0  0
   21.6232   63.3715   -9.7369 C   0  0  0  0  0  0  0  0  0  0  0  0
   26.4918   63.4266  -15.0501 Br  0  0  0  0  0  0  0  0  0  0  0  0
   25.0287   63.4293  -13.8176 C   0  0  0  0  0  0  0  0  0  0  0  0
   23.7327   63.5229  -14.2718 C   0  0  0  0  0  0  0  0  0  0  0  0
   22.7330   63.5228  -13.4004 N   0  0  0  0  0  0  0  0  0  0  0  0
   22.8744   63.4357  -12.0601 C   0  0  0  0  0  0  0  0  0  0  0  0
   24.1629   63.3441  -11.6161 N   0  0  0  0  0  0  0  0  0  0  0  0
   25.2144   63.3390  -12.4547 C   0  0  0  0  0  0  0  0  0  0  0  0
 17 18  1  0  0  0
 18 19  2  0  0  0
 18 23  1  0  0  0
 19 20  1  0  0  0
 20 21  2  0  0  0
 21 22  1  0  0  0
 21 13  1  0  0  0
 22 23  2  0  0  0
 13 14  1  0  0  0
 13 16  1  0  0  0
 14 15  1  0  0  0
 15 16  1  0  0  0
 15  1  1  0  0  0
  1  2  1  0  0  0
  2  3  1  0  0  0
  2 10  1  0  0  0
  3  4  1  0  0  0
  4  5  2  0  0  0
  4  8  1  0  0  0
  5  6  1  0  0  0
  5  7  1  0  0  0
  6  7  1  0  0  0
  8  9  2  0  0  0
  9 10  1  0  0  0
 10 11  2  0  0  0
  3 12  1  0  0  0
M  END
> <minimizedAffinity>
-7.90428

$$$$
677


 29 32  0  0  0  0  0  0  0  0999 V2000
   19.7744   63.1521   -9.3950 C   0  0  0  0  0  0  0  0  0  0  0  0
   20.1326   63.0335  -10.7849 C   0  0  0  0  0  0  0  0  0  0  0  0
   21.3768   63.3550  -11.1874 C   0  0  0  0  0  0  0  0  0  0  0  0
   22.3432   63.8078  -10.2708 C   0  0  0  0  0  0  0  0  0  0  0  0
   22.0181   63.9289   -8.9416 C   0  0  0  0  0  0  0  0  0  0  0  0
   20.7231   63.5993   -8.5108 C   0  0  0  0  0  0  0  0  0  0  0  0
   20.3265   63.8143   -7.0953 C   0  0  0  0  0  0  0  0  0  0  0  0
   21.2514   64.7615   -6.3383 C   0  0  0  0  0  0  0  0  0  0  0  0
   22.6420   64.4486   -6.5695 N   0  0  0  0  0  0  0  0  0  0  0  0
   23.0026   64.3628   -7.9552 C   0  0  0  0  0  0  0  0  0  0  0  0
   24.1763   64.6740   -8.2449 O   0  0  0  0  0  0  0  0  0  0  0  0
   23.5879   64.2391   -5.4945 C   0  0  0  0  0  0  0  0  0  0  0  0
   23.5633   64.1075  -10.7514 O   0  0  0  0  0  0  0  0  0  0  0  0
   21.4307   63.1428  -12.5736 O   0  0  0  0  0  0  0  0  0  0  0  0
   20.2803   62.4424  -12.9971 C   0  0  0  0  0  0  0  0  0  0  0  0
   19.4024   62.6194  -11.9029 O   0  0  0  0  0  0  0  0  0  0  0  0
   24.3600   64.4285  -10.3190 H   0  0  0  0  0  0  0  0  0  0  0  0
   18.4034   62.7478   -9.1678 C   0  0  0  0  0  0  0  0  0  0  0  0
   16.3725   63.5470  -10.2408 C   0  0  0  0  0  0  0  0  0  0  0  0
   16.4010   64.5024   -9.4470 O   0  0  0  0  0  0  0  0  0  0  0  0
   17.4421   62.5312  -10.1579 N   0  0  0  0  0  0  0  0  0  0  0  0
   17.3330   61.8137  -10.8894 H   0  0  0  0  0  0  0  0  0  0  0  0
   13.3077   65.6793  -14.0477 Br  0  0  0  0  0  0  0  0  0  0  0  0
   13.8916   64.2438  -12.9317 C   0  0  0  0  0  0  0  0  0  0  0  0
   13.3192   63.0153  -13.0299 C   0  0  0  0  0  0  0  0  0  0  0  0
   13.7163   62.0046  -12.2580 N   0  0  0  0  0  0  0  0  0  0  0  0
   14.6984   62.1962  -11.3655 C   0  0  0  0  0  0  0  0  0  0  0  0
   15.3199   63.4317  -11.2221 C   0  0  0  0  0  0  0  0  0  0  0  0
   14.9158   64.4806  -12.0159 C   0  0  0  0  0  0  0  0  0  0  0  0
 23 24  1  0  0  0
 24 25  2  0  0  0
 24 29  1  0  0  0
 25 26  1  0  0  0
 26 27  2  0  0  0
 27 28  1  0  0  0
 28 29  2  0  0  0
 28 19  1  0  0  0
 19 20  2  0  0  0
 19 21  1  0  0  0
 21 18  1  0  0  0
 18  1  1  0  0  0
  1  2  2  0  0  0
  1  6  1  0  0  0
  2  3  1  0  0  0
  2 16  1  0  0  0
  3  4  2  0  0  0
  3 14  1  0  0  0
  4  5  1  0  0  0
  4 13  1  0  0  0
  5  6  2  0  0  0
  5 10  1  0  0  0
  6  7  1  0  0  0
  7  8  1  0  0  0
  8  9  1  0  0  0
  9 10  1  0  0  0
  9 12  1  0  0  0
 10 11  2  0  0  0
 14 15  1  0  0  0
 15 16  1  0  0  0
 21 22  1  0  0  0
 13 17  1  0  0  0
M  END
> <minimizedAffinity>
-9.18152

$$$$
680


 24 27  0  0  0  0  0  0  0  0999 V2000
   23.2785   64.7215   -6.9222 C   0  0  0  0  0  0  0  0  0  0  0  0
   23.6809   65.9260   -7.1233 O   0  0  0  0  0  0  0  0  0  0  0  0
   22.2666   64.2287   -7.7673 N   0  0  0  0  0  0  0  0  0  0  0  0
   21.4878   63.0453   -7.9592 C   0  0  0  0  0  0  0  0  0  0  0  0
   20.3966   63.9461   -8.5654 C   0  0  0  0  0  0  0  0  0  0  0  0
   21.5556   64.7929   -8.9327 C   0  0  0  0  0  0  0  0  0  0  0  0
   19.6908   63.2877   -9.6298 N   0  0  0  0  0  0  0  0  0  0  0  0
   19.9410   63.3587  -11.0461 C   0  0  0  0  0  0  0  0  0  0  0  0
   21.0385   63.6349  -11.5606 O   0  0  0  0  0  0  0  0  0  0  0  0
   18.6277   63.0341  -11.7029 C   0  0  0  0  0  0  0  0  0  0  0  0
   18.1356   61.9409  -10.7840 C   0  0  0  0  0  0  0  0  0  0  0  0
   16.6458   61.7681  -10.8899 C   0  0  0  0  0  0  0  0  0  0  0  0
   15.9692   63.0462  -10.5412 C   0  0  0  0  0  0  0  0  0  0  0  0
   16.5436   64.1683  -10.9233 C   0  0  0  0  0  0  0  0  0  0  0  0
   17.8047   64.2763  -11.6703 C   0  0  0  0  0  0  0  0  0  0  0  0
   18.5783   62.4165   -9.4592 C   0  0  0  0  0  0  0  0  0  0  0  0
   18.0246   62.0753   -8.3851 O   0  0  0  0  0  0  0  0  0  0  0  0
   27.2497   61.5474   -5.0980 Br  0  0  0  0  0  0  0  0  0  0  0  0
   25.6828   62.6098   -4.8987 C   0  0  0  0  0  0  0  0  0  0  0  0
   25.1246   62.7545   -3.6511 C   0  0  0  0  0  0  0  0  0  0  0  0
   24.0081   63.5098   -3.4910 N   0  0  0  0  0  0  0  0  0  0  0  0
   23.4320   64.1205   -4.5321 C   0  0  0  0  0  0  0  0  0  0  0  0
   23.9323   64.0276   -5.8378 C   0  0  0  0  0  0  0  0  0  0  0  0
   25.0649   63.2550   -5.9584 C   0  0  0  0  0  0  0  0  0  0  0  0
 18 19  1  0  0  0
 19 20  2  0  0  0
 19 24  1  0  0  0
 20 21  1  0  0  0
 21 22  2  0  0  0
 22 23  1  0  0  0
 23 24  2  0  0  0
 23  1  1  0  0  0
  1  2  2  0  0  0
  1  3  1  0  0  0
  3  4  1  0  0  0
  3  6  1  0  0  0
  4  5  1  0  0  0
  5  6  1  0  0  0
  5  7  1  0  0  0
  7  8  1  0  0  0
  7 16  1  0  0  0
  8  9  2  0  0  0
  8 10  1  0  0  0
 10 11  1  0  0  0
 10 15  1  0  0  0
 11 12  1  0  0  0
 11 16  1  0  0  0
 12 13  1  0  0  0
 13 14  2  0  0  0
 14 15  1  0  0  0
 16 17  2  0  0  0
M  END
> <minimizedAffinity>
-7.26149

$$$$
681


 25 28  0  0  0  0  0  0  0  0999 V2000
   22.4832   63.8979   -8.9214 C   0  0  0  0  0  0  0  0  0  0  0  0
   23.3720   64.0682   -9.8126 O   0  0  0  0  0  0  0  0  0  0  0  0
   21.1724   63.6180   -9.3272 N   0  0  0  0  0  0  0  0  0  0  0  0
   19.8705   63.3427   -8.7802 C   0  0  0  0  0  0  0  0  0  0  0  0
   19.3021   62.9846  -10.1450 C   0  0  0  0  0  0  0  0  0  0  0  0
   20.5963   63.5153  -10.6826 C   0  0  0  0  0  0  0  0  0  0  0  0
   26.0044   62.3794   -5.2367 Br  0  0  0  0  0  0  0  0  0  0  0  0
   24.4446   63.3551   -5.7938 C   0  0  0  0  0  0  0  0  0  0  0  0
   23.7701   64.1043   -4.8573 C   0  0  0  0  0  0  0  0  0  0  0  0
   22.6880   64.7743   -5.2692 N   0  0  0  0  0  0  0  0  0  0  0  0
   22.2506   64.7324   -6.5616 C   0  0  0  0  0  0  0  0  0  0  0  0
   22.8806   64.0050   -7.5397 C   0  0  0  0  0  0  0  0  0  0  0  0
   24.0175   63.3043   -7.0964 C   0  0  0  0  0  0  0  0  0  0  0  0
   18.1475   63.6552  -10.5434 O   0  0  0  0  0  0  0  0  0  0  0  0
   16.9160   63.0817  -10.7848 C   0  0  0  0  0  0  0  0  0  0  0  0
   15.9154   63.8323  -11.2385 C   0  0  0  0  0  0  0  0  0  0  0  0
   14.5926   63.2857  -11.5129 C   0  0  0  0  0  0  0  0  0  0  0  0
   13.6218   64.0602  -11.9641 C   0  0  0  0  0  0  0  0  0  0  0  0
   14.3932   61.8992  -11.2758 N   0  0  0  0  0  0  0  0  0  0  0  0
   15.4910   61.1142  -10.7851 C   0  0  0  0  0  0  0  0  0  0  0  0
   16.6850   61.6776  -10.5524 N   0  0  0  0  0  0  0  0  0  0  0  0
   17.5229   60.7387  -10.1008 N   0  0  0  0  0  0  0  0  0  0  0  0
   16.8383   59.5904  -10.0550 C   0  0  0  0  0  0  0  0  0  0  0  0
   15.5898   59.8180  -10.4748 N   0  0  0  0  0  0  0  0  0  0  0  0
   13.4587   61.5003  -11.4673 H   0  0  0  0  0  0  0  0  0  0  0  0
  7  8  1  0  0  0
  8  9  2  0  0  0
  8 13  1  0  0  0
  9 10  1  0  0  0
 10 11  2  0  0  0
 11 12  1  0  0  0
 12 13  2  0  0  0
 12  1  1  0  0  0
  1  2  2  0  0  0
  1  3  1  0  0  0
  3  4  1  0  0  0
  3  6  1  0  0  0
  4  5  1  0  0  0
  5  6  1  0  0  0
  5 14  1  0  0  0
 14 15  1  0  0  0
 15 16  2  0  0  0
 15 21  1  0  0  0
 16 17  1  0  0  0
 17 18  2  0  0  0
 17 19  1  0  0  0
 19 20  1  0  0  0
 20 21  1  0  0  0
 20 24  2  0  0  0
 21 22  1  0  0  0
 22 23  2  0  0  0
 23 24  1  0  0  0
 19 25  1  0  0  0
M  END
> <minimizedAffinity>
-9.81352

$$$$
683


 20 22  0  0  0  0  0  0  0  0999 V2000
   18.6851   64.0811  -10.8500 N   0  0  0  0  0  0  0  0  0  0  0  0
   18.2803   62.9215  -11.6276 C   0  0  0  0  0  0  0  0  0  0  0  0
   19.3202   61.8242  -11.5956 C   0  0  0  0  0  0  0  0  0  0  0  0
   20.3084   62.0107  -12.7335 C   0  0  0  0  0  0  0  0  0  0  0  0
   21.2611   63.1468  -12.4370 C   0  0  0  0  0  0  0  0  0  0  0  0
   21.1584   63.5139  -11.0158 C   0  0  0  0  0  0  0  0  0  0  0  0
   20.0285   63.9177  -10.3462 C   0  0  0  0  0  0  0  0  0  0  0  0
   20.1074   64.2164   -9.0470 N   0  0  0  0  0  0  0  0  0  0  0  0
   21.2543   64.1381   -8.3665 C   0  0  0  0  0  0  0  0  0  0  0  0
   22.3945   63.7377   -9.0148 C   0  0  0  0  0  0  0  0  0  0  0  0
   22.3430   63.4229  -10.3574 C   0  0  0  0  0  0  0  0  0  0  0  0
   23.5495   63.0063  -11.0167 N   0  0  0  0  0  0  0  0  0  0  0  0
   23.6164   63.6386   -8.3547 C   0  0  0  0  0  0  0  0  0  0  0  0
   23.6527   63.9558   -7.0199 C   0  0  0  0  0  0  0  0  0  0  0  0
   22.5102   64.3564   -6.3717 C   0  0  0  0  0  0  0  0  0  0  0  0
   21.2917   64.4519   -7.0423 C   0  0  0  0  0  0  0  0  0  0  0  0
   17.7958   64.1730   -9.6972 C   0  0  0  0  0  0  0  0  0  0  0  0
   18.6161   64.9497  -11.4281 H   0  0  0  0  0  0  0  0  0  0  0  0
   23.6251   62.0462  -11.3878 H   0  0  0  0  0  0  0  0  0  0  0  0
   24.3578   63.6609  -11.1269 H   0  0  0  0  0  0  0  0  0  0  0  0
  1  2  1  0  0  0
  1  7  1  0  0  0
  1 17  1  0  0  0
  2  3  1  0  0  0
  3  4  1  0  0  0
  4  5  1  0  0  0
  5  6  1  0  0  0
  6  7  2  0  0  0
  6 11  1  0  0  0
  7  8  1  0  0  0
  8  9  2  0  0  0
  9 10  1  0  0  0
  9 16  1  0  0  0
 10 11  2  0  0  0
 10 13  1  0  0  0
 11 12  1  0  0  0
 13 14  2  0  0  0
 14 15  1  0  0  0
 15 16  2  0  0  0
  1 18  1  0  0  0
 12 19  1  0  0  0
 12 20  1  0  0  0
M  CHG 1   1   1
M  END
> <minimizedAffinity>
-6.64743

$$$$
684


 19 21  0  0  0  0  0  0  0  0999 V2000
   18.9820   63.6853  -10.8386 N   0  0  0  0  0  0  0  0  0  0  0  0
   19.1406   62.4186  -11.5769 C   0  0  0  0  0  0  0  0  0  0  0  0
   20.0941   62.6407  -12.7046 C   0  0  0  0  0  0  0  0  0  0  0  0
   21.4311   63.0543  -12.1509 C   0  0  0  0  0  0  0  0  0  0  0  0
   21.4025   63.4901  -10.7449 C   0  0  0  0  0  0  0  0  0  0  0  0
   20.2206   63.7979  -10.1087 C   0  0  0  0  0  0  0  0  0  0  0  0
   20.2656   64.1871   -8.8363 N   0  0  0  0  0  0  0  0  0  0  0  0
   21.4101   64.2989   -8.1287 C   0  0  0  0  0  0  0  0  0  0  0  0
   22.6125   63.9992   -8.7338 C   0  0  0  0  0  0  0  0  0  0  0  0
   22.6148   63.5916  -10.0494 C   0  0  0  0  0  0  0  0  0  0  0  0
   23.8574   63.2832  -10.6701 N   0  0  0  0  0  0  0  0  0  0  0  0
   23.7979   64.1138   -8.0050 C   0  0  0  0  0  0  0  0  0  0  0  0
   23.8175   64.5188   -6.6889 C   0  0  0  0  0  0  0  0  0  0  0  0
   22.6112   64.8182   -6.0889 C   0  0  0  0  0  0  0  0  0  0  0  0
   21.4333   64.7045   -6.8118 C   0  0  0  0  0  0  0  0  0  0  0  0
   17.8587   63.4874   -9.9455 C   0  0  0  0  0  0  0  0  0  0  0  0
   18.8415   64.4733  -11.4925 H   0  0  0  0  0  0  0  0  0  0  0  0
   24.3468   62.4210  -10.3435 H   0  0  0  0  0  0  0  0  0  0  0  0
   24.3030   63.8442  -11.4101 H   0  0  0  0  0  0  0  0  0  0  0  0
  1  2  1  0  0  0
  1  6  1  0  0  0
  1 16  1  0  0  0
  2  3  1  0  0  0
  3  4  1  0  0  0
  4  5  1  0  0  0
  5  6  2  0  0  0
  5 10  1  0  0  0
  6  7  1  0  0  0
  7  8  2  0  0  0
  8  9  1  0  0  0
  8 15  1  0  0  0
  9 10  2  0  0  0
  9 12  1  0  0  0
 10 11  1  0  0  0
 12 13  2  0  0  0
 13 14  1  0  0  0
 14 15  2  0  0  0
  1 17  1  0  0  0
 11 18  1  0  0  0
 11 19  1  0  0  0
M  CHG 1   1   1
M  END
> <minimizedAffinity>
-7.83959

$$$$
692


 29 32  0  0  0  0  0  0  0  0999 V2000
   23.7442   63.1305  -11.6643 Br  0  0  0  0  0  0  0  0  0  0  0  0
   22.2825   63.4190  -10.4856 C   0  0  0  0  0  0  0  0  0  0  0  0
   22.5245   63.6313   -9.1418 C   0  0  0  0  0  0  0  0  0  0  0  0
   21.4911   63.8489   -8.2181 C   0  0  0  0  0  0  0  0  0  0  0  0
   20.1914   63.8524   -8.6595 C   0  0  0  0  0  0  0  0  0  0  0  0
   19.9425   63.6410  -10.0020 C   0  0  0  0  0  0  0  0  0  0  0  0
   20.9569   63.4271  -10.9093 C   0  0  0  0  0  0  0  0  0  0  0  0
   18.1525   63.6398  -10.6483 Br  0  0  0  0  0  0  0  0  0  0  0  0
   21.7959   64.0543   -6.8074 C   0  0  0  0  0  0  0  0  0  0  0  0
   20.8603   63.8003   -6.0001 O   0  0  0  0  0  0  0  0  0  0  0  0
   23.0980   64.5235   -6.3474 C   0  0  0  0  0  0  0  0  0  0  0  0
   24.0626   64.5746   -7.5620 C   0  0  0  0  0  0  0  0  0  0  0  0
   23.7765   63.6564   -8.5524 O   0  0  0  0  0  0  0  0  0  0  0  0
   23.1773   65.8648   -5.7777 C   0  0  0  0  0  0  0  0  0  0  0  0
   22.9625   67.0655   -6.4416 N   0  0  0  0  0  0  0  0  0  0  0  0
   23.4362   68.2996   -5.8975 C   0  0  0  0  0  0  0  0  0  0  0  0
   23.5961   69.2648   -7.1002 C   0  0  0  0  0  0  0  0  0  0  0  0
   22.1829   69.6399   -7.4950 C   0  0  0  0  0  0  0  0  0  0  0  0
   21.1666   68.6726   -6.9301 C   0  0  0  0  0  0  0  0  0  0  0  0
   21.6404   67.2382   -7.0256 C   0  0  0  0  0  0  0  0  0  0  0  0
   23.5796   66.9725   -7.3307 H   0  0  0  0  0  0  0  0  0  0  0  0
   23.6332   63.5077   -5.3503 C   0  0  0  0  0  0  0  0  0  0  0  0
   24.5556   64.0820   -4.4019 N   0  0  0  0  0  0  0  0  0  0  0  0
   25.8578   63.4680   -4.6188 C   0  0  0  0  0  0  0  0  0  0  0  0
   25.7139   61.9837   -4.5562 C   0  0  0  0  0  0  0  0  0  0  0  0
   25.0590   61.4628   -3.3300 C   0  0  0  0  0  0  0  0  0  0  0  0
   23.9772   62.3185   -2.7671 C   0  0  0  0  0  0  0  0  0  0  0  0
   24.2461   63.7860   -3.0149 C   0  0  0  0  0  0  0  0  0  0  0  0
   24.5929   65.1137   -4.4807 H   0  0  0  0  0  0  0  0  0  0  0  0
  1  2  1  0  0  0
  2  3  2  0  0  0
  2  7  1  0  0  0
  3  4  1  0  0  0
  3 13  1  0  0  0
  4  5  2  0  0  0
  4  9  1  0  0  0
  5  6  1  0  0  0
  6  7  2  0  0  0
  6  8  1  0  0  0
  9 10  2  0  0  0
  9 11  1  0  0  0
 11 12  1  0  0  0
 11 14  1  0  0  0
 11 22  1  0  0  0
 12 13  1  0  0  0
 14 15  1  0  0  0
 15 16  1  0  0  0
 15 20  1  0  0  0
 16 17  1  0  0  0
 17 18  1  0  0  0
 18 19  1  0  0  0
 19 20  1  0  0  0
 22 23  1  0  0  0
 23 24  1  0  0  0
 23 28  1  0  0  0
 24 25  1  0  0  0
 25 26  1  0  0  0
 26 27  1  0  0  0
 27 28  1  0  0  0
 15 21  1  0  0  0
 23 29  1  0  0  0
M  CHG 1  15   1
M  CHG 1  23   1
M  END
> <minimizedAffinity>
-6.38138

$$$$
693


 33 36  0  0  0  0  0  0  0  0999 V2000
   16.9362   63.5270  -10.1041 N   0  0  0  0  0  0  0  0  0  0  0  0
   18.2853   63.3105  -10.4625 C   0  0  0  0  0  0  0  0  0  0  0  0
   18.7119   63.6806  -11.5760 O   0  0  0  0  0  0  0  0  0  0  0  0
   16.5127   63.2452   -9.1944 H   0  0  0  0  0  0  0  0  0  0  0  0
   11.0112   61.9272  -14.3333 Br  0  0  0  0  0  0  0  0  0  0  0  0
   12.2523   63.3018  -13.8499 C   0  0  0  0  0  0  0  0  0  0  0  0
   13.2606   63.0792  -12.9346 C   0  0  0  0  0  0  0  0  0  0  0  0
   14.1653   64.0651  -12.5790 C   0  0  0  0  0  0  0  0  0  0  0  0
   14.0089   65.2911  -13.1880 C   0  0  0  0  0  0  0  0  0  0  0  0
   13.0153   65.5513  -14.1047 C   0  0  0  0  0  0  0  0  0  0  0  0
   12.1183   64.5539  -14.4502 C   0  0  0  0  0  0  0  0  0  0  0  0
   12.8542   67.2756  -14.9141 Br  0  0  0  0  0  0  0  0  0  0  0  0
   15.1230   63.5688  -11.6020 C   0  0  0  0  0  0  0  0  0  0  0  0
   16.1039   64.1612  -11.0314 N   0  0  0  0  0  0  0  0  0  0  0  0
   14.7527   62.1700  -11.3603 C   0  0  0  0  0  0  0  0  0  0  0  0
   15.3643   61.4093  -10.5633 O   0  0  0  0  0  0  0  0  0  0  0  0
   13.6297   61.9273  -12.1842 N   0  0  0  0  0  0  0  0  0  0  0  0
   13.1331   61.0219  -12.2373 H   0  0  0  0  0  0  0  0  0  0  0  0
   19.2593   62.6383   -9.5454 C   0  0  0  0  0  0  0  0  0  0  0  0
   20.0305   63.5877   -8.7910 N   0  0  0  0  0  0  0  0  0  0  0  0
   21.4516   63.6155   -8.8082 C   0  0  0  0  0  0  0  0  0  0  0  0
   22.0530   62.7755   -9.5125 O   0  0  0  0  0  0  0  0  0  0  0  0
   19.5672   64.3091   -8.1900 H   0  0  0  0  0  0  0  0  0  0  0  0
   22.2666   64.5939   -8.0275 C   0  0  0  0  0  0  0  0  0  0  0  0
   23.5313   64.0891   -7.7166 O   0  0  0  0  0  0  0  0  0  0  0  0
   23.9518   63.7256   -6.4392 C   0  0  0  0  0  0  0  0  0  0  0  0
   23.2355   64.2254   -5.3838 C   0  0  0  0  0  0  0  0  0  0  0  0
   23.6347   63.8787   -4.0929 C   0  0  0  0  0  0  0  0  0  0  0  0
   24.7139   63.0607   -3.8476 C   0  0  0  0  0  0  0  0  0  0  0  0
   25.4119   62.5760   -4.9367 C   0  0  0  0  0  0  0  0  0  0  0  0
   25.0228   62.9141   -6.2117 C   0  0  0  0  0  0  0  0  0  0  0  0
   22.1617   65.0395   -5.6169 O   0  0  0  0  0  0  0  0  0  0  0  0
   21.5283   65.1513   -6.8614 C   0  0  0  0  0  0  0  0  0  0  0  0
  5  6  1  0  0  0
  6  7  2  0  0  0
  6 11  1  0  0  0
  7  8  1  0  0  0
  7 17  1  0  0  0
  8  9  2  0  0  0
  8 13  1  0  0  0
  9 10  1  0  0  0
 10 11  2  0  0  0
 10 12  1  0  0  0
 13 14  2  0  0  0
 13 15  1  0  0  0
 14  1  1  0  0  0
  1  2  1  0  0  0
  2  3  2  0  0  0
  2 19  1  0  0  0
 19 20  1  0  0  0
 20 21  1  0  0  0
 21 22  2  0  0  0
 21 24  1  0  0  0
 24 25  1  0  0  0
 24 33  1  0  0  0
 25 26  1  0  0  0
 26 27  2  0  0  0
 26 31  1  0  0  0
 27 28  1  0  0  0
 27 32  1  0  0  0
 28 29  2  0  0  0
 29 30  1  0  0  0
 30 31  2  0  0  0
 32 33  1  0  0  0
 15 16  2  0  0  0
 15 17  1  0  0  0
  1  4  1  0  0  0
 20 23  1  0  0  0
 17 18  1  0  0  0
M  END
> <minimizedAffinity>
-9.66903

$$$$
695


 22 25  0  0  0  0  0  0  0  0999 V2000
   24.3919   63.0330  -11.6467 C   0  0  0  0  0  0  0  0  0  0  0  0
   21.4538   64.3748   -7.3701 Br  0  0  0  0  0  0  0  0  0  0  0  0
   21.6391   63.8787   -9.2166 C   0  0  0  0  0  0  0  0  0  0  0  0
   20.4861   63.7725   -9.9652 C   0  0  0  0  0  0  0  0  0  0  0  0
   20.6179   63.4183  -11.2853 C   0  0  0  0  0  0  0  0  0  0  0  0
   21.8803   63.1774  -11.8307 C   0  0  0  0  0  0  0  0  0  0  0  0
   23.0365   63.2805  -11.0926 C   0  0  0  0  0  0  0  0  0  0  0  0
   22.8901   63.6416   -9.7499 C   0  0  0  0  0  0  0  0  0  0  0  0
   19.3257   63.3810  -11.8124 O   0  0  0  0  0  0  0  0  0  0  0  0
   18.4242   63.1962  -10.7099 C   0  0  0  0  0  0  0  0  0  0  0  0
   19.1216   63.9473   -9.7059 O   0  0  0  0  0  0  0  0  0  0  0  0
   24.7342   64.0903  -12.5662 N   0  0  0  0  0  0  0  0  0  0  0  0
   24.4959   65.0787  -12.3785 H   0  0  0  0  0  0  0  0  0  0  0  0
   25.4280   63.7435  -13.7794 C   0  0  0  0  0  0  0  0  0  0  0  0
   26.7422   63.4827  -13.7742 N   0  0  0  0  0  0  0  0  0  0  0  0
   27.3824   63.1594  -14.9120 C   0  0  0  0  0  0  0  0  0  0  0  0
   26.7060   63.0852  -16.1259 C   0  0  0  0  0  0  0  0  0  0  0  0
   25.3990   63.3456  -16.1230 N   0  0  0  0  0  0  0  0  0  0  0  0
   24.7496   63.6725  -14.9759 C   0  0  0  0  0  0  0  0  0  0  0  0
   23.4581   63.8769  -15.2822 N   0  0  0  0  0  0  0  0  0  0  0  0
   23.2702   63.6908  -16.5780 N   0  0  0  0  0  0  0  0  0  0  0  0
   24.4615   63.3664  -17.0874 C   0  0  0  0  0  0  0  0  0  0  0  0
  2  3  1  0  0  0
  3  4  2  0  0  0
  3  8  1  0  0  0
  4  5  1  0  0  0
  4 11  1  0  0  0
  5  6  2  0  0  0
  5  9  1  0  0  0
  6  7  1  0  0  0
  7  8  2  0  0  0
  7  1  1  0  0  0
  1 12  1  0  0  0
 12 14  1  0  0  0
 14 15  2  0  0  0
 14 19  1  0  0  0
 15 16  1  0  0  0
 16 17  2  0  0  0
 17 18  1  0  0  0
 18 19  1  0  0  0
 18 22  1  0  0  0
 19 20  2  0  0  0
 20 21  1  0  0  0
 21 22  2  0  0  0
  9 10  1  0  0  0
 10 11  1  0  0  0
 12 13  1  0  0  0
M  END
> <minimizedAffinity>
-8.52438

$$$$
696


 28 31  0  0  0  0  0  0  0  0999 V2000
   18.2602   63.1759   -9.3688 Br  0  0  0  0  0  0  0  0  0  0  0  0
   20.0899   63.2835   -9.8624 C   0  0  0  0  0  0  0  0  0  0  0  0
   21.0567   63.4769   -8.8665 C   0  0  0  0  0  0  0  0  0  0  0  0
   22.3841   63.5534   -9.1592 C   0  0  0  0  0  0  0  0  0  0  0  0
   22.7781   63.4377  -10.4808 C   0  0  0  0  0  0  0  0  0  0  0  0
   21.8257   63.2459  -11.4755 C   0  0  0  0  0  0  0  0  0  0  0  0
   20.4853   63.1679  -11.1765 C   0  0  0  0  0  0  0  0  0  0  0  0
   22.2088   63.1165  -12.9104 C   0  0  0  0  0  0  0  0  0  0  0  0
   23.3957   63.7168   -8.0798 C   0  0  0  0  0  0  0  0  0  0  0  0
   22.9670   64.4694   -6.8719 C   0  0  0  0  0  0  0  0  0  0  0  0
   21.4314   64.6610   -6.8508 C   0  0  0  0  0  0  0  0  0  0  0  0
   20.7554   63.6082   -7.5183 O   0  0  0  0  0  0  0  0  0  0  0  0
   23.7690   62.3707   -7.8071 O   0  0  0  0  0  0  0  0  0  0  0  0
   24.4016   62.0393   -8.4673 H   0  0  0  0  0  0  0  0  0  0  0  0
   23.4788   65.8973   -6.8511 C   0  0  0  0  0  0  0  0  0  0  0  0
   22.5356   66.8686   -6.3399 N   0  0  0  0  0  0  0  0  0  0  0  0
   21.5334   67.1621   -7.3646 C   0  0  0  0  0  0  0  0  0  0  0  0
   20.9721   68.5050   -7.0762 C   0  0  0  0  0  0  0  0  0  0  0  0
   21.8527   69.0441   -6.0001 C   0  0  0  0  0  0  0  0  0  0  0  0
   23.1154   68.1921   -6.1836 C   0  0  0  0  0  0  0  0  0  0  0  0
   22.0970   66.6298   -5.4390 H   0  0  0  0  0  0  0  0  0  0  0  0
   23.2427   63.7345   -5.6153 C   0  0  0  0  0  0  0  0  0  0  0  0
   24.3686   63.7170   -4.8343 N   0  0  0  0  0  0  0  0  0  0  0  0
   23.9965   63.7099   -3.4014 C   0  0  0  0  0  0  0  0  0  0  0  0
   25.0200   62.9020   -2.7028 C   0  0  0  0  0  0  0  0  0  0  0  0
   25.6052   61.9916   -3.7130 C   0  0  0  0  0  0  0  0  0  0  0  0
   25.3311   62.7134   -5.0311 C   0  0  0  0  0  0  0  0  0  0  0  0
   24.8882   64.7014   -4.8565 H   0  0  0  0  0  0  0  0  0  0  0  0
  1  2  1  0  0  0
  2  3  2  0  0  0
  2  7  1  0  0  0
  3  4  1  0  0  0
  3 12  1  0  0  0
  4  5  2  0  0  0
  4  9  1  0  0  0
  5  6  1  0  0  0
  6  7  2  0  0  0
  6  8  1  0  0  0
  9 10  1  0  0  0
  9 13  1  0  0  0
 10 11  1  0  0  0
 10 15  1  0  0  0
 10 22  1  0  0  0
 11 12  1  0  0  0
 15 16  1  0  0  0
 16 17  1  0  0  0
 16 20  1  0  0  0
 17 18  1  0  0  0
 18 19  1  0  0  0
 19 20  1  0  0  0
 22 23  1  0  0  0
 23 24  1  0  0  0
 23 27  1  0  0  0
 24 25  1  0  0  0
 25 26  1  0  0  0
 26 27  1  0  0  0
 16 21  1  0  0  0
 23 28  1  0  0  0
 13 14  1  0  0  0
M  CHG 1  16   1
M  CHG 1  23   1
M  END
> <minimizedAffinity>
-8.98801

$$$$
699


 32 35  0  0  0  0  0  0  0  0999 V2000
   19.5486   62.4995  -11.3596 C   0  0  0  0  0  0  0  0  0  0  0  0
   19.9627   61.8393  -12.4873 O   0  0  0  0  0  0  0  0  0  0  0  0
   20.3028   60.9386  -12.3375 H   0  0  0  0  0  0  0  0  0  0  0  0
   19.1122   61.5705  -10.2551 C   0  0  0  0  0  0  0  0  0  0  0  0
   18.0292   62.0977   -9.5134 O   0  0  0  0  0  0  0  0  0  0  0  0
   15.9102   60.2165  -10.6375 Br  0  0  0  0  0  0  0  0  0  0  0  0
   15.9777   62.1103  -10.8065 C   0  0  0  0  0  0  0  0  0  0  0  0
   14.9818   62.7628  -11.5058 C   0  0  0  0  0  0  0  0  0  0  0  0
   15.0050   64.1349  -11.6439 C   0  0  0  0  0  0  0  0  0  0  0  0
   16.0567   64.8083  -11.0566 C   0  0  0  0  0  0  0  0  0  0  0  0
   17.0483   64.1483  -10.3586 C   0  0  0  0  0  0  0  0  0  0  0  0
   17.0340   62.7755  -10.2151 C   0  0  0  0  0  0  0  0  0  0  0  0
   14.0059   64.7890  -12.3454 C   0  0  0  0  0  0  0  0  0  0  0  0
   12.9535   64.1168  -12.9326 C   0  0  0  0  0  0  0  0  0  0  0  0
   12.9300   62.7429  -12.7954 C   0  0  0  0  0  0  0  0  0  0  0  0
   13.9260   62.0904  -12.0960 C   0  0  0  0  0  0  0  0  0  0  0  0
   20.5634   63.4715  -10.8657 C   0  0  0  0  0  0  0  0  0  0  0  0
   21.3304   62.9950   -9.7362 N   0  0  0  0  0  0  0  0  0  0  0  0
   20.7734   63.6259   -8.5527 C   0  0  0  0  0  0  0  0  0  0  0  0
   21.6547   63.4040   -7.3149 C   0  0  0  0  0  0  0  0  0  0  0  0
   22.9547   63.9055   -7.5834 N   0  0  0  0  0  0  0  0  0  0  0  0
   23.1448   64.4329   -8.9507 C   0  0  0  0  0  0  0  0  0  0  0  0
   22.7206   63.3831   -9.9231 C   0  0  0  0  0  0  0  0  0  0  0  0
   24.0163   63.9302   -6.6720 C   0  0  0  0  0  0  0  0  0  0  0  0
   25.1240   64.4499   -7.1761 O   0  0  0  0  0  0  0  0  0  0  0  0
   21.2789   61.9637   -9.5979 H   0  0  0  0  0  0  0  0  0  0  0  0
   24.1282   63.5030   -5.3150 C   0  0  0  0  0  0  0  0  0  0  0  0
   23.3386   63.8855   -4.2684 C   0  0  0  0  0  0  0  0  0  0  0  0
   23.5023   63.4308   -2.9672 C   0  0  0  0  0  0  0  0  0  0  0  0
   24.4942   62.5513   -2.6727 C   0  0  0  0  0  0  0  0  0  0  0  0
   25.3100   62.1449   -3.7085 C   0  0  0  0  0  0  0  0  0  0  0  0
   25.1487   62.5950   -4.9946 C   0  0  0  0  0  0  0  0  0  0  0  0
  6  7  1  0  0  0
  7  8  2  0  0  0
  7 12  1  0  0  0
  8  9  1  0  0  0
  8 16  1  0  0  0
  9 10  2  0  0  0
  9 13  1  0  0  0
 10 11  1  0  0  0
 11 12  2  0  0  0
 12  5  1  0  0  0
  5  4  1  0  0  0
  4  1  1  0  0  0
  1  2  1  0  0  0
  1 17  1  0  0  0
 17 18  1  0  0  0
 18 19  1  0  0  0
 18 23  1  0  0  0
 19 20  1  0  0  0
 20 21  1  0  0  0
 21 22  1  0  0  0
 21 24  1  0  0  0
 22 23  1  0  0  0
 24 25  2  0  0  0
 24 27  1  0  0  0
 27 28  2  0  0  0
 27 32  1  0  0  0
 28 29  1  0  0  0
 29 30  2  0  0  0
 30 31  1  0  0  0
 31 32  2  0  0  0
 13 14  2  0  0  0
 14 15  1  0  0  0
 15 16  2  0  0  0
  2  3  1  0  0  0
 18 26  1  0  0  0
M  CHG 1  18   1
M  END
> <minimizedAffinity>
-9.47880

$$$$
706


 30 33  0  0  0  0  0  0  0  0999 V2000
   12.2829   64.9947  -15.3033 C   0  0  0  0  0  0  0  0  0  0  0  0
   14.4832   64.0821  -17.5923 Br  0  0  0  0  0  0  0  0  0  0  0  0
   13.8970   65.7998  -16.9396 C   0  0  0  0  0  0  0  0  0  0  0  0
   12.9735   66.0344  -15.9886 N   0  0  0  0  0  0  0  0  0  0  0  0
   12.8413   67.3584  -15.8109 C   0  0  0  0  0  0  0  0  0  0  0  0
   13.7146   67.9785  -16.6832 C   0  0  0  0  0  0  0  0  0  0  0  0
   14.3385   67.0005  -17.3529 N   0  0  0  0  0  0  0  0  0  0  0  0
   13.7723   69.3257  -16.6941 N   0  0  0  0  0  0  0  0  0  0  0  0
   13.0119   70.0967  -15.8855 C   0  0  0  0  0  0  0  0  0  0  0  0
   13.0971   71.3602  -15.9276 O   0  0  0  0  0  0  0  0  0  0  0  0
   12.1511   69.5260  -15.0232 N   0  0  0  0  0  0  0  0  0  0  0  0
   12.0859   68.1835  -15.0040 C   0  0  0  0  0  0  0  0  0  0  0  0
   11.2923   67.6438  -14.2065 O   0  0  0  0  0  0  0  0  0  0  0  0
   11.3467   70.3744  -14.1651 C   0  0  0  0  0  0  0  0  0  0  0  0
   14.6902   69.9672  -17.6129 C   0  0  0  0  0  0  0  0  0  0  0  0
   12.4280   64.9393  -13.8262 C   0  0  0  0  0  0  0  0  0  0  0  0
   12.9063   63.7242  -13.2574 N   0  0  0  0  0  0  0  0  0  0  0  0
   13.9567   63.6130  -12.4065 C   0  0  0  0  0  0  0  0  0  0  0  0
   14.1331   62.2931  -12.0715 C   0  0  0  0  0  0  0  0  0  0  0  0
   13.1713   61.6308  -12.7357 N   0  0  0  0  0  0  0  0  0  0  0  0
   12.4321   62.4903  -13.4507 C   0  0  0  0  0  0  0  0  0  0  0  0
   10.9307   62.0783  -14.5875 Br  0  0  0  0  0  0  0  0  0  0  0  0
   15.1107   61.8621  -11.2304 N   0  0  0  0  0  0  0  0  0  0  0  0
   15.9275   62.8014  -10.7204 C   0  0  0  0  0  0  0  0  0  0  0  0
   16.8387   62.4147   -9.9388 O   0  0  0  0  0  0  0  0  0  0  0  0
   15.8025   64.1077  -11.0129 N   0  0  0  0  0  0  0  0  0  0  0  0
   14.8417   64.5204  -11.8381 C   0  0  0  0  0  0  0  0  0  0  0  0
   14.6705   65.7287  -12.1532 O   0  0  0  0  0  0  0  0  0  0  0  0
   16.7081   65.0792  -10.4369 C   0  0  0  0  0  0  0  0  0  0  0  0
   15.2674   60.4527  -10.8965 C   0  0  0  0  0  0  0  0  0  0  0  0
  2  3  1  0  0  0
  3  4  1  0  0  0
  3  7  2  0  0  0
  4  5  1  0  0  0
  4  1  1  0  0  0
  5  6  2  0  0  0
  5 12  1  0  0  0
  6  7  1  0  0  0
  6  8  1  0  0  0
  8  9  1  0  0  0
  8 15  1  0  0  0
  9 10  2  0  0  0
  9 11  1  0  0  0
 11 12  1  0  0  0
 11 14  1  0  0  0
 12 13  2  0  0  0
  1 16  1  0  0  0
 16 17  1  0  0  0
 17 18  1  0  0  0
 17 21  1  0  0  0
 18 19  2  0  0  0
 18 27  1  0  0  0
 19 20  1  0  0  0
 19 23  1  0  0  0
 20 21  2  0  0  0
 21 22  1  0  0  0
 23 24  1  0  0  0
 23 30  1  0  0  0
 24 25  2  0  0  0
 24 26  1  0  0  0
 26 27  1  0  0  0
 26 29  1  0  0  0
 27 28  2  0  0  0
M  END
> <minimizedAffinity>
-4.61382

$$$$
708


 31 34  0  0  0  0  0  0  0  0999 V2000
   19.9921   63.3591  -10.0836 C   0  0  0  0  0  0  0  0  0  0  0  0
   18.7854   63.2376   -9.1996 C   0  0  0  0  0  0  0  0  0  0  0  0
   18.5423   60.0000   -9.4128 Br  0  0  0  0  0  0  0  0  0  0  0  0
   17.3735   61.3620  -10.0487 C   0  0  0  0  0  0  0  0  0  0  0  0
   17.6205   62.6954   -9.8682 N   0  0  0  0  0  0  0  0  0  0  0  0
   16.5781   63.3183  -10.4530 C   0  0  0  0  0  0  0  0  0  0  0  0
   15.6910   62.3995  -10.9901 C   0  0  0  0  0  0  0  0  0  0  0  0
   16.2237   61.1891  -10.7168 N   0  0  0  0  0  0  0  0  0  0  0  0
   14.5616   62.7297  -11.6398 N   0  0  0  0  0  0  0  0  0  0  0  0
   14.3017   64.0436  -11.7637 C   0  0  0  0  0  0  0  0  0  0  0  0
   13.2401   64.4088  -12.3720 O   0  0  0  0  0  0  0  0  0  0  0  0
   15.1367   64.9701  -11.2583 N   0  0  0  0  0  0  0  0  0  0  0  0
   16.2820   64.6387  -10.5993 C   0  0  0  0  0  0  0  0  0  0  0  0
   17.0471   65.5106  -10.1381 O   0  0  0  0  0  0  0  0  0  0  0  0
   13.6396   61.7629  -12.1965 C   0  0  0  0  0  0  0  0  0  0  0  0
   14.9498   65.9917  -11.3454 H   0  0  0  0  0  0  0  0  0  0  0  0
   20.9022   64.5052   -9.7469 C   0  0  0  0  0  0  0  0  0  0  0  0
   22.0678   64.0199   -9.0211 N   0  0  0  0  0  0  0  0  0  0  0  0
   22.3388   64.1255   -7.7002 C   0  0  0  0  0  0  0  0  0  0  0  0
   23.5465   63.5332   -7.4122 C   0  0  0  0  0  0  0  0  0  0  0  0
   24.0079   63.0637   -8.5864 N   0  0  0  0  0  0  0  0  0  0  0  0
   23.1111   63.3615   -9.5511 C   0  0  0  0  0  0  0  0  0  0  0  0
   23.2460   62.9362  -11.4080 Br  0  0  0  0  0  0  0  0  0  0  0  0
   24.0775   63.4838   -6.1764 N   0  0  0  0  0  0  0  0  0  0  0  0
   23.3550   64.0596   -5.1843 C   0  0  0  0  0  0  0  0  0  0  0  0
   23.8517   64.0140   -4.0175 O   0  0  0  0  0  0  0  0  0  0  0  0
   22.1658   64.6511   -5.4235 N   0  0  0  0  0  0  0  0  0  0  0  0
   21.6431   64.6945   -6.6661 C   0  0  0  0  0  0  0  0  0  0  0  0
   20.5403   65.2365   -6.9217 O   0  0  0  0  0  0  0  0  0  0  0  0
   25.3650   62.8436   -5.9180 C   0  0  0  0  0  0  0  0  0  0  0  0
   21.6562   65.0753   -4.6231 H   0  0  0  0  0  0  0  0  0  0  0  0
  3  4  1  0  0  0
  4  5  1  0  0  0
  4  8  2  0  0  0
  5  6  1  0  0  0
  5  2  1  0  0  0
  6  7  2  0  0  0
  6 13  1  0  0  0
  7  8  1  0  0  0
  7  9  1  0  0  0
  9 10  1  0  0  0
  9 15  1  0  0  0
 10 11  2  0  0  0
 10 12  1  0  0  0
 12 13  1  0  0  0
 13 14  2  0  0  0
  2  1  1  0  0  0
  1 17  1  0  0  0
 17 18  1  0  0  0
 18 19  1  0  0  0
 18 22  1  0  0  0
 19 20  2  0  0  0
 19 28  1  0  0  0
 20 21  1  0  0  0
 20 24  1  0  0  0
 21 22  2  0  0  0
 22 23  1  0  0  0
 24 25  1  0  0  0
 24 30  1  0  0  0
 25 26  2  0  0  0
 25 27  1  0  0  0
 27 28  1  0  0  0
 28 29  2  0  0  0
 12 16  1  0  0  0
 27 31  1  0  0  0
M  END
> <minimizedAffinity>
-7.11209

$$$$
709


 30 33  0  0  0  0  0  0  0  0999 V2000
   23.7643   64.4806   -8.1177 C   0  0  0  0  0  0  0  0  0  0  0  0
   21.7218   66.6080   -6.7662 Br  0  0  0  0  0  0  0  0  0  0  0  0
   22.7877   65.2316   -5.9817 C   0  0  0  0  0  0  0  0  0  0  0  0
   23.5918   64.4182   -6.7065 N   0  0  0  0  0  0  0  0  0  0  0  0
   24.1786   63.5825   -5.8182 C   0  0  0  0  0  0  0  0  0  0  0  0
   23.7406   63.8721   -4.5290 C   0  0  0  0  0  0  0  0  0  0  0  0
   22.8787   64.9024   -4.6837 N   0  0  0  0  0  0  0  0  0  0  0  0
   24.1906   63.1762   -3.4695 N   0  0  0  0  0  0  0  0  0  0  0  0
   25.0794   62.1806   -3.6329 C   0  0  0  0  0  0  0  0  0  0  0  0
   25.5099   61.5172   -2.6366 O   0  0  0  0  0  0  0  0  0  0  0  0
   25.5391   61.8581   -4.8554 N   0  0  0  0  0  0  0  0  0  0  0  0
   25.0875   62.5575   -5.9283 C   0  0  0  0  0  0  0  0  0  0  0  0
   25.4984   62.2858   -7.0946 O   0  0  0  0  0  0  0  0  0  0  0  0
   23.7398   63.4706   -2.1286 C   0  0  0  0  0  0  0  0  0  0  0  0
   26.2284   61.0903   -5.0046 H   0  0  0  0  0  0  0  0  0  0  0  0
   23.4843   63.2408   -8.8895 C   0  0  0  0  0  0  0  0  0  0  0  0
   22.4709   63.2792   -9.8838 N   0  0  0  0  0  0  0  0  0  0  0  0
   21.1401   63.2915   -9.7020 C   0  0  0  0  0  0  0  0  0  0  0  0
   20.5181   63.3215  -10.9327 C   0  0  0  0  0  0  0  0  0  0  0  0
   21.5266   63.3285  -11.8280 N   0  0  0  0  0  0  0  0  0  0  0  0
   22.7112   63.3044  -11.2281 C   0  0  0  0  0  0  0  0  0  0  0  0
   24.4491   63.3030  -12.0602 Br  0  0  0  0  0  0  0  0  0  0  0  0
   19.1883   63.3448  -11.0124 N   0  0  0  0  0  0  0  0  0  0  0  0
   18.4419   63.3388   -9.9050 C   0  0  0  0  0  0  0  0  0  0  0  0
   17.1671   63.3587   -9.9496 O   0  0  0  0  0  0  0  0  0  0  0  0
   18.9721   63.3103   -8.6695 N   0  0  0  0  0  0  0  0  0  0  0  0
   20.3090   63.2882   -8.5926 C   0  0  0  0  0  0  0  0  0  0  0  0
   20.8115   63.2647   -7.4472 O   0  0  0  0  0  0  0  0  0  0  0  0
   18.5237   63.3750  -12.2944 C   0  0  0  0  0  0  0  0  0  0  0  0
   18.3551   63.3068   -7.8174 H   0  0  0  0  0  0  0  0  0  0  0  0
  2  3  1  0  0  0
  3  4  1  0  0  0
  3  7  2  0  0  0
  4  5  1  0  0  0
  4  1  1  0  0  0
  5  6  2  0  0  0
  5 12  1  0  0  0
  6  7  1  0  0  0
  6  8  1  0  0  0
  8  9  1  0  0  0
  8 14  1  0  0  0
  9 10  2  0  0  0
  9 11  1  0  0  0
 11 12  1  0  0  0
 12 13  2  0  0  0
  1 16  1  0  0  0
 16 17  1  0  0  0
 17 18  1  0  0  0
 17 21  1  0  0  0
 18 19  2  0  0  0
 18 27  1  0  0  0
 19 20  1  0  0  0
 19 23  1  0  0  0
 20 21  2  0  0  0
 21 22  1  0  0  0
 23 24  1  0  0  0
 23 29  1  0  0  0
 24 25  2  0  0  0
 24 26  1  0  0  0
 26 27  1  0  0  0
 27 28  2  0  0  0
 11 15  1  0  0  0
 26 30  1  0  0  0
M  END
> <minimizedAffinity>
-6.02463

$$$$
716


 31 35  0  0  0  0  0  0  0  0999 V2000
   12.1569   66.6551  -15.5368 C   0  0  0  0  0  0  0  0  0  0  0  0
   13.0097   65.5178  -15.0216 C   0  0  0  0  0  0  0  0  0  0  0  0
   12.1711   64.6119  -14.1683 C   0  0  0  0  0  0  0  0  0  0  0  0
   11.1408   63.9725  -15.1094 C   0  0  0  0  0  0  0  0  0  0  0  0
   10.3237   65.0680  -15.7462 C   0  0  0  0  0  0  0  0  0  0  0  0
   11.1635   66.0586  -16.5103 C   0  0  0  0  0  0  0  0  0  0  0  0
    9.5462   65.7668  -14.6767 C   0  0  0  0  0  0  0  0  0  0  0  0
   10.5208   66.3857  -13.6998 C   0  0  0  0  0  0  0  0  0  0  0  0
   11.3886   67.3397  -14.4497 C   0  0  0  0  0  0  0  0  0  0  0  0
   11.4008   65.3118  -13.0987 C   0  0  0  0  0  0  0  0  0  0  0  0
   14.0703   71.4187  -17.2717 Br  0  0  0  0  0  0  0  0  0  0  0  0
   13.8372   69.5485  -16.9170 C   0  0  0  0  0  0  0  0  0  0  0  0
   12.8441   68.9598  -16.2261 N   0  0  0  0  0  0  0  0  0  0  0  0
   13.0145   67.6444  -16.1876 N   0  0  0  0  0  0  0  0  0  0  0  0
   14.1474   67.4093  -16.8745 C   0  0  0  0  0  0  0  0  0  0  0  0
   14.6644   68.5609  -17.3287 N   0  0  0  0  0  0  0  0  0  0  0  0
   12.9829   63.5392  -13.5549 C   0  0  0  0  0  0  0  0  0  0  0  0
   13.1415   62.4743  -14.2036 O   0  0  0  0  0  0  0  0  0  0  0  0
   13.5676   63.7080  -12.2667 N   0  0  0  0  0  0  0  0  0  0  0  0
   13.3898   64.6147  -11.7957 H   0  0  0  0  0  0  0  0  0  0  0  0
   14.3595   62.7366  -11.5994 C   0  0  0  0  0  0  0  0  0  0  0  0
   15.6348   62.9489  -11.1581 C   0  0  0  0  0  0  0  0  0  0  0  0
   16.0538   61.7988  -10.5788 N   0  0  0  0  0  0  0  0  0  0  0  0
   15.0870   60.9095  -10.6548 N   0  0  0  0  0  0  0  0  0  0  0  0
   14.0262   61.4378  -11.2740 C   0  0  0  0  0  0  0  0  0  0  0  0
   17.3413   61.5330   -9.9615 C   0  0  0  0  0  0  0  0  0  0  0  0
   16.4857   64.1197  -11.2290 C   0  0  0  0  0  0  0  0  0  0  0  0
   17.4117   64.2026  -12.0740 O   0  0  0  0  0  0  0  0  0  0  0  0
   16.3449   65.2423  -10.3688 N   0  0  0  0  0  0  0  0  0  0  0  0
   15.8495   66.0990  -10.7521 H   0  0  0  0  0  0  0  0  0  0  0  0
   16.6909   65.2924   -9.3915 H   0  0  0  0  0  0  0  0  0  0  0  0
 11 12  1  0  0  0
 12 13  2  0  0  0
 12 16  1  0  0  0
 13 14  1  0  0  0
 14 15  1  0  0  0
 14  1  1  0  0  0
 15 16  2  0  0  0
  1  2  1  0  0  0
  1  6  1  0  0  0
  1  9  1  0  0  0
  2  3  1  0  0  0
  3  4  1  0  0  0
  3 10  1  0  0  0
  3 17  1  0  0  0
  4  5  1  0  0  0
  5  6  1  0  0  0
  5  7  1  0  0  0
  7  8  1  0  0  0
  8  9  1  0  0  0
  8 10  1  0  0  0
 17 18  2  0  0  0
 17 19  1  0  0  0
 19 21  1  0  0  0
 21 22  2  0  0  0
 21 25  1  0  0  0
 22 23  1  0  0  0
 22 27  1  0  0  0
 23 24  1  0  0  0
 23 26  1  0  0  0
 24 25  2  0  0  0
 27 28  2  0  0  0
 27 29  1  0  0  0
 19 20  1  0  0  0
 29 30  1  0  0  0
 29 31  1  0  0  0
M  END
> <minimizedAffinity>
-6.48007

$$$$
723


 23 26  0  0  0  0  0  0  0  0999 V2000
   11.7472   65.5564  -15.9040 N   0  0  0  0  0  0  0  0  0  0  0  0
   11.9319   66.0977  -14.5942 C   0  0  0  0  0  0  0  0  0  0  0  0
   10.6623   66.3369  -13.8719 C   0  0  0  0  0  0  0  0  0  0  0  0
    9.5013   66.2156  -14.5857 O   0  0  0  0  0  0  0  0  0  0  0  0
    9.6158   66.6737  -15.8935 C   0  0  0  0  0  0  0  0  0  0  0  0
   10.5967   65.8767  -16.6918 C   0  0  0  0  0  0  0  0  0  0  0  0
   10.0324   62.8947  -15.2219 Br  0  0  0  0  0  0  0  0  0  0  0  0
   11.6778   62.4192  -16.0522 C   0  0  0  0  0  0  0  0  0  0  0  0
   12.1235   61.1745  -16.3336 N   0  0  0  0  0  0  0  0  0  0  0  0
   13.2892   61.2068  -16.9373 N   0  0  0  0  0  0  0  0  0  0  0  0
   13.6154   62.5068  -17.0532 C   0  0  0  0  0  0  0  0  0  0  0  0
   14.6764   63.1121  -17.5969 N   0  0  0  0  0  0  0  0  0  0  0  0
   14.7872   64.4525  -17.6159 C   0  0  0  0  0  0  0  0  0  0  0  0
   13.8264   65.2282  -17.0834 N   0  0  0  0  0  0  0  0  0  0  0  0
   12.7112   64.6811  -16.5085 C   0  0  0  0  0  0  0  0  0  0  0  0
   12.6162   63.3176  -16.5005 C   0  0  0  0  0  0  0  0  0  0  0  0
   14.0554   60.0573  -17.3813 C   0  0  0  0  0  0  0  0  0  0  0  0
   12.9203   65.3190  -13.8147 C   0  0  0  0  0  0  0  0  0  0  0  0
   12.6520   64.2780  -13.0253 N   0  0  0  0  0  0  0  0  0  0  0  0
   13.8461   63.8700  -12.5081 C   0  0  0  0  0  0  0  0  0  0  0  0
   14.7825   64.6921  -13.0148 N   0  0  0  0  0  0  0  0  0  0  0  0
   14.2003   65.5540  -13.7968 O   0  0  0  0  0  0  0  0  0  0  0  0
   14.0814   62.7461  -11.5730 C   0  0  0  0  0  0  0  0  0  0  0  0
  7  8  1  0  0  0
  8  9  2  0  0  0
  8 16  1  0  0  0
  9 10  1  0  0  0
 10 11  1  0  0  0
 10 17  1  0  0  0
 11 12  1  0  0  0
 11 16  2  0  0  0
 12 13  2  0  0  0
 13 14  1  0  0  0
 14 15  2  0  0  0
 15 16  1  0  0  0
 15  1  1  0  0  0
  1  2  1  0  0  0
  1  6  1  0  0  0
  2  3  1  0  0  0
  2 18  1  0  0  0
  3  4  1  0  0  0
  4  5  1  0  0  0
  5  6  1  0  0  0
 18 19  2  0  0  0
 18 22  1  0  0  0
 19 20  1  0  0  0
 20 21  2  0  0  0
 20 23  1  0  0  0
 21 22  1  0  0  0
M  END
> <minimizedAffinity>
-4.56444

$$$$
727


 21 24  0  0  0  0  0  0  0  0999 V2000
   21.0700   63.5617   -8.0793 Br  0  0  0  0  0  0  0  0  0  0  0  0
   21.9076   63.4512   -9.7852 C   0  0  0  0  0  0  0  0  0  0  0  0
   23.2309   63.6674  -10.0432 N   0  0  0  0  0  0  0  0  0  0  0  0
   23.4453   63.4804  -11.3237 N   0  0  0  0  0  0  0  0  0  0  0  0
   22.2980   63.1442  -11.9356 C   0  0  0  0  0  0  0  0  0  0  0  0
   21.9744   62.8419  -13.2032 N   0  0  0  0  0  0  0  0  0  0  0  0
   20.7317   62.5227  -13.5545 C   0  0  0  0  0  0  0  0  0  0  0  0
   19.7716   62.4991  -12.6349 N   0  0  0  0  0  0  0  0  0  0  0  0
   19.9929   62.7918  -11.3105 C   0  0  0  0  0  0  0  0  0  0  0  0
   21.2812   63.1167  -10.9667 C   0  0  0  0  0  0  0  0  0  0  0  0
   24.7141   63.6004  -12.0569 C   0  0  0  0  0  0  0  0  0  0  0  0
   18.9448   62.7929  -10.3902 N   0  0  0  0  0  0  0  0  0  0  0  0
   18.3564   64.0290   -9.9237 C   0  0  0  0  0  0  0  0  0  0  0  0
   16.9589   64.1406  -10.5685 C   0  0  0  0  0  0  0  0  0  0  0  0
   16.3403   62.7986  -10.6270 C   0  0  0  0  0  0  0  0  0  0  0  0
   15.0735   62.5037  -11.0000 N   0  0  0  0  0  0  0  0  0  0  0  0
   14.9191   61.1719  -10.9103 C   0  0  0  0  0  0  0  0  0  0  0  0
   16.0484   60.6047  -10.4907 N   0  0  0  0  0  0  0  0  0  0  0  0
   16.9319   61.6117  -10.3138 C   0  0  0  0  0  0  0  0  0  0  0  0
   18.3446   61.5943   -9.8622 C   0  0  0  0  0  0  0  0  0  0  0  0
   14.0360   63.4077  -11.4259 C   0  0  0  0  0  0  0  0  0  0  0  0
  1  2  1  0  0  0
  2  3  2  0  0  0
  2 10  1  0  0  0
  3  4  1  0  0  0
  4  5  1  0  0  0
  4 11  1  0  0  0
  5  6  1  0  0  0
  5 10  2  0  0  0
  6  7  2  0  0  0
  7  8  1  0  0  0
  8  9  2  0  0  0
  9 10  1  0  0  0
  9 12  1  0  0  0
 12 13  1  0  0  0
 12 20  1  0  0  0
 13 14  1  0  0  0
 14 15  1  0  0  0
 15 16  1  0  0  0
 15 19  2  0  0  0
 16 17  1  0  0  0
 16 21  1  0  0  0
 17 18  2  0  0  0
 18 19  1  0  0  0
 19 20  1  0  0  0
M  END
> <minimizedAffinity>
-7.07725

$$$$
729


 27 30  0  0  0  0  0  0  0  0999 V2000
   18.6790   62.9457  -10.3395 N   0  0  0  0  0  0  0  0  0  0  0  0
   18.0295   61.7455   -9.8945 C   0  0  0  0  0  0  0  0  0  0  0  0
   16.6515   61.7690  -10.5616 C   0  0  0  0  0  0  0  0  0  0  0  0
   16.2977   63.1294  -10.9823 N   0  0  0  0  0  0  0  0  0  0  0  0
   16.6540   64.0767   -9.9229 C   0  0  0  0  0  0  0  0  0  0  0  0
   18.1633   64.1831   -9.8063 C   0  0  0  0  0  0  0  0  0  0  0  0
   20.7280   63.7562   -8.0229 Br  0  0  0  0  0  0  0  0  0  0  0  0
   21.6383   63.4897   -9.6647 C   0  0  0  0  0  0  0  0  0  0  0  0
   22.9548   63.5974   -9.9185 N   0  0  0  0  0  0  0  0  0  0  0  0
   23.2283   63.3596  -11.1731 N   0  0  0  0  0  0  0  0  0  0  0  0
   22.0657   63.0813  -11.7932 C   0  0  0  0  0  0  0  0  0  0  0  0
   21.7520   62.7768  -13.0643 N   0  0  0  0  0  0  0  0  0  0  0  0
   20.4962   62.5456  -13.4571 C   0  0  0  0  0  0  0  0  0  0  0  0
   19.5158   62.6153  -12.5648 N   0  0  0  0  0  0  0  0  0  0  0  0
   19.7309   62.9144  -11.2617 C   0  0  0  0  0  0  0  0  0  0  0  0
   21.0387   63.1556  -10.8569 C   0  0  0  0  0  0  0  0  0  0  0  0
   24.5101   63.3694  -11.8639 C   0  0  0  0  0  0  0  0  0  0  0  0
   14.8519   63.1467  -11.1413 C   0  0  0  0  0  0  0  0  0  0  0  0
   14.4194   61.6892  -11.4595 C   0  0  0  0  0  0  0  0  0  0  0  0
   14.4492   64.0085  -12.2667 C   0  0  0  0  0  0  0  0  0  0  0  0
   15.2795   64.9843  -12.4928 O   0  0  0  0  0  0  0  0  0  0  0  0
   13.3156   63.9084  -13.0890 N   0  0  0  0  0  0  0  0  0  0  0  0
   12.2458   62.9591  -13.0241 C   0  0  0  0  0  0  0  0  0  0  0  0
   11.8442   62.3787  -14.3641 C   0  0  0  0  0  0  0  0  0  0  0  0
   11.9423   63.3320  -15.5047 C   0  0  0  0  0  0  0  0  0  0  0  0
   13.2152   64.1504  -15.4643 C   0  0  0  0  0  0  0  0  0  0  0  0
   13.1817   64.9152  -14.1666 C   0  0  0  0  0  0  0  0  0  0  0  0
  7  8  1  0  0  0
  8  9  2  0  0  0
  8 16  1  0  0  0
  9 10  1  0  0  0
 10 11  1  0  0  0
 10 17  1  0  0  0
 11 12  1  0  0  0
 11 16  2  0  0  0
 12 13  2  0  0  0
 13 14  1  0  0  0
 14 15  2  0  0  0
 15 16  1  0  0  0
 15  1  1  0  0  0
  1  2  1  0  0  0
  1  6  1  0  0  0
  2  3  1  0  0  0
  3  4  1  0  0  0
  4  5  1  0  0  0
  4 18  1  0  0  0
  5  6  1  0  0  0
 18 19  1  0  0  0
 18 20  1  0  0  0
 20 21  2  0  0  0
 20 22  1  0  0  0
 22 23  1  0  0  0
 22 27  1  0  0  0
 23 24  1  0  0  0
 24 25  1  0  0  0
 25 26  1  0  0  0
 26 27  1  0  0  0
M  END
> <minimizedAffinity>
-6.49896

$$$$
737


 21 24  0  0  0  0  0  0  0  0999 V2000
   17.2567   62.8230  -10.8293 C   0  0  0  0  0  0  0  0  0  0  0  0
   16.3639   63.7265  -11.1644 C   0  0  0  0  0  0  0  0  0  0  0  0
   14.9347   63.3973  -11.2784 C   0  0  0  0  0  0  0  0  0  0  0  0
   14.0261   64.2955  -11.6146 C   0  0  0  0  0  0  0  0  0  0  0  0
   14.5994   62.0461  -11.0014 N   0  0  0  0  0  0  0  0  0  0  0  0
   15.5884   61.0739  -10.6367 C   0  0  0  0  0  0  0  0  0  0  0  0
   16.8820   61.4866  -10.5609 N   0  0  0  0  0  0  0  0  0  0  0  0
   17.5855   60.4045  -10.2085 N   0  0  0  0  0  0  0  0  0  0  0  0
   16.7878   59.3366  -10.0614 C   0  0  0  0  0  0  0  0  0  0  0  0
   15.5437   59.7655  -10.3309 N   0  0  0  0  0  0  0  0  0  0  0  0
   13.6022   61.7491  -11.0650 H   0  0  0  0  0  0  0  0  0  0  0  0
   24.1749   63.0170  -10.9323 Br  0  0  0  0  0  0  0  0  0  0  0  0
   22.5796   63.3058   -9.9087 C   0  0  0  0  0  0  0  0  0  0  0  0
   21.3297   63.4783  -10.3538 N   0  0  0  0  0  0  0  0  0  0  0  0
   20.5083   63.6480   -9.3194 C   0  0  0  0  0  0  0  0  0  0  0  0
   21.2657   63.5795   -8.1932 N   0  0  0  0  0  0  0  0  0  0  0  0
   22.5501   63.3674   -8.5308 C   0  0  0  0  0  0  0  0  0  0  0  0
   19.0468   63.8643   -9.5349 C   0  0  0  0  0  0  0  0  0  0  0  0
   18.6121   63.1935  -10.7349 N   0  0  0  0  0  0  0  0  0  0  0  0
   19.4819   62.8819  -11.8449 C   0  0  0  0  0  0  0  0  0  0  0  0
   20.8451   63.4960  -11.7194 C   0  0  0  0  0  0  0  0  0  0  0  0
 12 13  1  0  0  0
 13 14  1  0  0  0
 13 17  2  0  0  0
 14 15  1  0  0  0
 14 21  1  0  0  0
 15 16  2  0  0  0
 15 18  1  0  0  0
 16 17  1  0  0  0
 18 19  1  0  0  0
 19 20  1  0  0  0
 19  1  1  0  0  0
 20 21  1  0  0  0
  1  2  2  0  0  0
  1  7  1  0  0  0
  2  3  1  0  0  0
  3  4  2  0  0  0
  3  5  1  0  0  0
  5  6  1  0  0  0
  6  7  1  0  0  0
  6 10  2  0  0  0
  7  8  1  0  0  0
  8  9  2  0  0  0
  9 10  1  0  0  0
  5 11  1  0  0  0
M  END
> <minimizedAffinity>
-8.34258

$$$$
743


 30 33  0  0  0  0  0  0  0  0999 V2000
   22.9232   62.9421   -9.1737 C   0  0  0  0  0  0  0  0  0  0  0  0
   23.9850   62.5629   -9.7714 O   0  0  0  0  0  0  0  0  0  0  0  0
   21.8134   63.4238   -9.9191 N   0  0  0  0  0  0  0  0  0  0  0  0
   21.8920   63.4820  -11.3526 C   0  0  0  0  0  0  0  0  0  0  0  0
   20.5872   63.2367  -12.0464 C   0  0  0  0  0  0  0  0  0  0  0  0
   19.3886   63.5457  -11.1984 C   0  0  0  0  0  0  0  0  0  0  0  0
   18.2812   63.9488  -12.0108 N   0  0  0  0  0  0  0  0  0  0  0  0
   17.1120   64.3032  -11.2804 C   0  0  0  0  0  0  0  0  0  0  0  0
   16.7555   63.3863  -10.1574 C   0  0  0  0  0  0  0  0  0  0  0  0
   17.7058   62.2554  -10.0029 C   0  0  0  0  0  0  0  0  0  0  0  0
   17.5756   61.0616   -9.4224 N   0  0  0  0  0  0  0  0  0  0  0  0
   18.7248   60.3826   -9.5427 C   0  0  0  0  0  0  0  0  0  0  0  0
   19.6080   61.1410  -10.2060 N   0  0  0  0  0  0  0  0  0  0  0  0
   18.9887   62.2933  -10.4918 C   0  0  0  0  0  0  0  0  0  0  0  0
   19.7496   64.5703  -10.1347 C   0  0  0  0  0  0  0  0  0  0  0  0
   20.6406   63.8365   -9.1543 C   0  0  0  0  0  0  0  0  0  0  0  0
   18.5809   64.7684  -12.5832 H   0  0  0  0  0  0  0  0  0  0  0  0
   20.6145   60.8804  -10.4604 H   0  0  0  0  0  0  0  0  0  0  0  0
   22.9259   62.8505   -7.7051 C   0  0  0  0  0  0  0  0  0  0  0  0
   24.0852   63.5573   -7.0732 C   0  0  0  0  0  0  0  0  0  0  0  0
   22.9992   65.6824   -6.3300 C   0  0  0  0  0  0  0  0  0  0  0  0
   22.2197   65.0003   -5.6011 O   0  0  0  0  0  0  0  0  0  0  0  0
   23.9677   64.9818   -7.0986 N   0  0  0  0  0  0  0  0  0  0  0  0
   24.6077   65.5379   -7.6970 H   0  0  0  0  0  0  0  0  0  0  0  0
   24.2747   70.8462   -5.7443 Br  0  0  0  0  0  0  0  0  0  0  0  0
   23.3384   69.2065   -6.1158 C   0  0  0  0  0  0  0  0  0  0  0  0
   23.7600   67.9828   -6.0025 O   0  0  0  0  0  0  0  0  0  0  0  0
   22.8623   67.1171   -6.3384 C   0  0  0  0  0  0  0  0  0  0  0  0
   21.7105   67.8164   -6.7188 C   0  0  0  0  0  0  0  0  0  0  0  0
   22.0400   69.1468   -6.5685 C   0  0  0  0  0  0  0  0  0  0  0  0
 25 26  1  0  0  0
 26 27  1  0  0  0
 26 30  2  0  0  0
 27 28  1  0  0  0
 28 29  2  0  0  0
 28 21  1  0  0  0
 29 30  1  0  0  0
 21 22  2  0  0  0
 21 23  1  0  0  0
 23 20  1  0  0  0
 20 19  1  0  0  0
 19  1  1  0  0  0
  1  2  2  0  0  0
  1  3  1  0  0  0
  3  4  1  0  0  0
  3 16  1  0  0  0
  4  5  1  0  0  0
  5  6  1  0  0  0
  6  7  1  0  0  0
  6 14  1  0  0  0
  6 15  1  0  0  0
  7  8  1  0  0  0
  8  9  1  0  0  0
  9 10  1  0  0  0
 10 11  1  0  0  0
 10 14  2  0  0  0
 11 12  2  0  0  0
 12 13  1  0  0  0
 13 14  1  0  0  0
 15 16  1  0  0  0
 23 24  1  0  0  0
  7 17  1  0  0  0
 13 18  1  0  0  0
M  END
> <minimizedAffinity>
-9.09007

$$$$
746


 30 33  0  0  0  0  0  0  0  0999 V2000
   20.9215   64.8022   -9.0514 C   0  0  0  0  0  0  0  0  0  0  0  0
   20.9182   65.9331   -9.6520 O   0  0  0  0  0  0  0  0  0  0  0  0
   20.4954   63.6912   -9.7881 N   0  0  0  0  0  0  0  0  0  0  0  0
   20.4525   62.3521   -9.2374 C   0  0  0  0  0  0  0  0  0  0  0  0
   19.0281   61.8905   -9.2600 C   0  0  0  0  0  0  0  0  0  0  0  0
   18.4068   62.0410  -10.6122 C   0  0  0  0  0  0  0  0  0  0  0  0
   17.9115   60.7434  -11.0372 N   0  0  0  0  0  0  0  0  0  0  0  0
   16.8376   60.3598  -10.1395 C   0  0  0  0  0  0  0  0  0  0  0  0
   15.5853   61.0898  -10.6382 C   0  0  0  0  0  0  0  0  0  0  0  0
   15.9299   62.5317  -10.6268 C   0  0  0  0  0  0  0  0  0  0  0  0
   15.1184   63.6067  -10.6253 N   0  0  0  0  0  0  0  0  0  0  0  0
   15.9010   64.6970  -10.6121 C   0  0  0  0  0  0  0  0  0  0  0  0
   17.1836   64.2911  -10.6057 N   0  0  0  0  0  0  0  0  0  0  0  0
   17.2381   62.9489  -10.6140 C   0  0  0  0  0  0  0  0  0  0  0  0
   19.4610   62.5125  -11.6138 C   0  0  0  0  0  0  0  0  0  0  0  0
   20.0693   63.8031  -11.1713 C   0  0  0  0  0  0  0  0  0  0  0  0
   18.6559   59.9984  -10.9351 H   0  0  0  0  0  0  0  0  0  0  0  0
   14.0679   63.6467  -10.6325 H   0  0  0  0  0  0  0  0  0  0  0  0
   21.3789   64.8196   -7.6516 C   0  0  0  0  0  0  0  0  0  0  0  0
   20.5153   64.0866   -6.6903 C   0  0  0  0  0  0  0  0  0  0  0  0
   22.8421   66.6536   -6.7484 C   0  0  0  0  0  0  0  0  0  0  0  0
   23.8404   65.9064   -6.7988 O   0  0  0  0  0  0  0  0  0  0  0  0
   21.5886   66.1664   -7.1599 N   0  0  0  0  0  0  0  0  0  0  0  0
   20.7627   66.7976   -7.1137 H   0  0  0  0  0  0  0  0  0  0  0  0
   25.2842   70.9787   -4.7609 Br  0  0  0  0  0  0  0  0  0  0  0  0
   23.9350   69.7957   -5.4585 C   0  0  0  0  0  0  0  0  0  0  0  0
   24.1255   68.5553   -5.8269 O   0  0  0  0  0  0  0  0  0  0  0  0
   22.9862   68.0174   -6.2640 C   0  0  0  0  0  0  0  0  0  0  0  0
   22.0220   68.9951   -6.1582 C   0  0  0  0  0  0  0  0  0  0  0  0
   22.6037   70.1290   -5.6506 C   0  0  0  0  0  0  0  0  0  0  0  0
 25 26  1  0  0  0
 26 27  1  0  0  0
 26 30  2  0  0  0
 27 28  1  0  0  0
 28 29  2  0  0  0
 28 21  1  0  0  0
 29 30  1  0  0  0
 21 22  2  0  0  0
 21 23  1  0  0  0
 23 19  1  0  0  0
 19 20  1  0  0  0
 19  1  1  0  0  0
  1  2  2  0  0  0
  1  3  1  0  0  0
  3  4  1  0  0  0
  3 16  1  0  0  0
  4  5  1  0  0  0
  5  6  1  0  0  0
  6  7  1  0  0  0
  6 14  1  0  0  0
  6 15  1  0  0  0
  7  8  1  0  0  0
  8  9  1  0  0  0
  9 10  1  0  0  0
 10 11  1  0  0  0
 10 14  2  0  0  0
 11 12  1  0  0  0
 12 13  2  0  0  0
 13 14  1  0  0  0
 15 16  1  0  0  0
 23 24  1  0  0  0
  7 17  1  0  0  0
 11 18  1  0  0  0
M  END
> <minimizedAffinity>
-7.86398

$$$$
754


 27 30  0  0  0  0  0  0  0  0999 V2000
   23.4336   63.0936  -10.0623 C   0  0  0  0  0  0  0  0  0  0  0  0
   24.0636   62.2872   -9.3631 O   0  0  0  0  0  0  0  0  0  0  0  0
   22.4241   63.8959   -9.4762 N   0  0  0  0  0  0  0  0  0  0  0  0
   22.1352   63.7712   -8.0620 C   0  0  0  0  0  0  0  0  0  0  0  0
   20.7093   63.3476   -7.8064 C   0  0  0  0  0  0  0  0  0  0  0  0
   19.9133   63.8683   -8.9303 N   0  0  0  0  0  0  0  0  0  0  0  0
   20.3134   65.1314   -9.4489 C   0  0  0  0  0  0  0  0  0  0  0  0
   21.6288   64.8659  -10.2045 C   0  0  0  0  0  0  0  0  0  0  0  0
   18.8370   63.0640   -9.3771 C   0  0  0  0  0  0  0  0  0  0  0  0
   17.6936   63.6147   -9.8715 N   0  0  0  0  0  0  0  0  0  0  0  0
   16.6650   62.8644  -10.2962 C   0  0  0  0  0  0  0  0  0  0  0  0
   16.7412   61.5171  -10.2416 N   0  0  0  0  0  0  0  0  0  0  0  0
   17.8301   60.8854   -9.7696 C   0  0  0  0  0  0  0  0  0  0  0  0
   18.8852   61.7006   -9.3336 C   0  0  0  0  0  0  0  0  0  0  0  0
   17.9358   59.4029   -9.7008 C   0  0  0  0  0  0  0  0  0  0  0  0
   15.4964   63.4860  -10.8036 N   0  0  0  0  0  0  0  0  0  0  0  0
   15.3565   64.9154  -10.9415 C   0  0  0  0  0  0  0  0  0  0  0  0
   14.9356   65.2585  -12.3391 C   0  0  0  0  0  0  0  0  0  0  0  0
   14.5581   64.1433  -13.0847 O   0  0  0  0  0  0  0  0  0  0  0  0
   13.6790   63.3420  -12.3614 C   0  0  0  0  0  0  0  0  0  0  0  0
   14.3778   62.6626  -11.2090 C   0  0  0  0  0  0  0  0  0  0  0  0
   26.2878   63.6036  -14.6048 Br  0  0  0  0  0  0  0  0  0  0  0  0
   24.8493   63.3921  -13.3297 C   0  0  0  0  0  0  0  0  0  0  0  0
   24.9254   63.3425  -12.0489 O   0  0  0  0  0  0  0  0  0  0  0  0
   23.7597   63.1925  -11.4961 C   0  0  0  0  0  0  0  0  0  0  0  0
   22.8337   63.1400  -12.5128 C   0  0  0  0  0  0  0  0  0  0  0  0
   23.5296   63.2669  -13.6877 C   0  0  0  0  0  0  0  0  0  0  0  0
 22 23  1  0  0  0
 23 24  1  0  0  0
 23 27  2  0  0  0
 24 25  1  0  0  0
 25 26  2  0  0  0
 25  1  1  0  0  0
 26 27  1  0  0  0
  1  2  2  0  0  0
  1  3  1  0  0  0
  3  4  1  0  0  0
  3  8  1  0  0  0
  4  5  1  0  0  0
  5  6  1  0  0  0
  6  7  1  0  0  0
  6  9  1  0  0  0
  7  8  1  0  0  0
  9 10  2  0  0  0
  9 14  1  0  0  0
 10 11  1  0  0  0
 11 12  2  0  0  0
 11 16  1  0  0  0
 12 13  1  0  0  0
 13 14  2  0  0  0
 13 15  1  0  0  0
 16 17  1  0  0  0
 16 21  1  0  0  0
 17 18  1  0  0  0
 18 19  1  0  0  0
 19 20  1  0  0  0
 20 21  1  0  0  0
M  END
> <minimizedAffinity>
-7.17432

$$$$
755


 28 31  0  0  0  0  0  0  0  0999 V2000
   13.7251   63.0494  -12.5907 C   0  0  0  0  0  0  0  0  0  0  0  0
   13.1453   61.9768  -12.8170 O   0  0  0  0  0  0  0  0  0  0  0  0
   14.6698   63.1615  -11.5367 N   0  0  0  0  0  0  0  0  0  0  0  0
   15.3478   64.4288  -11.2768 C   0  0  0  0  0  0  0  0  0  0  0  0
   16.3537   64.2581  -10.1405 C   0  0  0  0  0  0  0  0  0  0  0  0
   17.1607   63.0947  -10.4521 N   0  0  0  0  0  0  0  0  0  0  0  0
   16.5019   61.8332  -10.6545 C   0  0  0  0  0  0  0  0  0  0  0  0
   15.0100   62.0465  -10.6756 C   0  0  0  0  0  0  0  0  0  0  0  0
   18.5873   63.1821  -10.5597 C   0  0  0  0  0  0  0  0  0  0  0  0
   19.2198   62.9665  -11.7217 N   0  0  0  0  0  0  0  0  0  0  0  0
   20.5529   63.0539  -11.7915 C   0  0  0  0  0  0  0  0  0  0  0  0
   21.3017   63.3560  -10.7128 N   0  0  0  0  0  0  0  0  0  0  0  0
   20.7299   63.5837   -9.5170 C   0  0  0  0  0  0  0  0  0  0  0  0
   19.3551   63.4896   -9.4661 C   0  0  0  0  0  0  0  0  0  0  0  0
   21.2436   62.8144  -13.0832 C   0  0  0  0  0  0  0  0  0  0  0  0
   21.4732   63.9049   -8.3548 N   0  0  0  0  0  0  0  0  0  0  0  0
   20.8854   64.7206   -7.3120 C   0  0  0  0  0  0  0  0  0  0  0  0
   21.7887   64.6214   -6.1005 C   0  0  0  0  0  0  0  0  0  0  0  0
   23.0838   65.1423   -6.4454 N   0  0  0  0  0  0  0  0  0  0  0  0
   23.6230   64.6555   -7.6760 C   0  0  0  0  0  0  0  0  0  0  0  0
   22.8337   63.4503   -8.1408 C   0  0  0  0  0  0  0  0  0  0  0  0
   23.0888   66.5772   -6.3151 C   0  0  0  0  0  0  0  0  0  0  0  0
   14.4874   66.9063  -16.2440 Br  0  0  0  0  0  0  0  0  0  0  0  0
   13.6763   65.8202  -14.8973 C   0  0  0  0  0  0  0  0  0  0  0  0
   14.2239   64.7831  -14.3157 O   0  0  0  0  0  0  0  0  0  0  0  0
   13.4305   64.2335  -13.4302 C   0  0  0  0  0  0  0  0  0  0  0  0
   12.2733   64.9746  -13.4363 C   0  0  0  0  0  0  0  0  0  0  0  0
   12.4175   65.9788  -14.3587 C   0  0  0  0  0  0  0  0  0  0  0  0
 23 24  1  0  0  0
 24 25  1  0  0  0
 24 28  2  0  0  0
 25 26  1  0  0  0
 26 27  2  0  0  0
 26  1  1  0  0  0
 27 28  1  0  0  0
  1  2  2  0  0  0
  1  3  1  0  0  0
  3  4  1  0  0  0
  3  8  1  0  0  0
  4  5  1  0  0  0
  5  6  1  0  0  0
  6  7  1  0  0  0
  6  9  1  0  0  0
  7  8  1  0  0  0
  9 10  2  0  0  0
  9 14  1  0  0  0
 10 11  1  0  0  0
 11 12  2  0  0  0
 11 15  1  0  0  0
 12 13  1  0  0  0
 13 14  2  0  0  0
 13 16  1  0  0  0
 16 17  1  0  0  0
 16 21  1  0  0  0
 17 18  1  0  0  0
 18 19  1  0  0  0
 19 20  1  0  0  0
 19 22  1  0  0  0
 20 21  1  0  0  0
M  END
> <minimizedAffinity>
-8.96523

$$$$
767


 32 35  0  0  0  0  0  0  0  0999 V2000
   21.6262   63.6368   -7.6487 C   0  0  0  0  0  0  0  0  0  0  0  0
   19.8407   63.0268   -9.2700 C   0  0  0  0  0  0  0  0  0  0  0  0
   20.0558   61.7944   -9.0107 O   0  0  0  0  0  0  0  0  0  0  0  0
   20.6250   64.0014   -8.5925 N   0  0  0  0  0  0  0  0  0  0  0  0
   20.4556   65.0038   -8.7975 H   0  0  0  0  0  0  0  0  0  0  0  0
   16.9144   63.8179  -11.2816 C   0  0  0  0  0  0  0  0  0  0  0  0
   17.9705   64.0720  -12.0868 N   0  0  0  0  0  0  0  0  0  0  0  0
   19.0766   63.8159  -11.4486 O   0  0  0  0  0  0  0  0  0  0  0  0
   18.8145   63.3963  -10.2371 C   0  0  0  0  0  0  0  0  0  0  0  0
   17.4800   63.3980  -10.1366 N   0  0  0  0  0  0  0  0  0  0  0  0
   12.4319   65.0865  -13.9378 Br  0  0  0  0  0  0  0  0  0  0  0  0
   13.6666   64.4672  -12.6377 C   0  0  0  0  0  0  0  0  0  0  0  0
   14.9642   64.4817  -12.6727 O   0  0  0  0  0  0  0  0  0  0  0  0
   15.4983   63.9683  -11.5936 C   0  0  0  0  0  0  0  0  0  0  0  0
   14.4478   63.5838  -10.7807 C   0  0  0  0  0  0  0  0  0  0  0  0
   13.2625   63.8937  -11.4304 C   0  0  0  0  0  0  0  0  0  0  0  0
   23.0034   64.1405   -8.0247 C   0  0  0  0  0  0  0  0  0  0  0  0
   23.1149   64.3538   -9.4607 N   0  0  0  0  0  0  0  0  0  0  0  0
   23.7167   63.3614  -10.2531 C   0  0  0  0  0  0  0  0  0  0  0  0
   24.1245   62.3251   -9.6167 O   0  0  0  0  0  0  0  0  0  0  0  0
   22.7591   65.2161   -9.9116 H   0  0  0  0  0  0  0  0  0  0  0  0
   23.9262   63.3704  -11.6785 C   0  0  0  0  0  0  0  0  0  0  0  0
   25.2333   63.4327  -12.1596 C   0  0  0  0  0  0  0  0  0  0  0  0
   25.4618   63.4328  -13.5127 C   0  0  0  0  0  0  0  0  0  0  0  0
   24.4195   63.3735  -14.3848 C   0  0  0  0  0  0  0  0  0  0  0  0
   24.6576   63.3739  -15.7616 C   0  0  0  0  0  0  0  0  0  0  0  0
   25.9306   63.4327  -16.2744 C   0  0  0  0  0  0  0  0  0  0  0  0
   26.9770   63.4932  -15.3900 C   0  0  0  0  0  0  0  0  0  0  0  0
   26.7593   63.4938  -14.0302 C   0  0  0  0  0  0  0  0  0  0  0  0
   23.2108   63.3157  -13.9049 O   0  0  0  0  0  0  0  0  0  0  0  0
   22.9193   63.3119  -12.6090 C   0  0  0  0  0  0  0  0  0  0  0  0
   21.7113   63.2540  -12.2799 O   0  0  0  0  0  0  0  0  0  0  0  0
 11 12  1  0  0  0
 12 13  1  0  0  0
 12 16  2  0  0  0
 13 14  1  0  0  0
 14 15  2  0  0  0
 14  6  1  0  0  0
 15 16  1  0  0  0
  6  7  2  0  0  0
  6 10  1  0  0  0
  7  8  1  0  0  0
  8  9  1  0  0  0
  9 10  2  0  0  0
  9  2  1  0  0  0
  2  3  2  0  0  0
  2  4  1  0  0  0
  4  1  1  0  0  0
  1 17  1  0  0  0
 17 18  1  0  0  0
 18 19  1  0  0  0
 19 20  2  0  0  0
 19 22  1  0  0  0
 22 23  2  0  0  0
 22 31  1  0  0  0
 23 24  1  0  0  0
 24 25  2  0  0  0
 24 29  1  0  0  0
 25 26  1  0  0  0
 25 30  1  0  0  0
 26 27  2  0  0  0
 27 28  1  0  0  0
 28 29  2  0  0  0
 30 31  1  0  0  0
 31 32  2  0  0  0
  4  5  1  0  0  0
 18 21  1  0  0  0
M  END
> <minimizedAffinity>
-9.97919

$$$$
769


 26 29  0  0  0  0  0  0  0  0999 V2000
   19.3708   62.6648  -10.7122 C   0  0  0  0  0  0  0  0  0  0  0  0
   19.8644   62.6548  -11.9361 O   0  0  0  0  0  0  0  0  0  0  0  0
   20.2562   63.0429   -9.7139 N   0  0  0  0  0  0  0  0  0  0  0  0
   21.6491   63.3975  -10.0879 C   0  0  0  0  0  0  0  0  0  0  0  0
   21.9479   64.7877   -9.5790 C   0  0  0  0  0  0  0  0  0  0  0  0
   21.7538   64.8343   -8.1839 N   0  0  0  0  0  0  0  0  0  0  0  0
   21.3126   63.5880   -7.6578 C   0  0  0  0  0  0  0  0  0  0  0  0
   19.9925   63.1393   -8.3295 C   0  0  0  0  0  0  0  0  0  0  0  0
   14.1482   63.8050  -11.0958 Br  0  0  0  0  0  0  0  0  0  0  0  0
   15.6233   62.6626  -10.8340 C   0  0  0  0  0  0  0  0  0  0  0  0
   16.9370   63.1392  -10.8796 C   0  0  0  0  0  0  0  0  0  0  0  0
   17.9756   62.2697  -10.6831 C   0  0  0  0  0  0  0  0  0  0  0  0
   17.6449   60.9323  -10.4451 C   0  0  0  0  0  0  0  0  0  0  0  0
   16.4121   60.5382  -10.4120 O   0  0  0  0  0  0  0  0  0  0  0  0
   15.4123   61.3274  -10.5918 C   0  0  0  0  0  0  0  0  0  0  0  0
   14.2495   60.8486  -10.5418 O   0  0  0  0  0  0  0  0  0  0  0  0
   22.8133   65.4077   -7.4165 C   0  0  0  0  0  0  0  0  0  0  0  0
   23.4228   64.5209   -6.4092 C   0  0  0  0  0  0  0  0  0  0  0  0
   23.1086   64.5157   -5.0896 C   0  0  0  0  0  0  0  0  0  0  0  0
   23.7351   63.6524   -4.2254 C   0  0  0  0  0  0  0  0  0  0  0  0
   24.6859   62.7907   -4.7010 C   0  0  0  0  0  0  0  0  0  0  0  0
   25.0215   62.7776   -6.0362 C   0  0  0  0  0  0  0  0  0  0  0  0
   24.3862   63.6411   -6.8680 C   0  0  0  0  0  0  0  0  0  0  0  0
   25.1779   62.0231   -3.6591 O   0  0  0  0  0  0  0  0  0  0  0  0
   24.7805   62.6790   -2.4634 C   0  0  0  0  0  0  0  0  0  0  0  0
   23.6331   63.4132   -2.8460 O   0  0  0  0  0  0  0  0  0  0  0  0
  9 10  1  0  0  0
 10 11  2  0  0  0
 10 15  1  0  0  0
 11 12  1  0  0  0
 12 13  2  0  0  0
 12  1  1  0  0  0
 13 14  1  0  0  0
 14 15  1  0  0  0
 15 16  2  0  0  0
  1  2  2  0  0  0
  1  3  1  0  0  0
  3  4  1  0  0  0
  3  8  1  0  0  0
  4  5  1  0  0  0
  5  6  1  0  0  0
  6  7  1  0  0  0
  6 17  1  0  0  0
  7  8  1  0  0  0
 17 18  1  0  0  0
 18 19  2  0  0  0
 18 23  1  0  0  0
 19 20  1  0  0  0
 20 21  2  0  0  0
 20 26  1  0  0  0
 21 22  1  0  0  0
 21 24  1  0  0  0
 22 23  2  0  0  0
 24 25  1  0  0  0
 25 26  1  0  0  0
M  END
> <minimizedAffinity>
-9.91070

$$$$
776


 38 41  0  0  0  0  0  0  0  0999 V2000
   12.5294   65.6090  -15.2761 C   0  0  0  0  0  0  0  0  0  0  0  0
   11.6893   64.6001  -14.4825 C   0  0  0  0  0  0  0  0  0  0  0  0
   12.0788   64.6630  -13.0456 C   0  0  0  0  0  0  0  0  0  0  0  0
   13.5274   64.2480  -12.9195 C   0  0  0  0  0  0  0  0  0  0  0  0
   14.2142   64.3409  -14.1155 O   0  0  0  0  0  0  0  0  0  0  0  0
   13.9473   65.5056  -14.8218 C   0  0  0  0  0  0  0  0  0  0  0  0
   14.1289   65.0338  -11.8119 C   0  0  0  0  0  0  0  0  0  0  0  0
   15.5922   64.5949  -11.6465 C   0  0  0  0  0  0  0  0  0  0  0  0
   15.5899   63.2485  -11.1780 N   0  0  0  0  0  0  0  0  0  0  0  0
   14.2421   62.5868  -11.1909 C   0  0  0  0  0  0  0  0  0  0  0  0
   13.5499   62.7943  -12.4974 C   0  0  0  0  0  0  0  0  0  0  0  0
   16.6843   62.5312  -10.7356 C   0  0  0  0  0  0  0  0  0  0  0  0
   16.4265   61.3051  -10.3301 O   0  0  0  0  0  0  0  0  0  0  0  0
   12.0369   63.3357  -14.9645 O   0  0  0  0  0  0  0  0  0  0  0  0
   10.2286   64.7983  -14.7292 C   0  0  0  0  0  0  0  0  0  0  0  0
   12.4763   63.3692  -15.8511 H   0  0  0  0  0  0  0  0  0  0  0  0
   11.8644   70.1963  -12.7788 Br  0  0  0  0  0  0  0  0  0  0  0  0
   11.5643   69.0555  -14.2720 C   0  0  0  0  0  0  0  0  0  0  0  0
   12.1194   67.8010  -14.2565 C   0  0  0  0  0  0  0  0  0  0  0  0
   11.9661   66.9207  -15.2620 N   0  0  0  0  0  0  0  0  0  0  0  0
   11.2109   67.3691  -16.3099 C   0  0  0  0  0  0  0  0  0  0  0  0
   11.0205   66.5986  -17.2955 O   0  0  0  0  0  0  0  0  0  0  0  0
   10.6623   68.5728  -16.3568 N   0  0  0  0  0  0  0  0  0  0  0  0
   10.8151   69.4520  -15.3521 C   0  0  0  0  0  0  0  0  0  0  0  0
   10.3102   70.6015  -15.3578 O   0  0  0  0  0  0  0  0  0  0  0  0
   10.0912   68.8873  -17.1690 H   0  0  0  0  0  0  0  0  0  0  0  0
   18.0552   62.8887  -10.6414 C   0  0  0  0  0  0  0  0  0  0  0  0
   18.6693   63.0087   -9.3817 C   0  0  0  0  0  0  0  0  0  0  0  0
   19.9718   63.3260   -9.1615 C   0  0  0  0  0  0  0  0  0  0  0  0
   20.7659   63.5499  -10.3052 C   0  0  0  0  0  0  0  0  0  0  0  0
   20.1979   63.4401  -11.5282 C   0  0  0  0  0  0  0  0  0  0  0  0
   18.8455   63.1110  -11.7223 C   0  0  0  0  0  0  0  0  0  0  0  0
   20.5297   63.4372   -7.9229 O   0  0  0  0  0  0  0  0  0  0  0  0
   21.6722   64.0375   -7.4841 C   0  0  0  0  0  0  0  0  0  0  0  0
   21.4723   64.8318   -6.2390 C   0  0  0  0  0  0  0  0  0  0  0  0
   20.7350   64.0310   -5.2606 N   0  0  0  0  0  0  0  0  0  0  0  0
   21.3492   63.3823   -4.7471 H   0  0  0  0  0  0  0  0  0  0  0  0
   19.8826   63.6140   -5.6471 H   0  0  0  0  0  0  0  0  0  0  0  0
 17 18  1  0  0  0
 18 19  2  0  0  0
 18 24  1  0  0  0
 19 20  1  0  0  0
 20 21  1  0  0  0
 20  1  1  0  0  0
 21 22  2  0  0  0
 21 23  1  0  0  0
 23 24  1  0  0  0
 24 25  2  0  0  0
  1  2  1  0  0  0
  1  6  1  0  0  0
  2  3  1  0  0  0
  2 14  1  0  0  0
  2 15  1  0  0  0
  3  4  1  0  0  0
  4  5  1  0  0  0
  4  7  1  0  0  0
  4 11  1  0  0  0
  5  6  1  0  0  0
  7  8  1  0  0  0
  8  9  1  0  0  0
  9 10  1  0  0  0
  9 12  1  0  0  0
 10 11  1  0  0  0
 12 13  2  0  0  0
 12 27  1  0  0  0
 27 28  2  0  0  0
 27 32  1  0  0  0
 28 29  1  0  0  0
 29 30  2  0  0  0
 29 33  1  0  0  0
 30 31  1  0  0  0
 31 32  2  0  0  0
 33 34  1  0  0  0
 34 35  1  0  0  0
 35 36  1  0  0  0
 23 26  1  0  0  0
 36 37  1  0  0  0
 36 38  1  0  0  0
 14 16  1  0  0  0
M  END
> <minimizedAffinity>
-8.60583

$$$$
783


 39 42  0  0  0  0  0  0  0  0999 V2000
   17.6557   62.0217   -9.5465 C   0  0  0  0  0  0  0  0  0  0  0  0
   18.8737   61.6082  -10.2710 C   0  0  0  0  0  0  0  0  0  0  0  0
   20.1653   62.2349   -9.7322 C   0  0  0  0  0  0  0  0  0  0  0  0
   20.0474   63.7381   -9.6884 C   0  0  0  0  0  0  0  0  0  0  0  0
   18.7281   64.1489   -9.6603 O   0  0  0  0  0  0  0  0  0  0  0  0
   17.8851   63.3728   -8.9267 C   0  0  0  0  0  0  0  0  0  0  0  0
   20.7797   64.2873  -10.8994 C   0  0  0  0  0  0  0  0  0  0  0  0
   22.1847   64.6820  -10.5313 C   0  0  0  0  0  0  0  0  0  0  0  0
   22.7194   63.6972   -9.6260 N   0  0  0  0  0  0  0  0  0  0  0  0
   22.1169   63.6617   -8.3016 C   0  0  0  0  0  0  0  0  0  0  0  0
   20.7188   64.2226   -8.4255 C   0  0  0  0  0  0  0  0  0  0  0  0
   23.7649   62.8539  -10.0103 C   0  0  0  0  0  0  0  0  0  0  0  0
   24.1520   62.0152   -9.1172 O   0  0  0  0  0  0  0  0  0  0  0  0
   19.0501   60.2216  -10.0280 O   0  0  0  0  0  0  0  0  0  0  0  0
   18.8239   61.7544  -11.7571 C   0  0  0  0  0  0  0  0  0  0  0  0
   18.9518   60.0045   -9.0718 H   0  0  0  0  0  0  0  0  0  0  0  0
   14.1481   64.8196  -12.2949 Br  0  0  0  0  0  0  0  0  0  0  0  0
   14.8175   63.1628  -11.5894 C   0  0  0  0  0  0  0  0  0  0  0  0
   15.9688   63.1442  -10.8367 C   0  0  0  0  0  0  0  0  0  0  0  0
   16.4446   62.0064  -10.3420 N   0  0  0  0  0  0  0  0  0  0  0  0
   15.8149   60.8558  -10.5648 C   0  0  0  0  0  0  0  0  0  0  0  0
   16.2397   59.7436  -10.1074 O   0  0  0  0  0  0  0  0  0  0  0  0
   14.6907   60.8536  -11.2977 N   0  0  0  0  0  0  0  0  0  0  0  0
   14.1608   61.9729  -11.8246 C   0  0  0  0  0  0  0  0  0  0  0  0
   13.0980   61.9378  -12.5118 O   0  0  0  0  0  0  0  0  0  0  0  0
   14.1873   59.9326  -11.4759 H   0  0  0  0  0  0  0  0  0  0  0  0
   24.4849   62.7893  -11.2778 C   0  0  0  0  0  0  0  0  0  0  0  0
   23.7562   62.0136  -12.2824 N   0  0  0  0  0  0  0  0  0  0  0  0
   23.2899   61.1858  -11.8519 H   0  0  0  0  0  0  0  0  0  0  0  0
   24.4491   61.6330  -12.9735 H   0  0  0  0  0  0  0  0  0  0  0  0
   24.7804   64.1254  -11.9215 C   0  0  0  0  0  0  0  0  0  0  0  0
   25.1978   63.8180  -13.3400 C   0  0  0  0  0  0  0  0  0  0  0  0
   24.2667   63.8017  -14.3451 C   0  0  0  0  0  0  0  0  0  0  0  0
   24.6944   63.5132  -15.6381 C   0  0  0  0  0  0  0  0  0  0  0  0
   26.0145   63.2490  -15.9231 C   0  0  0  0  0  0  0  0  0  0  0  0
   26.9226   63.2752  -14.8835 C   0  0  0  0  0  0  0  0  0  0  0  0
   26.5291   63.5565  -13.5910 C   0  0  0  0  0  0  0  0  0  0  0  0
   26.3817   62.9694  -17.2256 O   0  0  0  0  0  0  0  0  0  0  0  0
   26.3977   62.0311  -17.6249 H   0  0  0  0  0  0  0  0  0  0  0  0
 17 18  1  0  0  0
 18 19  2  0  0  0
 18 24  1  0  0  0
 19 20  1  0  0  0
 20 21  1  0  0  0
 20  1  1  0  0  0
 21 22  2  0  0  0
 21 23  1  0  0  0
 23 24  1  0  0  0
 24 25  2  0  0  0
  1  2  1  0  0  0
  1  6  1  0  0  0
  2  3  1  0  0  0
  2 14  1  0  0  0
  2 15  1  0  0  0
  3  4  1  0  0  0
  4  5  1  0  0  0
  4  7  1  0  0  0
  4 11  1  0  0  0
  5  6  1  0  0  0
  7  8  1  0  0  0
  8  9  1  0  0  0
  9 10  1  0  0  0
  9 12  1  0  0  0
 10 11  1  0  0  0
 12 13  2  0  0  0
 12 27  1  0  0  0
 27 28  1  0  0  0
 27 31  1  0  0  0
 31 32  1  0  0  0
 32 33  2  0  0  0
 32 37  1  0  0  0
 33 34  1  0  0  0
 34 35  2  0  0  0
 35 36  1  0  0  0
 35 38  1  0  0  0
 36 37  2  0  0  0
 23 26  1  0  0  0
 28 29  1  0  0  0
 28 30  1  0  0  0
 38 39  1  0  0  0
 14 16  1  0  0  0
M  END
> <minimizedAffinity>
-7.70346

$$$$
784


 39 42  0  0  0  0  0  0  0  0999 V2000
   18.6156   63.5414  -10.5186 C   0  0  0  0  0  0  0  0  0  0  0  0
   19.2190   62.3916   -9.6953 C   0  0  0  0  0  0  0  0  0  0  0  0
   20.6472   62.8653   -9.3918 C   0  0  0  0  0  0  0  0  0  0  0  0
   21.3496   63.2763  -10.6560 C   0  0  0  0  0  0  0  0  0  0  0  0
   20.5735   62.9323  -11.7364 O   0  0  0  0  0  0  0  0  0  0  0  0
   19.3403   63.5758  -11.8009 C   0  0  0  0  0  0  0  0  0  0  0  0
   22.6118   62.4281  -10.7347 C   0  0  0  0  0  0  0  0  0  0  0  0
   23.7118   63.0772   -9.9333 C   0  0  0  0  0  0  0  0  0  0  0  0
   23.1422   63.9880   -8.9261 N   0  0  0  0  0  0  0  0  0  0  0  0
   22.4997   65.1564   -9.4509 C   0  0  0  0  0  0  0  0  0  0  0  0
   21.7603   64.7047  -10.7078 C   0  0  0  0  0  0  0  0  0  0  0  0
   23.1892   63.7158   -7.5593 C   0  0  0  0  0  0  0  0  0  0  0  0
   23.6974   62.6122   -7.1196 O   0  0  0  0  0  0  0  0  0  0  0  0
   18.5551   62.2024   -8.5030 O   0  0  0  0  0  0  0  0  0  0  0  0
   19.2043   61.1069  -10.4614 C   0  0  0  0  0  0  0  0  0  0  0  0
   18.6792   61.2648   -8.2076 H   0  0  0  0  0  0  0  0  0  0  0  0
   14.0226   61.0080  -11.0569 Br  0  0  0  0  0  0  0  0  0  0  0  0
   15.0362   62.5697  -10.7094 C   0  0  0  0  0  0  0  0  0  0  0  0
   16.4282   62.4853  -10.7408 C   0  0  0  0  0  0  0  0  0  0  0  0
   17.2090   63.5425  -10.5070 N   0  0  0  0  0  0  0  0  0  0  0  0
   16.5690   64.7195  -10.2339 C   0  0  0  0  0  0  0  0  0  0  0  0
   17.2623   65.7479  -10.0066 O   0  0  0  0  0  0  0  0  0  0  0  0
   15.2305   64.8314  -10.1977 N   0  0  0  0  0  0  0  0  0  0  0  0
   14.4313   63.7752  -10.4307 C   0  0  0  0  0  0  0  0  0  0  0  0
   13.1621   63.8805  -10.3966 O   0  0  0  0  0  0  0  0  0  0  0  0
   14.8160   65.7761   -9.9794 H   0  0  0  0  0  0  0  0  0  0  0  0
   22.6827   64.6279   -6.5457 C   0  0  0  0  0  0  0  0  0  0  0  0
   22.4827   63.9471   -5.2894 N   0  0  0  0  0  0  0  0  0  0  0  0
   23.3854   63.7567   -4.2501 C   0  0  0  0  0  0  0  0  0  0  0  0
   24.5709   64.1476   -4.2366 O   0  0  0  0  0  0  0  0  0  0  0  0
   22.9699   63.0202   -2.9898 C   0  0  0  0  0  0  0  0  0  0  0  0
   21.5052   63.5399   -5.1618 H   0  0  0  0  0  0  0  0  0  0  0  0
   23.6543   65.8276   -6.3144 C   0  0  0  0  0  0  0  0  0  0  0  0
   22.9005   67.0938   -6.3288 C   0  0  0  0  0  0  0  0  0  0  0  0
   23.2949   68.3189   -6.0191 N   0  0  0  0  0  0  0  0  0  0  0  0
   22.2848   69.2199   -6.1661 C   0  0  0  0  0  0  0  0  0  0  0  0
   21.2155   68.5182   -6.5869 N   0  0  0  0  0  0  0  0  0  0  0  0
   21.5701   67.2200   -6.6916 C   0  0  0  0  0  0  0  0  0  0  0  0
   20.2832   68.9558   -6.7849 H   0  0  0  0  0  0  0  0  0  0  0  0
 17 18  1  0  0  0
 18 19  2  0  0  0
 18 24  1  0  0  0
 19 20  1  0  0  0
 20 21  1  0  0  0
 20  1  1  0  0  0
 21 22  2  0  0  0
 21 23  1  0  0  0
 23 24  1  0  0  0
 24 25  2  0  0  0
  1  2  1  0  0  0
  1  6  1  0  0  0
  2  3  1  0  0  0
  2 14  1  0  0  0
  2 15  1  0  0  0
  3  4  1  0  0  0
  4  5  1  0  0  0
  4  7  1  0  0  0
  4 11  1  0  0  0
  5  6  1  0  0  0
  7  8  1  0  0  0
  8  9  1  0  0  0
  9 10  1  0  0  0
  9 12  1  0  0  0
 10 11  1  0  0  0
 12 13  2  0  0  0
 12 27  1  0  0  0
 27 28  1  0  0  0
 27 33  1  0  0  0
 28 29  1  0  0  0
 29 30  2  0  0  0
 29 31  1  0  0  0
 33 34  1  0  0  0
 34 35  1  0  0  0
 34 38  2  0  0  0
 35 36  2  0  0  0
 36 37  1  0  0  0
 37 38  1  0  0  0
 23 26  1  0  0  0
 28 32  1  0  0  0
 37 39  1  0  0  0
 14 16  1  0  0  0
M  END
> <minimizedAffinity>
-3.84081

$$$$
786


 25 28  0  0  0  0  0  0  0  0999 V2000
   17.0237   63.1181  -11.0360 N   0  0  0  0  0  0  0  0  0  0  0  0
   15.8981   63.8838  -11.3781 C   0  0  0  0  0  0  0  0  0  0  0  0
   15.9554   64.6862  -12.3330 O   0  0  0  0  0  0  0  0  0  0  0  0
   16.9646   62.4545  -10.2403 H   0  0  0  0  0  0  0  0  0  0  0  0
   14.6413   63.7495  -10.6184 C   0  0  0  0  0  0  0  0  0  0  0  0
   13.5278   64.5043  -11.2998 C   0  0  0  0  0  0  0  0  0  0  0  0
   13.3713   63.9252  -12.6204 N   0  0  0  0  0  0  0  0  0  0  0  0
   13.5315   62.6039  -12.7996 C   0  0  0  0  0  0  0  0  0  0  0  0
   13.3281   62.3599  -14.1099 N   0  0  0  0  0  0  0  0  0  0  0  0
   13.0532   63.4738  -14.7216 N   0  0  0  0  0  0  0  0  0  0  0  0
   13.0764   64.4532  -13.8086 C   0  0  0  0  0  0  0  0  0  0  0  0
   12.8051   65.8833  -14.1530 C   0  0  0  0  0  0  0  0  0  0  0  0
   13.8655   61.6479  -11.7326 C   0  0  0  0  0  0  0  0  0  0  0  0
   14.2998   62.2901  -10.4633 C   0  0  0  0  0  0  0  0  0  0  0  0
   18.2458   63.2647  -11.7949 C   0  0  0  0  0  0  0  0  0  0  0  0
   23.3009   64.4207   -5.9221 Br  0  0  0  0  0  0  0  0  0  0  0  0
   22.5406   64.1319   -7.6562 C   0  0  0  0  0  0  0  0  0  0  0  0
   21.1824   64.0076   -7.8482 C   0  0  0  0  0  0  0  0  0  0  0  0
   20.6378   63.8028   -9.0809 N   0  0  0  0  0  0  0  0  0  0  0  0
   21.4594   63.7198  -10.1430 C   0  0  0  0  0  0  0  0  0  0  0  0
   20.7133   63.5187  -11.2429 N   0  0  0  0  0  0  0  0  0  0  0  0
   19.4128   63.4706  -10.9000 C   0  0  0  0  0  0  0  0  0  0  0  0
   19.3794   63.6513   -9.5332 C   0  0  0  0  0  0  0  0  0  0  0  0
   22.8367   63.8417   -9.9823 C   0  0  0  0  0  0  0  0  0  0  0  0
   23.3864   64.0474   -8.7417 C   0  0  0  0  0  0  0  0  0  0  0  0
 16 17  1  0  0  0
 17 18  2  0  0  0
 17 25  1  0  0  0
 18 19  1  0  0  0
 19 20  1  0  0  0
 19 23  1  0  0  0
 20 21  2  0  0  0
 20 24  1  0  0  0
 21 22  1  0  0  0
 22 23  2  0  0  0
 22 15  1  0  0  0
 15  1  1  0  0  0
  1  2  1  0  0  0
  2  3  2  0  0  0
  2  5  1  0  0  0
  5  6  1  0  0  0
  5 14  1  0  0  0
  6  7  1  0  0  0
  7  8  1  0  0  0
  7 11  1  0  0  0
  8  9  2  0  0  0
  8 13  1  0  0  0
  9 10  1  0  0  0
 10 11  2  0  0  0
 11 12  1  0  0  0
 13 14  1  0  0  0
 24 25  2  0  0  0
  1  4  1  0  0  0
M  END
> <minimizedAffinity>
-7.61355

$$$$
789


 21 24  0  0  0  0  0  0  0  0999 V2000
   17.1750   62.0747  -10.4364 C   0  0  0  0  0  0  0  0  0  0  0  0
   16.8897   60.8511  -10.3335 O   0  0  0  0  0  0  0  0  0  0  0  0
   16.1713   62.9570  -10.9106 N   0  0  0  0  0  0  0  0  0  0  0  0
   14.8883   62.4590  -11.2484 C   0  0  0  0  0  0  0  0  0  0  0  0
   14.1800   63.2651  -12.2720 C   0  0  0  0  0  0  0  0  0  0  0  0
   14.8729   64.4291  -12.7451 N   0  0  0  0  0  0  0  0  0  0  0  0
   15.4260   65.2011  -11.6479 C   0  0  0  0  0  0  0  0  0  0  0  0
   16.5160   64.3479  -11.0278 C   0  0  0  0  0  0  0  0  0  0  0  0
   13.8854   65.1204  -13.5167 C   0  0  0  0  0  0  0  0  0  0  0  0
   12.5875   64.9275  -12.7729 C   0  0  0  0  0  0  0  0  0  0  0  0
   12.8766   63.8483  -11.7535 C   0  0  0  0  0  0  0  0  0  0  0  0
   23.7585   64.6055   -7.0759 Br  0  0  0  0  0  0  0  0  0  0  0  0
   22.4876   63.9889   -8.3787 C   0  0  0  0  0  0  0  0  0  0  0  0
   21.1892   63.6872   -8.0319 C   0  0  0  0  0  0  0  0  0  0  0  0
   20.2795   63.2504   -8.9413 N   0  0  0  0  0  0  0  0  0  0  0  0
   19.0046   62.9015   -8.8682 N   0  0  0  0  0  0  0  0  0  0  0  0
   18.5211   62.5306  -10.0619 C   0  0  0  0  0  0  0  0  0  0  0  0
   19.6078   62.6730  -10.9251 C   0  0  0  0  0  0  0  0  0  0  0  0
   20.7011   63.1228  -10.2127 C   0  0  0  0  0  0  0  0  0  0  0  0
   21.9796   63.4188  -10.5665 N   0  0  0  0  0  0  0  0  0  0  0  0
   22.8954   63.8514   -9.6867 C   0  0  0  0  0  0  0  0  0  0  0  0
 12 13  1  0  0  0
 13 14  2  0  0  0
 13 21  1  0  0  0
 14 15  1  0  0  0
 15 16  1  0  0  0
 15 19  1  0  0  0
 16 17  2  0  0  0
 17 18  1  0  0  0
 17  1  1  0  0  0
 18 19  2  0  0  0
 19 20  1  0  0  0
 20 21  2  0  0  0
  1  2  2  0  0  0
  1  3  1  0  0  0
  3  4  1  0  0  0
  3  8  1  0  0  0
  4  5  1  0  0  0
  5  6  1  0  0  0
  5 11  1  0  0  0
  6  7  1  0  0  0
  6  9  1  0  0  0
  7  8  1  0  0  0
  9 10  1  0  0  0
 10 11  1  0  0  0
M  END
> <minimizedAffinity>
-7.00592

$$$$
790


 25 28  0  0  0  0  0  0  0  0999 V2000
   13.1506   64.6357  -13.5478 C   0  0  0  0  0  0  0  0  0  0  0  0
   13.2480   65.8136  -13.0982 O   0  0  0  0  0  0  0  0  0  0  0  0
   12.5712   64.3859  -14.8184 N   0  0  0  0  0  0  0  0  0  0  0  0
   12.4975   62.9862  -15.2646 C   0  0  0  0  0  0  0  0  0  0  0  0
   11.3165   62.9707  -16.2353 C   0  0  0  0  0  0  0  0  0  0  0  0
   10.3331   63.8447  -15.6683 N   0  0  0  0  0  0  0  0  0  0  0  0
   10.5856   65.2759  -16.0075 C   0  0  0  0  0  0  0  0  0  0  0  0
   12.0649   65.4612  -15.6586 C   0  0  0  0  0  0  0  0  0  0  0  0
    9.2618   63.5260  -14.8501 C   0  0  0  0  0  0  0  0  0  0  0  0
    8.4781   64.5019  -14.4970 O   0  0  0  0  0  0  0  0  0  0  0  0
   18.5488   62.7552   -9.4465 Br  0  0  0  0  0  0  0  0  0  0  0  0
   17.0104   63.0902  -10.5174 C   0  0  0  0  0  0  0  0  0  0  0  0
   16.0313   62.1554  -10.6423 C   0  0  0  0  0  0  0  0  0  0  0  0
   14.9567   62.3831  -11.3874 N   0  0  0  0  0  0  0  0  0  0  0  0
   13.8867   61.6324  -11.6549 N   0  0  0  0  0  0  0  0  0  0  0  0
   13.0800   62.3312  -12.4703 C   0  0  0  0  0  0  0  0  0  0  0  0
   13.6474   63.5569  -12.7302 C   0  0  0  0  0  0  0  0  0  0  0  0
   14.8458   63.5612  -12.0249 C   0  0  0  0  0  0  0  0  0  0  0  0
   15.8039   64.4945  -11.9119 N   0  0  0  0  0  0  0  0  0  0  0  0
   16.8929   64.2876  -11.1681 C   0  0  0  0  0  0  0  0  0  0  0  0
    8.8593   62.2411  -14.3032 C   0  0  0  0  0  0  0  0  0  0  0  0
    7.7407   62.0341  -13.5942 O   0  0  0  0  0  0  0  0  0  0  0  0
    7.6225   60.8047  -13.2252 C   0  0  0  0  0  0  0  0  0  0  0  0
    8.6976   60.0851  -13.6830 C   0  0  0  0  0  0  0  0  0  0  0  0
    9.4706   61.0121  -14.3634 C   0  0  0  0  0  0  0  0  0  0  0  0
 11 12  1  0  0  0
 12 13  2  0  0  0
 12 20  1  0  0  0
 13 14  1  0  0  0
 14 15  1  0  0  0
 14 18  1  0  0  0
 15 16  2  0  0  0
 16 17  1  0  0  0
 17 18  2  0  0  0
 17  1  1  0  0  0
 18 19  1  0  0  0
 19 20  2  0  0  0
  1  2  2  0  0  0
  1  3  1  0  0  0
  3  4  1  0  0  0
  3  8  1  0  0  0
  4  5  1  0  0  0
  5  6  1  0  0  0
  6  7  1  0  0  0
  6  9  1  0  0  0
  7  8  1  0  0  0
  9 10  2  0  0  0
  9 21  1  0  0  0
 21 22  1  0  0  0
 21 25  2  0  0  0
 22 23  1  0  0  0
 23 24  2  0  0  0
 24 25  1  0  0  0
M  END
> <minimizedAffinity>
-6.05054

$$$$
797


 28 31  0  0  0  0  0  0  0  0999 V2000
   21.6758   64.2986  -10.5257 O   0  0  0  0  0  0  0  0  0  0  0  0
   20.7612   63.3069  -10.8124 C   0  0  0  0  0  0  0  0  0  0  0  0
   20.5432   62.9942  -12.0004 O   0  0  0  0  0  0  0  0  0  0  0  0
   20.0622   62.6389   -9.6907 C   0  0  0  0  0  0  0  0  0  0  0  0
   18.6782   62.4225  -10.0009 N   0  0  0  0  0  0  0  0  0  0  0  0
   18.0237   61.1746  -10.0625 C   0  0  0  0  0  0  0  0  0  0  0  0
   18.4861   60.0205   -9.8687 O   0  0  0  0  0  0  0  0  0  0  0  0
   16.6073   61.4131  -10.4145 C   0  0  0  0  0  0  0  0  0  0  0  0
   16.4375   62.7639  -10.5539 C   0  0  0  0  0  0  0  0  0  0  0  0
   15.2264   63.3037  -10.8790 C   0  0  0  0  0  0  0  0  0  0  0  0
   14.1605   62.4579  -11.0682 C   0  0  0  0  0  0  0  0  0  0  0  0
   14.3310   61.0943  -10.9269 C   0  0  0  0  0  0  0  0  0  0  0  0
   15.5492   60.5395  -10.5993 C   0  0  0  0  0  0  0  0  0  0  0  0
   17.7241   63.4157  -10.2986 C   0  0  0  0  0  0  0  0  0  0  0  0
   17.9125   64.6697  -10.3462 O   0  0  0  0  0  0  0  0  0  0  0  0
   22.9897   64.0916  -10.0780 C   0  0  0  0  0  0  0  0  0  0  0  0
   24.7258   63.1474   -1.9467 Br  0  0  0  0  0  0  0  0  0  0  0  0
   24.5519   63.1887   -3.8564 C   0  0  0  0  0  0  0  0  0  0  0  0
   23.5631   63.9204   -4.4768 C   0  0  0  0  0  0  0  0  0  0  0  0
   23.4083   63.9736   -5.8173 N   0  0  0  0  0  0  0  0  0  0  0  0
   24.2268   63.3013   -6.6462 C   0  0  0  0  0  0  0  0  0  0  0  0
   24.0872   63.3428   -7.9824 N   0  0  0  0  0  0  0  0  0  0  0  0
   23.1178   64.0609   -8.5979 C   0  0  0  0  0  0  0  0  0  0  0  0
   22.2660   64.7578   -7.7672 C   0  0  0  0  0  0  0  0  0  0  0  0
   22.4259   64.7034   -6.3856 C   0  0  0  0  0  0  0  0  0  0  0  0
   21.6653   65.3267   -5.6287 O   0  0  0  0  0  0  0  0  0  0  0  0
   25.2401   62.5498   -6.0455 C   0  0  0  0  0  0  0  0  0  0  0  0
   25.4074   62.4880   -4.6794 C   0  0  0  0  0  0  0  0  0  0  0  0
 17 18  1  0  0  0
 18 19  2  0  0  0
 18 28  1  0  0  0
 19 20  1  0  0  0
 20 21  1  0  0  0
 20 25  1  0  0  0
 21 22  2  0  0  0
 21 27  1  0  0  0
 22 23  1  0  0  0
 23 24  2  0  0  0
 23 16  1  0  0  0
 24 25  1  0  0  0
 25 26  2  0  0  0
 16  1  1  0  0  0
  1  2  1  0  0  0
  2  3  2  0  0  0
  2  4  1  0  0  0
  4  5  1  0  0  0
  5  6  1  0  0  0
  5 14  1  0  0  0
  6  7  2  0  0  0
  6  8  1  0  0  0
  8  9  2  0  0  0
  8 13  1  0  0  0
  9 10  1  0  0  0
  9 14  1  0  0  0
 10 11  2  0  0  0
 11 12  1  0  0  0
 12 13  2  0  0  0
 14 15  2  0  0  0
 27 28  2  0  0  0
M  END
> <minimizedAffinity>
-9.70870

$$$$
800


 29 32  0  0  0  0  0  0  0  0999 V2000
   23.3960   63.4362   -8.5498 C   0  0  0  0  0  0  0  0  0  0  0  0
   23.8661   62.2697   -8.5117 O   0  0  0  0  0  0  0  0  0  0  0  0
   22.4381   63.7207   -9.4935 O   0  0  0  0  0  0  0  0  0  0  0  0
   21.3283   64.5600   -9.2352 C   0  0  0  0  0  0  0  0  0  0  0  0
   13.9067   61.5039  -11.2026 Br  0  0  0  0  0  0  0  0  0  0  0  0
   15.4959   62.4723  -10.7713 C   0  0  0  0  0  0  0  0  0  0  0  0
   16.6526   61.7730  -10.5024 C   0  0  0  0  0  0  0  0  0  0  0  0
   17.7721   62.4509  -10.1981 N   0  0  0  0  0  0  0  0  0  0  0  0
   17.7951   63.7986  -10.1504 C   0  0  0  0  0  0  0  0  0  0  0  0
   18.9350   64.4622   -9.8417 N   0  0  0  0  0  0  0  0  0  0  0  0
   20.0856   63.8213   -9.5717 C   0  0  0  0  0  0  0  0  0  0  0  0
   20.0816   62.4466   -9.6165 C   0  0  0  0  0  0  0  0  0  0  0  0
   18.9046   61.7615   -9.9349 C   0  0  0  0  0  0  0  0  0  0  0  0
   18.8903   60.5203   -9.9779 O   0  0  0  0  0  0  0  0  0  0  0  0
   16.6392   64.5053  -10.4187 C   0  0  0  0  0  0  0  0  0  0  0  0
   15.4658   63.8580  -10.7344 C   0  0  0  0  0  0  0  0  0  0  0  0
   23.9215   64.4145   -7.5619 C   0  0  0  0  0  0  0  0  0  0  0  0
   23.6534   64.0275   -6.2087 N   0  0  0  0  0  0  0  0  0  0  0  0
   22.4731   64.3162   -5.4606 C   0  0  0  0  0  0  0  0  0  0  0  0
   21.4794   64.9663   -5.8962 O   0  0  0  0  0  0  0  0  0  0  0  0
   22.6223   63.7482   -4.1645 N   0  0  0  0  0  0  0  0  0  0  0  0
   23.9627   63.2360   -4.0323 C   0  0  0  0  0  0  0  0  0  0  0  0
   24.8153   64.0576   -3.1020 C   0  0  0  0  0  0  0  0  0  0  0  0
   25.9254   63.1224   -2.7383 C   0  0  0  0  0  0  0  0  0  0  0  0
   25.5048   61.7336   -3.1211 C   0  0  0  0  0  0  0  0  0  0  0  0
   24.0306   61.8720   -3.4340 C   0  0  0  0  0  0  0  0  0  0  0  0
   24.5397   63.2779   -5.3747 C   0  0  0  0  0  0  0  0  0  0  0  0
   25.6106   62.7684   -5.7797 O   0  0  0  0  0  0  0  0  0  0  0  0
   21.8686   63.7240   -3.4562 H   0  0  0  0  0  0  0  0  0  0  0  0
  5  6  1  0  0  0
  6  7  2  0  0  0
  6 16  1  0  0  0
  7  8  1  0  0  0
  8  9  1  0  0  0
  8 13  1  0  0  0
  9 10  2  0  0  0
  9 15  1  0  0  0
 10 11  1  0  0  0
 11 12  2  0  0  0
 11  4  1  0  0  0
 12 13  1  0  0  0
 13 14  2  0  0  0
  4  3  1  0  0  0
  3  1  1  0  0  0
  1  2  2  0  0  0
  1 17  1  0  0  0
 17 18  1  0  0  0
 18 19  1  0  0  0
 18 27  1  0  0  0
 19 20  2  0  0  0
 19 21  1  0  0  0
 21 22  1  0  0  0
 22 23  1  0  0  0
 22 26  1  0  0  0
 22 27  1  0  0  0
 23 24  1  0  0  0
 24 25  1  0  0  0
 25 26  1  0  0  0
 27 28  2  0  0  0
 15 16  2  0  0  0
 21 29  1  0  0  0
M  END
> <minimizedAffinity>
-9.14598

$$$$
803


 31 34  0  0  0  0  0  0  0  0999 V2000
   18.5526   61.1146   -9.1877 Br  0  0  0  0  0  0  0  0  0  0  0  0
   17.5785   62.3308  -10.2747 C   0  0  0  0  0  0  0  0  0  0  0  0
   16.3562   62.0599  -10.7829 C   0  0  0  0  0  0  0  0  0  0  0  0
   15.6295   62.9422  -11.4750 N   0  0  0  0  0  0  0  0  0  0  0  0
   16.1346   64.1585  -11.6770 C   0  0  0  0  0  0  0  0  0  0  0  0
   15.4149   65.0725  -12.3867 N   0  0  0  0  0  0  0  0  0  0  0  0
   14.2192   64.8139  -12.8976 C   0  0  0  0  0  0  0  0  0  0  0  0
   13.6752   63.5648  -12.7023 C   0  0  0  0  0  0  0  0  0  0  0  0
   12.4372   63.2328  -13.2158 C   0  0  0  0  0  0  0  0  0  0  0  0
   11.6722   64.1360  -13.9547 C   0  0  0  0  0  0  0  0  0  0  0  0
   12.2266   65.3833  -14.1439 C   0  0  0  0  0  0  0  0  0  0  0  0
   13.4671   65.7205  -13.6309 C   0  0  0  0  0  0  0  0  0  0  0  0
   14.4243   62.6477  -11.9751 C   0  0  0  0  0  0  0  0  0  0  0  0
   13.9419   61.5081  -11.7911 O   0  0  0  0  0  0  0  0  0  0  0  0
   17.3577   64.4548  -11.1792 N   0  0  0  0  0  0  0  0  0  0  0  0
   18.1372   63.6355  -10.4866 C   0  0  0  0  0  0  0  0  0  0  0  0
   17.6470   65.4604  -11.4093 H   0  0  0  0  0  0  0  0  0  0  0  0
   19.4095   63.8263  -10.0493 N   0  0  0  0  0  0  0  0  0  0  0  0
   19.8492   64.1206  -11.3097 H   0  0  0  0  0  0  0  0  0  0  0  0
   20.6635   64.0146   -9.6188 C   0  0  0  0  0  0  0  0  0  0  0  0
   21.7346   63.5321  -10.3821 C   0  0  0  0  0  0  0  0  0  0  0  0
   22.9898   63.4939   -9.8697 C   0  0  0  0  0  0  0  0  0  0  0  0
   23.2345   63.9339   -8.5918 C   0  0  0  0  0  0  0  0  0  0  0  0
   22.2266   64.4260   -7.7926 C   0  0  0  0  0  0  0  0  0  0  0  0
   20.9626   64.4520   -8.3336 C   0  0  0  0  0  0  0  0  0  0  0  0
   21.5810   63.1911  -11.8019 C   0  0  0  0  0  0  0  0  0  0  0  0
   20.5339   62.5866  -12.1462 O   0  0  0  0  0  0  0  0  0  0  0  0
   22.4836   63.4692  -12.7869 O   0  0  0  0  0  0  0  0  0  0  0  0
   23.8209   63.0089  -12.7545 C   0  0  0  0  0  0  0  0  0  0  0  0
   24.6491   63.7108  -13.8348 C   0  0  0  0  0  0  0  0  0  0  0  0
   26.1091   63.6167  -13.4609 C   0  0  0  0  0  0  0  0  0  0  0  0
  1  2  1  0  0  0
  2  3  2  0  0  0
  2 16  1  0  0  0
  3  4  1  0  0  0
  4  5  1  0  0  0
  4 13  1  0  0  0
  5  6  2  0  0  0
  5 15  1  0  0  0
  6  7  1  0  0  0
  7  8  2  0  0  0
  7 12  1  0  0  0
  8  9  1  0  0  0
  8 13  1  0  0  0
  9 10  2  0  0  0
 10 11  1  0  0  0
 11 12  2  0  0  0
 13 14  2  0  0  0
 15 16  2  0  0  0
 16 18  1  0  0  0
 18 20  1  0  0  0
 20 21  2  0  0  0
 20 25  1  0  0  0
 21 22  1  0  0  0
 21 26  1  0  0  0
 22 23  2  0  0  0
 23 24  1  0  0  0
 24 25  2  0  0  0
 26 27  2  0  0  0
 26 28  1  0  0  0
 28 29  1  0  0  0
 29 30  1  0  0  0
 30 31  1  0  0  0
 15 17  1  0  0  0
 18 19  1  0  0  0
M  END
> <minimizedAffinity>
-7.85482

$$$$
814


 31 34  0  0  0  0  0  0  0  0999 V2000
   20.6765   63.9238   -9.4129 N   0  0  0  0  0  0  0  0  0  0  0  0
   21.4862   63.6664  -10.4146 N   0  0  0  0  0  0  0  0  0  0  0  0
   22.7123   63.3622   -9.9640 C   0  0  0  0  0  0  0  0  0  0  0  0
   22.6649   63.4332   -8.6257 N   0  0  0  0  0  0  0  0  0  0  0  0
   21.3890   63.7856   -8.2897 C   0  0  0  0  0  0  0  0  0  0  0  0
   20.8786   63.9788   -6.9335 C   0  0  0  0  0  0  0  0  0  0  0  0
   21.6320   65.0378   -6.1639 C   0  0  0  0  0  0  0  0  0  0  0  0
   23.0129   64.5692   -5.7612 C   0  0  0  0  0  0  0  0  0  0  0  0
   23.9608   64.4659   -6.9157 C   0  0  0  0  0  0  0  0  0  0  0  0
   23.7625   63.1841   -7.7123 C   0  0  0  0  0  0  0  0  0  0  0  0
   19.2930   64.2853   -9.4977 C   0  0  0  0  0  0  0  0  0  0  0  0
   18.4326   63.1129   -9.8085 C   0  0  0  0  0  0  0  0  0  0  0  0
   18.8600   61.9740   -9.4813 O   0  0  0  0  0  0  0  0  0  0  0  0
   12.9324   63.5399  -12.5794 Br  0  0  0  0  0  0  0  0  0  0  0  0
   14.6455   63.3984  -11.7141 C   0  0  0  0  0  0  0  0  0  0  0  0
   15.4655   64.5101  -11.6237 C   0  0  0  0  0  0  0  0  0  0  0  0
   16.7055   64.4144  -10.9995 C   0  0  0  0  0  0  0  0  0  0  0  0
   17.1461   63.2278  -10.4607 C   0  0  0  0  0  0  0  0  0  0  0  0
   16.3058   62.1423  -10.5686 C   0  0  0  0  0  0  0  0  0  0  0  0
   15.0774   62.2082  -11.1792 C   0  0  0  0  0  0  0  0  0  0  0  0
   23.9021   63.0132  -10.7525 C   0  0  0  0  0  0  0  0  0  0  0  0
   24.2636   64.0361  -11.6854 N   0  0  0  0  0  0  0  0  0  0  0  0
   24.1901   65.0286  -11.4186 H   0  0  0  0  0  0  0  0  0  0  0  0
   24.7322   63.7557  -13.0008 C   0  0  0  0  0  0  0  0  0  0  0  0
   26.0655   63.5578  -13.2798 C   0  0  0  0  0  0  0  0  0  0  0  0
   26.5043   63.2835  -14.5494 C   0  0  0  0  0  0  0  0  0  0  0  0
   25.6068   63.2031  -15.5674 C   0  0  0  0  0  0  0  0  0  0  0  0
   24.2717   63.4012  -15.2924 C   0  0  0  0  0  0  0  0  0  0  0  0
   23.8187   63.6768  -14.0189 C   0  0  0  0  0  0  0  0  0  0  0  0
   26.0178   62.9305  -16.8504 O   0  0  0  0  0  0  0  0  0  0  0  0
   25.4936   61.8717  -17.6127 C   0  0  0  0  0  0  0  0  0  0  0  0
 14 15  1  0  0  0
 15 16  2  0  0  0
 15 20  1  0  0  0
 16 17  1  0  0  0
 17 18  2  0  0  0
 18 19  1  0  0  0
 18 12  1  0  0  0
 19 20  2  0  0  0
 12 13  2  0  0  0
 12 11  1  0  0  0
 11  1  1  0  0  0
  1  2  1  0  0  0
  1  5  2  0  0  0
  2  3  2  0  0  0
  3  4  1  0  0  0
  3 21  1  0  0  0
  4  5  1  0  0  0
  4 10  1  0  0  0
  5  6  1  0  0  0
  6  7  1  0  0  0
  7  8  1  0  0  0
  8  9  1  0  0  0
  9 10  1  0  0  0
 21 22  1  0  0  0
 22 24  1  0  0  0
 24 25  2  0  0  0
 24 29  1  0  0  0
 25 26  1  0  0  0
 26 27  2  0  0  0
 27 28  1  0  0  0
 27 30  1  0  0  0
 28 29  2  0  0  0
 30 31  1  0  0  0
 22 23  1  0  0  0
M  END
> <minimizedAffinity>
-9.50227

$$$$
827


 29 32  0  0  0  0  0  0  0  0999 V2000
   12.0301   63.8983  -16.1790 C   0  0  0  0  0  0  0  0  0  0  0  0
   12.6026   64.7544  -15.1426 N   0  0  0  0  0  0  0  0  0  0  0  0
   12.0463   66.0081  -15.2179 C   0  0  0  0  0  0  0  0  0  0  0  0
   12.4683   67.1447  -14.7223 C   0  0  0  0  0  0  0  0  0  0  0  0
   11.9507   68.5435  -14.7356 C   0  0  0  0  0  0  0  0  0  0  0  0
   10.7697   68.7518  -15.6304 C   0  0  0  0  0  0  0  0  0  0  0  0
    9.6244   67.8378  -15.2637 C   0  0  0  0  0  0  0  0  0  0  0  0
    9.6471   66.6028  -16.1425 C   0  0  0  0  0  0  0  0  0  0  0  0
   10.8962   65.9140  -16.0901 N   0  0  0  0  0  0  0  0  0  0  0  0
   11.2217   64.8825  -17.0841 C   0  0  0  0  0  0  0  0  0  0  0  0
   12.9484   63.3035  -16.9542 O   0  0  0  0  0  0  0  0  0  0  0  0
   13.6154   64.9404  -15.6310 H   0  0  0  0  0  0  0  0  0  0  0  0
   12.7115   62.5534  -17.5188 H   0  0  0  0  0  0  0  0  0  0  0  0
    7.6347   60.2135  -13.9255 Br  0  0  0  0  0  0  0  0  0  0  0  0
    8.9855   61.3408  -14.6256 C   0  0  0  0  0  0  0  0  0  0  0  0
    9.0191   62.6720  -14.2551 C   0  0  0  0  0  0  0  0  0  0  0  0
    9.9989   63.5076  -14.7480 C   0  0  0  0  0  0  0  0  0  0  0  0
   10.9564   63.0325  -15.6138 C   0  0  0  0  0  0  0  0  0  0  0  0
   10.9203   61.7200  -15.9773 C   0  0  0  0  0  0  0  0  0  0  0  0
    9.9338   60.8530  -15.4887 C   0  0  0  0  0  0  0  0  0  0  0  0
   12.9760   64.1308  -13.9816 C   0  0  0  0  0  0  0  0  0  0  0  0
   13.6161   64.7197  -12.9330 C   0  0  0  0  0  0  0  0  0  0  0  0
   14.1289   63.9939  -11.8444 C   0  0  0  0  0  0  0  0  0  0  0  0
   14.0032   62.6308  -11.7893 C   0  0  0  0  0  0  0  0  0  0  0  0
   13.3502   62.0236  -12.8521 C   0  0  0  0  0  0  0  0  0  0  0  0
   12.8502   62.7392  -13.9186 C   0  0  0  0  0  0  0  0  0  0  0  0
   14.5116   61.8970  -10.7303 O   0  0  0  0  0  0  0  0  0  0  0  0
   15.5296   60.9332  -10.8256 C   0  0  0  0  0  0  0  0  0  0  0  0
   16.8428   61.6893  -10.5466 C   0  0  0  0  0  0  0  0  0  0  0  0
 14 15  1  0  0  0
 15 16  2  0  0  0
 15 20  1  0  0  0
 16 17  1  0  0  0
 17 18  2  0  0  0
 18 19  1  0  0  0
 18  1  1  0  0  0
 19 20  2  0  0  0
  1  2  1  0  0  0
  1 10  1  0  0  0
  1 11  1  0  0  0
  2  3  1  0  0  0
  2 21  1  0  0  0
  3  4  2  0  0  0
  3  9  1  0  0  0
  4  5  1  0  0  0
  5  6  1  0  0  0
  6  7  1  0  0  0
  7  8  1  0  0  0
  8  9  1  0  0  0
  9 10  1  0  0  0
 21 22  2  0  0  0
 21 26  1  0  0  0
 22 23  1  0  0  0
 23 24  2  0  0  0
 24 25  1  0  0  0
 24 27  1  0  0  0
 25 26  2  0  0  0
 27 28  1  0  0  0
 28 29  1  0  0  0
  2 12  1  0  0  0
 11 13  1  0  0  0
M  CHG 1   2   1
M  END
> <minimizedAffinity>
-4.50707

$$$$
833


 28 31  0  0  0  0  0  0  0  0999 V2000
   19.7094   62.3411   -9.4032 C   0  0  0  0  0  0  0  0  0  0  0  0
   20.7483   62.9552  -10.2185 N   0  0  0  0  0  0  0  0  0  0  0  0
   20.5760   63.2207  -11.6424 C   0  0  0  0  0  0  0  0  0  0  0  0
   21.8455   63.5597  -12.3331 C   0  0  0  0  0  0  0  0  0  0  0  0
   22.9593   62.5736  -12.0935 C   0  0  0  0  0  0  0  0  0  0  0  0
   23.7967   63.1544  -10.9694 C   0  0  0  0  0  0  0  0  0  0  0  0
   23.1410   63.2754   -9.7005 C   0  0  0  0  0  0  0  0  0  0  0  0
   21.8309   63.1899   -9.3741 C   0  0  0  0  0  0  0  0  0  0  0  0
   21.4078   63.3603   -8.0413 N   0  0  0  0  0  0  0  0  0  0  0  0
   20.0409   62.9283   -8.0759 C   0  0  0  0  0  0  0  0  0  0  0  0
   19.8797   60.9831   -9.4772 O   0  0  0  0  0  0  0  0  0  0  0  0
   21.9258   62.7768   -7.3446 H   0  0  0  0  0  0  0  0  0  0  0  0
   19.7604   60.6105  -10.3759 H   0  0  0  0  0  0  0  0  0  0  0  0
   14.1106   63.8705  -11.3574 Br  0  0  0  0  0  0  0  0  0  0  0  0
   15.8647   63.3928  -10.7568 C   0  0  0  0  0  0  0  0  0  0  0  0
   16.7065   64.3733  -10.2848 C   0  0  0  0  0  0  0  0  0  0  0  0
   17.9909   64.0568   -9.8405 C   0  0  0  0  0  0  0  0  0  0  0  0
   18.3704   62.7131   -9.9027 C   0  0  0  0  0  0  0  0  0  0  0  0
   17.5473   61.7372  -10.3688 C   0  0  0  0  0  0  0  0  0  0  0  0
   16.2765   62.0713  -10.8049 C   0  0  0  0  0  0  0  0  0  0  0  0
   21.5317   64.7550   -7.7613 C   0  0  0  0  0  0  0  0  0  0  0  0
   22.2857   65.1982   -6.6878 C   0  0  0  0  0  0  0  0  0  0  0  0
   22.2796   66.5675   -6.4554 C   0  0  0  0  0  0  0  0  0  0  0  0
   21.5785   67.4820   -7.2192 C   0  0  0  0  0  0  0  0  0  0  0  0
   20.8247   66.9827   -8.3026 C   0  0  0  0  0  0  0  0  0  0  0  0
   20.8408   65.6522   -8.5184 C   0  0  0  0  0  0  0  0  0  0  0  0
   22.9827   64.3082   -5.9293 O   0  0  0  0  0  0  0  0  0  0  0  0
   24.2653   63.8722   -6.2968 C   0  0  0  0  0  0  0  0  0  0  0  0
 14 15  1  0  0  0
 15 16  2  0  0  0
 15 20  1  0  0  0
 16 17  1  0  0  0
 17 18  2  0  0  0
 18 19  1  0  0  0
 18  1  1  0  0  0
 19 20  2  0  0  0
  1  2  1  0  0  0
  1 10  1  0  0  0
  1 11  1  0  0  0
  2  3  1  0  0  0
  2  8  1  0  0  0
  3  4  1  0  0  0
  4  5  1  0  0  0
  5  6  1  0  0  0
  6  7  1  0  0  0
  7  8  2  0  0  0
  8  9  1  0  0  0
  9 10  1  0  0  0
  9 21  1  0  0  0
 21 22  2  0  0  0
 21 26  1  0  0  0
 22 23  1  0  0  0
 22 27  1  0  0  0
 23 24  2  0  0  0
 24 25  1  0  0  0
 25 26  2  0  0  0
 27 28  1  0  0  0
  9 12  1  0  0  0
 11 13  1  0  0  0
M  CHG 1   9   1
M  END
> <minimizedAffinity>
-7.54816

$$$$
834


 28 31  0  0  0  0  0  0  0  0999 V2000
   20.4225   63.4348  -10.9605 C   0  0  0  0  0  0  0  0  0  0  0  0
   20.3231   64.1222   -9.7134 N   0  0  0  0  0  0  0  0  0  0  0  0
   20.6172   65.4948   -9.4387 C   0  0  0  0  0  0  0  0  0  0  0  0
   21.4212   65.7920   -8.2327 C   0  0  0  0  0  0  0  0  0  0  0  0
   21.8166   64.6429   -7.3777 C   0  0  0  0  0  0  0  0  0  0  0  0
   20.6364   64.0783   -6.5863 C   0  0  0  0  0  0  0  0  0  0  0  0
   19.9589   63.0883   -7.4801 C   0  0  0  0  0  0  0  0  0  0  0  0
   19.8291   63.1093   -8.7959 C   0  0  0  0  0  0  0  0  0  0  0  0
   19.1739   62.0956   -9.5484 N   0  0  0  0  0  0  0  0  0  0  0  0
   20.0732   61.9740  -10.6571 C   0  0  0  0  0  0  0  0  0  0  0  0
   19.5374   63.9493  -11.9279 O   0  0  0  0  0  0  0  0  0  0  0  0
   19.1427   61.2270   -8.9573 H   0  0  0  0  0  0  0  0  0  0  0  0
   19.1591   63.1512  -12.3778 H   0  0  0  0  0  0  0  0  0  0  0  0
   26.1766   63.2622  -13.1884 Br  0  0  0  0  0  0  0  0  0  0  0  0
   24.3750   63.3062  -12.5469 C   0  0  0  0  0  0  0  0  0  0  0  0
   23.3077   63.2011  -13.4132 C   0  0  0  0  0  0  0  0  0  0  0  0
   22.0066   63.2389  -12.9276 C   0  0  0  0  0  0  0  0  0  0  0  0
   21.7311   63.3769  -11.6080 C   0  0  0  0  0  0  0  0  0  0  0  0
   22.8197   63.4857  -10.7169 C   0  0  0  0  0  0  0  0  0  0  0  0
   24.0993   63.4465  -11.2075 C   0  0  0  0  0  0  0  0  0  0  0  0
   17.8932   62.5446   -9.9082 C   0  0  0  0  0  0  0  0  0  0  0  0
   16.9781   61.6818  -10.5388 C   0  0  0  0  0  0  0  0  0  0  0  0
   15.7242   62.0902  -10.9057 C   0  0  0  0  0  0  0  0  0  0  0  0
   15.3021   63.3807  -10.6670 C   0  0  0  0  0  0  0  0  0  0  0  0
   16.1759   64.2404  -10.0531 C   0  0  0  0  0  0  0  0  0  0  0  0
   17.4401   63.8281   -9.6844 C   0  0  0  0  0  0  0  0  0  0  0  0
   14.0102   63.7914  -11.0473 O   0  0  0  0  0  0  0  0  0  0  0  0
   13.7811   64.2756  -12.3440 C   0  0  0  0  0  0  0  0  0  0  0  0
 14 15  1  0  0  0
 15 16  2  0  0  0
 15 20  1  0  0  0
 16 17  1  0  0  0
 17 18  2  0  0  0
 18 19  1  0  0  0
 18  1  1  0  0  0
 19 20  2  0  0  0
  1  2  1  0  0  0
  1 10  1  0  0  0
  1 11  1  0  0  0
  2  3  1  0  0  0
  2  8  1  0  0  0
  3  4  1  0  0  0
  4  5  1  0  0  0
  5  6  1  0  0  0
  6  7  1  0  0  0
  7  8  2  0  0  0
  8  9  1  0  0  0
  9 10  1  0  0  0
  9 21  1  0  0  0
 21 22  2  0  0  0
 21 26  1  0  0  0
 22 23  1  0  0  0
 23 24  2  0  0  0
 24 25  1  0  0  0
 24 27  1  0  0  0
 25 26  2  0  0  0
 27 28  1  0  0  0
  9 12  1  0  0  0
 11 13  1  0  0  0
M  CHG 1   9   1
M  END
> <minimizedAffinity>
-6.56277

$$$$
835


 27 30  0  0  0  0  0  0  0  0999 V2000
   20.0567   63.6997   -9.5055 C   0  0  0  0  0  0  0  0  0  0  0  0
   21.1017   63.3171  -10.4306 N   0  0  0  0  0  0  0  0  0  0  0  0
   21.2321   63.0442  -11.8463 C   0  0  0  0  0  0  0  0  0  0  0  0
   22.5705   63.4943  -12.3952 C   0  0  0  0  0  0  0  0  0  0  0  0
   23.6470   62.7984  -11.6323 C   0  0  0  0  0  0  0  0  0  0  0  0
   23.4636   62.9454  -10.1728 C   0  0  0  0  0  0  0  0  0  0  0  0
   22.2699   63.1875   -9.6231 C   0  0  0  0  0  0  0  0  0  0  0  0
   21.9603   63.3224   -8.2541 N   0  0  0  0  0  0  0  0  0  0  0  0
   20.5087   63.0479   -8.2305 C   0  0  0  0  0  0  0  0  0  0  0  0
   20.0036   65.0732   -9.2921 O   0  0  0  0  0  0  0  0  0  0  0  0
   22.3517   62.4985   -7.6897 H   0  0  0  0  0  0  0  0  0  0  0  0
   19.5348   65.2083   -8.4335 H   0  0  0  0  0  0  0  0  0  0  0  0
   14.3833   61.9341  -11.2877 Br  0  0  0  0  0  0  0  0  0  0  0  0
   16.1472   62.4569  -10.7371 C   0  0  0  0  0  0  0  0  0  0  0  0
   16.4426   63.7954  -10.6085 C   0  0  0  0  0  0  0  0  0  0  0  0
   17.7247   64.1636  -10.2022 C   0  0  0  0  0  0  0  0  0  0  0  0
   18.7099   63.2406   -9.9238 C   0  0  0  0  0  0  0  0  0  0  0  0
   18.3881   61.9034  -10.0596 C   0  0  0  0  0  0  0  0  0  0  0  0
   17.1217   61.5223  -10.4609 C   0  0  0  0  0  0  0  0  0  0  0  0
   22.2511   64.5427   -7.6536 C   0  0  0  0  0  0  0  0  0  0  0  0
   23.4499   64.8265   -7.0483 C   0  0  0  0  0  0  0  0  0  0  0  0
   23.6672   66.0682   -6.4469 C   0  0  0  0  0  0  0  0  0  0  0  0
   22.6906   67.0307   -6.4473 C   0  0  0  0  0  0  0  0  0  0  0  0
   21.4846   66.7556   -7.0544 C   0  0  0  0  0  0  0  0  0  0  0  0
   21.2777   65.5339   -7.6440 C   0  0  0  0  0  0  0  0  0  0  0  0
   24.4882   63.9179   -7.0028 O   0  0  0  0  0  0  0  0  0  0  0  0
   24.6974   63.1163   -5.8881 C   0  0  0  0  0  0  0  0  0  0  0  0
 13 14  1  0  0  0
 14 15  2  0  0  0
 14 19  1  0  0  0
 15 16  1  0  0  0
 16 17  2  0  0  0
 17 18  1  0  0  0
 17  1  1  0  0  0
 18 19  2  0  0  0
  1  2  1  0  0  0
  1  9  1  0  0  0
  1 10  1  0  0  0
  2  3  1  0  0  0
  2  7  1  0  0  0
  3  4  1  0  0  0
  4  5  1  0  0  0
  5  6  1  0  0  0
  6  7  2  0  0  0
  7  8  1  0  0  0
  8  9  1  0  0  0
  8 20  1  0  0  0
 20 21  2  0  0  0
 20 25  1  0  0  0
 21 22  1  0  0  0
 21 26  1  0  0  0
 22 23  2  0  0  0
 23 24  1  0  0  0
 24 25  2  0  0  0
 26 27  1  0  0  0
  8 11  1  0  0  0
 10 12  1  0  0  0
M  CHG 1   8   1
M  END
> <minimizedAffinity>
-9.22145

$$$$
836


 27 30  0  0  0  0  0  0  0  0999 V2000
   11.1910   64.5185  -15.2194 C   0  0  0  0  0  0  0  0  0  0  0  0
   12.5466   64.4916  -15.7099 N   0  0  0  0  0  0  0  0  0  0  0  0
   13.2501   63.8234  -16.7965 C   0  0  0  0  0  0  0  0  0  0  0  0
   14.4056   64.5679  -17.3423 C   0  0  0  0  0  0  0  0  0  0  0  0
   14.6169   65.9526  -16.7830 C   0  0  0  0  0  0  0  0  0  0  0  0
   14.2784   66.0606  -15.3669 C   0  0  0  0  0  0  0  0  0  0  0  0
   13.2839   65.3562  -14.8590 C   0  0  0  0  0  0  0  0  0  0  0  0
   12.7359   65.2537  -13.5485 N   0  0  0  0  0  0  0  0  0  0  0  0
   11.3774   64.8592  -13.7588 C   0  0  0  0  0  0  0  0  0  0  0  0
   10.5278   65.5614  -15.8981 O   0  0  0  0  0  0  0  0  0  0  0  0
   12.7794   66.2209  -13.1273 H   0  0  0  0  0  0  0  0  0  0  0  0
   10.9064   65.5712  -16.8113 H   0  0  0  0  0  0  0  0  0  0  0  0
    8.0423   59.2233  -15.9762 Br  0  0  0  0  0  0  0  0  0  0  0  0
    9.0051   60.8554  -15.7512 C   0  0  0  0  0  0  0  0  0  0  0  0
    9.7632   61.1019  -14.6223 C   0  0  0  0  0  0  0  0  0  0  0  0
   10.4548   62.2868  -14.4775 C   0  0  0  0  0  0  0  0  0  0  0  0
   10.4371   63.2845  -15.4292 C   0  0  0  0  0  0  0  0  0  0  0  0
    9.6716   63.0274  -16.5601 C   0  0  0  0  0  0  0  0  0  0  0  0
    8.9757   61.8421  -16.7129 C   0  0  0  0  0  0  0  0  0  0  0  0
   13.5080   64.3746  -12.8010 C   0  0  0  0  0  0  0  0  0  0  0  0
   14.6167   64.8182  -12.1188 C   0  0  0  0  0  0  0  0  0  0  0  0
   15.3967   63.9270  -11.3639 C   0  0  0  0  0  0  0  0  0  0  0  0
   15.0875   62.5984  -11.2785 C   0  0  0  0  0  0  0  0  0  0  0  0
   13.9522   62.1478  -11.9775 C   0  0  0  0  0  0  0  0  0  0  0  0
   13.2068   63.0482  -12.7102 C   0  0  0  0  0  0  0  0  0  0  0  0
   15.8154   61.6600  -10.5493 O   0  0  0  0  0  0  0  0  0  0  0  0
   15.7238   60.2769  -10.6591 C   0  0  0  0  0  0  0  0  0  0  0  0
 13 14  1  0  0  0
 14 15  2  0  0  0
 14 19  1  0  0  0
 15 16  1  0  0  0
 16 17  2  0  0  0
 17 18  1  0  0  0
 17  1  1  0  0  0
 18 19  2  0  0  0
  1  2  1  0  0  0
  1  9  1  0  0  0
  1 10  1  0  0  0
  2  3  1  0  0  0
  2  7  1  0  0  0
  3  4  1  0  0  0
  4  5  1  0  0  0
  5  6  1  0  0  0
  6  7  2  0  0  0
  7  8  1  0  0  0
  8  9  1  0  0  0
  8 20  1  0  0  0
 20 21  2  0  0  0
 20 25  1  0  0  0
 21 22  1  0  0  0
 22 23  2  0  0  0
 23 24  1  0  0  0
 23 26  1  0  0  0
 24 25  2  0  0  0
 26 27  1  0  0  0
  8 11  1  0  0  0
 10 12  1  0  0  0
M  CHG 1   8   1
M  END
> <minimizedAffinity>
-5.61367

$$$$
847


 31 34  0  0  0  0  0  0  0  0999 V2000
   22.9093   63.3348   -9.9504 C   0  0  0  0  0  0  0  0  0  0  0  0
   22.8584   63.5508   -8.6257 N   0  0  0  0  0  0  0  0  0  0  0  0
   21.5846   63.8383   -8.2998 C   0  0  0  0  0  0  0  0  0  0  0  0
   20.8297   63.7994   -9.4475 N   0  0  0  0  0  0  0  0  0  0  0  0
   21.6669   63.4917  -10.4228 N   0  0  0  0  0  0  0  0  0  0  0  0
   20.9327   64.1527   -7.0249 C   0  0  0  0  0  0  0  0  0  0  0  0
   21.7863   64.9114   -6.0444 C   0  0  0  0  0  0  0  0  0  0  0  0
   23.0165   64.1759   -5.6236 C   0  0  0  0  0  0  0  0  0  0  0  0
   24.0763   64.4502   -6.6654 C   0  0  0  0  0  0  0  0  0  0  0  0
   24.0184   63.4591   -7.8014 C   0  0  0  0  0  0  0  0  0  0  0  0
   24.0775   62.9839  -10.8208 C   0  0  0  0  0  0  0  0  0  0  0  0
   24.3973   64.0290  -11.7720 N   0  0  0  0  0  0  0  0  0  0  0  0
   24.4167   65.0317  -11.4831 H   0  0  0  0  0  0  0  0  0  0  0  0
   25.7159   62.8916  -17.6143 Br  0  0  0  0  0  0  0  0  0  0  0  0
   25.3064   63.2433  -15.7920 C   0  0  0  0  0  0  0  0  0  0  0  0
   23.9913   63.4764  -15.4024 C   0  0  0  0  0  0  0  0  0  0  0  0
   23.6965   63.7309  -14.0897 C   0  0  0  0  0  0  0  0  0  0  0  0
   24.7004   63.7587  -13.1464 C   0  0  0  0  0  0  0  0  0  0  0  0
   25.9981   63.5256  -13.5497 C   0  0  0  0  0  0  0  0  0  0  0  0
   26.3285   63.2670  -14.8599 C   0  0  0  0  0  0  0  0  0  0  0  0
   19.4416   63.9850   -9.6003 C   0  0  0  0  0  0  0  0  0  0  0  0
   18.6184   62.8339   -9.8620 C   0  0  0  0  0  0  0  0  0  0  0  0
   19.2374   61.6881   -9.5742 O   0  0  0  0  0  0  0  0  0  0  0  0
   17.2860   62.6412  -10.3601 C   0  0  0  0  0  0  0  0  0  0  0  0
   16.7278   61.3462  -10.4306 C   0  0  0  0  0  0  0  0  0  0  0  0
   15.4647   61.1045  -10.9024 C   0  0  0  0  0  0  0  0  0  0  0  0
   14.6676   62.1332  -11.3375 C   0  0  0  0  0  0  0  0  0  0  0  0
   15.1698   63.4045  -11.2862 C   0  0  0  0  0  0  0  0  0  0  0  0
   16.4696   63.6379  -10.7994 C   0  0  0  0  0  0  0  0  0  0  0  0
   13.3825   61.8860  -11.8167 O   0  0  0  0  0  0  0  0  0  0  0  0
   12.9489   62.3283  -13.0793 C   0  0  0  0  0  0  0  0  0  0  0  0
 14 15  1  0  0  0
 15 16  2  0  0  0
 15 20  1  0  0  0
 16 17  1  0  0  0
 17 18  2  0  0  0
 18 19  1  0  0  0
 18 12  1  0  0  0
 19 20  2  0  0  0
 12 11  1  0  0  0
 11  1  1  0  0  0
  1  2  1  0  0  0
  1  5  2  0  0  0
  2  3  1  0  0  0
  2 10  1  0  0  0
  3  4  2  0  0  0
  3  6  1  0  0  0
  4  5  1  0  0  0
  4 21  1  0  0  0
 21 22  1  0  0  0
 22 23  2  0  0  0
 22 24  1  0  0  0
 24 25  2  0  0  0
 24 29  1  0  0  0
 25 26  1  0  0  0
 26 27  2  0  0  0
 27 28  1  0  0  0
 27 30  1  0  0  0
 28 29  2  0  0  0
 30 31  1  0  0  0
  6  7  1  0  0  0
  7  8  1  0  0  0
  8  9  1  0  0  0
  9 10  1  0  0  0
 12 13  1  0  0  0
M  END
> <minimizedAffinity>
-9.70320

$$$$
850


 29 32  0  0  0  0  0  0  0  0999 V2000
   19.6234   64.0639  -10.8825 N   0  0  0  0  0  0  0  0  0  0  0  0
   20.2934   62.8222  -11.1314 C   0  0  0  0  0  0  0  0  0  0  0  0
   20.2676   62.2251   -9.7249 C   0  0  0  0  0  0  0  0  0  0  0  0
   20.5290   63.3921   -8.8679 N   0  0  0  0  0  0  0  0  0  0  0  0
   20.9832   63.2294   -7.5322 C   0  0  0  0  0  0  0  0  0  0  0  0
   21.2646   64.5067   -6.7994 C   0  0  0  0  0  0  0  0  0  0  0  0
   22.1367   65.3881   -7.6509 C   0  0  0  0  0  0  0  0  0  0  0  0
   21.1771   66.4057   -8.2848 C   0  0  0  0  0  0  0  0  0  0  0  0
   20.5394   65.7797   -9.4604 C   0  0  0  0  0  0  0  0  0  0  0  0
   20.2465   64.5207   -9.6938 C   0  0  0  0  0  0  0  0  0  0  0  0
   19.7992   62.0248  -12.1140 O   0  0  0  0  0  0  0  0  0  0  0  0
   19.8228   64.6944  -11.7208 H   0  0  0  0  0  0  0  0  0  0  0  0
   20.1634   61.1207  -12.1042 H   0  0  0  0  0  0  0  0  0  0  0  0
   13.5038   63.9304  -10.5812 Br  0  0  0  0  0  0  0  0  0  0  0  0
   15.4179   63.9916  -10.6615 C   0  0  0  0  0  0  0  0  0  0  0  0
   16.0768   64.3140  -11.8266 C   0  0  0  0  0  0  0  0  0  0  0  0
   17.4629   64.3400  -11.8736 C   0  0  0  0  0  0  0  0  0  0  0  0
   18.2500   64.0456  -10.7620 C   0  0  0  0  0  0  0  0  0  0  0  0
   17.5493   63.7342   -9.6347 C   0  0  0  0  0  0  0  0  0  0  0  0
   16.1594   63.7001   -9.5586 C   0  0  0  0  0  0  0  0  0  0  0  0
   21.7387   63.0217  -11.4399 C   0  0  0  0  0  0  0  0  0  0  0  0
   22.7374   63.0795  -10.5145 C   0  0  0  0  0  0  0  0  0  0  0  0
   24.0890   63.2636  -10.8745 C   0  0  0  0  0  0  0  0  0  0  0  0
   24.4549   63.3935  -12.1924 C   0  0  0  0  0  0  0  0  0  0  0  0
   23.4564   63.3376  -13.1344 C   0  0  0  0  0  0  0  0  0  0  0  0
   22.1389   63.1588  -12.7790 C   0  0  0  0  0  0  0  0  0  0  0  0
   25.7983   63.5729  -12.5620 O   0  0  0  0  0  0  0  0  0  0  0  0
   26.1554   64.0245  -13.8468 C   0  0  0  0  0  0  0  0  0  0  0  0
   27.1667   63.1405  -14.5061 C   0  0  0  0  0  0  0  0  0  0  0  0
 14 15  1  0  0  0
 15 16  2  0  0  0
 15 20  1  0  0  0
 16 17  1  0  0  0
 17 18  2  0  0  0
 18 19  1  0  0  0
 18  1  1  0  0  0
 19 20  2  0  0  0
  1  2  1  0  0  0
  1 10  1  0  0  0
  2  3  1  0  0  0
  2 11  1  0  0  0
  2 21  1  0  0  0
  3  4  1  0  0  0
  4  5  1  0  0  0
  4 10  1  0  0  0
  5  6  1  0  0  0
  6  7  1  0  0  0
  7  8  1  0  0  0
  8  9  1  0  0  0
  9 10  2  0  0  0
 21 22  2  0  0  0
 21 26  1  0  0  0
 22 23  1  0  0  0
 23 24  2  0  0  0
 24 25  1  0  0  0
 24 27  1  0  0  0
 25 26  2  0  0  0
 27 28  1  0  0  0
 28 29  1  0  0  0
  1 12  1  0  0  0
 11 13  1  0  0  0
M  CHG 1   1   1
M  END
> <minimizedAffinity>
-4.87582

$$$$
860


 29 32  0  0  0  0  0  0  0  0999 V2000
   23.3362   63.0116  -12.4370 Br  0  0  0  0  0  0  0  0  0  0  0  0
   22.5417   63.3770  -10.7329 C   0  0  0  0  0  0  0  0  0  0  0  0
   23.3104   63.6822   -9.6269 C   0  0  0  0  0  0  0  0  0  0  0  0
   22.7346   63.9442   -8.4039 C   0  0  0  0  0  0  0  0  0  0  0  0
   21.3581   63.8850   -8.3387 C   0  0  0  0  0  0  0  0  0  0  0  0
   20.5846   63.5805   -9.4406 C   0  0  0  0  0  0  0  0  0  0  0  0
   21.1653   63.3191  -10.6631 C   0  0  0  0  0  0  0  0  0  0  0  0
   20.3202   62.9914  -11.8470 C   0  0  0  0  0  0  0  0  0  0  0  0
   20.7991   64.1538   -7.0907 O   0  0  0  0  0  0  0  0  0  0  0  0
   21.5154   64.1623   -5.9017 C   0  0  0  0  0  0  0  0  0  0  0  0
   22.9343   64.6092   -6.0072 C   0  0  0  0  0  0  0  0  0  0  0  0
   23.6216   64.2594   -7.2796 C   0  0  0  0  0  0  0  0  0  0  0  0
   24.4598   65.3176   -7.7077 O   0  0  0  0  0  0  0  0  0  0  0  0
   24.1924   65.6721   -8.5805 H   0  0  0  0  0  0  0  0  0  0  0  0
   23.6466   63.9029   -4.9369 N   0  0  0  0  0  0  0  0  0  0  0  0
   24.4446   62.8235   -5.4074 C   0  0  0  0  0  0  0  0  0  0  0  0
   25.3866   62.4516   -4.2518 C   0  0  0  0  0  0  0  0  0  0  0  0
   24.5789   61.9921   -3.2256 O   0  0  0  0  0  0  0  0  0  0  0  0
   23.6770   62.9450   -2.7667 C   0  0  0  0  0  0  0  0  0  0  0  0
   22.7713   63.4342   -3.9064 C   0  0  0  0  0  0  0  0  0  0  0  0
   24.2802   64.6170   -4.5117 H   0  0  0  0  0  0  0  0  0  0  0  0
   23.1042   66.0886   -5.7283 C   0  0  0  0  0  0  0  0  0  0  0  0
   22.6992   66.9322   -6.8104 N   0  0  0  0  0  0  0  0  0  0  0  0
   21.2705   67.1890   -6.8182 C   0  0  0  0  0  0  0  0  0  0  0  0
   20.9616   68.6558   -7.0770 C   0  0  0  0  0  0  0  0  0  0  0  0
   21.4481   69.4812   -6.0768 O   0  0  0  0  0  0  0  0  0  0  0  0
   22.6487   69.0008   -5.5628 C   0  0  0  0  0  0  0  0  0  0  0  0
   23.3380   68.2529   -6.6856 C   0  0  0  0  0  0  0  0  0  0  0  0
   22.9492   66.5958   -7.7526 H   0  0  0  0  0  0  0  0  0  0  0  0
  1  2  1  0  0  0
  2  3  2  0  0  0
  2  7  1  0  0  0
  3  4  1  0  0  0
  4  5  2  0  0  0
  4 12  1  0  0  0
  5  6  1  0  0  0
  5  9  1  0  0  0
  6  7  2  0  0  0
  7  8  1  0  0  0
  9 10  1  0  0  0
 10 11  1  0  0  0
 11 12  1  0  0  0
 11 15  1  0  0  0
 11 22  1  0  0  0
 12 13  1  0  0  0
 15 16  1  0  0  0
 15 20  1  0  0  0
 16 17  1  0  0  0
 17 18  1  0  0  0
 18 19  1  0  0  0
 19 20  1  0  0  0
 22 23  1  0  0  0
 23 24  1  0  0  0
 23 28  1  0  0  0
 24 25  1  0  0  0
 25 26  1  0  0  0
 26 27  1  0  0  0
 27 28  1  0  0  0
 13 14  1  0  0  0
 15 21  1  0  0  0
 23 29  1  0  0  0
M  CHG 1  15   1
M  CHG 1  23   1
M  END
> <minimizedAffinity>
-7.56462

$$$$
861


 32 35  0  0  0  0  0  0  0  0999 V2000
   18.7209   63.2560   -9.3663 Br  0  0  0  0  0  0  0  0  0  0  0  0
   20.6145   63.5244   -9.4908 C   0  0  0  0  0  0  0  0  0  0  0  0
   21.3415   63.8054   -8.3586 C   0  0  0  0  0  0  0  0  0  0  0  0
   22.7307   64.0090   -8.4059 C   0  0  0  0  0  0  0  0  0  0  0  0
   23.3235   63.9118   -9.6458 C   0  0  0  0  0  0  0  0  0  0  0  0
   22.6181   63.6321  -10.7964 C   0  0  0  0  0  0  0  0  0  0  0  0
   21.2579   63.4360  -10.7244 C   0  0  0  0  0  0  0  0  0  0  0  0
   20.4109   63.1296  -11.9061 C   0  0  0  0  0  0  0  0  0  0  0  0
   23.4666   63.5032  -12.5004 Br  0  0  0  0  0  0  0  0  0  0  0  0
   23.4568   64.3058   -7.1886 C   0  0  0  0  0  0  0  0  0  0  0  0
   24.6898   64.3837   -7.2033 O   0  0  0  0  0  0  0  0  0  0  0  0
   22.7132   64.5138   -5.9335 C   0  0  0  0  0  0  0  0  0  0  0  0
   21.4957   63.6170   -5.9816 C   0  0  0  0  0  0  0  0  0  0  0  0
   20.7065   63.8948   -7.1236 O   0  0  0  0  0  0  0  0  0  0  0  0
   23.5308   64.2701   -4.7014 C   0  0  0  0  0  0  0  0  0  0  0  0
   23.3853   63.0004   -4.1009 N   0  0  0  0  0  0  0  0  0  0  0  0
   24.4586   62.1413   -4.5050 C   0  0  0  0  0  0  0  0  0  0  0  0
   25.7886   62.4751   -3.9305 C   0  0  0  0  0  0  0  0  0  0  0  0
   25.8149   63.4961   -2.8601 C   0  0  0  0  0  0  0  0  0  0  0  0
   24.5573   63.7074   -2.1111 C   0  0  0  0  0  0  0  0  0  0  0  0
   23.3628   62.9874   -2.6642 C   0  0  0  0  0  0  0  0  0  0  0  0
   26.6742   62.9803   -5.0755 C   0  0  0  0  0  0  0  0  0  0  0  0
   22.4910   62.5508   -4.4227 H   0  0  0  0  0  0  0  0  0  0  0  0
   22.2381   65.9519   -5.9640 C   0  0  0  0  0  0  0  0  0  0  0  0
   22.6779   66.7147   -7.0820 N   0  0  0  0  0  0  0  0  0  0  0  0
   23.6499   67.7206   -6.6580 C   0  0  0  0  0  0  0  0  0  0  0  0
   23.0460   69.0885   -6.5307 C   0  0  0  0  0  0  0  0  0  0  0  0
   21.6852   68.9828   -5.8804 C   0  0  0  0  0  0  0  0  0  0  0  0
   20.7790   68.2638   -6.8309 C   0  0  0  0  0  0  0  0  0  0  0  0
   21.6224   67.4312   -7.7645 C   0  0  0  0  0  0  0  0  0  0  0  0
   23.9290   69.8790   -5.5556 C   0  0  0  0  0  0  0  0  0  0  0  0
   23.1571   66.1179   -7.7615 H   0  0  0  0  0  0  0  0  0  0  0  0
  1  2  1  0  0  0
  2  3  2  0  0  0
  2  7  1  0  0  0
  3  4  1  0  0  0
  3 14  1  0  0  0
  4  5  2  0  0  0
  4 10  1  0  0  0
  5  6  1  0  0  0
  6  7  2  0  0  0
  6  9  1  0  0  0
  7  8  1  0  0  0
 10 11  2  0  0  0
 10 12  1  0  0  0
 12 13  1  0  0  0
 12 15  1  0  0  0
 12 24  1  0  0  0
 13 14  1  0  0  0
 15 16  1  0  0  0
 16 17  1  0  0  0
 16 21  1  0  0  0
 17 18  1  0  0  0
 18 19  1  0  0  0
 18 22  1  0  0  0
 19 20  1  0  0  0
 20 21  1  0  0  0
 24 25  1  0  0  0
 25 26  1  0  0  0
 25 30  1  0  0  0
 26 27  1  0  0  0
 27 28  1  0  0  0
 27 31  1  0  0  0
 28 29  1  0  0  0
 29 30  1  0  0  0
 16 23  1  0  0  0
 25 32  1  0  0  0
M  CHG 1  16   1
M  CHG 1  25   1
M  END
> <minimizedAffinity>
-7.13927

$$$$
862


 30 33  0  0  0  0  0  0  0  0999 V2000
   23.2824   64.0164   -2.2398 Br  0  0  0  0  0  0  0  0  0  0  0  0
   24.1021   63.4213   -3.8325 C   0  0  0  0  0  0  0  0  0  0  0  0
   23.4194   63.5968   -5.0112 C   0  0  0  0  0  0  0  0  0  0  0  0
   23.9272   63.1960   -6.2587 C   0  0  0  0  0  0  0  0  0  0  0  0
   25.1878   62.5877   -6.3030 C   0  0  0  0  0  0  0  0  0  0  0  0
   25.8604   62.4180   -5.1135 C   0  0  0  0  0  0  0  0  0  0  0  0
   25.3420   62.8203   -3.8960 C   0  0  0  0  0  0  0  0  0  0  0  0
   26.1007   62.6199   -2.6142 C   0  0  0  0  0  0  0  0  0  0  0  0
   27.5767   61.5916   -5.1755 Br  0  0  0  0  0  0  0  0  0  0  0  0
   23.1572   63.4005   -7.4707 C   0  0  0  0  0  0  0  0  0  0  0  0
   23.3138   62.5492   -8.3811 O   0  0  0  0  0  0  0  0  0  0  0  0
   22.2708   64.5788   -7.5178 C   0  0  0  0  0  0  0  0  0  0  0  0
   21.3864   64.2985   -6.2204 C   0  0  0  0  0  0  0  0  0  0  0  0
   22.1694   64.1834   -5.0868 O   0  0  0  0  0  0  0  0  0  0  0  0
   21.3300   64.6560   -8.6177 C   0  0  0  0  0  0  0  0  0  0  0  0
   20.9813   63.6770   -9.5345 N   0  0  0  0  0  0  0  0  0  0  0  0
   20.9985   63.8877  -10.9290 C   0  0  0  0  0  0  0  0  0  0  0  0
   20.0041   63.0225  -11.6923 C   0  0  0  0  0  0  0  0  0  0  0  0
   18.5894   63.3731  -11.3576 C   0  0  0  0  0  0  0  0  0  0  0  0
   18.5347   63.7828   -9.9180 C   0  0  0  0  0  0  0  0  0  0  0  0
   19.6539   63.1308   -9.1742 C   0  0  0  0  0  0  0  0  0  0  0  0
   21.5819   62.7623   -9.3830 H   0  0  0  0  0  0  0  0  0  0  0  0
   23.0510   65.8098   -7.2546 C   0  0  0  0  0  0  0  0  0  0  0  0
   22.4642   66.9154   -6.6217 N   0  0  0  0  0  0  0  0  0  0  0  0
   23.4918   67.9535   -6.4641 C   0  0  0  0  0  0  0  0  0  0  0  0
   23.0432   69.0635   -5.5363 C   0  0  0  0  0  0  0  0  0  0  0  0
   21.8668   69.7476   -6.2507 C   0  0  0  0  0  0  0  0  0  0  0  0
   20.8283   68.6577   -6.3851 C   0  0  0  0  0  0  0  0  0  0  0  0
   21.3960   67.5923   -7.3384 C   0  0  0  0  0  0  0  0  0  0  0  0
   22.0926   66.7954   -5.6572 H   0  0  0  0  0  0  0  0  0  0  0  0
  1  2  1  0  0  0
  2  3  2  0  0  0
  2  7  1  0  0  0
  3  4  1  0  0  0
  3 14  1  0  0  0
  4  5  2  0  0  0
  4 10  1  0  0  0
  5  6  1  0  0  0
  6  7  2  0  0  0
  6  9  1  0  0  0
  7  8  1  0  0  0
 10 11  2  0  0  0
 10 12  1  0  0  0
 12 13  1  0  0  0
 12 15  1  0  0  0
 12 23  1  0  0  0
 13 14  1  0  0  0
 15 16  1  0  0  0
 16 17  1  0  0  0
 16 21  1  0  0  0
 17 18  1  0  0  0
 18 19  1  0  0  0
 19 20  1  0  0  0
 20 21  1  0  0  0
 23 24  1  0  0  0
 24 25  1  0  0  0
 24 29  1  0  0  0
 25 26  1  0  0  0
 26 27  1  0  0  0
 27 28  1  0  0  0
 28 29  1  0  0  0
 16 22  1  0  0  0
 24 30  1  0  0  0
M  CHG 1  16   1
M  CHG 1  24   1
M  END
> <minimizedAffinity>
-4.32368

$$$$
865


 30 33  0  0  0  0  0  0  0  0999 V2000
   22.9314   63.7222   -8.3740 C   0  0  0  0  0  0  0  0  0  0  0  0
   23.6505   63.0693   -7.4347 N   0  0  0  0  0  0  0  0  0  0  0  0
   23.9829   63.6277   -6.2444 C   0  0  0  0  0  0  0  0  0  0  0  0
   23.5627   64.8770   -6.0356 N   0  0  0  0  0  0  0  0  0  0  0  0
   22.8446   65.5867   -6.9232 C   0  0  0  0  0  0  0  0  0  0  0  0
   22.5466   64.9773   -8.0843 N   0  0  0  0  0  0  0  0  0  0  0  0
   22.4316   66.9148   -6.6306 N   0  0  0  0  0  0  0  0  0  0  0  0
   23.4289   67.8859   -6.2234 C   0  0  0  0  0  0  0  0  0  0  0  0
   22.7544   69.2063   -5.9264 C   0  0  0  0  0  0  0  0  0  0  0  0
   21.8940   69.6320   -6.8980 O   0  0  0  0  0  0  0  0  0  0  0  0
   21.0851   68.6841   -7.4645 C   0  0  0  0  0  0  0  0  0  0  0  0
   21.0737   67.3646   -6.7112 C   0  0  0  0  0  0  0  0  0  0  0  0
   24.7421   62.8939   -5.2906 N   0  0  0  0  0  0  0  0  0  0  0  0
   24.2137   62.4006   -4.0401 C   0  0  0  0  0  0  0  0  0  0  0  0
   25.1709   62.9619   -2.9902 C   0  0  0  0  0  0  0  0  0  0  0  0
   26.3730   62.3740   -3.1331 O   0  0  0  0  0  0  0  0  0  0  0  0
   26.9255   62.2510   -4.3465 C   0  0  0  0  0  0  0  0  0  0  0  0
   26.1330   62.5988   -5.5436 C   0  0  0  0  0  0  0  0  0  0  0  0
   22.6202   63.0784   -9.5937 N   0  0  0  0  0  0  0  0  0  0  0  0
   23.3880   62.7443  -10.1993 H   0  0  0  0  0  0  0  0  0  0  0  0
   20.3292   62.7239   -9.1584 C   0  0  0  0  0  0  0  0  0  0  0  0
   21.3006   62.8945   -9.9822 N   0  0  0  0  0  0  0  0  0  0  0  0
   15.0672   61.9547  -11.0310 F   0  0  0  0  0  0  0  0  0  0  0  0
   16.3349   62.1563  -10.5766 C   0  0  0  0  0  0  0  0  0  0  0  0
   16.7924   63.4113  -10.2319 C   0  0  0  0  0  0  0  0  0  0  0  0
   18.0809   63.5930   -9.7743 C   0  0  0  0  0  0  0  0  0  0  0  0
   18.9673   62.5372   -9.6412 C   0  0  0  0  0  0  0  0  0  0  0  0
   18.5012   61.2867   -9.9880 C   0  0  0  0  0  0  0  0  0  0  0  0
   17.2056   61.0991  -10.4494 C   0  0  0  0  0  0  0  0  0  0  0  0
   15.5909   64.8859  -10.4055 Br  0  0  0  0  0  0  0  0  0  0  0  0
 23 24  1  0  0  0
 24 25  2  0  0  0
 24 29  1  0  0  0
 25 26  1  0  0  0
 25 30  1  0  0  0
 26 27  2  0  0  0
 27 28  1  0  0  0
 27 21  1  0  0  0
 28 29  2  0  0  0
 21 22  2  0  0  0
 22 19  1  0  0  0
 19  1  1  0  0  0
  1  2  2  0  0  0
  1  6  1  0  0  0
  2  3  1  0  0  0
  3  4  2  0  0  0
  3 13  1  0  0  0
  4  5  1  0  0  0
  5  6  2  0  0  0
  5  7  1  0  0  0
  7  8  1  0  0  0
  7 12  1  0  0  0
  8  9  1  0  0  0
  9 10  1  0  0  0
 10 11  1  0  0  0
 11 12  1  0  0  0
 13 14  1  0  0  0
 13 18  1  0  0  0
 14 15  1  0  0  0
 15 16  1  0  0  0
 16 17  1  0  0  0
 17 18  1  0  0  0
 19 20  1  0  0  0
M  END
> <minimizedAffinity>
-8.76010

$$$$
872


 32 35  0  0  0  0  0  0  0  0999 V2000
   22.9067   64.2220   -9.8257 N   0  0  0  0  0  0  0  0  0  0  0  0
   23.7864   63.9338  -10.7679 N   0  0  0  0  0  0  0  0  0  0  0  0
   23.0965   63.3837  -11.7517 N   0  0  0  0  0  0  0  0  0  0  0  0
   21.7843   63.3166  -11.4468 C   0  0  0  0  0  0  0  0  0  0  0  0
   21.6762   63.8527  -10.2200 C   0  0  0  0  0  0  0  0  0  0  0  0
   20.3352   63.7763   -9.9247 C   0  0  0  0  0  0  0  0  0  0  0  0
   19.8151   64.1785   -8.8496 O   0  0  0  0  0  0  0  0  0  0  0  0
   19.6320   63.2137  -10.9283 N   0  0  0  0  0  0  0  0  0  0  0  0
   20.5311   62.9241  -11.8831 C   0  0  0  0  0  0  0  0  0  0  0  0
   20.2667   62.3848  -12.9896 O   0  0  0  0  0  0  0  0  0  0  0  0
   24.8332   64.1036  -10.7535 H   0  0  0  0  0  0  0  0  0  0  0  0
   23.5492   63.0520  -12.6437 H   0  0  0  0  0  0  0  0  0  0  0  0
   18.2113   62.9894  -10.9337 C   0  0  0  0  0  0  0  0  0  0  0  0
   17.3387   64.0005  -11.2858 C   0  0  0  0  0  0  0  0  0  0  0  0
   15.9699   63.8308  -11.3048 C   0  0  0  0  0  0  0  0  0  0  0  0
   15.4843   62.5869  -10.9515 C   0  0  0  0  0  0  0  0  0  0  0  0
   16.3109   61.5360  -10.5899 C   0  0  0  0  0  0  0  0  0  0  0  0
   17.6707   61.7730  -10.5912 C   0  0  0  0  0  0  0  0  0  0  0  0
   13.5750   62.3740  -10.9854 Br  0  0  0  0  0  0  0  0  0  0  0  0
   23.2622   64.8484   -8.5712 C   0  0  0  0  0  0  0  0  0  0  0  0
   24.3197   64.1589   -6.4021 N   0  0  0  0  0  0  0  0  0  0  0  0
   23.7112   63.7794   -7.5954 C   0  0  0  0  0  0  0  0  0  0  0  0
   23.5068   62.6069   -7.9257 O   0  0  0  0  0  0  0  0  0  0  0  0
   24.4296   65.2196   -6.2500 H   0  0  0  0  0  0  0  0  0  0  0  0
   22.8390   63.7952   -4.1702 F   0  0  0  0  0  0  0  0  0  0  0  0
   24.0044   63.0963   -4.2593 C   0  0  0  0  0  0  0  0  0  0  0  0
   24.7829   63.2758   -5.4145 C   0  0  0  0  0  0  0  0  0  0  0  0
   25.9473   62.5793   -5.5084 C   0  0  0  0  0  0  0  0  0  0  0  0
   26.3977   61.6958   -4.5042 C   0  0  0  0  0  0  0  0  0  0  0  0
   25.6065   61.5476   -3.3885 C   0  0  0  0  0  0  0  0  0  0  0  0
   24.4209   62.2426   -3.2708 C   0  0  0  0  0  0  0  0  0  0  0  0
   25.9819   60.7152   -2.3900 F   0  0  0  0  0  0  0  0  0  0  0  0
 25 26  1  0  0  0
 26 27  2  0  0  0
 26 31  1  0  0  0
 27 28  1  0  0  0
 27 21  1  0  0  0
 28 29  2  0  0  0
 29 30  1  0  0  0
 30 31  2  0  0  0
 30 32  1  0  0  0
 21 22  1  0  0  0
 22 23  2  0  0  0
 22 20  1  0  0  0
 20  1  1  0  0  0
  1  2  1  0  0  0
  1  5  1  0  0  0
  2  3  1  0  0  0
  3  4  1  0  0  0
  4  5  2  0  0  0
  4  9  1  0  0  0
  5  6  1  0  0  0
  6  7  2  0  0  0
  6  8  1  0  0  0
  8  9  1  0  0  0
  8 13  1  0  0  0
  9 10  2  0  0  0
 13 14  2  0  0  0
 13 18  1  0  0  0
 14 15  1  0  0  0
 15 16  2  0  0  0
 16 17  1  0  0  0
 16 19  1  0  0  0
 17 18  2  0  0  0
 21 24  1  0  0  0
  2 11  1  0  0  0
  3 12  1  0  0  0
M  END
> <minimizedAffinity>
-10.18806

$$$$
873


 32 35  0  0  0  0  0  0  0  0999 V2000
   22.4526   64.4670  -10.1183 C   0  0  0  0  0  0  0  0  0  0  0  0
   23.5679   63.9331  -10.8842 N   0  0  0  0  0  0  0  0  0  0  0  0
   23.7332   62.6321  -10.2817 C   0  0  0  0  0  0  0  0  0  0  0  0
   24.1361   61.5647  -10.8149 O   0  0  0  0  0  0  0  0  0  0  0  0
   23.3376   62.7184   -8.8475 C   0  0  0  0  0  0  0  0  0  0  0  0
   23.3098   61.8843   -7.9443 O   0  0  0  0  0  0  0  0  0  0  0  0
   22.9491   64.1540   -8.7227 C   0  0  0  0  0  0  0  0  0  0  0  0
   23.0305   64.9029   -7.6504 C   0  0  0  0  0  0  0  0  0  0  0  0
   22.6040   66.2449   -7.7150 O   0  0  0  0  0  0  0  0  0  0  0  0
   21.5344   63.3586  -12.6188 F   0  0  0  0  0  0  0  0  0  0  0  0
   20.7756   63.2598  -11.5382 C   0  0  0  0  0  0  0  0  0  0  0  0
   21.1762   63.7610  -10.3166 C   0  0  0  0  0  0  0  0  0  0  0  0
   20.2813   63.5826   -9.2910 C   0  0  0  0  0  0  0  0  0  0  0  0
   19.0541   62.9512   -9.4204 C   0  0  0  0  0  0  0  0  0  0  0  0
   18.6930   62.4682  -10.6455 C   0  0  0  0  0  0  0  0  0  0  0  0
   19.5419   62.6210  -11.6924 C   0  0  0  0  0  0  0  0  0  0  0  0
   23.5523   64.3911   -6.3918 C   0  0  0  0  0  0  0  0  0  0  0  0
   24.8114   63.8325   -6.3684 C   0  0  0  0  0  0  0  0  0  0  0  0
   25.3582   63.3016   -5.2118 C   0  0  0  0  0  0  0  0  0  0  0  0
   24.6355   63.3254   -4.0387 C   0  0  0  0  0  0  0  0  0  0  0  0
   23.3889   63.8722   -4.0390 C   0  0  0  0  0  0  0  0  0  0  0  0
   22.8442   64.4075   -5.2193 C   0  0  0  0  0  0  0  0  0  0  0  0
   25.3712   62.5942   -2.4131 Br  0  0  0  0  0  0  0  0  0  0  0  0
   24.3608   64.4146  -11.9323 C   0  0  0  0  0  0  0  0  0  0  0  0
   25.5472   63.6480  -12.3959 C   0  0  0  0  0  0  0  0  0  0  0  0
   25.8611   63.8299  -13.7848 N   0  0  0  0  0  0  0  0  0  0  0  0
   24.8253   63.2090  -14.5843 C   0  0  0  0  0  0  0  0  0  0  0  0
   25.0523   63.4783  -16.0610 C   0  0  0  0  0  0  0  0  0  0  0  0
   26.2854   62.9734  -16.4270 O   0  0  0  0  0  0  0  0  0  0  0  0
   27.2932   63.5267  -15.6426 C   0  0  0  0  0  0  0  0  0  0  0  0
   27.0980   63.1226  -14.1745 C   0  0  0  0  0  0  0  0  0  0  0  0
   26.0594   64.8158  -14.0524 H   0  0  0  0  0  0  0  0  0  0  0  0
 10 11  1  0  0  0
 11 12  2  0  0  0
 11 16  1  0  0  0
 12 13  1  0  0  0
 12  1  1  0  0  0
 13 14  2  0  0  0
 14 15  1  0  0  0
 15 16  2  0  0  0
  1  2  1  0  0  0
  1  7  1  0  0  0
  2  3  1  0  0  0
  2 24  1  0  0  0
  3  4  2  0  0  0
  3  5  1  0  0  0
  5  6  2  0  0  0
  5  7  1  0  0  0
  7  8  2  0  0  0
  8  9  1  0  0  0
  8 17  1  0  0  0
 17 18  2  0  0  0
 17 22  1  0  0  0
 18 19  1  0  0  0
 19 20  2  0  0  0
 20 21  1  0  0  0
 20 23  1  0  0  0
 21 22  2  0  0  0
 24 25  1  0  0  0
 25 26  1  0  0  0
 26 27  1  0  0  0
 26 31  1  0  0  0
 27 28  1  0  0  0
 28 29  1  0  0  0
 29 30  1  0  0  0
 30 31  1  0  0  0
 26 32  1  0  0  0
M  CHG 1   9  -1
M  CHG 1  26   1
M  END
> <minimizedAffinity>
-5.92225

$$$$
874


 31 34  0  0  0  0  0  0  0  0999 V2000
   23.0315   64.1130   -9.9087 N   0  0  0  0  0  0  0  0  0  0  0  0
   23.8527   63.7135  -10.8552 N   0  0  0  0  0  0  0  0  0  0  0  0
   23.1763   63.1384  -11.8388 N   0  0  0  0  0  0  0  0  0  0  0  0
   21.8645   63.1655  -11.5167 C   0  0  0  0  0  0  0  0  0  0  0  0
   21.7920   63.7597  -10.3433 C   0  0  0  0  0  0  0  0  0  0  0  0
   20.4469   63.7882  -10.0103 C   0  0  0  0  0  0  0  0  0  0  0  0
   19.9940   64.2821   -8.9554 O   0  0  0  0  0  0  0  0  0  0  0  0
   19.7011   63.2168  -10.9729 N   0  0  0  0  0  0  0  0  0  0  0  0
   20.5832   62.8284  -11.9119 C   0  0  0  0  0  0  0  0  0  0  0  0
   20.3015   62.2493  -12.9838 O   0  0  0  0  0  0  0  0  0  0  0  0
   24.8957   63.8478  -10.8086 H   0  0  0  0  0  0  0  0  0  0  0  0
   23.5846   62.7322  -12.7156 H   0  0  0  0  0  0  0  0  0  0  0  0
   18.2814   63.0661  -10.9764 C   0  0  0  0  0  0  0  0  0  0  0  0
   17.6885   61.8689  -10.6260 C   0  0  0  0  0  0  0  0  0  0  0  0
   16.3172   61.7062  -10.6231 C   0  0  0  0  0  0  0  0  0  0  0  0
   15.4776   62.7425  -10.9749 C   0  0  0  0  0  0  0  0  0  0  0  0
   16.0479   63.9472  -11.3291 C   0  0  0  0  0  0  0  0  0  0  0  0
   17.4212   64.0891  -11.3252 C   0  0  0  0  0  0  0  0  0  0  0  0
   13.5752   62.5460  -10.9803 Br  0  0  0  0  0  0  0  0  0  0  0  0
   23.3416   64.7848   -8.6604 C   0  0  0  0  0  0  0  0  0  0  0  0
   24.2946   64.1657   -6.4194 N   0  0  0  0  0  0  0  0  0  0  0  0
   23.7481   63.7788   -7.6391 C   0  0  0  0  0  0  0  0  0  0  0  0
   23.5698   62.5880   -7.9429 O   0  0  0  0  0  0  0  0  0  0  0  0
   24.3981   65.2241   -6.2744 H   0  0  0  0  0  0  0  0  0  0  0  0
   22.7714   63.9343   -4.1440 F   0  0  0  0  0  0  0  0  0  0  0  0
   23.9370   63.2267   -4.1942 C   0  0  0  0  0  0  0  0  0  0  0  0
   24.7279   63.3321   -5.3493 C   0  0  0  0  0  0  0  0  0  0  0  0
   25.8892   62.6025   -5.3525 C   0  0  0  0  0  0  0  0  0  0  0  0
   26.2382   61.8159   -4.2669 C   0  0  0  0  0  0  0  0  0  0  0  0
   25.4660   61.7163   -3.1469 C   0  0  0  0  0  0  0  0  0  0  0  0
   24.2978   62.4422   -3.1286 C   0  0  0  0  0  0  0  0  0  0  0  0
 25 26  1  0  0  0
 26 27  2  0  0  0
 26 31  1  0  0  0
 27 28  1  0  0  0
 27 21  1  0  0  0
 28 29  2  0  0  0
 29 30  1  0  0  0
 30 31  2  0  0  0
 21 22  1  0  0  0
 22 23  2  0  0  0
 22 20  1  0  0  0
 20  1  1  0  0  0
  1  2  1  0  0  0
  1  5  1  0  0  0
  2  3  1  0  0  0
  3  4  1  0  0  0
  4  5  2  0  0  0
  4  9  1  0  0  0
  5  6  1  0  0  0
  6  7  2  0  0  0
  6  8  1  0  0  0
  8  9  1  0  0  0
  8 13  1  0  0  0
  9 10  2  0  0  0
 13 14  2  0  0  0
 13 18  1  0  0  0
 14 15  1  0  0  0
 15 16  2  0  0  0
 16 17  1  0  0  0
 16 19  1  0  0  0
 17 18  2  0  0  0
 21 24  1  0  0  0
  2 11  1  0  0  0
  3 12  1  0  0  0
M  END
> <minimizedAffinity>
-10.26295

$$$$
886


 31 34  0  0  0  0  0  0  0  0999 V2000
   23.1356   64.1596   -6.6176 N   0  0  0  0  0  0  0  0  0  0  0  0
   22.6867   63.4842   -7.6891 C   0  0  0  0  0  0  0  0  0  0  0  0
   23.0301   62.2904   -7.9065 O   0  0  0  0  0  0  0  0  0  0  0  0
   21.8417   64.2482   -8.4718 C   0  0  0  0  0  0  0  0  0  0  0  0
   21.7774   65.4248   -7.8546 C   0  0  0  0  0  0  0  0  0  0  0  0
   20.9691   66.2006   -8.5827 N   0  0  0  0  0  0  0  0  0  0  0  0
   20.5507   65.5065   -9.6245 N   0  0  0  0  0  0  0  0  0  0  0  0
   21.0740   64.2849   -9.5892 N   0  0  0  0  0  0  0  0  0  0  0  0
   22.5617   65.3852   -6.7216 C   0  0  0  0  0  0  0  0  0  0  0  0
   22.7688   66.2919   -5.8657 O   0  0  0  0  0  0  0  0  0  0  0  0
   20.7301   67.1990   -8.3302 H   0  0  0  0  0  0  0  0  0  0  0  0
   19.9159   65.8403  -10.3632 H   0  0  0  0  0  0  0  0  0  0  0  0
   26.4896   62.4371   -2.4739 F   0  0  0  0  0  0  0  0  0  0  0  0
   25.6757   62.8584   -3.4872 C   0  0  0  0  0  0  0  0  0  0  0  0
   26.0970   62.7601   -4.7830 C   0  0  0  0  0  0  0  0  0  0  0  0
   25.2719   63.1866   -5.8266 C   0  0  0  0  0  0  0  0  0  0  0  0
   24.0225   63.7151   -5.5927 C   0  0  0  0  0  0  0  0  0  0  0  0
   23.6256   63.8011   -4.2672 C   0  0  0  0  0  0  0  0  0  0  0  0
   24.4302   63.3838   -3.2310 C   0  0  0  0  0  0  0  0  0  0  0  0
   20.8978   63.1952  -10.5048 C   0  0  0  0  0  0  0  0  0  0  0  0
   21.7932   63.1920  -11.6666 C   0  0  0  0  0  0  0  0  0  0  0  0
   21.2797   63.0293  -12.7840 O   0  0  0  0  0  0  0  0  0  0  0  0
   23.1704   63.3692  -11.5060 N   0  0  0  0  0  0  0  0  0  0  0  0
   23.5482   63.5080  -10.4997 H   0  0  0  0  0  0  0  0  0  0  0  0
   24.1882   63.3967  -12.4879 C   0  0  0  0  0  0  0  0  0  0  0  0
   23.9070   63.5250  -13.8271 C   0  0  0  0  0  0  0  0  0  0  0  0
   24.8851   63.5547  -14.8259 C   0  0  0  0  0  0  0  0  0  0  0  0
   26.1880   63.4479  -14.4095 C   0  0  0  0  0  0  0  0  0  0  0  0
   26.4963   63.3192  -13.0782 C   0  0  0  0  0  0  0  0  0  0  0  0
   25.5180   63.2924  -12.1185 C   0  0  0  0  0  0  0  0  0  0  0  0
   27.5894   63.4832  -15.7330 Br  0  0  0  0  0  0  0  0  0  0  0  0
 13 14  1  0  0  0
 14 15  2  0  0  0
 14 19  1  0  0  0
 15 16  1  0  0  0
 16 17  2  0  0  0
 17 18  1  0  0  0
 17  1  1  0  0  0
 18 19  2  0  0  0
  1  2  1  0  0  0
  1  9  1  0  0  0
  2  3  2  0  0  0
  2  4  1  0  0  0
  4  5  2  0  0  0
  4  8  1  0  0  0
  5  6  1  0  0  0
  5  9  1  0  0  0
  6  7  1  0  0  0
  7  8  1  0  0  0
  8 20  1  0  0  0
 20 21  1  0  0  0
 21 22  2  0  0  0
 21 23  1  0  0  0
 23 25  1  0  0  0
 25 26  2  0  0  0
 25 30  1  0  0  0
 26 27  1  0  0  0
 27 28  2  0  0  0
 28 29  1  0  0  0
 28 31  1  0  0  0
 29 30  2  0  0  0
  9 10  2  0  0  0
  6 11  1  0  0  0
  7 12  1  0  0  0
 23 24  1  0  0  0
M  END
> <minimizedAffinity>
-9.88278

$$$$
892


 27 30  0  0  0  0  0  0  0  0999 V2000
   12.3324   63.9190  -13.5475 C   0  0  0  0  0  0  0  0  0  0  0  0
   11.5431   65.0585  -13.1377 N   0  0  0  0  0  0  0  0  0  0  0  0
   11.5764   66.2580  -13.9182 C   0  0  0  0  0  0  0  0  0  0  0  0
   10.4571   67.5714  -14.1304 S   0  0  0  0  0  0  0  0  0  0  0  0
   11.3472   68.5209  -15.2239 C   0  0  0  0  0  0  0  0  0  0  0  0
   12.4783   67.8013  -15.3962 C   0  0  0  0  0  0  0  0  0  0  0  0
   12.6039   66.6408  -14.7311 C   0  0  0  0  0  0  0  0  0  0  0  0
   13.7110   65.6428  -14.7106 C   0  0  0  0  0  0  0  0  0  0  0  0
   14.7506   65.8139  -15.3901 O   0  0  0  0  0  0  0  0  0  0  0  0
   13.6220   64.4742  -13.9224 N   0  0  0  0  0  0  0  0  0  0  0  0
   13.4865   68.4305  -16.3503 C   0  0  0  0  0  0  0  0  0  0  0  0
   13.2144   69.8980  -16.4171 C   0  0  0  0  0  0  0  0  0  0  0  0
   11.8617   70.0238  -16.9827 N   0  0  0  0  0  0  0  0  0  0  0  0
   10.9907   69.8174  -15.8449 C   0  0  0  0  0  0  0  0  0  0  0  0
   11.6688   71.3142  -17.6005 C   0  0  0  0  0  0  0  0  0  0  0  0
   10.9385   65.0591  -12.2865 H   0  0  0  0  0  0  0  0  0  0  0  0
   14.4893   63.9804  -13.5902 H   0  0  0  0  0  0  0  0  0  0  0  0
   11.7016   69.2357  -17.6450 H   0  0  0  0  0  0  0  0  0  0  0  0
   12.2493   60.1228  -17.6158 I   0  0  0  0  0  0  0  0  0  0  0  0
   11.4596   61.7643  -16.5640 C   0  0  0  0  0  0  0  0  0  0  0  0
   12.1321   62.2662  -15.4487 C   0  0  0  0  0  0  0  0  0  0  0  0
   11.6515   63.3369  -14.7336 C   0  0  0  0  0  0  0  0  0  0  0  0
   10.4479   63.8911  -15.1923 C   0  0  0  0  0  0  0  0  0  0  0  0
    9.7937   63.3912  -16.2881 C   0  0  0  0  0  0  0  0  0  0  0  0
   10.2925   62.3189  -16.9898 C   0  0  0  0  0  0  0  0  0  0  0  0
    8.1608   64.1704  -16.8804 Br  0  0  0  0  0  0  0  0  0  0  0  0
   13.3090   61.6665  -15.0586 O   0  0  0  0  0  0  0  0  0  0  0  0
 19 20  1  0  0  0
 20 21  2  0  0  0
 20 25  1  0  0  0
 21 22  1  0  0  0
 21 27  1  0  0  0
 22 23  2  0  0  0
 22  1  1  0  0  0
 23 24  1  0  0  0
 24 25  2  0  0  0
 24 26  1  0  0  0
  1  2  1  0  0  0
  1 10  1  0  0  0
  2  3  1  0  0  0
  3  4  1  0  0  0
  3  7  2  0  0  0
  4  5  1  0  0  0
  5  6  2  0  0  0
  5 14  1  0  0  0
  6  7  1  0  0  0
  6 11  1  0  0  0
  7  8  1  0  0  0
  8  9  2  0  0  0
  8 10  1  0  0  0
 11 12  1  0  0  0
 12 13  1  0  0  0
 13 14  1  0  0  0
 13 15  1  0  0  0
  2 16  1  0  0  0
 10 17  1  0  0  0
 13 18  1  0  0  0
M  CHG 1  13   1
M  CHG 1  27  -1
M  END
> <minimizedAffinity>
-3.67989

$$$$
895


 28 31  0  0  0  0  0  0  0  0999 V2000
   13.3833   63.3002  -11.9928 C   0  0  0  0  0  0  0  0  0  0  0  0
   14.5144   64.2149  -11.8362 N   0  0  0  0  0  0  0  0  0  0  0  0
   15.7100   63.8074  -11.1251 C   0  0  0  0  0  0  0  0  0  0  0  0
   17.0514   64.6817  -10.4999 S   0  0  0  0  0  0  0  0  0  0  0  0
   17.9326   63.3883   -9.8471 C   0  0  0  0  0  0  0  0  0  0  0  0
   17.1572   62.2968  -10.1330 C   0  0  0  0  0  0  0  0  0  0  0  0
   16.0035   62.5226  -10.7980 C   0  0  0  0  0  0  0  0  0  0  0  0
   14.9923   61.5127  -11.2240 C   0  0  0  0  0  0  0  0  0  0  0  0
   15.1448   60.2776  -10.9802 O   0  0  0  0  0  0  0  0  0  0  0  0
   13.8410   61.9402  -11.9140 N   0  0  0  0  0  0  0  0  0  0  0  0
   17.7853   61.0056   -9.6202 C   0  0  0  0  0  0  0  0  0  0  0  0
   19.2193   60.9363  -10.0741 C   0  0  0  0  0  0  0  0  0  0  0  0
   19.9389   62.1558   -9.9177 N   0  0  0  0  0  0  0  0  0  0  0  0
   19.2206   63.1311   -9.1045 C   0  0  0  0  0  0  0  0  0  0  0  0
   20.0500   62.7680  -11.2509 C   0  0  0  0  0  0  0  0  0  0  0  0
   14.4986   65.1753  -12.2254 H   0  0  0  0  0  0  0  0  0  0  0  0
   13.2571   61.2220  -12.4167 H   0  0  0  0  0  0  0  0  0  0  0  0
   20.9129   62.0290   -9.5362 H   0  0  0  0  0  0  0  0  0  0  0  0
   10.6731   61.3959  -16.4544 I   0  0  0  0  0  0  0  0  0  0  0  0
   11.7399   62.8549  -15.3672 C   0  0  0  0  0  0  0  0  0  0  0  0
   11.9932   64.0848  -15.9402 C   0  0  0  0  0  0  0  0  0  0  0  0
   12.6973   65.0587  -15.2338 C   0  0  0  0  0  0  0  0  0  0  0  0
   13.1148   64.7464  -13.9752 C   0  0  0  0  0  0  0  0  0  0  0  0
   12.8735   63.5176  -13.3744 C   0  0  0  0  0  0  0  0  0  0  0  0
   12.1812   62.5751  -14.0835 C   0  0  0  0  0  0  0  0  0  0  0  0
   11.5529   64.3637  -17.2204 O   0  0  0  0  0  0  0  0  0  0  0  0
   12.9230   66.2767  -15.8607 O   0  0  0  0  0  0  0  0  0  0  0  0
   14.2572   66.6519  -16.1474 C   0  0  0  0  0  0  0  0  0  0  0  0
 19 20  1  0  0  0
 20 21  2  0  0  0
 20 25  1  0  0  0
 21 22  1  0  0  0
 21 26  1  0  0  0
 22 23  2  0  0  0
 22 27  1  0  0  0
 23 24  1  0  0  0
 24 25  2  0  0  0
 24  1  1  0  0  0
  1  2  1  0  0  0
  1 10  1  0  0  0
  2  3  1  0  0  0
  3  4  1  0  0  0
  3  7  2  0  0  0
  4  5  1  0  0  0
  5  6  2  0  0  0
  5 14  1  0  0  0
  6  7  1  0  0  0
  6 11  1  0  0  0
  7  8  1  0  0  0
  8  9  2  0  0  0
  8 10  1  0  0  0
 11 12  1  0  0  0
 12 13  1  0  0  0
 13 14  1  0  0  0
 13 15  1  0  0  0
 27 28  1  0  0  0
  2 16  1  0  0  0
 10 17  1  0  0  0
 13 18  1  0  0  0
M  CHG 1  13   1
M  CHG 1  26  -1
M  END
> <minimizedAffinity>
-7.57793

$$$$
906


 27 30  0  0  0  0  0  0  0  0999 V2000
   19.7063   63.3771  -10.5171 C   0  0  0  0  0  0  0  0  0  0  0  0
   20.4119   63.2484  -11.6345 N   0  0  0  0  0  0  0  0  0  0  0  0
   21.7527   63.2474  -11.7206 C   0  0  0  0  0  0  0  0  0  0  0  0
   22.6927   63.1430  -12.6679 N   0  0  0  0  0  0  0  0  0  0  0  0
   23.8802   63.2145  -12.1397 O   0  0  0  0  0  0  0  0  0  0  0  0
   23.7744   63.3667  -10.8503 N   0  0  0  0  0  0  0  0  0  0  0  0
   22.4720   63.3938  -10.5295 C   0  0  0  0  0  0  0  0  0  0  0  0
   21.8220   63.5268   -9.3877 N   0  0  0  0  0  0  0  0  0  0  0  0
   20.4869   63.5221   -9.3533 C   0  0  0  0  0  0  0  0  0  0  0  0
   20.1428   63.6704   -8.0843 N   0  0  0  0  0  0  0  0  0  0  0  0
   21.2514   63.7664   -7.3298 N   0  0  0  0  0  0  0  0  0  0  0  0
   22.3244   63.6796   -8.1294 C   0  0  0  0  0  0  0  0  0  0  0  0
   18.3001   63.3805  -10.4146 N   0  0  0  0  0  0  0  0  0  0  0  0
   17.8150   64.3373  -10.2832 H   0  0  0  0  0  0  0  0  0  0  0  0
   15.4046   64.4748  -11.1731 I   0  0  0  0  0  0  0  0  0  0  0  0
   16.0623   62.5082  -10.7742 C   0  0  0  0  0  0  0  0  0  0  0  0
   17.4209   62.2797  -10.4616 C   0  0  0  0  0  0  0  0  0  0  0  0
   17.8661   61.0146  -10.2039 C   0  0  0  0  0  0  0  0  0  0  0  0
   16.9346   59.9747  -10.2593 C   0  0  0  0  0  0  0  0  0  0  0  0
   15.6152   60.1656  -10.5598 C   0  0  0  0  0  0  0  0  0  0  0  0
   15.1756   61.4612  -10.8219 C   0  0  0  0  0  0  0  0  0  0  0  0
   23.7690   63.7248   -7.7791 C   0  0  0  0  0  0  0  0  0  0  0  0
   24.0210   63.5991   -6.3237 C   0  0  0  0  0  0  0  0  0  0  0  0
   23.6593   64.4573   -5.4920 O   0  0  0  0  0  0  0  0  0  0  0  0
   24.6835   62.4939   -5.8661 O   0  0  0  0  0  0  0  0  0  0  0  0
   25.4295   62.4326   -4.7035 C   0  0  0  0  0  0  0  0  0  0  0  0
   26.8848   62.6688   -4.8420 C   0  0  0  0  0  0  0  0  0  0  0  0
 15 16  1  0  0  0
 16 17  2  0  0  0
 16 21  1  0  0  0
 17 18  1  0  0  0
 17 13  1  0  0  0
 18 19  2  0  0  0
 19 20  1  0  0  0
 20 21  2  0  0  0
 13  1  1  0  0  0
  1  2  2  0  0  0
  1  9  1  0  0  0
  2  3  1  0  0  0
  3  4  2  0  0  0
  3  7  1  0  0  0
  4  5  1  0  0  0
  5  6  1  0  0  0
  6  7  2  0  0  0
  7  8  1  0  0  0
  8  9  1  0  0  0
  8 12  1  0  0  0
  9 10  2  0  0  0
 10 11  1  0  0  0
 11 12  2  0  0  0
 12 22  1  0  0  0
 22 23  1  0  0  0
 23 24  2  0  0  0
 23 25  1  0  0  0
 25 26  1  0  0  0
 26 27  1  0  0  0
 13 14  1  0  0  0
M  END
> <minimizedAffinity>
-9.74736

$$$$
908


 25 28  0  0  0  0  0  0  0  0999 V2000
   19.0409   62.3736  -10.5311 N   0  0  0  0  0  0  0  0  0  0  0  0
   19.7714   62.8035   -9.4870 C   0  0  0  0  0  0  0  0  0  0  0  0
   19.4214   62.7298   -8.2707 O   0  0  0  0  0  0  0  0  0  0  0  0
   20.9711   63.3457   -9.9001 C   0  0  0  0  0  0  0  0  0  0  0  0
   20.9704   63.2429  -11.2192 C   0  0  0  0  0  0  0  0  0  0  0  0
   22.1519   63.7768  -11.6095 N   0  0  0  0  0  0  0  0  0  0  0  0
   22.8435   64.1880  -10.5626 N   0  0  0  0  0  0  0  0  0  0  0  0
   22.1323   63.9315   -9.4952 N   0  0  0  0  0  0  0  0  0  0  0  0
   19.7856   62.6449  -11.6184 C   0  0  0  0  0  0  0  0  0  0  0  0
   19.4739   62.4022  -12.8295 O   0  0  0  0  0  0  0  0  0  0  0  0
   22.4892   63.8618  -12.5914 H   0  0  0  0  0  0  0  0  0  0  0  0
   23.7820   64.6361  -10.5805 H   0  0  0  0  0  0  0  0  0  0  0  0
   16.8069   64.5948  -10.8766 I   0  0  0  0  0  0  0  0  0  0  0  0
   16.5967   62.4995  -10.6631 C   0  0  0  0  0  0  0  0  0  0  0  0
   17.7523   61.7576  -10.5279 C   0  0  0  0  0  0  0  0  0  0  0  0
   17.5943   60.3936  -10.3907 C   0  0  0  0  0  0  0  0  0  0  0  0
   16.3392   59.8095  -10.3884 C   0  0  0  0  0  0  0  0  0  0  0  0
   15.1913   60.5611  -10.5246 C   0  0  0  0  0  0  0  0  0  0  0  0
   15.3412   61.9255  -10.6624 C   0  0  0  0  0  0  0  0  0  0  0  0
   22.4566   64.1913   -8.1360 C   0  0  0  0  0  0  0  0  0  0  0  0
   21.7416   65.0858   -7.3708 C   0  0  0  0  0  0  0  0  0  0  0  0
   22.0831   65.3166   -6.0482 C   0  0  0  0  0  0  0  0  0  0  0  0
   23.1417   64.6694   -5.4451 C   0  0  0  0  0  0  0  0  0  0  0  0
   23.8582   63.7733   -6.2096 C   0  0  0  0  0  0  0  0  0  0  0  0
   23.5272   63.5384   -7.5218 C   0  0  0  0  0  0  0  0  0  0  0  0
 13 14  1  0  0  0
 14 15  2  0  0  0
 14 19  1  0  0  0
 15 16  1  0  0  0
 15  1  1  0  0  0
 16 17  2  0  0  0
 17 18  1  0  0  0
 18 19  2  0  0  0
  1  2  1  0  0  0
  1  9  1  0  0  0
  2  3  2  0  0  0
  2  4  1  0  0  0
  4  5  2  0  0  0
  4  8  1  0  0  0
  5  6  1  0  0  0
  5  9  1  0  0  0
  6  7  1  0  0  0
  7  8  1  0  0  0
  8 20  1  0  0  0
 20 21  2  0  0  0
 20 25  1  0  0  0
 21 22  1  0  0  0
 22 23  2  0  0  0
 23 24  1  0  0  0
 24 25  2  0  0  0
  9 10  2  0  0  0
  6 11  1  0  0  0
  7 12  1  0  0  0
M  END
> <minimizedAffinity>
-9.34785

$$$$
910


 26 29  0  0  0  0  0  0  0  0999 V2000
   19.5582   63.4186   -9.5220 C   0  0  0  0  0  0  0  0  0  0  0  0
   20.7843   63.4595  -10.2253 C   0  0  0  0  0  0  0  0  0  0  0  0
   21.0588   63.3343  -11.5185 N   0  0  0  0  0  0  0  0  0  0  0  0
   22.3432   63.4403  -11.6751 O   0  0  0  0  0  0  0  0  0  0  0  0
   22.9190   63.6276  -10.5427 N   0  0  0  0  0  0  0  0  0  0  0  0
   21.9713   63.6464   -9.5962 C   0  0  0  0  0  0  0  0  0  0  0  0
   22.0035   63.8043   -8.2285 C   0  0  0  0  0  0  0  0  0  0  0  0
   20.8325   63.7685   -7.5165 C   0  0  0  0  0  0  0  0  0  0  0  0
   19.6170   63.5790   -8.1444 C   0  0  0  0  0  0  0  0  0  0  0  0
   23.2517   63.9880   -7.6150 N   0  0  0  0  0  0  0  0  0  0  0  0
   24.1508   62.8765   -7.3017 C   0  0  0  0  0  0  0  0  0  0  0  0
   24.2722   62.8986   -5.7916 C   0  0  0  0  0  0  0  0  0  0  0  0
   23.5693   63.9308   -5.1915 O   0  0  0  0  0  0  0  0  0  0  0  0
   23.8423   65.1912   -5.6794 C   0  0  0  0  0  0  0  0  0  0  0  0
   23.8432   65.2389   -7.1973 C   0  0  0  0  0  0  0  0  0  0  0  0
   17.3519   63.1927  -11.0826 C   0  0  0  0  0  0  0  0  0  0  0  0
   17.1251   63.9249  -12.1308 O   0  0  0  0  0  0  0  0  0  0  0  0
   18.4358   63.3038  -10.3160 N   0  0  0  0  0  0  0  0  0  0  0  0
   18.8112   64.4307  -10.9813 H   0  0  0  0  0  0  0  0  0  0  0  0
   14.1073   64.3312  -11.8899 I   0  0  0  0  0  0  0  0  0  0  0  0
   14.9068   62.4977  -11.1627 C   0  0  0  0  0  0  0  0  0  0  0  0
   16.2299   62.2358  -10.8805 C   0  0  0  0  0  0  0  0  0  0  0  0
   16.3028   60.9716  -10.4564 N   0  0  0  0  0  0  0  0  0  0  0  0
   15.0790   60.4575  -10.4676 N   0  0  0  0  0  0  0  0  0  0  0  0
   14.1936   61.3559  -10.8931 C   0  0  0  0  0  0  0  0  0  0  0  0
   17.4990   60.1962  -10.0784 C   0  0  0  0  0  0  0  0  0  0  0  0
 20 21  1  0  0  0
 21 22  2  0  0  0
 21 25  1  0  0  0
 22 23  1  0  0  0
 22 16  1  0  0  0
 23 24  1  0  0  0
 23 26  1  0  0  0
 24 25  2  0  0  0
 16 17  2  0  0  0
 16 18  1  0  0  0
 18  1  1  0  0  0
  1  2  1  0  0  0
  1  9  2  0  0  0
  2  3  2  0  0  0
  2  6  1  0  0  0
  3  4  1  0  0  0
  4  5  1  0  0  0
  5  6  2  0  0  0
  6  7  1  0  0  0
  7  8  2  0  0  0
  7 10  1  0  0  0
  8  9  1  0  0  0
 10 11  1  0  0  0
 10 15  1  0  0  0
 11 12  1  0  0  0
 12 13  1  0  0  0
 13 14  1  0  0  0
 14 15  1  0  0  0
 18 19  1  0  0  0
M  END
> <minimizedAffinity>
-7.29549

$$$$
920


 24 27  0  0  0  0  0  0  0  0999 V2000
   21.4195   63.4059   -9.5799 N   0  0  0  0  0  0  0  0  0  0  0  0
   21.6112   63.2575  -10.8537 C   0  0  0  0  0  0  0  0  0  0  0  0
   20.7061   62.9113  -12.3703 S   0  0  0  0  0  0  0  0  0  0  0  0
   22.1568   62.9852  -13.3954 C   0  0  0  0  0  0  0  0  0  0  0  0
   23.1985   63.2482  -12.6381 C   0  0  0  0  0  0  0  0  0  0  0  0
   22.9411   63.4037  -11.2541 N   0  0  0  0  0  0  0  0  0  0  0  0
   23.7127   63.6994  -10.0196 C   0  0  0  0  0  0  0  0  0  0  0  0
   22.6871   63.6321   -8.9423 C   0  0  0  0  0  0  0  0  0  0  0  0
   24.5333   63.3489  -13.2986 C   0  0  0  0  0  0  0  0  0  0  0  0
   25.7053   63.3117  -12.5896 C   0  0  0  0  0  0  0  0  0  0  0  0
   26.9631   63.3975  -13.2182 C   0  0  0  0  0  0  0  0  0  0  0  0
   27.0457   63.5231  -14.5857 C   0  0  0  0  0  0  0  0  0  0  0  0
   25.8749   63.5610  -15.3008 C   0  0  0  0  0  0  0  0  0  0  0  0
   24.6393   63.4752  -14.6720 C   0  0  0  0  0  0  0  0  0  0  0  0
   20.1718   63.3147   -8.9191 C   0  0  0  0  0  0  0  0  0  0  0  0
   19.1159   62.4655   -9.4032 C   0  0  0  0  0  0  0  0  0  0  0  0
   19.3971   61.1948   -9.2876 O   0  0  0  0  0  0  0  0  0  0  0  0
   13.4844   63.7947  -12.0003 I   0  0  0  0  0  0  0  0  0  0  0  0
   15.3206   63.3105  -11.1472 C   0  0  0  0  0  0  0  0  0  0  0  0
   15.7767   62.0196  -10.9627 C   0  0  0  0  0  0  0  0  0  0  0  0
   16.9913   61.7352  -10.3988 C   0  0  0  0  0  0  0  0  0  0  0  0
   17.8266   62.7269   -9.9831 C   0  0  0  0  0  0  0  0  0  0  0  0
   17.3837   64.0365  -10.1610 C   0  0  0  0  0  0  0  0  0  0  0  0
   16.1820   64.3209  -10.7188 C   0  0  0  0  0  0  0  0  0  0  0  0
 18 19  1  0  0  0
 19 20  2  0  0  0
 19 24  1  0  0  0
 20 21  1  0  0  0
 21 22  2  0  0  0
 22 23  1  0  0  0
 22 16  1  0  0  0
 23 24  2  0  0  0
 16 17  2  0  0  0
 16 15  1  0  0  0
 15  1  1  0  0  0
  1  2  2  0  0  0
  1  8  1  0  0  0
  2  3  1  0  0  0
  2  6  1  0  0  0
  3  4  1  0  0  0
  4  5  2  0  0  0
  5  6  1  0  0  0
  5  9  1  0  0  0
  6  7  1  0  0  0
  7  8  1  0  0  0
  9 10  2  0  0  0
  9 14  1  0  0  0
 10 11  1  0  0  0
 11 12  2  0  0  0
 12 13  1  0  0  0
 13 14  2  0  0  0
M  END
> <minimizedAffinity>
-8.59329

$$$$
924


 29 32  0  0  0  0  0  0  0  0999 V2000
   21.0253   63.0918  -10.6167 C   0  0  0  0  0  0  0  0  0  0  0  0
   21.5276   63.3672   -9.4010 N   0  0  0  0  0  0  0  0  0  0  0  0
   22.8260   63.6482   -9.2340 C   0  0  0  0  0  0  0  0  0  0  0  0
   23.5938   63.6391  -10.3361 N   0  0  0  0  0  0  0  0  0  0  0  0
   23.1268   63.3670  -11.5712 C   0  0  0  0  0  0  0  0  0  0  0  0
   21.8155   63.0907  -11.6967 N   0  0  0  0  0  0  0  0  0  0  0  0
   24.0087   63.3773  -12.6853 N   0  0  0  0  0  0  0  0  0  0  0  0
   25.4221   63.1610  -12.4799 C   0  0  0  0  0  0  0  0  0  0  0  0
   26.1241   64.0508  -13.5154 C   0  0  0  0  0  0  0  0  0  0  0  0
   25.8183   63.5566  -14.7565 O   0  0  0  0  0  0  0  0  0  0  0  0
   24.4970   63.5641  -15.1059 C   0  0  0  0  0  0  0  0  0  0  0  0
   23.5084   63.6000  -13.9975 C   0  0  0  0  0  0  0  0  0  0  0  0
   23.3821   63.9433   -7.9524 N   0  0  0  0  0  0  0  0  0  0  0  0
   24.0581   62.9721   -7.1468 C   0  0  0  0  0  0  0  0  0  0  0  0
   24.3421   63.6152   -5.7877 C   0  0  0  0  0  0  0  0  0  0  0  0
   23.2110   64.2188   -5.2636 O   0  0  0  0  0  0  0  0  0  0  0  0
   22.7673   65.2866   -6.0040 C   0  0  0  0  0  0  0  0  0  0  0  0
   23.2629   65.2938   -7.4276 C   0  0  0  0  0  0  0  0  0  0  0  0
   19.6178   62.7917  -10.7721 N   0  0  0  0  0  0  0  0  0  0  0  0
   19.0863   63.1958  -11.5741 H   0  0  0  0  0  0  0  0  0  0  0  0
   17.7518   61.9241   -9.7169 C   0  0  0  0  0  0  0  0  0  0  0  0
   19.0009   62.0084   -9.8541 N   0  0  0  0  0  0  0  0  0  0  0  0
   12.9592   64.4714  -13.0126 I   0  0  0  0  0  0  0  0  0  0  0  0
   14.5816   63.7153  -11.9294 C   0  0  0  0  0  0  0  0  0  0  0  0
   15.6654   64.4702  -11.6027 C   0  0  0  0  0  0  0  0  0  0  0  0
   16.7211   63.9017  -10.8744 C   0  0  0  0  0  0  0  0  0  0  0  0
   16.7270   62.6017  -10.4622 C   0  0  0  0  0  0  0  0  0  0  0  0
   15.5975   61.8468  -10.8128 C   0  0  0  0  0  0  0  0  0  0  0  0
   14.5609   62.3987  -11.5259 C   0  0  0  0  0  0  0  0  0  0  0  0
 23 24  1  0  0  0
 24 25  2  0  0  0
 24 29  1  0  0  0
 25 26  1  0  0  0
 26 27  2  0  0  0
 27 28  1  0  0  0
 27 21  1  0  0  0
 28 29  2  0  0  0
 21 22  2  0  0  0
 22 19  1  0  0  0
 19  1  1  0  0  0
  1  2  2  0  0  0
  1  6  1  0  0  0
  2  3  1  0  0  0
  3  4  2  0  0  0
  3 13  1  0  0  0
  4  5  1  0  0  0
  5  6  2  0  0  0
  5  7  1  0  0  0
  7  8  1  0  0  0
  7 12  1  0  0  0
  8  9  1  0  0  0
  9 10  1  0  0  0
 10 11  1  0  0  0
 11 12  1  0  0  0
 13 14  1  0  0  0
 13 18  1  0  0  0
 14 15  1  0  0  0
 15 16  1  0  0  0
 16 17  1  0  0  0
 17 18  1  0  0  0
 19 20  1  0  0  0
M  END
> <minimizedAffinity>
-8.71702

$$$$
935


 34 38  0  0  0  0  0  0  0  0999 V2000
   12.2367   63.6995  -14.0492 N   0  0  0  0  0  0  0  0  0  0  0  0
   11.9095   64.7787  -14.7810 C   0  0  0  0  0  0  0  0  0  0  0  0
   10.8676   64.7729  -15.6824 C   0  0  0  0  0  0  0  0  0  0  0  0
   10.1706   63.5855  -15.7922 C   0  0  0  0  0  0  0  0  0  0  0  0
    9.1874   63.4168  -16.5751 O   0  0  0  0  0  0  0  0  0  0  0  0
   10.4939   62.4794  -15.0525 N   0  0  0  0  0  0  0  0  0  0  0  0
   11.5263   62.5695  -14.1963 C   0  0  0  0  0  0  0  0  0  0  0  0
   11.8605   61.5803  -13.4961 O   0  0  0  0  0  0  0  0  0  0  0  0
   12.6246   65.9400  -14.6406 O   0  0  0  0  0  0  0  0  0  0  0  0
    9.9681   61.5899  -15.1389 H   0  0  0  0  0  0  0  0  0  0  0  0
   10.4647   65.8892  -16.5177 C   0  0  0  0  0  0  0  0  0  0  0  0
    9.0683   66.0542  -16.7684 N   0  0  0  0  0  0  0  0  0  0  0  0
    8.2807   66.3496  -15.6029 C   0  0  0  0  0  0  0  0  0  0  0  0
    9.1153   66.6685  -14.3804 C   0  0  0  0  0  0  0  0  0  0  0  0
   10.2267   67.6037  -14.7937 C   0  0  0  0  0  0  0  0  0  0  0  0
   10.9046   67.1985  -15.9156 C   0  0  0  0  0  0  0  0  0  0  0  0
   11.9212   67.9661  -16.4309 C   0  0  0  0  0  0  0  0  0  0  0  0
   12.2224   69.1489  -15.7709 C   0  0  0  0  0  0  0  0  0  0  0  0
   11.5513   69.5698  -14.6415 C   0  0  0  0  0  0  0  0  0  0  0  0
   10.5262   68.7608  -14.1529 C   0  0  0  0  0  0  0  0  0  0  0  0
   12.0922   70.7791  -14.2339 O   0  0  0  0  0  0  0  0  0  0  0  0
   13.3615   70.9637  -14.8815 C   0  0  0  0  0  0  0  0  0  0  0  0
   13.1777   70.1459  -16.0220 O   0  0  0  0  0  0  0  0  0  0  0  0
    8.9709   67.2729  -17.6139 C   0  0  0  0  0  0  0  0  0  0  0  0
    8.6216   65.3511  -17.3801 H   0  0  0  0  0  0  0  0  0  0  0  0
   12.5896   67.5555  -17.5493 O   0  0  0  0  0  0  0  0  0  0  0  0
   13.8786   67.0343  -17.6157 C   0  0  0  0  0  0  0  0  0  0  0  0
   17.0514   63.8371   -9.9384 I   0  0  0  0  0  0  0  0  0  0  0  0
   15.4599   63.8112  -11.3063 C   0  0  0  0  0  0  0  0  0  0  0  0
   14.6815   62.6671  -11.4461 C   0  0  0  0  0  0  0  0  0  0  0  0
   13.6451   62.6419  -12.3329 C   0  0  0  0  0  0  0  0  0  0  0  0
   13.3152   63.7284  -13.1274 C   0  0  0  0  0  0  0  0  0  0  0  0
   14.0902   64.8755  -12.9926 C   0  0  0  0  0  0  0  0  0  0  0  0
   15.1358   64.8911  -12.0935 C   0  0  0  0  0  0  0  0  0  0  0  0
 28 29  1  0  0  0
 29 30  2  0  0  0
 29 34  1  0  0  0
 30 31  1  0  0  0
 31 32  2  0  0  0
 32 33  1  0  0  0
 32  1  1  0  0  0
 33 34  2  0  0  0
  1  2  1  0  0  0
  1  7  1  0  0  0
  2  3  2  0  0  0
  2  9  1  0  0  0
  3  4  1  0  0  0
  3 11  1  0  0  0
  4  5  2  0  0  0
  4  6  1  0  0  0
  6  7  1  0  0  0
  7  8  2  0  0  0
 11 12  1  0  0  0
 11 16  1  0  0  0
 12 13  1  0  0  0
 12 24  1  0  0  0
 13 14  1  0  0  0
 14 15  1  0  0  0
 15 16  2  0  0  0
 15 20  1  0  0  0
 16 17  1  0  0  0
 17 18  2  0  0  0
 17 26  1  0  0  0
 18 19  1  0  0  0
 18 23  1  0  0  0
 19 20  2  0  0  0
 19 21  1  0  0  0
 21 22  1  0  0  0
 22 23  1  0  0  0
 26 27  1  0  0  0
  6 10  1  0  0  0
 12 25  1  0  0  0
M  CHG 1   9  -1
M  CHG 1  12   1
M  END
> <minimizedAffinity>
-4.56210

$$$$
937


 26 29  0  0  0  0  0  0  0  0999 V2000
   14.3413   63.7305  -11.9188 N   0  0  0  0  0  0  0  0  0  0  0  0
   15.2046   64.1048  -10.8582 C   0  0  0  0  0  0  0  0  0  0  0  0
   15.3216   65.2844  -10.4362 O   0  0  0  0  0  0  0  0  0  0  0  0
   15.9196   62.9024  -10.3469 C   0  0  0  0  0  0  0  0  0  0  0  0
   14.9132   61.8037  -10.6436 C   0  0  0  0  0  0  0  0  0  0  0  0
   14.1033   62.3338  -11.7582 C   0  0  0  0  0  0  0  0  0  0  0  0
   13.3037   61.6755  -12.4856 O   0  0  0  0  0  0  0  0  0  0  0  0
   11.8242   67.3661  -16.4960 I   0  0  0  0  0  0  0  0  0  0  0  0
   12.6508   66.1562  -14.9741 C   0  0  0  0  0  0  0  0  0  0  0  0
   11.8641   65.4076  -14.1242 C   0  0  0  0  0  0  0  0  0  0  0  0
   12.4313   64.6261  -13.1377 C   0  0  0  0  0  0  0  0  0  0  0  0
   13.7976   64.5622  -12.9613 C   0  0  0  0  0  0  0  0  0  0  0  0
   14.5637   65.3155  -13.8186 C   0  0  0  0  0  0  0  0  0  0  0  0
   14.0183   66.1042  -14.8126 C   0  0  0  0  0  0  0  0  0  0  0  0
   17.1266   62.7707  -11.0533 N   0  0  0  0  0  0  0  0  0  0  0  0
   17.8535   63.8887  -11.4609 C   0  0  0  0  0  0  0  0  0  0  0  0
   19.3344   63.4446  -11.5875 C   0  0  0  0  0  0  0  0  0  0  0  0
   19.6967   62.7402  -10.3666 N   0  0  0  0  0  0  0  0  0  0  0  0
   18.9380   61.5526  -10.0618 C   0  0  0  0  0  0  0  0  0  0  0  0
   17.7549   61.5123  -11.0254 C   0  0  0  0  0  0  0  0  0  0  0  0
   20.7316   63.2083   -9.5314 C   0  0  0  0  0  0  0  0  0  0  0  0
   22.0189   63.2396   -9.9715 N   0  0  0  0  0  0  0  0  0  0  0  0
   23.0362   63.6795   -9.2341 C   0  0  0  0  0  0  0  0  0  0  0  0
   22.8145   64.1382   -7.9425 C   0  0  0  0  0  0  0  0  0  0  0  0
   21.5036   64.1038   -7.5005 C   0  0  0  0  0  0  0  0  0  0  0  0
   20.5093   63.6532   -8.2773 N   0  0  0  0  0  0  0  0  0  0  0  0
  8  9  1  0  0  0
  9 10  2  0  0  0
  9 14  1  0  0  0
 10 11  1  0  0  0
 11 12  2  0  0  0
 12 13  1  0  0  0
 12  1  1  0  0  0
 13 14  2  0  0  0
  1  2  1  0  0  0
  1  6  1  0  0  0
  2  3  2  0  0  0
  2  4  1  0  0  0
  4  5  1  0  0  0
  4 15  1  0  0  0
  5  6  1  0  0  0
  6  7  2  0  0  0
 15 16  1  0  0  0
 15 20  1  0  0  0
 16 17  1  0  0  0
 17 18  1  0  0  0
 18 19  1  0  0  0
 18 21  1  0  0  0
 19 20  1  0  0  0
 21 22  2  0  0  0
 21 26  1  0  0  0
 22 23  1  0  0  0
 23 24  2  0  0  0
 24 25  1  0  0  0
 25 26  2  0  0  0
M  END
> <minimizedAffinity>
-7.65085

$$$$
950


 26 29  0  0  0  0  0  0  0  0999 V2000
   14.5283   63.7892  -11.7752 C   0  0  0  0  0  0  0  0  0  0  0  0
   14.9306   62.5304  -11.3182 C   0  0  0  0  0  0  0  0  0  0  0  0
   14.2690   61.3640  -11.2234 N   0  0  0  0  0  0  0  0  0  0  0  0
   15.0772   60.4711  -10.7324 O   0  0  0  0  0  0  0  0  0  0  0  0
   16.2401   60.9957  -10.4990 N   0  0  0  0  0  0  0  0  0  0  0  0
   16.1976   62.2947  -10.8524 C   0  0  0  0  0  0  0  0  0  0  0  0
   17.1197   63.3186  -10.8259 C   0  0  0  0  0  0  0  0  0  0  0  0
   16.7145   64.5494  -11.2776 C   0  0  0  0  0  0  0  0  0  0  0  0
   15.4216   64.8005  -11.7545 C   0  0  0  0  0  0  0  0  0  0  0  0
   18.4254   63.0551  -10.3403 N   0  0  0  0  0  0  0  0  0  0  0  0
   19.5793   63.2156  -11.2010 C   0  0  0  0  0  0  0  0  0  0  0  0
   20.8139   62.9534  -10.4114 C   0  0  0  0  0  0  0  0  0  0  0  0
   20.8696   63.6227   -9.2044 O   0  0  0  0  0  0  0  0  0  0  0  0
   19.8273   63.3890   -8.3645 C   0  0  0  0  0  0  0  0  0  0  0  0
   18.6877   62.6189   -8.9831 C   0  0  0  0  0  0  0  0  0  0  0  0
   12.7757   64.1664  -13.5323 C   0  0  0  0  0  0  0  0  0  0  0  0
   13.6399   64.3123  -14.4647 O   0  0  0  0  0  0  0  0  0  0  0  0
   13.1962   63.9162  -12.2333 N   0  0  0  0  0  0  0  0  0  0  0  0
   12.4101   63.8243  -11.5153 H   0  0  0  0  0  0  0  0  0  0  0  0
   11.1703   67.3520  -14.4534 I   0  0  0  0  0  0  0  0  0  0  0  0
   10.6213   65.3443  -14.3425 C   0  0  0  0  0  0  0  0  0  0  0  0
    9.3509   64.8612  -14.6568 C   0  0  0  0  0  0  0  0  0  0  0  0
    9.3411   63.5421  -14.4588 N   0  0  0  0  0  0  0  0  0  0  0  0
   10.5290   63.1993  -14.0435 N   0  0  0  0  0  0  0  0  0  0  0  0
   11.3679   64.2861  -13.9542 C   0  0  0  0  0  0  0  0  0  0  0  0
    8.1801   62.6692  -14.6809 C   0  0  0  0  0  0  0  0  0  0  0  0
 20 21  1  0  0  0
 21 22  2  0  0  0
 21 25  1  0  0  0
 22 23  1  0  0  0
 23 24  1  0  0  0
 23 26  1  0  0  0
 24 25  2  0  0  0
 25 16  1  0  0  0
 16 17  2  0  0  0
 16 18  1  0  0  0
 18  1  1  0  0  0
  1  2  1  0  0  0
  1  9  2  0  0  0
  2  3  2  0  0  0
  2  6  1  0  0  0
  3  4  1  0  0  0
  4  5  1  0  0  0
  5  6  2  0  0  0
  6  7  1  0  0  0
  7  8  2  0  0  0
  7 10  1  0  0  0
  8  9  1  0  0  0
 10 11  1  0  0  0
 10 15  1  0  0  0
 11 12  1  0  0  0
 12 13  1  0  0  0
 13 14  1  0  0  0
 14 15  1  0  0  0
 18 19  1  0  0  0
M  END
> <minimizedAffinity>
-7.29827

$$$$
956


 30 33  0  0  0  0  0  0  0  0999 V2000
   23.0152   63.8433   -9.5292 I   0  0  0  0  0  0  0  0  0  0  0  0
   21.0860   63.5535  -10.3280 C   0  0  0  0  0  0  0  0  0  0  0  0
   20.7883   63.1109  -11.5830 C   0  0  0  0  0  0  0  0  0  0  0  0
   19.3937   63.0900  -11.6243 C   0  0  0  0  0  0  0  0  0  0  0  0
   18.8587   63.4923  -10.4709 N   0  0  0  0  0  0  0  0  0  0  0  0
   19.8869   63.7780   -9.6725 C   0  0  0  0  0  0  0  0  0  0  0  0
   18.8111   62.6854  -12.7655 N   0  0  0  0  0  0  0  0  0  0  0  0
   19.5458   62.3163  -13.8262 C   0  0  0  0  0  0  0  0  0  0  0  0
   20.8814   62.3378  -13.7831 N   0  0  0  0  0  0  0  0  0  0  0  0
   21.5567   62.7360  -12.6607 C   0  0  0  0  0  0  0  0  0  0  0  0
   17.4764   63.6107  -10.1149 C   0  0  0  0  0  0  0  0  0  0  0  0
   16.7131   62.5030  -10.4633 O   0  0  0  0  0  0  0  0  0  0  0  0
   15.4229   62.9172  -10.1447 C   0  0  0  0  0  0  0  0  0  0  0  0
   15.3097   64.3653  -10.5606 C   0  0  0  0  0  0  0  0  0  0  0  0
   16.7632   64.7092  -10.9075 C   0  0  0  0  0  0  0  0  0  0  0  0
   14.9625   65.1857   -9.4864 O   0  0  0  0  0  0  0  0  0  0  0  0
   13.9809   65.0211   -9.3335 H   0  0  0  0  0  0  0  0  0  0  0  0
   14.4027   62.1453  -10.9935 C   0  0  0  0  0  0  0  0  0  0  0  0
   14.3608   60.8170  -10.5499 O   0  0  0  0  0  0  0  0  0  0  0  0
   13.6135   60.6864   -9.8844 H   0  0  0  0  0  0  0  0  0  0  0  0
   22.9805   62.7386  -12.6717 N   0  0  0  0  0  0  0  0  0  0  0  0
   23.6527   63.2289  -13.8282 C   0  0  0  0  0  0  0  0  0  0  0  0
   22.9390   63.6352  -14.7804 O   0  0  0  0  0  0  0  0  0  0  0  0
   23.5843   62.4147  -11.9111 H   0  0  0  0  0  0  0  0  0  0  0  0
   25.0814   63.2879  -13.9723 C   0  0  0  0  0  0  0  0  0  0  0  0
   25.9041   63.3367  -12.8809 C   0  0  0  0  0  0  0  0  0  0  0  0
   27.2942   63.3905  -13.0041 C   0  0  0  0  0  0  0  0  0  0  0  0
   27.8564   63.3952  -14.2466 C   0  0  0  0  0  0  0  0  0  0  0  0
   27.0568   63.3471  -15.3591 C   0  0  0  0  0  0  0  0  0  0  0  0
   25.6659   63.2935  -15.2125 C   0  0  0  0  0  0  0  0  0  0  0  0
  1  2  1  0  0  0
  2  3  1  0  0  0
  2  6  2  0  0  0
  3  4  2  0  0  0
  3 10  1  0  0  0
  4  5  1  0  0  0
  4  7  1  0  0  0
  5  6  1  0  0  0
  5 11  1  0  0  0
 11 12  1  0  0  0
 11 15  1  0  0  0
 12 13  1  0  0  0
 13 14  1  0  0  0
 13 18  1  0  0  0
 14 15  1  0  0  0
 14 16  1  0  0  0
 18 19  1  0  0  0
  7  8  2  0  0  0
  8  9  1  0  0  0
  9 10  2  0  0  0
 10 21  1  0  0  0
 21 22  1  0  0  0
 22 23  2  0  0  0
 22 25  1  0  0  0
 25 26  2  0  0  0
 25 30  1  0  0  0
 26 27  1  0  0  0
 27 28  2  0  0  0
 28 29  1  0  0  0
 29 30  2  0  0  0
 16 17  1  0  0  0
 19 20  1  0  0  0
 21 24  1  0  0  0
M  END
> <minimizedAffinity>
-5.21279

$$$$
961


 29 33  0  0  0  0  0  0  0  0999 V2000
   21.4836   63.3288  -10.3299 C   0  0  0  0  0  0  0  0  0  0  0  0
   21.9293   63.3215   -9.0966 N   0  0  0  0  0  0  0  0  0  0  0  0
   23.2753   63.3347   -8.8572 C   0  0  0  0  0  0  0  0  0  0  0  0
   24.2187   63.3589   -9.8380 C   0  0  0  0  0  0  0  0  0  0  0  0
   23.7884   63.3702  -11.1470 C   0  0  0  0  0  0  0  0  0  0  0  0
   24.4240   63.3933  -12.3693 N   0  0  0  0  0  0  0  0  0  0  0  0
   23.5200   63.3926  -13.3343 C   0  0  0  0  0  0  0  0  0  0  0  0
   22.3095   63.3702  -12.7127 N   0  0  0  0  0  0  0  0  0  0  0  0
   22.4442   63.3557  -11.3810 C   0  0  0  0  0  0  0  0  0  0  0  0
   25.8571   63.4350  -12.4369 C   0  0  0  0  0  0  0  0  0  0  0  0
   21.0530   63.3751   -7.9638 C   0  0  0  0  0  0  0  0  0  0  0  0
   23.7116   63.4323  -14.7888 C   0  0  0  0  0  0  0  0  0  0  0  0
   22.7498   63.7279  -15.6969 C   0  0  0  0  0  0  0  0  0  0  0  0
   23.0448   63.7064  -17.0731 C   0  0  0  0  0  0  0  0  0  0  0  0
   24.3110   63.3855  -17.5064 C   0  0  0  0  0  0  0  0  0  0  0  0
   25.3144   63.0800  -16.5969 C   0  0  0  0  0  0  0  0  0  0  0  0
   24.9874   63.1125  -15.2815 C   0  0  0  0  0  0  0  0  0  0  0  0
   19.0774   62.6418  -10.2311 C   0  0  0  0  0  0  0  0  0  0  0  0
   20.1014   63.2148  -10.7576 C   0  0  0  0  0  0  0  0  0  0  0  0
   17.5145   59.8716   -9.6686 Br  0  0  0  0  0  0  0  0  0  0  0  0
   16.8664   61.4845  -10.4500 C   0  0  0  0  0  0  0  0  0  0  0  0
   15.5068   61.5133  -10.8496 C   0  0  0  0  0  0  0  0  0  0  0  0
   14.9824   62.6198  -11.4609 C   0  0  0  0  0  0  0  0  0  0  0  0
   15.8049   63.7028  -11.6797 C   0  0  0  0  0  0  0  0  0  0  0  0
   17.1240   63.6643  -11.2877 C   0  0  0  0  0  0  0  0  0  0  0  0
   17.6986   62.5357  -10.6506 C   0  0  0  0  0  0  0  0  0  0  0  0
   15.0298   64.6878  -12.3140 O   0  0  0  0  0  0  0  0  0  0  0  0
   13.6853   64.3904  -11.9981 C   0  0  0  0  0  0  0  0  0  0  0  0
   13.7237   62.9643  -11.9632 O   0  0  0  0  0  0  0  0  0  0  0  0
 20 21  1  0  0  0
 21 22  2  0  0  0
 21 26  1  0  0  0
 22 23  1  0  0  0
 23 24  2  0  0  0
 23 29  1  0  0  0
 24 25  1  0  0  0
 24 27  1  0  0  0
 25 26  2  0  0  0
 26 18  1  0  0  0
 18 19  2  0  0  0
 19  1  1  0  0  0
  1  2  2  0  0  0
  1  9  1  0  0  0
  2  3  1  0  0  0
  2 11  1  0  0  0
  3  4  2  0  0  0
  4  5  1  0  0  0
  5  6  1  0  0  0
  5  9  2  0  0  0
  6  7  1  0  0  0
  6 10  1  0  0  0
  7  8  2  0  0  0
  7 12  1  0  0  0
  8  9  1  0  0  0
 12 13  2  0  0  0
 12 17  1  0  0  0
 13 14  1  0  0  0
 14 15  2  0  0  0
 15 16  1  0  0  0
 16 17  2  0  0  0
 27 28  1  0  0  0
 28 29  1  0  0  0
M  END
> <minimizedAffinity>
-8.15645

$$$$
969


 31 34  0  0  0  0  0  0  0  0999 V2000
   12.3059   68.6638  -14.3062 Br  0  0  0  0  0  0  0  0  0  0  0  0
   11.5229   67.0325  -14.8886 C   0  0  0  0  0  0  0  0  0  0  0  0
   11.9064   65.7851  -14.4042 C   0  0  0  0  0  0  0  0  0  0  0  0
   11.3049   64.6243  -14.8623 C   0  0  0  0  0  0  0  0  0  0  0  0
   10.3079   64.6913  -15.8142 C   0  0  0  0  0  0  0  0  0  0  0  0
    9.9255   65.9123  -16.2952 C   0  0  0  0  0  0  0  0  0  0  0  0
   10.5254   67.0578  -15.8369 C   0  0  0  0  0  0  0  0  0  0  0  0
   10.0772   68.2770  -16.3780 O   0  0  0  0  0  0  0  0  0  0  0  0
    8.5318   65.9345  -17.6158 Br  0  0  0  0  0  0  0  0  0  0  0  0
   11.6659   63.3773  -14.3996 C   0  0  0  0  0  0  0  0  0  0  0  0
   12.6622   63.3190  -13.4477 C   0  0  0  0  0  0  0  0  0  0  0  0
   13.2436   64.5977  -13.0215 C   0  0  0  0  0  0  0  0  0  0  0  0
   14.2513   64.5220  -12.0587 C   0  0  0  0  0  0  0  0  0  0  0  0
   14.6539   63.3054  -11.5586 C   0  0  0  0  0  0  0  0  0  0  0  0
   15.5648   63.2868  -10.6923 O   0  0  0  0  0  0  0  0  0  0  0  0
   14.0829   62.1106  -11.9838 C   0  0  0  0  0  0  0  0  0  0  0  0
   13.0922   62.1109  -12.9221 C   0  0  0  0  0  0  0  0  0  0  0  0
   14.7026   60.4646  -11.2350 Br  0  0  0  0  0  0  0  0  0  0  0  0
   15.0593   66.1577  -11.4548 Br  0  0  0  0  0  0  0  0  0  0  0  0
   12.8539   65.7546  -13.5026 O   0  0  0  0  0  0  0  0  0  0  0  0
   11.0345   62.1516  -14.8910 C   0  0  0  0  0  0  0  0  0  0  0  0
    9.8329   61.7171  -14.3619 C   0  0  0  0  0  0  0  0  0  0  0  0
    9.2212   60.5632  -14.8037 C   0  0  0  0  0  0  0  0  0  0  0  0
    9.8336   59.8321  -15.8006 C   0  0  0  0  0  0  0  0  0  0  0  0
   11.0162   60.2237  -16.3493 C   0  0  0  0  0  0  0  0  0  0  0  0
   11.6136   61.3789  -15.8951 C   0  0  0  0  0  0  0  0  0  0  0  0
   11.7252   59.2337  -17.6150 Cl  0  0  0  0  0  0  0  0  0  0  0  0
    9.0674   62.6718  -13.0870 Cl  0  0  0  0  0  0  0  0  0  0  0  0
   12.8701   61.7985  -16.4675 C   0  0  0  0  0  0  0  0  0  0  0  0
   13.9601   61.2232  -16.1978 O   0  0  0  0  0  0  0  0  0  0  0  0
   12.9174   62.8735  -17.3521 O   0  0  0  0  0  0  0  0  0  0  0  0
  1  2  1  0  0  0
  2  3  2  0  0  0
  2  7  1  0  0  0
  3  4  1  0  0  0
  3 20  1  0  0  0
  4  5  2  0  0  0
  4 10  1  0  0  0
  5  6  1  0  0  0
  6  7  2  0  0  0
  6  9  1  0  0  0
  7  8  1  0  0  0
 10 11  2  0  0  0
 10 21  1  0  0  0
 11 12  1  0  0  0
 11 17  1  0  0  0
 12 13  2  0  0  0
 12 20  1  0  0  0
 13 14  1  0  0  0
 13 19  1  0  0  0
 14 15  2  0  0  0
 14 16  1  0  0  0
 16 17  2  0  0  0
 16 18  1  0  0  0
 21 22  2  0  0  0
 21 26  1  0  0  0
 22 23  1  0  0  0
 22 28  1  0  0  0
 23 24  2  0  0  0
 24 25  1  0  0  0
 25 26  2  0  0  0
 25 27  1  0  0  0
 26 29  1  0  0  0
 29 30  2  0  0  0
 29 31  1  0  0  0
M  CHG 1   8  -1
M  END
> <minimizedAffinity>
-0.42933

$$$$
971


 29 33  0  0  0  0  0  0  0  0999 V2000
   24.1232   64.9301   -7.8448 Br  0  0  0  0  0  0  0  0  0  0  0  0
   22.3442   64.2510   -7.7379 C   0  0  0  0  0  0  0  0  0  0  0  0
   21.6757   63.7616   -8.8756 C   0  0  0  0  0  0  0  0  0  0  0  0
   20.4049   63.2685   -8.8412 C   0  0  0  0  0  0  0  0  0  0  0  0
   19.7510   63.2562   -7.6072 C   0  0  0  0  0  0  0  0  0  0  0  0
   20.3985   63.7307   -6.5052 C   0  0  0  0  0  0  0  0  0  0  0  0
   21.6845   64.2302   -6.5334 C   0  0  0  0  0  0  0  0  0  0  0  0
   22.2897   64.7024   -5.3565 O   0  0  0  0  0  0  0  0  0  0  0  0
   19.5126   63.7173   -4.8156 Br  0  0  0  0  0  0  0  0  0  0  0  0
   19.7390   62.7680  -10.0363 C   0  0  0  0  0  0  0  0  0  0  0  0
   19.4878   61.3820   -9.8124 O   0  0  0  0  0  0  0  0  0  0  0  0
   18.1520   61.0892   -9.8449 C   0  0  0  0  0  0  0  0  0  0  0  0
   17.6505   59.9537   -9.6807 O   0  0  0  0  0  0  0  0  0  0  0  0
   17.4754   62.3451  -10.1048 C   0  0  0  0  0  0  0  0  0  0  0  0
   18.3874   63.3688  -10.2247 C   0  0  0  0  0  0  0  0  0  0  0  0
   17.9198   64.6177  -10.4706 C   0  0  0  0  0  0  0  0  0  0  0  0
   16.5632   64.8343  -10.5927 C   0  0  0  0  0  0  0  0  0  0  0  0
   15.6463   63.8117  -10.4727 C   0  0  0  0  0  0  0  0  0  0  0  0
   16.1032   62.5442  -10.2252 C   0  0  0  0  0  0  0  0  0  0  0  0
   20.5554   62.8500  -11.2429 C   0  0  0  0  0  0  0  0  0  0  0  0
   21.8255   63.3554  -11.2141 C   0  0  0  0  0  0  0  0  0  0  0  0
   22.5999   63.4267  -12.3903 C   0  0  0  0  0  0  0  0  0  0  0  0
   22.0548   62.9774  -13.5703 C   0  0  0  0  0  0  0  0  0  0  0  0
   20.7669   62.4630  -13.6076 C   0  0  0  0  0  0  0  0  0  0  0  0
   20.0221   62.3976  -12.4636 C   0  0  0  0  0  0  0  0  0  0  0  0
   19.9986   61.8368  -15.2347 Br  0  0  0  0  0  0  0  0  0  0  0  0
   22.8272   63.0528  -14.7194 O   0  0  0  0  0  0  0  0  0  0  0  0
   24.3729   64.1405  -12.3097 Br  0  0  0  0  0  0  0  0  0  0  0  0
   22.4255   63.8218  -10.0529 O   0  0  0  0  0  0  0  0  0  0  0  0
  1  2  1  0  0  0
  2  3  2  0  0  0
  2  7  1  0  0  0
  3  4  1  0  0  0
  3 29  1  0  0  0
  4  5  2  0  0  0
  4 10  1  0  0  0
  5  6  1  0  0  0
  6  7  2  0  0  0
  6  9  1  0  0  0
  7  8  1  0  0  0
 10 11  1  0  0  0
 10 15  1  0  0  0
 10 20  1  0  0  0
 11 12  1  0  0  0
 12 13  2  0  0  0
 12 14  1  0  0  0
 14 15  2  0  0  0
 14 19  1  0  0  0
 15 16  1  0  0  0
 16 17  2  0  0  0
 17 18  1  0  0  0
 18 19  2  0  0  0
 20 21  2  0  0  0
 20 25  1  0  0  0
 21 22  1  0  0  0
 21 29  1  0  0  0
 22 23  2  0  0  0
 22 28  1  0  0  0
 23 24  1  0  0  0
 23 27  1  0  0  0
 24 25  2  0  0  0
 24 26  1  0  0  0
M  CHG 1   8  -1
M  CHG 1  27  -1
M  END
> <minimizedAffinity>
-0.85922

$$$$
978


 33 37  0  0  0  0  0  0  0  0999 V2000
   24.0188   64.3160  -12.5883 I   0  0  0  0  0  0  0  0  0  0  0  0
   22.1727   63.2963  -12.6979 C   0  0  0  0  0  0  0  0  0  0  0  0
   21.4471   63.1681  -11.5179 C   0  0  0  0  0  0  0  0  0  0  0  0
   20.2571   62.5179  -11.5573 C   0  0  0  0  0  0  0  0  0  0  0  0
   19.8041   62.0020  -12.7743 C   0  0  0  0  0  0  0  0  0  0  0  0
   20.5155   62.1241  -13.9477 C   0  0  0  0  0  0  0  0  0  0  0  0
   21.7250   62.7873  -13.8994 C   0  0  0  0  0  0  0  0  0  0  0  0
   22.4587   62.9216  -15.0691 O   0  0  0  0  0  0  0  0  0  0  0  0
   19.7840   61.3228  -15.7688 I   0  0  0  0  0  0  0  0  0  0  0  0
   19.4210   62.3277  -10.3867 C   0  0  0  0  0  0  0  0  0  0  0  0
   19.2008   60.9345  -10.1217 O   0  0  0  0  0  0  0  0  0  0  0  0
   17.8691   60.6132  -10.1171 C   0  0  0  0  0  0  0  0  0  0  0  0
   17.3091   59.4962   -9.9217 O   0  0  0  0  0  0  0  0  0  0  0  0
   17.1510   61.8492  -10.3923 C   0  0  0  0  0  0  0  0  0  0  0  0
   18.0562   62.8544  -10.5506 C   0  0  0  0  0  0  0  0  0  0  0  0
   17.6270   64.1528  -10.8255 C   0  0  0  0  0  0  0  0  0  0  0  0
   16.2860   64.4490  -10.9426 C   0  0  0  0  0  0  0  0  0  0  0  0
   15.3625   63.4196  -10.7804 C   0  0  0  0  0  0  0  0  0  0  0  0
   15.7811   62.1416  -10.5096 C   0  0  0  0  0  0  0  0  0  0  0  0
   14.6260   60.8789  -10.3118 Cl  0  0  0  0  0  0  0  0  0  0  0  0
   13.6538   63.7277  -10.9151 Cl  0  0  0  0  0  0  0  0  0  0  0  0
   15.7835   66.0878  -11.2869 Cl  0  0  0  0  0  0  0  0  0  0  0  0
   18.8318   65.3830  -11.0145 Cl  0  0  0  0  0  0  0  0  0  0  0  0
   20.0255   62.9262   -9.1657 C   0  0  0  0  0  0  0  0  0  0  0  0
   21.2159   63.5686   -9.1623 C   0  0  0  0  0  0  0  0  0  0  0  0
   21.6665   64.0821   -7.9478 C   0  0  0  0  0  0  0  0  0  0  0  0
   20.9561   63.9608   -6.7750 C   0  0  0  0  0  0  0  0  0  0  0  0
   19.7452   63.2991   -6.8166 C   0  0  0  0  0  0  0  0  0  0  0  0
   19.2718   62.7802   -7.9938 C   0  0  0  0  0  0  0  0  0  0  0  0
   18.6344   63.0967   -5.0383 I   0  0  0  0  0  0  0  0  0  0  0  0
   21.3987   64.4663   -5.5801 O   0  0  0  0  0  0  0  0  0  0  0  0
   23.5121   65.0814   -7.9295 I   0  0  0  0  0  0  0  0  0  0  0  0
   21.9570   63.7097  -10.3215 O   0  0  0  0  0  0  0  0  0  0  0  0
  1  2  1  0  0  0
  2  3  2  0  0  0
  2  7  1  0  0  0
  3  4  1  0  0  0
  3 33  1  0  0  0
  4  5  2  0  0  0
  4 10  1  0  0  0
  5  6  1  0  0  0
  6  7  2  0  0  0
  6  9  1  0  0  0
  7  8  1  0  0  0
 10 11  1  0  0  0
 10 15  1  0  0  0
 10 24  1  0  0  0
 11 12  1  0  0  0
 12 13  2  0  0  0
 12 14  1  0  0  0
 14 15  2  0  0  0
 14 19  1  0  0  0
 15 16  1  0  0  0
 16 17  2  0  0  0
 16 23  1  0  0  0
 17 18  1  0  0  0
 17 22  1  0  0  0
 18 19  2  0  0  0
 18 21  1  0  0  0
 19 20  1  0  0  0
 24 25  2  0  0  0
 24 29  1  0  0  0
 25 26  1  0  0  0
 25 33  1  0  0  0
 26 27  2  0  0  0
 26 32  1  0  0  0
 27 28  1  0  0  0
 27 31  1  0  0  0
 28 29  2  0  0  0
 28 30  1  0  0  0
M  CHG 1   8  -1
M  CHG 1  31  -1
M  END
> <minimizedAffinity>
16.49217

$$$$
979


 29 33  0  0  0  0  0  0  0  0999 V2000
   16.7353   64.2536  -17.6152 I   0  0  0  0  0  0  0  0  0  0  0  0
   14.9993   65.4255  -17.2936 C   0  0  0  0  0  0  0  0  0  0  0  0
   13.8019   64.7183  -17.0917 C   0  0  0  0  0  0  0  0  0  0  0  0
   12.6740   65.4471  -16.8829 C   0  0  0  0  0  0  0  0  0  0  0  0
   12.7536   66.8512  -16.8788 C   0  0  0  0  0  0  0  0  0  0  0  0
   13.9227   67.5389  -17.0754 C   0  0  0  0  0  0  0  0  0  0  0  0
   15.0657   66.7996  -17.2862 C   0  0  0  0  0  0  0  0  0  0  0  0
   16.2669   67.4634  -17.4893 O   0  0  0  0  0  0  0  0  0  0  0  0
   13.9711   69.6579  -17.0553 I   0  0  0  0  0  0  0  0  0  0  0  0
   11.3744   64.8012  -16.6627 C   0  0  0  0  0  0  0  0  0  0  0  0
   10.3864   65.2935  -17.5475 O   0  0  0  0  0  0  0  0  0  0  0  0
    9.3398   65.8823  -16.8879 C   0  0  0  0  0  0  0  0  0  0  0  0
    8.3041   66.4167  -17.3661 O   0  0  0  0  0  0  0  0  0  0  0  0
    9.6255   65.7894  -15.4630 C   0  0  0  0  0  0  0  0  0  0  0  0
   10.8182   65.1575  -15.3205 C   0  0  0  0  0  0  0  0  0  0  0  0
   11.3085   64.9495  -14.0259 C   0  0  0  0  0  0  0  0  0  0  0  0
   10.5895   65.3805  -12.9350 C   0  0  0  0  0  0  0  0  0  0  0  0
    9.3783   66.0238  -13.0774 C   0  0  0  0  0  0  0  0  0  0  0  0
    8.8868   66.2328  -14.3433 C   0  0  0  0  0  0  0  0  0  0  0  0
   11.4424   63.3303  -16.6941 C   0  0  0  0  0  0  0  0  0  0  0  0
   12.5987   62.6616  -16.9063 C   0  0  0  0  0  0  0  0  0  0  0  0
   12.5877   61.2706  -16.9242 C   0  0  0  0  0  0  0  0  0  0  0  0
   11.4255   60.5792  -16.7286 C   0  0  0  0  0  0  0  0  0  0  0  0
   10.2319   61.2265  -16.5089 C   0  0  0  0  0  0  0  0  0  0  0  0
   10.2676   62.5938  -16.4971 C   0  0  0  0  0  0  0  0  0  0  0  0
    8.4365   60.1510  -16.2068 I   0  0  0  0  0  0  0  0  0  0  0  0
   11.4434   59.1904  -16.7500 O   0  0  0  0  0  0  0  0  0  0  0  0
   14.4101   60.2281  -17.2587 I   0  0  0  0  0  0  0  0  0  0  0  0
   13.8208   63.3216  -17.1142 O   0  0  0  0  0  0  0  0  0  0  0  0
  1  2  1  0  0  0
  2  3  2  0  0  0
  2  7  1  0  0  0
  3  4  1  0  0  0
  3 29  1  0  0  0
  4  5  2  0  0  0
  4 10  1  0  0  0
  5  6  1  0  0  0
  6  7  2  0  0  0
  6  9  1  0  0  0
  7  8  1  0  0  0
 10 11  1  0  0  0
 10 15  1  0  0  0
 10 20  1  0  0  0
 11 12  1  0  0  0
 12 13  2  0  0  0
 12 14  1  0  0  0
 14 15  2  0  0  0
 14 19  1  0  0  0
 15 16  1  0  0  0
 16 17  2  0  0  0
 17 18  1  0  0  0
 18 19  2  0  0  0
 20 21  2  0  0  0
 20 25  1  0  0  0
 21 22  1  0  0  0
 21 29  1  0  0  0
 22 23  2  0  0  0
 22 28  1  0  0  0
 23 24  1  0  0  0
 23 27  1  0  0  0
 24 25  2  0  0  0
 24 26  1  0  0  0
M  CHG 1   8  -1
M  CHG 1  27  -1
M  END
> <minimizedAffinity>
1.51698

$$$$
980


 27 30  0  0  0  0  0  0  0  0999 V2000
   24.0856   64.0853  -12.1738 I   0  0  0  0  0  0  0  0  0  0  0  0
   22.1602   63.2460  -12.3411 C   0  0  0  0  0  0  0  0  0  0  0  0
   21.3049   63.1283  -11.2636 C   0  0  0  0  0  0  0  0  0  0  0  0
   20.0449   62.5795  -11.3685 C   0  0  0  0  0  0  0  0  0  0  0  0
   19.6439   62.1353  -12.6150 C   0  0  0  0  0  0  0  0  0  0  0  0
   20.4964   62.2491  -13.7029 C   0  0  0  0  0  0  0  0  0  0  0  0
   21.7653   62.8029  -13.5877 C   0  0  0  0  0  0  0  0  0  0  0  0
   22.5803   62.8932  -14.7132 O   0  0  0  0  0  0  0  0  0  0  0  0
   19.1755   62.4543  -10.3041 C   0  0  0  0  0  0  0  0  0  0  0  0
   19.6466   62.9223   -9.0809 C   0  0  0  0  0  0  0  0  0  0  0  0
   20.9871   63.4968   -9.0107 C   0  0  0  0  0  0  0  0  0  0  0  0
   21.3968   63.9436   -7.7719 C   0  0  0  0  0  0  0  0  0  0  0  0
   20.6054   63.8641   -6.6460 C   0  0  0  0  0  0  0  0  0  0  0  0
   20.9996   64.2799   -5.5165 O   0  0  0  0  0  0  0  0  0  0  0  0
   19.3373   63.3205   -6.7115 C   0  0  0  0  0  0  0  0  0  0  0  0
   18.8971   62.8644   -7.9382 C   0  0  0  0  0  0  0  0  0  0  0  0
   23.3115   64.7870   -7.5711 I   0  0  0  0  0  0  0  0  0  0  0  0
   21.7159   63.5588  -10.0981 O   0  0  0  0  0  0  0  0  0  0  0  0
   17.8414   61.8739  -10.4112 C   0  0  0  0  0  0  0  0  0  0  0  0
   16.7736   62.7180  -10.7004 C   0  0  0  0  0  0  0  0  0  0  0  0
   15.5028   62.2187  -10.8116 C   0  0  0  0  0  0  0  0  0  0  0  0
   15.2832   60.8705  -10.6336 C   0  0  0  0  0  0  0  0  0  0  0  0
   16.3229   60.0138  -10.3472 C   0  0  0  0  0  0  0  0  0  0  0  0
   17.5921   60.5373  -10.2406 C   0  0  0  0  0  0  0  0  0  0  0  0
   16.9946   64.1485  -10.8909 C   0  0  0  0  0  0  0  0  0  0  0  0
   17.5267   64.6231  -11.9189 O   0  0  0  0  0  0  0  0  0  0  0  0
   16.6147   65.0569   -9.9132 O   0  0  0  0  0  0  0  0  0  0  0  0
  1  2  1  0  0  0
  2  3  2  0  0  0
  2  7  1  0  0  0
  3  4  1  0  0  0
  3 18  1  0  0  0
  4  5  2  0  0  0
  4  9  1  0  0  0
  5  6  1  0  0  0
  6  7  2  0  0  0
  7  8  1  0  0  0
  9 10  2  0  0  0
  9 19  1  0  0  0
 10 11  1  0  0  0
 10 16  1  0  0  0
 11 12  2  0  0  0
 11 18  1  0  0  0
 12 13  1  0  0  0
 12 17  1  0  0  0
 13 14  2  0  0  0
 13 15  1  0  0  0
 15 16  2  0  0  0
 19 20  2  0  0  0
 19 24  1  0  0  0
 20 21  1  0  0  0
 20 25  1  0  0  0
 21 22  2  0  0  0
 22 23  1  0  0  0
 23 24  2  0  0  0
 25 26  2  0  0  0
 25 27  1  0  0  0
M  CHG 1   8  -1
M  END
> <minimizedAffinity>
-2.74087

$$$$
983


 34 37  0  0  0  0  0  0  0  0999 V2000
   20.4302   64.2617   -8.8671 C   0  0  0  0  0  0  0  0  0  0  0  0
   19.2506   63.8937   -9.5284 C   0  0  0  0  0  0  0  0  0  0  0  0
   19.1697   62.5281   -9.3678 C   0  0  0  0  0  0  0  0  0  0  0  0
   20.2307   62.1178   -8.6590 N   0  0  0  0  0  0  0  0  0  0  0  0
   21.0443   63.1650   -8.3229 C   0  0  0  0  0  0  0  0  0  0  0  0
   18.0849   61.8561   -9.9252 C   0  0  0  0  0  0  0  0  0  0  0  0
   17.1354   62.5627  -10.6108 C   0  0  0  0  0  0  0  0  0  0  0  0
   17.2132   63.9490  -10.7771 C   0  0  0  0  0  0  0  0  0  0  0  0
   18.3040   64.6201  -10.2158 C   0  0  0  0  0  0  0  0  0  0  0  0
   15.8621   64.8722  -11.7403 Br  0  0  0  0  0  0  0  0  0  0  0  0
   17.9472   59.9784   -9.7208 Br  0  0  0  0  0  0  0  0  0  0  0  0
   20.4317   61.1149   -8.3833 H   0  0  0  0  0  0  0  0  0  0  0  0
   22.2573   63.0648   -7.5198 C   0  0  0  0  0  0  0  0  0  0  0  0
   22.2776   63.3146   -6.1819 N   0  0  0  0  0  0  0  0  0  0  0  0
   23.5174   63.1668   -5.6894 C   0  0  0  0  0  0  0  0  0  0  0  0
   24.3650   62.8084   -6.7145 C   0  0  0  0  0  0  0  0  0  0  0  0
   23.5409   62.7563   -7.8445 C   0  0  0  0  0  0  0  0  0  0  0  0
   25.7114   62.5841   -6.5122 C   0  0  0  0  0  0  0  0  0  0  0  0
   26.2630   62.7161   -5.2474 C   0  0  0  0  0  0  0  0  0  0  0  0
   25.4233   63.0757   -4.2054 C   0  0  0  0  0  0  0  0  0  0  0  0
   24.0797   63.2952   -4.4272 C   0  0  0  0  0  0  0  0  0  0  0  0
   22.9811   63.7878   -2.9487 Br  0  0  0  0  0  0  0  0  0  0  0  0
   28.1307   62.4105   -4.9426 Br  0  0  0  0  0  0  0  0  0  0  0  0
   21.4616   63.5847   -5.5896 H   0  0  0  0  0  0  0  0  0  0  0  0
   24.0260   62.4328   -9.0986 O   0  0  0  0  0  0  0  0  0  0  0  0
   23.5973   63.3092  -10.4972 S   0  0  0  0  0  0  0  0  0  0  0  0
   23.4416   64.7699  -10.1886 O   0  0  0  0  0  0  0  0  0  0  0  0
   22.2956   62.8316  -11.0757 O   0  0  0  0  0  0  0  0  0  0  0  0
   24.7696   63.0607  -11.6994 O   0  0  0  0  0  0  0  0  0  0  0  0
   20.8748   65.5775   -8.8022 O   0  0  0  0  0  0  0  0  0  0  0  0
   21.4279   66.2557   -7.3303 S   0  0  0  0  0  0  0  0  0  0  0  0
   21.0110   67.7005   -7.3396 O   0  0  0  0  0  0  0  0  0  0  0  0
   20.7918   65.5682   -6.1474 O   0  0  0  0  0  0  0  0  0  0  0  0
   23.1053   66.2029   -7.2299 O   0  0  0  0  0  0  0  0  0  0  0  0
 31 32  2  0  0  0
 31 33  2  0  0  0
 31 34  1  0  0  0
 31 30  1  0  0  0
 30  1  1  0  0  0
  1  2  1  0  0  0
  1  5  2  0  0  0
  2  3  2  0  0  0
  2  9  1  0  0  0
  3  4  1  0  0  0
  3  6  1  0  0  0
  4  5  1  0  0  0
  5 13  1  0  0  0
 13 14  1  0  0  0
 13 17  2  0  0  0
 14 15  1  0  0  0
 15 16  2  0  0  0
 15 21  1  0  0  0
 16 17  1  0  0  0
 16 18  1  0  0  0
 17 25  1  0  0  0
 25 26  1  0  0  0
 26 27  2  0  0  0
 26 28  2  0  0  0
 26 29  1  0  0  0
 18 19  2  0  0  0
 19 20  1  0  0  0
 19 23  1  0  0  0
 20 21  2  0  0  0
 21 22  1  0  0  0
  6  7  2  0  0  0
  6 11  1  0  0  0
  7  8  1  0  0  0
  8  9  2  0  0  0
  8 10  1  0  0  0
  4 12  1  0  0  0
 14 24  1  0  0  0
M  END
> <minimizedAffinity>
-0.26947

$$$$
985


 28 31  0  0  0  0  0  0  0  0999 V2000
   20.9178   63.5325   -9.9024 N   0  0  0  0  0  0  0  0  0  0  0  0
   21.3167   63.7875   -8.6506 C   0  0  0  0  0  0  0  0  0  0  0  0
   20.6255   63.9044   -7.4839 N   0  0  0  0  0  0  0  0  0  0  0  0
   21.2052   64.1652   -6.3156 C   0  0  0  0  0  0  0  0  0  0  0  0
   22.5409   64.3227   -6.2835 N   0  0  0  0  0  0  0  0  0  0  0  0
   23.2868   64.2194   -7.4027 C   0  0  0  0  0  0  0  0  0  0  0  0
   22.6878   63.9489   -8.6154 C   0  0  0  0  0  0  0  0  0  0  0  0
   23.1100   63.7853   -9.8778 N   0  0  0  0  0  0  0  0  0  0  0  0
   22.0316   63.5328  -10.6562 C   0  0  0  0  0  0  0  0  0  0  0  0
   22.0549   63.2193  -12.5461 Br  0  0  0  0  0  0  0  0  0  0  0  0
   24.6689   64.3807   -7.3743 O   0  0  0  0  0  0  0  0  0  0  0  0
   20.4377   64.2789   -5.1204 N   0  0  0  0  0  0  0  0  0  0  0  0
   25.1626   63.8927   -6.6119 H   0  0  0  0  0  0  0  0  0  0  0  0
   20.2032   65.2455   -4.8073 H   0  0  0  0  0  0  0  0  0  0  0  0
   20.1189   63.4403   -4.5735 H   0  0  0  0  0  0  0  0  0  0  0  0
   15.4233   62.5896  -10.9515 P   0  0  0  0  0  0  0  0  0  0  0  0
   15.5621   63.0100  -12.3981 O   0  0  0  0  0  0  0  0  0  0  0  0
   16.7532   61.6394  -10.4603 O   0  0  0  0  0  0  0  0  0  0  0  0
   17.4838   62.4213   -9.5691 C   0  0  0  0  0  0  0  0  0  0  0  0
   17.4675   63.8416  -10.1474 C   0  0  0  0  0  0  0  0  0  0  0  0
   18.7006   64.3107   -9.7670 O   0  0  0  0  0  0  0  0  0  0  0  0
   19.5396   63.3158  -10.2679 C   0  0  0  0  0  0  0  0  0  0  0  0
   18.9589   62.0804   -9.5823 C   0  0  0  0  0  0  0  0  0  0  0  0
   19.2439   60.9189  -10.2550 O   0  0  0  0  0  0  0  0  0  0  0  0
   16.3065   64.5615   -9.5723 C   0  0  0  0  0  0  0  0  0  0  0  0
   15.1421   63.8672   -9.9182 O   0  0  0  0  0  0  0  0  0  0  0  0
   14.0666   61.5480  -10.8920 O   0  0  0  0  0  0  0  0  0  0  0  0
   19.5366   60.2073   -9.6017 H   0  0  0  0  0  0  0  0  0  0  0  0
 16 17  2  0  0  0
 16 18  1  0  0  0
 16 26  1  0  0  0
 16 27  1  0  0  0
 18 19  1  0  0  0
 19 20  1  0  0  0
 19 23  1  0  0  0
 20 21  1  0  0  0
 20 25  1  0  0  0
 21 22  1  0  0  0
 22 23  1  0  0  0
 22  1  1  0  0  0
 23 24  1  0  0  0
  1  2  1  0  0  0
  1  9  1  0  0  0
  2  3  2  0  0  0
  2  7  1  0  0  0
  3  4  1  0  0  0
  4  5  2  0  0  0
  4 12  1  0  0  0
  5  6  1  0  0  0
  6  7  2  0  0  0
  6 11  1  0  0  0
  7  8  1  0  0  0
  8  9  2  0  0  0
  9 10  1  0  0  0
 25 26  1  0  0  0
 24 28  1  0  0  0
 11 13  1  0  0  0
 12 14  1  0  0  0
 12 15  1  0  0  0
M  END
> <minimizedAffinity>
-7.55602

$$$$
991


 34 39  0  0  0  0  0  0  0  0999 V2000
   13.8870   63.6713  -12.6061 N   0  0  0  0  0  0  0  0  0  0  0  0
   15.0361   63.4133  -11.9329 C   0  0  0  0  0  0  0  0  0  0  0  0
   15.0629   62.1043  -11.5010 C   0  0  0  0  0  0  0  0  0  0  0  0
   13.9003   61.5681  -11.9277 N   0  0  0  0  0  0  0  0  0  0  0  0
   13.2019   62.5143  -12.5879 C   0  0  0  0  0  0  0  0  0  0  0  0
   11.4851   62.3203  -13.4083 Br  0  0  0  0  0  0  0  0  0  0  0  0
   16.1542   61.6436  -10.7921 C   0  0  0  0  0  0  0  0  0  0  0  0
   16.1894   60.4578  -10.3959 O   0  0  0  0  0  0  0  0  0  0  0  0
   17.2118   62.4354  -10.5020 N   0  0  0  0  0  0  0  0  0  0  0  0
   17.1647   63.7091  -10.9327 C   0  0  0  0  0  0  0  0  0  0  0  0
   18.3136   64.2756  -10.5230 N   0  0  0  0  0  0  0  0  0  0  0  0
   19.0867   63.4056   -9.8484 C   0  0  0  0  0  0  0  0  0  0  0  0
   18.3787   62.2221   -9.8338 C   0  0  0  0  0  0  0  0  0  0  0  0
   16.0958   64.1831  -11.6337 N   0  0  0  0  0  0  0  0  0  0  0  0
   16.0643   65.1730  -11.9666 H   0  0  0  0  0  0  0  0  0  0  0  0
   11.0832   67.4830  -15.9824 P   0  0  0  0  0  0  0  0  0  0  0  0
   10.6556   67.8919  -17.6153 S   0  0  0  0  0  0  0  0  0  0  0  0
   12.5483   66.6240  -16.0258 O   0  0  0  0  0  0  0  0  0  0  0  0
   12.3766   65.5056  -15.2153 C   0  0  0  0  0  0  0  0  0  0  0  0
   11.6562   66.0017  -13.9593 C   0  0  0  0  0  0  0  0  0  0  0  0
   12.1291   65.1933  -12.9629 O   0  0  0  0  0  0  0  0  0  0  0  0
   13.4726   64.9297  -13.2213 C   0  0  0  0  0  0  0  0  0  0  0  0
   13.6674   64.9458  -14.6979 C   0  0  0  0  0  0  0  0  0  0  0  0
   14.7404   65.7706  -15.0600 O   0  0  0  0  0  0  0  0  0  0  0  0
   10.1788   65.8444  -14.2288 C   0  0  0  0  0  0  0  0  0  0  0  0
    9.8285   66.5339  -15.3676 O   0  0  0  0  0  0  0  0  0  0  0  0
   11.2020   68.8627  -15.0140 O   0  0  0  0  0  0  0  0  0  0  0  0
   14.5513   66.7161  -14.8916 H   0  0  0  0  0  0  0  0  0  0  0  0
   20.4047   63.6561   -9.2504 C   0  0  0  0  0  0  0  0  0  0  0  0
   21.5222   63.7516  -10.0485 C   0  0  0  0  0  0  0  0  0  0  0  0
   22.7817   63.9884   -9.5124 C   0  0  0  0  0  0  0  0  0  0  0  0
   22.9049   64.1295   -8.1491 C   0  0  0  0  0  0  0  0  0  0  0  0
   21.8049   64.0396   -7.3103 C   0  0  0  0  0  0  0  0  0  0  0  0
   20.5805   63.8042   -7.8969 C   0  0  0  0  0  0  0  0  0  0  0  0
 16 17  2  0  0  0
 16 18  1  0  0  0
 16 26  1  0  0  0
 16 27  1  0  0  0
 18 19  1  0  0  0
 19 20  1  0  0  0
 19 23  1  0  0  0
 20 21  1  0  0  0
 20 25  1  0  0  0
 21 22  1  0  0  0
 22 23  1  0  0  0
 22  1  1  0  0  0
 23 24  1  0  0  0
  1  2  1  0  0  0
  1  5  1  0  0  0
  2  3  2  0  0  0
  2 14  1  0  0  0
  3  4  1  0  0  0
  3  7  1  0  0  0
  4  5  2  0  0  0
  5  6  1  0  0  0
  7  8  2  0  0  0
  7  9  1  0  0  0
  9 10  1  0  0  0
  9 13  1  0  0  0
 10 11  2  0  0  0
 10 14  1  0  0  0
 11 12  1  0  0  0
 12 13  2  0  0  0
 12 29  1  0  0  0
 29 30  2  0  0  0
 29 34  1  0  0  0
 30 31  1  0  0  0
 31 32  2  0  0  0
 32 33  1  0  0  0
 33 34  2  0  0  0
 25 26  1  0  0  0
 24 28  1  0  0  0
 14 15  1  0  0  0
M  END
> <minimizedAffinity>
-7.54935

$$$$
993


 26 29  0  0  0  0  0  0  0  0999 V2000
   25.2778   63.0234   -3.3811 P   0  0  0  0  0  0  0  0  0  0  0  0
   24.2680   61.7404   -2.7643 S   0  0  0  0  0  0  0  0  0  0  0  0
   24.3025   64.2299   -4.0941 O   0  0  0  0  0  0  0  0  0  0  0  0
   23.8267   63.7103   -5.2726 C   0  0  0  0  0  0  0  0  0  0  0  0
   25.0172   63.4206   -6.1965 C   0  0  0  0  0  0  0  0  0  0  0  0
   24.3505   63.2536   -7.4090 O   0  0  0  0  0  0  0  0  0  0  0  0
   23.4902   64.3207   -7.5121 C   0  0  0  0  0  0  0  0  0  0  0  0
   23.0883   64.7312   -6.1180 C   0  0  0  0  0  0  0  0  0  0  0  0
   23.6937   65.9697   -5.8651 O   0  0  0  0  0  0  0  0  0  0  0  0
   25.7581   62.1952   -5.7607 C   0  0  0  0  0  0  0  0  0  0  0  0
   26.3430   62.4514   -4.5336 O   0  0  0  0  0  0  0  0  0  0  0  0
   26.0912   63.7075   -2.0932 O   0  0  0  0  0  0  0  0  0  0  0  0
   23.0655   66.6477   -5.5551 H   0  0  0  0  0  0  0  0  0  0  0  0
   22.2757   63.9994   -8.2375 N   0  0  0  0  0  0  0  0  0  0  0  0
   22.2325   63.7307   -9.5669 C   0  0  0  0  0  0  0  0  0  0  0  0
   23.2008   63.6859  -10.5178 N   0  0  0  0  0  0  0  0  0  0  0  0
   22.9057   63.3899  -11.7987 C   0  0  0  0  0  0  0  0  0  0  0  0
   21.6223   63.1317  -12.1509 N   0  0  0  0  0  0  0  0  0  0  0  0
   20.6352   63.1664  -11.2384 C   0  0  0  0  0  0  0  0  0  0  0  0
   20.9246   63.4683   -9.9202 C   0  0  0  0  0  0  0  0  0  0  0  0
   20.1782   63.5779   -8.8062 N   0  0  0  0  0  0  0  0  0  0  0  0
   21.0117   63.9008   -7.7927 C   0  0  0  0  0  0  0  0  0  0  0  0
   20.5412   64.1939   -5.9545 Br  0  0  0  0  0  0  0  0  0  0  0  0
   19.2852   62.8909  -11.6260 N   0  0  0  0  0  0  0  0  0  0  0  0
   19.1202   62.3339  -12.5087 H   0  0  0  0  0  0  0  0  0  0  0  0
   18.4677   63.2168  -11.0739 H   0  0  0  0  0  0  0  0  0  0  0  0
  1  2  2  0  0  0
  1  3  1  0  0  0
  1 11  1  0  0  0
  1 12  1  0  0  0
  3  4  1  0  0  0
  4  5  1  0  0  0
  4  8  1  0  0  0
  5  6  1  0  0  0
  5 10  1  0  0  0
  6  7  1  0  0  0
  7  8  1  0  0  0
  7 14  1  0  0  0
  8  9  1  0  0  0
 14 15  1  0  0  0
 14 22  1  0  0  0
 15 16  2  0  0  0
 15 20  1  0  0  0
 16 17  1  0  0  0
 17 18  2  0  0  0
 18 19  1  0  0  0
 19 20  2  0  0  0
 19 24  1  0  0  0
 20 21  1  0  0  0
 21 22  2  0  0  0
 22 23  1  0  0  0
 10 11  1  0  0  0
  9 13  1  0  0  0
 24 25  1  0  0  0
 24 26  1  0  0  0
M  END
> <minimizedAffinity>
-7.89944

$$$$
999


 35 38  0  0  0  0  0  0  0  0999 V2000
   20.7369   63.3945  -10.0412 N   0  0  0  0  0  0  0  0  0  0  0  0
   19.5494   63.1390  -10.7704 C   0  0  0  0  0  0  0  0  0  0  0  0
   19.2494   63.9180  -11.7141 O   0  0  0  0  0  0  0  0  0  0  0  0
   20.9661   62.7313   -9.2585 H   0  0  0  0  0  0  0  0  0  0  0  0
   20.8286   65.9538   -8.0425 S   0  0  0  0  0  0  0  0  0  0  0  0
   21.9591   65.4493   -9.3370 C   0  0  0  0  0  0  0  0  0  0  0  0
   22.7632   64.3788   -8.8388 N   0  0  0  0  0  0  0  0  0  0  0  0
   23.0120   63.9828   -7.4870 C   0  0  0  0  0  0  0  0  0  0  0  0
   22.7021   64.7819   -6.5152 C   0  0  0  0  0  0  0  0  0  0  0  0
   22.0677   66.1662   -6.7125 C   0  0  0  0  0  0  0  0  0  0  0  0
   22.9993   64.1048  -10.2088 C   0  0  0  0  0  0  0  0  0  0  0  0
   23.8448   63.7283  -11.0284 O   0  0  0  0  0  0  0  0  0  0  0  0
   21.5476   64.5145  -10.3951 C   0  0  0  0  0  0  0  0  0  0  0  0
   23.6343   62.6384   -7.3092 C   0  0  0  0  0  0  0  0  0  0  0  0
   23.2958   61.6064   -7.8476 O   0  0  0  0  0  0  0  0  0  0  0  0
   24.7297   62.5158   -6.4339 O   0  0  0  0  0  0  0  0  0  0  0  0
   22.8863   64.5196   -5.1107 C   0  0  0  0  0  0  0  0  0  0  0  0
   24.0983   64.5041   -4.5059 O   0  0  0  0  0  0  0  0  0  0  0  0
   24.3466   63.8503   -3.2931 C   0  0  0  0  0  0  0  0  0  0  0  0
   25.3053   64.2618   -2.6137 O   0  0  0  0  0  0  0  0  0  0  0  0
   23.4567   62.7268   -2.9158 C   0  0  0  0  0  0  0  0  0  0  0  0
   18.6723   62.0060  -10.4593 C   0  0  0  0  0  0  0  0  0  0  0  0
   17.4692   61.7573  -10.8726 O   0  0  0  0  0  0  0  0  0  0  0  0
   16.9978   60.6546  -10.3875 C   0  0  0  0  0  0  0  0  0  0  0  0
   17.9866   60.1074   -9.5620 C   0  0  0  0  0  0  0  0  0  0  0  0
   19.0408   60.9788   -9.6198 C   0  0  0  0  0  0  0  0  0  0  0  0
   15.6468   60.0283  -10.6298 C   0  0  0  0  0  0  0  0  0  0  0  0
   14.6174   60.9522  -10.3873 O   0  0  0  0  0  0  0  0  0  0  0  0
   14.3131   62.0386  -11.1565 C   0  0  0  0  0  0  0  0  0  0  0  0
   14.6840   63.3466  -10.8575 C   0  0  0  0  0  0  0  0  0  0  0  0
   14.3244   64.3689  -11.7069 C   0  0  0  0  0  0  0  0  0  0  0  0
   13.6030   64.1754  -12.8618 C   0  0  0  0  0  0  0  0  0  0  0  0
   13.2302   62.8776  -13.1672 C   0  0  0  0  0  0  0  0  0  0  0  0
   13.5900   61.8416  -12.3152 C   0  0  0  0  0  0  0  0  0  0  0  0
   13.1341   65.6318  -14.0009 Br  0  0  0  0  0  0  0  0  0  0  0  0
  5  6  1  0  0  0
  5 10  1  0  0  0
  6  7  1  0  0  0
  6 13  1  0  0  0
  7  8  1  0  0  0
  7 11  1  0  0  0
  8  9  2  0  0  0
  8 14  1  0  0  0
  9 10  1  0  0  0
  9 17  1  0  0  0
 17 18  1  0  0  0
 18 19  1  0  0  0
 19 20  2  0  0  0
 19 21  1  0  0  0
 14 15  2  0  0  0
 14 16  1  0  0  0
 11 12  2  0  0  0
 11 13  1  0  0  0
 13  1  1  0  0  0
  1  2  1  0  0  0
  2  3  2  0  0  0
  2 22  1  0  0  0
 22 23  1  0  0  0
 22 26  2  0  0  0
 23 24  1  0  0  0
 24 25  2  0  0  0
 24 27  1  0  0  0
 25 26  1  0  0  0
 27 28  1  0  0  0
 28 29  1  0  0  0
 29 30  2  0  0  0
 29 34  1  0  0  0
 30 31  1  0  0  0
 31 32  2  0  0  0
 32 33  1  0  0  0
 32 35  1  0  0  0
 33 34  2  0  0  0
  1  4  1  0  0  0
M  END
> <minimizedAffinity>
-6.25845

$$$$
1001


 26 29  0  0  0  0  0  0  0  0999 V2000
   16.7901   62.6168  -10.8536 P   0  0  0  0  0  0  0  0  0  0  0  0
   15.8219   61.4343  -10.7824 O   0  0  0  0  0  0  0  0  0  0  0  0
   18.2908   62.0142  -11.3030 O   0  0  0  0  0  0  0  0  0  0  0  0
   19.2979   62.5103  -10.5162 C   0  0  0  0  0  0  0  0  0  0  0  0
   18.8997   63.9462  -10.1481 C   0  0  0  0  0  0  0  0  0  0  0  0
   20.0639   64.6258   -9.9476 O   0  0  0  0  0  0  0  0  0  0  0  0
   21.0780   64.0338  -10.6482 C   0  0  0  0  0  0  0  0  0  0  0  0
   20.5877   62.7629  -11.2504 C   0  0  0  0  0  0  0  0  0  0  0  0
   20.3601   62.8410  -12.6101 O   0  0  0  0  0  0  0  0  0  0  0  0
   18.0083   63.8356   -8.9531 C   0  0  0  0  0  0  0  0  0  0  0  0
   16.7853   63.3570   -9.3579 O   0  0  0  0  0  0  0  0  0  0  0  0
   16.1774   63.6424  -12.0780 O   0  0  0  0  0  0  0  0  0  0  0  0
   20.4167   61.9874  -13.0693 H   0  0  0  0  0  0  0  0  0  0  0  0
   22.1916   63.8299   -9.7308 N   0  0  0  0  0  0  0  0  0  0  0  0
   22.1729   64.0644   -8.3976 C   0  0  0  0  0  0  0  0  0  0  0  0
   21.1941   64.5184   -7.5965 N   0  0  0  0  0  0  0  0  0  0  0  0
   21.4324   64.6664   -6.2832 C   0  0  0  0  0  0  0  0  0  0  0  0
   22.6439   64.3598   -5.7842 N   0  0  0  0  0  0  0  0  0  0  0  0
   23.6663   63.9017   -6.5223 C   0  0  0  0  0  0  0  0  0  0  0  0
   23.4135   63.7505   -7.8835 C   0  0  0  0  0  0  0  0  0  0  0  0
   24.1778   63.3309   -8.8882 N   0  0  0  0  0  0  0  0  0  0  0  0
   23.4277   63.3830  -10.0036 C   0  0  0  0  0  0  0  0  0  0  0  0
   23.9784   62.8986  -11.7873 Br  0  0  0  0  0  0  0  0  0  0  0  0
   24.9487   63.5745   -6.0071 N   0  0  0  0  0  0  0  0  0  0  0  0
   25.6678   64.3543   -5.9359 H   0  0  0  0  0  0  0  0  0  0  0  0
   25.2293   62.6395   -5.6971 H   0  0  0  0  0  0  0  0  0  0  0  0
  1  2  2  0  0  0
  1  3  1  0  0  0
  1 11  1  0  0  0
  1 12  1  0  0  0
  3  4  1  0  0  0
  4  5  1  0  0  0
  4  8  1  0  0  0
  5  6  1  0  0  0
  5 10  1  0  0  0
  6  7  1  0  0  0
  7  8  1  0  0  0
  7 14  1  0  0  0
  8  9  1  0  0  0
 14 15  1  0  0  0
 14 22  1  0  0  0
 15 16  2  0  0  0
 15 20  1  0  0  0
 16 17  1  0  0  0
 17 18  2  0  0  0
 18 19  1  0  0  0
 19 20  2  0  0  0
 19 24  1  0  0  0
 20 21  1  0  0  0
 21 22  2  0  0  0
 22 23  1  0  0  0
 10 11  1  0  0  0
  9 13  1  0  0  0
 24 25  1  0  0  0
 24 26  1  0  0  0
M  END
> <minimizedAffinity>
-6.36531

$$$$
1008


 29 32  0  0  0  0  0  0  0  0999 V2000
   18.0022   63.0920   -9.5723 C   0  0  0  0  0  0  0  0  0  0  0  0
   17.9979   63.1265   -8.3173 O   0  0  0  0  0  0  0  0  0  0  0  0
   19.1112   63.6229  -10.2957 N   0  0  0  0  0  0  0  0  0  0  0  0
   20.2357   64.2062   -9.5961 C   0  0  0  0  0  0  0  0  0  0  0  0
   21.5564   63.8554  -10.2071 C   0  0  0  0  0  0  0  0  0  0  0  0
   21.3111   62.6675  -11.1413 C   0  0  0  0  0  0  0  0  0  0  0  0
   20.4844   63.2146  -12.2846 C   0  0  0  0  0  0  0  0  0  0  0  0
   19.1331   63.5917  -11.7347 C   0  0  0  0  0  0  0  0  0  0  0  0
   22.6068   63.5253   -9.1915 C   0  0  0  0  0  0  0  0  0  0  0  0
   22.7469   64.0867   -7.9621 N   0  0  0  0  0  0  0  0  0  0  0  0
   23.7917   63.5506   -7.3250 C   0  0  0  0  0  0  0  0  0  0  0  0
   24.3031   62.6319   -8.1985 N   0  0  0  0  0  0  0  0  0  0  0  0
   23.5923   62.6217   -9.3092 N   0  0  0  0  0  0  0  0  0  0  0  0
   23.9886   64.1363   -5.9667 C   0  0  0  0  0  0  0  0  0  0  0  0
   22.6965   64.8622   -5.7538 C   0  0  0  0  0  0  0  0  0  0  0  0
   22.1092   65.0914   -7.1302 C   0  0  0  0  0  0  0  0  0  0  0  0
   14.8704   62.7586  -11.6006 C   0  0  0  0  0  0  0  0  0  0  0  0
   15.9455   63.3003  -10.9347 C   0  0  0  0  0  0  0  0  0  0  0  0
   16.8735   62.5069  -10.2679 C   0  0  0  0  0  0  0  0  0  0  0  0
   16.6832   61.1428  -10.2924 C   0  0  0  0  0  0  0  0  0  0  0  0
   15.5955   60.5862  -10.9647 C   0  0  0  0  0  0  0  0  0  0  0  0
   14.6868   61.3873  -11.6192 C   0  0  0  0  0  0  0  0  0  0  0  0
   17.9029   59.9952   -9.4068 Br  0  0  0  0  0  0  0  0  0  0  0  0
   13.7462   63.8060  -12.4144 S   0  0  0  0  0  0  0  0  0  0  0  0
   14.5227   64.8826  -13.1441 O   0  0  0  0  0  0  0  0  0  0  0  0
   12.8247   64.4742  -11.4236 O   0  0  0  0  0  0  0  0  0  0  0  0
   12.8639   62.9309  -13.5961 N   0  0  0  0  0  0  0  0  0  0  0  0
   11.8673   62.7818  -13.3063 H   0  0  0  0  0  0  0  0  0  0  0  0
   13.3261   62.0065  -13.7839 H   0  0  0  0  0  0  0  0  0  0  0  0
 24 25  2  0  0  0
 24 26  2  0  0  0
 24 27  1  0  0  0
 24 17  1  0  0  0
 17 18  2  0  0  0
 17 22  1  0  0  0
 18 19  1  0  0  0
 19 20  2  0  0  0
 19  1  1  0  0  0
 20 21  1  0  0  0
 20 23  1  0  0  0
 21 22  2  0  0  0
  1  2  2  0  0  0
  1  3  1  0  0  0
  3  4  1  0  0  0
  3  8  1  0  0  0
  4  5  1  0  0  0
  5  6  1  0  0  0
  5  9  1  0  0  0
  6  7  1  0  0  0
  7  8  1  0  0  0
  9 10  1  0  0  0
  9 13  2  0  0  0
 10 11  1  0  0  0
 10 16  1  0  0  0
 11 12  2  0  0  0
 11 14  1  0  0  0
 12 13  1  0  0  0
 14 15  1  0  0  0
 15 16  1  0  0  0
 27 28  1  0  0  0
 27 29  1  0  0  0
M  END
> <minimizedAffinity>
-7.03251

$$$$
1011


 29 32  0  0  0  0  0  0  0  0999 V2000
   21.3888   64.2019   -8.3842 C   0  0  0  0  0  0  0  0  0  0  0  0
   20.1016   64.2162   -8.9305 C   0  0  0  0  0  0  0  0  0  0  0  0
   19.8714   63.7124  -10.1919 C   0  0  0  0  0  0  0  0  0  0  0  0
   20.8803   63.1758  -10.9717 C   0  0  0  0  0  0  0  0  0  0  0  0
   22.1419   63.1567  -10.4464 C   0  0  0  0  0  0  0  0  0  0  0  0
   22.3833   63.6664   -9.1661 C   0  0  0  0  0  0  0  0  0  0  0  0
   24.1584   63.6453   -8.4412 Br  0  0  0  0  0  0  0  0  0  0  0  0
   20.3115   62.7339  -12.2757 C   0  0  0  0  0  0  0  0  0  0  0  0
   18.9966   63.5404  -12.3317 C   0  0  0  0  0  0  0  0  0  0  0  0
   18.6359   63.6268  -10.9256 N   0  0  0  0  0  0  0  0  0  0  0  0
   17.3588   63.6249  -10.3183 C   0  0  0  0  0  0  0  0  0  0  0  0
   17.1952   63.6852   -9.0778 O   0  0  0  0  0  0  0  0  0  0  0  0
   16.1593   63.5474  -11.1854 C   0  0  0  0  0  0  0  0  0  0  0  0
   14.9062   64.0000  -10.5549 C   0  0  0  0  0  0  0  0  0  0  0  0
   15.0987   62.5458  -10.9093 C   0  0  0  0  0  0  0  0  0  0  0  0
   21.6504   64.8409   -6.7837 S   0  0  0  0  0  0  0  0  0  0  0  0
   20.5163   64.4080   -5.8617 O   0  0  0  0  0  0  0  0  0  0  0  0
   22.9032   64.3154   -6.1688 O   0  0  0  0  0  0  0  0  0  0  0  0
   21.6051   66.5625   -6.8019 N   0  0  0  0  0  0  0  0  0  0  0  0
   21.3164   66.8663   -7.7524 H   0  0  0  0  0  0  0  0  0  0  0  0
   22.8713   67.1599   -6.4284 C   0  0  0  0  0  0  0  0  0  0  0  0
   22.5904   68.6344   -6.1807 C   0  0  0  0  0  0  0  0  0  0  0  0
   23.4953   69.5022   -7.0142 C   0  0  0  0  0  0  0  0  0  0  0  0
   24.4068   70.1675   -6.1609 N   0  0  0  0  0  0  0  0  0  0  0  0
   25.2204   71.1666   -6.7559 C   0  0  0  0  0  0  0  0  0  0  0  0
   26.4331   71.3894   -5.8679 C   0  0  0  0  0  0  0  0  0  0  0  0
   26.0858   71.4149   -4.5320 O   0  0  0  0  0  0  0  0  0  0  0  0
   24.7321   71.6421   -4.3142 C   0  0  0  0  0  0  0  0  0  0  0  0
   23.9859   70.4083   -4.8301 C   0  0  0  0  0  0  0  0  0  0  0  0
 16 17  2  0  0  0
 16 18  2  0  0  0
 16 19  1  0  0  0
 16  1  1  0  0  0
 19 21  1  0  0  0
 21 22  1  0  0  0
 22 23  1  0  0  0
 23 24  1  0  0  0
 24 25  1  0  0  0
 24 29  1  0  0  0
 25 26  1  0  0  0
 26 27  1  0  0  0
 27 28  1  0  0  0
 28 29  1  0  0  0
  1  2  2  0  0  0
  1  6  1  0  0  0
  2  3  1  0  0  0
  3  4  2  0  0  0
  3 10  1  0  0  0
  4  5  1  0  0  0
  4  8  1  0  0  0
  5  6  2  0  0  0
  6  7  1  0  0  0
  8  9  1  0  0  0
  9 10  1  0  0  0
 10 11  1  0  0  0
 11 12  2  0  0  0
 11 13  1  0  0  0
 13 14  1  0  0  0
 13 15  1  0  0  0
 14 15  1  0  0  0
 19 20  1  0  0  0
M  END
> <minimizedAffinity>
-7.12902

$$$$
1027


 32 35  0  0  0  0  0  0  0  0999 V2000
   13.2974   63.9450  -13.4418 S   0  0  0  0  0  0  0  0  0  0  0  0
   13.6177   62.6880  -14.2512 O   0  0  0  0  0  0  0  0  0  0  0  0
   14.4221   64.8968  -13.7768 O   0  0  0  0  0  0  0  0  0  0  0  0
   11.7847   64.5499  -14.0599 C   0  0  0  0  0  0  0  0  0  0  0  0
   11.6819   65.9186  -14.3393 C   0  0  0  0  0  0  0  0  0  0  0  0
   10.5251   66.5289  -14.7682 C   0  0  0  0  0  0  0  0  0  0  0  0
    9.3799   65.7829  -14.9450 C   0  0  0  0  0  0  0  0  0  0  0  0
    9.4622   64.4389  -14.6775 C   0  0  0  0  0  0  0  0  0  0  0  0
   10.6458   63.8210  -14.2411 C   0  0  0  0  0  0  0  0  0  0  0  0
   10.6635   61.9187  -13.9987 Br  0  0  0  0  0  0  0  0  0  0  0  0
    8.2651   66.6419  -15.4135 C   0  0  0  0  0  0  0  0  0  0  0  0
    9.0170   67.8739  -15.9193 C   0  0  0  0  0  0  0  0  0  0  0  0
   10.2227   67.8862  -15.0979 N   0  0  0  0  0  0  0  0  0  0  0  0
   10.9186   69.0465  -14.7155 C   0  0  0  0  0  0  0  0  0  0  0  0
   10.4982   70.1787  -15.1395 O   0  0  0  0  0  0  0  0  0  0  0  0
   12.1192   69.0914  -13.8468 C   0  0  0  0  0  0  0  0  0  0  0  0
   13.3437   63.5267  -11.8194 N   0  0  0  0  0  0  0  0  0  0  0  0
   13.8098   64.4123  -10.8518 C   0  0  0  0  0  0  0  0  0  0  0  0
   15.2724   64.3999  -10.6261 C   0  0  0  0  0  0  0  0  0  0  0  0
   15.8694   65.4175  -10.1995 O   0  0  0  0  0  0  0  0  0  0  0  0
   15.9455   63.1803  -10.9181 N   0  0  0  0  0  0  0  0  0  0  0  0
   15.1302   62.0373  -11.1176 C   0  0  0  0  0  0  0  0  0  0  0  0
   15.6275   60.9017  -10.8758 O   0  0  0  0  0  0  0  0  0  0  0  0
   13.7352   62.1427  -11.5938 C   0  0  0  0  0  0  0  0  0  0  0  0
   17.3902   63.1399  -10.9951 C   0  0  0  0  0  0  0  0  0  0  0  0
   18.0805   63.0053   -9.6819 C   0  0  0  0  0  0  0  0  0  0  0  0
   19.5230   63.2407   -9.6901 C   0  0  0  0  0  0  0  0  0  0  0  0
   20.2471   63.3737   -8.5381 C   0  0  0  0  0  0  0  0  0  0  0  0
   21.5931   63.5968   -8.6160 C   0  0  0  0  0  0  0  0  0  0  0  0
   22.2540   63.6938   -9.8356 C   0  0  0  0  0  0  0  0  0  0  0  0
   21.5079   63.5570  -10.9738 C   0  0  0  0  0  0  0  0  0  0  0  0
   20.1533   63.3319  -10.9318 C   0  0  0  0  0  0  0  0  0  0  0  0
  1  2  2  0  0  0
  1  3  2  0  0  0
  1 17  1  0  0  0
  1  4  1  0  0  0
 17 18  1  0  0  0
 17 24  1  0  0  0
 18 19  1  0  0  0
 19 20  2  0  0  0
 19 21  1  0  0  0
 21 22  1  0  0  0
 21 25  1  0  0  0
 22 23  2  0  0  0
 22 24  1  0  0  0
 25 26  1  0  0  0
 26 27  1  0  0  0
 27 28  2  0  0  0
 27 32  1  0  0  0
 28 29  1  0  0  0
 29 30  2  0  0  0
 30 31  1  0  0  0
 31 32  2  0  0  0
  4  5  2  0  0  0
  4  9  1  0  0  0
  5  6  1  0  0  0
  6  7  2  0  0  0
  6 13  1  0  0  0
  7  8  1  0  0  0
  7 11  1  0  0  0
  8  9  2  0  0  0
  9 10  1  0  0  0
 11 12  1  0  0  0
 12 13  1  0  0  0
 13 14  1  0  0  0
 14 15  2  0  0  0
 14 16  1  0  0  0
M  END
> <minimizedAffinity>
-7.40582

$$$$
1028


 25 28  0  0  0  0  0  0  0  0999 V2000
   21.7106   64.3904   -7.3724 N   0  0  0  0  0  0  0  0  0  0  0  0
   21.2377   65.0489   -8.5373 C   0  0  0  0  0  0  0  0  0  0  0  0
   21.6405   63.9070   -9.3865 C   0  0  0  0  0  0  0  0  0  0  0  0
   21.9279   63.1968   -8.1101 C   0  0  0  0  0  0  0  0  0  0  0  0
   20.5896   63.2714  -10.1575 N   0  0  0  0  0  0  0  0  0  0  0  0
   20.3870   63.3169  -11.4485 N   0  0  0  0  0  0  0  0  0  0  0  0
   19.3060   62.5960  -11.7763 N   0  0  0  0  0  0  0  0  0  0  0  0
   18.7890   62.0632  -10.6556 C   0  0  0  0  0  0  0  0  0  0  0  0
   19.6187   62.5044   -9.6345 C   0  0  0  0  0  0  0  0  0  0  0  0
   17.5795   61.1831  -10.5257 C   0  0  0  0  0  0  0  0  0  0  0  0
   16.4037   62.0280  -10.6291 N   0  0  0  0  0  0  0  0  0  0  0  0
   16.4022   63.4600  -10.6322 C   0  0  0  0  0  0  0  0  0  0  0  0
   14.9727   63.8730  -10.8376 C   0  0  0  0  0  0  0  0  0  0  0  0
   14.1800   62.6625  -11.2109 C   0  0  0  0  0  0  0  0  0  0  0  0
   15.0695   61.5429  -10.7439 C   0  0  0  0  0  0  0  0  0  0  0  0
   14.6561   60.3930  -10.5091 O   0  0  0  0  0  0  0  0  0  0  0  0
   23.0605   64.9977   -6.5606 S   0  0  0  0  0  0  0  0  0  0  0  0
   22.7034   66.3193   -5.9429 O   0  0  0  0  0  0  0  0  0  0  0  0
   24.2156   65.2624   -7.4967 O   0  0  0  0  0  0  0  0  0  0  0  0
   23.6242   63.9609   -5.2520 C   0  0  0  0  0  0  0  0  0  0  0  0
   24.8485   62.7622   -5.3115 S   0  0  0  0  0  0  0  0  0  0  0  0
   24.7908   62.2301   -3.6896 C   0  0  0  0  0  0  0  0  0  0  0  0
   23.8056   63.0151   -3.1487 C   0  0  0  0  0  0  0  0  0  0  0  0
   23.2132   63.8992   -3.9537 C   0  0  0  0  0  0  0  0  0  0  0  0
   25.8335   60.8709   -2.8085 Br  0  0  0  0  0  0  0  0  0  0  0  0
 17 18  2  0  0  0
 17 19  2  0  0  0
 17  1  1  0  0  0
 17 20  1  0  0  0
  1  2  1  0  0  0
  1  4  1  0  0  0
  2  3  1  0  0  0
  3  4  1  0  0  0
  3  5  1  0  0  0
  5  6  1  0  0  0
  5  9  1  0  0  0
  6  7  2  0  0  0
  7  8  1  0  0  0
  8  9  2  0  0  0
  8 10  1  0  0  0
 10 11  1  0  0  0
 11 12  1  0  0  0
 11 15  1  0  0  0
 12 13  1  0  0  0
 13 14  1  0  0  0
 14 15  1  0  0  0
 15 16  2  0  0  0
 20 21  1  0  0  0
 20 24  2  0  0  0
 21 22  1  0  0  0
 22 23  2  0  0  0
 22 25  1  0  0  0
 23 24  1  0  0  0
M  END
> <minimizedAffinity>
-8.53786

$$$$
1037


 31 34  0  0  0  0  0  0  0  0999 V2000
   19.5475   63.5942   -9.8685 N   0  0  0  0  0  0  0  0  0  0  0  0
   20.7981   63.7959   -9.2202 C   0  0  0  0  0  0  0  0  0  0  0  0
   22.0234   63.5317   -9.9639 C   0  0  0  0  0  0  0  0  0  0  0  0
   21.9376   63.3869  -11.4040 N   0  0  0  0  0  0  0  0  0  0  0  0
   20.6702   63.2290  -12.0487 C   0  0  0  0  0  0  0  0  0  0  0  0
   19.5427   63.8806  -11.2573 C   0  0  0  0  0  0  0  0  0  0  0  0
   23.1246   63.4320  -12.1371 C   0  0  0  0  0  0  0  0  0  0  0  0
   24.1677   63.7276  -11.3324 O   0  0  0  0  0  0  0  0  0  0  0  0
   18.6761   62.2167   -9.4056 S   0  0  0  0  0  0  0  0  0  0  0  0
   18.3729   62.2931   -7.9346 O   0  0  0  0  0  0  0  0  0  0  0  0
   19.5176   60.9667   -9.5988 O   0  0  0  0  0  0  0  0  0  0  0  0
   17.1322   62.0347  -10.2119 C   0  0  0  0  0  0  0  0  0  0  0  0
   16.5151   63.1411  -10.7942 C   0  0  0  0  0  0  0  0  0  0  0  0
   15.2952   63.0645  -11.4306 C   0  0  0  0  0  0  0  0  0  0  0  0
   14.6206   61.8677  -11.5199 C   0  0  0  0  0  0  0  0  0  0  0  0
   15.2245   60.7701  -10.9465 C   0  0  0  0  0  0  0  0  0  0  0  0
   16.4545   60.8395  -10.3026 C   0  0  0  0  0  0  0  0  0  0  0  0
   13.3715   61.7803  -12.1662 O   0  0  0  0  0  0  0  0  0  0  0  0
   13.0341   62.7371  -13.1860 C   0  0  0  0  0  0  0  0  0  0  0  0
   13.4085   64.0654  -12.6355 C   0  0  0  0  0  0  0  0  0  0  0  0
   12.6472   65.0574  -12.6993 O   0  0  0  0  0  0  0  0  0  0  0  0
   14.6714   64.2214  -12.0135 N   0  0  0  0  0  0  0  0  0  0  0  0
   15.1839   65.1122  -11.9427 H   0  0  0  0  0  0  0  0  0  0  0  0
   23.4562   63.2358  -13.5184 C   0  0  0  0  0  0  0  0  0  0  0  0
   24.8376   63.3014  -13.9895 C   0  0  0  0  0  0  0  0  0  0  0  0
   25.1345   63.3904  -15.3274 C   0  0  0  0  0  0  0  0  0  0  0  0
   26.4572   63.4587  -15.7637 C   0  0  0  0  0  0  0  0  0  0  0  0
   27.4679   63.4388  -14.8482 C   0  0  0  0  0  0  0  0  0  0  0  0
   27.1727   63.3514  -13.4866 C   0  0  0  0  0  0  0  0  0  0  0  0
   25.8829   63.2842  -13.0651 C   0  0  0  0  0  0  0  0  0  0  0  0
   23.7308   63.4131  -16.6329 Br  0  0  0  0  0  0  0  0  0  0  0  0
  9 10  2  0  0  0
  9 11  2  0  0  0
  9  1  1  0  0  0
  9 12  1  0  0  0
  1  2  1  0  0  0
  1  6  1  0  0  0
  2  3  1  0  0  0
  3  4  1  0  0  0
  4  5  1  0  0  0
  4  7  1  0  0  0
  5  6  1  0  0  0
  7  8  2  0  0  0
  7 24  1  0  0  0
 24 25  1  0  0  0
 25 26  2  0  0  0
 25 30  1  0  0  0
 26 27  1  0  0  0
 26 31  1  0  0  0
 27 28  2  0  0  0
 28 29  1  0  0  0
 29 30  2  0  0  0
 12 13  2  0  0  0
 12 17  1  0  0  0
 13 14  1  0  0  0
 14 15  2  0  0  0
 14 22  1  0  0  0
 15 16  1  0  0  0
 15 18  1  0  0  0
 16 17  2  0  0  0
 18 19  1  0  0  0
 19 20  1  0  0  0
 20 21  2  0  0  0
 20 22  1  0  0  0
 22 23  1  0  0  0
M  END
> <minimizedAffinity>
-8.87059

$$$$
1040


 34 38  0  0  0  0  0  0  0  0999 V2000
   13.0974   63.6332  -13.7833 S   0  0  0  0  0  0  0  0  0  0  0  0
   13.2510   62.2723  -14.3443 O   0  0  0  0  0  0  0  0  0  0  0  0
   14.1371   64.4825  -14.5237 O   0  0  0  0  0  0  0  0  0  0  0  0
   11.5699   64.3916  -14.1075 C   0  0  0  0  0  0  0  0  0  0  0  0
   11.4391   65.7818  -14.2305 C   0  0  0  0  0  0  0  0  0  0  0  0
   10.2205   66.3779  -14.4856 C   0  0  0  0  0  0  0  0  0  0  0  0
    9.0744   65.6232  -14.6318 C   0  0  0  0  0  0  0  0  0  0  0  0
    9.1942   64.2662  -14.5117 C   0  0  0  0  0  0  0  0  0  0  0  0
   10.4286   63.6788  -14.2547 C   0  0  0  0  0  0  0  0  0  0  0  0
   10.3977   62.2109  -14.1414 C   0  0  0  0  0  0  0  0  0  0  0  0
    9.6438   61.5955  -15.3000 C   0  0  0  0  0  0  0  0  0  0  0  0
    8.4593   62.3154  -15.5774 N   0  0  0  0  0  0  0  0  0  0  0  0
    8.0612   63.3221  -14.6456 C   0  0  0  0  0  0  0  0  0  0  0  0
    8.1818   62.5958  -16.9421 C   0  0  0  0  0  0  0  0  0  0  0  0
   10.4299   67.7382  -14.5471 O   0  0  0  0  0  0  0  0  0  0  0  0
   11.7573   68.0098  -14.1957 C   0  0  0  0  0  0  0  0  0  0  0  0
   12.4247   66.7589  -14.1294 O   0  0  0  0  0  0  0  0  0  0  0  0
    7.8260   66.2251  -14.8922 O   0  0  0  0  0  0  0  0  0  0  0  0
    7.6229   66.8582  -16.1636 C   0  0  0  0  0  0  0  0  0  0  0  0
   13.5448   63.7547  -12.1262 N   0  0  0  0  0  0  0  0  0  0  0  0
   14.4541   64.8109  -11.8429 C   0  0  0  0  0  0  0  0  0  0  0  0
   15.9208   64.4304  -11.9983 C   0  0  0  0  0  0  0  0  0  0  0  0
   16.1691   63.2420  -11.2534 N   0  0  0  0  0  0  0  0  0  0  0  0
   15.3286   62.0960  -11.7284 C   0  0  0  0  0  0  0  0  0  0  0  0
   13.9084   62.5096  -11.5401 C   0  0  0  0  0  0  0  0  0  0  0  0
   17.0243   62.9775  -10.2026 C   0  0  0  0  0  0  0  0  0  0  0  0
   16.9822   61.7394   -9.7522 O   0  0  0  0  0  0  0  0  0  0  0  0
   17.9585   63.8130   -9.5059 C   0  0  0  0  0  0  0  0  0  0  0  0
   19.3477   63.6815   -9.7556 N   0  0  0  0  0  0  0  0  0  0  0  0
   19.9608   63.5994  -10.9351 N   0  0  0  0  0  0  0  0  0  0  0  0
   21.2884   63.5234  -10.7794 C   0  0  0  0  0  0  0  0  0  0  0  0
   21.5126   63.5600   -9.4250 C   0  0  0  0  0  0  0  0  0  0  0  0
   20.3086   63.6577   -8.7945 C   0  0  0  0  0  0  0  0  0  0  0  0
   23.2299   63.4858   -8.5608 Br  0  0  0  0  0  0  0  0  0  0  0  0
  1  2  2  0  0  0
  1  3  2  0  0  0
  1 20  1  0  0  0
  1  4  1  0  0  0
 20 21  1  0  0  0
 20 25  1  0  0  0
 21 22  1  0  0  0
 22 23  1  0  0  0
 23 24  1  0  0  0
 23 26  1  0  0  0
 24 25  1  0  0  0
 26 27  2  0  0  0
 26 28  1  0  0  0
 28 29  1  0  0  0
 29 30  1  0  0  0
 29 33  1  0  0  0
 30 31  2  0  0  0
 31 32  1  0  0  0
 32 33  2  0  0  0
 32 34  1  0  0  0
  4  5  2  0  0  0
  4  9  1  0  0  0
  5  6  1  0  0  0
  5 17  1  0  0  0
  6  7  2  0  0  0
  6 15  1  0  0  0
  7  8  1  0  0  0
  7 18  1  0  0  0
  8  9  2  0  0  0
  8 13  1  0  0  0
  9 10  1  0  0  0
 10 11  1  0  0  0
 11 12  1  0  0  0
 12 13  1  0  0  0
 12 14  1  0  0  0
 18 19  1  0  0  0
 15 16  1  0  0  0
 16 17  1  0  0  0
M  END
> <minimizedAffinity>
-5.26348

$$$$
1042


 31 34  0  0  0  0  0  0  0  0999 V2000
   18.8198   63.0682  -10.1692 N   0  0  0  0  0  0  0  0  0  0  0  0
   18.2436   61.8604   -9.8109 C   0  0  0  0  0  0  0  0  0  0  0  0
   17.1811   61.4959  -10.8837 C   0  0  0  0  0  0  0  0  0  0  0  0
   16.2892   62.6054  -11.0753 N   0  0  0  0  0  0  0  0  0  0  0  0
   16.8842   63.8544  -11.4924 C   0  0  0  0  0  0  0  0  0  0  0  0
   18.3842   63.6823  -11.3932 C   0  0  0  0  0  0  0  0  0  0  0  0
   14.8968   62.5318  -10.8805 C   0  0  0  0  0  0  0  0  0  0  0  0
   14.3877   61.4467  -10.5193 O   0  0  0  0  0  0  0  0  0  0  0  0
   20.1905   63.6839   -9.4718 S   0  0  0  0  0  0  0  0  0  0  0  0
   20.0262   65.2051   -9.3531 O   0  0  0  0  0  0  0  0  0  0  0  0
   20.3412   63.2421   -8.0128 O   0  0  0  0  0  0  0  0  0  0  0  0
   21.7052   63.4479  -10.2872 C   0  0  0  0  0  0  0  0  0  0  0  0
   22.9510   63.5191   -9.7237 C   0  0  0  0  0  0  0  0  0  0  0  0
   24.1162   63.3630  -10.4829 C   0  0  0  0  0  0  0  0  0  0  0  0
   24.0712   63.1315  -11.8215 C   0  0  0  0  0  0  0  0  0  0  0  0
   22.8403   63.0521  -12.4151 C   0  0  0  0  0  0  0  0  0  0  0  0
   21.6934   63.2057  -11.6735 C   0  0  0  0  0  0  0  0  0  0  0  0
   23.1070   63.7689   -7.8494 Br  0  0  0  0  0  0  0  0  0  0  0  0
   14.0407   63.6999  -11.0930 C   0  0  0  0  0  0  0  0  0  0  0  0
   13.6078   63.7734  -12.4859 N   0  0  0  0  0  0  0  0  0  0  0  0
   12.8427   62.8587  -13.2434 C   0  0  0  0  0  0  0  0  0  0  0  0
   12.3779   61.7552  -12.8064 O   0  0  0  0  0  0  0  0  0  0  0  0
   12.6999   63.4009  -14.5505 N   0  0  0  0  0  0  0  0  0  0  0  0
   12.9507   64.8149  -14.4498 C   0  0  0  0  0  0  0  0  0  0  0  0
   11.7245   65.6283  -14.1923 C   0  0  0  0  0  0  0  0  0  0  0  0
   12.2140   67.0418  -14.5316 C   0  0  0  0  0  0  0  0  0  0  0  0
   13.1310   66.8337  -15.7054 C   0  0  0  0  0  0  0  0  0  0  0  0
   13.5066   65.3888  -15.7324 C   0  0  0  0  0  0  0  0  0  0  0  0
   13.9351   64.8853  -13.3439 C   0  0  0  0  0  0  0  0  0  0  0  0
   14.8464   65.7306  -13.1981 O   0  0  0  0  0  0  0  0  0  0  0  0
   12.4544   62.8061  -15.3805 H   0  0  0  0  0  0  0  0  0  0  0  0
  9 10  2  0  0  0
  9 11  2  0  0  0
  9  1  1  0  0  0
  9 12  1  0  0  0
  1  2  1  0  0  0
  1  6  1  0  0  0
  2  3  1  0  0  0
  3  4  1  0  0  0
  4  5  1  0  0  0
  4  7  1  0  0  0
  5  6  1  0  0  0
  7  8  2  0  0  0
  7 19  1  0  0  0
 19 20  1  0  0  0
 20 21  1  0  0  0
 20 29  1  0  0  0
 21 22  2  0  0  0
 21 23  1  0  0  0
 23 24  1  0  0  0
 24 25  1  0  0  0
 24 28  1  0  0  0
 24 29  1  0  0  0
 25 26  1  0  0  0
 26 27  1  0  0  0
 27 28  1  0  0  0
 29 30  2  0  0  0
 12 13  2  0  0  0
 12 17  1  0  0  0
 13 14  1  0  0  0
 13 18  1  0  0  0
 14 15  2  0  0  0
 15 16  1  0  0  0
 16 17  2  0  0  0
 23 31  1  0  0  0
M  END
> <minimizedAffinity>
-7.74594

$$$$
1043


 31 34  0  0  0  0  0  0  0  0999 V2000
   17.5100   63.1427  -10.6488 N   0  0  0  0  0  0  0  0  0  0  0  0
   16.5996   62.1320  -11.1437 C   0  0  0  0  0  0  0  0  0  0  0  0
   15.1631   62.5484  -10.9480 C   0  0  0  0  0  0  0  0  0  0  0  0
   15.0259   63.9000  -11.5294 N   0  0  0  0  0  0  0  0  0  0  0  0
   15.9201   64.8852  -11.0059 C   0  0  0  0  0  0  0  0  0  0  0  0
   16.8191   64.1784   -9.9644 C   0  0  0  0  0  0  0  0  0  0  0  0
   14.0746   64.1542  -12.5277 C   0  0  0  0  0  0  0  0  0  0  0  0
   13.3579   63.1056  -12.8796 O   0  0  0  0  0  0  0  0  0  0  0  0
   18.8392   62.4916   -9.7987 S   0  0  0  0  0  0  0  0  0  0  0  0
   18.5924   60.9998   -9.6642 O   0  0  0  0  0  0  0  0  0  0  0  0
   18.8435   63.0337   -8.3913 O   0  0  0  0  0  0  0  0  0  0  0  0
   20.3728   62.8066  -10.5739 C   0  0  0  0  0  0  0  0  0  0  0  0
   21.5065   63.1310   -9.8566 C   0  0  0  0  0  0  0  0  0  0  0  0
   22.7223   63.3801  -10.4830 C   0  0  0  0  0  0  0  0  0  0  0  0
   22.8346   63.3103  -11.8474 C   0  0  0  0  0  0  0  0  0  0  0  0
   21.7097   62.9867  -12.5762 C   0  0  0  0  0  0  0  0  0  0  0  0
   20.4998   62.7388  -11.9450 C   0  0  0  0  0  0  0  0  0  0  0  0
   24.5156   63.6533  -12.7230 Br  0  0  0  0  0  0  0  0  0  0  0  0
   13.7160   65.3438  -13.2572 C   0  0  0  0  0  0  0  0  0  0  0  0
   12.9161   65.2563  -14.4381 N   0  0  0  0  0  0  0  0  0  0  0  0
   13.3725   65.0688  -15.8022 C   0  0  0  0  0  0  0  0  0  0  0  0
   14.5924   64.9391  -16.1005 O   0  0  0  0  0  0  0  0  0  0  0  0
   12.2312   65.0646  -16.6440 N   0  0  0  0  0  0  0  0  0  0  0  0
   11.1647   65.6649  -15.9168 C   0  0  0  0  0  0  0  0  0  0  0  0
   11.0152   67.1438  -16.1819 C   0  0  0  0  0  0  0  0  0  0  0  0
    9.6571   67.4241  -15.5674 C   0  0  0  0  0  0  0  0  0  0  0  0
    8.8785   66.1349  -15.6705 C   0  0  0  0  0  0  0  0  0  0  0  0
    9.8014   65.1386  -16.3307 C   0  0  0  0  0  0  0  0  0  0  0  0
   11.4794   65.3597  -14.5220 C   0  0  0  0  0  0  0  0  0  0  0  0
   10.6869   65.2096  -13.5573 O   0  0  0  0  0  0  0  0  0  0  0  0
   12.2509   64.6685  -17.6239 H   0  0  0  0  0  0  0  0  0  0  0  0
  9 10  2  0  0  0
  9 11  2  0  0  0
  9  1  1  0  0  0
  9 12  1  0  0  0
  1  2  1  0  0  0
  1  6  1  0  0  0
  2  3  1  0  0  0
  3  4  1  0  0  0
  4  5  1  0  0  0
  4  7  1  0  0  0
  5  6  1  0  0  0
  7  8  2  0  0  0
  7 19  1  0  0  0
 19 20  1  0  0  0
 20 21  1  0  0  0
 20 29  1  0  0  0
 21 22  2  0  0  0
 21 23  1  0  0  0
 23 24  1  0  0  0
 24 25  1  0  0  0
 24 28  1  0  0  0
 24 29  1  0  0  0
 25 26  1  0  0  0
 26 27  1  0  0  0
 27 28  1  0  0  0
 29 30  2  0  0  0
 12 13  2  0  0  0
 12 17  1  0  0  0
 13 14  1  0  0  0
 14 15  2  0  0  0
 15 16  1  0  0  0
 15 18  1  0  0  0
 16 17  2  0  0  0
 23 31  1  0  0  0
M  END
> <minimizedAffinity>
-7.42360

$$$$
1044


 30 33  0  0  0  0  0  0  0  0999 V2000
   14.2085   62.9018  -11.1165 S   0  0  0  0  0  0  0  0  0  0  0  0
   13.5564   63.7749  -10.1170 O   0  0  0  0  0  0  0  0  0  0  0  0
   13.5164   61.5464  -11.0397 O   0  0  0  0  0  0  0  0  0  0  0  0
   15.8917   62.5941  -10.7050 C   0  0  0  0  0  0  0  0  0  0  0  0
   16.7778   63.6271  -10.4784 C   0  0  0  0  0  0  0  0  0  0  0  0
   18.1027   63.4187  -10.1536 C   0  0  0  0  0  0  0  0  0  0  0  0
   18.5993   62.1362  -10.0422 C   0  0  0  0  0  0  0  0  0  0  0  0
   17.7114   61.0957  -10.2685 C   0  0  0  0  0  0  0  0  0  0  0  0
   16.3883   61.3113  -10.5927 C   0  0  0  0  0  0  0  0  0  0  0  0
   19.9324   61.8937   -9.7160 O   0  0  0  0  0  0  0  0  0  0  0  0
   20.9431   62.8838   -9.7178 C   0  0  0  0  0  0  0  0  0  0  0  0
   20.3845   64.2532   -9.5869 C   0  0  0  0  0  0  0  0  0  0  0  0
   21.1608   65.1551   -9.1817 O   0  0  0  0  0  0  0  0  0  0  0  0
   19.0197   64.4800   -9.9208 N   0  0  0  0  0  0  0  0  0  0  0  0
   18.6604   65.4548  -10.0011 H   0  0  0  0  0  0  0  0  0  0  0  0
   14.0865   63.4478  -12.7122 N   0  0  0  0  0  0  0  0  0  0  0  0
   14.2587   64.8131  -12.9458 C   0  0  0  0  0  0  0  0  0  0  0  0
   13.6159   65.3752  -14.1639 C   0  0  0  0  0  0  0  0  0  0  0  0
   12.4658   64.6594  -14.6179 N   0  0  0  0  0  0  0  0  0  0  0  0
   12.0271   63.4949  -13.8798 C   0  0  0  0  0  0  0  0  0  0  0  0
   13.2926   62.6904  -13.5909 C   0  0  0  0  0  0  0  0  0  0  0  0
   11.7355   65.0461  -15.7673 C   0  0  0  0  0  0  0  0  0  0  0  0
   12.0837   66.0638  -16.4478 O   0  0  0  0  0  0  0  0  0  0  0  0
   10.5611   64.3278  -16.2449 C   0  0  0  0  0  0  0  0  0  0  0  0
    9.2799   64.6521  -15.8387 C   0  0  0  0  0  0  0  0  0  0  0  0
    8.1639   63.9817  -16.2832 C   0  0  0  0  0  0  0  0  0  0  0  0
    8.3457   62.9377  -17.1769 C   0  0  0  0  0  0  0  0  0  0  0  0
    9.5963   62.5714  -17.6158 C   0  0  0  0  0  0  0  0  0  0  0  0
   10.6816   63.2738  -17.1403 C   0  0  0  0  0  0  0  0  0  0  0  0
    9.1060   66.1012  -14.6069 Br  0  0  0  0  0  0  0  0  0  0  0  0
  1  2  2  0  0  0
  1  3  2  0  0  0
  1 16  1  0  0  0
  1  4  1  0  0  0
 16 17  1  0  0  0
 16 21  1  0  0  0
 17 18  1  0  0  0
 18 19  1  0  0  0
 19 20  1  0  0  0
 19 22  1  0  0  0
 20 21  1  0  0  0
 22 23  2  0  0  0
 22 24  1  0  0  0
 24 25  2  0  0  0
 24 29  1  0  0  0
 25 26  1  0  0  0
 25 30  1  0  0  0
 26 27  2  0  0  0
 27 28  1  0  0  0
 28 29  2  0  0  0
  4  5  2  0  0  0
  4  9  1  0  0  0
  5  6  1  0  0  0
  6  7  2  0  0  0
  6 14  1  0  0  0
  7  8  1  0  0  0
  7 10  1  0  0  0
  8  9  2  0  0  0
 10 11  1  0  0  0
 11 12  1  0  0  0
 12 13  2  0  0  0
 12 14  1  0  0  0
 14 15  1  0  0  0
M  END
> <minimizedAffinity>
-7.39321

$$$$
1051


 27 30  0  0  0  0  0  0  0  0999 V2000
   13.4668   63.7661  -12.3579 N   0  0  0  0  0  0  0  0  0  0  0  0
   14.3665   64.5393  -11.5842 C   0  0  0  0  0  0  0  0  0  0  0  0
   15.6406   63.8790  -11.1815 C   0  0  0  0  0  0  0  0  0  0  0  0
   15.5141   62.4695  -10.9235 N   0  0  0  0  0  0  0  0  0  0  0  0
   14.1907   61.9043  -11.0628 C   0  0  0  0  0  0  0  0  0  0  0  0
   13.7141   62.3659  -12.4247 C   0  0  0  0  0  0  0  0  0  0  0  0
   16.5797   61.6298  -10.5494 C   0  0  0  0  0  0  0  0  0  0  0  0
   16.3726   60.4134  -10.3455 O   0  0  0  0  0  0  0  0  0  0  0  0
   17.9281   62.1662  -10.3966 C   0  0  0  0  0  0  0  0  0  0  0  0
   18.5119   62.4892   -9.2471 N   0  0  0  0  0  0  0  0  0  0  0  0
   19.7455   62.9502   -9.4655 N   0  0  0  0  0  0  0  0  0  0  0  0
   20.0001   62.9380  -10.7939 C   0  0  0  0  0  0  0  0  0  0  0  0
   18.8363   62.4368  -11.3882 C   0  0  0  0  0  0  0  0  0  0  0  0
   21.1863   63.3571  -11.3014 N   0  0  0  0  0  0  0  0  0  0  0  0
   22.1560   63.8050  -10.4523 C   0  0  0  0  0  0  0  0  0  0  0  0
   21.9271   63.8285   -9.0937 C   0  0  0  0  0  0  0  0  0  0  0  0
   20.7066   63.3934   -8.6279 C   0  0  0  0  0  0  0  0  0  0  0  0
   23.2959   64.4606   -7.8991 Br  0  0  0  0  0  0  0  0  0  0  0  0
   13.2301   64.3576  -13.9576 S   0  0  0  0  0  0  0  0  0  0  0  0
   13.2495   63.2261  -14.9340 O   0  0  0  0  0  0  0  0  0  0  0  0
   14.4118   65.2696  -14.2589 O   0  0  0  0  0  0  0  0  0  0  0  0
   11.7231   65.2242  -14.1183 C   0  0  0  0  0  0  0  0  0  0  0  0
   10.4793   64.6954  -14.3777 C   0  0  0  0  0  0  0  0  0  0  0  0
    9.5756   65.6749  -14.4271 N   0  0  0  0  0  0  0  0  0  0  0  0
   10.1895   66.8215  -14.2079 N   0  0  0  0  0  0  0  0  0  0  0  0
   11.5141   66.5991  -14.0120 C   0  0  0  0  0  0  0  0  0  0  0  0
    8.1636   65.5484  -14.6730 C   0  0  0  0  0  0  0  0  0  0  0  0
 19 20  2  0  0  0
 19 21  2  0  0  0
 19  1  1  0  0  0
 19 22  1  0  0  0
  1  2  1  0  0  0
  1  6  1  0  0  0
  2  3  1  0  0  0
  3  4  1  0  0  0
  4  5  1  0  0  0
  4  7  1  0  0  0
  5  6  1  0  0  0
  7  8  2  0  0  0
  7  9  1  0  0  0
  9 10  2  0  0  0
  9 13  1  0  0  0
 10 11  1  0  0  0
 11 12  1  0  0  0
 11 17  1  0  0  0
 12 13  2  0  0  0
 12 14  1  0  0  0
 14 15  2  0  0  0
 15 16  1  0  0  0
 16 17  2  0  0  0
 16 18  1  0  0  0
 22 23  2  0  0  0
 22 26  1  0  0  0
 23 24  1  0  0  0
 24 25  1  0  0  0
 24 27  1  0  0  0
 25 26  2  0  0  0
M  END
> <minimizedAffinity>
-8.59928

$$$$
1056


 30 33  0  0  0  0  0  0  0  0999 V2000
   19.2030   63.3350   -9.9660 N   0  0  0  0  0  0  0  0  0  0  0  0
   19.9799   64.1986  -10.7706 C   0  0  0  0  0  0  0  0  0  0  0  0
   21.4259   64.2577  -10.4983 C   0  0  0  0  0  0  0  0  0  0  0  0
   21.7135   64.2111   -9.0958 N   0  0  0  0  0  0  0  0  0  0  0  0
   20.6297   64.1849   -8.1561 C   0  0  0  0  0  0  0  0  0  0  0  0
   19.4909   63.3099   -8.5779 C   0  0  0  0  0  0  0  0  0  0  0  0
   23.0443   64.1908   -8.6327 C   0  0  0  0  0  0  0  0  0  0  0  0
   23.9770   64.2131   -9.4676 O   0  0  0  0  0  0  0  0  0  0  0  0
   23.4099   64.1440   -7.2228 C   0  0  0  0  0  0  0  0  0  0  0  0
   23.1267   65.2207   -6.4024 C   0  0  0  0  0  0  0  0  0  0  0  0
   23.4621   65.1790   -5.1036 N   0  0  0  0  0  0  0  0  0  0  0  0
   24.0755   64.1120   -4.5472 C   0  0  0  0  0  0  0  0  0  0  0  0
   24.3650   63.0487   -5.3167 N   0  0  0  0  0  0  0  0  0  0  0  0
   24.9841   61.9698   -4.7597 C   0  0  0  0  0  0  0  0  0  0  0  0
   25.3259   61.9351   -3.4233 C   0  0  0  0  0  0  0  0  0  0  0  0
   25.0375   63.0196   -2.6113 C   0  0  0  0  0  0  0  0  0  0  0  0
   24.4117   64.0964   -3.1979 C   0  0  0  0  0  0  0  0  0  0  0  0
   26.0002   60.7795   -2.7811 C   0  0  0  0  0  0  0  0  0  0  0  0
   24.0370   63.0637   -6.6359 C   0  0  0  0  0  0  0  0  0  0  0  0
   24.3042   62.0816   -7.3447 O   0  0  0  0  0  0  0  0  0  0  0  0
   18.7419   61.8646  -10.6639 S   0  0  0  0  0  0  0  0  0  0  0  0
   19.3682   61.7046  -12.0052 O   0  0  0  0  0  0  0  0  0  0  0  0
   19.2207   60.7427   -9.7757 O   0  0  0  0  0  0  0  0  0  0  0  0
   17.0046   61.7702  -10.7708 C   0  0  0  0  0  0  0  0  0  0  0  0
   16.2660   62.8951  -11.0727 C   0  0  0  0  0  0  0  0  0  0  0  0
   14.8844   62.7485  -11.1424 C   0  0  0  0  0  0  0  0  0  0  0  0
   14.2651   61.5458  -10.9237 C   0  0  0  0  0  0  0  0  0  0  0  0
   15.0178   60.4203  -10.6208 C   0  0  0  0  0  0  0  0  0  0  0  0
   16.4092   60.5459  -10.5459 C   0  0  0  0  0  0  0  0  0  0  0  0
   13.8101   64.2626  -11.5542 Br  0  0  0  0  0  0  0  0  0  0  0  0
 21 22  2  0  0  0
 21 23  2  0  0  0
 21  1  1  0  0  0
 21 24  1  0  0  0
  1  2  1  0  0  0
  1  6  1  0  0  0
  2  3  1  0  0  0
  3  4  1  0  0  0
  4  5  1  0  0  0
  4  7  1  0  0  0
  5  6  1  0  0  0
  7  8  2  0  0  0
  7  9  1  0  0  0
  9 10  2  0  0  0
  9 19  1  0  0  0
 10 11  1  0  0  0
 11 12  2  0  0  0
 12 13  1  0  0  0
 12 17  1  0  0  0
 13 14  1  0  0  0
 13 19  1  0  0  0
 14 15  2  0  0  0
 15 16  1  0  0  0
 15 18  1  0  0  0
 16 17  2  0  0  0
 19 20  2  0  0  0
 24 25  2  0  0  0
 24 29  1  0  0  0
 25 26  1  0  0  0
 26 27  2  0  0  0
 26 30  1  0  0  0
 27 28  1  0  0  0
 28 29  2  0  0  0
M  END
> <minimizedAffinity>
-7.55078

$$$$
1061


 30 34  0  0  0  0  0  0  0  0999 V2000
   17.1516   63.2113  -10.0496 N   0  0  0  0  0  0  0  0  0  0  0  0
   16.5978   64.5377  -10.1231 C   0  0  0  0  0  0  0  0  0  0  0  0
   15.1369   64.5116  -10.5100 C   0  0  0  0  0  0  0  0  0  0  0  0
   14.9601   63.7530  -11.7737 N   0  0  0  0  0  0  0  0  0  0  0  0
   15.3440   62.3732  -11.5122 C   0  0  0  0  0  0  0  0  0  0  0  0
   16.1470   62.2092  -10.2336 C   0  0  0  0  0  0  0  0  0  0  0  0
   18.6412   62.9726  -10.7871 S   0  0  0  0  0  0  0  0  0  0  0  0
   18.6979   61.5294  -11.2713 O   0  0  0  0  0  0  0  0  0  0  0  0
   18.6542   63.7905  -12.0792 O   0  0  0  0  0  0  0  0  0  0  0  0
   20.0441   63.4051   -9.8960 C   0  0  0  0  0  0  0  0  0  0  0  0
   21.2041   63.7625  -10.5394 C   0  0  0  0  0  0  0  0  0  0  0  0
   22.3113   64.1148   -9.7885 C   0  0  0  0  0  0  0  0  0  0  0  0
   22.2998   64.1214   -8.4056 C   0  0  0  0  0  0  0  0  0  0  0  0
   21.1329   63.7622   -7.7642 C   0  0  0  0  0  0  0  0  0  0  0  0
   20.0206   63.4083   -8.5197 C   0  0  0  0  0  0  0  0  0  0  0  0
   23.8255   64.6046   -7.3693 Br  0  0  0  0  0  0  0  0  0  0  0  0
   13.5352   63.8205  -12.0174 C   0  0  0  0  0  0  0  0  0  0  0  0
   13.0748   63.8165  -13.4127 C   0  0  0  0  0  0  0  0  0  0  0  0
   12.6113   65.0230  -14.0092 N   0  0  0  0  0  0  0  0  0  0  0  0
   11.3226   65.6266  -14.0048 C   0  0  0  0  0  0  0  0  0  0  0  0
   10.2496   65.0244  -13.8547 O   0  0  0  0  0  0  0  0  0  0  0  0
   11.4780   67.0869  -14.2094 C   0  0  0  0  0  0  0  0  0  0  0  0
   12.7684   67.1126  -15.0602 C   0  0  0  0  0  0  0  0  0  0  0  0
   12.3163   67.2498  -16.4651 C   0  0  0  0  0  0  0  0  0  0  0  0
   10.8850   66.6905  -16.4011 C   0  0  0  0  0  0  0  0  0  0  0  0
   10.4890   67.5755  -15.2061 C   0  0  0  0  0  0  0  0  0  0  0  0
   11.0004   68.8934  -15.7116 C   0  0  0  0  0  0  0  0  0  0  0  0
   11.9307   68.7030  -16.6471 C   0  0  0  0  0  0  0  0  0  0  0  0
   13.5042   65.9002  -14.7311 C   0  0  0  0  0  0  0  0  0  0  0  0
   14.7041   65.6872  -15.0372 O   0  0  0  0  0  0  0  0  0  0  0  0
  7  8  2  0  0  0
  7  9  2  0  0  0
  7  1  1  0  0  0
  7 10  1  0  0  0
  1  2  1  0  0  0
  1  6  1  0  0  0
  2  3  1  0  0  0
  3  4  1  0  0  0
  4  5  1  0  0  0
  4 17  1  0  0  0
  5  6  1  0  0  0
 17 18  1  0  0  0
 18 19  1  0  0  0
 19 20  1  0  0  0
 19 29  1  0  0  0
 20 21  2  0  0  0
 20 22  1  0  0  0
 22 23  1  0  0  0
 22 26  1  0  0  0
 23 24  1  0  0  0
 23 29  1  0  0  0
 24 25  1  0  0  0
 24 28  1  0  0  0
 25 26  1  0  0  0
 26 27  1  0  0  0
 27 28  2  0  0  0
 29 30  2  0  0  0
 10 11  2  0  0  0
 10 15  1  0  0  0
 11 12  1  0  0  0
 12 13  2  0  0  0
 13 14  1  0  0  0
 13 16  1  0  0  0
 14 15  2  0  0  0
M  END
> <minimizedAffinity>
-7.80172

$$$$
1073


 28 31  0  0  0  0  0  0  0  0999 V2000
   21.8541   64.6914   -8.2218 N   0  0  0  0  0  0  0  0  0  0  0  0
   22.6184   63.7173   -8.8890 C   0  0  0  0  0  0  0  0  0  0  0  0
   21.9356   63.1495  -10.1025 C   0  0  0  0  0  0  0  0  0  0  0  0
   20.5270   63.3207  -10.1166 N   0  0  0  0  0  0  0  0  0  0  0  0
   20.1720   64.6901  -10.0020 C   0  0  0  0  0  0  0  0  0  0  0  0
   20.9299   65.4482   -8.9765 C   0  0  0  0  0  0  0  0  0  0  0  0
   22.4550   65.3714   -6.8304 S   0  0  0  0  0  0  0  0  0  0  0  0
   23.2800   66.5866   -7.0901 O   0  0  0  0  0  0  0  0  0  0  0  0
   21.3435   65.7348   -5.8992 O   0  0  0  0  0  0  0  0  0  0  0  0
   23.5011   64.1926   -6.0113 C   0  0  0  0  0  0  0  0  0  0  0  0
   23.5354   63.7457   -4.3666 S   0  0  0  0  0  0  0  0  0  0  0  0
   24.7893   62.5943   -4.4237 C   0  0  0  0  0  0  0  0  0  0  0  0
   25.1544   62.5907   -5.7475 C   0  0  0  0  0  0  0  0  0  0  0  0
   24.4835   63.4200   -6.5621 C   0  0  0  0  0  0  0  0  0  0  0  0
   25.5315   61.5451   -3.0031 Br  0  0  0  0  0  0  0  0  0  0  0  0
   19.8667   62.3900   -9.2796 C   0  0  0  0  0  0  0  0  0  0  0  0
   18.6226   61.8731   -9.7393 N   0  0  0  0  0  0  0  0  0  0  0  0
   17.7121   62.6713  -10.2577 N   0  0  0  0  0  0  0  0  0  0  0  0
   16.5143   62.2672  -10.7082 C   0  0  0  0  0  0  0  0  0  0  0  0
   16.2389   60.9236  -10.6134 C   0  0  0  0  0  0  0  0  0  0  0  0
   17.1497   60.0365  -10.0802 C   0  0  0  0  0  0  0  0  0  0  0  0
   18.3595   60.5602   -9.6438 C   0  0  0  0  0  0  0  0  0  0  0  0
   19.2034   59.7333   -9.1504 O   0  0  0  0  0  0  0  0  0  0  0  0
   15.5443   63.1607  -11.2670 N   0  0  0  0  0  0  0  0  0  0  0  0
   15.6759   64.4586  -11.5593 C   0  0  0  0  0  0  0  0  0  0  0  0
   14.5120   64.9042  -12.0671 N   0  0  0  0  0  0  0  0  0  0  0  0
   13.6276   63.8916  -12.1020 C   0  0  0  0  0  0  0  0  0  0  0  0
   14.2942   62.7971  -11.5936 C   0  0  0  0  0  0  0  0  0  0  0  0
  7  8  2  0  0  0
  7  9  2  0  0  0
  7  1  1  0  0  0
  7 10  1  0  0  0
  1  2  1  0  0  0
  1  6  1  0  0  0
  2  3  1  0  0  0
  3  4  1  0  0  0
  4  5  1  0  0  0
  4 16  1  0  0  0
  5  6  1  0  0  0
 16 17  1  0  0  0
 17 18  1  0  0  0
 17 22  1  0  0  0
 18 19  2  0  0  0
 19 20  1  0  0  0
 19 24  1  0  0  0
 20 21  2  0  0  0
 21 22  1  0  0  0
 22 23  2  0  0  0
 24 25  1  0  0  0
 24 28  1  0  0  0
 25 26  2  0  0  0
 26 27  1  0  0  0
 27 28  2  0  0  0
 10 11  1  0  0  0
 10 14  2  0  0  0
 11 12  1  0  0  0
 12 13  2  0  0  0
 12 15  1  0  0  0
 13 14  1  0  0  0
M  END
> <minimizedAffinity>
-7.51220

$$$$
1076


 29 32  0  0  0  0  0  0  0  0999 V2000
   22.0301   64.5634   -7.8260 N   0  0  0  0  0  0  0  0  0  0  0  0
   21.6121   65.5222   -8.7995 C   0  0  0  0  0  0  0  0  0  0  0  0
   20.7200   64.7537   -9.7898 C   0  0  0  0  0  0  0  0  0  0  0  0
   21.1145   63.4179   -9.9120 N   0  0  0  0  0  0  0  0  0  0  0  0
   22.5168   63.1506   -9.7430 C   0  0  0  0  0  0  0  0  0  0  0  0
   23.0847   63.7745   -8.4882 C   0  0  0  0  0  0  0  0  0  0  0  0
   22.7372   65.2520   -6.4279 S   0  0  0  0  0  0  0  0  0  0  0  0
   21.7398   66.0380   -5.6181 O   0  0  0  0  0  0  0  0  0  0  0  0
   23.7790   66.2421   -6.8948 O   0  0  0  0  0  0  0  0  0  0  0  0
   23.5149   64.1076   -5.4036 C   0  0  0  0  0  0  0  0  0  0  0  0
   24.7102   63.4964   -5.6423 C   0  0  0  0  0  0  0  0  0  0  0  0
   25.2512   62.5847   -4.7473 C   0  0  0  0  0  0  0  0  0  0  0  0
   24.6103   62.2608   -3.5886 C   0  0  0  0  0  0  0  0  0  0  0  0
   23.3929   62.8664   -3.3183 C   0  0  0  0  0  0  0  0  0  0  0  0
   22.8675   63.7658   -4.2114 C   0  0  0  0  0  0  0  0  0  0  0  0
   26.9374   61.7355   -5.1054 Br  0  0  0  0  0  0  0  0  0  0  0  0
   20.2520   62.3692   -9.5606 C   0  0  0  0  0  0  0  0  0  0  0  0
   18.8819   62.4524   -9.9520 N   0  0  0  0  0  0  0  0  0  0  0  0
   18.2952   63.6952  -10.3023 N   0  0  0  0  0  0  0  0  0  0  0  0
   16.9440   63.4003  -10.6461 C   0  0  0  0  0  0  0  0  0  0  0  0
   16.0774   64.3294  -11.0306 C   0  0  0  0  0  0  0  0  0  0  0  0
   14.6538   64.3091  -11.4362 C   0  0  0  0  0  0  0  0  0  0  0  0
   13.9268   63.1492  -10.7989 C   0  0  0  0  0  0  0  0  0  0  0  0
   14.4207   61.9012  -11.5088 C   0  0  0  0  0  0  0  0  0  0  0  0
   15.5060   61.2150  -10.7372 C   0  0  0  0  0  0  0  0  0  0  0  0
   16.6741   62.0130  -10.5201 N   0  0  0  0  0  0  0  0  0  0  0  0
   17.9001   61.4348  -10.0830 C   0  0  0  0  0  0  0  0  0  0  0  0
   18.0455   60.2073   -9.8599 O   0  0  0  0  0  0  0  0  0  0  0  0
   18.7578   64.6349  -10.3065 H   0  0  0  0  0  0  0  0  0  0  0  0
  7  8  2  0  0  0
  7  9  2  0  0  0
  7  1  1  0  0  0
  7 10  1  0  0  0
  1  2  1  0  0  0
  1  6  1  0  0  0
  2  3  1  0  0  0
  3  4  1  0  0  0
  4  5  1  0  0  0
  4 17  1  0  0  0
  5  6  1  0  0  0
 17 18  1  0  0  0
 18 19  1  0  0  0
 18 27  1  0  0  0
 19 20  1  0  0  0
 20 21  2  0  0  0
 20 26  1  0  0  0
 21 22  1  0  0  0
 22 23  1  0  0  0
 23 24  1  0  0  0
 24 25  1  0  0  0
 25 26  1  0  0  0
 26 27  1  0  0  0
 27 28  2  0  0  0
 10 11  2  0  0  0
 10 15  1  0  0  0
 11 12  1  0  0  0
 12 13  2  0  0  0
 12 16  1  0  0  0
 13 14  1  0  0  0
 14 15  2  0  0  0
 19 29  1  0  0  0
M  END
> <minimizedAffinity>
-9.11725

$$$$
1081


 27 30  0  0  0  0  0  0  0  0999 V2000
   21.5861   65.2099   -6.9080 N   0  0  0  0  0  0  0  0  0  0  0  0
   21.0887   63.8876   -6.8984 C   0  0  0  0  0  0  0  0  0  0  0  0
   20.5870   63.3425   -8.1937 C   0  0  0  0  0  0  0  0  0  0  0  0
   20.6843   64.2554   -9.3055 N   0  0  0  0  0  0  0  0  0  0  0  0
   20.4957   65.6525   -9.0831 C   0  0  0  0  0  0  0  0  0  0  0  0
   20.9727   66.1525   -7.7644 C   0  0  0  0  0  0  0  0  0  0  0  0
   20.9606   63.6942  -10.5969 C   0  0  0  0  0  0  0  0  0  0  0  0
   20.0651   63.1006  -11.4044 N   0  0  0  0  0  0  0  0  0  0  0  0
   20.7604   62.7193  -12.4823 N   0  0  0  0  0  0  0  0  0  0  0  0
   22.0218   63.0629  -12.3425 N   0  0  0  0  0  0  0  0  0  0  0  0
   22.1860   63.6700  -11.1860 N   0  0  0  0  0  0  0  0  0  0  0  0
   18.6760   62.9302  -11.1612 C   0  0  0  0  0  0  0  0  0  0  0  0
   18.1747   61.7434  -10.6777 C   0  0  0  0  0  0  0  0  0  0  0  0
   16.8061   61.6078  -10.4487 C   0  0  0  0  0  0  0  0  0  0  0  0
   15.9323   62.6437  -10.6966 C   0  0  0  0  0  0  0  0  0  0  0  0
   16.4426   63.8517  -11.1889 C   0  0  0  0  0  0  0  0  0  0  0  0
   17.8155   63.9691  -11.4122 C   0  0  0  0  0  0  0  0  0  0  0  0
   23.2613   65.4070   -6.6907 S   0  0  0  0  0  0  0  0  0  0  0  0
   23.6813   66.7584   -6.2683 O   0  0  0  0  0  0  0  0  0  0  0  0
   23.9358   65.1472   -8.0323 O   0  0  0  0  0  0  0  0  0  0  0  0
   23.8599   64.2045   -5.5815 C   0  0  0  0  0  0  0  0  0  0  0  0
   23.3909   64.0719   -4.2989 C   0  0  0  0  0  0  0  0  0  0  0  0
   23.8772   63.1027   -3.4218 C   0  0  0  0  0  0  0  0  0  0  0  0
   24.8791   62.2418   -3.8814 C   0  0  0  0  0  0  0  0  0  0  0  0
   25.3578   62.3661   -5.1666 C   0  0  0  0  0  0  0  0  0  0  0  0
   24.8545   63.3294   -5.9955 C   0  0  0  0  0  0  0  0  0  0  0  0
   25.5910   60.8866   -2.7330 Br  0  0  0  0  0  0  0  0  0  0  0  0
 18 19  2  0  0  0
 18 20  2  0  0  0
 18  1  1  0  0  0
 18 21  1  0  0  0
  1  2  1  0  0  0
  1  6  1  0  0  0
  2  3  1  0  0  0
  3  4  1  0  0  0
  4  5  1  0  0  0
  4  7  1  0  0  0
  5  6  1  0  0  0
  7  8  1  0  0  0
  7 11  2  0  0  0
  8  9  1  0  0  0
  8 12  1  0  0  0
  9 10  2  0  0  0
 10 11  1  0  0  0
 12 13  2  0  0  0
 12 17  1  0  0  0
 13 14  1  0  0  0
 14 15  2  0  0  0
 15 16  1  0  0  0
 16 17  2  0  0  0
 21 22  2  0  0  0
 21 26  1  0  0  0
 22 23  1  0  0  0
 23 24  2  0  0  0
 24 25  1  0  0  0
 24 27  1  0  0  0
 25 26  2  0  0  0
M  END
> <minimizedAffinity>
-7.58023

$$$$
1084


 29 32  0  0  0  0  0  0  0  0999 V2000
   14.0213   63.6939  -13.2031 N   0  0  0  0  0  0  0  0  0  0  0  0
   13.4877   62.6600  -12.3813 C   0  0  0  0  0  0  0  0  0  0  0  0
   13.9910   62.7040  -10.9546 C   0  0  0  0  0  0  0  0  0  0  0  0
   15.2773   63.3373  -10.9693 N   0  0  0  0  0  0  0  0  0  0  0  0
   15.3672   64.6993  -11.4065 C   0  0  0  0  0  0  0  0  0  0  0  0
   14.3440   64.9093  -12.4941 C   0  0  0  0  0  0  0  0  0  0  0  0
   16.4184   62.6271  -10.5602 C   0  0  0  0  0  0  0  0  0  0  0  0
   17.6065   63.2191  -10.3545 N   0  0  0  0  0  0  0  0  0  0  0  0
   18.7132   62.6076   -9.9713 C   0  0  0  0  0  0  0  0  0  0  0  0
   18.6497   61.2406   -9.7598 C   0  0  0  0  0  0  0  0  0  0  0  0
   17.4534   60.5883   -9.9567 C   0  0  0  0  0  0  0  0  0  0  0  0
   16.3740   61.2893  -10.3483 N   0  0  0  0  0  0  0  0  0  0  0  0
   17.3441   59.1203   -9.7407 C   0  0  0  0  0  0  0  0  0  0  0  0
   19.9062   63.3481   -9.7899 N   0  0  0  0  0  0  0  0  0  0  0  0
   20.5541   63.5215   -8.5062 C   0  0  0  0  0  0  0  0  0  0  0  0
   22.0194   63.8336   -8.8067 C   0  0  0  0  0  0  0  0  0  0  0  0
   22.4151   62.9774   -9.8365 O   0  0  0  0  0  0  0  0  0  0  0  0
   21.9151   63.3384  -11.0669 C   0  0  0  0  0  0  0  0  0  0  0  0
   20.5247   63.9704  -10.9379 C   0  0  0  0  0  0  0  0  0  0  0  0
   12.8353   64.1009  -14.3943 S   0  0  0  0  0  0  0  0  0  0  0  0
   12.7932   62.9720  -15.4112 O   0  0  0  0  0  0  0  0  0  0  0  0
   11.4880   64.1818  -13.7371 O   0  0  0  0  0  0  0  0  0  0  0  0
   13.2401   65.5780  -15.2205 C   0  0  0  0  0  0  0  0  0  0  0  0
   12.4173   66.6831  -15.0499 C   0  0  0  0  0  0  0  0  0  0  0  0
   12.6751   67.8846  -15.6720 C   0  0  0  0  0  0  0  0  0  0  0  0
   13.7731   68.0061  -16.4883 C   0  0  0  0  0  0  0  0  0  0  0  0
   14.6165   66.9288  -16.6841 C   0  0  0  0  0  0  0  0  0  0  0  0
   14.3285   65.7284  -16.0403 C   0  0  0  0  0  0  0  0  0  0  0  0
   14.1153   69.6756  -17.3412 Br  0  0  0  0  0  0  0  0  0  0  0  0
 20 21  2  0  0  0
 20 22  2  0  0  0
 20  1  1  0  0  0
 20 23  1  0  0  0
  1  2  1  0  0  0
  1  6  1  0  0  0
  2  3  1  0  0  0
  3  4  1  0  0  0
  4  5  1  0  0  0
  4  7  1  0  0  0
  5  6  1  0  0  0
  7  8  2  0  0  0
  7 12  1  0  0  0
  8  9  1  0  0  0
  9 10  2  0  0  0
  9 14  1  0  0  0
 10 11  1  0  0  0
 11 12  2  0  0  0
 11 13  1  0  0  0
 14 15  1  0  0  0
 14 19  1  0  0  0
 15 16  1  0  0  0
 16 17  1  0  0  0
 17 18  1  0  0  0
 18 19  1  0  0  0
 23 24  2  0  0  0
 23 28  1  0  0  0
 24 25  1  0  0  0
 25 26  2  0  0  0
 26 27  1  0  0  0
 26 29  1  0  0  0
 27 28  2  0  0  0
M  END
> <minimizedAffinity>
-7.91807

$$$$
1089


 25 28  0  0  0  0  0  0  0  0999 V2000
   22.0996   65.1024   -7.9311 N   0  0  0  0  0  0  0  0  0  0  0  0
   23.2288   65.8329   -7.5030 C   0  0  0  0  0  0  0  0  0  0  0  0
   23.7382   65.5140   -6.1193 C   0  0  0  0  0  0  0  0  0  0  0  0
   22.9222   64.5656   -5.4289 N   0  0  0  0  0  0  0  0  0  0  0  0
   21.4990   64.4101   -5.6729 C   0  0  0  0  0  0  0  0  0  0  0  0
   21.0774   65.0558   -6.9604 C   0  0  0  0  0  0  0  0  0  0  0  0
   23.4998   63.7119   -4.4505 C   0  0  0  0  0  0  0  0  0  0  0  0
   22.8372   63.4883   -3.2769 N   0  0  0  0  0  0  0  0  0  0  0  0
   23.3571   62.6844   -2.3488 C   0  0  0  0  0  0  0  0  0  0  0  0
   24.5270   62.0704   -2.5180 N   0  0  0  0  0  0  0  0  0  0  0  0
   25.1889   62.2750   -3.6548 C   0  0  0  0  0  0  0  0  0  0  0  0
   26.3611   61.8063   -4.0921 N   0  0  0  0  0  0  0  0  0  0  0  0
   26.5977   62.3246   -5.3298 C   0  0  0  0  0  0  0  0  0  0  0  0
   25.5854   63.1173   -5.6826 N   0  0  0  0  0  0  0  0  0  0  0  0
   24.7068   63.1031   -4.6700 C   0  0  0  0  0  0  0  0  0  0  0  0
   25.5174   63.6373   -6.5769 H   0  0  0  0  0  0  0  0  0  0  0  0
   22.3078   63.7964   -8.9526 S   0  0  0  0  0  0  0  0  0  0  0  0
   22.7922   62.6081   -8.1294 O   0  0  0  0  0  0  0  0  0  0  0  0
   23.3316   64.0211  -10.0049 O   0  0  0  0  0  0  0  0  0  0  0  0
   20.8346   63.2344   -9.7481 C   0  0  0  0  0  0  0  0  0  0  0  0
   19.3755   62.6863   -9.0590 S   0  0  0  0  0  0  0  0  0  0  0  0
   18.5027   62.3482  -10.4809 C   0  0  0  0  0  0  0  0  0  0  0  0
   19.3923   62.6799  -11.4742 C   0  0  0  0  0  0  0  0  0  0  0  0
   20.5899   63.1350  -11.0895 C   0  0  0  0  0  0  0  0  0  0  0  0
   16.7264   61.6752  -10.6751 Br  0  0  0  0  0  0  0  0  0  0  0  0
 17 18  2  0  0  0
 17 19  2  0  0  0
 17  1  1  0  0  0
 17 20  1  0  0  0
  1  2  1  0  0  0
  1  6  1  0  0  0
  2  3  1  0  0  0
  3  4  1  0  0  0
  4  5  1  0  0  0
  4  7  1  0  0  0
  5  6  1  0  0  0
  7  8  2  0  0  0
  7 15  1  0  0  0
  8  9  1  0  0  0
  9 10  2  0  0  0
 10 11  1  0  0  0
 11 12  1  0  0  0
 11 15  2  0  0  0
 12 13  2  0  0  0
 13 14  1  0  0  0
 14 15  1  0  0  0
 20 21  1  0  0  0
 20 24  2  0  0  0
 21 22  1  0  0  0
 22 23  2  0  0  0
 22 25  1  0  0  0
 23 24  1  0  0  0
 14 16  1  0  0  0
M  END
> <minimizedAffinity>
-7.70618

$$$$
1100


 26 29  0  0  0  0  0  0  0  0999 V2000
   21.3643   63.1227   -9.8841 N   0  0  0  0  0  0  0  0  0  0  0  0
   20.4382   63.6858   -8.9597 C   0  0  0  0  0  0  0  0  0  0  0  0
   19.1079   64.0326   -9.5940 C   0  0  0  0  0  0  0  0  0  0  0  0
   18.8451   63.0414  -10.6057 N   0  0  0  0  0  0  0  0  0  0  0  0
   19.7340   63.0489  -11.7397 C   0  0  0  0  0  0  0  0  0  0  0  0
   21.1106   63.3509  -11.2667 C   0  0  0  0  0  0  0  0  0  0  0  0
   17.7891   62.1047  -10.5218 C   0  0  0  0  0  0  0  0  0  0  0  0
   17.9739   60.8634  -10.0716 C   0  0  0  0  0  0  0  0  0  0  0  0
   16.9167   59.8741   -9.9695 C   0  0  0  0  0  0  0  0  0  0  0  0
   17.1585   58.6555   -9.5153 C   0  0  0  0  0  0  0  0  0  0  0  0
   15.6111   60.2355  -10.3672 N   0  0  0  0  0  0  0  0  0  0  0  0
   15.4490   61.5792  -10.8456 C   0  0  0  0  0  0  0  0  0  0  0  0
   16.4608   62.4575  -10.9207 N   0  0  0  0  0  0  0  0  0  0  0  0
   15.9991   63.6149  -11.4009 N   0  0  0  0  0  0  0  0  0  0  0  0
   14.6817   63.4979  -11.6427 C   0  0  0  0  0  0  0  0  0  0  0  0
   14.3549   62.2410  -11.2978 N   0  0  0  0  0  0  0  0  0  0  0  0
   14.7950   59.6095  -10.3339 H   0  0  0  0  0  0  0  0  0  0  0  0
   22.9559   63.5076   -9.4338 S   0  0  0  0  0  0  0  0  0  0  0  0
   23.5364   64.6374  -10.2445 O   0  0  0  0  0  0  0  0  0  0  0  0
   23.8264   62.2934   -9.7227 O   0  0  0  0  0  0  0  0  0  0  0  0
   23.1136   63.8243   -7.7071 C   0  0  0  0  0  0  0  0  0  0  0  0
   24.1586   63.0385   -6.6232 S   0  0  0  0  0  0  0  0  0  0  0  0
   23.7474   63.8635   -5.1926 C   0  0  0  0  0  0  0  0  0  0  0  0
   22.7870   64.7479   -5.6050 C   0  0  0  0  0  0  0  0  0  0  0  0
   22.4582   64.7255   -6.9188 C   0  0  0  0  0  0  0  0  0  0  0  0
   24.4397   63.6405   -3.4040 Br  0  0  0  0  0  0  0  0  0  0  0  0
 18 19  2  0  0  0
 18 20  2  0  0  0
 18  1  1  0  0  0
 18 21  1  0  0  0
  1  2  1  0  0  0
  1  6  1  0  0  0
  2  3  1  0  0  0
  3  4  1  0  0  0
  4  5  1  0  0  0
  4  7  1  0  0  0
  5  6  1  0  0  0
  7  8  2  0  0  0
  7 13  1  0  0  0
  8  9  1  0  0  0
  9 10  2  0  0  0
  9 11  1  0  0  0
 11 12  1  0  0  0
 12 13  1  0  0  0
 12 16  2  0  0  0
 13 14  1  0  0  0
 14 15  2  0  0  0
 15 16  1  0  0  0
 21 22  1  0  0  0
 21 25  2  0  0  0
 22 23  1  0  0  0
 23 24  2  0  0  0
 23 26  1  0  0  0
 24 25  1  0  0  0
 11 17  1  0  0  0
M  END
> <minimizedAffinity>
-8.76734

$$$$
1101


 26 29  0  0  0  0  0  0  0  0999 V2000
   20.8219   63.7551  -10.7169 N   0  0  0  0  0  0  0  0  0  0  0  0
   20.3561   64.7759   -9.8565 C   0  0  0  0  0  0  0  0  0  0  0  0
   20.8591   64.7351   -8.4567 C   0  0  0  0  0  0  0  0  0  0  0  0
   22.2925   64.4052   -8.4089 N   0  0  0  0  0  0  0  0  0  0  0  0
   22.9536   64.4049   -9.6965 C   0  0  0  0  0  0  0  0  0  0  0  0
   22.2077   63.4082  -10.5629 C   0  0  0  0  0  0  0  0  0  0  0  0
   22.9308   64.1191   -7.1801 C   0  0  0  0  0  0  0  0  0  0  0  0
   24.0132   63.2478   -7.1771 C   0  0  0  0  0  0  0  0  0  0  0  0
   24.6339   62.9731   -5.9602 C   0  0  0  0  0  0  0  0  0  0  0  0
   24.2164   63.5208   -4.8264 N   0  0  0  0  0  0  0  0  0  0  0  0
   25.0083   63.0658   -3.8419 C   0  0  0  0  0  0  0  0  0  0  0  0
   25.9095   62.2349   -4.4005 N   0  0  0  0  0  0  0  0  0  0  0  0
   25.6840   62.1746   -5.7016 N   0  0  0  0  0  0  0  0  0  0  0  0
   24.9134   63.4131   -2.3872 C   0  0  0  0  0  0  0  0  0  0  0  0
   23.2025   64.3400   -4.8148 N   0  0  0  0  0  0  0  0  0  0  0  0
   22.5611   64.6416   -5.9741 C   0  0  0  0  0  0  0  0  0  0  0  0
   19.8019   62.4023  -10.8768 S   0  0  0  0  0  0  0  0  0  0  0  0
   19.9837   61.5464   -9.6293 O   0  0  0  0  0  0  0  0  0  0  0  0
   20.2276   61.5469  -12.0327 O   0  0  0  0  0  0  0  0  0  0  0  0
   18.1100   62.8150  -10.9485 C   0  0  0  0  0  0  0  0  0  0  0  0
   17.6809   64.0733  -11.3483 C   0  0  0  0  0  0  0  0  0  0  0  0
   16.3437   64.3982  -11.4041 C   0  0  0  0  0  0  0  0  0  0  0  0
   15.4101   63.4374  -11.0502 C   0  0  0  0  0  0  0  0  0  0  0  0
   15.7868   62.1711  -10.6469 C   0  0  0  0  0  0  0  0  0  0  0  0
   17.1323   61.8880  -10.6048 C   0  0  0  0  0  0  0  0  0  0  0  0
   13.5543   63.9061  -11.1338 Br  0  0  0  0  0  0  0  0  0  0  0  0
 17 18  2  0  0  0
 17 19  2  0  0  0
 17  1  1  0  0  0
 17 20  1  0  0  0
  1  2  1  0  0  0
  1  6  1  0  0  0
  2  3  1  0  0  0
  3  4  1  0  0  0
  4  5  1  0  0  0
  4  7  1  0  0  0
  5  6  1  0  0  0
  7  8  2  0  0  0
  7 16  1  0  0  0
  8  9  1  0  0  0
  9 10  1  0  0  0
  9 13  2  0  0  0
 10 11  1  0  0  0
 10 15  1  0  0  0
 11 12  2  0  0  0
 11 14  1  0  0  0
 12 13  1  0  0  0
 15 16  2  0  0  0
 20 21  2  0  0  0
 20 25  1  0  0  0
 21 22  1  0  0  0
 22 23  2  0  0  0
 23 24  1  0  0  0
 23 26  1  0  0  0
 24 25  2  0  0  0
M  END
> <minimizedAffinity>
-8.66550

$$$$
1105


 33 36  0  0  0  0  0  0  0  0999 V2000
   20.1728   62.5606  -10.3401 N   0  0  0  0  0  0  0  0  0  0  0  0
   19.4091   61.4265   -9.9412 C   0  0  0  0  0  0  0  0  0  0  0  0
   18.1535   61.7503   -9.1640 C   0  0  0  0  0  0  0  0  0  0  0  0
   17.4183   62.8470   -9.7988 N   0  0  0  0  0  0  0  0  0  0  0  0
   18.2653   63.9623  -10.1583 C   0  0  0  0  0  0  0  0  0  0  0  0
   17.8356   64.9608  -10.7412 O   0  0  0  0  0  0  0  0  0  0  0  0
   19.6917   63.7513   -9.7422 C   0  0  0  0  0  0  0  0  0  0  0  0
   16.4157   62.8589   -9.9834 H   0  0  0  0  0  0  0  0  0  0  0  0
   20.3369   62.5868  -12.0312 S   0  0  0  0  0  0  0  0  0  0  0  0
   19.4322   63.5578  -12.7209 O   0  0  0  0  0  0  0  0  0  0  0  0
   20.0190   61.2195  -12.6243 O   0  0  0  0  0  0  0  0  0  0  0  0
   21.9863   62.9373  -12.5168 C   0  0  0  0  0  0  0  0  0  0  0  0
   23.0407   62.9628  -11.6122 C   0  0  0  0  0  0  0  0  0  0  0  0
   24.3316   63.2370  -11.9664 C   0  0  0  0  0  0  0  0  0  0  0  0
   24.6434   63.5047  -13.2739 C   0  0  0  0  0  0  0  0  0  0  0  0
   23.6066   63.4873  -14.2147 C   0  0  0  0  0  0  0  0  0  0  0  0
   22.3196   63.2085  -13.8228 C   0  0  0  0  0  0  0  0  0  0  0  0
   26.4214   63.8922  -13.8292 Br  0  0  0  0  0  0  0  0  0  0  0  0
   20.5160   64.9700   -9.8746 C   0  0  0  0  0  0  0  0  0  0  0  0
   20.8631   65.4836   -8.5280 C   0  0  0  0  0  0  0  0  0  0  0  0
   20.3013   66.5531   -8.1704 O   0  0  0  0  0  0  0  0  0  0  0  0
   21.7868   64.8051   -7.6754 N   0  0  0  0  0  0  0  0  0  0  0  0
   22.4215   63.5857   -8.0952 C   0  0  0  0  0  0  0  0  0  0  0  0
   23.7822   63.3698   -7.5098 C   0  0  0  0  0  0  0  0  0  0  0  0
   23.9498   63.9348   -6.1820 N   0  0  0  0  0  0  0  0  0  0  0  0
   23.5578   65.3316   -6.0695 C   0  0  0  0  0  0  0  0  0  0  0  0
   22.0763   65.3614   -6.3797 C   0  0  0  0  0  0  0  0  0  0  0  0
   24.4556   63.2545   -5.0662 C   0  0  0  0  0  0  0  0  0  0  0  0
   25.5997   62.4988   -5.1956 C   0  0  0  0  0  0  0  0  0  0  0  0
   26.0898   61.8156   -4.0933 C   0  0  0  0  0  0  0  0  0  0  0  0
   25.4809   61.8562   -2.8636 C   0  0  0  0  0  0  0  0  0  0  0  0
   24.3386   62.6128   -2.7393 C   0  0  0  0  0  0  0  0  0  0  0  0
   23.8421   63.2990   -3.8379 C   0  0  0  0  0  0  0  0  0  0  0  0
  9 10  2  0  0  0
  9 11  2  0  0  0
  9  1  1  0  0  0
  9 12  1  0  0  0
  1  2  1  0  0  0
  1  7  1  0  0  0
  2  3  1  0  0  0
  3  4  1  0  0  0
  4  5  1  0  0  0
  5  6  2  0  0  0
  5  7  1  0  0  0
  7 19  1  0  0  0
 19 20  1  0  0  0
 20 21  2  0  0  0
 20 22  1  0  0  0
 22 23  1  0  0  0
 22 27  1  0  0  0
 23 24  1  0  0  0
 24 25  1  0  0  0
 25 26  1  0  0  0
 25 28  1  0  0  0
 26 27  1  0  0  0
 28 29  2  0  0  0
 28 33  1  0  0  0
 29 30  1  0  0  0
 30 31  2  0  0  0
 31 32  1  0  0  0
 32 33  2  0  0  0
 12 13  2  0  0  0
 12 17  1  0  0  0
 13 14  1  0  0  0
 14 15  2  0  0  0
 15 16  1  0  0  0
 15 18  1  0  0  0
 16 17  2  0  0  0
  4  8  1  0  0  0
M  END
> <minimizedAffinity>
-5.25077

$$$$
1112


 32 35  0  0  0  0  0  0  0  0999 V2000
   19.8015   63.1463  -10.9943 C   0  0  0  0  0  0  0  0  0  0  0  0
   22.5195   63.9994   -7.7787 C   0  0  0  0  0  0  0  0  0  0  0  0
   21.1718   64.0053   -7.5625 C   0  0  0  0  0  0  0  0  0  0  0  0
   20.2693   63.7314   -8.5859 C   0  0  0  0  0  0  0  0  0  0  0  0
   20.6947   63.4452   -9.8487 C   0  0  0  0  0  0  0  0  0  0  0  0
   22.0598   63.4366  -10.0762 C   0  0  0  0  0  0  0  0  0  0  0  0
   22.9550   63.7084   -9.0579 C   0  0  0  0  0  0  0  0  0  0  0  0
   23.6876   64.3403   -6.5107 S   0  0  0  0  0  0  0  0  0  0  0  0
   24.9644   64.8657   -7.0709 O   0  0  0  0  0  0  0  0  0  0  0  0
   23.0837   65.4417   -5.6631 O   0  0  0  0  0  0  0  0  0  0  0  0
   23.9507   62.9959   -5.4906 N   0  0  0  0  0  0  0  0  0  0  0  0
   23.8942   63.3252   -4.0906 C   0  0  0  0  0  0  0  0  0  0  0  0
   24.6056   62.1911   -3.3469 C   0  0  0  0  0  0  0  0  0  0  0  0
   25.9700   62.2838   -3.5165 O   0  0  0  0  0  0  0  0  0  0  0  0
   26.2352   62.9685   -4.7159 C   0  0  0  0  0  0  0  0  0  0  0  0
   25.2604   62.4282   -5.7515 C   0  0  0  0  0  0  0  0  0  0  0  0
   19.3510   61.8099  -10.9845 O   0  0  0  0  0  0  0  0  0  0  0  0
   18.4568   61.2858  -10.0833 C   0  0  0  0  0  0  0  0  0  0  0  0
   18.5361   60.0798   -9.7773 O   0  0  0  0  0  0  0  0  0  0  0  0
   17.4187   62.1194   -9.4826 C   0  0  0  0  0  0  0  0  0  0  0  0
   16.3363   62.4232  -10.3718 N   0  0  0  0  0  0  0  0  0  0  0  0
   16.0999   63.7360  -10.8962 C   0  0  0  0  0  0  0  0  0  0  0  0
   16.7922   64.7653  -10.6524 O   0  0  0  0  0  0  0  0  0  0  0  0
   14.9277   63.6991  -11.7627 C   0  0  0  0  0  0  0  0  0  0  0  0
   14.4403   62.4186  -11.7863 C   0  0  0  0  0  0  0  0  0  0  0  0
   13.3234   62.1063  -12.5377 C   0  0  0  0  0  0  0  0  0  0  0  0
   12.6736   63.0737  -13.2804 C   0  0  0  0  0  0  0  0  0  0  0  0
   13.1527   64.3668  -13.2655 C   0  0  0  0  0  0  0  0  0  0  0  0
   14.2689   64.6512  -12.5062 C   0  0  0  0  0  0  0  0  0  0  0  0
   12.2897   65.7361  -14.2727 Br  0  0  0  0  0  0  0  0  0  0  0  0
   15.3138   61.6084  -10.9195 C   0  0  0  0  0  0  0  0  0  0  0  0
   15.1976   60.3857  -10.6826 O   0  0  0  0  0  0  0  0  0  0  0  0
  8  9  2  0  0  0
  8 10  2  0  0  0
  8 11  1  0  0  0
  8  2  1  0  0  0
 11 12  1  0  0  0
 11 16  1  0  0  0
 12 13  1  0  0  0
 13 14  1  0  0  0
 14 15  1  0  0  0
 15 16  1  0  0  0
  2  3  2  0  0  0
  2  7  1  0  0  0
  3  4  1  0  0  0
  4  5  2  0  0  0
  5  6  1  0  0  0
  5  1  1  0  0  0
  6  7  2  0  0  0
  1 17  1  0  0  0
 17 18  1  0  0  0
 18 19  2  0  0  0
 18 20  1  0  0  0
 20 21  1  0  0  0
 21 22  1  0  0  0
 21 31  1  0  0  0
 22 23  2  0  0  0
 22 24  1  0  0  0
 24 25  2  0  0  0
 24 29  1  0  0  0
 25 26  1  0  0  0
 25 31  1  0  0  0
 26 27  2  0  0  0
 27 28  1  0  0  0
 28 29  2  0  0  0
 28 30  1  0  0  0
 31 32  2  0  0  0
M  END
> <minimizedAffinity>
-9.40865

$$$$
1113


 28 31  0  0  0  0  0  0  0  0999 V2000
   22.6321   64.2144   -7.7224 C   0  0  0  0  0  0  0  0  0  0  0  0
   23.5581   64.4539   -8.6659 N   0  0  0  0  0  0  0  0  0  0  0  0
   23.0781   64.0418   -9.8668 C   0  0  0  0  0  0  0  0  0  0  0  0
   21.8438   63.5367   -9.7003 N   0  0  0  0  0  0  0  0  0  0  0  0
   21.5605   63.6349   -8.4098 C   0  0  0  0  0  0  0  0  0  0  0  0
   22.7302   64.5483   -6.0090 S   0  0  0  0  0  0  0  0  0  0  0  0
   23.2058   65.9860   -5.8431 O   0  0  0  0  0  0  0  0  0  0  0  0
   21.3377   64.5235   -5.4108 O   0  0  0  0  0  0  0  0  0  0  0  0
   23.7743   63.5466   -5.1642 N   0  0  0  0  0  0  0  0  0  0  0  0
   24.7802   62.8745   -5.8749 C   0  0  0  0  0  0  0  0  0  0  0  0
   26.0957   62.9585   -5.1587 C   0  0  0  0  0  0  0  0  0  0  0  0
   25.9165   62.4347   -3.8903 O   0  0  0  0  0  0  0  0  0  0  0  0
   25.0823   63.2176   -3.1023 C   0  0  0  0  0  0  0  0  0  0  0  0
   23.8299   63.6372   -3.7698 C   0  0  0  0  0  0  0  0  0  0  0  0
   21.0189   63.0007  -10.7637 C   0  0  0  0  0  0  0  0  0  0  0  0
   19.5856   62.9811  -10.3867 C   0  0  0  0  0  0  0  0  0  0  0  0
   18.8990   61.8806   -9.9814 N   0  0  0  0  0  0  0  0  0  0  0  0
   17.6750   62.2372   -9.7353 O   0  0  0  0  0  0  0  0  0  0  0  0
   17.4970   63.5157   -9.9524 C   0  0  0  0  0  0  0  0  0  0  0  0
   18.7038   63.9822  -10.3632 N   0  0  0  0  0  0  0  0  0  0  0  0
   16.2472   64.3190   -9.7920 C   0  0  0  0  0  0  0  0  0  0  0  0
   15.2844   63.8249  -10.8154 C   0  0  0  0  0  0  0  0  0  0  0  0
   14.8109   64.7206  -11.7612 C   0  0  0  0  0  0  0  0  0  0  0  0
   13.9238   64.3543  -12.7389 C   0  0  0  0  0  0  0  0  0  0  0  0
   13.4983   63.0541  -12.7723 C   0  0  0  0  0  0  0  0  0  0  0  0
   13.9327   62.1371  -11.8663 C   0  0  0  0  0  0  0  0  0  0  0  0
   14.8342   62.5372  -10.8837 C   0  0  0  0  0  0  0  0  0  0  0  0
   12.2628   62.5067  -14.1190 Br  0  0  0  0  0  0  0  0  0  0  0  0
  6  7  2  0  0  0
  6  8  2  0  0  0
  6  9  1  0  0  0
  6  1  1  0  0  0
  9 10  1  0  0  0
  9 14  1  0  0  0
 10 11  1  0  0  0
 11 12  1  0  0  0
 12 13  1  0  0  0
 13 14  1  0  0  0
  1  2  1  0  0  0
  1  5  2  0  0  0
  2  3  2  0  0  0
  3  4  1  0  0  0
  4  5  1  0  0  0
  4 15  1  0  0  0
 15 16  1  0  0  0
 16 17  2  0  0  0
 16 20  1  0  0  0
 17 18  1  0  0  0
 18 19  1  0  0  0
 19 20  2  0  0  0
 19 21  1  0  0  0
 21 22  1  0  0  0
 22 23  2  0  0  0
 22 27  1  0  0  0
 23 24  1  0  0  0
 24 25  2  0  0  0
 25 26  1  0  0  0
 25 28  1  0  0  0
 26 27  2  0  0  0
M  END
> <minimizedAffinity>
-9.66824

$$$$
1114


 27 30  0  0  0  0  0  0  0  0999 V2000
   23.0301   63.9755   -7.4659 C   0  0  0  0  0  0  0  0  0  0  0  0
   23.9279   63.3139   -8.2170 N   0  0  0  0  0  0  0  0  0  0  0  0
   23.4313   63.1835   -9.4611 C   0  0  0  0  0  0  0  0  0  0  0  0
   22.2177   63.7484   -9.5416 N   0  0  0  0  0  0  0  0  0  0  0  0
   21.9688   64.2363   -8.3157 C   0  0  0  0  0  0  0  0  0  0  0  0
   23.1768   64.4168   -5.7601 S   0  0  0  0  0  0  0  0  0  0  0  0
   23.8244   65.7747   -5.7066 O   0  0  0  0  0  0  0  0  0  0  0  0
   21.8303   64.5375   -5.1227 O   0  0  0  0  0  0  0  0  0  0  0  0
   24.1712   63.3078   -4.9200 N   0  0  0  0  0  0  0  0  0  0  0  0
   24.2494   63.5286   -3.5240 C   0  0  0  0  0  0  0  0  0  0  0  0
   25.5653   63.2540   -2.8740 C   0  0  0  0  0  0  0  0  0  0  0  0
   26.1384   62.1484   -3.5439 O   0  0  0  0  0  0  0  0  0  0  0  0
   26.5587   62.6688   -4.7716 C   0  0  0  0  0  0  0  0  0  0  0  0
   25.3613   62.9574   -5.6053 C   0  0  0  0  0  0  0  0  0  0  0  0
   21.3658   63.8131  -10.7114 C   0  0  0  0  0  0  0  0  0  0  0  0
   20.0706   63.1228  -10.5142 C   0  0  0  0  0  0  0  0  0  0  0  0
   19.8917   62.0357   -9.7403 N   0  0  0  0  0  0  0  0  0  0  0  0
   18.6408   61.6907   -9.7939 O   0  0  0  0  0  0  0  0  0  0  0  0
   17.9676   62.4962  -10.5691 C   0  0  0  0  0  0  0  0  0  0  0  0
   18.8584   63.3935  -11.0213 N   0  0  0  0  0  0  0  0  0  0  0  0
   16.5349   62.3994  -10.8533 C   0  0  0  0  0  0  0  0  0  0  0  0
   15.8313   63.4389  -11.4246 C   0  0  0  0  0  0  0  0  0  0  0  0
   14.4679   63.3316  -11.6894 C   0  0  0  0  0  0  0  0  0  0  0  0
   13.7753   62.1800  -11.3895 C   0  0  0  0  0  0  0  0  0  0  0  0
   14.4756   61.1394  -10.8188 C   0  0  0  0  0  0  0  0  0  0  0  0
   15.8429   61.2500  -10.5537 C   0  0  0  0  0  0  0  0  0  0  0  0
   13.5113   64.7853  -12.4818 Br  0  0  0  0  0  0  0  0  0  0  0  0
  6  7  2  0  0  0
  6  8  2  0  0  0
  6  9  1  0  0  0
  6  1  1  0  0  0
  9 10  1  0  0  0
  9 14  1  0  0  0
 10 11  1  0  0  0
 11 12  1  0  0  0
 12 13  1  0  0  0
 13 14  1  0  0  0
  1  2  1  0  0  0
  1  5  2  0  0  0
  2  3  2  0  0  0
  3  4  1  0  0  0
  4  5  1  0  0  0
  4 15  1  0  0  0
 15 16  1  0  0  0
 16 17  2  0  0  0
 16 20  1  0  0  0
 17 18  1  0  0  0
 18 19  1  0  0  0
 19 20  2  0  0  0
 19 21  1  0  0  0
 21 22  2  0  0  0
 21 26  1  0  0  0
 22 23  1  0  0  0
 23 24  2  0  0  0
 23 27  1  0  0  0
 24 25  1  0  0  0
 25 26  2  0  0  0
M  END
> <minimizedAffinity>
-9.34424

$$$$
1130


 29 32  0  0  0  0  0  0  0  0999 V2000
   20.7881   63.2840   -9.1521 C   0  0  0  0  0  0  0  0  0  0  0  0
   20.1895   64.3728   -9.6647 N   0  0  0  0  0  0  0  0  0  0  0  0
   18.9647   64.3714  -10.1658 N   0  0  0  0  0  0  0  0  0  0  0  0
   18.2267   63.2412  -10.1912 C   0  0  0  0  0  0  0  0  0  0  0  0
   18.8209   62.1097   -9.6706 C   0  0  0  0  0  0  0  0  0  0  0  0
   17.9082   61.1263   -9.8026 N   0  0  0  0  0  0  0  0  0  0  0  0
   16.7827   61.5833  -10.3748 C   0  0  0  0  0  0  0  0  0  0  0  0
   16.9537   62.9258  -10.6355 C   0  0  0  0  0  0  0  0  0  0  0  0
   15.9716   63.7056  -11.2275 C   0  0  0  0  0  0  0  0  0  0  0  0
   14.7857   63.0734  -11.5574 C   0  0  0  0  0  0  0  0  0  0  0  0
   14.5890   61.7304  -11.3089 C   0  0  0  0  0  0  0  0  0  0  0  0
   15.5758   60.9768  -10.7205 C   0  0  0  0  0  0  0  0  0  0  0  0
   13.4312   64.1488  -12.3749 Br  0  0  0  0  0  0  0  0  0  0  0  0
   18.1474   59.7632   -9.3709 C   0  0  0  0  0  0  0  0  0  0  0  0
   20.0875   62.1372   -9.1592 N   0  0  0  0  0  0  0  0  0  0  0  0
   22.4636   63.3638   -8.4856 S   0  0  0  0  0  0  0  0  0  0  0  0
   22.5142   64.6887   -7.2492 C   0  0  0  0  0  0  0  0  0  0  0  0
   23.4135   64.2630   -6.1381 C   0  0  0  0  0  0  0  0  0  0  0  0
   23.5651   64.9904   -5.1056 O   0  0  0  0  0  0  0  0  0  0  0  0
   24.1258   63.0469   -6.1889 N   0  0  0  0  0  0  0  0  0  0  0  0
   24.0122   62.4403   -7.0291 H   0  0  0  0  0  0  0  0  0  0  0  0
   24.9782   62.6436   -5.1328 C   0  0  0  0  0  0  0  0  0  0  0  0
   26.3172   62.5362   -5.1432 N   0  0  0  0  0  0  0  0  0  0  0  0
   26.7506   62.1338   -3.9803 O   0  0  0  0  0  0  0  0  0  0  0  0
   25.7247   61.9773   -3.2149 N   0  0  0  0  0  0  0  0  0  0  0  0
   24.5844   62.2716   -3.8522 C   0  0  0  0  0  0  0  0  0  0  0  0
   23.2809   62.2090   -3.3139 N   0  0  0  0  0  0  0  0  0  0  0  0
   22.5608   62.8773   -3.6464 H   0  0  0  0  0  0  0  0  0  0  0  0
   23.0047   61.5148   -2.5903 H   0  0  0  0  0  0  0  0  0  0  0  0
 16 17  1  0  0  0
 16  1  1  0  0  0
 17 18  1  0  0  0
 18 19  2  0  0  0
 18 20  1  0  0  0
 20 22  1  0  0  0
 22 23  2  0  0  0
 22 26  1  0  0  0
 23 24  1  0  0  0
 24 25  1  0  0  0
 25 26  2  0  0  0
 26 27  1  0  0  0
  1  2  2  0  0  0
  1 15  1  0  0  0
  2  3  1  0  0  0
  3  4  2  0  0  0
  4  5  1  0  0  0
  4  8  1  0  0  0
  5  6  1  0  0  0
  5 15  2  0  0  0
  6  7  1  0  0  0
  6 14  1  0  0  0
  7  8  2  0  0  0
  7 12  1  0  0  0
  8  9  1  0  0  0
  9 10  2  0  0  0
 10 11  1  0  0  0
 10 13  1  0  0  0
 11 12  2  0  0  0
 20 21  1  0  0  0
 27 28  1  0  0  0
 27 29  1  0  0  0
M  END
> <minimizedAffinity>
-10.78857

$$$$
1133


 35 38  0  0  0  0  0  0  0  0999 V2000
   22.4398   63.6508  -10.4636 C   0  0  0  0  0  0  0  0  0  0  0  0
   21.2556   63.5625   -9.8580 N   0  0  0  0  0  0  0  0  0  0  0  0
   21.4612   63.8691   -8.5497 C   0  0  0  0  0  0  0  0  0  0  0  0
   20.7426   63.9013   -7.4168 N   0  0  0  0  0  0  0  0  0  0  0  0
   21.2140   64.1827   -6.1975 C   0  0  0  0  0  0  0  0  0  0  0  0
   22.5652   64.4800   -6.0809 N   0  0  0  0  0  0  0  0  0  0  0  0
   23.3454   64.4719   -7.1328 C   0  0  0  0  0  0  0  0  0  0  0  0
   22.8402   64.1705   -8.3814 C   0  0  0  0  0  0  0  0  0  0  0  0
   23.3828   64.0153   -9.5827 N   0  0  0  0  0  0  0  0  0  0  0  0
   24.6844   64.7670   -7.0746 O   0  0  0  0  0  0  0  0  0  0  0  0
   20.4389   64.1641   -4.9892 N   0  0  0  0  0  0  0  0  0  0  0  0
   25.0970   65.5964   -7.4862 H   0  0  0  0  0  0  0  0  0  0  0  0
   20.1511   64.9664   -4.4331 H   0  0  0  0  0  0  0  0  0  0  0  0
   20.1626   63.1932   -4.6079 H   0  0  0  0  0  0  0  0  0  0  0  0
   19.9618   63.2622  -10.3808 C   0  0  0  0  0  0  0  0  0  0  0  0
   18.9504   64.1533   -9.9591 O   0  0  0  0  0  0  0  0  0  0  0  0
   17.8260   63.4783  -10.4874 C   0  0  0  0  0  0  0  0  0  0  0  0
   18.0123   62.1399   -9.7259 C   0  0  0  0  0  0  0  0  0  0  0  0
   19.4577   61.8717  -10.1652 C   0  0  0  0  0  0  0  0  0  0  0  0
   19.3811   61.1556  -11.3874 O   0  0  0  0  0  0  0  0  0  0  0  0
   17.1369   61.1733  -10.1406 O   0  0  0  0  0  0  0  0  0  0  0  0
   19.2127   60.2274  -11.1107 H   0  0  0  0  0  0  0  0  0  0  0  0
   16.7987   60.6641   -9.3655 H   0  0  0  0  0  0  0  0  0  0  0  0
   16.5507   64.1488  -10.1436 C   0  0  0  0  0  0  0  0  0  0  0  0
   15.4726   63.5154  -10.7740 O   0  0  0  0  0  0  0  0  0  0  0  0
   15.8603   62.8475  -11.4189 H   0  0  0  0  0  0  0  0  0  0  0  0
   22.7817   63.2512  -12.1829 S   0  0  0  0  0  0  0  0  0  0  0  0
   24.4895   63.7840  -12.6393 C   0  0  0  0  0  0  0  0  0  0  0  0
   24.7085   63.5583  -14.0861 C   0  0  0  0  0  0  0  0  0  0  0  0
   25.9376   63.3395  -14.6583 C   0  0  0  0  0  0  0  0  0  0  0  0
   26.1101   63.2733  -15.9973 C   0  0  0  0  0  0  0  0  0  0  0  0
   25.0423   63.4162  -16.8757 C   0  0  0  0  0  0  0  0  0  0  0  0
   23.7731   63.6439  -16.3254 C   0  0  0  0  0  0  0  0  0  0  0  0
   23.6115   63.7128  -14.9553 C   0  0  0  0  0  0  0  0  0  0  0  0
   27.3723   62.9969  -13.4408 Br  0  0  0  0  0  0  0  0  0  0  0  0
 27 28  1  0  0  0
 27  1  1  0  0  0
 28 29  1  0  0  0
 29 30  2  0  0  0
 29 34  1  0  0  0
 30 31  1  0  0  0
 30 35  1  0  0  0
 31 32  2  0  0  0
 32 33  1  0  0  0
 33 34  2  0  0  0
  1  2  1  0  0  0
  1  9  2  0  0  0
  2  3  1  0  0  0
  2 15  1  0  0  0
  3  4  2  0  0  0
  3  8  1  0  0  0
  4  5  1  0  0  0
  5  6  2  0  0  0
  5 11  1  0  0  0
  6  7  1  0  0  0
  7  8  2  0  0  0
  7 10  1  0  0  0
  8  9  1  0  0  0
 15 16  1  0  0  0
 15 19  1  0  0  0
 16 17  1  0  0  0
 17 18  1  0  0  0
 17 24  1  0  0  0
 18 19  1  0  0  0
 18 21  1  0  0  0
 19 20  1  0  0  0
 24 25  1  0  0  0
 10 12  1  0  0  0
 11 13  1  0  0  0
 11 14  1  0  0  0
 20 22  1  0  0  0
 21 23  1  0  0  0
 25 26  1  0  0  0
M  END
> <minimizedAffinity>
-10.27536

$$$$
1143


 33 37  0  0  0  0  0  0  0  0999 V2000
    9.7318   62.1784  -15.4890 C   0  0  0  0  0  0  0  0  0  0  0  0
    8.3585   62.6510  -15.5982 N   0  0  0  0  0  0  0  0  0  0  0  0
    7.6294   62.3507  -14.3780 C   0  0  0  0  0  0  0  0  0  0  0  0
    8.3294   61.3775  -13.4657 C   0  0  0  0  0  0  0  0  0  0  0  0
    8.9117   60.2781  -14.3153 C   0  0  0  0  0  0  0  0  0  0  0  0
    9.6573   60.7290  -15.4307 C   0  0  0  0  0  0  0  0  0  0  0  0
   10.2090   59.8120  -16.2815 C   0  0  0  0  0  0  0  0  0  0  0  0
   10.0092   58.4623  -16.0007 C   0  0  0  0  0  0  0  0  0  0  0  0
    9.2824   58.0488  -14.9093 C   0  0  0  0  0  0  0  0  0  0  0  0
    8.7168   58.9637  -14.0408 C   0  0  0  0  0  0  0  0  0  0  0  0
    9.2612   56.6693  -14.8972 O   0  0  0  0  0  0  0  0  0  0  0  0
    9.7300   56.2005  -16.1376 C   0  0  0  0  0  0  0  0  0  0  0  0
   10.4282   57.3342  -16.6523 O   0  0  0  0  0  0  0  0  0  0  0  0
    7.6302   62.1235  -16.7002 C   0  0  0  0  0  0  0  0  0  0  0  0
    8.4061   63.6877  -15.6860 H   0  0  0  0  0  0  0  0  0  0  0  0
   10.6699   65.9413  -12.8645 S   0  0  0  0  0  0  0  0  0  0  0  0
   10.8213   64.9621  -14.3508 C   0  0  0  0  0  0  0  0  0  0  0  0
    9.9804   65.0408  -15.3171 N   0  0  0  0  0  0  0  0  0  0  0  0
   10.0366   64.2978  -16.5234 C   0  0  0  0  0  0  0  0  0  0  0  0
    9.6368   64.7124  -17.6146 O   0  0  0  0  0  0  0  0  0  0  0  0
   10.6544   62.8917  -16.3623 C   0  0  0  0  0  0  0  0  0  0  0  0
   11.9662   63.2557  -15.7457 C   0  0  0  0  0  0  0  0  0  0  0  0
   13.0816   62.9605  -16.1788 O   0  0  0  0  0  0  0  0  0  0  0  0
   11.8971   64.0159  -14.5485 N   0  0  0  0  0  0  0  0  0  0  0  0
   12.8792   63.8436  -13.5685 C   0  0  0  0  0  0  0  0  0  0  0  0
   13.7652   64.9050  -13.3463 C   0  0  0  0  0  0  0  0  0  0  0  0
   14.7592   64.8097  -12.3965 C   0  0  0  0  0  0  0  0  0  0  0  0
   14.8796   63.6404  -11.6520 C   0  0  0  0  0  0  0  0  0  0  0  0
   13.9882   62.5843  -11.8811 C   0  0  0  0  0  0  0  0  0  0  0  0
   13.0028   62.6978  -12.8328 C   0  0  0  0  0  0  0  0  0  0  0  0
   16.2269   63.4691  -10.3416 Br  0  0  0  0  0  0  0  0  0  0  0  0
   10.9419   60.1979  -17.3951 O   0  0  0  0  0  0  0  0  0  0  0  0
   12.3202   59.8488  -17.4642 C   0  0  0  0  0  0  0  0  0  0  0  0
 16 17  1  0  0  0
 17 18  2  0  0  0
 17 24  1  0  0  0
 18 19  1  0  0  0
 19 20  2  0  0  0
 19 21  1  0  0  0
 21 22  1  0  0  0
 21  1  1  0  0  0
 22 23  2  0  0  0
 22 24  1  0  0  0
 24 25  1  0  0  0
 25 26  2  0  0  0
 25 30  1  0  0  0
 26 27  1  0  0  0
 27 28  2  0  0  0
 28 29  1  0  0  0
 28 31  1  0  0  0
 29 30  2  0  0  0
  1  2  1  0  0  0
  1  6  1  0  0  0
  2  3  1  0  0  0
  2 14  1  0  0  0
  3  4  1  0  0  0
  4  5  1  0  0  0
  5  6  2  0  0  0
  5 10  1  0  0  0
  6  7  1  0  0  0
  7  8  2  0  0  0
  7 32  1  0  0  0
  8  9  1  0  0  0
  8 13  1  0  0  0
  9 10  2  0  0  0
  9 11  1  0  0  0
 11 12  1  0  0  0
 12 13  1  0  0  0
 32 33  1  0  0  0
  2 15  1  0  0  0
M  CHG 1   2   1
M  END
> <minimizedAffinity>
-4.69271

$$$$
1151


 24 27  0  0  0  0  0  0  0  0999 V2000
   22.8927   64.9688   -6.4253 S   0  0  0  0  0  0  0  0  0  0  0  0
   23.1235   66.4128   -6.0864 O   0  0  0  0  0  0  0  0  0  0  0  0
   23.2529   64.0626   -5.2811 O   0  0  0  0  0  0  0  0  0  0  0  0
   21.2081   64.6802   -6.9220 C   0  0  0  0  0  0  0  0  0  0  0  0
   21.2433   63.4600   -7.8190 C   0  0  0  0  0  0  0  0  0  0  0  0
   21.8893   63.8172   -9.0659 N   0  0  0  0  0  0  0  0  0  0  0  0
   23.0118   64.7318   -9.0786 C   0  0  0  0  0  0  0  0  0  0  0  0
   23.8869   64.4925   -7.8465 C   0  0  0  0  0  0  0  0  0  0  0  0
   21.1794   63.1034  -10.0699 C   0  0  0  0  0  0  0  0  0  0  0  0
   21.5596   62.9277  -11.2769 O   0  0  0  0  0  0  0  0  0  0  0  0
   19.9588   62.5897   -9.5535 N   0  0  0  0  0  0  0  0  0  0  0  0
   19.9043   62.9945   -8.1937 C   0  0  0  0  0  0  0  0  0  0  0  0
   18.8959   62.9668   -7.4282 O   0  0  0  0  0  0  0  0  0  0  0  0
   18.9492   61.8065  -10.2499 C   0  0  0  0  0  0  0  0  0  0  0  0
   18.4733   60.6419   -9.3991 C   0  0  0  0  0  0  0  0  0  0  0  0
   17.4991   59.8530  -10.2766 C   0  0  0  0  0  0  0  0  0  0  0  0
   16.3780   60.6958  -10.4731 O   0  0  0  0  0  0  0  0  0  0  0  0
   16.5417   62.0648  -10.6527 C   0  0  0  0  0  0  0  0  0  0  0  0
   17.7741   62.6450  -10.5522 C   0  0  0  0  0  0  0  0  0  0  0  0
   17.9356   63.9911  -10.7285 C   0  0  0  0  0  0  0  0  0  0  0  0
   16.8294   64.7565  -11.0093 C   0  0  0  0  0  0  0  0  0  0  0  0
   15.5979   64.1599  -11.1076 C   0  0  0  0  0  0  0  0  0  0  0  0
   15.4014   62.8017  -10.9342 C   0  0  0  0  0  0  0  0  0  0  0  0
   13.6894   61.9876  -11.0728 Br  0  0  0  0  0  0  0  0  0  0  0  0
  1  2  2  0  0  0
  1  3  2  0  0  0
  1  4  1  0  0  0
  1  8  1  0  0  0
  4  5  1  0  0  0
  5  6  1  0  0  0
  5 12  1  0  0  0
  6  7  1  0  0  0
  6  9  1  0  0  0
  7  8  1  0  0  0
  9 10  2  0  0  0
  9 11  1  0  0  0
 11 12  1  0  0  0
 11 14  1  0  0  0
 12 13  2  0  0  0
 14 15  1  0  0  0
 14 19  1  0  0  0
 15 16  1  0  0  0
 16 17  1  0  0  0
 17 18  1  0  0  0
 18 19  2  0  0  0
 18 23  1  0  0  0
 19 20  1  0  0  0
 20 21  2  0  0  0
 21 22  1  0  0  0
 22 23  2  0  0  0
 23 24  1  0  0  0
M  END
> <minimizedAffinity>
-6.63960

$$$$
1157


 24 27  0  0  0  0  0  0  0  0999 V2000
   21.5932   65.7163   -6.8150 C   0  0  0  0  0  0  0  0  0  0  0  0
   21.7894   64.5182   -5.9215 C   0  0  0  0  0  0  0  0  0  0  0  0
   23.0452   63.9799   -6.4227 N   0  0  0  0  0  0  0  0  0  0  0  0
   22.9082   63.9733   -7.8596 C   0  0  0  0  0  0  0  0  0  0  0  0
   22.0000   65.1511   -8.1590 C   0  0  0  0  0  0  0  0  0  0  0  0
   24.1524   63.5601   -5.6094 C   0  0  0  0  0  0  0  0  0  0  0  0
   25.3890   63.4385   -6.1277 N   0  0  0  0  0  0  0  0  0  0  0  0
   26.4053   63.0423   -5.3418 C   0  0  0  0  0  0  0  0  0  0  0  0
   26.2289   62.7526   -4.0132 C   0  0  0  0  0  0  0  0  0  0  0  0
   25.0009   62.8696   -3.4800 N   0  0  0  0  0  0  0  0  0  0  0  0
   23.9895   63.2669   -4.2769 C   0  0  0  0  0  0  0  0  0  0  0  0
   22.9067   63.2887   -3.4758 N   0  0  0  0  0  0  0  0  0  0  0  0
   23.2194   62.9253   -2.2437 N   0  0  0  0  0  0  0  0  0  0  0  0
   24.5358   62.6568   -2.2257 C   0  0  0  0  0  0  0  0  0  0  0  0
   22.1734   68.1486   -6.6225 C   0  0  0  0  0  0  0  0  0  0  0  0
   21.0416   68.5303   -7.0103 O   0  0  0  0  0  0  0  0  0  0  0  0
   22.5274   66.7863   -6.4979 N   0  0  0  0  0  0  0  0  0  0  0  0
   23.4918   66.5598   -6.1680 H   0  0  0  0  0  0  0  0  0  0  0  0
   24.1999   70.0781   -7.3208 S   0  0  0  0  0  0  0  0  0  0  0  0
   23.1378   69.2236   -6.2955 C   0  0  0  0  0  0  0  0  0  0  0  0
   23.3907   69.7782   -5.0678 C   0  0  0  0  0  0  0  0  0  0  0  0
   24.3094   70.7441   -5.0010 C   0  0  0  0  0  0  0  0  0  0  0  0
   24.9276   71.1039   -6.1710 C   0  0  0  0  0  0  0  0  0  0  0  0
   24.8054   71.6486   -3.3583 Br  0  0  0  0  0  0  0  0  0  0  0  0
 19 20  1  0  0  0
 19 23  1  0  0  0
 20 21  2  0  0  0
 20 15  1  0  0  0
 21 22  1  0  0  0
 22 23  2  0  0  0
 22 24  1  0  0  0
 15 16  2  0  0  0
 15 17  1  0  0  0
 17  1  1  0  0  0
  1  2  1  0  0  0
  1  5  1  0  0  0
  2  3  1  0  0  0
  3  4  1  0  0  0
  3  6  1  0  0  0
  4  5  1  0  0  0
  6  7  2  0  0  0
  6 11  1  0  0  0
  7  8  1  0  0  0
  8  9  2  0  0  0
  9 10  1  0  0  0
 10 11  1  0  0  0
 10 14  1  0  0  0
 11 12  2  0  0  0
 12 13  1  0  0  0
 13 14  2  0  0  0
 17 18  1  0  0  0
M  END
> <minimizedAffinity>
-6.11717

$$$$
1160


 25 28  0  0  0  0  0  0  0  0999 V2000
   17.9213   63.4947  -10.4725 C   0  0  0  0  0  0  0  0  0  0  0  0
   18.9106   64.1143   -9.8037 N   0  0  0  0  0  0  0  0  0  0  0  0
   19.8114   63.2158   -9.3701 C   0  0  0  0  0  0  0  0  0  0  0  0
   19.3470   62.0275   -9.7914 N   0  0  0  0  0  0  0  0  0  0  0  0
   18.2226   62.2182  -10.4442 O   0  0  0  0  0  0  0  0  0  0  0  0
   21.0365   63.4499   -8.6056 C   0  0  0  0  0  0  0  0  0  0  0  0
   21.1890   64.3288   -7.6006 N   0  0  0  0  0  0  0  0  0  0  0  0
   22.4405   64.2770   -7.1319 N   0  0  0  0  0  0  0  0  0  0  0  0
   23.1161   63.3472   -7.8439 C   0  0  0  0  0  0  0  0  0  0  0  0
   22.2326   62.8543   -8.7433 N   0  0  0  0  0  0  0  0  0  0  0  0
   22.9876   65.0749   -6.0475 C   0  0  0  0  0  0  0  0  0  0  0  0
   22.7924   66.5047   -6.3691 C   0  0  0  0  0  0  0  0  0  0  0  0
   23.7358   67.2995   -6.1650 O   0  0  0  0  0  0  0  0  0  0  0  0
   21.5581   66.9499   -6.8974 N   0  0  0  0  0  0  0  0  0  0  0  0
   21.5123   67.6365   -7.7000 H   0  0  0  0  0  0  0  0  0  0  0  0
   20.6228   66.6373   -6.5408 H   0  0  0  0  0  0  0  0  0  0  0  0
   15.3854   63.5786  -10.5857 C   0  0  0  0  0  0  0  0  0  0  0  0
   16.7169   64.1237  -11.1206 C   0  0  0  0  0  0  0  0  0  0  0  0
   15.8029   64.9533  -10.3022 C   0  0  0  0  0  0  0  0  0  0  0  0
   12.8029   62.4095  -13.2614 S   0  0  0  0  0  0  0  0  0  0  0  0
   12.9406   64.0996  -13.3660 C   0  0  0  0  0  0  0  0  0  0  0  0
   13.8582   64.4060  -12.3955 C   0  0  0  0  0  0  0  0  0  0  0  0
   14.3583   63.3702  -11.6836 C   0  0  0  0  0  0  0  0  0  0  0  0
   13.9043   62.1204  -11.9976 C   0  0  0  0  0  0  0  0  0  0  0  0
   12.0418   65.3316  -14.5502 Br  0  0  0  0  0  0  0  0  0  0  0  0
 20 21  1  0  0  0
 20 24  1  0  0  0
 21 22  2  0  0  0
 21 25  1  0  0  0
 22 23  1  0  0  0
 23 24  2  0  0  0
 23 17  1  0  0  0
 17 18  1  0  0  0
 17 19  1  0  0  0
 18 19  1  0  0  0
 18  1  1  0  0  0
  1  2  2  0  0  0
  1  5  1  0  0  0
  2  3  1  0  0  0
  3  4  2  0  0  0
  3  6  1  0  0  0
  4  5  1  0  0  0
  6  7  2  0  0  0
  6 10  1  0  0  0
  7  8  1  0  0  0
  8  9  1  0  0  0
  8 11  1  0  0  0
  9 10  2  0  0  0
 11 12  1  0  0  0
 12 13  2  0  0  0
 12 14  1  0  0  0
 14 15  1  0  0  0
 14 16  1  0  0  0
M  END
> <minimizedAffinity>
-9.01483

$$$$
1161


 29 32  0  0  0  0  0  0  0  0999 V2000
   21.0420   63.6843   -9.0121 N   0  0  0  0  0  0  0  0  0  0  0  0
   21.8079   63.4743  -10.1092 C   0  0  0  0  0  0  0  0  0  0  0  0
   23.1184   63.3935   -9.7472 C   0  0  0  0  0  0  0  0  0  0  0  0
   24.0975   63.1790  -10.7002 C   0  0  0  0  0  0  0  0  0  0  0  0
   23.7287   63.0481  -12.0195 C   0  0  0  0  0  0  0  0  0  0  0  0
   22.4162   63.1246  -12.4097 C   0  0  0  0  0  0  0  0  0  0  0  0
   21.4661   63.3393  -11.4361 C   0  0  0  0  0  0  0  0  0  0  0  0
   23.1595   63.5574   -8.4214 N   0  0  0  0  0  0  0  0  0  0  0  0
   21.8829   63.7360   -7.9756 C   0  0  0  0  0  0  0  0  0  0  0  0
   21.6548   63.9270   -6.7295 N   0  0  0  0  0  0  0  0  0  0  0  0
   20.7665   64.0844   -6.2573 H   0  0  0  0  0  0  0  0  0  0  0  0
   19.6070   63.8176   -9.0339 C   0  0  0  0  0  0  0  0  0  0  0  0
   18.9426   62.5819   -9.5157 C   0  0  0  0  0  0  0  0  0  0  0  0
   19.5080   61.4645   -9.4232 O   0  0  0  0  0  0  0  0  0  0  0  0
   16.6624   63.9316  -10.6515 S   0  0  0  0  0  0  0  0  0  0  0  0
   15.2815   63.1004  -11.1910 C   0  0  0  0  0  0  0  0  0  0  0  0
   15.5971   61.7940  -10.9385 C   0  0  0  0  0  0  0  0  0  0  0  0
   16.7867   61.5380  -10.3901 C   0  0  0  0  0  0  0  0  0  0  0  0
   17.6057   62.6053  -10.1196 C   0  0  0  0  0  0  0  0  0  0  0  0
   13.6985   63.8383  -11.9577 Br  0  0  0  0  0  0  0  0  0  0  0  0
   24.3750   63.5280   -7.6200 C   0  0  0  0  0  0  0  0  0  0  0  0
   24.0062   63.0453   -6.2089 C   0  0  0  0  0  0  0  0  0  0  0  0
   24.5597   63.8905   -5.1906 N   0  0  0  0  0  0  0  0  0  0  0  0
   23.9213   63.7522   -3.8971 C   0  0  0  0  0  0  0  0  0  0  0  0
   23.8510   62.3179   -3.4548 C   0  0  0  0  0  0  0  0  0  0  0  0
   25.1459   61.5911   -3.5954 C   0  0  0  0  0  0  0  0  0  0  0  0
   26.0620   62.0915   -4.6540 C   0  0  0  0  0  0  0  0  0  0  0  0
   25.9446   63.5326   -5.0021 C   0  0  0  0  0  0  0  0  0  0  0  0
   24.4554   64.8945   -5.4533 H   0  0  0  0  0  0  0  0  0  0  0  0
 15 16  1  0  0  0
 15 19  1  0  0  0
 16 17  2  0  0  0
 16 20  1  0  0  0
 17 18  1  0  0  0
 18 19  2  0  0  0
 19 13  1  0  0  0
 13 14  2  0  0  0
 13 12  1  0  0  0
 12  1  1  0  0  0
  1  2  1  0  0  0
  1  9  1  0  0  0
  2  3  1  0  0  0
  2  7  2  0  0  0
  3  4  2  0  0  0
  3  8  1  0  0  0
  4  5  1  0  0  0
  5  6  2  0  0  0
  6  7  1  0  0  0
  8  9  1  0  0  0
  8 21  1  0  0  0
  9 10  2  0  0  0
 21 22  1  0  0  0
 22 23  1  0  0  0
 23 24  1  0  0  0
 23 28  1  0  0  0
 24 25  1  0  0  0
 25 26  1  0  0  0
 26 27  1  0  0  0
 27 28  1  0  0  0
 10 11  1  0  0  0
 23 29  1  0  0  0
M  CHG 1  23   1
M  END
> <minimizedAffinity>
-8.46529

$$$$
1177


 33 36  0  0  0  0  0  0  0  0999 V2000
   19.7736   63.2914   -9.5674 C   0  0  0  0  0  0  0  0  0  0  0  0
   20.6696   63.4613  -10.5205 C   0  0  0  0  0  0  0  0  0  0  0  0
   22.0414   64.0603  -10.4145 C   0  0  0  0  0  0  0  0  0  0  0  0
   22.8009   63.3468  -11.3933 N   0  0  0  0  0  0  0  0  0  0  0  0
   21.8527   63.0919  -12.4670 C   0  0  0  0  0  0  0  0  0  0  0  0
   22.2099   62.8534  -13.6525 O   0  0  0  0  0  0  0  0  0  0  0  0
   20.5030   63.1621  -11.9368 C   0  0  0  0  0  0  0  0  0  0  0  0
   19.4082   62.9999  -12.5717 O   0  0  0  0  0  0  0  0  0  0  0  0
   20.0841   63.7152   -8.2548 O   0  0  0  0  0  0  0  0  0  0  0  0
   18.1422   61.0036   -9.9652 S   0  0  0  0  0  0  0  0  0  0  0  0
   16.4869   61.0952  -10.3667 C   0  0  0  0  0  0  0  0  0  0  0  0
   16.2780   62.3979  -10.3934 N   0  0  0  0  0  0  0  0  0  0  0  0
   17.2532   63.2201  -10.1406 C   0  0  0  0  0  0  0  0  0  0  0  0
   18.4778   62.6781   -9.8501 C   0  0  0  0  0  0  0  0  0  0  0  0
   17.0160   64.7230  -10.2148 C   0  0  0  0  0  0  0  0  0  0  0  0
   15.5075   59.9744  -10.6274 C   0  0  0  0  0  0  0  0  0  0  0  0
   22.5356   64.0509   -9.0439 C   0  0  0  0  0  0  0  0  0  0  0  0
   22.5252   65.2628   -8.3356 C   0  0  0  0  0  0  0  0  0  0  0  0
   22.9411   65.3767   -7.0337 C   0  0  0  0  0  0  0  0  0  0  0  0
   23.3938   64.2643   -6.3680 C   0  0  0  0  0  0  0  0  0  0  0  0
   23.4181   63.0487   -7.0340 C   0  0  0  0  0  0  0  0  0  0  0  0
   22.9920   62.9726   -8.3430 C   0  0  0  0  0  0  0  0  0  0  0  0
   22.9159   67.0394   -6.0939 Br  0  0  0  0  0  0  0  0  0  0  0  0
   24.1857   62.9818  -11.4446 C   0  0  0  0  0  0  0  0  0  0  0  0
   25.0486   63.7822  -12.3652 C   0  0  0  0  0  0  0  0  0  0  0  0
   25.2845   63.0281  -13.6829 C   0  0  0  0  0  0  0  0  0  0  0  0
   25.5306   63.9858  -14.7076 N   0  0  0  0  0  0  0  0  0  0  0  0
   26.8926   64.1565  -15.1014 C   0  0  0  0  0  0  0  0  0  0  0  0
   27.4147   63.0328  -15.9650 C   0  0  0  0  0  0  0  0  0  0  0  0
   26.3719   62.0857  -16.0750 O   0  0  0  0  0  0  0  0  0  0  0  0
   25.3735   62.7379  -16.8259 C   0  0  0  0  0  0  0  0  0  0  0  0
   24.7301   63.7435  -15.8937 C   0  0  0  0  0  0  0  0  0  0  0  0
   25.2030   64.9280  -14.3355 H   0  0  0  0  0  0  0  0  0  0  0  0
 10 11  1  0  0  0
 10 14  1  0  0  0
 11 12  2  0  0  0
 11 16  1  0  0  0
 12 13  1  0  0  0
 13 14  2  0  0  0
 13 15  1  0  0  0
 14  1  1  0  0  0
  1  2  2  0  0  0
  1  9  1  0  0  0
  2  3  1  0  0  0
  2  7  1  0  0  0
  3  4  1  0  0  0
  3 17  1  0  0  0
  4  5  1  0  0  0
  4 24  1  0  0  0
  5  6  2  0  0  0
  5  7  1  0  0  0
  7  8  2  0  0  0
 24 25  1  0  0  0
 25 26  1  0  0  0
 26 27  1  0  0  0
 27 28  1  0  0  0
 27 32  1  0  0  0
 28 29  1  0  0  0
 29 30  1  0  0  0
 30 31  1  0  0  0
 31 32  1  0  0  0
 17 18  2  0  0  0
 17 22  1  0  0  0
 18 19  1  0  0  0
 19 20  2  0  0  0
 19 23  1  0  0  0
 20 21  1  0  0  0
 21 22  2  0  0  0
 27 33  1  0  0  0
M  CHG 1   9  -1
M  CHG 1  27   1
M  END
> <minimizedAffinity>
-7.17685

$$$$
1178


 33 36  0  0  0  0  0  0  0  0999 V2000
   21.5219   63.4682   -8.5602 C   0  0  0  0  0  0  0  0  0  0  0  0
   21.6188   64.7601   -8.4495 C   0  0  0  0  0  0  0  0  0  0  0  0
   22.7115   65.4858   -7.7292 C   0  0  0  0  0  0  0  0  0  0  0  0
   22.0298   66.6403   -7.2073 N   0  0  0  0  0  0  0  0  0  0  0  0
   21.0540   66.9856   -8.1998 C   0  0  0  0  0  0  0  0  0  0  0  0
   20.5298   68.1036   -8.3536 O   0  0  0  0  0  0  0  0  0  0  0  0
   20.7737   65.8074   -9.0082 C   0  0  0  0  0  0  0  0  0  0  0  0
   19.9972   65.6422   -9.9882 O   0  0  0  0  0  0  0  0  0  0  0  0
   22.5058   62.6517   -7.9772 O   0  0  0  0  0  0  0  0  0  0  0  0
   18.8785   62.3154   -8.6946 S   0  0  0  0  0  0  0  0  0  0  0  0
   18.1763   61.8296  -10.1686 C   0  0  0  0  0  0  0  0  0  0  0  0
   19.1258   62.1035  -11.0399 N   0  0  0  0  0  0  0  0  0  0  0  0
   20.2475   62.6174  -10.6366 C   0  0  0  0  0  0  0  0  0  0  0  0
   20.3909   62.8551   -9.2910 C   0  0  0  0  0  0  0  0  0  0  0  0
   21.3525   62.9883  -11.6222 C   0  0  0  0  0  0  0  0  0  0  0  0
   16.8221   61.2358  -10.4492 C   0  0  0  0  0  0  0  0  0  0  0  0
   23.3529   64.6166   -6.7316 C   0  0  0  0  0  0  0  0  0  0  0  0
   24.5040   63.8964   -6.8973 C   0  0  0  0  0  0  0  0  0  0  0  0
   25.0701   63.0893   -5.9366 C   0  0  0  0  0  0  0  0  0  0  0  0
   24.4489   62.9869   -4.7177 C   0  0  0  0  0  0  0  0  0  0  0  0
   23.2914   63.6835   -4.4902 C   0  0  0  0  0  0  0  0  0  0  0  0
   22.7525   64.4819   -5.4724 C   0  0  0  0  0  0  0  0  0  0  0  0
   25.2409   61.8634   -3.3817 Br  0  0  0  0  0  0  0  0  0  0  0  0
   22.3224   67.2842   -5.9616 C   0  0  0  0  0  0  0  0  0  0  0  0
   23.4082   68.2770   -5.9987 C   0  0  0  0  0  0  0  0  0  0  0  0
   23.0854   69.6367   -6.3461 C   0  0  0  0  0  0  0  0  0  0  0  0
   23.4816   70.8217   -5.7483 N   0  0  0  0  0  0  0  0  0  0  0  0
   24.3103   71.6485   -6.7023 C   0  0  0  0  0  0  0  0  0  0  0  0
   25.7057   71.1180   -6.7231 C   0  0  0  0  0  0  0  0  0  0  0  0
   26.2699   71.3900   -5.4819 O   0  0  0  0  0  0  0  0  0  0  0  0
   25.6158   70.5234   -4.5774 C   0  0  0  0  0  0  0  0  0  0  0  0
   24.1500   70.8477   -4.4941 C   0  0  0  0  0  0  0  0  0  0  0  0
   22.6544   71.4561   -5.6342 H   0  0  0  0  0  0  0  0  0  0  0  0
 10 11  1  0  0  0
 10 14  1  0  0  0
 11 12  2  0  0  0
 11 16  1  0  0  0
 12 13  1  0  0  0
 13 14  2  0  0  0
 13 15  1  0  0  0
 14  1  1  0  0  0
  1  2  2  0  0  0
  1  9  1  0  0  0
  2  3  1  0  0  0
  2  7  1  0  0  0
  3  4  1  0  0  0
  3 17  1  0  0  0
  4  5  1  0  0  0
  4 24  1  0  0  0
  5  6  2  0  0  0
  5  7  1  0  0  0
  7  8  2  0  0  0
 24 25  1  0  0  0
 25 26  1  0  0  0
 26 27  1  0  0  0
 27 28  1  0  0  0
 27 32  1  0  0  0
 28 29  1  0  0  0
 29 30  1  0  0  0
 30 31  1  0  0  0
 31 32  1  0  0  0
 17 18  2  0  0  0
 17 22  1  0  0  0
 18 19  1  0  0  0
 19 20  2  0  0  0
 20 21  1  0  0  0
 20 23  1  0  0  0
 21 22  2  0  0  0
 27 33  1  0  0  0
M  CHG 1   9  -1
M  CHG 1  27   1
M  END
> <minimizedAffinity>
-4.95918

$$$$
1180


 32 35  0  0  0  0  0  0  0  0999 V2000
   20.1183   62.8734  -11.1887 C   0  0  0  0  0  0  0  0  0  0  0  0
   20.7690   63.4896  -10.2245 C   0  0  0  0  0  0  0  0  0  0  0  0
   22.2151   63.8589  -10.1449 C   0  0  0  0  0  0  0  0  0  0  0  0
   22.5251   63.4448   -8.8316 N   0  0  0  0  0  0  0  0  0  0  0  0
   21.4022   64.0196   -8.0549 C   0  0  0  0  0  0  0  0  0  0  0  0
   21.4278   64.4041   -6.8552 O   0  0  0  0  0  0  0  0  0  0  0  0
   20.2650   64.0437   -8.9684 C   0  0  0  0  0  0  0  0  0  0  0  0
   19.0740   64.4437   -8.7846 O   0  0  0  0  0  0  0  0  0  0  0  0
   20.7871   62.4784  -12.3335 O   0  0  0  0  0  0  0  0  0  0  0  0
   17.3436   63.5949  -11.4915 S   0  0  0  0  0  0  0  0  0  0  0  0
   16.0809   62.6146  -10.9093 C   0  0  0  0  0  0  0  0  0  0  0  0
   16.7343   61.6120  -10.3568 N   0  0  0  0  0  0  0  0  0  0  0  0
   18.0307   61.5897  -10.3727 C   0  0  0  0  0  0  0  0  0  0  0  0
   18.6817   62.6382  -10.9785 C   0  0  0  0  0  0  0  0  0  0  0  0
   18.8023   60.4198   -9.7797 C   0  0  0  0  0  0  0  0  0  0  0  0
   14.5945   62.8323  -10.9970 C   0  0  0  0  0  0  0  0  0  0  0  0
   23.0176   63.6346  -11.2970 C   0  0  0  0  0  0  0  0  0  0  0  0
   24.3656   63.3041  -11.1305 C   0  0  0  0  0  0  0  0  0  0  0  0
   25.2122   63.0890  -12.1866 C   0  0  0  0  0  0  0  0  0  0  0  0
   24.6993   63.2057  -13.4613 C   0  0  0  0  0  0  0  0  0  0  0  0
   23.3718   63.5313  -13.6471 C   0  0  0  0  0  0  0  0  0  0  0  0
   22.5412   63.7432  -12.5709 C   0  0  0  0  0  0  0  0  0  0  0  0
   25.8120   62.9216  -14.9911 Br  0  0  0  0  0  0  0  0  0  0  0  0
   23.5391   62.7723   -8.0931 C   0  0  0  0  0  0  0  0  0  0  0  0
   24.1959   63.4383   -6.9615 C   0  0  0  0  0  0  0  0  0  0  0  0
   24.2987   62.8395   -5.6935 N   0  0  0  0  0  0  0  0  0  0  0  0
   25.6539   62.6472   -5.2223 C   0  0  0  0  0  0  0  0  0  0  0  0
   25.5445   61.8681   -3.9156 C   0  0  0  0  0  0  0  0  0  0  0  0
   24.2447   61.9182   -3.4124 O   0  0  0  0  0  0  0  0  0  0  0  0
   23.9120   63.2871   -3.3629 C   0  0  0  0  0  0  0  0  0  0  0  0
   23.7611   63.8653   -4.7407 C   0  0  0  0  0  0  0  0  0  0  0  0
   23.6834   62.0250   -5.5985 H   0  0  0  0  0  0  0  0  0  0  0  0
 10 11  1  0  0  0
 10 14  1  0  0  0
 11 12  2  0  0  0
 11 16  1  0  0  0
 12 13  1  0  0  0
 13 14  2  0  0  0
 13 15  1  0  0  0
 14  1  1  0  0  0
  1  2  2  0  0  0
  1  9  1  0  0  0
  2  3  1  0  0  0
  2  7  1  0  0  0
  3  4  1  0  0  0
  3 17  1  0  0  0
  4  5  1  0  0  0
  4 24  1  0  0  0
  5  6  2  0  0  0
  5  7  1  0  0  0
  7  8  2  0  0  0
 24 25  1  0  0  0
 25 26  1  0  0  0
 26 27  1  0  0  0
 26 31  1  0  0  0
 27 28  1  0  0  0
 28 29  1  0  0  0
 29 30  1  0  0  0
 30 31  1  0  0  0
 17 18  2  0  0  0
 17 22  1  0  0  0
 18 19  1  0  0  0
 19 20  2  0  0  0
 20 21  1  0  0  0
 20 23  1  0  0  0
 21 22  2  0  0  0
 26 32  1  0  0  0
M  CHG 1   9  -1
M  CHG 1  26   1
M  END
> <minimizedAffinity>
-8.00154

$$$$
1192


 27 30  0  0  0  0  0  0  0  0999 V2000
   21.5592   66.1581   -7.6712 S   0  0  0  0  0  0  0  0  0  0  0  0
   21.6137   65.2455   -9.1255 C   0  0  0  0  0  0  0  0  0  0  0  0
   22.4991   64.2484   -8.8165 C   0  0  0  0  0  0  0  0  0  0  0  0
   23.0319   64.2523   -7.5847 C   0  0  0  0  0  0  0  0  0  0  0  0
   22.6476   65.2529   -6.7334 C   0  0  0  0  0  0  0  0  0  0  0  0
   23.2544   65.2389   -5.3607 C   0  0  0  0  0  0  0  0  0  0  0  0
   23.0015   63.9253   -4.7725 N   0  0  0  0  0  0  0  0  0  0  0  0
   23.4422   62.8420   -5.5955 C   0  0  0  0  0  0  0  0  0  0  0  0
   24.0272   63.3108   -6.9231 C   0  0  0  0  0  0  0  0  0  0  0  0
   21.5473   63.8218   -4.6499 C   0  0  0  0  0  0  0  0  0  0  0  0
   22.7472   63.2848   -9.9247 C   0  0  0  0  0  0  0  0  0  0  0  0
   23.5454   62.3138   -9.7705 O   0  0  0  0  0  0  0  0  0  0  0  0
   22.0717   63.4743  -11.1580 N   0  0  0  0  0  0  0  0  0  0  0  0
   20.8590   64.2223  -11.3158 C   0  0  0  0  0  0  0  0  0  0  0  0
   20.9667   65.3600  -10.4161 N   0  0  0  0  0  0  0  0  0  0  0  0
   23.3683   63.8925   -3.8000 H   0  0  0  0  0  0  0  0  0  0  0  0
   22.5093   63.0247  -12.0120 H   0  0  0  0  0  0  0  0  0  0  0  0
   20.5863   66.2975  -10.6580 H   0  0  0  0  0  0  0  0  0  0  0  0
   19.6498   63.4345  -10.9732 C   0  0  0  0  0  0  0  0  0  0  0  0
   18.3773   63.9073  -11.2203 C   0  0  0  0  0  0  0  0  0  0  0  0
   17.2442   63.1898  -10.9104 C   0  0  0  0  0  0  0  0  0  0  0  0
   17.3596   61.9448  -10.3266 C   0  0  0  0  0  0  0  0  0  0  0  0
   18.6172   61.4531  -10.0708 C   0  0  0  0  0  0  0  0  0  0  0  0
   19.7497   62.1792  -10.3857 C   0  0  0  0  0  0  0  0  0  0  0  0
   18.7310   59.7158   -9.2581 Br  0  0  0  0  0  0  0  0  0  0  0  0
   16.2214   61.2164  -10.0115 O   0  0  0  0  0  0  0  0  0  0  0  0
   15.5012   63.8501  -11.2555 Br  0  0  0  0  0  0  0  0  0  0  0  0
  1  2  1  0  0  0
  1  5  1  0  0  0
  2  3  2  0  0  0
  2 15  1  0  0  0
  3  4  1  0  0  0
  3 11  1  0  0  0
  4  5  2  0  0  0
  4  9  1  0  0  0
  5  6  1  0  0  0
  6  7  1  0  0  0
  7  8  1  0  0  0
  7 10  1  0  0  0
  8  9  1  0  0  0
 11 12  2  0  0  0
 11 13  1  0  0  0
 13 14  1  0  0  0
 14 15  1  0  0  0
 14 19  1  0  0  0
 19 20  2  0  0  0
 19 24  1  0  0  0
 20 21  1  0  0  0
 21 22  2  0  0  0
 21 27  1  0  0  0
 22 23  1  0  0  0
 22 26  1  0  0  0
 23 24  2  0  0  0
 23 25  1  0  0  0
  7 16  1  0  0  0
 13 17  1  0  0  0
 15 18  1  0  0  0
M  CHG 1   7   1
M  CHG 1  26  -1
M  END
> <minimizedAffinity>
-3.53826

$$$$
1193


 29 32  0  0  0  0  0  0  0  0999 V2000
   16.4414   64.9985  -10.1259 S   0  0  0  0  0  0  0  0  0  0  0  0
   15.2095   63.8499  -10.4029 C   0  0  0  0  0  0  0  0  0  0  0  0
   15.9094   62.7137  -10.6996 C   0  0  0  0  0  0  0  0  0  0  0  0
   17.2634   62.8039  -10.6923 C   0  0  0  0  0  0  0  0  0  0  0  0
   17.8051   64.0281  -10.3888 C   0  0  0  0  0  0  0  0  0  0  0  0
   19.2796   64.2568  -10.3503 C   0  0  0  0  0  0  0  0  0  0  0  0
   20.0350   63.1215   -9.9457 N   0  0  0  0  0  0  0  0  0  0  0  0
   19.3528   61.8724   -9.9420 C   0  0  0  0  0  0  0  0  0  0  0  0
   18.2908   61.7033  -10.9825 C   0  0  0  0  0  0  0  0  0  0  0  0
   21.2968   63.0452  -10.6723 C   0  0  0  0  0  0  0  0  0  0  0  0
   15.0392   61.5307  -10.9810 C   0  0  0  0  0  0  0  0  0  0  0  0
   15.5746   60.4120  -11.2719 O   0  0  0  0  0  0  0  0  0  0  0  0
   13.6324   61.6629  -10.9233 N   0  0  0  0  0  0  0  0  0  0  0  0
   12.9981   62.9367  -11.1817 C   0  0  0  0  0  0  0  0  0  0  0  0
   13.7573   63.8935  -10.3775 N   0  0  0  0  0  0  0  0  0  0  0  0
   20.3296   63.3024   -8.9356 H   0  0  0  0  0  0  0  0  0  0  0  0
   13.0407   60.8343  -10.6917 H   0  0  0  0  0  0  0  0  0  0  0  0
   13.3349   64.6194   -9.7754 H   0  0  0  0  0  0  0  0  0  0  0  0
   13.1779   63.2350  -12.6266 C   0  0  0  0  0  0  0  0  0  0  0  0
   12.8755   62.2905  -13.5838 C   0  0  0  0  0  0  0  0  0  0  0  0
   13.0351   62.5474  -14.9283 C   0  0  0  0  0  0  0  0  0  0  0  0
   13.5130   63.7864  -15.3347 C   0  0  0  0  0  0  0  0  0  0  0  0
   13.8237   64.7498  -14.3996 C   0  0  0  0  0  0  0  0  0  0  0  0
   13.6552   64.4659  -13.0807 C   0  0  0  0  0  0  0  0  0  0  0  0
   13.6828   64.0685  -16.6879 O   0  0  0  0  0  0  0  0  0  0  0  0
   12.6204   61.2511  -16.2626 Br  0  0  0  0  0  0  0  0  0  0  0  0
   14.2954   65.9669  -14.8553 O   0  0  0  0  0  0  0  0  0  0  0  0
   13.5448   66.9457  -15.5018 C   0  0  0  0  0  0  0  0  0  0  0  0
   12.3003   67.2995  -14.7171 C   0  0  0  0  0  0  0  0  0  0  0  0
  1  2  1  0  0  0
  1  5  1  0  0  0
  2  3  2  0  0  0
  2 15  1  0  0  0
  3  4  1  0  0  0
  3 11  1  0  0  0
  4  5  2  0  0  0
  4  9  1  0  0  0
  5  6  1  0  0  0
  6  7  1  0  0  0
  7  8  1  0  0  0
  7 10  1  0  0  0
  8  9  1  0  0  0
 11 12  2  0  0  0
 11 13  1  0  0  0
 13 14  1  0  0  0
 14 15  1  0  0  0
 14 19  1  0  0  0
 19 20  2  0  0  0
 19 24  1  0  0  0
 20 21  1  0  0  0
 21 22  2  0  0  0
 21 26  1  0  0  0
 22 23  1  0  0  0
 22 25  1  0  0  0
 23 24  2  0  0  0
 23 27  1  0  0  0
 27 28  1  0  0  0
 28 29  1  0  0  0
  7 16  1  0  0  0
 13 17  1  0  0  0
 15 18  1  0  0  0
M  CHG 1   7   1
M  CHG 1  25  -1
M  END
> <minimizedAffinity>
-4.41671

$$$$
1206


 25 28  0  0  0  0  0  0  0  0999 V2000
   23.3215   63.6175   -8.7086 S   0  0  0  0  0  0  0  0  0  0  0  0
   21.9922   64.1234   -7.5866 C   0  0  0  0  0  0  0  0  0  0  0  0
   20.8525   63.3548   -8.1979 C   0  0  0  0  0  0  0  0  0  0  0  0
   20.9804   63.2376   -9.6188 N   0  0  0  0  0  0  0  0  0  0  0  0
   22.2260   63.3736  -10.1022 C   0  0  0  0  0  0  0  0  0  0  0  0
   22.1964   63.2684  -11.4357 N   0  0  0  0  0  0  0  0  0  0  0  0
   20.9179   63.0605  -11.8224 C   0  0  0  0  0  0  0  0  0  0  0  0
   20.1391   63.0369  -10.6900 C   0  0  0  0  0  0  0  0  0  0  0  0
   21.6850   65.5949   -7.7257 C   0  0  0  0  0  0  0  0  0  0  0  0
   23.3082   63.3562  -12.3192 C   0  0  0  0  0  0  0  0  0  0  0  0
   24.6054   63.2744  -11.8694 C   0  0  0  0  0  0  0  0  0  0  0  0
   25.7001   63.3561  -12.7041 C   0  0  0  0  0  0  0  0  0  0  0  0
   25.5096   63.5297  -14.0572 C   0  0  0  0  0  0  0  0  0  0  0  0
   24.2182   63.6169  -14.5464 C   0  0  0  0  0  0  0  0  0  0  0  0
   23.1400   63.5311  -13.6892 C   0  0  0  0  0  0  0  0  0  0  0  0
   27.0041   63.6483  -15.2460 Br  0  0  0  0  0  0  0  0  0  0  0  0
   18.7081   62.8465  -10.6888 C   0  0  0  0  0  0  0  0  0  0  0  0
   17.8992   63.9526  -11.0023 C   0  0  0  0  0  0  0  0  0  0  0  0
   16.5346   63.8325  -11.0587 C   0  0  0  0  0  0  0  0  0  0  0  0
   15.8785   62.6515  -10.8189 C   0  0  0  0  0  0  0  0  0  0  0  0
   16.6473   61.5536  -10.5104 C   0  0  0  0  0  0  0  0  0  0  0  0
   18.0410   61.6743  -10.4531 C   0  0  0  0  0  0  0  0  0  0  0  0
   14.4666   62.6102  -10.8960 N   0  0  0  0  0  0  0  0  0  0  0  0
   13.8638   61.5310  -10.8913 O   0  0  0  0  0  0  0  0  0  0  0  0
   13.7685   63.7761  -10.9761 O   0  0  0  0  0  0  0  0  0  0  0  0
  1  2  1  0  0  0
  1  5  1  0  0  0
  2  3  1  0  0  0
  2  9  1  0  0  0
  3  4  1  0  0  0
  4  5  1  0  0  0
  4  8  1  0  0  0
  5  6  2  0  0  0
  6  7  1  0  0  0
  6 10  1  0  0  0
  7  8  2  0  0  0
  8 17  1  0  0  0
 17 18  2  0  0  0
 17 22  1  0  0  0
 18 19  1  0  0  0
 19 20  2  0  0  0
 20 21  1  0  0  0
 20 23  1  0  0  0
 21 22  2  0  0  0
 23 24  2  0  0  0
 23 25  1  0  0  0
 10 11  2  0  0  0
 10 15  1  0  0  0
 11 12  1  0  0  0
 12 13  2  0  0  0
 13 14  1  0  0  0
 13 16  1  0  0  0
 14 15  2  0  0  0
M  CHG 1  25  -1
M  END
> <minimizedAffinity>
-10.03306

$$$$
1209


 24 27  0  0  0  0  0  0  0  0999 V2000
   18.5940   63.1254   -9.1348 S   0  0  0  0  0  0  0  0  0  0  0  0
   17.0503   63.7353   -9.8693 C   0  0  0  0  0  0  0  0  0  0  0  0
   17.2850   63.8648  -11.3635 C   0  0  0  0  0  0  0  0  0  0  0  0
   18.0051   62.6395  -11.8871 C   0  0  0  0  0  0  0  0  0  0  0  0
   19.4252   62.8698  -11.6787 N   0  0  0  0  0  0  0  0  0  0  0  0
   19.8242   63.1095  -10.4270 C   0  0  0  0  0  0  0  0  0  0  0  0
   21.1899   63.3018  -10.4281 N   0  0  0  0  0  0  0  0  0  0  0  0
   21.6368   63.1830  -11.6674 C   0  0  0  0  0  0  0  0  0  0  0  0
   20.5112   62.9113  -12.4414 C   0  0  0  0  0  0  0  0  0  0  0  0
   21.9120   63.5782   -9.2304 C   0  0  0  0  0  0  0  0  0  0  0  0
   21.5956   64.6754   -8.4485 C   0  0  0  0  0  0  0  0  0  0  0  0
   22.2557   64.9537   -7.2683 C   0  0  0  0  0  0  0  0  0  0  0  0
   23.2636   64.0975   -6.8712 C   0  0  0  0  0  0  0  0  0  0  0  0
   23.5724   63.0074   -7.6569 C   0  0  0  0  0  0  0  0  0  0  0  0
   22.9269   62.7107   -8.8374 C   0  0  0  0  0  0  0  0  0  0  0  0
   24.2392   64.4035   -5.2446 Br  0  0  0  0  0  0  0  0  0  0  0  0
   22.9810   63.2924  -12.2116 C   0  0  0  0  0  0  0  0  0  0  0  0
   23.1476   63.5908  -13.5718 C   0  0  0  0  0  0  0  0  0  0  0  0
   24.3860   63.7058  -14.1399 C   0  0  0  0  0  0  0  0  0  0  0  0
   25.5524   63.5403  -13.4284 C   0  0  0  0  0  0  0  0  0  0  0  0
   25.4002   63.2480  -12.0975 C   0  0  0  0  0  0  0  0  0  0  0  0
   24.1402   63.1248  -11.4942 C   0  0  0  0  0  0  0  0  0  0  0  0
   26.7918   63.6656  -14.0404 O   0  0  0  0  0  0  0  0  0  0  0  0
   26.9460   63.3528  -15.4123 C   0  0  0  0  0  0  0  0  0  0  0  0
  1  2  1  0  0  0
  1  6  1  0  0  0
  2  3  1  0  0  0
  3  4  1  0  0  0
  4  5  1  0  0  0
  5  6  2  0  0  0
  5  9  1  0  0  0
  6  7  1  0  0  0
  7  8  1  0  0  0
  7 10  1  0  0  0
  8  9  2  0  0  0
  8 17  1  0  0  0
 17 18  2  0  0  0
 17 22  1  0  0  0
 18 19  1  0  0  0
 19 20  2  0  0  0
 20 21  1  0  0  0
 20 23  1  0  0  0
 21 22  2  0  0  0
 23 24  1  0  0  0
 10 11  2  0  0  0
 10 15  1  0  0  0
 11 12  1  0  0  0
 12 13  2  0  0  0
 13 14  1  0  0  0
 13 16  1  0  0  0
 14 15  2  0  0  0
M  END
> <minimizedAffinity>
-6.64046

$$$$
1211


 26 29  0  0  0  0  0  0  0  0999 V2000
    9.5619   65.3255  -14.6060 S   0  0  0  0  0  0  0  0  0  0  0  0
    8.3192   65.2918  -15.9564 C   0  0  0  0  0  0  0  0  0  0  0  0
    9.1118   64.8527  -17.1896 C   0  0  0  0  0  0  0  0  0  0  0  0
   10.0942   65.9688  -17.5297 C   0  0  0  0  0  0  0  0  0  0  0  0
   11.2604   65.7789  -16.7030 N   0  0  0  0  0  0  0  0  0  0  0  0
   11.1391   65.4972  -15.4318 C   0  0  0  0  0  0  0  0  0  0  0  0
   12.4801   65.3507  -14.8939 N   0  0  0  0  0  0  0  0  0  0  0  0
   13.1975   66.3634  -15.6376 C   0  0  0  0  0  0  0  0  0  0  0  0
   12.6900   65.8230  -17.0261 C   0  0  0  0  0  0  0  0  0  0  0  0
   14.5525   66.3208  -15.5485 O   0  0  0  0  0  0  0  0  0  0  0  0
   14.9198   67.2033  -15.8633 H   0  0  0  0  0  0  0  0  0  0  0  0
   12.9190   64.3948  -13.9552 C   0  0  0  0  0  0  0  0  0  0  0  0
   13.7485   64.8438  -12.8986 C   0  0  0  0  0  0  0  0  0  0  0  0
   14.2714   63.9709  -11.9604 C   0  0  0  0  0  0  0  0  0  0  0  0
   14.0069   62.6301  -12.0188 C   0  0  0  0  0  0  0  0  0  0  0  0
   13.2025   62.1617  -13.0367 C   0  0  0  0  0  0  0  0  0  0  0  0
   12.6722   63.0565  -13.9862 C   0  0  0  0  0  0  0  0  0  0  0  0
   14.7220   61.3847  -10.7597 Br  0  0  0  0  0  0  0  0  0  0  0  0
   12.5809   67.6749  -15.4077 C   0  0  0  0  0  0  0  0  0  0  0  0
   12.0467   68.0548  -14.1883 C   0  0  0  0  0  0  0  0  0  0  0  0
   11.4432   69.3147  -14.0554 C   0  0  0  0  0  0  0  0  0  0  0  0
   11.3572   70.1844  -15.0760 C   0  0  0  0  0  0  0  0  0  0  0  0
   11.8939   69.8304  -16.3313 C   0  0  0  0  0  0  0  0  0  0  0  0
   12.4803   68.5800  -16.4213 C   0  0  0  0  0  0  0  0  0  0  0  0
   10.7534   71.4655  -14.9829 O   0  0  0  0  0  0  0  0  0  0  0  0
    9.4061   71.6480  -15.3633 C   0  0  0  0  0  0  0  0  0  0  0  0
  1  2  1  0  0  0
  1  6  1  0  0  0
  2  3  1  0  0  0
  3  4  1  0  0  0
  4  5  1  0  0  0
  5  6  2  0  0  0
  5  9  1  0  0  0
  6  7  1  0  0  0
  7  8  1  0  0  0
  7 12  1  0  0  0
  8  9  1  0  0  0
  8 10  1  0  0  0
  8 19  1  0  0  0
 19 20  2  0  0  0
 19 24  1  0  0  0
 20 21  1  0  0  0
 21 22  2  0  0  0
 22 23  1  0  0  0
 22 25  1  0  0  0
 23 24  2  0  0  0
 25 26  1  0  0  0
 12 13  2  0  0  0
 12 17  1  0  0  0
 13 14  1  0  0  0
 14 15  2  0  0  0
 15 16  1  0  0  0
 15 18  1  0  0  0
 16 17  2  0  0  0
 10 11  1  0  0  0
M  END
> <minimizedAffinity>
-5.50296

$$$$
1217


 28 31  0  0  0  0  0  0  0  0999 V2000
    8.6496   65.7890  -14.7517 S   0  0  0  0  0  0  0  0  0  0  0  0
    7.8325   64.2244  -14.9460 C   0  0  0  0  0  0  0  0  0  0  0  0
    8.8653   63.1188  -15.0349 C   0  0  0  0  0  0  0  0  0  0  0  0
    9.7595   63.3636  -16.2374 C   0  0  0  0  0  0  0  0  0  0  0  0
   10.6839   64.4379  -15.9537 N   0  0  0  0  0  0  0  0  0  0  0  0
   12.1083   64.5070  -15.9997 C   0  0  0  0  0  0  0  0  0  0  0  0
   12.2790   65.9553  -16.4304 C   0  0  0  0  0  0  0  0  0  0  0  0
   11.1982   66.6280  -15.7456 N   0  0  0  0  0  0  0  0  0  0  0  0
   10.2799   65.7519  -15.5294 C   0  0  0  0  0  0  0  0  0  0  0  0
   12.6033   63.6372  -16.9658 O   0  0  0  0  0  0  0  0  0  0  0  0
   11.8788   63.3464  -17.5652 H   0  0  0  0  0  0  0  0  0  0  0  0
   12.7989   64.3448  -14.7054 C   0  0  0  0  0  0  0  0  0  0  0  0
   12.6356   63.3195  -13.8282 C   0  0  0  0  0  0  0  0  0  0  0  0
   13.3166   63.2854  -12.6096 C   0  0  0  0  0  0  0  0  0  0  0  0
   14.1829   64.2954  -12.2466 C   0  0  0  0  0  0  0  0  0  0  0  0
   14.3536   65.3269  -13.1178 C   0  0  0  0  0  0  0  0  0  0  0  0
   13.6870   65.3600  -14.3107 C   0  0  0  0  0  0  0  0  0  0  0  0
   15.1061   64.2379  -10.5666 Br  0  0  0  0  0  0  0  0  0  0  0  0
   11.1478   67.9873  -15.3373 C   0  0  0  0  0  0  0  0  0  0  0  0
   10.4971   68.8767  -16.1820 C   0  0  0  0  0  0  0  0  0  0  0  0
   10.4280   70.2363  -15.8611 C   0  0  0  0  0  0  0  0  0  0  0  0
   11.0149   70.6956  -14.6951 C   0  0  0  0  0  0  0  0  0  0  0  0
   11.6663   69.8431  -13.8361 C   0  0  0  0  0  0  0  0  0  0  0  0
   11.7001   68.4872  -14.2164 C   0  0  0  0  0  0  0  0  0  0  0  0
   12.2721   70.2398  -12.6564 O   0  0  0  0  0  0  0  0  0  0  0  0
   12.0523   71.4473  -11.9850 C   0  0  0  0  0  0  0  0  0  0  0  0
    9.9165   68.4154  -17.3438 O   0  0  0  0  0  0  0  0  0  0  0  0
    8.5341   68.4060  -17.6124 C   0  0  0  0  0  0  0  0  0  0  0  0
  1  2  1  0  0  0
  1  9  1  0  0  0
  2  3  1  0  0  0
  3  4  1  0  0  0
  4  5  1  0  0  0
  5  6  1  0  0  0
  5  9  1  0  0  0
  6  7  1  0  0  0
  6 10  1  0  0  0
  6 12  1  0  0  0
  7  8  1  0  0  0
  8  9  2  0  0  0
  8 19  1  0  0  0
 19 20  2  0  0  0
 19 24  1  0  0  0
 20 21  1  0  0  0
 20 27  1  0  0  0
 21 22  2  0  0  0
 22 23  1  0  0  0
 23 24  2  0  0  0
 23 25  1  0  0  0
 25 26  1  0  0  0
 27 28  1  0  0  0
 12 13  2  0  0  0
 12 17  1  0  0  0
 13 14  1  0  0  0
 14 15  2  0  0  0
 15 16  1  0  0  0
 15 18  1  0  0  0
 16 17  2  0  0  0
 10 11  1  0  0  0
M  END
> <minimizedAffinity>
-5.11334

$$$$
1219


 27 30  0  0  0  0  0  0  0  0999 V2000
   21.8076   63.5743  -11.4911 S   0  0  0  0  0  0  0  0  0  0  0  0
   23.4228   62.7080  -11.6608 C   0  0  0  0  0  0  0  0  0  0  0  0
   24.0269   62.5131  -10.2809 C   0  0  0  0  0  0  0  0  0  0  0  0
   23.9300   63.7749   -9.4632 C   0  0  0  0  0  0  0  0  0  0  0  0
   22.6244   63.8866   -8.8950 N   0  0  0  0  0  0  0  0  0  0  0  0
   22.0566   64.2624   -7.6134 C   0  0  0  0  0  0  0  0  0  0  0  0
   20.7601   63.4732   -7.5690 C   0  0  0  0  0  0  0  0  0  0  0  0
   20.4495   63.3432   -9.0068 N   0  0  0  0  0  0  0  0  0  0  0  0
   21.4863   63.5672   -9.7113 C   0  0  0  0  0  0  0  0  0  0  0  0
   22.8918   63.9574   -6.5569 O   0  0  0  0  0  0  0  0  0  0  0  0
   22.6257   63.2075   -6.0064 H   0  0  0  0  0  0  0  0  0  0  0  0
   19.1659   62.9953   -9.5182 C   0  0  0  0  0  0  0  0  0  0  0  0
   18.7329   61.7383   -9.8224 C   0  0  0  0  0  0  0  0  0  0  0  0
   17.4581   61.4684  -10.3009 C   0  0  0  0  0  0  0  0  0  0  0  0
   16.5660   62.5045  -10.4879 C   0  0  0  0  0  0  0  0  0  0  0  0
   16.9730   63.7996  -10.1888 C   0  0  0  0  0  0  0  0  0  0  0  0
   18.2543   64.0451   -9.7110 C   0  0  0  0  0  0  0  0  0  0  0  0
   14.7903   62.2348  -11.1478 Br  0  0  0  0  0  0  0  0  0  0  0  0
   21.7121   65.7034   -7.5681 C   0  0  0  0  0  0  0  0  0  0  0  0
   22.4520   66.5607   -6.7777 C   0  0  0  0  0  0  0  0  0  0  0  0
   22.0930   67.9085   -6.7659 C   0  0  0  0  0  0  0  0  0  0  0  0
   21.0471   68.3670   -7.5084 C   0  0  0  0  0  0  0  0  0  0  0  0
   20.2982   67.5202   -8.3050 C   0  0  0  0  0  0  0  0  0  0  0  0
   20.6646   66.1690   -8.3119 C   0  0  0  0  0  0  0  0  0  0  0  0
   22.8470   68.7969   -5.9578 N   0  0  0  0  0  0  0  0  0  0  0  0
   24.0205   68.5452   -5.6231 O   0  0  0  0  0  0  0  0  0  0  0  0
   22.3146   69.9728   -5.5107 O   0  0  0  0  0  0  0  0  0  0  0  0
  1  2  1  0  0  0
  1  9  1  0  0  0
  2  3  1  0  0  0
  3  4  1  0  0  0
  4  5  1  0  0  0
  5  6  1  0  0  0
  5  9  1  0  0  0
  6  7  1  0  0  0
  6 10  1  0  0  0
  6 19  1  0  0  0
  7  8  1  0  0  0
  8  9  2  0  0  0
  8 12  1  0  0  0
 12 13  2  0  0  0
 12 17  1  0  0  0
 13 14  1  0  0  0
 14 15  2  0  0  0
 15 16  1  0  0  0
 15 18  1  0  0  0
 16 17  2  0  0  0
 19 20  2  0  0  0
 19 24  1  0  0  0
 20 21  1  0  0  0
 21 22  2  0  0  0
 21 25  1  0  0  0
 22 23  1  0  0  0
 23 24  2  0  0  0
 25 26  2  0  0  0
 25 27  1  0  0  0
 10 11  1  0  0  0
M  CHG 1  27  -1
M  END
> <minimizedAffinity>
-6.42923

$$$$
1220


 27 30  0  0  0  0  0  0  0  0999 V2000
   21.4089   63.5994  -11.9856 S   0  0  0  0  0  0  0  0  0  0  0  0
   22.9497   62.6363  -12.2638 C   0  0  0  0  0  0  0  0  0  0  0  0
   23.8855   62.6860  -11.1304 C   0  0  0  0  0  0  0  0  0  0  0  0
   23.6554   63.6481  -10.0381 C   0  0  0  0  0  0  0  0  0  0  0  0
   22.3730   63.7185   -9.4677 N   0  0  0  0  0  0  0  0  0  0  0  0
   21.8737   64.0672   -8.1724 C   0  0  0  0  0  0  0  0  0  0  0  0
   20.6780   63.1454   -8.0757 C   0  0  0  0  0  0  0  0  0  0  0  0
   20.2208   63.1115   -9.4486 N   0  0  0  0  0  0  0  0  0  0  0  0
   21.1623   63.4192  -10.2093 C   0  0  0  0  0  0  0  0  0  0  0  0
   21.3657   65.3682   -8.2111 O   0  0  0  0  0  0  0  0  0  0  0  0
   20.5465   65.4031   -7.6907 H   0  0  0  0  0  0  0  0  0  0  0  0
   18.8870   62.7912   -9.8614 C   0  0  0  0  0  0  0  0  0  0  0  0
   17.9907   63.8306  -10.0672 C   0  0  0  0  0  0  0  0  0  0  0  0
   16.6719   63.5941  -10.4488 C   0  0  0  0  0  0  0  0  0  0  0  0
   16.2152   62.3079  -10.6326 C   0  0  0  0  0  0  0  0  0  0  0  0
   17.0909   61.2684  -10.4328 C   0  0  0  0  0  0  0  0  0  0  0  0
   18.4105   61.5365  -10.0478 C   0  0  0  0  0  0  0  0  0  0  0  0
   14.3881   61.9878  -11.1428 Br  0  0  0  0  0  0  0  0  0  0  0  0
   22.8035   63.8802   -7.0425 C   0  0  0  0  0  0  0  0  0  0  0  0
   22.4577   64.4683   -5.8296 C   0  0  0  0  0  0  0  0  0  0  0  0
   23.2591   64.3473   -4.7164 C   0  0  0  0  0  0  0  0  0  0  0  0
   24.4454   63.6359   -4.7476 C   0  0  0  0  0  0  0  0  0  0  0  0
   24.7924   63.0478   -5.9488 C   0  0  0  0  0  0  0  0  0  0  0  0
   23.9767   63.1729   -7.0783 C   0  0  0  0  0  0  0  0  0  0  0  0
   25.2503   63.5241   -3.5888 N   0  0  0  0  0  0  0  0  0  0  0  0
   25.1596   64.2838   -2.6177 O   0  0  0  0  0  0  0  0  0  0  0  0
   26.1827   62.5205   -3.5221 O   0  0  0  0  0  0  0  0  0  0  0  0
  1  2  1  0  0  0
  1  9  1  0  0  0
  2  3  1  0  0  0
  3  4  1  0  0  0
  4  5  1  0  0  0
  5  6  1  0  0  0
  5  9  1  0  0  0
  6  7  1  0  0  0
  6 10  1  0  0  0
  6 19  1  0  0  0
  7  8  1  0  0  0
  8  9  2  0  0  0
  8 12  1  0  0  0
 12 13  2  0  0  0
 12 17  1  0  0  0
 13 14  1  0  0  0
 14 15  2  0  0  0
 15 16  1  0  0  0
 15 18  1  0  0  0
 16 17  2  0  0  0
 19 20  2  0  0  0
 19 24  1  0  0  0
 20 21  1  0  0  0
 21 22  2  0  0  0
 22 23  1  0  0  0
 22 25  1  0  0  0
 23 24  2  0  0  0
 25 26  2  0  0  0
 25 27  1  0  0  0
 10 11  1  0  0  0
M  CHG 1  27  -1
M  END
> <minimizedAffinity>
-10.12093

$$$$
1222


 24 27  0  0  0  0  0  0  0  0999 V2000
   13.9924   65.4095  -16.2253 S   0  0  0  0  0  0  0  0  0  0  0  0
   14.4265   67.1475  -16.6825 C   0  0  0  0  0  0  0  0  0  0  0  0
   13.2205   68.0402  -16.5455 C   0  0  0  0  0  0  0  0  0  0  0  0
   11.9033   67.3249  -16.7544 C   0  0  0  0  0  0  0  0  0  0  0  0
   11.5432   66.4544  -15.7045 N   0  0  0  0  0  0  0  0  0  0  0  0
   10.3587   66.0000  -14.9553 C   0  0  0  0  0  0  0  0  0  0  0  0
   11.0095   65.8765  -13.5982 C   0  0  0  0  0  0  0  0  0  0  0  0
   12.2815   65.2600  -13.9446 N   0  0  0  0  0  0  0  0  0  0  0  0
   12.5940   65.6630  -15.0838 C   0  0  0  0  0  0  0  0  0  0  0  0
    9.3564   66.9205  -14.9260 O   0  0  0  0  0  0  0  0  0  0  0  0
    9.0897   67.3025  -15.7990 H   0  0  0  0  0  0  0  0  0  0  0  0
   12.9973   64.3054  -13.1314 C   0  0  0  0  0  0  0  0  0  0  0  0
   13.9074   64.6187  -12.1718 C   0  0  0  0  0  0  0  0  0  0  0  0
   14.6090   63.6664  -11.4430 C   0  0  0  0  0  0  0  0  0  0  0  0
   14.3914   62.3357  -11.6853 C   0  0  0  0  0  0  0  0  0  0  0  0
   13.4664   62.0127  -12.6592 C   0  0  0  0  0  0  0  0  0  0  0  0
   12.7773   62.9517  -13.3754 C   0  0  0  0  0  0  0  0  0  0  0  0
   15.3167   60.9499  -10.7318 Br  0  0  0  0  0  0  0  0  0  0  0  0
    9.9235   64.6435  -15.4268 C   0  0  0  0  0  0  0  0  0  0  0  0
   10.0716   64.2207  -16.7339 C   0  0  0  0  0  0  0  0  0  0  0  0
    9.6481   62.9456  -17.0858 C   0  0  0  0  0  0  0  0  0  0  0  0
    9.0784   62.0654  -16.1751 C   0  0  0  0  0  0  0  0  0  0  0  0
    8.9292   62.4769  -14.8786 C   0  0  0  0  0  0  0  0  0  0  0  0
    9.3505   63.7574  -14.5227 C   0  0  0  0  0  0  0  0  0  0  0  0
  1  2  1  0  0  0
  1  9  1  0  0  0
  2  3  1  0  0  0
  3  4  1  0  0  0
  4  5  1  0  0  0
  5  6  1  0  0  0
  5  9  1  0  0  0
  6  7  1  0  0  0
  6 10  1  0  0  0
  6 19  1  0  0  0
  7  8  1  0  0  0
  8  9  2  0  0  0
  8 12  1  0  0  0
 12 13  2  0  0  0
 12 17  1  0  0  0
 13 14  1  0  0  0
 14 15  2  0  0  0
 15 16  1  0  0  0
 15 18  1  0  0  0
 16 17  2  0  0  0
 19 20  2  0  0  0
 19 24  1  0  0  0
 20 21  1  0  0  0
 21 22  2  0  0  0
 22 23  1  0  0  0
 23 24  2  0  0  0
 10 11  1  0  0  0
M  END
> <minimizedAffinity>
-5.12184

$$$$
1224


 26 29  0  0  0  0  0  0  0  0999 V2000
   14.0148   65.6828  -15.8295 S   0  0  0  0  0  0  0  0  0  0  0  0
   13.8527   67.3543  -16.5803 C   0  0  0  0  0  0  0  0  0  0  0  0
   12.4568   67.3865  -17.1853 C   0  0  0  0  0  0  0  0  0  0  0  0
   11.3909   67.4022  -16.1352 C   0  0  0  0  0  0  0  0  0  0  0  0
   11.3351   66.2295  -15.3178 N   0  0  0  0  0  0  0  0  0  0  0  0
   10.2709   65.3945  -14.7529 C   0  0  0  0  0  0  0  0  0  0  0  0
   10.9107   65.1942  -13.3661 C   0  0  0  0  0  0  0  0  0  0  0  0
   12.2971   64.9529  -13.7216 N   0  0  0  0  0  0  0  0  0  0  0  0
   12.5213   65.5534  -14.8193 C   0  0  0  0  0  0  0  0  0  0  0  0
    9.1054   66.1186  -14.6646 O   0  0  0  0  0  0  0  0  0  0  0  0
    8.9869   66.5539  -13.7873 H   0  0  0  0  0  0  0  0  0  0  0  0
   10.1402   64.0950  -15.4354 C   0  0  0  0  0  0  0  0  0  0  0  0
   10.4063   63.8569  -16.7656 C   0  0  0  0  0  0  0  0  0  0  0  0
   10.2605   62.5916  -17.3097 C   0  0  0  0  0  0  0  0  0  0  0  0
    9.8473   61.5506  -16.5293 C   0  0  0  0  0  0  0  0  0  0  0  0
    9.5762   61.7715  -15.1968 C   0  0  0  0  0  0  0  0  0  0  0  0
    9.7249   63.0293  -14.6702 C   0  0  0  0  0  0  0  0  0  0  0  0
    9.6234   59.7722  -17.2228 Br  0  0  0  0  0  0  0  0  0  0  0  0
   13.1839   64.1558  -12.9042 C   0  0  0  0  0  0  0  0  0  0  0  0
   13.0374   62.7722  -12.8713 C   0  0  0  0  0  0  0  0  0  0  0  0
   13.8646   61.9856  -12.0999 C   0  0  0  0  0  0  0  0  0  0  0  0
   14.8744   62.5118  -11.3230 C   0  0  0  0  0  0  0  0  0  0  0  0
   15.0251   63.8774  -11.3490 C   0  0  0  0  0  0  0  0  0  0  0  0
   14.1800   64.6758  -12.1361 C   0  0  0  0  0  0  0  0  0  0  0  0
   15.6913   61.6860  -10.5587 O   0  0  0  0  0  0  0  0  0  0  0  0
   15.6984   60.2874  -10.5980 C   0  0  0  0  0  0  0  0  0  0  0  0
  1  2  1  0  0  0
  1  9  1  0  0  0
  2  3  1  0  0  0
  3  4  1  0  0  0
  4  5  1  0  0  0
  5  6  1  0  0  0
  5  9  1  0  0  0
  6  7  1  0  0  0
  6 10  1  0  0  0
  6 12  1  0  0  0
  7  8  1  0  0  0
  8  9  2  0  0  0
  8 19  1  0  0  0
 19 20  2  0  0  0
 19 24  1  0  0  0
 20 21  1  0  0  0
 21 22  2  0  0  0
 22 23  1  0  0  0
 22 25  1  0  0  0
 23 24  2  0  0  0
 25 26  1  0  0  0
 12 13  2  0  0  0
 12 17  1  0  0  0
 13 14  1  0  0  0
 14 15  2  0  0  0
 15 16  1  0  0  0
 15 18  1  0  0  0
 16 17  2  0  0  0
 10 11  1  0  0  0
M  END
> <minimizedAffinity>
-5.18746

$$$$
1226


 24 27  0  0  0  0  0  0  0  0999 V2000
   20.1940   63.0284  -11.9871 S   0  0  0  0  0  0  0  0  0  0  0  0
   18.7929   62.1865  -11.1991 C   0  0  0  0  0  0  0  0  0  0  0  0
   19.3073   61.6753   -9.8497 C   0  0  0  0  0  0  0  0  0  0  0  0
   19.6452   62.8976   -8.9812 C   0  0  0  0  0  0  0  0  0  0  0  0
   20.9991   63.3379   -9.3387 N   0  0  0  0  0  0  0  0  0  0  0  0
   22.1042   63.7691   -8.5840 C   0  0  0  0  0  0  0  0  0  0  0  0
   23.2794   63.7232   -9.5549 C   0  0  0  0  0  0  0  0  0  0  0  0
   22.6725   63.5087  -10.8326 N   0  0  0  0  0  0  0  0  0  0  0  0
   21.4220   63.3324  -10.6949 C   0  0  0  0  0  0  0  0  0  0  0  0
   22.3979   62.8051   -7.5938 O   0  0  0  0  0  0  0  0  0  0  0  0
   21.6477   62.8400   -6.9447 H   0  0  0  0  0  0  0  0  0  0  0  0
   22.0656   65.0860   -7.9514 C   0  0  0  0  0  0  0  0  0  0  0  0
   23.1436   65.4070   -7.1278 C   0  0  0  0  0  0  0  0  0  0  0  0
   23.2793   66.6214   -6.4809 C   0  0  0  0  0  0  0  0  0  0  0  0
   22.3193   67.5837   -6.6330 C   0  0  0  0  0  0  0  0  0  0  0  0
   21.2410   67.2842   -7.4462 C   0  0  0  0  0  0  0  0  0  0  0  0
   21.1177   66.0580   -8.0930 C   0  0  0  0  0  0  0  0  0  0  0  0
   22.4539   69.3032   -5.7687 Br  0  0  0  0  0  0  0  0  0  0  0  0
   23.4403   63.4618  -12.0461 C   0  0  0  0  0  0  0  0  0  0  0  0
   22.7912   63.4508  -13.2381 C   0  0  0  0  0  0  0  0  0  0  0  0
   23.5587   63.4359  -14.3984 C   0  0  0  0  0  0  0  0  0  0  0  0
   24.9354   63.4326  -14.3838 C   0  0  0  0  0  0  0  0  0  0  0  0
   25.5499   63.4419  -13.1483 C   0  0  0  0  0  0  0  0  0  0  0  0
   24.8232   63.4567  -11.9827 C   0  0  0  0  0  0  0  0  0  0  0  0
  1  2  1  0  0  0
  1  9  1  0  0  0
  2  3  1  0  0  0
  3  4  1  0  0  0
  4  5  1  0  0  0
  5  6  1  0  0  0
  5  9  1  0  0  0
  6  7  1  0  0  0
  6 10  1  0  0  0
  6 12  1  0  0  0
  7  8  1  0  0  0
  8  9  2  0  0  0
  8 19  1  0  0  0
 19 20  2  0  0  0
 19 24  1  0  0  0
 20 21  1  0  0  0
 21 22  2  0  0  0
 22 23  1  0  0  0
 23 24  2  0  0  0
 12 13  2  0  0  0
 12 17  1  0  0  0
 13 14  1  0  0  0
 14 15  2  0  0  0
 15 16  1  0  0  0
 15 18  1  0  0  0
 16 17  2  0  0  0
 10 11  1  0  0  0
M  END
> <minimizedAffinity>
-7.16829

$$$$
1231


 37 40  0  0  0  0  0  0  0  0999 V2000
   20.3569   63.7809   -9.7990 C   0  0  0  0  0  0  0  0  0  0  0  0
   20.8029   63.4449   -8.5820 N   0  0  0  0  0  0  0  0  0  0  0  0
   19.7163   63.0433   -7.8987 N   0  0  0  0  0  0  0  0  0  0  0  0
   18.6578   63.1156   -8.6222 N   0  0  0  0  0  0  0  0  0  0  0  0
   18.9740   63.5867   -9.8825 C   0  0  0  0  0  0  0  0  0  0  0  0
   22.1085   63.4285   -8.0106 C   0  0  0  0  0  0  0  0  0  0  0  0
   23.1756   62.6908   -8.3800 N   0  0  0  0  0  0  0  0  0  0  0  0
   24.2074   62.9419   -7.6649 O   0  0  0  0  0  0  0  0  0  0  0  0
   23.8820   63.8470   -6.7965 N   0  0  0  0  0  0  0  0  0  0  0  0
   22.5715   64.1962   -6.9631 C   0  0  0  0  0  0  0  0  0  0  0  0
   21.8582   65.1640   -6.2201 N   0  0  0  0  0  0  0  0  0  0  0  0
   22.5504   65.6918   -5.6259 H   0  0  0  0  0  0  0  0  0  0  0  0
   21.0980   64.7822   -5.6305 H   0  0  0  0  0  0  0  0  0  0  0  0
   21.4501   65.8728   -6.8887 H   0  0  0  0  0  0  0  0  0  0  0  0
   18.0109   63.7691  -10.9372 C   0  0  0  0  0  0  0  0  0  0  0  0
   18.3136   63.2661  -12.0904 O   0  0  0  0  0  0  0  0  0  0  0  0
   16.7824   64.4206  -10.8870 N   0  0  0  0  0  0  0  0  0  0  0  0
   16.3371   64.9007  -10.0868 H   0  0  0  0  0  0  0  0  0  0  0  0
   15.9609   64.4875  -12.0659 N   0  0  0  0  0  0  0  0  0  0  0  0
   14.6893   64.5293  -11.9989 C   0  0  0  0  0  0  0  0  0  0  0  0
   13.8222   64.5979  -13.1670 C   0  0  0  0  0  0  0  0  0  0  0  0
   12.8670   63.6387  -13.4170 C   0  0  0  0  0  0  0  0  0  0  0  0
   12.0339   63.6931  -14.5150 C   0  0  0  0  0  0  0  0  0  0  0  0
   12.1263   64.7215  -15.4172 C   0  0  0  0  0  0  0  0  0  0  0  0
   13.0892   65.7178  -15.1939 C   0  0  0  0  0  0  0  0  0  0  0  0
   13.9067   65.6348  -14.0872 C   0  0  0  0  0  0  0  0  0  0  0  0
   11.2790   64.7562  -16.5144 O   0  0  0  0  0  0  0  0  0  0  0  0
   10.7222   62.3367  -14.8192 Br  0  0  0  0  0  0  0  0  0  0  0  0
   13.1281   66.7188  -16.1363 O   0  0  0  0  0  0  0  0  0  0  0  0
   14.2602   67.1115  -16.8719 C   0  0  0  0  0  0  0  0  0  0  0  0
   21.1575   64.2607  -10.9363 C   0  0  0  0  0  0  0  0  0  0  0  0
   21.6969   63.0473  -12.1221 S   0  0  0  0  0  0  0  0  0  0  0  0
   23.8093   63.6597  -14.3603 S   0  0  0  0  0  0  0  0  0  0  0  0
   25.6098   63.5478  -14.1266 C   0  0  0  0  0  0  0  0  0  0  0  0
   25.6693   63.5152  -12.6330 C   0  0  0  0  0  0  0  0  0  0  0  0
   24.4545   63.2900  -12.0328 N   0  0  0  0  0  0  0  0  0  0  0  0
   23.3845   63.3038  -12.6553 C   0  0  0  0  0  0  0  0  0  0  0  0
 33 34  1  0  0  0
 33 37  1  0  0  0
 34 35  1  0  0  0
 35 36  1  0  0  0
 36 37  2  0  0  0
 37 32  1  0  0  0
 32 31  1  0  0  0
 31  1  1  0  0  0
  1  2  1  0  0  0
  1  5  2  0  0  0
  2  3  1  0  0  0
  2  6  1  0  0  0
  3  4  2  0  0  0
  4  5  1  0  0  0
  5 15  1  0  0  0
 15 16  2  0  0  0
 15 17  1  0  0  0
 17 19  1  0  0  0
 19 20  2  0  0  0
 20 21  1  0  0  0
 21 22  2  0  0  0
 21 26  1  0  0  0
 22 23  1  0  0  0
 23 24  2  0  0  0
 23 28  1  0  0  0
 24 25  1  0  0  0
 24 27  1  0  0  0
 25 26  2  0  0  0
 25 29  1  0  0  0
 29 30  1  0  0  0
  6  7  2  0  0  0
  6 10  1  0  0  0
  7  8  1  0  0  0
  8  9  1  0  0  0
  9 10  2  0  0  0
 10 11  1  0  0  0
 17 18  1  0  0  0
 11 12  1  0  0  0
 11 13  1  0  0  0
 11 14  1  0  0  0
M  CHG 1  11   1
M  CHG 1  27  -1
M  END
> <minimizedAffinity>
-7.17876

$$$$
1236


 30 34  0  0  0  0  0  0  0  0999 V2000
   11.2381   64.0507  -14.5771 C   0  0  0  0  0  0  0  0  0  0  0  0
    8.8308   59.7409  -14.3085 S   0  0  0  0  0  0  0  0  0  0  0  0
    9.0512   59.2918  -16.0962 C   0  0  0  0  0  0  0  0  0  0  0  0
    9.5853   60.6231  -16.5590 C   0  0  0  0  0  0  0  0  0  0  0  0
   10.5231   61.1434  -15.6048 N   0  0  0  0  0  0  0  0  0  0  0  0
   10.2651   60.7956  -14.2626 C   0  0  0  0  0  0  0  0  0  0  0  0
   11.0054   61.2097  -13.3244 N   0  0  0  0  0  0  0  0  0  0  0  0
   12.1342   62.0771  -13.5477 C   0  0  0  0  0  0  0  0  0  0  0  0
   13.0936   62.1732  -12.7432 O   0  0  0  0  0  0  0  0  0  0  0  0
   12.1342   62.8832  -14.7992 C   0  0  0  0  0  0  0  0  0  0  0  0
   11.6678   61.9907  -15.8850 C   0  0  0  0  0  0  0  0  0  0  0  0
   12.1878   61.9125  -17.0243 O   0  0  0  0  0  0  0  0  0  0  0  0
    9.9595   64.0005  -15.3765 C   0  0  0  0  0  0  0  0  0  0  0  0
    9.9496   64.8746  -16.5606 C   0  0  0  0  0  0  0  0  0  0  0  0
   10.5910   64.5290  -17.6140 O   0  0  0  0  0  0  0  0  0  0  0  0
    9.2185   66.1262  -16.5390 N   0  0  0  0  0  0  0  0  0  0  0  0
    9.3018   67.1835  -17.5080 C   0  0  0  0  0  0  0  0  0  0  0  0
    9.0493   68.5224  -16.8607 C   0  0  0  0  0  0  0  0  0  0  0  0
    7.6375   67.9885  -15.7844 S   0  0  0  0  0  0  0  0  0  0  0  0
    8.3045   66.3528  -15.4863 C   0  0  0  0  0  0  0  0  0  0  0  0
    8.0929   65.5035  -14.5569 N   0  0  0  0  0  0  0  0  0  0  0  0
    8.7779   64.2418  -14.5112 C   0  0  0  0  0  0  0  0  0  0  0  0
    8.3426   63.3655  -13.7228 O   0  0  0  0  0  0  0  0  0  0  0  0
   11.9996   65.2967  -14.8176 C   0  0  0  0  0  0  0  0  0  0  0  0
   11.5336   66.5183  -14.3480 C   0  0  0  0  0  0  0  0  0  0  0  0
   12.2367   67.6851  -14.5633 C   0  0  0  0  0  0  0  0  0  0  0  0
   13.4278   67.6631  -15.2543 C   0  0  0  0  0  0  0  0  0  0  0  0
   13.8824   66.4645  -15.7138 C   0  0  0  0  0  0  0  0  0  0  0  0
   13.1904   65.2889  -15.5068 C   0  0  0  0  0  0  0  0  0  0  0  0
   11.6046   69.3677  -13.9218 Br  0  0  0  0  0  0  0  0  0  0  0  0
  2  3  1  0  0  0
  2  6  1  0  0  0
  3  4  1  0  0  0
  4  5  1  0  0  0
  5  6  1  0  0  0
  5 11  1  0  0  0
  6  7  2  0  0  0
  7  8  1  0  0  0
  8  9  2  0  0  0
  8 10  1  0  0  0
 10 11  1  0  0  0
 10  1  1  0  0  0
 11 12  2  0  0  0
  1 13  1  0  0  0
  1 24  1  0  0  0
 13 14  1  0  0  0
 13 22  1  0  0  0
 14 15  2  0  0  0
 14 16  1  0  0  0
 16 17  1  0  0  0
 16 20  1  0  0  0
 17 18  1  0  0  0
 18 19  1  0  0  0
 19 20  1  0  0  0
 20 21  2  0  0  0
 21 22  1  0  0  0
 22 23  2  0  0  0
 24 25  2  0  0  0
 24 29  1  0  0  0
 25 26  1  0  0  0
 26 27  2  0  0  0
 26 30  1  0  0  0
 27 28  1  0  0  0
 28 29  2  0  0  0
M  END
> <minimizedAffinity>
-4.74877

$$$$
1237


 30 34  0  0  0  0  0  0  0  0999 V2000
   22.6886   64.9583   -7.8831 C   0  0  0  0  0  0  0  0  0  0  0  0
   19.3229   61.5926  -10.2577 S   0  0  0  0  0  0  0  0  0  0  0  0
   18.1557   62.4962   -9.1491 C   0  0  0  0  0  0  0  0  0  0  0  0
   18.5695   63.8973   -9.4716 C   0  0  0  0  0  0  0  0  0  0  0  0
   19.9659   63.9994   -9.6712 N   0  0  0  0  0  0  0  0  0  0  0  0
   20.6247   62.8484  -10.1516 C   0  0  0  0  0  0  0  0  0  0  0  0
   21.8939   62.7863  -10.4006 N   0  0  0  0  0  0  0  0  0  0  0  0
   22.7381   63.9590  -10.2350 C   0  0  0  0  0  0  0  0  0  0  0  0
   23.7625   63.9325  -10.9599 O   0  0  0  0  0  0  0  0  0  0  0  0
   22.2970   64.9559   -9.3005 C   0  0  0  0  0  0  0  0  0  0  0  0
   20.8076   65.1558   -9.4578 C   0  0  0  0  0  0  0  0  0  0  0  0
   20.3017   66.2915   -9.4071 O   0  0  0  0  0  0  0  0  0  0  0  0
   22.2532   63.9071   -6.9544 C   0  0  0  0  0  0  0  0  0  0  0  0
   23.4174   62.9293   -6.7962 C   0  0  0  0  0  0  0  0  0  0  0  0
   23.6433   62.0800   -7.6880 O   0  0  0  0  0  0  0  0  0  0  0  0
   24.2566   62.9857   -5.6195 N   0  0  0  0  0  0  0  0  0  0  0  0
   25.5444   62.4079   -5.4473 C   0  0  0  0  0  0  0  0  0  0  0  0
   26.3801   63.2056   -4.4772 C   0  0  0  0  0  0  0  0  0  0  0  0
   25.0283   63.5809   -3.2634 S   0  0  0  0  0  0  0  0  0  0  0  0
   23.7417   63.6760   -4.4955 C   0  0  0  0  0  0  0  0  0  0  0  0
   22.5977   64.2363   -4.4636 N   0  0  0  0  0  0  0  0  0  0  0  0
   21.7367   64.1826   -5.6405 C   0  0  0  0  0  0  0  0  0  0  0  0
   20.5298   64.3865   -5.4173 O   0  0  0  0  0  0  0  0  0  0  0  0
   22.6599   66.3459   -7.2789 C   0  0  0  0  0  0  0  0  0  0  0  0
   21.5308   67.1258   -7.3521 C   0  0  0  0  0  0  0  0  0  0  0  0
   21.5449   68.3803   -6.7973 C   0  0  0  0  0  0  0  0  0  0  0  0
   22.6329   68.8994   -6.1693 C   0  0  0  0  0  0  0  0  0  0  0  0
   23.7762   68.1445   -6.0804 C   0  0  0  0  0  0  0  0  0  0  0  0
   23.7621   66.8686   -6.6450 C   0  0  0  0  0  0  0  0  0  0  0  0
   22.6430   70.6553   -5.3962 Br  0  0  0  0  0  0  0  0  0  0  0  0
  2  3  1  0  0  0
  2  6  1  0  0  0
  3  4  1  0  0  0
  4  5  1  0  0  0
  5  6  1  0  0  0
  5 11  1  0  0  0
  6  7  2  0  0  0
  7  8  1  0  0  0
  8  9  2  0  0  0
  8 10  1  0  0  0
 10 11  1  0  0  0
 10  1  1  0  0  0
 11 12  2  0  0  0
  1 13  1  0  0  0
  1 24  1  0  0  0
 13 14  1  0  0  0
 13 22  1  0  0  0
 14 15  2  0  0  0
 14 16  1  0  0  0
 16 17  1  0  0  0
 16 20  1  0  0  0
 17 18  1  0  0  0
 18 19  1  0  0  0
 19 20  1  0  0  0
 20 21  2  0  0  0
 21 22  1  0  0  0
 22 23  2  0  0  0
 24 25  2  0  0  0
 24 29  1  0  0  0
 25 26  1  0  0  0
 26 27  2  0  0  0
 27 28  1  0  0  0
 27 30  1  0  0  0
 28 29  2  0  0  0
M  END
> <minimizedAffinity>
-3.05992

$$$$
1248


 21 24  0  0  0  0  0  0  0  0999 V2000
   20.4645   62.8636  -12.4396 S   0  0  0  0  0  0  0  0  0  0  0  0
   21.9615   63.1030  -11.6325 C   0  0  0  0  0  0  0  0  0  0  0  0
   21.5469   63.4447  -10.4136 N   0  0  0  0  0  0  0  0  0  0  0  0
   22.7116   63.6515   -9.7108 C   0  0  0  0  0  0  0  0  0  0  0  0
   23.7564   63.4338  -10.5082 N   0  0  0  0  0  0  0  0  0  0  0  0
   23.3313   63.0915  -11.7071 N   0  0  0  0  0  0  0  0  0  0  0  0
   20.2987   63.5019  -10.1780 N   0  0  0  0  0  0  0  0  0  0  0  0
   19.4165   63.2293  -11.1192 C   0  0  0  0  0  0  0  0  0  0  0  0
   17.9508   63.2317  -11.0724 C   0  0  0  0  0  0  0  0  0  0  0  0
   17.1383   64.2082  -11.4941 N   0  0  0  0  0  0  0  0  0  0  0  0
   15.8632   63.8425  -11.2846 N   0  0  0  0  0  0  0  0  0  0  0  0
   15.8507   62.6175  -10.7225 C   0  0  0  0  0  0  0  0  0  0  0  0
   17.1861   62.2289  -10.5878 C   0  0  0  0  0  0  0  0  0  0  0  0
   17.7305   60.5812   -9.8493 Br  0  0  0  0  0  0  0  0  0  0  0  0
   15.0304   64.4268  -11.5254 H   0  0  0  0  0  0  0  0  0  0  0  0
   22.8112   64.0533   -8.2928 C   0  0  0  0  0  0  0  0  0  0  0  0
   21.9946   64.9900   -7.7761 N   0  0  0  0  0  0  0  0  0  0  0  0
   22.0960   65.3492   -6.4770 C   0  0  0  0  0  0  0  0  0  0  0  0
   23.0309   64.7638   -5.6686 C   0  0  0  0  0  0  0  0  0  0  0  0
   23.8323   63.8361   -6.1943 N   0  0  0  0  0  0  0  0  0  0  0  0
   23.7534   63.4587   -7.4891 C   0  0  0  0  0  0  0  0  0  0  0  0
  1  2  1  0  0  0
  1  8  1  0  0  0
  2  3  1  0  0  0
  2  6  2  0  0  0
  3  4  1  0  0  0
  3  7  1  0  0  0
  4  5  2  0  0  0
  4 16  1  0  0  0
  5  6  1  0  0  0
 16 17  2  0  0  0
 16 21  1  0  0  0
 17 18  1  0  0  0
 18 19  2  0  0  0
 19 20  1  0  0  0
 20 21  2  0  0  0
  7  8  2  0  0  0
  8  9  1  0  0  0
  9 10  2  0  0  0
  9 13  1  0  0  0
 10 11  1  0  0  0
 11 12  1  0  0  0
 12 13  2  0  0  0
 13 14  1  0  0  0
 11 15  1  0  0  0
M  END
> <minimizedAffinity>
-7.79336

$$$$
1255


 34 38  0  0  0  0  0  0  0  0999 V2000
   10.6514   63.9737  -15.2767 C   0  0  0  0  0  0  0  0  0  0  0  0
   13.7751   62.2913  -12.1787 S   0  0  0  0  0  0  0  0  0  0  0  0
   13.2664   62.7120  -13.8374 C   0  0  0  0  0  0  0  0  0  0  0  0
   12.8632   61.9683  -14.8156 N   0  0  0  0  0  0  0  0  0  0  0  0
   12.5054   62.5783  -16.0771 C   0  0  0  0  0  0  0  0  0  0  0  0
   12.6001   62.0476  -17.1826 O   0  0  0  0  0  0  0  0  0  0  0  0
   11.9647   64.0054  -16.0059 C   0  0  0  0  0  0  0  0  0  0  0  0
   13.0381   64.6942  -15.2224 C   0  0  0  0  0  0  0  0  0  0  0  0
   13.6349   65.7323  -15.6290 O   0  0  0  0  0  0  0  0  0  0  0  0
   13.3932   64.1149  -13.9333 N   0  0  0  0  0  0  0  0  0  0  0  0
   13.8431   64.7590  -12.8125 N   0  0  0  0  0  0  0  0  0  0  0  0
   14.1332   63.9688  -11.6793 C   0  0  0  0  0  0  0  0  0  0  0  0
   14.5766   64.3531  -10.4860 C   0  0  0  0  0  0  0  0  0  0  0  0
   13.9945   65.8278  -12.7536 H   0  0  0  0  0  0  0  0  0  0  0  0
    9.6633   65.0200  -15.6058 C   0  0  0  0  0  0  0  0  0  0  0  0
   10.1185   66.1748  -16.3653 C   0  0  0  0  0  0  0  0  0  0  0  0
    9.8696   66.2562  -17.6160 O   0  0  0  0  0  0  0  0  0  0  0  0
   10.8558   67.2559  -15.7374 N   0  0  0  0  0  0  0  0  0  0  0  0
   11.7050   68.1397  -16.3220 N   0  0  0  0  0  0  0  0  0  0  0  0
   12.3016   69.1182  -15.4883 C   0  0  0  0  0  0  0  0  0  0  0  0
   13.1430   70.0814  -15.7943 C   0  0  0  0  0  0  0  0  0  0  0  0
   11.6580   68.7743  -13.8528 S   0  0  0  0  0  0  0  0  0  0  0  0
   10.6458   67.3933  -14.3504 C   0  0  0  0  0  0  0  0  0  0  0  0
    9.8673   66.6358  -13.6627 N   0  0  0  0  0  0  0  0  0  0  0  0
    9.1404   65.5653  -14.2881 C   0  0  0  0  0  0  0  0  0  0  0  0
    8.1111   65.0529  -13.8251 O   0  0  0  0  0  0  0  0  0  0  0  0
   11.9577   68.1563  -17.3702 H   0  0  0  0  0  0  0  0  0  0  0  0
   10.0169   62.6270  -15.3569 C   0  0  0  0  0  0  0  0  0  0  0  0
    9.8802   61.8351  -14.2402 C   0  0  0  0  0  0  0  0  0  0  0  0
    9.2962   60.5912  -14.3084 C   0  0  0  0  0  0  0  0  0  0  0  0
    8.8367   60.1229  -15.5188 C   0  0  0  0  0  0  0  0  0  0  0  0
    8.9561   60.8944  -16.6767 C   0  0  0  0  0  0  0  0  0  0  0  0
    9.5475   62.1361  -16.5662 C   0  0  0  0  0  0  0  0  0  0  0  0
    8.0198   58.3984  -15.6466 Br  0  0  0  0  0  0  0  0  0  0  0  0
  2  3  1  0  0  0
  2 12  1  0  0  0
  3  4  2  0  0  0
  3 10  1  0  0  0
  4  5  1  0  0  0
  5  6  2  0  0  0
  5  7  1  0  0  0
  7  8  1  0  0  0
  7  1  1  0  0  0
  8  9  2  0  0  0
  8 10  1  0  0  0
 10 11  1  0  0  0
 11 12  1  0  0  0
 12 13  2  0  0  0
  1 15  1  0  0  0
  1 28  1  0  0  0
 15 16  1  0  0  0
 15 25  1  0  0  0
 16 17  2  0  0  0
 16 18  1  0  0  0
 18 19  1  0  0  0
 18 23  1  0  0  0
 19 20  1  0  0  0
 20 21  2  0  0  0
 20 22  1  0  0  0
 22 23  1  0  0  0
 23 24  2  0  0  0
 24 25  1  0  0  0
 25 26  2  0  0  0
 28 29  2  0  0  0
 28 33  1  0  0  0
 29 30  1  0  0  0
 30 31  2  0  0  0
 31 32  1  0  0  0
 31 34  1  0  0  0
 32 33  2  0  0  0
 11 14  1  0  0  0
 19 27  1  0  0  0
M  END
> <minimizedAffinity>
-3.94733

$$$$
1256


 30 33  0  0  0  0  0  0  0  0999 V2000
   21.0573   63.7752   -7.1497 S   0  0  0  0  0  0  0  0  0  0  0  0
   20.6942   63.6851   -8.8210 C   0  0  0  0  0  0  0  0  0  0  0  0
   19.5458   63.8044   -9.5576 N   0  0  0  0  0  0  0  0  0  0  0  0
   19.5684   63.7166  -10.8976 C   0  0  0  0  0  0  0  0  0  0  0  0
   18.5783   63.8136  -11.6467 O   0  0  0  0  0  0  0  0  0  0  0  0
   20.8102   63.5020  -11.4476 C   0  0  0  0  0  0  0  0  0  0  0  0
   21.9582   63.3814  -10.7214 C   0  0  0  0  0  0  0  0  0  0  0  0
   21.9025   63.4772   -9.3530 N   0  0  0  0  0  0  0  0  0  0  0  0
   22.8994   63.4104   -8.5583 N   0  0  0  0  0  0  0  0  0  0  0  0
   22.7640   63.5367   -7.2686 C   0  0  0  0  0  0  0  0  0  0  0  0
   23.7583   63.5124   -6.2174 N   0  0  0  0  0  0  0  0  0  0  0  0
   25.0203   62.9167   -6.4359 C   0  0  0  0  0  0  0  0  0  0  0  0
   25.8367   62.9367   -5.1650 C   0  0  0  0  0  0  0  0  0  0  0  0
   25.0110   62.6551   -4.0734 O   0  0  0  0  0  0  0  0  0  0  0  0
   24.1785   63.7479   -3.8031 C   0  0  0  0  0  0  0  0  0  0  0  0
   23.3527   64.1202   -4.9956 C   0  0  0  0  0  0  0  0  0  0  0  0
   23.2065   63.1667  -11.4510 C   0  0  0  0  0  0  0  0  0  0  0  0
   24.1048   62.3978  -10.9466 O   0  0  0  0  0  0  0  0  0  0  0  0
   23.5216   63.7527  -12.6940 N   0  0  0  0  0  0  0  0  0  0  0  0
   22.8670   64.4043  -13.1668 H   0  0  0  0  0  0  0  0  0  0  0  0
   24.7970   63.4517  -13.3336 C   0  0  0  0  0  0  0  0  0  0  0  0
   24.6388   63.3687  -14.8064 C   0  0  0  0  0  0  0  0  0  0  0  0
   25.7365   63.0386  -15.5858 C   0  0  0  0  0  0  0  0  0  0  0  0
   25.6108   62.9998  -16.9519 C   0  0  0  0  0  0  0  0  0  0  0  0
   24.4277   63.2791  -17.5844 C   0  0  0  0  0  0  0  0  0  0  0  0
   23.3278   63.6087  -16.8147 C   0  0  0  0  0  0  0  0  0  0  0  0
   23.4581   63.6458  -15.4359 C   0  0  0  0  0  0  0  0  0  0  0  0
   21.6415   64.0058  -17.6159 Br  0  0  0  0  0  0  0  0  0  0  0  0
   26.9205   62.7610  -14.9394 O   0  0  0  0  0  0  0  0  0  0  0  0
   28.1209   63.3409  -15.4498 C   0  0  0  0  0  0  0  0  0  0  0  0
  1  2  1  0  0  0
  1 10  1  0  0  0
  2  3  2  0  0  0
  2  8  1  0  0  0
  3  4  1  0  0  0
  4  5  2  0  0  0
  4  6  1  0  0  0
  6  7  2  0  0  0
  7  8  1  0  0  0
  7 17  1  0  0  0
  8  9  1  0  0  0
  9 10  2  0  0  0
 10 11  1  0  0  0
 11 12  1  0  0  0
 11 16  1  0  0  0
 12 13  1  0  0  0
 13 14  1  0  0  0
 14 15  1  0  0  0
 15 16  1  0  0  0
 17 18  2  0  0  0
 17 19  1  0  0  0
 19 21  1  0  0  0
 21 22  1  0  0  0
 22 23  2  0  0  0
 22 27  1  0  0  0
 23 24  1  0  0  0
 23 29  1  0  0  0
 24 25  2  0  0  0
 25 26  1  0  0  0
 26 27  2  0  0  0
 26 28  1  0  0  0
 29 30  1  0  0  0
 19 20  1  0  0  0
M  END
> <minimizedAffinity>
-8.04511

$$$$
1265


 24 27  0  0  0  0  0  0  0  0999 V2000
   22.3582   63.6963   -9.2583 S   0  0  0  0  0  0  0  0  0  0  0  0
   21.1864   63.2478  -10.5321 C   0  0  0  0  0  0  0  0  0  0  0  0
   19.9356   62.9820  -10.7249 N   0  0  0  0  0  0  0  0  0  0  0  0
   19.6675   62.6845  -12.0818 C   0  0  0  0  0  0  0  0  0  0  0  0
   20.9906   62.8075  -12.7638 C   0  0  0  0  0  0  0  0  0  0  0  0
   21.9582   63.1850  -11.7062 N   0  0  0  0  0  0  0  0  0  0  0  0
   23.3219   63.4694  -11.5696 C   0  0  0  0  0  0  0  0  0  0  0  0
   23.7586   63.7656  -10.3662 C   0  0  0  0  0  0  0  0  0  0  0  0
   24.3055   63.4710  -12.7016 C   0  0  0  0  0  0  0  0  0  0  0  0
   25.6612   63.3881  -12.4764 C   0  0  0  0  0  0  0  0  0  0  0  0
   26.6078   63.3895  -13.4786 C   0  0  0  0  0  0  0  0  0  0  0  0
   26.2163   63.4775  -14.7947 C   0  0  0  0  0  0  0  0  0  0  0  0
   24.8755   63.5617  -15.0443 C   0  0  0  0  0  0  0  0  0  0  0  0
   23.9173   63.5597  -14.0134 C   0  0  0  0  0  0  0  0  0  0  0  0
   18.9636   63.0177   -9.6175 C   0  0  0  0  0  0  0  0  0  0  0  0
   17.8838   62.0714   -9.9625 C   0  0  0  0  0  0  0  0  0  0  0  0
   17.9860   60.8523   -9.7184 O   0  0  0  0  0  0  0  0  0  0  0  0
   16.6680   62.5533  -10.6020 C   0  0  0  0  0  0  0  0  0  0  0  0
   16.5364   63.8907  -10.9807 C   0  0  0  0  0  0  0  0  0  0  0  0
   15.3904   64.3765  -11.5820 C   0  0  0  0  0  0  0  0  0  0  0  0
   14.3661   63.4944  -11.8023 C   0  0  0  0  0  0  0  0  0  0  0  0
   14.4476   62.1607  -11.4465 C   0  0  0  0  0  0  0  0  0  0  0  0
   15.6160   61.6941  -10.8406 C   0  0  0  0  0  0  0  0  0  0  0  0
   12.7808   64.1782  -12.6381 Br  0  0  0  0  0  0  0  0  0  0  0  0
  1  2  1  0  0  0
  1  8  1  0  0  0
  2  3  2  0  0  0
  2  6  1  0  0  0
  3  4  1  0  0  0
  3 15  1  0  0  0
  4  5  1  0  0  0
  5  6  1  0  0  0
  6  7  1  0  0  0
  7  8  2  0  0  0
  7  9  1  0  0  0
  9 10  2  0  0  0
  9 14  1  0  0  0
 10 11  1  0  0  0
 11 12  2  0  0  0
 12 13  1  0  0  0
 13 14  2  0  0  0
 15 16  1  0  0  0
 16 17  2  0  0  0
 16 18  1  0  0  0
 18 19  2  0  0  0
 18 23  1  0  0  0
 19 20  1  0  0  0
 20 21  2  0  0  0
 21 22  1  0  0  0
 21 24  1  0  0  0
 22 23  2  0  0  0
M  END
> <minimizedAffinity>
-9.16137

$$$$
1266


 28 31  0  0  0  0  0  0  0  0999 V2000
   20.0975   63.6713  -11.4594 C   0  0  0  0  0  0  0  0  0  0  0  0
   21.1487   62.8725  -12.0776 N   0  0  0  0  0  0  0  0  0  0  0  0
   22.4577   63.0163  -11.6425 C   0  0  0  0  0  0  0  0  0  0  0  0
   22.7230   63.4999  -10.2323 C   0  0  0  0  0  0  0  0  0  0  0  0
   21.7039   64.3031   -9.7127 N   0  0  0  0  0  0  0  0  0  0  0  0
   20.6399   64.7036  -10.5830 C   0  0  0  0  0  0  0  0  0  0  0  0
   21.6045   64.7750   -8.3784 C   0  0  0  0  0  0  0  0  0  0  0  0
   20.6191   65.6308   -8.2347 O   0  0  0  0  0  0  0  0  0  0  0  0
   20.8465   61.8812  -12.1653 H   0  0  0  0  0  0  0  0  0  0  0  0
   22.3359   64.5072   -7.1935 C   0  0  0  0  0  0  0  0  0  0  0  0
   21.6492   64.6483   -5.9629 C   0  0  0  0  0  0  0  0  0  0  0  0
   22.2162   64.2899   -4.8114 N   0  0  0  0  0  0  0  0  0  0  0  0
   23.4502   63.7848   -4.7613 C   0  0  0  0  0  0  0  0  0  0  0  0
   24.1635   63.6245   -5.9181 C   0  0  0  0  0  0  0  0  0  0  0  0
   23.6071   63.9875   -7.1427 C   0  0  0  0  0  0  0  0  0  0  0  0
   25.4739   63.0516   -5.8808 N   0  0  0  0  0  0  0  0  0  0  0  0
   26.0090   62.6564   -4.6167 C   0  0  0  0  0  0  0  0  0  0  0  0
   26.8951   61.7906   -4.4665 O   0  0  0  0  0  0  0  0  0  0  0  0
   25.4581   63.3350   -3.4033 C   0  0  0  0  0  0  0  0  0  0  0  0
   24.0305   63.4175   -3.5420 O   0  0  0  0  0  0  0  0  0  0  0  0
   26.0314   62.9131   -6.7371 H   0  0  0  0  0  0  0  0  0  0  0  0
   17.2460   64.2744  -11.7036 Cl  0  0  0  0  0  0  0  0  0  0  0  0
   17.8336   62.8174  -10.8758 C   0  0  0  0  0  0  0  0  0  0  0  0
   19.2243   62.6642  -10.7595 C   0  0  0  0  0  0  0  0  0  0  0  0
   19.6729   61.5454  -10.1205 C   0  0  0  0  0  0  0  0  0  0  0  0
   18.7770   60.6183   -9.6178 C   0  0  0  0  0  0  0  0  0  0  0  0
   17.4055   60.7672   -9.7308 C   0  0  0  0  0  0  0  0  0  0  0  0
   16.9304   61.9019  -10.3801 C   0  0  0  0  0  0  0  0  0  0  0  0
 22 23  1  0  0  0
 23 24  2  0  0  0
 23 28  1  0  0  0
 24 25  1  0  0  0
 24  1  1  0  0  0
 25 26  2  0  0  0
 26 27  1  0  0  0
 27 28  2  0  0  0
  1  2  1  0  0  0
  1  6  1  0  0  0
  2  3  1  0  0  0
  3  4  1  0  0  0
  4  5  1  0  0  0
  5  6  1  0  0  0
  5  7  1  0  0  0
  7  8  2  0  0  0
  7 10  1  0  0  0
 10 11  2  0  0  0
 10 15  1  0  0  0
 11 12  1  0  0  0
 12 13  2  0  0  0
 13 14  1  0  0  0
 13 20  1  0  0  0
 14 15  2  0  0  0
 14 16  1  0  0  0
 16 17  1  0  0  0
 17 18  2  0  0  0
 17 19  1  0  0  0
 19 20  1  0  0  0
  2  9  1  0  0  0
 16 21  1  0  0  0
M  END
> <minimizedAffinity>
-8.41427

$$$$
1271


 35 38  0  0  0  0  0  0  0  0999 V2000
   20.0805   62.8745  -11.5825 C   0  0  0  0  0  0  0  0  0  0  0  0
   20.0624   62.3612  -12.8197 N   0  0  0  0  0  0  0  0  0  0  0  0
   21.2852   62.4465  -13.2772 N   0  0  0  0  0  0  0  0  0  0  0  0
   22.0850   62.9999  -12.3692 N   0  0  0  0  0  0  0  0  0  0  0  0
   21.3869   63.2912  -11.2827 C   0  0  0  0  0  0  0  0  0  0  0  0
   23.4614   63.2478  -12.5846 C   0  0  0  0  0  0  0  0  0  0  0  0
   24.4089   63.0511  -11.6257 N   0  0  0  0  0  0  0  0  0  0  0  0
   25.5550   63.3723  -12.1375 O   0  0  0  0  0  0  0  0  0  0  0  0
   25.4336   63.7663  -13.3537 N   0  0  0  0  0  0  0  0  0  0  0  0
   24.1352   63.7050  -13.6783 C   0  0  0  0  0  0  0  0  0  0  0  0
   23.5459   64.0413  -14.9063 N   0  0  0  0  0  0  0  0  0  0  0  0
   23.6118   64.9652  -15.3870 H   0  0  0  0  0  0  0  0  0  0  0  0
   22.9831   63.3181  -15.4045 H   0  0  0  0  0  0  0  0  0  0  0  0
   18.1367   64.1295  -10.5988 N   0  0  0  0  0  0  0  0  0  0  0  0
   18.9184   62.9563  -10.7172 C   0  0  0  0  0  0  0  0  0  0  0  0
   18.5984   61.9443  -10.0527 O   0  0  0  0  0  0  0  0  0  0  0  0
   18.3613   65.0128  -11.1300 H   0  0  0  0  0  0  0  0  0  0  0  0
   17.0173   64.1943   -9.7689 N   0  0  0  0  0  0  0  0  0  0  0  0
   16.9776   63.8647   -8.7897 H   0  0  0  0  0  0  0  0  0  0  0  0
   15.8069   64.7687  -10.3066 C   0  0  0  0  0  0  0  0  0  0  0  0
   15.5281   66.0166  -10.0254 C   0  0  0  0  0  0  0  0  0  0  0  0
   12.3339   64.4779  -14.3268 Br  0  0  0  0  0  0  0  0  0  0  0  0
   13.3792   63.7166  -12.9319 C   0  0  0  0  0  0  0  0  0  0  0  0
   14.1860   64.4990  -12.1426 C   0  0  0  0  0  0  0  0  0  0  0  0
   14.9473   63.9327  -11.1211 C   0  0  0  0  0  0  0  0  0  0  0  0
   14.8478   62.5823  -10.9540 C   0  0  0  0  0  0  0  0  0  0  0  0
   14.0290   61.7832  -11.7523 C   0  0  0  0  0  0  0  0  0  0  0  0
   13.2905   62.3477  -12.7464 C   0  0  0  0  0  0  0  0  0  0  0  0
   21.7295   63.9287  -10.0321 C   0  0  0  0  0  0  0  0  0  0  0  0
   21.7538   63.0749   -8.8604 N   0  0  0  0  0  0  0  0  0  0  0  0
   23.0771   63.0803   -8.2439 C   0  0  0  0  0  0  0  0  0  0  0  0
   23.6181   64.4835   -8.0812 C   0  0  0  0  0  0  0  0  0  0  0  0
   22.6510   65.3190   -7.2616 C   0  0  0  0  0  0  0  0  0  0  0  0
   21.4652   64.5021   -6.8331 C   0  0  0  0  0  0  0  0  0  0  0  0
   20.8553   63.6188   -7.8463 C   0  0  0  0  0  0  0  0  0  0  0  0
 22 23  1  0  0  0
 23 24  2  0  0  0
 23 28  1  0  0  0
 24 25  1  0  0  0
 25 26  2  0  0  0
 25 20  1  0  0  0
 26 27  1  0  0  0
 27 28  2  0  0  0
 20 21  2  0  0  0
 20 18  1  0  0  0
 18 14  1  0  0  0
 14 15  1  0  0  0
 15 16  2  0  0  0
 15  1  1  0  0  0
  1  2  1  0  0  0
  1  5  2  0  0  0
  2  3  2  0  0  0
  3  4  1  0  0  0
  4  5  1  0  0  0
  4  6  1  0  0  0
  5 29  1  0  0  0
 29 30  1  0  0  0
 30 31  1  0  0  0
 30 35  1  0  0  0
 31 32  1  0  0  0
 32 33  1  0  0  0
 33 34  1  0  0  0
 34 35  1  0  0  0
  6  7  2  0  0  0
  6 10  1  0  0  0
  7  8  1  0  0  0
  8  9  1  0  0  0
  9 10  2  0  0  0
 10 11  1  0  0  0
 18 19  1  0  0  0
 14 17  1  0  0  0
 11 12  1  0  0  0
 11 13  1  0  0  0
M  END
> <minimizedAffinity>
-8.92653

$$$$
1280


 35 38  0  0  0  0  0  0  0  0999 V2000
   11.4886   66.7357  -15.1505 C   0  0  0  0  0  0  0  0  0  0  0  0
   11.8442   66.3887  -16.5119 N   0  0  0  0  0  0  0  0  0  0  0  0
   13.2359   66.1212  -16.5194 C   0  0  0  0  0  0  0  0  0  0  0  0
   13.9818   66.2363  -17.4973 O   0  0  0  0  0  0  0  0  0  0  0  0
   13.5854   65.6911  -15.1544 C   0  0  0  0  0  0  0  0  0  0  0  0
   14.7135   65.3501  -14.7231 O   0  0  0  0  0  0  0  0  0  0  0  0
   12.3344   65.7420  -14.4082 C   0  0  0  0  0  0  0  0  0  0  0  0
   12.0475   65.0163  -13.3368 C   0  0  0  0  0  0  0  0  0  0  0  0
   10.7483   65.2013  -12.8078 O   0  0  0  0  0  0  0  0  0  0  0  0
   13.7047   71.2681  -16.9570 Br  0  0  0  0  0  0  0  0  0  0  0  0
   12.8114   70.2405  -15.6011 C   0  0  0  0  0  0  0  0  0  0  0  0
   12.4850   68.8990  -15.8317 C   0  0  0  0  0  0  0  0  0  0  0  0
   11.8397   68.1354  -14.8694 C   0  0  0  0  0  0  0  0  0  0  0  0
   11.5396   68.7571  -13.6887 C   0  0  0  0  0  0  0  0  0  0  0  0
   11.8551   70.0870  -13.4422 C   0  0  0  0  0  0  0  0  0  0  0  0
   12.4952   70.8306  -14.4047 C   0  0  0  0  0  0  0  0  0  0  0  0
   12.9749   64.0799  -12.7117 C   0  0  0  0  0  0  0  0  0  0  0  0
   13.0498   62.7520  -13.0103 C   0  0  0  0  0  0  0  0  0  0  0  0
   13.9408   61.9086  -12.3221 C   0  0  0  0  0  0  0  0  0  0  0  0
   14.7695   62.3637  -11.3324 C   0  0  0  0  0  0  0  0  0  0  0  0
   14.6966   63.7066  -11.0298 C   0  0  0  0  0  0  0  0  0  0  0  0
   13.8326   64.5374  -11.6936 C   0  0  0  0  0  0  0  0  0  0  0  0
   12.2261   62.1803  -14.1013 C   0  0  0  0  0  0  0  0  0  0  0  0
   15.6557   61.5320  -10.6477 O   0  0  0  0  0  0  0  0  0  0  0  0
   16.9845   61.9291  -10.4273 C   0  0  0  0  0  0  0  0  0  0  0  0
   10.9078   66.3483  -17.6155 C   0  0  0  0  0  0  0  0  0  0  0  0
    9.8863   65.2614  -17.4971 C   0  0  0  0  0  0  0  0  0  0  0  0
   10.4166   63.8888  -17.3275 C   0  0  0  0  0  0  0  0  0  0  0  0
    9.6490   63.0311  -16.4967 N   0  0  0  0  0  0  0  0  0  0  0  0
    8.7679   63.7489  -15.5607 C   0  0  0  0  0  0  0  0  0  0  0  0
    8.4935   62.7583  -14.4273 C   0  0  0  0  0  0  0  0  0  0  0  0
    8.8928   61.4742  -14.7511 O   0  0  0  0  0  0  0  0  0  0  0  0
    8.3810   61.0894  -15.9907 C   0  0  0  0  0  0  0  0  0  0  0  0
    8.8596   62.0281  -17.1136 C   0  0  0  0  0  0  0  0  0  0  0  0
   10.3385   62.5237  -15.8622 H   0  0  0  0  0  0  0  0  0  0  0  0
 10 11  1  0  0  0
 11 12  2  0  0  0
 11 16  1  0  0  0
 12 13  1  0  0  0
 13 14  2  0  0  0
 13  1  1  0  0  0
 14 15  1  0  0  0
 15 16  2  0  0  0
  1  2  1  0  0  0
  1  7  1  0  0  0
  2  3  1  0  0  0
  2 26  1  0  0  0
  3  4  2  0  0  0
  3  5  1  0  0  0
  5  6  2  0  0  0
  5  7  1  0  0  0
  7  8  2  0  0  0
  8  9  1  0  0  0
  8 17  1  0  0  0
 17 18  2  0  0  0
 17 22  1  0  0  0
 18 19  1  0  0  0
 18 23  1  0  0  0
 19 20  2  0  0  0
 20 21  1  0  0  0
 20 24  1  0  0  0
 21 22  2  0  0  0
 24 25  1  0  0  0
 26 27  1  0  0  0
 27 28  1  0  0  0
 28 29  1  0  0  0
 29 30  1  0  0  0
 29 34  1  0  0  0
 30 31  1  0  0  0
 31 32  1  0  0  0
 32 33  1  0  0  0
 33 34  1  0  0  0
 29 35  1  0  0  0
M  CHG 1   9  -1
M  CHG 1  29   1
M  END
> <minimizedAffinity>
-5.62460

$$$$
1282


 30 33  0  0  0  0  0  0  0  0999 V2000
   18.3229   62.9078  -10.3929 C   0  0  0  0  0  0  0  0  0  0  0  0
   17.2395   63.9636  -10.2855 C   0  0  0  0  0  0  0  0  0  0  0  0
   16.1078   63.3332  -10.9366 N   0  0  0  0  0  0  0  0  0  0  0  0
   16.3836   61.9402  -11.2235 C   0  0  0  0  0  0  0  0  0  0  0  0
   17.5286   61.6409  -10.2464 C   0  0  0  0  0  0  0  0  0  0  0  0
   15.1892   61.1554  -10.9156 C   0  0  0  0  0  0  0  0  0  0  0  0
   15.2364   60.1693  -10.1657 O   0  0  0  0  0  0  0  0  0  0  0  0
   13.9626   61.5563  -11.5048 N   0  0  0  0  0  0  0  0  0  0  0  0
   13.7667   62.9417  -11.8676 C   0  0  0  0  0  0  0  0  0  0  0  0
   14.8203   63.8309  -11.3286 C   0  0  0  0  0  0  0  0  0  0  0  0
   14.5930   65.0631  -11.2044 O   0  0  0  0  0  0  0  0  0  0  0  0
   13.1823   60.8863  -11.6898 H   0  0  0  0  0  0  0  0  0  0  0  0
   20.5505   63.6602   -9.7192 C   0  0  0  0  0  0  0  0  0  0  0  0
   20.7356   64.0325  -10.9360 O   0  0  0  0  0  0  0  0  0  0  0  0
   19.3251   63.0668   -9.3546 N   0  0  0  0  0  0  0  0  0  0  0  0
   19.1728   62.7618   -8.3835 H   0  0  0  0  0  0  0  0  0  0  0  0
   22.8907   66.9471   -6.2583 Br  0  0  0  0  0  0  0  0  0  0  0  0
   22.7445   65.2780   -7.1827 C   0  0  0  0  0  0  0  0  0  0  0  0
   21.7384   65.0782   -8.0869 C   0  0  0  0  0  0  0  0  0  0  0  0
   21.6245   63.8695   -8.7630 C   0  0  0  0  0  0  0  0  0  0  0  0
   22.5384   62.8985   -8.4966 C   0  0  0  0  0  0  0  0  0  0  0  0
   23.5543   63.1109   -7.5779 C   0  0  0  0  0  0  0  0  0  0  0  0
   23.6652   64.3066   -6.9120 C   0  0  0  0  0  0  0  0  0  0  0  0
   13.5708   63.1299  -13.3569 C   0  0  0  0  0  0  0  0  0  0  0  0
   12.2349   63.6394  -13.7074 C   0  0  0  0  0  0  0  0  0  0  0  0
   11.2939   62.7845  -14.2522 C   0  0  0  0  0  0  0  0  0  0  0  0
   10.0431   63.2530  -14.5826 C   0  0  0  0  0  0  0  0  0  0  0  0
    9.6660   64.5692  -14.3944 C   0  0  0  0  0  0  0  0  0  0  0  0
   10.6017   65.4239  -13.8517 C   0  0  0  0  0  0  0  0  0  0  0  0
   11.8624   64.9712  -13.5139 C   0  0  0  0  0  0  0  0  0  0  0  0
 17 18  1  0  0  0
 18 19  2  0  0  0
 18 23  1  0  0  0
 19 20  1  0  0  0
 20 21  2  0  0  0
 20 13  1  0  0  0
 21 22  1  0  0  0
 22 23  2  0  0  0
 13 14  2  0  0  0
 13 15  1  0  0  0
 15  1  1  0  0  0
  1  2  1  0  0  0
  1  5  1  0  0  0
  2  3  1  0  0  0
  3  4  1  0  0  0
  3 10  1  0  0  0
  4  5  1  0  0  0
  4  6  1  0  0  0
  6  7  2  0  0  0
  6  8  1  0  0  0
  8  9  1  0  0  0
  9 10  1  0  0  0
  9 24  1  0  0  0
 10 11  2  0  0  0
 24 25  1  0  0  0
 25 26  2  0  0  0
 25 30  1  0  0  0
 26 27  1  0  0  0
 27 28  2  0  0  0
 28 29  1  0  0  0
 29 30  2  0  0  0
 15 16  1  0  0  0
  8 12  1  0  0  0
M  END
> <minimizedAffinity>
-8.05937

$$$$
1284


 35 38  0  0  0  0  0  0  0  0999 V2000
   19.6261   64.1219  -10.4934 C   0  0  0  0  0  0  0  0  0  0  0  0
   18.4761   63.3296  -10.2650 N   0  0  0  0  0  0  0  0  0  0  0  0
   18.5406   62.7550   -8.9702 C   0  0  0  0  0  0  0  0  0  0  0  0
   17.7063   61.9192   -8.5019 O   0  0  0  0  0  0  0  0  0  0  0  0
   19.7007   63.2865   -8.2882 C   0  0  0  0  0  0  0  0  0  0  0  0
   19.9968   62.9365   -7.1138 O   0  0  0  0  0  0  0  0  0  0  0  0
   20.3540   64.2056   -9.2002 C   0  0  0  0  0  0  0  0  0  0  0  0
   21.4206   64.9146   -8.9077 C   0  0  0  0  0  0  0  0  0  0  0  0
   21.9893   65.7025   -9.8819 O   0  0  0  0  0  0  0  0  0  0  0  0
   24.6308   63.2665  -12.0935 Br  0  0  0  0  0  0  0  0  0  0  0  0
   22.7397   63.1304  -12.3175 C   0  0  0  0  0  0  0  0  0  0  0  0
   21.8329   63.6275  -11.4320 C   0  0  0  0  0  0  0  0  0  0  0  0
   20.4566   63.5487  -11.5575 C   0  0  0  0  0  0  0  0  0  0  0  0
   19.9563   62.9064  -12.6870 C   0  0  0  0  0  0  0  0  0  0  0  0
   20.8486   62.3908  -13.6073 C   0  0  0  0  0  0  0  0  0  0  0  0
   22.2206   62.4855  -13.4519 C   0  0  0  0  0  0  0  0  0  0  0  0
   21.9980   64.8872   -7.5870 C   0  0  0  0  0  0  0  0  0  0  0  0
   22.9528   63.9444   -7.1669 C   0  0  0  0  0  0  0  0  0  0  0  0
   23.3108   64.2156   -5.9059 N   0  0  0  0  0  0  0  0  0  0  0  0
   22.6238   65.2780   -5.5286 N   0  0  0  0  0  0  0  0  0  0  0  0
   21.8232   65.7143   -6.5124 C   0  0  0  0  0  0  0  0  0  0  0  0
   23.4593   62.8358   -8.0272 C   0  0  0  0  0  0  0  0  0  0  0  0
   24.2581   63.5163   -5.1111 C   0  0  0  0  0  0  0  0  0  0  0  0
   24.0150   63.3750   -3.7514 C   0  0  0  0  0  0  0  0  0  0  0  0
   24.8868   62.6989   -2.9212 C   0  0  0  0  0  0  0  0  0  0  0  0
   26.0564   62.1257   -3.4220 C   0  0  0  0  0  0  0  0  0  0  0  0
   26.2987   62.2665   -4.7768 C   0  0  0  0  0  0  0  0  0  0  0  0
   25.4173   62.9430   -5.5801 C   0  0  0  0  0  0  0  0  0  0  0  0
   17.3340   63.1215  -11.1991 C   0  0  0  0  0  0  0  0  0  0  0  0
   16.4480   64.3405  -11.1939 C   0  0  0  0  0  0  0  0  0  0  0  0
   15.1241   64.1131  -10.5356 C   0  0  0  0  0  0  0  0  0  0  0  0
   14.0320   63.8137  -11.4015 N   0  0  0  0  0  0  0  0  0  0  0  0
   14.0067   64.4987  -12.6518 C   0  0  0  0  0  0  0  0  0  0  0  0
   13.9913   62.3699  -11.6846 C   0  0  0  0  0  0  0  0  0  0  0  0
   13.1146   64.0046  -10.8957 H   0  0  0  0  0  0  0  0  0  0  0  0
 10 11  1  0  0  0
 11 12  2  0  0  0
 11 16  1  0  0  0
 12 13  1  0  0  0
 13 14  2  0  0  0
 13  1  1  0  0  0
 14 15  1  0  0  0
 15 16  2  0  0  0
  1  2  1  0  0  0
  1  7  1  0  0  0
  2  3  1  0  0  0
  2 29  1  0  0  0
  3  4  2  0  0  0
  3  5  1  0  0  0
  5  6  2  0  0  0
  5  7  1  0  0  0
  7  8  2  0  0  0
  8  9  1  0  0  0
  8 17  1  0  0  0
 17 18  2  0  0  0
 17 21  1  0  0  0
 18 19  1  0  0  0
 18 22  1  0  0  0
 19 20  1  0  0  0
 19 23  1  0  0  0
 20 21  2  0  0  0
 23 24  2  0  0  0
 23 28  1  0  0  0
 24 25  1  0  0  0
 25 26  2  0  0  0
 26 27  1  0  0  0
 27 28  2  0  0  0
 29 30  1  0  0  0
 30 31  1  0  0  0
 31 32  1  0  0  0
 32 33  1  0  0  0
 32 34  1  0  0  0
 32 35  1  0  0  0
M  CHG 1   9  -1
M  CHG 1  32   1
M  END
> <minimizedAffinity>
-4.16384

$$$$
1285


 34 37  0  0  0  0  0  0  0  0999 V2000
   21.9198   64.3008   -9.9779 C   0  0  0  0  0  0  0  0  0  0  0  0
   20.6153   63.6905  -10.1451 N   0  0  0  0  0  0  0  0  0  0  0  0
   20.6118   62.4435   -9.4164 C   0  0  0  0  0  0  0  0  0  0  0  0
   19.8980   61.4527   -9.6114 O   0  0  0  0  0  0  0  0  0  0  0  0
   21.6412   62.6106   -8.3950 C   0  0  0  0  0  0  0  0  0  0  0  0
   22.0159   61.7842   -7.5105 O   0  0  0  0  0  0  0  0  0  0  0  0
   22.2153   63.9376   -8.5451 C   0  0  0  0  0  0  0  0  0  0  0  0
   22.8858   64.6518   -7.6557 C   0  0  0  0  0  0  0  0  0  0  0  0
   23.4025   65.9104   -8.0762 O   0  0  0  0  0  0  0  0  0  0  0  0
   23.0850   64.1905   -6.3043 C   0  0  0  0  0  0  0  0  0  0  0  0
   24.1966   63.6560   -5.7560 N   0  0  0  0  0  0  0  0  0  0  0  0
   23.9486   63.3978   -4.4486 C   0  0  0  0  0  0  0  0  0  0  0  0
   22.6721   63.7673   -4.1513 N   0  0  0  0  0  0  0  0  0  0  0  0
   22.1506   64.2533   -5.3024 C   0  0  0  0  0  0  0  0  0  0  0  0
   20.7614   64.7734   -5.4334 C   0  0  0  0  0  0  0  0  0  0  0  0
   24.8507   62.8385   -3.5811 C   0  0  0  0  0  0  0  0  0  0  0  0
   26.0952   62.5151   -4.0750 C   0  0  0  0  0  0  0  0  0  0  0  0
   26.3519   62.7740   -5.4060 C   0  0  0  0  0  0  0  0  0  0  0  0
   25.4133   63.3362   -6.2287 C   0  0  0  0  0  0  0  0  0  0  0  0
   24.5240   62.5783   -2.1492 C   0  0  0  0  0  0  0  0  0  0  0  0
   23.4439   63.6836  -15.0021 Br  0  0  0  0  0  0  0  0  0  0  0  0
   23.7111   63.4625  -13.1235 C   0  0  0  0  0  0  0  0  0  0  0  0
   22.7815   63.9270  -12.2460 C   0  0  0  0  0  0  0  0  0  0  0  0
   22.9622   63.7731  -10.8682 C   0  0  0  0  0  0  0  0  0  0  0  0
   24.1072   63.1402  -10.4348 C   0  0  0  0  0  0  0  0  0  0  0  0
   25.0568   62.6659  -11.3313 C   0  0  0  0  0  0  0  0  0  0  0  0
   24.8489   62.8325  -12.6804 C   0  0  0  0  0  0  0  0  0  0  0  0
   19.4995   64.2195  -10.9110 C   0  0  0  0  0  0  0  0  0  0  0  0
   18.1855   64.1451  -10.2122 C   0  0  0  0  0  0  0  0  0  0  0  0
   17.1678   63.2485  -10.8716 C   0  0  0  0  0  0  0  0  0  0  0  0
   15.9586   63.9929  -11.1336 N   0  0  0  0  0  0  0  0  0  0  0  0
   14.8049   63.1128  -11.1097 C   0  0  0  0  0  0  0  0  0  0  0  0
   15.7698   64.9512  -10.0623 C   0  0  0  0  0  0  0  0  0  0  0  0
   16.0125   64.5476  -12.0152 H   0  0  0  0  0  0  0  0  0  0  0  0
 21 22  1  0  0  0
 22 23  2  0  0  0
 22 27  1  0  0  0
 23 24  1  0  0  0
 24 25  2  0  0  0
 24  1  1  0  0  0
 25 26  1  0  0  0
 26 27  2  0  0  0
  1  2  1  0  0  0
  1  7  1  0  0  0
  2  3  1  0  0  0
  2 28  1  0  0  0
  3  4  2  0  0  0
  3  5  1  0  0  0
  5  6  2  0  0  0
  5  7  1  0  0  0
  7  8  2  0  0  0
  8  9  1  0  0  0
  8 10  1  0  0  0
 10 11  1  0  0  0
 10 14  2  0  0  0
 11 12  1  0  0  0
 11 19  1  0  0  0
 12 13  2  0  0  0
 12 16  1  0  0  0
 13 14  1  0  0  0
 14 15  1  0  0  0
 16 17  2  0  0  0
 16 20  1  0  0  0
 17 18  1  0  0  0
 18 19  2  0  0  0
 28 29  1  0  0  0
 29 30  1  0  0  0
 30 31  1  0  0  0
 31 32  1  0  0  0
 31 33  1  0  0  0
 31 34  1  0  0  0
M  CHG 1   9  -1
M  CHG 1  31   1
M  END
> <minimizedAffinity>
-1.86257

$$$$
1295


 26 29  0  0  0  0  0  0  0  0999 V2000
   11.4051   63.2386  -15.3733 C   0  0  0  0  0  0  0  0  0  0  0  0
   11.5730   61.9342  -15.9750 C   0  0  0  0  0  0  0  0  0  0  0  0
   10.5141   61.0847  -16.1316 C   0  0  0  0  0  0  0  0  0  0  0  0
    9.1844   61.4425  -15.7349 N   0  0  0  0  0  0  0  0  0  0  0  0
    9.0337   62.7382  -15.1689 C   0  0  0  0  0  0  0  0  0  0  0  0
   10.0269   63.5681  -15.0117 C   0  0  0  0  0  0  0  0  0  0  0  0
    9.5017   64.8396  -14.4254 C   0  0  0  0  0  0  0  0  0  0  0  0
   10.2423   65.8338  -14.1610 O   0  0  0  0  0  0  0  0  0  0  0  0
    8.1666   64.6568  -14.2717 O   0  0  0  0  0  0  0  0  0  0  0  0
    7.7604   63.3880  -14.6576 C   0  0  0  0  0  0  0  0  0  0  0  0
   10.7167   59.8508  -16.6967 N   0  0  0  0  0  0  0  0  0  0  0  0
   11.9375   59.4757  -17.0936 C   0  0  0  0  0  0  0  0  0  0  0  0
   12.1010   58.3347  -17.6115 O   0  0  0  0  0  0  0  0  0  0  0  0
   12.9722   60.3179  -16.9360 N   0  0  0  0  0  0  0  0  0  0  0  0
   12.8607   61.5301  -16.3977 C   0  0  0  0  0  0  0  0  0  0  0  0
   13.8219   62.3243  -16.2467 O   0  0  0  0  0  0  0  0  0  0  0  0
   14.2892   59.8636  -17.3851 C   0  0  0  0  0  0  0  0  0  0  0  0
    9.5495   58.9924  -16.8351 C   0  0  0  0  0  0  0  0  0  0  0  0
    8.4095   60.7688  -15.8692 H   0  0  0  0  0  0  0  0  0  0  0  0
   15.4525   64.5410  -10.9062 Br  0  0  0  0  0  0  0  0  0  0  0  0
   14.1962   64.1685  -12.3140 C   0  0  0  0  0  0  0  0  0  0  0  0
   13.9687   65.0757  -13.3164 C   0  0  0  0  0  0  0  0  0  0  0  0
   13.0429   64.7706  -14.3296 C   0  0  0  0  0  0  0  0  0  0  0  0
   12.3681   63.5868  -14.3328 C   0  0  0  0  0  0  0  0  0  0  0  0
   12.6035   62.6857  -13.3248 C   0  0  0  0  0  0  0  0  0  0  0  0
   13.5263   62.9796  -12.3057 C   0  0  0  0  0  0  0  0  0  0  0  0
 20 21  1  0  0  0
 21 22  2  0  0  0
 21 26  1  0  0  0
 22 23  1  0  0  0
 23 24  2  0  0  0
 24 25  1  0  0  0
 24  1  1  0  0  0
 25 26  2  0  0  0
  1  2  1  0  0  0
  1  6  1  0  0  0
  2  3  2  0  0  0
  2 15  1  0  0  0
  3  4  1  0  0  0
  3 11  1  0  0  0
  4  5  1  0  0  0
  5  6  2  0  0  0
  5 10  1  0  0  0
  6  7  1  0  0  0
  7  8  2  0  0  0
  7  9  1  0  0  0
  9 10  1  0  0  0
 11 12  1  0  0  0
 11 18  1  0  0  0
 12 13  2  0  0  0
 12 14  1  0  0  0
 14 15  1  0  0  0
 14 17  1  0  0  0
 15 16  2  0  0  0
  4 19  1  0  0  0
M  END
> <minimizedAffinity>
-4.99679

$$$$
1299


 36 39  0  0  0  0  0  0  0  0999 V2000
   22.3897   63.8602   -7.3777 C   0  0  0  0  0  0  0  0  0  0  0  0
   21.0215   63.8606   -7.2820 N   0  0  0  0  0  0  0  0  0  0  0  0
   20.7569   64.0062   -6.0005 N   0  0  0  0  0  0  0  0  0  0  0  0
   21.8346   64.0973   -5.2932 N   0  0  0  0  0  0  0  0  0  0  0  0
   22.9136   64.0099   -6.1218 C   0  0  0  0  0  0  0  0  0  0  0  0
   20.0933   63.7307   -8.3390 C   0  0  0  0  0  0  0  0  0  0  0  0
   19.1255   62.8005   -8.5318 N   0  0  0  0  0  0  0  0  0  0  0  0
   18.5091   63.0596   -9.6287 O   0  0  0  0  0  0  0  0  0  0  0  0
   18.9783   64.1113  -10.2211 N   0  0  0  0  0  0  0  0  0  0  0  0
   19.9887   64.5689   -9.4337 C   0  0  0  0  0  0  0  0  0  0  0  0
   20.7720   65.7140   -9.7248 N   0  0  0  0  0  0  0  0  0  0  0  0
   21.1434   66.2657   -8.9293 H   0  0  0  0  0  0  0  0  0  0  0  0
   20.9972   66.0325  -10.6852 H   0  0  0  0  0  0  0  0  0  0  0  0
   23.0404   62.5682   -9.4985 N   0  0  0  0  0  0  0  0  0  0  0  0
   23.0402   63.7154   -8.6739 C   0  0  0  0  0  0  0  0  0  0  0  0
   23.6990   64.7093   -9.1657 O   0  0  0  0  0  0  0  0  0  0  0  0
   22.5686   61.6610   -9.2884 H   0  0  0  0  0  0  0  0  0  0  0  0
   23.2217   63.1737  -11.7810 C   0  0  0  0  0  0  0  0  0  0  0  0
   23.7577   62.6715  -10.7375 N   0  0  0  0  0  0  0  0  0  0  0  0
   23.0627   64.0685  -17.0480 Br  0  0  0  0  0  0  0  0  0  0  0  0
   23.9777   63.6691  -15.4209 C   0  0  0  0  0  0  0  0  0  0  0  0
   25.3445   63.4829  -15.4683 C   0  0  0  0  0  0  0  0  0  0  0  0
   25.9948   63.1964  -14.2944 C   0  0  0  0  0  0  0  0  0  0  0  0
   25.3038   63.0969  -13.1005 C   0  0  0  0  0  0  0  0  0  0  0  0
   23.9574   63.2794  -13.0499 C   0  0  0  0  0  0  0  0  0  0  0  0
   23.2971   63.5677  -14.2243 C   0  0  0  0  0  0  0  0  0  0  0  0
   27.8988   62.9357  -14.3531 Br  0  0  0  0  0  0  0  0  0  0  0  0
   26.0714   63.5739  -16.6465 O   0  0  0  0  0  0  0  0  0  0  0  0
   25.6558   63.7803  -17.5375 H   0  0  0  0  0  0  0  0  0  0  0  0
   24.3320   64.0514   -5.7688 C   0  0  0  0  0  0  0  0  0  0  0  0
   24.8755   62.7714   -5.3410 N   0  0  0  0  0  0  0  0  0  0  0  0
   26.3119   62.8839   -5.1206 C   0  0  0  0  0  0  0  0  0  0  0  0
   26.6327   63.2394   -3.6965 C   0  0  0  0  0  0  0  0  0  0  0  0
   25.5973   63.8594   -3.0219 O   0  0  0  0  0  0  0  0  0  0  0  0
   24.4260   63.1198   -2.9599 C   0  0  0  0  0  0  0  0  0  0  0  0
   24.2285   62.2420   -4.1658 C   0  0  0  0  0  0  0  0  0  0  0  0
 20 21  1  0  0  0
 21 22  2  0  0  0
 21 26  1  0  0  0
 22 23  1  0  0  0
 22 28  1  0  0  0
 23 24  2  0  0  0
 23 27  1  0  0  0
 24 25  1  0  0  0
 25 26  2  0  0  0
 25 18  1  0  0  0
 18 19  2  0  0  0
 19 14  1  0  0  0
 14 15  1  0  0  0
 15 16  2  0  0  0
 15  1  1  0  0  0
  1  2  1  0  0  0
  1  5  2  0  0  0
  2  3  1  0  0  0
  2  6  1  0  0  0
  3  4  2  0  0  0
  4  5  1  0  0  0
  5 30  1  0  0  0
 30 31  1  0  0  0
 31 32  1  0  0  0
 31 36  1  0  0  0
 32 33  1  0  0  0
 33 34  1  0  0  0
 34 35  1  0  0  0
 35 36  1  0  0  0
  6  7  2  0  0  0
  6 10  1  0  0  0
  7  8  1  0  0  0
  8  9  1  0  0  0
  9 10  2  0  0  0
 10 11  1  0  0  0
 14 17  1  0  0  0
 11 12  1  0  0  0
 11 13  1  0  0  0
 28 29  1  0  0  0
M  END
> <minimizedAffinity>
-7.08452

$$$$
1300


 22 25  0  0  0  0  0  0  0  0999 V2000
   20.1359   63.0563  -10.3064 N   0  0  0  0  0  0  0  0  0  0  0  0
   19.2952   61.9571  -10.0085 C   0  0  0  0  0  0  0  0  0  0  0  0
   19.6133   60.7501  -10.0290 O   0  0  0  0  0  0  0  0  0  0  0  0
   17.9381   62.4257   -9.6555 C   0  0  0  0  0  0  0  0  0  0  0  0
   17.1104   62.3532  -10.9203 C   0  0  0  0  0  0  0  0  0  0  0  0
   17.6399   63.4695  -11.6211 O   0  0  0  0  0  0  0  0  0  0  0  0
   17.2837   64.4433  -10.6503 C   0  0  0  0  0  0  0  0  0  0  0  0
   18.0701   63.9348   -9.4719 C   0  0  0  0  0  0  0  0  0  0  0  0
   19.5038   64.1998   -9.7255 C   0  0  0  0  0  0  0  0  0  0  0  0
   20.1009   65.2947   -9.4665 O   0  0  0  0  0  0  0  0  0  0  0  0
   15.8388   64.1570  -10.5284 C   0  0  0  0  0  0  0  0  0  0  0  0
   15.7308   62.8383  -10.6678 C   0  0  0  0  0  0  0  0  0  0  0  0
   22.5125   63.3104   -8.4549 Br  0  0  0  0  0  0  0  0  0  0  0  0
   22.5689   63.2443  -10.3684 C   0  0  0  0  0  0  0  0  0  0  0  0
   21.3622   63.1216  -11.0183 C   0  0  0  0  0  0  0  0  0  0  0  0
   21.4114   63.0716  -12.4122 C   0  0  0  0  0  0  0  0  0  0  0  0
   22.6128   63.1434  -13.0774 C   0  0  0  0  0  0  0  0  0  0  0  0
   23.8269   63.2668  -12.4223 C   0  0  0  0  0  0  0  0  0  0  0  0
   23.7855   63.3165  -11.0428 C   0  0  0  0  0  0  0  0  0  0  0  0
   25.0535   63.3410  -13.1384 N   0  0  0  0  0  0  0  0  0  0  0  0
   25.0064   63.4816  -14.3730 O   0  0  0  0  0  0  0  0  0  0  0  0
   26.2902   63.2687  -12.5582 O   0  0  0  0  0  0  0  0  0  0  0  0
 13 14  1  0  0  0
 14 15  2  0  0  0
 14 19  1  0  0  0
 15 16  1  0  0  0
 15  1  1  0  0  0
 16 17  2  0  0  0
 17 18  1  0  0  0
 18 19  2  0  0  0
 18 20  1  0  0  0
 20 21  2  0  0  0
 20 22  1  0  0  0
  1  2  1  0  0  0
  1  9  1  0  0  0
  2  3  2  0  0  0
  2  4  1  0  0  0
  4  5  1  0  0  0
  4  8  1  0  0  0
  5  6  1  0  0  0
  5 12  1  0  0  0
  6  7  1  0  0  0
  7  8  1  0  0  0
  7 11  1  0  0  0
  8  9  1  0  0  0
  9 10  2  0  0  0
 11 12  2  0  0  0
M  CHG 1  22  -1
M  END
> <minimizedAffinity>
-7.25528

$$$$
1301


 24 27  0  0  0  0  0  0  0  0999 V2000
   20.5850   63.8751   -9.9687 N   0  0  0  0  0  0  0  0  0  0  0  0
   20.7174   65.0242   -9.1399 C   0  0  0  0  0  0  0  0  0  0  0  0
   19.8268   65.8444   -8.8292 O   0  0  0  0  0  0  0  0  0  0  0  0
   22.1295   65.1317   -8.6627 C   0  0  0  0  0  0  0  0  0  0  0  0
   22.3605   64.3527   -7.4111 C   0  0  0  0  0  0  0  0  0  0  0  0
   22.4713   63.0198   -7.8802 O   0  0  0  0  0  0  0  0  0  0  0  0
   23.5327   63.2646   -8.7880 C   0  0  0  0  0  0  0  0  0  0  0  0
   22.9071   64.2920   -9.6734 C   0  0  0  0  0  0  0  0  0  0  0  0
   21.8728   63.6728  -10.5356 C   0  0  0  0  0  0  0  0  0  0  0  0
   22.1026   63.0638  -11.6013 O   0  0  0  0  0  0  0  0  0  0  0  0
   24.5069   63.8983   -7.8492 C   0  0  0  0  0  0  0  0  0  0  0  0
   23.7602   64.5815   -6.9638 C   0  0  0  0  0  0  0  0  0  0  0  0
   24.0199   62.0482   -9.4522 C   0  0  0  0  0  0  0  0  0  0  0  0
   15.4438   63.8907  -11.2601 Br  0  0  0  0  0  0  0  0  0  0  0  0
   17.0345   63.0002  -10.7151 C   0  0  0  0  0  0  0  0  0  0  0  0
   16.9883   61.6417  -10.5049 C   0  0  0  0  0  0  0  0  0  0  0  0
   18.1528   61.0238  -10.1118 C   0  0  0  0  0  0  0  0  0  0  0  0
   19.3293   61.7611   -9.9381 C   0  0  0  0  0  0  0  0  0  0  0  0
   19.3916   63.1242  -10.1454 C   0  0  0  0  0  0  0  0  0  0  0  0
   18.2121   63.7315  -10.5394 C   0  0  0  0  0  0  0  0  0  0  0  0
   15.7363   60.8516  -10.6917 C   0  0  0  0  0  0  0  0  0  0  0  0
   21.3460   64.5168   -6.3549 C   0  0  0  0  0  0  0  0  0  0  0  0
   21.8227   64.1248   -5.1062 O   0  0  0  0  0  0  0  0  0  0  0  0
   21.5793   63.1856   -4.8732 H   0  0  0  0  0  0  0  0  0  0  0  0
 14 15  1  0  0  0
 15 16  2  0  0  0
 15 20  1  0  0  0
 16 17  1  0  0  0
 16 21  1  0  0  0
 17 18  2  0  0  0
 18 19  1  0  0  0
 19 20  2  0  0  0
 19  1  1  0  0  0
  1  2  1  0  0  0
  1  9  1  0  0  0
  2  3  2  0  0  0
  2  4  1  0  0  0
  4  5  1  0  0  0
  4  8  1  0  0  0
  5  6  1  0  0  0
  5 12  1  0  0  0
  5 22  1  0  0  0
  6  7  1  0  0  0
  7  8  1  0  0  0
  7 11  1  0  0  0
  7 13  1  0  0  0
  8  9  1  0  0  0
  9 10  2  0  0  0
 11 12  2  0  0  0
 22 23  1  0  0  0
 23 24  1  0  0  0
M  END
> <minimizedAffinity>
-6.04742

$$$$
1310


 32 35  0  0  0  0  0  0  0  0999 V2000
   23.0219   65.3191   -7.3041 C   0  0  0  0  0  0  0  0  0  0  0  0
   23.3847   64.5155   -6.1570 N   0  0  0  0  0  0  0  0  0  0  0  0
   22.1751   64.0947   -5.5513 C   0  0  0  0  0  0  0  0  0  0  0  0
   21.9763   63.7950   -4.3477 O   0  0  0  0  0  0  0  0  0  0  0  0
   21.1749   64.0742   -6.6192 C   0  0  0  0  0  0  0  0  0  0  0  0
   19.9620   63.7689   -6.5583 O   0  0  0  0  0  0  0  0  0  0  0  0
   21.8871   64.4991   -7.8347 C   0  0  0  0  0  0  0  0  0  0  0  0
   21.5293   64.2130   -9.0657 C   0  0  0  0  0  0  0  0  0  0  0  0
   22.3120   64.7493  -10.0959 O   0  0  0  0  0  0  0  0  0  0  0  0
   20.3643   63.3607   -9.3767 C   0  0  0  0  0  0  0  0  0  0  0  0
   20.2407   62.0720   -9.2603 O   0  0  0  0  0  0  0  0  0  0  0  0
   19.0486   61.6640   -9.6328 C   0  0  0  0  0  0  0  0  0  0  0  0
   18.3041   62.7616  -10.0331 C   0  0  0  0  0  0  0  0  0  0  0  0
   19.1592   63.8330   -9.8618 C   0  0  0  0  0  0  0  0  0  0  0  0
   17.0078   62.6031  -10.4730 C   0  0  0  0  0  0  0  0  0  0  0  0
   16.4014   61.3689  -10.5344 C   0  0  0  0  0  0  0  0  0  0  0  0
   17.1284   60.2673  -10.1399 C   0  0  0  0  0  0  0  0  0  0  0  0
   18.4398   60.4231   -9.6945 C   0  0  0  0  0  0  0  0  0  0  0  0
   24.2672   70.1505   -5.2303 Br  0  0  0  0  0  0  0  0  0  0  0  0
   23.0617   68.9234   -6.0917 C   0  0  0  0  0  0  0  0  0  0  0  0
   23.4664   67.6165   -6.3708 C   0  0  0  0  0  0  0  0  0  0  0  0
   22.6493   66.6996   -6.9815 C   0  0  0  0  0  0  0  0  0  0  0  0
   21.3614   67.1503   -7.3171 C   0  0  0  0  0  0  0  0  0  0  0  0
   20.9500   68.4352   -7.0490 C   0  0  0  0  0  0  0  0  0  0  0  0
   21.7920   69.3351   -6.4340 C   0  0  0  0  0  0  0  0  0  0  0  0
   24.7033   64.1338   -5.6559 C   0  0  0  0  0  0  0  0  0  0  0  0
   24.8305   62.6234   -5.5942 C   0  0  0  0  0  0  0  0  0  0  0  0
   26.0368   62.1725   -4.8136 C   0  0  0  0  0  0  0  0  0  0  0  0
   25.6980   62.0508   -3.4320 N   0  0  0  0  0  0  0  0  0  0  0  0
   26.0270   63.2272   -2.6553 C   0  0  0  0  0  0  0  0  0  0  0  0
   24.3319   61.7179   -3.1627 C   0  0  0  0  0  0  0  0  0  0  0  0
   26.2923   61.2647   -3.0314 H   0  0  0  0  0  0  0  0  0  0  0  0
 19 20  1  0  0  0
 20 21  2  0  0  0
 20 25  1  0  0  0
 21 22  1  0  0  0
 22 23  2  0  0  0
 22  1  1  0  0  0
 23 24  1  0  0  0
 24 25  2  0  0  0
  1  2  1  0  0  0
  1  7  1  0  0  0
  2  3  1  0  0  0
  2 26  1  0  0  0
  3  4  2  0  0  0
  3  5  1  0  0  0
  5  6  2  0  0  0
  5  7  1  0  0  0
  7  8  2  0  0  0
  8  9  1  0  0  0
  8 10  1  0  0  0
 10 11  1  0  0  0
 10 14  2  0  0  0
 11 12  1  0  0  0
 12 13  2  0  0  0
 12 18  1  0  0  0
 13 14  1  0  0  0
 13 15  1  0  0  0
 15 16  2  0  0  0
 16 17  1  0  0  0
 17 18  2  0  0  0
 26 27  1  0  0  0
 27 28  1  0  0  0
 28 29  1  0  0  0
 29 30  1  0  0  0
 29 31  1  0  0  0
 29 32  1  0  0  0
M  CHG 1   9  -1
M  CHG 1  29   1
M  END
> <minimizedAffinity>
-7.09570

$$$$
1314


 32 35  0  0  0  0  0  0  0  0999 V2000
   21.5088   64.1273   -7.2701 C   0  0  0  0  0  0  0  0  0  0  0  0
   21.3589   64.7483   -6.1401 N   0  0  0  0  0  0  0  0  0  0  0  0
   22.3958   64.5546   -5.4002 N   0  0  0  0  0  0  0  0  0  0  0  0
   23.3432   63.7542   -6.0245 N   0  0  0  0  0  0  0  0  0  0  0  0
   22.8234   63.4717   -7.1985 C   0  0  0  0  0  0  0  0  0  0  0  0
   24.4839   63.4289   -5.2922 C   0  0  0  0  0  0  0  0  0  0  0  0
   25.6817   63.0897   -5.9210 N   0  0  0  0  0  0  0  0  0  0  0  0
   26.5159   62.7314   -5.0280 O   0  0  0  0  0  0  0  0  0  0  0  0
   26.0156   62.7955   -3.8593 N   0  0  0  0  0  0  0  0  0  0  0  0
   24.7317   63.2320   -3.9969 C   0  0  0  0  0  0  0  0  0  0  0  0
   23.8923   63.3884   -2.8464 N   0  0  0  0  0  0  0  0  0  0  0  0
   24.0523   64.2189   -2.2588 H   0  0  0  0  0  0  0  0  0  0  0  0
   23.2144   62.6725   -2.5934 H   0  0  0  0  0  0  0  0  0  0  0  0
   20.3336   64.7863   -9.4717 N   0  0  0  0  0  0  0  0  0  0  0  0
   20.5943   63.8209   -8.2932 C   0  0  0  0  0  0  0  0  0  0  0  0
   19.9183   62.8003   -8.3561 O   0  0  0  0  0  0  0  0  0  0  0  0
   20.9066   65.6258   -9.4590 H   0  0  0  0  0  0  0  0  0  0  0  0
   18.8512   63.5505  -11.0372 C   0  0  0  0  0  0  0  0  0  0  0  0
   19.3797   64.2194  -10.1322 N   0  0  0  0  0  0  0  0  0  0  0  0
   17.9062   60.8018  -10.1912 Br  0  0  0  0  0  0  0  0  0  0  0  0
   16.7765   62.2665  -10.5678 C   0  0  0  0  0  0  0  0  0  0  0  0
   17.3201   63.5057  -10.8068 C   0  0  0  0  0  0  0  0  0  0  0  0
   16.5722   64.5673  -11.1099 C   0  0  0  0  0  0  0  0  0  0  0  0
   15.1511   64.4443  -11.2038 C   0  0  0  0  0  0  0  0  0  0  0  0
   14.5882   63.2296  -11.0002 C   0  0  0  0  0  0  0  0  0  0  0  0
   15.3893   62.1292  -10.6801 C   0  0  0  0  0  0  0  0  0  0  0  0
   23.2710   62.8499   -8.4415 C   0  0  0  0  0  0  0  0  0  0  0  0
   23.6884   63.3819   -9.5954 N   0  0  0  0  0  0  0  0  0  0  0  0
   24.5257   62.4315  -10.3135 C   0  0  0  0  0  0  0  0  0  0  0  0
   24.0573   62.4257  -11.7378 C   0  0  0  0  0  0  0  0  0  0  0  0
   22.8695   63.3814  -11.7860 C   0  0  0  0  0  0  0  0  0  0  0  0
   23.1306   64.2257  -10.5142 C   0  0  0  0  0  0  0  0  0  0  0  0
 20 21  1  0  0  0
 21 22  2  0  0  0
 21 26  1  0  0  0
 22 23  1  0  0  0
 22 18  1  0  0  0
 23 24  2  0  0  0
 24 25  1  0  0  0
 25 26  2  0  0  0
 18 19  2  0  0  0
 19 14  1  0  0  0
 14 15  1  0  0  0
 15 16  2  0  0  0
 15  1  1  0  0  0
  1  2  1  0  0  0
  1  5  2  0  0  0
  2  3  2  0  0  0
  3  4  1  0  0  0
  4  5  1  0  0  0
  4  6  1  0  0  0
  5 27  1  0  0  0
 27 28  1  0  0  0
 28 29  1  0  0  0
 28 32  1  0  0  0
 29 30  1  0  0  0
 30 31  1  0  0  0
 31 32  1  0  0  0
  6  7  2  0  0  0
  6 10  1  0  0  0
  7  8  1  0  0  0
  8  9  1  0  0  0
  9 10  2  0  0  0
 10 11  1  0  0  0
 14 17  1  0  0  0
 11 12  1  0  0  0
 11 13  1  0  0  0
M  END
> <minimizedAffinity>
-8.61060

$$$$
1315


 30 33  0  0  0  0  0  0  0  0999 V2000
   20.8984   63.7034   -9.2650 N   0  0  0  0  0  0  0  0  0  0  0  0
   21.7468   63.4782  -10.3203 C   0  0  0  0  0  0  0  0  0  0  0  0
   23.0052   63.4088   -9.7967 C   0  0  0  0  0  0  0  0  0  0  0  0
   24.0917   63.1890  -10.6485 C   0  0  0  0  0  0  0  0  0  0  0  0
   23.8748   63.0458  -12.0024 C   0  0  0  0  0  0  0  0  0  0  0  0
   22.6055   63.1141  -12.5341 C   0  0  0  0  0  0  0  0  0  0  0  0
   21.5271   63.3339  -11.6734 C   0  0  0  0  0  0  0  0  0  0  0  0
   22.9069   63.5848   -8.4606 N   0  0  0  0  0  0  0  0  0  0  0  0
   21.6290   63.7641   -8.1197 C   0  0  0  0  0  0  0  0  0  0  0  0
   21.1666   63.8731   -6.8943 N   0  0  0  0  0  0  0  0  0  0  0  0
   21.7638   63.9161   -6.0732 H   0  0  0  0  0  0  0  0  0  0  0  0
   20.1464   63.8856   -6.7563 H   0  0  0  0  0  0  0  0  0  0  0  0
   19.4583   63.7820   -9.3832 C   0  0  0  0  0  0  0  0  0  0  0  0
   18.8141   62.4971   -9.6835 C   0  0  0  0  0  0  0  0  0  0  0  0
   19.5610   61.4307   -9.5071 O   0  0  0  0  0  0  0  0  0  0  0  0
   14.0573   64.0816  -11.6300 Br  0  0  0  0  0  0  0  0  0  0  0  0
   15.3219   62.7512  -11.0153 C   0  0  0  0  0  0  0  0  0  0  0  0
   16.5640   63.1118  -10.5782 C   0  0  0  0  0  0  0  0  0  0  0  0
   17.4825   62.1996  -10.1438 C   0  0  0  0  0  0  0  0  0  0  0  0
   17.0789   60.8556  -10.1707 C   0  0  0  0  0  0  0  0  0  0  0  0
   15.8439   60.4561  -10.6010 C   0  0  0  0  0  0  0  0  0  0  0  0
   14.9625   61.4225  -11.0256 C   0  0  0  0  0  0  0  0  0  0  0  0
   24.0708   63.5253   -7.5935 C   0  0  0  0  0  0  0  0  0  0  0  0
   23.8190   63.1145   -6.2014 C   0  0  0  0  0  0  0  0  0  0  0  0
   24.3867   63.8637   -5.1389 N   0  0  0  0  0  0  0  0  0  0  0  0
   25.7259   63.3281   -4.7836 C   0  0  0  0  0  0  0  0  0  0  0  0
   25.6773   61.8754   -4.4404 C   0  0  0  0  0  0  0  0  0  0  0  0
   24.9648   61.7630   -3.2454 O   0  0  0  0  0  0  0  0  0  0  0  0
   23.7015   62.2888   -3.3530 C   0  0  0  0  0  0  0  0  0  0  0  0
   23.6407   63.6970   -3.8804 C   0  0  0  0  0  0  0  0  0  0  0  0
 16 17  1  0  0  0
 17 18  2  0  0  0
 17 22  1  0  0  0
 18 19  1  0  0  0
 19 20  2  0  0  0
 19 14  1  0  0  0
 20 21  1  0  0  0
 21 22  2  0  0  0
 14 15  2  0  0  0
 14 13  1  0  0  0
 13  1  1  0  0  0
  1  2  1  0  0  0
  1  9  1  0  0  0
  2  3  1  0  0  0
  2  7  2  0  0  0
  3  4  2  0  0  0
  3  8  1  0  0  0
  4  5  1  0  0  0
  5  6  2  0  0  0
  6  7  1  0  0  0
  8  9  1  0  0  0
  8 23  1  0  0  0
  9 10  2  0  0  0
 23 24  1  0  0  0
 24 25  1  0  0  0
 25 26  1  0  0  0
 25 30  1  0  0  0
 26 27  1  0  0  0
 27 28  1  0  0  0
 28 29  1  0  0  0
 29 30  1  0  0  0
 10 11  1  0  0  0
 10 12  1  0  0  0
M  END
> <minimizedAffinity>
-9.67489

$$$$
1325


 31 34  0  0  0  0  0  0  0  0999 V2000
   22.2333   64.1627   -9.8538 C   0  0  0  0  0  0  0  0  0  0  0  0
   22.9872   63.4652  -10.8533 N   0  0  0  0  0  0  0  0  0  0  0  0
   22.1028   63.4721  -12.0133 C   0  0  0  0  0  0  0  0  0  0  0  0
   22.4562   63.3964  -13.2105 O   0  0  0  0  0  0  0  0  0  0  0  0
   20.7413   63.5806  -11.5235 C   0  0  0  0  0  0  0  0  0  0  0  0
   19.6580   63.6243  -12.1791 O   0  0  0  0  0  0  0  0  0  0  0  0
   20.8542   63.6357  -10.0624 C   0  0  0  0  0  0  0  0  0  0  0  0
   19.9183   63.3255   -9.2084 C   0  0  0  0  0  0  0  0  0  0  0  0
   20.1812   63.4923   -7.8431 O   0  0  0  0  0  0  0  0  0  0  0  0
   18.6092   62.8032   -9.6478 C   0  0  0  0  0  0  0  0  0  0  0  0
   17.5525   63.5432   -9.9642 O   0  0  0  0  0  0  0  0  0  0  0  0
   16.5345   62.8008  -10.3148 C   0  0  0  0  0  0  0  0  0  0  0  0
   16.8842   61.4688  -10.2420 C   0  0  0  0  0  0  0  0  0  0  0  0
   18.2018   61.5021   -9.8173 C   0  0  0  0  0  0  0  0  0  0  0  0
   15.9761   60.4855  -10.5648 C   0  0  0  0  0  0  0  0  0  0  0  0
   14.6886   60.7603  -10.9705 C   0  0  0  0  0  0  0  0  0  0  0  0
   14.3323   62.0947  -11.0438 C   0  0  0  0  0  0  0  0  0  0  0  0
   15.2291   63.0904  -10.7247 C   0  0  0  0  0  0  0  0  0  0  0  0
   24.4365   63.7483   -4.0835 Br  0  0  0  0  0  0  0  0  0  0  0  0
   23.7441   63.8869   -5.8644 C   0  0  0  0  0  0  0  0  0  0  0  0
   23.9445   62.8995   -6.7966 C   0  0  0  0  0  0  0  0  0  0  0  0
   23.4372   63.0226   -8.0648 C   0  0  0  0  0  0  0  0  0  0  0  0
   22.6958   64.1405   -8.4890 C   0  0  0  0  0  0  0  0  0  0  0  0
   22.5094   65.1066   -7.5497 C   0  0  0  0  0  0  0  0  0  0  0  0
   23.0196   64.9831   -6.2717 C   0  0  0  0  0  0  0  0  0  0  0  0
   24.3218   62.9093  -10.8811 C   0  0  0  0  0  0  0  0  0  0  0  0
   24.8882   62.5247  -12.1825 C   0  0  0  0  0  0  0  0  0  0  0  0
   25.7376   63.4814  -12.8426 N   0  0  0  0  0  0  0  0  0  0  0  0
   27.1319   63.1702  -12.7034 C   0  0  0  0  0  0  0  0  0  0  0  0
   25.3288   63.8386  -14.1712 C   0  0  0  0  0  0  0  0  0  0  0  0
   25.6071   64.3784  -12.2597 H   0  0  0  0  0  0  0  0  0  0  0  0
 19 20  1  0  0  0
 20 21  2  0  0  0
 20 25  1  0  0  0
 21 22  1  0  0  0
 22 23  2  0  0  0
 23 24  1  0  0  0
 23  1  1  0  0  0
 24 25  2  0  0  0
  1  2  1  0  0  0
  1  7  1  0  0  0
  2  3  1  0  0  0
  2 26  1  0  0  0
  3  4  2  0  0  0
  3  5  1  0  0  0
  5  6  2  0  0  0
  5  7  1  0  0  0
  7  8  2  0  0  0
  8  9  1  0  0  0
  8 10  1  0  0  0
 10 11  1  0  0  0
 10 14  2  0  0  0
 11 12  1  0  0  0
 12 13  2  0  0  0
 12 18  1  0  0  0
 13 14  1  0  0  0
 13 15  1  0  0  0
 15 16  2  0  0  0
 16 17  1  0  0  0
 17 18  2  0  0  0
 26 27  1  0  0  0
 27 28  1  0  0  0
 28 29  1  0  0  0
 28 30  1  0  0  0
 28 31  1  0  0  0
M  CHG 1   9  -1
M  CHG 1  28   1
M  END
> <minimizedAffinity>
-9.13856

$$$$
1329


 28 31  0  0  0  0  0  0  0  0999 V2000
   13.5379   62.4000  -12.2036 C   0  0  0  0  0  0  0  0  0  0  0  0
   12.8306   62.9559  -13.1890 C   0  0  0  0  0  0  0  0  0  0  0  0
   12.9396   64.2586  -13.6714 O   0  0  0  0  0  0  0  0  0  0  0  0
   12.0563   64.4713  -14.6939 C   0  0  0  0  0  0  0  0  0  0  0  0
   11.3169   63.3192  -14.9389 C   0  0  0  0  0  0  0  0  0  0  0  0
   10.3718   63.3498  -15.9520 C   0  0  0  0  0  0  0  0  0  0  0  0
   10.1826   64.4967  -16.6888 C   0  0  0  0  0  0  0  0  0  0  0  0
   10.9440   65.6354  -16.4136 C   0  0  0  0  0  0  0  0  0  0  0  0
   11.8837   65.6332  -15.4169 C   0  0  0  0  0  0  0  0  0  0  0  0
   10.6782   66.7384  -17.2101 O   0  0  0  0  0  0  0  0  0  0  0  0
   11.7885   62.3058  -13.9797 C   0  0  0  0  0  0  0  0  0  0  0  0
   11.3428   61.1320  -13.8987 O   0  0  0  0  0  0  0  0  0  0  0  0
   18.3252   62.4547   -9.8547 Br  0  0  0  0  0  0  0  0  0  0  0  0
   16.6970   63.2848  -10.4118 C   0  0  0  0  0  0  0  0  0  0  0  0
   15.7328   62.5548  -11.1016 C   0  0  0  0  0  0  0  0  0  0  0  0
   14.5562   63.1514  -11.4970 C   0  0  0  0  0  0  0  0  0  0  0  0
   14.3203   64.4747  -11.2147 C   0  0  0  0  0  0  0  0  0  0  0  0
   15.2826   65.1805  -10.5315 C   0  0  0  0  0  0  0  0  0  0  0  0
   16.4717   64.6214  -10.1207 C   0  0  0  0  0  0  0  0  0  0  0  0
   12.5982   66.8749  -15.1159 C   0  0  0  0  0  0  0  0  0  0  0  0
   11.9696   68.0795  -15.5201 N   0  0  0  0  0  0  0  0  0  0  0  0
   13.0028   69.0223  -15.9163 C   0  0  0  0  0  0  0  0  0  0  0  0
   12.7535   70.4379  -15.5251 C   0  0  0  0  0  0  0  0  0  0  0  0
   12.3875   70.6402  -14.1674 N   0  0  0  0  0  0  0  0  0  0  0  0
   12.0089   69.4224  -13.5294 C   0  0  0  0  0  0  0  0  0  0  0  0
   11.1606   68.6102  -14.4487 C   0  0  0  0  0  0  0  0  0  0  0  0
   11.3525   71.6490  -14.0823 C   0  0  0  0  0  0  0  0  0  0  0  0
   11.2912   67.9402  -16.3283 H   0  0  0  0  0  0  0  0  0  0  0  0
 13 14  1  0  0  0
 14 15  2  0  0  0
 14 19  1  0  0  0
 15 16  1  0  0  0
 16 17  2  0  0  0
 16  1  1  0  0  0
 17 18  1  0  0  0
 18 19  2  0  0  0
  1  2  2  0  0  0
  2  3  1  0  0  0
  2 11  1  0  0  0
  3  4  1  0  0  0
  4  5  2  0  0  0
  4  9  1  0  0  0
  5  6  1  0  0  0
  5 11  1  0  0  0
  6  7  2  0  0  0
  7  8  1  0  0  0
  8  9  2  0  0  0
  8 10  1  0  0  0
  9 20  1  0  0  0
 20 21  1  0  0  0
 21 22  1  0  0  0
 21 26  1  0  0  0
 22 23  1  0  0  0
 23 24  1  0  0  0
 24 25  1  0  0  0
 24 27  1  0  0  0
 25 26  1  0  0  0
 11 12  2  0  0  0
 21 28  1  0  0  0
M  CHG 1  10  -1
M  CHG 1  21   1
M  END
> <minimizedAffinity>
-6.15047

$$$$
1337


 32 35  0  0  0  0  0  0  0  0999 V2000
   13.8895   64.1283  -11.7851 N   0  0  0  0  0  0  0  0  0  0  0  0
   13.1584   63.9221  -12.9813 C   0  0  0  0  0  0  0  0  0  0  0  0
   13.2209   62.7837  -13.5191 O   0  0  0  0  0  0  0  0  0  0  0  0
   13.8418   65.0677  -11.3366 H   0  0  0  0  0  0  0  0  0  0  0  0
   12.3534   65.0301  -13.5602 C   0  0  0  0  0  0  0  0  0  0  0  0
   11.0489   64.7438  -13.4085 O   0  0  0  0  0  0  0  0  0  0  0  0
   10.1591   65.2711  -14.2904 C   0  0  0  0  0  0  0  0  0  0  0  0
    8.9540   64.5670  -14.1531 O   0  0  0  0  0  0  0  0  0  0  0  0
    9.0047   63.4912  -15.0053 C   0  0  0  0  0  0  0  0  0  0  0  0
   10.1115   63.6219  -15.8202 O   0  0  0  0  0  0  0  0  0  0  0  0
   10.4897   64.9821  -15.7358 C   0  0  0  0  0  0  0  0  0  0  0  0
   11.9226   65.1879  -16.0437 C   0  0  0  0  0  0  0  0  0  0  0  0
   12.1164   66.3256  -16.8601 O   0  0  0  0  0  0  0  0  0  0  0  0
   13.2069   67.0007  -16.3733 C   0  0  0  0  0  0  0  0  0  0  0  0
   13.1983   66.7386  -15.0280 O   0  0  0  0  0  0  0  0  0  0  0  0
   12.8388   65.3874  -14.9149 C   0  0  0  0  0  0  0  0  0  0  0  0
   12.9694   68.4893  -16.6559 C   0  0  0  0  0  0  0  0  0  0  0  0
   14.4953   66.6414  -17.0658 C   0  0  0  0  0  0  0  0  0  0  0  0
    7.7869   63.4376  -15.9288 C   0  0  0  0  0  0  0  0  0  0  0  0
    9.0370   62.1635  -14.2660 C   0  0  0  0  0  0  0  0  0  0  0  0
   14.6900   63.1179  -11.1600 C   0  0  0  0  0  0  0  0  0  0  0  0
   17.1195   62.7360  -10.5345 N   0  0  0  0  0  0  0  0  0  0  0  0
   16.1330   63.4662  -11.2212 C   0  0  0  0  0  0  0  0  0  0  0  0
   16.4367   64.4521  -11.9219 O   0  0  0  0  0  0  0  0  0  0  0  0
   16.7522   61.9080   -9.9613 H   0  0  0  0  0  0  0  0  0  0  0  0
   23.1587   63.6656  -10.0381 Br  0  0  0  0  0  0  0  0  0  0  0  0
   21.2783   63.3737  -10.2596 C   0  0  0  0  0  0  0  0  0  0  0  0
   20.4838   63.2978   -9.1373 C   0  0  0  0  0  0  0  0  0  0  0  0
   19.1313   63.0880   -9.2758 C   0  0  0  0  0  0  0  0  0  0  0  0
   18.4942   62.9447  -10.5004 C   0  0  0  0  0  0  0  0  0  0  0  0
   19.3151   63.0259  -11.6024 C   0  0  0  0  0  0  0  0  0  0  0  0
   20.6969   63.2391  -11.4798 C   0  0  0  0  0  0  0  0  0  0  0  0
 26 27  1  0  0  0
 27 28  2  0  0  0
 27 32  1  0  0  0
 28 29  1  0  0  0
 29 30  2  0  0  0
 30 31  1  0  0  0
 30 22  1  0  0  0
 31 32  2  0  0  0
 22 23  1  0  0  0
 23 24  2  0  0  0
 23 21  1  0  0  0
 21  1  1  0  0  0
  1  2  1  0  0  0
  2  3  2  0  0  0
  2  5  1  0  0  0
  5  6  1  0  0  0
  5 16  1  0  0  0
  6  7  1  0  0  0
  7  8  1  0  0  0
  7 11  1  0  0  0
  8  9  1  0  0  0
  9 10  1  0  0  0
  9 19  1  0  0  0
  9 20  1  0  0  0
 10 11  1  0  0  0
 11 12  1  0  0  0
 12 13  1  0  0  0
 12 16  1  0  0  0
 13 14  1  0  0  0
 14 15  1  0  0  0
 14 17  1  0  0  0
 14 18  1  0  0  0
 15 16  1  0  0  0
 22 25  1  0  0  0
  1  4  1  0  0  0
M  END
> <minimizedAffinity>
-8.19359

$$$$
1341


 28 31  0  0  0  0  0  0  0  0999 V2000
   16.5873   62.7955  -10.6018 C   0  0  0  0  0  0  0  0  0  0  0  0
   16.9208   61.5297  -10.2571 N   0  0  0  0  0  0  0  0  0  0  0  0
   18.0629   61.5660   -9.5401 C   0  0  0  0  0  0  0  0  0  0  0  0
   18.4913   62.8396   -9.4057 N   0  0  0  0  0  0  0  0  0  0  0  0
   17.5760   63.5884  -10.0621 C   0  0  0  0  0  0  0  0  0  0  0  0
   18.4519   60.1878   -9.1465 C   0  0  0  0  0  0  0  0  0  0  0  0
   17.4600   59.2774   -9.7842 C   0  0  0  0  0  0  0  0  0  0  0  0
   16.4534   60.1699  -10.4099 C   0  0  0  0  0  0  0  0  0  0  0  0
   11.8384   64.7614  -13.7957 Cl  0  0  0  0  0  0  0  0  0  0  0  0
   13.2210   64.1950  -12.8678 C   0  0  0  0  0  0  0  0  0  0  0  0
   13.2766   62.9108  -12.3713 C   0  0  0  0  0  0  0  0  0  0  0  0
   14.3661   62.4710  -11.6412 C   0  0  0  0  0  0  0  0  0  0  0  0
   15.4477   63.2872  -11.3743 C   0  0  0  0  0  0  0  0  0  0  0  0
   15.3956   64.5725  -11.8713 C   0  0  0  0  0  0  0  0  0  0  0  0
   14.2944   65.0215  -12.6102 C   0  0  0  0  0  0  0  0  0  0  0  0
   19.6676   63.3266   -8.7145 C   0  0  0  0  0  0  0  0  0  0  0  0
   20.6976   63.7521   -9.7045 C   0  0  0  0  0  0  0  0  0  0  0  0
   20.8737   64.9606   -9.8705 O   0  0  0  0  0  0  0  0  0  0  0  0
   21.4007   62.7560  -10.3846 N   0  0  0  0  0  0  0  0  0  0  0  0
   21.2045   61.7158  -10.2001 H   0  0  0  0  0  0  0  0  0  0  0  0
   22.4144   62.9958  -11.3487 C   0  0  0  0  0  0  0  0  0  0  0  0
   23.7429   63.1058  -10.9180 C   0  0  0  0  0  0  0  0  0  0  0  0
   24.7354   63.3538  -11.8111 C   0  0  0  0  0  0  0  0  0  0  0  0
   24.4670   63.5027  -13.1619 C   0  0  0  0  0  0  0  0  0  0  0  0
   23.1686   63.3946  -13.5719 C   0  0  0  0  0  0  0  0  0  0  0  0
   22.1233   63.1397  -12.6753 C   0  0  0  0  0  0  0  0  0  0  0  0
   25.5688   63.7727  -14.1197 C   0  0  0  0  0  0  0  0  0  0  0  0
   26.8896   63.3871  -13.4464 C   0  0  0  0  0  0  0  0  0  0  0  0
  9 10  1  0  0  0
 10 11  2  0  0  0
 10 15  1  0  0  0
 11 12  1  0  0  0
 12 13  2  0  0  0
 13 14  1  0  0  0
 13  1  1  0  0  0
 14 15  2  0  0  0
  1  2  1  0  0  0
  1  5  2  0  0  0
  2  3  1  0  0  0
  2  8  1  0  0  0
  3  4  2  0  0  0
  3  6  1  0  0  0
  4  5  1  0  0  0
  4 16  1  0  0  0
 16 17  1  0  0  0
 17 18  2  0  0  0
 17 19  1  0  0  0
 19 21  1  0  0  0
 21 22  2  0  0  0
 21 26  1  0  0  0
 22 23  1  0  0  0
 23 24  2  0  0  0
 24 25  1  0  0  0
 24 27  1  0  0  0
 25 26  2  0  0  0
 27 28  1  0  0  0
  6  7  1  0  0  0
  7  8  1  0  0  0
 19 20  1  0  0  0
M  END
> <minimizedAffinity>
-8.70935

$$$$
1343


 41 44  0  0  0  0  0  0  0  0999 V2000
   19.9069   63.3482   -9.6527 C   0  0  0  0  0  0  0  0  0  0  0  0
   21.1960   63.5450   -9.2737 N   0  0  0  0  0  0  0  0  0  0  0  0
   21.9954   63.4046  -10.3624 C   0  0  0  0  0  0  0  0  0  0  0  0
   23.3149   63.4890  -10.5675 N   0  0  0  0  0  0  0  0  0  0  0  0
   23.8649   63.3009  -11.7810 C   0  0  0  0  0  0  0  0  0  0  0  0
   23.0582   63.0172  -12.8268 N   0  0  0  0  0  0  0  0  0  0  0  0
   21.7399   62.9177  -12.6976 C   0  0  0  0  0  0  0  0  0  0  0  0
   21.1815   63.1127  -11.4498 C   0  0  0  0  0  0  0  0  0  0  0  0
   19.9471   63.0895  -10.9774 N   0  0  0  0  0  0  0  0  0  0  0  0
   20.8788   62.6263  -13.7605 O   0  0  0  0  0  0  0  0  0  0  0  0
   25.2827   63.3955  -11.9829 N   0  0  0  0  0  0  0  0  0  0  0  0
   20.5496   63.4201  -14.2970 H   0  0  0  0  0  0  0  0  0  0  0  0
   25.8676   62.6372  -12.3491 H   0  0  0  0  0  0  0  0  0  0  0  0
   25.7253   64.3050  -11.7334 H   0  0  0  0  0  0  0  0  0  0  0  0
   21.6341   63.8494   -7.9466 C   0  0  0  0  0  0  0  0  0  0  0  0
   21.2449   65.1034   -7.4971 O   0  0  0  0  0  0  0  0  0  0  0  0
   22.0889   65.4879   -6.4951 C   0  0  0  0  0  0  0  0  0  0  0  0
   23.2747   64.5859   -6.4573 C   0  0  0  0  0  0  0  0  0  0  0  0
   23.1395   63.8281   -7.7796 C   0  0  0  0  0  0  0  0  0  0  0  0
   23.6305   62.5291   -7.6535 O   0  0  0  0  0  0  0  0  0  0  0  0
   23.1143   63.6094   -5.4529 O   0  0  0  0  0  0  0  0  0  0  0  0
   24.2121   62.3102   -8.4269 H   0  0  0  0  0  0  0  0  0  0  0  0
   23.9806   63.2770   -5.1335 H   0  0  0  0  0  0  0  0  0  0  0  0
   22.5881   66.9005   -6.8051 C   0  0  0  0  0  0  0  0  0  0  0  0
   23.7377   67.1755   -6.0563 O   0  0  0  0  0  0  0  0  0  0  0  0
   23.8800   66.4936   -5.3507 H   0  0  0  0  0  0  0  0  0  0  0  0
   18.7640   63.4084   -8.8087 N   0  0  0  0  0  0  0  0  0  0  0  0
   18.8875   63.3774   -7.7847 H   0  0  0  0  0  0  0  0  0  0  0  0
   17.2356   63.0207  -10.5674 C   0  0  0  0  0  0  0  0  0  0  0  0
   17.5029   63.5105   -9.4274 N   0  0  0  0  0  0  0  0  0  0  0  0
   15.6606   60.3864  -10.5084 Br  0  0  0  0  0  0  0  0  0  0  0  0
   15.0999   62.0207  -11.3016 C   0  0  0  0  0  0  0  0  0  0  0  0
   15.9406   63.1107  -11.2329 C   0  0  0  0  0  0  0  0  0  0  0  0
   15.4930   64.2739  -11.8216 C   0  0  0  0  0  0  0  0  0  0  0  0
   14.2699   64.3629  -12.4524 C   0  0  0  0  0  0  0  0  0  0  0  0
   13.4285   63.2724  -12.5205 C   0  0  0  0  0  0  0  0  0  0  0  0
   13.8581   62.0994  -11.9376 C   0  0  0  0  0  0  0  0  0  0  0  0
   13.8254   65.5414  -13.0438 O   0  0  0  0  0  0  0  0  0  0  0  0
   13.9568   65.8468  -14.3959 C   0  0  0  0  0  0  0  0  0  0  0  0
   12.1918   63.3689  -13.1599 O   0  0  0  0  0  0  0  0  0  0  0  0
   11.9068   62.7491  -14.3775 C   0  0  0  0  0  0  0  0  0  0  0  0
 31 32  1  0  0  0
 32 33  2  0  0  0
 32 37  1  0  0  0
 33 34  1  0  0  0
 33 29  1  0  0  0
 34 35  2  0  0  0
 35 36  1  0  0  0
 35 38  1  0  0  0
 36 37  2  0  0  0
 36 40  1  0  0  0
 40 41  1  0  0  0
 38 39  1  0  0  0
 29 30  2  0  0  0
 30 27  1  0  0  0
 27  1  1  0  0  0
  1  2  1  0  0  0
  1  9  2  0  0  0
  2  3  1  0  0  0
  2 15  1  0  0  0
  3  4  2  0  0  0
  3  8  1  0  0  0
  4  5  1  0  0  0
  5  6  2  0  0  0
  5 11  1  0  0  0
  6  7  1  0  0  0
  7  8  2  0  0  0
  7 10  1  0  0  0
  8  9  1  0  0  0
 15 16  1  0  0  0
 15 19  1  0  0  0
 16 17  1  0  0  0
 17 18  1  0  0  0
 17 24  1  0  0  0
 18 19  1  0  0  0
 18 21  1  0  0  0
 19 20  1  0  0  0
 24 25  1  0  0  0
 27 28  1  0  0  0
 10 12  1  0  0  0
 11 13  1  0  0  0
 11 14  1  0  0  0
 20 22  1  0  0  0
 21 23  1  0  0  0
 25 26  1  0  0  0
M  END
> <minimizedAffinity>
-8.51160

$$$$
1355


 27 30  0  0  0  0  0  0  0  0999 V2000
   19.5739   63.0056  -10.2960 N   0  0  0  0  0  0  0  0  0  0  0  0
   18.3813   63.4202  -10.9146 C   0  0  0  0  0  0  0  0  0  0  0  0
   18.4123   63.8373  -12.0933 O   0  0  0  0  0  0  0  0  0  0  0  0
   19.5422   62.6597   -9.3164 H   0  0  0  0  0  0  0  0  0  0  0  0
   17.1059   63.3664  -10.1844 C   0  0  0  0  0  0  0  0  0  0  0  0
   16.3302   64.6660  -10.2931 C   0  0  0  0  0  0  0  0  0  0  0  0
   14.9623   64.5341   -9.7122 C   0  0  0  0  0  0  0  0  0  0  0  0
   13.8994   64.1331  -10.6821 C   0  0  0  0  0  0  0  0  0  0  0  0
   14.4508   63.2907  -11.8283 C   0  0  0  0  0  0  0  0  0  0  0  0
   15.1422   62.1657  -11.2421 N   0  0  0  0  0  0  0  0  0  0  0  0
   14.7230   60.9319  -11.3326 N   0  0  0  0  0  0  0  0  0  0  0  0
   15.5659   60.1545  -10.6993 N   0  0  0  0  0  0  0  0  0  0  0  0
   16.5215   60.9204  -10.2096 N   0  0  0  0  0  0  0  0  0  0  0  0
   16.2804   62.2017  -10.5372 C   0  0  0  0  0  0  0  0  0  0  0  0
   20.8439   63.0513  -10.9972 C   0  0  0  0  0  0  0  0  0  0  0  0
   23.1412   63.6679   -8.2076 C   0  0  0  0  0  0  0  0  0  0  0  0
   23.7473   64.2912   -9.2314 N   0  0  0  0  0  0  0  0  0  0  0  0
   23.0212   64.1502  -10.3203 O   0  0  0  0  0  0  0  0  0  0  0  0
   21.9478   63.4510  -10.0518 C   0  0  0  0  0  0  0  0  0  0  0  0
   22.0189   63.1492   -8.7367 N   0  0  0  0  0  0  0  0  0  0  0  0
   21.5984   65.2406   -6.1860 Cl  0  0  0  0  0  0  0  0  0  0  0  0
   22.9809   64.2473   -5.7947 C   0  0  0  0  0  0  0  0  0  0  0  0
   23.6007   63.5746   -6.8262 C   0  0  0  0  0  0  0  0  0  0  0  0
   24.6847   62.8017   -6.4848 C   0  0  0  0  0  0  0  0  0  0  0  0
   25.1430   62.6920   -5.1916 C   0  0  0  0  0  0  0  0  0  0  0  0
   24.5003   63.3844   -4.1580 C   0  0  0  0  0  0  0  0  0  0  0  0
   23.4153   64.1618   -4.4758 C   0  0  0  0  0  0  0  0  0  0  0  0
 21 22  1  0  0  0
 22 23  2  0  0  0
 22 27  1  0  0  0
 23 24  1  0  0  0
 23 16  1  0  0  0
 24 25  2  0  0  0
 25 26  1  0  0  0
 26 27  2  0  0  0
 16 17  2  0  0  0
 16 20  1  0  0  0
 17 18  1  0  0  0
 18 19  1  0  0  0
 19 20  2  0  0  0
 19 15  1  0  0  0
 15  1  1  0  0  0
  1  2  1  0  0  0
  2  3  2  0  0  0
  2  5  1  0  0  0
  5  6  1  0  0  0
  5 14  1  0  0  0
  6  7  1  0  0  0
  7  8  1  0  0  0
  8  9  1  0  0  0
  9 10  1  0  0  0
 10 11  1  0  0  0
 10 14  1  0  0  0
 11 12  2  0  0  0
 12 13  1  0  0  0
 13 14  2  0  0  0
  1  4  1  0  0  0
M  END
> <minimizedAffinity>
-9.70035

$$$$
1357


 24 27  0  0  0  0  0  0  0  0999 V2000
   11.3546   68.6946  -14.2632 C   0  0  0  0  0  0  0  0  0  0  0  0
   12.0586   69.8709  -14.5265 C   0  0  0  0  0  0  0  0  0  0  0  0
   12.4305   70.6847  -15.7159 C   0  0  0  0  0  0  0  0  0  0  0  0
   11.2811   71.6145  -15.5803 N   0  0  0  0  0  0  0  0  0  0  0  0
   10.2451   70.9159  -15.2358 C   0  0  0  0  0  0  0  0  0  0  0  0
   10.6637   69.5522  -15.1469 C   0  0  0  0  0  0  0  0  0  0  0  0
    8.9198   71.4376  -14.9912 N   0  0  0  0  0  0  0  0  0  0  0  0
   13.6116   71.3737  -15.4190 O   0  0  0  0  0  0  0  0  0  0  0  0
   14.4852   71.1483  -16.4650 C   0  0  0  0  0  0  0  0  0  0  0  0
   13.5409   70.8401  -17.6147 C   0  0  0  0  0  0  0  0  0  0  0  0
   12.5618   70.0974  -16.9093 O   0  0  0  0  0  0  0  0  0  0  0  0
    8.5417   72.2254  -15.5510 H   0  0  0  0  0  0  0  0  0  0  0  0
    8.3200   71.0326  -14.2486 H   0  0  0  0  0  0  0  0  0  0  0  0
    9.4302   66.1519  -14.2613 Br  0  0  0  0  0  0  0  0  0  0  0  0
   11.2723   66.2425  -14.7534 C   0  0  0  0  0  0  0  0  0  0  0  0
   11.9750   67.4200  -14.7087 C   0  0  0  0  0  0  0  0  0  0  0  0
   13.2990   67.4485  -15.0773 C   0  0  0  0  0  0  0  0  0  0  0  0
   13.9594   66.3027  -15.4995 C   0  0  0  0  0  0  0  0  0  0  0  0
   13.2746   65.1126  -15.5523 C   0  0  0  0  0  0  0  0  0  0  0  0
   11.9271   65.0933  -15.1752 C   0  0  0  0  0  0  0  0  0  0  0  0
   10.6428   68.9866  -16.5295 C   0  0  0  0  0  0  0  0  0  0  0  0
   10.6140   68.5167  -17.6152 N   0  0  0  0  0  0  0  0  0  0  0  0
   12.0281   70.8277  -13.3630 C   0  0  0  0  0  0  0  0  0  0  0  0
   12.0230   71.5694  -12.4436 N   0  0  0  0  0  0  0  0  0  0  0  0
 14 15  1  0  0  0
 15 16  2  0  0  0
 15 20  1  0  0  0
 16 17  1  0  0  0
 16  1  1  0  0  0
 17 18  2  0  0  0
 18 19  1  0  0  0
 19 20  2  0  0  0
  1  2  1  0  0  0
  1  6  1  0  0  0
  2  3  1  0  0  0
  2  6  1  0  0  0
  2 23  1  0  0  0
  3  4  1  0  0  0
  3  8  1  0  0  0
  3 11  1  0  0  0
  4  5  2  0  0  0
  5  6  1  0  0  0
  5  7  1  0  0  0
  6 21  1  0  0  0
 21 22  3  0  0  0
  8  9  1  0  0  0
  9 10  1  0  0  0
 10 11  1  0  0  0
 23 24  3  0  0  0
  7 12  1  0  0  0
  7 13  1  0  0  0
M  END
> <minimizedAffinity>
-3.62342

$$$$
1360


 34 37  0  0  0  0  0  0  0  0999 V2000
   19.8282   64.6454   -9.8337 C   0  0  0  0  0  0  0  0  0  0  0  0
   20.8370   64.9054   -8.8398 N   0  0  0  0  0  0  0  0  0  0  0  0
   21.4965   63.5832   -8.7409 C   0  0  0  0  0  0  0  0  0  0  0  0
   22.6262   63.7548   -7.9121 N   0  0  0  0  0  0  0  0  0  0  0  0
   22.5956   65.0922   -7.4048 C   0  0  0  0  0  0  0  0  0  0  0  0
   21.5116   65.7619   -7.9759 C   0  0  0  0  0  0  0  0  0  0  0  0
   21.2855   67.0764   -7.6253 C   0  0  0  0  0  0  0  0  0  0  0  0
   20.3030   67.6585   -8.1526 O   0  0  0  0  0  0  0  0  0  0  0  0
   22.1018   67.6784   -6.7526 N   0  0  0  0  0  0  0  0  0  0  0  0
   23.1210   67.0196   -6.2274 C   0  0  0  0  0  0  0  0  0  0  0  0
   23.8661   67.6236   -5.4087 O   0  0  0  0  0  0  0  0  0  0  0  0
   23.3967   65.7151   -6.5357 N   0  0  0  0  0  0  0  0  0  0  0  0
   24.5394   65.1096   -5.8899 C   0  0  0  0  0  0  0  0  0  0  0  0
   21.8249   69.0770   -6.4079 C   0  0  0  0  0  0  0  0  0  0  0  0
   23.6383   62.7883   -7.5715 C   0  0  0  0  0  0  0  0  0  0  0  0
   21.6281   63.1309  -10.1339 C   0  0  0  0  0  0  0  0  0  0  0  0
   20.7453   64.0956  -10.9378 C   0  0  0  0  0  0  0  0  0  0  0  0
   18.9089   63.6108   -9.4189 C   0  0  0  0  0  0  0  0  0  0  0  0
   19.3175   62.9311   -8.3852 O   0  0  0  0  0  0  0  0  0  0  0  0
   13.4464   62.1523  -11.7838 Br  0  0  0  0  0  0  0  0  0  0  0  0
   15.1442   62.5930  -11.0394 C   0  0  0  0  0  0  0  0  0  0  0  0
   16.0893   61.6083  -10.7943 C   0  0  0  0  0  0  0  0  0  0  0  0
   17.3181   61.9043  -10.2587 C   0  0  0  0  0  0  0  0  0  0  0  0
   17.6274   63.2089   -9.9551 C   0  0  0  0  0  0  0  0  0  0  0  0
   16.6872   64.2141  -10.1955 C   0  0  0  0  0  0  0  0  0  0  0  0
   15.4613   63.9040  -10.7316 C   0  0  0  0  0  0  0  0  0  0  0  0
   20.0171   63.4104  -12.0008 C   0  0  0  0  0  0  0  0  0  0  0  0
   18.8967   63.8691  -12.4031 O   0  0  0  0  0  0  0  0  0  0  0  0
   20.4959   62.2741  -12.5951 O   0  0  0  0  0  0  0  0  0  0  0  0
   20.1517   61.8868  -13.9275 C   0  0  0  0  0  0  0  0  0  0  0  0
   22.9576   63.0230  -10.7197 C   0  0  0  0  0  0  0  0  0  0  0  0
   23.8048   62.2416  -10.2133 O   0  0  0  0  0  0  0  0  0  0  0  0
   23.3271   63.7557  -11.8265 O   0  0  0  0  0  0  0  0  0  0  0  0
   24.4801   63.4323  -12.5724 C   0  0  0  0  0  0  0  0  0  0  0  0
 20 21  1  0  0  0
 21 22  2  0  0  0
 21 26  1  0  0  0
 22 23  1  0  0  0
 23 24  2  0  0  0
 24 25  1  0  0  0
 24 18  1  0  0  0
 25 26  2  0  0  0
 18 19  2  0  0  0
 18  1  1  0  0  0
  1  2  1  0  0  0
  1 17  1  0  0  0
  2  3  1  0  0  0
  2  6  1  0  0  0
  3  4  1  0  0  0
  3 16  1  0  0  0
  4  5  1  0  0  0
  4 15  1  0  0  0
  5  6  2  0  0  0
  5 12  1  0  0  0
  6  7  1  0  0  0
  7  8  2  0  0  0
  7  9  1  0  0  0
  9 10  1  0  0  0
  9 14  1  0  0  0
 10 11  2  0  0  0
 10 12  1  0  0  0
 12 13  1  0  0  0
 16 17  1  0  0  0
 16 31  1  0  0  0
 17 27  1  0  0  0
 27 28  2  0  0  0
 27 29  1  0  0  0
 29 30  1  0  0  0
 31 32  2  0  0  0
 31 33  1  0  0  0
 33 34  1  0  0  0
M  END
> <minimizedAffinity>
-4.25582

$$$$
1372


 31 34  0  0  0  0  0  0  0  0999 V2000
   13.1500   64.8373  -13.8183 C   0  0  0  0  0  0  0  0  0  0  0  0
   14.3367   64.9020  -14.2000 O   0  0  0  0  0  0  0  0  0  0  0  0
   12.2724   65.8979  -14.0692 N   0  0  0  0  0  0  0  0  0  0  0  0
   12.3611   66.9753  -14.9957 C   0  0  0  0  0  0  0  0  0  0  0  0
   10.8999   67.2887  -15.3533 C   0  0  0  0  0  0  0  0  0  0  0  0
   10.0215   66.0648  -15.2684 C   0  0  0  0  0  0  0  0  0  0  0  0
    8.6573   66.3762  -15.5975 N   0  0  0  0  0  0  0  0  0  0  0  0
    7.8624   65.1564  -15.3974 C   0  0  0  0  0  0  0  0  0  0  0  0
    8.2220   64.0894  -16.3838 C   0  0  0  0  0  0  0  0  0  0  0  0
    9.6524   64.1195  -16.7646 C   0  0  0  0  0  0  0  0  0  0  0  0
   10.3431   63.3341  -17.5966 N   0  0  0  0  0  0  0  0  0  0  0  0
   11.6246   63.7520  -17.6158 C   0  0  0  0  0  0  0  0  0  0  0  0
   11.7136   64.8008  -16.7864 N   0  0  0  0  0  0  0  0  0  0  0  0
   10.5247   65.0772  -16.2303 C   0  0  0  0  0  0  0  0  0  0  0  0
    9.9504   65.4908  -13.8440 C   0  0  0  0  0  0  0  0  0  0  0  0
   11.1018   66.0785  -13.1468 C   0  0  0  0  0  0  0  0  0  0  0  0
    8.2843   67.0700  -14.9066 H   0  0  0  0  0  0  0  0  0  0  0  0
   10.0262   62.5214  -18.1699 H   0  0  0  0  0  0  0  0  0  0  0  0
   12.7149   63.5954  -13.1082 C   0  0  0  0  0  0  0  0  0  0  0  0
   12.0698   62.6808  -14.1819 C   0  0  0  0  0  0  0  0  0  0  0  0
   14.2885   63.0398  -11.2536 C   0  0  0  0  0  0  0  0  0  0  0  0
   13.7574   63.8776  -10.5142 O   0  0  0  0  0  0  0  0  0  0  0  0
   13.8063   62.7989  -12.6027 N   0  0  0  0  0  0  0  0  0  0  0  0
   14.2298   62.0744  -13.1792 H   0  0  0  0  0  0  0  0  0  0  0  0
   19.3768   63.3061   -9.7408 Br  0  0  0  0  0  0  0  0  0  0  0  0
   17.7921   62.2806  -10.1446 C   0  0  0  0  0  0  0  0  0  0  0  0
   16.6403   62.9189  -10.5317 C   0  0  0  0  0  0  0  0  0  0  0  0
   15.4497   62.2373  -10.8335 C   0  0  0  0  0  0  0  0  0  0  0  0
   15.4561   60.8789  -10.7386 C   0  0  0  0  0  0  0  0  0  0  0  0
   16.6169   60.2203  -10.3465 C   0  0  0  0  0  0  0  0  0  0  0  0
   17.7811   60.9090  -10.0490 C   0  0  0  0  0  0  0  0  0  0  0  0
 25 26  1  0  0  0
 26 27  2  0  0  0
 26 31  1  0  0  0
 27 28  1  0  0  0
 28 29  2  0  0  0
 28 21  1  0  0  0
 29 30  1  0  0  0
 30 31  2  0  0  0
 21 22  2  0  0  0
 21 23  1  0  0  0
 23 19  1  0  0  0
 19 20  1  0  0  0
 19  1  1  0  0  0
  1  2  2  0  0  0
  1  3  1  0  0  0
  3  4  1  0  0  0
  3 16  1  0  0  0
  4  5  1  0  0  0
  5  6  1  0  0  0
  6  7  1  0  0  0
  6 14  1  0  0  0
  6 15  1  0  0  0
  7  8  1  0  0  0
  8  9  1  0  0  0
  9 10  1  0  0  0
 10 11  1  0  0  0
 10 14  2  0  0  0
 11 12  1  0  0  0
 12 13  2  0  0  0
 13 14  1  0  0  0
 15 16  1  0  0  0
 23 24  1  0  0  0
  7 17  1  0  0  0
 11 18  1  0  0  0
M  END
> <minimizedAffinity>
-7.12939

$$$$
1381


 31 34  0  0  0  0  0  0  0  0999 V2000
   18.7407   63.7446  -10.8673 C   0  0  0  0  0  0  0  0  0  0  0  0
   19.5576   63.8852  -11.7680 O   0  0  0  0  0  0  0  0  0  0  0  0
   17.4241   63.1373  -10.8898 C   0  0  0  0  0  0  0  0  0  0  0  0
   16.3321   63.8635  -11.2741 N   0  0  0  0  0  0  0  0  0  0  0  0
   15.1222   63.3336  -11.3037 N   0  0  0  0  0  0  0  0  0  0  0  0
   14.9089   62.0532  -10.9558 C   0  0  0  0  0  0  0  0  0  0  0  0
   13.7351   61.5524  -10.9875 O   0  0  0  0  0  0  0  0  0  0  0  0
   15.9544   61.2549  -10.5561 C   0  0  0  0  0  0  0  0  0  0  0  0
   17.2232   61.8396  -10.5344 C   0  0  0  0  0  0  0  0  0  0  0  0
   18.2372   61.0061  -10.1306 C   0  0  0  0  0  0  0  0  0  0  0  0
   18.0059   59.6820   -9.7724 C   0  0  0  0  0  0  0  0  0  0  0  0
   16.7431   59.1388   -9.8049 C   0  0  0  0  0  0  0  0  0  0  0  0
   15.7138   59.9527  -10.2059 C   0  0  0  0  0  0  0  0  0  0  0  0
   13.9725   64.1138  -11.7125 C   0  0  0  0  0  0  0  0  0  0  0  0
   13.8882   64.2749  -13.2076 C   0  0  0  0  0  0  0  0  0  0  0  0
   14.7818   65.2106  -13.6950 O   0  0  0  0  0  0  0  0  0  0  0  0
   15.3747   65.4713  -12.9513 H   0  0  0  0  0  0  0  0  0  0  0  0
   19.2248   64.2809   -9.6428 O   0  0  0  0  0  0  0  0  0  0  0  0
   20.3128   65.1629   -9.7018 C   0  0  0  0  0  0  0  0  0  0  0  0
   26.0243   62.4507   -4.3422 Br  0  0  0  0  0  0  0  0  0  0  0  0
   24.5954   63.2250   -5.3726 C   0  0  0  0  0  0  0  0  0  0  0  0
   24.4509   62.9216   -6.7144 C   0  0  0  0  0  0  0  0  0  0  0  0
   23.4497   63.4589   -7.4542 N   0  0  0  0  0  0  0  0  0  0  0  0
   22.5683   64.3008   -6.9035 C   0  0  0  0  0  0  0  0  0  0  0  0
   21.5784   64.8303   -7.6409 N   0  0  0  0  0  0  0  0  0  0  0  0
   21.4216   64.5486   -8.9450 C   0  0  0  0  0  0  0  0  0  0  0  0
   22.3251   63.6846   -9.5115 C   0  0  0  0  0  0  0  0  0  0  0  0
   23.3650   63.1220   -8.7572 C   0  0  0  0  0  0  0  0  0  0  0  0
   24.1750   62.3347   -9.3069 O   0  0  0  0  0  0  0  0  0  0  0  0
   22.6953   64.6129   -5.5765 C   0  0  0  0  0  0  0  0  0  0  0  0
   23.7000   64.0877   -4.7904 C   0  0  0  0  0  0  0  0  0  0  0  0
 20 21  1  0  0  0
 21 22  2  0  0  0
 21 31  1  0  0  0
 22 23  1  0  0  0
 23 24  1  0  0  0
 23 28  1  0  0  0
 24 25  2  0  0  0
 24 30  1  0  0  0
 25 26  1  0  0  0
 26 27  2  0  0  0
 26 19  1  0  0  0
 27 28  1  0  0  0
 28 29  2  0  0  0
 19 18  1  0  0  0
 18  1  1  0  0  0
  1  2  2  0  0  0
  1  3  1  0  0  0
  3  4  2  0  0  0
  3  9  1  0  0  0
  4  5  1  0  0  0
  5  6  1  0  0  0
  5 14  1  0  0  0
  6  7  2  0  0  0
  6  8  1  0  0  0
  8  9  2  0  0  0
  8 13  1  0  0  0
  9 10  1  0  0  0
 10 11  2  0  0  0
 11 12  1  0  0  0
 12 13  2  0  0  0
 14 15  1  0  0  0
 15 16  1  0  0  0
 30 31  2  0  0  0
 16 17  1  0  0  0
M  END
> <minimizedAffinity>
-9.01664

$$$$
1386


 33 36  0  0  0  0  0  0  0  0999 V2000
   13.8041   64.1388  -13.1749 C   0  0  0  0  0  0  0  0  0  0  0  0
   14.6846   64.9104  -12.7313 O   0  0  0  0  0  0  0  0  0  0  0  0
   12.9303   64.6090  -14.2236 N   0  0  0  0  0  0  0  0  0  0  0  0
   13.1009   65.9459  -14.7236 C   0  0  0  0  0  0  0  0  0  0  0  0
   11.8782   66.7385  -14.3101 C   0  0  0  0  0  0  0  0  0  0  0  0
   10.6353   65.9266  -14.2471 C   0  0  0  0  0  0  0  0  0  0  0  0
   10.6605   64.6526  -15.0089 C   0  0  0  0  0  0  0  0  0  0  0  0
   11.8843   63.8193  -14.8123 C   0  0  0  0  0  0  0  0  0  0  0  0
   10.2415   65.6356  -12.9314 O   0  0  0  0  0  0  0  0  0  0  0  0
    9.5019   66.7841  -14.8259 C   0  0  0  0  0  0  0  0  0  0  0  0
   11.0614   65.6833  -12.3478 H   0  0  0  0  0  0  0  0  0  0  0  0
   11.7791   67.8838  -15.1818 N   0  0  0  0  0  0  0  0  0  0  0  0
   11.7880   67.7215  -16.5193 C   0  0  0  0  0  0  0  0  0  0  0  0
   11.6959   68.7857  -17.3881 C   0  0  0  0  0  0  0  0  0  0  0  0
   11.5911   70.0528  -16.8627 C   0  0  0  0  0  0  0  0  0  0  0  0
   11.5025   71.0797  -17.6142 O   0  0  0  0  0  0  0  0  0  0  0  0
   11.5853   70.1843  -15.5272 N   0  0  0  0  0  0  0  0  0  0  0  0
   11.6759   69.1368  -14.7065 C   0  0  0  0  0  0  0  0  0  0  0  0
   11.6657   69.3155  -13.4546 O   0  0  0  0  0  0  0  0  0  0  0  0
   11.5067   71.1460  -15.0789 H   0  0  0  0  0  0  0  0  0  0  0  0
   13.6240   62.7738  -12.6684 C   0  0  0  0  0  0  0  0  0  0  0  0
   13.8842   62.5258  -11.2437 C   0  0  0  0  0  0  0  0  0  0  0  0
   21.0575   64.3269   -9.2279 Cl  0  0  0  0  0  0  0  0  0  0  0  0
   19.6255   63.3673   -9.6331 C   0  0  0  0  0  0  0  0  0  0  0  0
   18.4480   64.0118   -9.9313 C   0  0  0  0  0  0  0  0  0  0  0  0
   17.3052   63.2972  -10.2529 C   0  0  0  0  0  0  0  0  0  0  0  0
   16.0532   63.6517  -10.5777 N   0  0  0  0  0  0  0  0  0  0  0  0
   15.3031   62.5170  -10.8047 C   0  0  0  0  0  0  0  0  0  0  0  0
   16.1358   61.5005  -10.6098 N   0  0  0  0  0  0  0  0  0  0  0  0
   17.3868   61.9242  -10.2655 C   0  0  0  0  0  0  0  0  0  0  0  0
   18.5628   61.2685   -9.9673 C   0  0  0  0  0  0  0  0  0  0  0  0
   19.6897   61.9875   -9.6494 C   0  0  0  0  0  0  0  0  0  0  0  0
   15.8548   60.0846  -10.7679 C   0  0  0  0  0  0  0  0  0  0  0  0
 23 24  1  0  0  0
 24 25  2  0  0  0
 24 32  1  0  0  0
 25 26  1  0  0  0
 26 27  1  0  0  0
 26 30  2  0  0  0
 27 28  2  0  0  0
 28 29  1  0  0  0
 28 22  1  0  0  0
 29 30  1  0  0  0
 29 33  1  0  0  0
 30 31  1  0  0  0
 31 32  2  0  0  0
 22 21  1  0  0  0
 21  1  1  0  0  0
  1  2  2  0  0  0
  1  3  1  0  0  0
  3  4  1  0  0  0
  3  8  1  0  0  0
  4  5  1  0  0  0
  5  6  1  0  0  0
  5 12  1  0  0  0
  6  7  1  0  0  0
  6  9  1  0  0  0
  6 10  1  0  0  0
  7  8  1  0  0  0
 12 13  1  0  0  0
 12 18  1  0  0  0
 13 14  2  0  0  0
 14 15  1  0  0  0
 15 16  2  0  0  0
 15 17  1  0  0  0
 17 18  1  0  0  0
 18 19  2  0  0  0
  9 11  1  0  0  0
 17 20  1  0  0  0
M  END
> <minimizedAffinity>
-7.97427

$$$$
1388


 30 33  0  0  0  0  0  0  0  0999 V2000
   21.5896   63.8964  -10.1813 C   0  0  0  0  0  0  0  0  0  0  0  0
   21.8038   65.1297  -10.0836 O   0  0  0  0  0  0  0  0  0  0  0  0
   20.3259   63.3893   -9.8411 N   0  0  0  0  0  0  0  0  0  0  0  0
   20.0054   61.9861   -9.9271 C   0  0  0  0  0  0  0  0  0  0  0  0
   18.9286   61.8459  -10.9810 C   0  0  0  0  0  0  0  0  0  0  0  0
   17.8076   62.8166  -10.6955 C   0  0  0  0  0  0  0  0  0  0  0  0
   17.7272   63.7452  -11.8030 N   0  0  0  0  0  0  0  0  0  0  0  0
   16.6345   64.6521  -11.7462 C   0  0  0  0  0  0  0  0  0  0  0  0
   15.3365   64.1192  -11.2608 C   0  0  0  0  0  0  0  0  0  0  0  0
   15.3282   62.6663  -10.9898 C   0  0  0  0  0  0  0  0  0  0  0  0
   14.3215   61.7406  -10.9465 N   0  0  0  0  0  0  0  0  0  0  0  0
   14.8926   60.5672  -10.6487 C   0  0  0  0  0  0  0  0  0  0  0  0
   16.2166   60.7431  -10.5089 N   0  0  0  0  0  0  0  0  0  0  0  0
   16.5270   62.0477  -10.7152 C   0  0  0  0  0  0  0  0  0  0  0  0
   17.9401   63.5499   -9.3998 C   0  0  0  0  0  0  0  0  0  0  0  0
   19.2881   64.2774   -9.3846 C   0  0  0  0  0  0  0  0  0  0  0  0
   18.6179   64.3081  -11.8258 H   0  0  0  0  0  0  0  0  0  0  0  0
   13.2979   61.9618  -11.1221 H   0  0  0  0  0  0  0  0  0  0  0  0
   22.7161   63.0525  -10.6606 C   0  0  0  0  0  0  0  0  0  0  0  0
   24.1857   63.2734  -12.6730 C   0  0  0  0  0  0  0  0  0  0  0  0
   25.1765   63.2556  -11.8986 O   0  0  0  0  0  0  0  0  0  0  0  0
   22.9017   63.1721  -12.0909 N   0  0  0  0  0  0  0  0  0  0  0  0
   22.0678   63.1848  -12.7104 H   0  0  0  0  0  0  0  0  0  0  0  0
   22.1666   64.1479  -17.5242 Br  0  0  0  0  0  0  0  0  0  0  0  0
   23.6173   63.7753  -16.3653 C   0  0  0  0  0  0  0  0  0  0  0  0
   23.3844   63.6647  -15.0063 C   0  0  0  0  0  0  0  0  0  0  0  0
   24.3998   63.3951  -14.1079 C   0  0  0  0  0  0  0  0  0  0  0  0
   25.6831   63.2331  -14.6100 C   0  0  0  0  0  0  0  0  0  0  0  0
   25.9075   63.3445  -15.9618 C   0  0  0  0  0  0  0  0  0  0  0  0
   24.9082   63.6129  -16.8706 C   0  0  0  0  0  0  0  0  0  0  0  0
 24 25  1  0  0  0
 25 26  2  0  0  0
 25 30  1  0  0  0
 26 27  1  0  0  0
 27 28  2  0  0  0
 27 20  1  0  0  0
 28 29  1  0  0  0
 29 30  2  0  0  0
 20 21  2  0  0  0
 20 22  1  0  0  0
 22 19  1  0  0  0
 19  1  1  0  0  0
  1  2  2  0  0  0
  1  3  1  0  0  0
  3  4  1  0  0  0
  3 16  1  0  0  0
  4  5  1  0  0  0
  5  6  1  0  0  0
  6  7  1  0  0  0
  6 14  1  0  0  0
  6 15  1  0  0  0
  7  8  1  0  0  0
  8  9  1  0  0  0
  9 10  1  0  0  0
 10 11  1  0  0  0
 10 14  2  0  0  0
 11 12  1  0  0  0
 12 13  2  0  0  0
 13 14  1  0  0  0
 15 16  1  0  0  0
 22 23  1  0  0  0
  7 17  1  0  0  0
 11 18  1  0  0  0
M  END
> <minimizedAffinity>
-8.22693

$$$$
1404


 26 29  0  0  0  0  0  0  0  0999 V2000
   13.6333   62.9401  -10.5020 Br  0  0  0  0  0  0  0  0  0  0  0  0
   13.6201   63.9948  -12.0915 C   0  0  0  0  0  0  0  0  0  0  0  0
   12.4774   64.1206  -12.8587 C   0  0  0  0  0  0  0  0  0  0  0  0
   12.4177   64.8704  -14.0142 C   0  0  0  0  0  0  0  0  0  0  0  0
   13.6014   65.5164  -14.3826 C   0  0  0  0  0  0  0  0  0  0  0  0
   14.7367   65.3914  -13.6201 C   0  0  0  0  0  0  0  0  0  0  0  0
   14.7814   64.6375  -12.4657 C   0  0  0  0  0  0  0  0  0  0  0  0
   16.0422   64.5370  -11.6767 C   0  0  0  0  0  0  0  0  0  0  0  0
   13.5025   66.2625  -15.5487 O   0  0  0  0  0  0  0  0  0  0  0  0
   12.4012   66.2175  -16.4361 C   0  0  0  0  0  0  0  0  0  0  0  0
   11.0559   66.2219  -15.6365 C   0  0  0  0  0  0  0  0  0  0  0  0
   11.2180   64.9868  -14.8314 C   0  0  0  0  0  0  0  0  0  0  0  0
   10.4378   64.0204  -14.7731 O   0  0  0  0  0  0  0  0  0  0  0  0
    9.9513   66.3076  -16.4257 N   0  0  0  0  0  0  0  0  0  0  0  0
    8.6685   66.6137  -15.9554 C   0  0  0  0  0  0  0  0  0  0  0  0
    7.8438   65.3500  -15.8362 C   0  0  0  0  0  0  0  0  0  0  0  0
    7.6635   64.8906  -17.1625 O   0  0  0  0  0  0  0  0  0  0  0  0
    8.9262   64.3925  -17.5282 C   0  0  0  0  0  0  0  0  0  0  0  0
    9.8914   65.5772  -17.6137 C   0  0  0  0  0  0  0  0  0  0  0  0
   11.1931   67.4163  -14.7615 C   0  0  0  0  0  0  0  0  0  0  0  0
   11.8086   68.5884  -15.3007 N   0  0  0  0  0  0  0  0  0  0  0  0
   11.0588   69.4021  -16.1807 C   0  0  0  0  0  0  0  0  0  0  0  0
   10.0361   70.2418  -15.4008 C   0  0  0  0  0  0  0  0  0  0  0  0
   10.7932   71.1240  -14.6227 O   0  0  0  0  0  0  0  0  0  0  0  0
   11.4184   70.3557  -13.6337 C   0  0  0  0  0  0  0  0  0  0  0  0
   12.3864   69.3636  -14.2014 C   0  0  0  0  0  0  0  0  0  0  0  0
  1  2  1  0  0  0
  2  3  2  0  0  0
  2  7  1  0  0  0
  3  4  1  0  0  0
  4  5  2  0  0  0
  4 12  1  0  0  0
  5  6  1  0  0  0
  5  9  1  0  0  0
  6  7  2  0  0  0
  7  8  1  0  0  0
  9 10  1  0  0  0
 10 11  1  0  0  0
 11 12  1  0  0  0
 11 14  1  0  0  0
 11 20  1  0  0  0
 12 13  2  0  0  0
 14 15  1  0  0  0
 14 19  1  0  0  0
 15 16  1  0  0  0
 16 17  1  0  0  0
 17 18  1  0  0  0
 18 19  1  0  0  0
 20 21  1  0  0  0
 21 22  1  0  0  0
 21 26  1  0  0  0
 22 23  1  0  0  0
 23 24  1  0  0  0
 24 25  1  0  0  0
 25 26  1  0  0  0
M  END
> <minimizedAffinity>
-2.39720

$$$$
1405


 27 30  0  0  0  0  0  0  0  0999 V2000
   14.8419   63.9267  -11.0488 Br  0  0  0  0  0  0  0  0  0  0  0  0
   13.7925   63.9124  -12.6652 C   0  0  0  0  0  0  0  0  0  0  0  0
   13.6395   65.0464  -13.4184 C   0  0  0  0  0  0  0  0  0  0  0  0
   12.8843   65.0118  -14.5718 C   0  0  0  0  0  0  0  0  0  0  0  0
   12.3092   63.8196  -14.9194 C   0  0  0  0  0  0  0  0  0  0  0  0
   12.4679   62.6536  -14.1434 C   0  0  0  0  0  0  0  0  0  0  0  0
   13.2214   62.7061  -13.0012 C   0  0  0  0  0  0  0  0  0  0  0  0
   11.5648   63.9425  -16.1276 N   0  0  0  0  0  0  0  0  0  0  0  0
   11.6712   65.2684  -16.5659 C   0  0  0  0  0  0  0  0  0  0  0  0
   11.1310   65.7369  -17.6142 O   0  0  0  0  0  0  0  0  0  0  0  0
   12.5263   66.0306  -15.5891 C   0  0  0  0  0  0  0  0  0  0  0  0
   13.6747   66.5072  -16.3511 C   0  0  0  0  0  0  0  0  0  0  0  0
   13.9049   67.8367  -16.5234 C   0  0  0  0  0  0  0  0  0  0  0  0
   15.0425   67.9416  -17.2717 N   0  0  0  0  0  0  0  0  0  0  0  0
   15.5093   66.7449  -17.5602 N   0  0  0  0  0  0  0  0  0  0  0  0
   14.7036   65.8351  -17.0171 C   0  0  0  0  0  0  0  0  0  0  0  0
   14.7990   64.3422  -17.0569 C   0  0  0  0  0  0  0  0  0  0  0  0
   13.0712   68.8255  -15.9898 O   0  0  0  0  0  0  0  0  0  0  0  0
   11.9766   68.3669  -15.2641 C   0  0  0  0  0  0  0  0  0  0  0  0
   11.7028   67.1041  -15.0647 C   0  0  0  0  0  0  0  0  0  0  0  0
   11.0728   69.3497  -14.6843 N   0  0  0  0  0  0  0  0  0  0  0  0
   10.8127   62.8755  -16.8052 C   0  0  0  0  0  0  0  0  0  0  0  0
   16.3652   66.4927  -18.1187 H   0  0  0  0  0  0  0  0  0  0  0  0
   10.2963   69.6463  -15.3084 H   0  0  0  0  0  0  0  0  0  0  0  0
   11.1802   69.7262  -13.7447 H   0  0  0  0  0  0  0  0  0  0  0  0
   10.5001   66.8017  -14.2694 C   0  0  0  0  0  0  0  0  0  0  0  0
    9.5423   66.5436  -13.6528 N   0  0  0  0  0  0  0  0  0  0  0  0
  1  2  1  0  0  0
  2  3  2  0  0  0
  2  7  1  0  0  0
  3  4  1  0  0  0
  4  5  2  0  0  0
  4 11  1  0  0  0
  5  6  1  0  0  0
  5  8  1  0  0  0
  6  7  2  0  0  0
  8  9  1  0  0  0
  8 22  1  0  0  0
  9 10  2  0  0  0
  9 11  1  0  0  0
 11 12  1  0  0  0
 11 20  1  0  0  0
 12 13  1  0  0  0
 12 16  2  0  0  0
 13 14  2  0  0  0
 13 18  1  0  0  0
 14 15  1  0  0  0
 15 16  1  0  0  0
 16 17  1  0  0  0
 18 19  1  0  0  0
 19 20  2  0  0  0
 19 21  1  0  0  0
 20 26  1  0  0  0
 26 27  3  0  0  0
 15 23  1  0  0  0
 21 24  1  0  0  0
 21 25  1  0  0  0
M  END
> <minimizedAffinity>
-4.84265

$$$$
1413


 24 27  0  0  0  0  0  0  0  0999 V2000
   21.0390   64.4852   -9.8076 C   0  0  0  0  0  0  0  0  0  0  0  0
   15.9337   64.0638  -11.1408 Br  0  0  0  0  0  0  0  0  0  0  0  0
   17.5739   63.3195  -10.5551 C   0  0  0  0  0  0  0  0  0  0  0  0
   17.6350   61.9915  -10.3024 C   0  0  0  0  0  0  0  0  0  0  0  0
   16.7044   61.0205  -10.3869 N   0  0  0  0  0  0  0  0  0  0  0  0
   17.3423   59.9151  -10.0139 N   0  0  0  0  0  0  0  0  0  0  0  0
   18.5901   60.1417   -9.7106 N   0  0  0  0  0  0  0  0  0  0  0  0
   18.8355   61.4673   -9.8786 C   0  0  0  0  0  0  0  0  0  0  0  0
   19.9531   62.2790   -9.7146 C   0  0  0  0  0  0  0  0  0  0  0  0
   19.8980   63.5983   -9.9638 N   0  0  0  0  0  0  0  0  0  0  0  0
   18.7151   64.1008  -10.3792 C   0  0  0  0  0  0  0  0  0  0  0  0
   15.3435   61.0540  -10.7688 C   0  0  0  0  0  0  0  0  0  0  0  0
   22.2199   63.8485   -9.2320 C   0  0  0  0  0  0  0  0  0  0  0  0
   22.9511   63.1907  -10.0336 O   0  0  0  0  0  0  0  0  0  0  0  0
   22.6347   63.8967   -7.8333 C   0  0  0  0  0  0  0  0  0  0  0  0
   23.7822   63.2553   -7.4605 C   0  0  0  0  0  0  0  0  0  0  0  0
   24.1929   63.2783   -6.1531 C   0  0  0  0  0  0  0  0  0  0  0  0
   23.4773   63.9393   -5.1715 C   0  0  0  0  0  0  0  0  0  0  0  0
   22.3125   64.5817   -5.5844 C   0  0  0  0  0  0  0  0  0  0  0  0
   21.8993   64.5618   -6.8881 C   0  0  0  0  0  0  0  0  0  0  0  0
   23.8706   63.9769   -3.8498 C   0  0  0  0  0  0  0  0  0  0  0  0
   25.0335   63.3189   -3.5117 C   0  0  0  0  0  0  0  0  0  0  0  0
   25.7557   62.6560   -4.4823 C   0  0  0  0  0  0  0  0  0  0  0  0
   25.3585   62.6227   -5.7991 C   0  0  0  0  0  0  0  0  0  0  0  0
  2  3  1  0  0  0
  3  4  2  0  0  0
  3 11  1  0  0  0
  4  5  1  0  0  0
  4  8  1  0  0  0
  5  6  1  0  0  0
  5 12  1  0  0  0
  6  7  2  0  0  0
  7  8  1  0  0  0
  8  9  2  0  0  0
  9 10  1  0  0  0
 10 11  2  0  0  0
 10  1  1  0  0  0
  1 13  1  0  0  0
 13 14  2  0  0  0
 13 15  1  0  0  0
 15 16  2  0  0  0
 15 20  1  0  0  0
 16 17  1  0  0  0
 17 18  2  0  0  0
 17 24  1  0  0  0
 18 19  1  0  0  0
 18 21  1  0  0  0
 19 20  2  0  0  0
 21 22  2  0  0  0
 22 23  1  0  0  0
 23 24  2  0  0  0
M  END
> <minimizedAffinity>
-9.90654

$$$$
1415


 32 35  0  0  0  0  0  0  0  0999 V2000
   18.7209   63.2560   -9.3663 Br  0  0  0  0  0  0  0  0  0  0  0  0
   20.6145   63.5244   -9.4908 C   0  0  0  0  0  0  0  0  0  0  0  0
   21.3415   63.8054   -8.3586 C   0  0  0  0  0  0  0  0  0  0  0  0
   22.7307   64.0090   -8.4059 C   0  0  0  0  0  0  0  0  0  0  0  0
   23.3235   63.9118   -9.6458 C   0  0  0  0  0  0  0  0  0  0  0  0
   22.6181   63.6321  -10.7964 C   0  0  0  0  0  0  0  0  0  0  0  0
   21.2579   63.4360  -10.7244 C   0  0  0  0  0  0  0  0  0  0  0  0
   20.4109   63.1296  -11.9061 C   0  0  0  0  0  0  0  0  0  0  0  0
   23.4666   63.5032  -12.5004 Br  0  0  0  0  0  0  0  0  0  0  0  0
   23.4568   64.3058   -7.1886 C   0  0  0  0  0  0  0  0  0  0  0  0
   24.6898   64.3837   -7.2033 O   0  0  0  0  0  0  0  0  0  0  0  0
   22.7132   64.5138   -5.9335 C   0  0  0  0  0  0  0  0  0  0  0  0
   21.4957   63.6170   -5.9816 C   0  0  0  0  0  0  0  0  0  0  0  0
   20.7065   63.8948   -7.1236 O   0  0  0  0  0  0  0  0  0  0  0  0
   23.5308   64.2701   -4.7014 C   0  0  0  0  0  0  0  0  0  0  0  0
   23.3853   63.0004   -4.1009 N   0  0  0  0  0  0  0  0  0  0  0  0
   24.4586   62.1413   -4.5050 C   0  0  0  0  0  0  0  0  0  0  0  0
   25.7886   62.4751   -3.9305 C   0  0  0  0  0  0  0  0  0  0  0  0
   25.8149   63.4961   -2.8601 C   0  0  0  0  0  0  0  0  0  0  0  0
   24.5573   63.7074   -2.1111 C   0  0  0  0  0  0  0  0  0  0  0  0
   23.3628   62.9874   -2.6642 C   0  0  0  0  0  0  0  0  0  0  0  0
   26.6742   62.9803   -5.0755 C   0  0  0  0  0  0  0  0  0  0  0  0
   22.4910   62.5508   -4.4227 H   0  0  0  0  0  0  0  0  0  0  0  0
   22.2381   65.9519   -5.9640 C   0  0  0  0  0  0  0  0  0  0  0  0
   22.6779   66.7147   -7.0820 N   0  0  0  0  0  0  0  0  0  0  0  0
   23.6499   67.7206   -6.6580 C   0  0  0  0  0  0  0  0  0  0  0  0
   23.0460   69.0885   -6.5307 C   0  0  0  0  0  0  0  0  0  0  0  0
   21.6852   68.9828   -5.8804 C   0  0  0  0  0  0  0  0  0  0  0  0
   20.7790   68.2638   -6.8309 C   0  0  0  0  0  0  0  0  0  0  0  0
   21.6224   67.4312   -7.7645 C   0  0  0  0  0  0  0  0  0  0  0  0
   23.9290   69.8790   -5.5556 C   0  0  0  0  0  0  0  0  0  0  0  0
   23.1571   66.1179   -7.7615 H   0  0  0  0  0  0  0  0  0  0  0  0
  1  2  1  0  0  0
  2  3  2  0  0  0
  2  7  1  0  0  0
  3  4  1  0  0  0
  3 14  1  0  0  0
  4  5  2  0  0  0
  4 10  1  0  0  0
  5  6  1  0  0  0
  6  7  2  0  0  0
  6  9  1  0  0  0
  7  8  1  0  0  0
 10 11  2  0  0  0
 10 12  1  0  0  0
 12 13  1  0  0  0
 12 15  1  0  0  0
 12 24  1  0  0  0
 13 14  1  0  0  0
 15 16  1  0  0  0
 16 17  1  0  0  0
 16 21  1  0  0  0
 17 18  1  0  0  0
 18 19  1  0  0  0
 18 22  1  0  0  0
 19 20  1  0  0  0
 20 21  1  0  0  0
 24 25  1  0  0  0
 25 26  1  0  0  0
 25 30  1  0  0  0
 26 27  1  0  0  0
 27 28  1  0  0  0
 27 31  1  0  0  0
 28 29  1  0  0  0
 29 30  1  0  0  0
 16 23  1  0  0  0
 25 32  1  0  0  0
M  CHG 1  16   1
M  CHG 1  25   1
M  END
> <minimizedAffinity>
-7.13927

$$$$
1428


 37 40  0  0  0  0  0  0  0  0999 V2000
   19.8269   67.1784   -8.3085 Cl  0  0  0  0  0  0  0  0  0  0  0  0
   21.0601   65.9226   -8.2558 C   0  0  0  0  0  0  0  0  0  0  0  0
   21.5019   65.2898   -9.3869 C   0  0  0  0  0  0  0  0  0  0  0  0
   22.4681   64.3142   -9.2896 C   0  0  0  0  0  0  0  0  0  0  0  0
   22.9586   64.0084   -8.0472 C   0  0  0  0  0  0  0  0  0  0  0  0
   22.5060   64.6563   -6.8944 C   0  0  0  0  0  0  0  0  0  0  0  0
   21.5480   65.6211   -7.0031 C   0  0  0  0  0  0  0  0  0  0  0  0
   23.9578   62.9962   -8.0945 N   0  0  0  0  0  0  0  0  0  0  0  0
   24.0989   62.6513   -9.4447 C   0  0  0  0  0  0  0  0  0  0  0  0
   24.9373   61.7714   -9.8302 O   0  0  0  0  0  0  0  0  0  0  0  0
   23.1655   63.4394  -10.2616 C   0  0  0  0  0  0  0  0  0  0  0  0
   23.9378   64.1894  -11.2119 N   0  0  0  0  0  0  0  0  0  0  0  0
   23.6819   63.6805  -12.5232 C   0  0  0  0  0  0  0  0  0  0  0  0
   22.9646   62.3785  -12.3641 C   0  0  0  0  0  0  0  0  0  0  0  0
   22.2912   62.5466  -11.0305 C   0  0  0  0  0  0  0  0  0  0  0  0
   24.4888   62.5849   -7.2816 H   0  0  0  0  0  0  0  0  0  0  0  0
   23.7694   65.2126  -11.1113 H   0  0  0  0  0  0  0  0  0  0  0  0
   20.8691   62.9583  -11.1517 C   0  0  0  0  0  0  0  0  0  0  0  0
   20.6658   64.0980  -11.6356 O   0  0  0  0  0  0  0  0  0  0  0  0
   19.7906   62.1562  -10.7612 N   0  0  0  0  0  0  0  0  0  0  0  0
   20.0708   61.2033  -10.3738 H   0  0  0  0  0  0  0  0  0  0  0  0
   18.4242   62.4339  -10.8217 C   0  0  0  0  0  0  0  0  0  0  0  0
   17.5180   61.4783  -10.3850 C   0  0  0  0  0  0  0  0  0  0  0  0
   16.1540   61.6859  -10.4141 C   0  0  0  0  0  0  0  0  0  0  0  0
   15.6247   62.8618  -10.8835 C   0  0  0  0  0  0  0  0  0  0  0  0
   16.4918   63.8211  -11.3208 C   0  0  0  0  0  0  0  0  0  0  0  0
   17.8663   63.5989  -11.2850 C   0  0  0  0  0  0  0  0  0  0  0  0
   17.9744   60.2663   -9.8978 O   0  0  0  0  0  0  0  0  0  0  0  0
   17.1481   59.1885   -9.5804 C   0  0  0  0  0  0  0  0  0  0  0  0
   15.9988   65.0209  -11.8005 O   0  0  0  0  0  0  0  0  0  0  0  0
   14.7772   65.1174  -12.5104 C   0  0  0  0  0  0  0  0  0  0  0  0
   24.9611   63.5329  -13.3308 C   0  0  0  0  0  0  0  0  0  0  0  0
   24.7153   63.6378  -14.7761 C   0  0  0  0  0  0  0  0  0  0  0  0
   23.6040   63.9929  -15.1992 O   0  0  0  0  0  0  0  0  0  0  0  0
   25.7467   63.3335  -15.6838 N   0  0  0  0  0  0  0  0  0  0  0  0
   25.9312   64.0018  -16.4621 H   0  0  0  0  0  0  0  0  0  0  0  0
   26.3481   62.4755  -15.6330 H   0  0  0  0  0  0  0  0  0  0  0  0
  1  2  1  0  0  0
  2  3  2  0  0  0
  2  7  1  0  0  0
  3  4  1  0  0  0
  4  5  2  0  0  0
  4 11  1  0  0  0
  5  6  1  0  0  0
  5  8  1  0  0  0
  6  7  2  0  0  0
  8  9  1  0  0  0
  9 10  2  0  0  0
  9 11  1  0  0  0
 11 12  1  0  0  0
 11 15  1  0  0  0
 12 13  1  0  0  0
 13 14  1  0  0  0
 13 32  1  0  0  0
 14 15  1  0  0  0
 15 18  1  0  0  0
 18 19  2  0  0  0
 18 20  1  0  0  0
 20 22  1  0  0  0
 22 23  2  0  0  0
 22 27  1  0  0  0
 23 24  1  0  0  0
 23 28  1  0  0  0
 24 25  2  0  0  0
 25 26  1  0  0  0
 26 27  2  0  0  0
 26 30  1  0  0  0
 30 31  1  0  0  0
 28 29  1  0  0  0
 32 33  1  0  0  0
 33 34  2  0  0  0
 33 35  1  0  0  0
  8 16  1  0  0  0
 12 17  1  0  0  0
 20 21  1  0  0  0
 35 36  1  0  0  0
 35 37  1  0  0  0
M  END
> <minimizedAffinity>
-3.73839

$$$$
1432


 21 24  0  0  0  0  0  0  0  0999 V2000
   22.4069   63.6217   -8.7700 C   0  0  0  0  0  0  0  0  0  0  0  0
   21.9022   64.3235   -7.7419 N   0  0  0  0  0  0  0  0  0  0  0  0
   22.6572   64.1603   -6.6426 N   0  0  0  0  0  0  0  0  0  0  0  0
   23.6664   63.3369   -6.9777 C   0  0  0  0  0  0  0  0  0  0  0  0
   23.5062   63.0140   -8.2746 N   0  0  0  0  0  0  0  0  0  0  0  0
   24.5872   63.0174   -5.9982 C   0  0  0  0  0  0  0  0  0  0  0  0
   24.4956   63.5142   -4.7116 C   0  0  0  0  0  0  0  0  0  0  0  0
   25.5143   63.0486   -3.9572 N   0  0  0  0  0  0  0  0  0  0  0  0
   26.2303   62.2775   -4.7536 N   0  0  0  0  0  0  0  0  0  0  0  0
   25.7116   62.2258   -5.9938 C   0  0  0  0  0  0  0  0  0  0  0  0
   25.7493   63.3569   -2.5482 C   0  0  0  0  0  0  0  0  0  0  0  0
   23.4616   64.3317   -4.4482 N   0  0  0  0  0  0  0  0  0  0  0  0
   22.5604   64.6494   -5.3919 C   0  0  0  0  0  0  0  0  0  0  0  0
   21.8938   63.5149  -10.1636 C   0  0  0  0  0  0  0  0  0  0  0  0
   16.5016   64.1974  -10.4296 Br  0  0  0  0  0  0  0  0  0  0  0  0
   18.2574   63.4684  -10.2961 C   0  0  0  0  0  0  0  0  0  0  0  0
   19.4736   64.1470  -10.3136 C   0  0  0  0  0  0  0  0  0  0  0  0
   20.4659   63.2425  -10.1918 N   0  0  0  0  0  0  0  0  0  0  0  0
   19.9113   62.0334  -10.1008 N   0  0  0  0  0  0  0  0  0  0  0  0
   18.5690   62.1323  -10.1604 C   0  0  0  0  0  0  0  0  0  0  0  0
   17.5532   61.0550  -10.0989 C   0  0  0  0  0  0  0  0  0  0  0  0
 15 16  1  0  0  0
 16 17  2  0  0  0
 16 20  1  0  0  0
 17 18  1  0  0  0
 18 19  1  0  0  0
 18 14  1  0  0  0
 19 20  2  0  0  0
 20 21  1  0  0  0
 14  1  1  0  0  0
  1  2  2  0  0  0
  1  5  1  0  0  0
  2  3  1  0  0  0
  3  4  1  0  0  0
  3 13  1  0  0  0
  4  5  2  0  0  0
  4  6  1  0  0  0
  6  7  2  0  0  0
  6 10  1  0  0  0
  7  8  1  0  0  0
  7 12  1  0  0  0
  8  9  1  0  0  0
  8 11  1  0  0  0
  9 10  2  0  0  0
 12 13  2  0  0  0
M  END
> <minimizedAffinity>
-7.84065

$$$$
1433


 28 31  0  0  0  0  0  0  0  0999 V2000
   15.8438   65.7423  -10.2981 Br  0  0  0  0  0  0  0  0  0  0  0  0
   16.4716   63.9529  -10.3123 C   0  0  0  0  0  0  0  0  0  0  0  0
   17.8278   63.6929  -10.0902 C   0  0  0  0  0  0  0  0  0  0  0  0
   18.3154   62.4093  -10.0815 C   0  0  0  0  0  0  0  0  0  0  0  0
   17.4222   61.3880  -10.3007 C   0  0  0  0  0  0  0  0  0  0  0  0
   16.0660   61.6184  -10.5253 C   0  0  0  0  0  0  0  0  0  0  0  0
   15.5833   62.9303  -10.5281 C   0  0  0  0  0  0  0  0  0  0  0  0
   14.1355   63.1886  -10.7613 C   0  0  0  0  0  0  0  0  0  0  0  0
   15.1431   60.4803  -10.7788 C   0  0  0  0  0  0  0  0  0  0  0  0
   19.7350   62.0379   -9.8151 C   0  0  0  0  0  0  0  0  0  0  0  0
   20.6828   63.1968   -9.7690 C   0  0  0  0  0  0  0  0  0  0  0  0
   20.0512   64.3735  -10.4901 C   0  0  0  0  0  0  0  0  0  0  0  0
   18.7749   64.6841   -9.8729 O   0  0  0  0  0  0  0  0  0  0  0  0
   20.1255   61.1263  -10.8447 O   0  0  0  0  0  0  0  0  0  0  0  0
   19.7157   60.2542  -10.6226 H   0  0  0  0  0  0  0  0  0  0  0  0
   21.8528   62.7954  -10.5204 N   0  0  0  0  0  0  0  0  0  0  0  0
   23.0623   62.8468   -9.7689 C   0  0  0  0  0  0  0  0  0  0  0  0
   24.3284   62.8302  -10.5767 C   0  0  0  0  0  0  0  0  0  0  0  0
   24.2777   63.5197  -11.7579 O   0  0  0  0  0  0  0  0  0  0  0  0
   23.2301   62.9881  -12.5215 C   0  0  0  0  0  0  0  0  0  0  0  0
   21.9568   63.4720  -11.7794 C   0  0  0  0  0  0  0  0  0  0  0  0
   21.0100   63.7174   -8.4214 C   0  0  0  0  0  0  0  0  0  0  0  0
   21.5689   64.9681   -8.1846 N   0  0  0  0  0  0  0  0  0  0  0  0
   21.0266   65.5221   -6.8968 C   0  0  0  0  0  0  0  0  0  0  0  0
   21.2552   64.5838   -5.7702 C   0  0  0  0  0  0  0  0  0  0  0  0
   22.3869   63.8204   -5.8725 O   0  0  0  0  0  0  0  0  0  0  0  0
   23.3890   64.3343   -6.6429 C   0  0  0  0  0  0  0  0  0  0  0  0
   22.9857   65.0618   -7.8846 C   0  0  0  0  0  0  0  0  0  0  0  0
  1  2  1  0  0  0
  2  3  2  0  0  0
  2  7  1  0  0  0
  3  4  1  0  0  0
  3 13  1  0  0  0
  4  5  2  0  0  0
  4 10  1  0  0  0
  5  6  1  0  0  0
  6  7  2  0  0  0
  6  9  1  0  0  0
  7  8  1  0  0  0
 10 11  1  0  0  0
 10 14  1  0  0  0
 11 12  1  0  0  0
 11 16  1  0  0  0
 11 22  1  0  0  0
 12 13  1  0  0  0
 16 17  1  0  0  0
 16 21  1  0  0  0
 17 18  1  0  0  0
 18 19  1  0  0  0
 19 20  1  0  0  0
 20 21  1  0  0  0
 22 23  1  0  0  0
 23 24  1  0  0  0
 23 28  1  0  0  0
 24 25  1  0  0  0
 25 26  1  0  0  0
 26 27  1  0  0  0
 27 28  1  0  0  0
 14 15  1  0  0  0
M  END
> <minimizedAffinity>
-6.48040

$$$$
1434


 28 31  0  0  0  0  0  0  0  0999 V2000
   21.2647   63.1478   -8.9687 C   0  0  0  0  0  0  0  0  0  0  0  0
   22.0625   63.0976  -10.0298 O   0  0  0  0  0  0  0  0  0  0  0  0
   21.5705   64.1575   -8.0700 N   0  0  0  0  0  0  0  0  0  0  0  0
   20.9186   64.4713   -6.8488 C   0  0  0  0  0  0  0  0  0  0  0  0
   21.8099   64.0817   -5.6688 C   0  0  0  0  0  0  0  0  0  0  0  0
   23.2693   64.2550   -6.0546 C   0  0  0  0  0  0  0  0  0  0  0  0
   23.9453   64.6875   -4.8433 N   0  0  0  0  0  0  0  0  0  0  0  0
   24.3641   63.4869   -4.1618 C   0  0  0  0  0  0  0  0  0  0  0  0
   24.6899   63.4005   -2.9518 O   0  0  0  0  0  0  0  0  0  0  0  0
   24.3356   62.4183   -5.1270 N   0  0  0  0  0  0  0  0  0  0  0  0
   23.9077   62.9601   -6.3703 C   0  0  0  0  0  0  0  0  0  0  0  0
   24.0612   62.4149   -7.4880 O   0  0  0  0  0  0  0  0  0  0  0  0
   23.4687   65.2997   -7.1069 C   0  0  0  0  0  0  0  0  0  0  0  0
   22.7215   65.0421   -8.3747 C   0  0  0  0  0  0  0  0  0  0  0  0
   24.1035   65.6642   -4.5192 H   0  0  0  0  0  0  0  0  0  0  0  0
   24.5833   61.4360   -4.9427 H   0  0  0  0  0  0  0  0  0  0  0  0
   20.2513   62.1123   -9.0091 C   0  0  0  0  0  0  0  0  0  0  0  0
   16.0072   64.5406  -11.3748 Br  0  0  0  0  0  0  0  0  0  0  0  0
   17.2339   63.3052  -10.5856 C   0  0  0  0  0  0  0  0  0  0  0  0
   16.9542   61.9711  -10.4246 C   0  0  0  0  0  0  0  0  0  0  0  0
   18.0526   61.4048   -9.8310 C   0  0  0  0  0  0  0  0  0  0  0  0
   18.9978   62.3702   -9.6270 N   0  0  0  0  0  0  0  0  0  0  0  0
   18.4878   63.5350  -10.0921 C   0  0  0  0  0  0  0  0  0  0  0  0
   19.1857   64.8403  -10.0630 C   0  0  0  0  0  0  0  0  0  0  0  0
   18.0487   60.0391   -9.5462 C   0  0  0  0  0  0  0  0  0  0  0  0
   16.9455   59.2551   -9.8582 C   0  0  0  0  0  0  0  0  0  0  0  0
   15.8597   59.8385  -10.4496 C   0  0  0  0  0  0  0  0  0  0  0  0
   15.8550   61.1846  -10.7339 C   0  0  0  0  0  0  0  0  0  0  0  0
 18 19  1  0  0  0
 19 20  1  0  0  0
 19 23  2  0  0  0
 20 21  2  0  0  0
 20 28  1  0  0  0
 21 22  1  0  0  0
 21 25  1  0  0  0
 22 23  1  0  0  0
 22 17  1  0  0  0
 23 24  1  0  0  0
 17  1  1  0  0  0
  1  2  2  0  0  0
  1  3  1  0  0  0
  3  4  1  0  0  0
  3 14  1  0  0  0
  4  5  1  0  0  0
  5  6  1  0  0  0
  6  7  1  0  0  0
  6 11  1  0  0  0
  6 13  1  0  0  0
  7  8  1  0  0  0
  8  9  2  0  0  0
  8 10  1  0  0  0
 10 11  1  0  0  0
 11 12  2  0  0  0
 13 14  1  0  0  0
 25 26  2  0  0  0
 26 27  1  0  0  0
 27 28  2  0  0  0
  7 15  1  0  0  0
 10 16  1  0  0  0
M  END
> <minimizedAffinity>
-8.27186

$$$$
1435


 32 35  0  0  0  0  0  0  0  0999 V2000
   18.9210   63.2306  -10.3275 C   0  0  0  0  0  0  0  0  0  0  0  0
   17.6865   62.9557   -9.4796 C   0  0  0  0  0  0  0  0  0  0  0  0
   17.2195   59.6670   -9.8243 Br  0  0  0  0  0  0  0  0  0  0  0  0
   16.2590   61.1582  -10.5315 C   0  0  0  0  0  0  0  0  0  0  0  0
   16.5997   62.4459  -10.2808 N   0  0  0  0  0  0  0  0  0  0  0  0
   15.6874   63.1821  -10.9538 C   0  0  0  0  0  0  0  0  0  0  0  0
   14.7894   62.3705  -11.6151 C   0  0  0  0  0  0  0  0  0  0  0  0
   15.1772   61.1051  -11.3296 N   0  0  0  0  0  0  0  0  0  0  0  0
   13.7756   62.8625  -12.3627 N   0  0  0  0  0  0  0  0  0  0  0  0
   13.6543   64.1991  -12.4520 C   0  0  0  0  0  0  0  0  0  0  0  0
   12.7349   64.7301  -13.1298 O   0  0  0  0  0  0  0  0  0  0  0  0
   14.5208   65.0321  -11.8130 N   0  0  0  0  0  0  0  0  0  0  0  0
   15.5286   64.5529  -11.0692 C   0  0  0  0  0  0  0  0  0  0  0  0
   16.3505   65.2763  -10.4636 O   0  0  0  0  0  0  0  0  0  0  0  0
   12.8408   61.9935  -13.0526 C   0  0  0  0  0  0  0  0  0  0  0  0
   14.3936   66.0672  -11.9060 H   0  0  0  0  0  0  0  0  0  0  0  0
   20.1821   63.0010   -9.5373 C   0  0  0  0  0  0  0  0  0  0  0  0
   21.0660   64.2046   -9.4001 C   0  0  0  0  0  0  0  0  0  0  0  0
   22.2478   63.8759   -8.6751 N   0  0  0  0  0  0  0  0  0  0  0  0
   22.5242   63.9596   -7.3751 C   0  0  0  0  0  0  0  0  0  0  0  0
   23.8102   63.4774   -7.1588 C   0  0  0  0  0  0  0  0  0  0  0  0
   24.2662   63.1174   -8.3549 N   0  0  0  0  0  0  0  0  0  0  0  0
   23.3396   63.3502   -9.2858 C   0  0  0  0  0  0  0  0  0  0  0  0
   23.5707   62.9835  -11.1424 Br  0  0  0  0  0  0  0  0  0  0  0  0
   24.3356   63.4562   -5.9306 N   0  0  0  0  0  0  0  0  0  0  0  0
   23.6356   63.9020   -4.8697 C   0  0  0  0  0  0  0  0  0  0  0  0
   24.1367   63.8783   -3.7179 O   0  0  0  0  0  0  0  0  0  0  0  0
   22.3984   64.3693   -5.0634 N   0  0  0  0  0  0  0  0  0  0  0  0
   21.8336   64.4079   -6.2796 C   0  0  0  0  0  0  0  0  0  0  0  0
   20.6789   64.8499   -6.4413 O   0  0  0  0  0  0  0  0  0  0  0  0
   25.6819   62.9551   -5.6753 C   0  0  0  0  0  0  0  0  0  0  0  0
   21.8135   64.7298   -4.2563 H   0  0  0  0  0  0  0  0  0  0  0  0
  3  4  1  0  0  0
  4  5  1  0  0  0
  4  8  2  0  0  0
  5  6  1  0  0  0
  5  2  1  0  0  0
  6  7  2  0  0  0
  6 13  1  0  0  0
  7  8  1  0  0  0
  7  9  1  0  0  0
  9 10  1  0  0  0
  9 15  1  0  0  0
 10 11  2  0  0  0
 10 12  1  0  0  0
 12 13  1  0  0  0
 13 14  2  0  0  0
  2  1  1  0  0  0
  1 17  1  0  0  0
 17 18  1  0  0  0
 18 19  1  0  0  0
 19 20  1  0  0  0
 19 23  1  0  0  0
 20 21  2  0  0  0
 20 29  1  0  0  0
 21 22  1  0  0  0
 21 25  1  0  0  0
 22 23  2  0  0  0
 23 24  1  0  0  0
 25 26  1  0  0  0
 25 31  1  0  0  0
 26 27  2  0  0  0
 26 28  1  0  0  0
 28 29  1  0  0  0
 29 30  2  0  0  0
 12 16  1  0  0  0
 28 32  1  0  0  0
M  END
> <minimizedAffinity>
-7.71351

$$$$
1436


 33 36  0  0  0  0  0  0  0  0999 V2000
   20.1389   62.9647  -10.5016 O   0  0  0  0  0  0  0  0  0  0  0  0
   19.2208   62.0543  -10.0946 C   0  0  0  0  0  0  0  0  0  0  0  0
   17.9023   62.4438   -9.5680 C   0  0  0  0  0  0  0  0  0  0  0  0
   16.8952   59.1379   -9.8014 Br  0  0  0  0  0  0  0  0  0  0  0  0
   16.1996   60.8074  -10.4226 C   0  0  0  0  0  0  0  0  0  0  0  0
   16.7382   62.0149  -10.2670 N   0  0  0  0  0  0  0  0  0  0  0  0
   15.9115   62.8779  -10.9204 C   0  0  0  0  0  0  0  0  0  0  0  0
   14.8777   62.1409  -11.4559 C   0  0  0  0  0  0  0  0  0  0  0  0
   15.0577   60.8641  -11.1468 N   0  0  0  0  0  0  0  0  0  0  0  0
   13.9100   62.7818  -12.1691 N   0  0  0  0  0  0  0  0  0  0  0  0
   13.9931   64.1012  -12.3286 C   0  0  0  0  0  0  0  0  0  0  0  0
   13.0796   64.6683  -12.9951 O   0  0  0  0  0  0  0  0  0  0  0  0
   14.9960   64.8284  -11.8113 N   0  0  0  0  0  0  0  0  0  0  0  0
   15.9942   64.2459  -11.0880 C   0  0  0  0  0  0  0  0  0  0  0  0
   16.9299   64.9351  -10.6105 O   0  0  0  0  0  0  0  0  0  0  0  0
   12.8065   62.0433  -12.7476 C   0  0  0  0  0  0  0  0  0  0  0  0
   15.0481   65.8608  -11.9447 H   0  0  0  0  0  0  0  0  0  0  0  0
   20.0618   64.1306   -9.7576 C   0  0  0  0  0  0  0  0  0  0  0  0
   21.3763   64.8486   -9.8314 C   0  0  0  0  0  0  0  0  0  0  0  0
   22.3893   64.1965   -9.0636 N   0  0  0  0  0  0  0  0  0  0  0  0
   22.5846   64.3342   -7.7454 C   0  0  0  0  0  0  0  0  0  0  0  0
   23.6459   63.5570   -7.3995 C   0  0  0  0  0  0  0  0  0  0  0  0
   24.0705   62.9665   -8.5135 N   0  0  0  0  0  0  0  0  0  0  0  0
   23.3185   63.3368   -9.5631 C   0  0  0  0  0  0  0  0  0  0  0  0
   23.4519   62.8218  -11.3862 Br  0  0  0  0  0  0  0  0  0  0  0  0
   24.0569   63.5086   -6.1206 N   0  0  0  0  0  0  0  0  0  0  0  0
   23.4118   64.2281   -5.2055 C   0  0  0  0  0  0  0  0  0  0  0  0
   23.8077   64.1728   -4.0108 O   0  0  0  0  0  0  0  0  0  0  0  0
   22.3739   64.9921   -5.5223 N   0  0  0  0  0  0  0  0  0  0  0  0
   21.9299   65.0724   -6.7795 C   0  0  0  0  0  0  0  0  0  0  0  0
   20.9315   65.8165   -7.0418 O   0  0  0  0  0  0  0  0  0  0  0  0
   25.1848   62.6873   -5.7335 C   0  0  0  0  0  0  0  0  0  0  0  0
   21.8813   65.5489   -4.7905 H   0  0  0  0  0  0  0  0  0  0  0  0
  4  5  1  0  0  0
  5  6  1  0  0  0
  5  9  2  0  0  0
  6  7  1  0  0  0
  6  3  1  0  0  0
  7  8  2  0  0  0
  7 14  1  0  0  0
  8  9  1  0  0  0
  8 10  1  0  0  0
 10 11  1  0  0  0
 10 16  1  0  0  0
 11 12  2  0  0  0
 11 13  1  0  0  0
 13 14  1  0  0  0
 14 15  2  0  0  0
  3  2  1  0  0  0
  2  1  1  0  0  0
  1 18  1  0  0  0
 18 19  1  0  0  0
 19 20  1  0  0  0
 20 21  1  0  0  0
 20 24  1  0  0  0
 21 22  2  0  0  0
 21 30  1  0  0  0
 22 23  1  0  0  0
 22 26  1  0  0  0
 23 24  2  0  0  0
 24 25  1  0  0  0
 26 27  1  0  0  0
 26 32  1  0  0  0
 27 28  2  0  0  0
 27 29  1  0  0  0
 29 30  1  0  0  0
 30 31  2  0  0  0
 13 17  1  0  0  0
 29 33  1  0  0  0
M  END
> <minimizedAffinity>
-8.17295

$$$$
1444


 33 36  0  0  0  0  0  0  0  0999 V2000
   20.8405   63.0768   -9.7824 N   0  0  0  0  0  0  0  0  0  0  0  0
   19.4986   63.1506   -9.9810 C   0  0  0  0  0  0  0  0  0  0  0  0
   18.8833   62.8110   -8.7993 O   0  0  0  0  0  0  0  0  0  0  0  0
   21.0930   62.7809   -8.7276 H   0  0  0  0  0  0  0  0  0  0  0  0
   23.2878   63.0332  -10.0712 N   0  0  0  0  0  0  0  0  0  0  0  0
   24.1180   63.1336  -11.1016 N   0  0  0  0  0  0  0  0  0  0  0  0
   23.4615   63.3337  -12.2316 C   0  0  0  0  0  0  0  0  0  0  0  0
   22.1011   63.3622  -11.8905 C   0  0  0  0  0  0  0  0  0  0  0  0
   22.0078   63.1729  -10.5304 C   0  0  0  0  0  0  0  0  0  0  0  0
   23.6452   62.8221   -8.7119 C   0  0  0  0  0  0  0  0  0  0  0  0
   24.8761   62.9011   -5.9022 Cl  0  0  0  0  0  0  0  0  0  0  0  0
   23.7156   64.0489   -6.5290 C   0  0  0  0  0  0  0  0  0  0  0  0
   23.2402   63.9072   -7.7993 C   0  0  0  0  0  0  0  0  0  0  0  0
   22.3282   64.8396   -8.2414 C   0  0  0  0  0  0  0  0  0  0  0  0
   21.9011   65.8769   -7.4529 C   0  0  0  0  0  0  0  0  0  0  0  0
   22.3886   66.0106   -6.1703 C   0  0  0  0  0  0  0  0  0  0  0  0
   23.3005   65.0824   -5.7215 C   0  0  0  0  0  0  0  0  0  0  0  0
   18.4976   63.4617  -10.9884 C   0  0  0  0  0  0  0  0  0  0  0  0
   17.1446   63.7356  -10.7589 N   0  0  0  0  0  0  0  0  0  0  0  0
   16.6710   65.0036  -10.1423 C   0  0  0  0  0  0  0  0  0  0  0  0
   15.2316   64.7264   -9.7617 C   0  0  0  0  0  0  0  0  0  0  0  0
   14.4388   64.4860  -11.0192 C   0  0  0  0  0  0  0  0  0  0  0  0
   14.8736   63.1771  -11.6437 C   0  0  0  0  0  0  0  0  0  0  0  0
   16.1616   62.7289  -11.0393 C   0  0  0  0  0  0  0  0  0  0  0  0
   16.3313   61.4521  -10.6885 C   0  0  0  0  0  0  0  0  0  0  0  0
   15.3395   60.4560  -10.9895 N   0  0  0  0  0  0  0  0  0  0  0  0
   15.7429   59.2199  -10.4526 N   0  0  0  0  0  0  0  0  0  0  0  0
   16.9835   59.4078   -9.8095 C   0  0  0  0  0  0  0  0  0  0  0  0
   17.6997   58.5795   -9.2026 O   0  0  0  0  0  0  0  0  0  0  0  0
   17.3251   60.7965   -9.9684 N   0  0  0  0  0  0  0  0  0  0  0  0
   14.4422   60.5138  -11.5088 H   0  0  0  0  0  0  0  0  0  0  0  0
   15.2385   58.3001  -10.5022 H   0  0  0  0  0  0  0  0  0  0  0  0
   18.1769   61.2296   -9.5753 H   0  0  0  0  0  0  0  0  0  0  0  0
 11 12  1  0  0  0
 12 13  2  0  0  0
 12 17  1  0  0  0
 13 14  1  0  0  0
 13 10  1  0  0  0
 14 15  2  0  0  0
 15 16  1  0  0  0
 16 17  2  0  0  0
 10  5  1  0  0  0
  5  6  1  0  0  0
  5  9  1  0  0  0
  6  7  2  0  0  0
  7  8  1  0  0  0
  8  9  2  0  0  0
  9  1  1  0  0  0
  1  2  1  0  0  0
  2  3  2  0  0  0
  2 18  1  0  0  0
 18 19  1  0  0  0
 19 20  1  0  0  0
 19 24  1  0  0  0
 20 21  1  0  0  0
 21 22  1  0  0  0
 22 23  1  0  0  0
 23 24  1  0  0  0
 24 25  2  0  0  0
 25 26  1  0  0  0
 25 30  1  0  0  0
 26 27  1  0  0  0
 27 28  1  0  0  0
 28 29  2  0  0  0
 28 30  1  0  0  0
  1  4  1  0  0  0
 26 31  1  0  0  0
 27 32  1  0  0  0
 30 33  1  0  0  0
M  END
> <minimizedAffinity>
-8.57669

$$$$
1447


 38 41  0  0  0  0  0  0  0  0999 V2000
   12.8018   66.7270  -15.0790 C   0  0  0  0  0  0  0  0  0  0  0  0
   13.1780   67.9198  -15.6441 N   0  0  0  0  0  0  0  0  0  0  0  0
   12.1248   68.5258  -16.1179 N   0  0  0  0  0  0  0  0  0  0  0  0
   11.0272   67.8184  -15.9124 N   0  0  0  0  0  0  0  0  0  0  0  0
   11.4167   66.7017  -15.2744 C   0  0  0  0  0  0  0  0  0  0  0  0
    9.7291   68.2411  -16.2905 C   0  0  0  0  0  0  0  0  0  0  0  0
    8.7598   67.5594  -16.9376 N   0  0  0  0  0  0  0  0  0  0  0  0
    7.7052   68.3177  -17.0799 O   0  0  0  0  0  0  0  0  0  0  0  0
    7.9167   69.4968  -16.5533 N   0  0  0  0  0  0  0  0  0  0  0  0
    9.1636   69.4847  -16.0533 C   0  0  0  0  0  0  0  0  0  0  0  0
    9.7672   70.5799  -15.3984 N   0  0  0  0  0  0  0  0  0  0  0  0
    9.4277   70.8491  -14.4572 H   0  0  0  0  0  0  0  0  0  0  0  0
   10.5383   71.1275  -15.8210 H   0  0  0  0  0  0  0  0  0  0  0  0
   13.7393   65.3451  -13.1351 N   0  0  0  0  0  0  0  0  0  0  0  0
   13.7019   65.7764  -14.4541 C   0  0  0  0  0  0  0  0  0  0  0  0
   14.5826   65.2743  -15.2493 O   0  0  0  0  0  0  0  0  0  0  0  0
   13.1115   65.6430  -12.3511 H   0  0  0  0  0  0  0  0  0  0  0  0
   15.3309   64.4713  -11.6453 C   0  0  0  0  0  0  0  0  0  0  0  0
   14.7493   64.3843  -12.7883 N   0  0  0  0  0  0  0  0  0  0  0  0
   16.5904   59.5626  -10.0760 Br  0  0  0  0  0  0  0  0  0  0  0  0
   17.0594   61.3557  -10.4684 C   0  0  0  0  0  0  0  0  0  0  0  0
   18.3513   61.7702  -10.3260 C   0  0  0  0  0  0  0  0  0  0  0  0
   18.6649   63.0945  -10.6209 C   0  0  0  0  0  0  0  0  0  0  0  0
   17.6630   63.9592  -11.0501 C   0  0  0  0  0  0  0  0  0  0  0  0
   16.3641   63.5512  -11.1954 C   0  0  0  0  0  0  0  0  0  0  0  0
   16.0686   62.2390  -10.9000 C   0  0  0  0  0  0  0  0  0  0  0  0
   14.7504   61.8369  -11.0510 O   0  0  0  0  0  0  0  0  0  0  0  0
   20.4507   63.7021  -10.4344 Br  0  0  0  0  0  0  0  0  0  0  0  0
   19.3649   60.9243   -9.9000 O   0  0  0  0  0  0  0  0  0  0  0  0
   14.4824   60.8823  -10.8464 H   0  0  0  0  0  0  0  0  0  0  0  0
   20.3109   61.2550   -9.8022 H   0  0  0  0  0  0  0  0  0  0  0  0
   10.5566   65.6145  -14.7978 C   0  0  0  0  0  0  0  0  0  0  0  0
   10.5652   64.4211  -15.6481 N   0  0  0  0  0  0  0  0  0  0  0  0
    9.2048   64.2189  -16.1840 C   0  0  0  0  0  0  0  0  0  0  0  0
    8.2061   64.3477  -15.0874 C   0  0  0  0  0  0  0  0  0  0  0  0
    8.5346   63.4962  -14.0612 O   0  0  0  0  0  0  0  0  0  0  0  0
    9.5388   62.6126  -14.3580 C   0  0  0  0  0  0  0  0  0  0  0  0
   10.8368   63.2464  -14.7859 C   0  0  0  0  0  0  0  0  0  0  0  0
 20 21  1  0  0  0
 21 22  2  0  0  0
 21 26  1  0  0  0
 22 23  1  0  0  0
 22 29  1  0  0  0
 23 24  2  0  0  0
 23 28  1  0  0  0
 24 25  1  0  0  0
 25 26  2  0  0  0
 25 18  1  0  0  0
 26 27  1  0  0  0
 18 19  2  0  0  0
 19 14  1  0  0  0
 14 15  1  0  0  0
 15 16  2  0  0  0
 15  1  1  0  0  0
  1  2  1  0  0  0
  1  5  2  0  0  0
  2  3  2  0  0  0
  3  4  1  0  0  0
  4  5  1  0  0  0
  4  6  1  0  0  0
  5 32  1  0  0  0
 32 33  1  0  0  0
 33 34  1  0  0  0
 33 38  1  0  0  0
 34 35  1  0  0  0
 35 36  1  0  0  0
 36 37  1  0  0  0
 37 38  1  0  0  0
  6  7  2  0  0  0
  6 10  1  0  0  0
  7  8  1  0  0  0
  8  9  1  0  0  0
  9 10  2  0  0  0
 10 11  1  0  0  0
 27 30  1  0  0  0
 14 17  1  0  0  0
 11 12  1  0  0  0
 11 13  1  0  0  0
 29 31  1  0  0  0
M  END
> <minimizedAffinity>
-7.33488

$$$$
1466


 29 32  0  0  0  0  0  0  0  0999 V2000
   22.5555   63.9320   -7.8976 N   0  0  0  0  0  0  0  0  0  0  0  0
   23.0408   63.5679   -9.0727 N   0  0  0  0  0  0  0  0  0  0  0  0
   22.0852   63.0431   -9.8275 N   0  0  0  0  0  0  0  0  0  0  0  0
   20.9280   63.0524   -9.1474 C   0  0  0  0  0  0  0  0  0  0  0  0
   21.2338   63.6149   -7.9303 C   0  0  0  0  0  0  0  0  0  0  0  0
   19.6321   62.5738   -9.5942 C   0  0  0  0  0  0  0  0  0  0  0  0
   18.5937   63.3155  -10.0192 N   0  0  0  0  0  0  0  0  0  0  0  0
   17.5731   62.5059  -10.3450 C   0  0  0  0  0  0  0  0  0  0  0  0
   18.0093   61.2580  -10.1111 N   0  0  0  0  0  0  0  0  0  0  0  0
   19.2272   61.3333   -9.6690 O   0  0  0  0  0  0  0  0  0  0  0  0
   16.2438   62.9055  -10.8555 C   0  0  0  0  0  0  0  0  0  0  0  0
   16.0239   64.2060  -11.2462 C   0  0  0  0  0  0  0  0  0  0  0  0
   14.8176   64.5811  -11.7132 N   0  0  0  0  0  0  0  0  0  0  0  0
   13.7766   63.7313  -11.8250 C   0  0  0  0  0  0  0  0  0  0  0  0
   14.0077   62.4276  -11.4307 C   0  0  0  0  0  0  0  0  0  0  0  0
   15.2193   62.0039  -10.9503 C   0  0  0  0  0  0  0  0  0  0  0  0
   23.2680   64.5498   -6.7732 C   0  0  0  0  0  0  0  0  0  0  0  0
   22.4605   65.7680   -6.3851 C   0  0  0  0  0  0  0  0  0  0  0  0
   22.9300   68.1875   -6.4404 C   0  0  0  0  0  0  0  0  0  0  0  0
   21.8265   68.3491   -7.0593 O   0  0  0  0  0  0  0  0  0  0  0  0
   23.3350   66.8824   -6.0537 N   0  0  0  0  0  0  0  0  0  0  0  0
   24.2312   66.7352   -5.5484 H   0  0  0  0  0  0  0  0  0  0  0  0
   25.2957   71.5063   -2.9441 Br  0  0  0  0  0  0  0  0  0  0  0  0
   24.8192   70.9151   -4.6965 C   0  0  0  0  0  0  0  0  0  0  0  0
   25.2506   71.6487   -5.7789 C   0  0  0  0  0  0  0  0  0  0  0  0
   24.9286   71.2564   -7.0336 N   0  0  0  0  0  0  0  0  0  0  0  0
   24.1864   70.1442   -7.1884 C   0  0  0  0  0  0  0  0  0  0  0  0
   23.7267   69.3727   -6.1598 C   0  0  0  0  0  0  0  0  0  0  0  0
   24.0499   69.7651   -4.8756 C   0  0  0  0  0  0  0  0  0  0  0  0
 23 24  1  0  0  0
 24 25  2  0  0  0
 24 29  1  0  0  0
 25 26  1  0  0  0
 26 27  2  0  0  0
 27 28  1  0  0  0
 28 29  2  0  0  0
 28 19  1  0  0  0
 19 20  2  0  0  0
 19 21  1  0  0  0
 21 18  1  0  0  0
 18 17  1  0  0  0
 17  1  1  0  0  0
  1  2  1  0  0  0
  1  5  1  0  0  0
  2  3  2  0  0  0
  3  4  1  0  0  0
  4  5  2  0  0  0
  4  6  1  0  0  0
  6  7  2  0  0  0
  6 10  1  0  0  0
  7  8  1  0  0  0
  8  9  2  0  0  0
  8 11  1  0  0  0
  9 10  1  0  0  0
 11 12  2  0  0  0
 11 16  1  0  0  0
 12 13  1  0  0  0
 13 14  2  0  0  0
 14 15  1  0  0  0
 15 16  2  0  0  0
 21 22  1  0  0  0
M  END
> <minimizedAffinity>
-8.94490

$$$$
1471


 31 34  0  0  0  0  0  0  0  0999 V2000
   22.8647   64.2406   -8.0460 C   0  0  0  0  0  0  0  0  0  0  0  0
   22.2702   65.4647   -7.9095 C   0  0  0  0  0  0  0  0  0  0  0  0
   22.2471   66.1836   -6.7454 N   0  0  0  0  0  0  0  0  0  0  0  0
   22.8443   65.6472   -5.6862 C   0  0  0  0  0  0  0  0  0  0  0  0
   23.4667   64.4272   -5.7249 C   0  0  0  0  0  0  0  0  0  0  0  0
   23.4825   63.6786   -6.9677 C   0  0  0  0  0  0  0  0  0  0  0  0
   24.1527   62.5404   -6.7079 N   0  0  0  0  0  0  0  0  0  0  0  0
   24.5419   62.5235   -5.4443 N   0  0  0  0  0  0  0  0  0  0  0  0
   24.1505   63.6395   -4.8157 C   0  0  0  0  0  0  0  0  0  0  0  0
   24.3321   63.9898   -3.6098 O   0  0  0  0  0  0  0  0  0  0  0  0
   25.0869   61.7671   -4.9436 H   0  0  0  0  0  0  0  0  0  0  0  0
   19.5443   63.0655  -10.8219 N   0  0  0  0  0  0  0  0  0  0  0  0
   20.4276   62.9264  -11.9497 C   0  0  0  0  0  0  0  0  0  0  0  0
   21.8726   63.1954  -11.6120 C   0  0  0  0  0  0  0  0  0  0  0  0
   21.9190   63.8646  -10.3399 N   0  0  0  0  0  0  0  0  0  0  0  0
   20.9660   64.9190  -10.1060 C   0  0  0  0  0  0  0  0  0  0  0  0
   19.6068   64.2288   -9.9247 C   0  0  0  0  0  0  0  0  0  0  0  0
   22.8434   63.5435   -9.3219 C   0  0  0  0  0  0  0  0  0  0  0  0
   23.7010   62.6255   -9.4793 O   0  0  0  0  0  0  0  0  0  0  0  0
   16.7113   63.8065  -11.5190 Cl  0  0  0  0  0  0  0  0  0  0  0  0
   17.2361   62.2871  -10.7866 C   0  0  0  0  0  0  0  0  0  0  0  0
   18.5739   62.0897  -10.5232 C   0  0  0  0  0  0  0  0  0  0  0  0
   18.9526   60.9038   -9.9554 C   0  0  0  0  0  0  0  0  0  0  0  0
   18.0482   59.9025   -9.6364 C   0  0  0  0  0  0  0  0  0  0  0  0
   16.6990   60.1419   -9.9189 C   0  0  0  0  0  0  0  0  0  0  0  0
   16.2957   61.3241  -10.4884 C   0  0  0  0  0  0  0  0  0  0  0  0
   21.5524   67.4610   -6.7024 C   0  0  0  0  0  0  0  0  0  0  0  0
   22.3088   68.5882   -6.1559 C   0  0  0  0  0  0  0  0  0  0  0  0
   23.3525   69.3132   -6.8829 C   0  0  0  0  0  0  0  0  0  0  0  0
   24.4816   69.7291   -6.2864 O   0  0  0  0  0  0  0  0  0  0  0  0
   24.5228   70.2566   -5.0613 C   0  0  0  0  0  0  0  0  0  0  0  0
 20 21  1  0  0  0
 21 22  2  0  0  0
 21 26  1  0  0  0
 22 23  1  0  0  0
 22 12  1  0  0  0
 23 24  2  0  0  0
 24 25  1  0  0  0
 25 26  2  0  0  0
 12 13  1  0  0  0
 12 17  1  0  0  0
 13 14  1  0  0  0
 14 15  1  0  0  0
 15 16  1  0  0  0
 15 18  1  0  0  0
 16 17  1  0  0  0
 18 19  2  0  0  0
 18  1  1  0  0  0
  1  2  2  0  0  0
  1  6  1  0  0  0
  2  3  1  0  0  0
  3  4  1  0  0  0
  3 27  1  0  0  0
  4  5  2  0  0  0
  5  6  1  0  0  0
  5  9  1  0  0  0
  6  7  2  0  0  0
  7  8  1  0  0  0
  8  9  1  0  0  0
  9 10  2  0  0  0
 27 28  1  0  0  0
 28 29  1  0  0  0
 29 30  1  0  0  0
 30 31  1  0  0  0
  8 11  1  0  0  0
M  END
> <minimizedAffinity>
-8.56678

$$$$
1477


 35 39  0  0  0  0  0  0  0  0999 V2000
   21.4481   63.0707  -10.0262 C   0  0  0  0  0  0  0  0  0  0  0  0
   22.2456   63.0967  -11.1724 N   0  0  0  0  0  0  0  0  0  0  0  0
   21.3436   63.1337  -12.3197 C   0  0  0  0  0  0  0  0  0  0  0  0
   21.6451   63.3017  -13.5281 O   0  0  0  0  0  0  0  0  0  0  0  0
   19.9736   62.9386  -11.8711 C   0  0  0  0  0  0  0  0  0  0  0  0
   18.9309   62.9206  -12.6069 O   0  0  0  0  0  0  0  0  0  0  0  0
   20.0384   62.7781  -10.4429 C   0  0  0  0  0  0  0  0  0  0  0  0
   19.0222   62.4787   -9.6605 C   0  0  0  0  0  0  0  0  0  0  0  0
   19.3183   62.4424   -8.2776 O   0  0  0  0  0  0  0  0  0  0  0  0
   17.6664   62.1855  -10.0860 C   0  0  0  0  0  0  0  0  0  0  0  0
   16.6446   62.9653  -10.4724 N   0  0  0  0  0  0  0  0  0  0  0  0
   15.5325   62.2645  -10.7406 C   0  0  0  0  0  0  0  0  0  0  0  0
   15.8497   60.9698  -10.5172 N   0  0  0  0  0  0  0  0  0  0  0  0
   17.1225   60.8828  -10.1232 C   0  0  0  0  0  0  0  0  0  0  0  0
   17.8592   59.6583   -9.7809 C   0  0  0  0  0  0  0  0  0  0  0  0
   14.3649   62.8653  -11.1709 C   0  0  0  0  0  0  0  0  0  0  0  0
   14.3397   64.2250  -11.3276 C   0  0  0  0  0  0  0  0  0  0  0  0
   15.4852   64.9472  -11.0523 C   0  0  0  0  0  0  0  0  0  0  0  0
   16.6311   64.3173  -10.6263 C   0  0  0  0  0  0  0  0  0  0  0  0
   23.3097   64.4994   -5.2466 Br  0  0  0  0  0  0  0  0  0  0  0  0
   22.3352   64.8227   -6.8425 C   0  0  0  0  0  0  0  0  0  0  0  0
   22.2259   63.8478   -7.8095 C   0  0  0  0  0  0  0  0  0  0  0  0
   21.5100   64.0832   -8.9909 C   0  0  0  0  0  0  0  0  0  0  0  0
   20.9456   65.3359   -9.0901 C   0  0  0  0  0  0  0  0  0  0  0  0
   21.0278   66.3287   -8.1576 C   0  0  0  0  0  0  0  0  0  0  0  0
   21.7438   66.0596   -7.0051 C   0  0  0  0  0  0  0  0  0  0  0  0
   23.6541   62.9978  -11.2938 C   0  0  0  0  0  0  0  0  0  0  0  0
   24.3024   62.8671  -12.5967 C   0  0  0  0  0  0  0  0  0  0  0  0
   24.6523   64.0277  -13.3618 N   0  0  0  0  0  0  0  0  0  0  0  0
   26.1068   64.1618  -13.2783 C   0  0  0  0  0  0  0  0  0  0  0  0
   26.8211   63.4137  -14.3576 C   0  0  0  0  0  0  0  0  0  0  0  0
   25.9503   62.5381  -15.0242 O   0  0  0  0  0  0  0  0  0  0  0  0
   25.0387   63.3467  -15.6654 C   0  0  0  0  0  0  0  0  0  0  0  0
   24.1419   64.0157  -14.6910 C   0  0  0  0  0  0  0  0  0  0  0  0
   24.3127   64.9213  -12.8963 H   0  0  0  0  0  0  0  0  0  0  0  0
 20 21  1  0  0  0
 21 22  2  0  0  0
 21 26  1  0  0  0
 22 23  1  0  0  0
 23 24  2  0  0  0
 23  1  1  0  0  0
 24 25  1  0  0  0
 25 26  2  0  0  0
  1  2  1  0  0  0
  1  7  1  0  0  0
  2  3  1  0  0  0
  2 27  1  0  0  0
  3  4  2  0  0  0
  3  5  1  0  0  0
  5  6  2  0  0  0
  5  7  1  0  0  0
  7  8  2  0  0  0
  8  9  1  0  0  0
  8 10  1  0  0  0
 10 11  1  0  0  0
 10 14  2  0  0  0
 11 12  1  0  0  0
 11 19  1  0  0  0
 12 13  2  0  0  0
 12 16  1  0  0  0
 13 14  1  0  0  0
 14 15  1  0  0  0
 16 17  2  0  0  0
 17 18  1  0  0  0
 18 19  2  0  0  0
 27 28  1  0  0  0
 28 29  1  0  0  0
 29 30  1  0  0  0
 29 34  1  0  0  0
 30 31  1  0  0  0
 31 32  1  0  0  0
 32 33  1  0  0  0
 33 34  1  0  0  0
 29 35  1  0  0  0
M  CHG 1   9  -1
M  CHG 1  29   1
M  END
> <minimizedAffinity>
-8.45543

$$$$
1486


 31 34  0  0  0  0  0  0  0  0999 V2000
   20.6765   63.9238   -9.4129 N   0  0  0  0  0  0  0  0  0  0  0  0
   21.4862   63.6664  -10.4146 N   0  0  0  0  0  0  0  0  0  0  0  0
   22.7123   63.3622   -9.9640 C   0  0  0  0  0  0  0  0  0  0  0  0
   22.6649   63.4332   -8.6257 N   0  0  0  0  0  0  0  0  0  0  0  0
   21.3890   63.7856   -8.2897 C   0  0  0  0  0  0  0  0  0  0  0  0
   20.8786   63.9788   -6.9335 C   0  0  0  0  0  0  0  0  0  0  0  0
   21.6320   65.0378   -6.1639 C   0  0  0  0  0  0  0  0  0  0  0  0
   23.0129   64.5692   -5.7612 C   0  0  0  0  0  0  0  0  0  0  0  0
   23.9608   64.4659   -6.9157 C   0  0  0  0  0  0  0  0  0  0  0  0
   23.7625   63.1841   -7.7123 C   0  0  0  0  0  0  0  0  0  0  0  0
   19.2930   64.2853   -9.4977 C   0  0  0  0  0  0  0  0  0  0  0  0
   18.4326   63.1129   -9.8085 C   0  0  0  0  0  0  0  0  0  0  0  0
   18.8600   61.9740   -9.4813 O   0  0  0  0  0  0  0  0  0  0  0  0
   12.9324   63.5399  -12.5794 Br  0  0  0  0  0  0  0  0  0  0  0  0
   14.6455   63.3984  -11.7141 C   0  0  0  0  0  0  0  0  0  0  0  0
   15.4655   64.5101  -11.6237 C   0  0  0  0  0  0  0  0  0  0  0  0
   16.7055   64.4144  -10.9995 C   0  0  0  0  0  0  0  0  0  0  0  0
   17.1461   63.2278  -10.4607 C   0  0  0  0  0  0  0  0  0  0  0  0
   16.3058   62.1423  -10.5686 C   0  0  0  0  0  0  0  0  0  0  0  0
   15.0774   62.2082  -11.1792 C   0  0  0  0  0  0  0  0  0  0  0  0
   23.9021   63.0132  -10.7525 C   0  0  0  0  0  0  0  0  0  0  0  0
   24.2636   64.0361  -11.6854 N   0  0  0  0  0  0  0  0  0  0  0  0
   24.1901   65.0286  -11.4186 H   0  0  0  0  0  0  0  0  0  0  0  0
   24.7322   63.7557  -13.0008 C   0  0  0  0  0  0  0  0  0  0  0  0
   26.0655   63.5578  -13.2798 C   0  0  0  0  0  0  0  0  0  0  0  0
   26.5043   63.2835  -14.5494 C   0  0  0  0  0  0  0  0  0  0  0  0
   25.6068   63.2031  -15.5674 C   0  0  0  0  0  0  0  0  0  0  0  0
   24.2717   63.4012  -15.2924 C   0  0  0  0  0  0  0  0  0  0  0  0
   23.8187   63.6768  -14.0189 C   0  0  0  0  0  0  0  0  0  0  0  0
   26.0178   62.9305  -16.8504 O   0  0  0  0  0  0  0  0  0  0  0  0
   25.4936   61.8717  -17.6127 C   0  0  0  0  0  0  0  0  0  0  0  0
 14 15  1  0  0  0
 15 16  2  0  0  0
 15 20  1  0  0  0
 16 17  1  0  0  0
 17 18  2  0  0  0
 18 19  1  0  0  0
 18 12  1  0  0  0
 19 20  2  0  0  0
 12 13  2  0  0  0
 12 11  1  0  0  0
 11  1  1  0  0  0
  1  2  1  0  0  0
  1  5  2  0  0  0
  2  3  2  0  0  0
  3  4  1  0  0  0
  3 21  1  0  0  0
  4  5  1  0  0  0
  4 10  1  0  0  0
  5  6  1  0  0  0
  6  7  1  0  0  0
  7  8  1  0  0  0
  8  9  1  0  0  0
  9 10  1  0  0  0
 21 22  1  0  0  0
 22 24  1  0  0  0
 24 25  2  0  0  0
 24 29  1  0  0  0
 25 26  1  0  0  0
 26 27  2  0  0  0
 27 28  1  0  0  0
 27 30  1  0  0  0
 28 29  2  0  0  0
 30 31  1  0  0  0
 22 23  1  0  0  0
M  END
> <minimizedAffinity>
-9.50227

$$$$
1487


 29 32  0  0  0  0  0  0  0  0999 V2000
   13.2479   64.1122  -14.9233 N   0  0  0  0  0  0  0  0  0  0  0  0
   13.7657   65.3854  -15.3575 C   0  0  0  0  0  0  0  0  0  0  0  0
   12.7256   66.2005  -16.0031 C   0  0  0  0  0  0  0  0  0  0  0  0
   11.5693   65.3503  -15.9770 N   0  0  0  0  0  0  0  0  0  0  0  0
   10.3634   65.3235  -16.7708 C   0  0  0  0  0  0  0  0  0  0  0  0
    9.0951   65.5144  -16.0030 C   0  0  0  0  0  0  0  0  0  0  0  0
    9.2357   65.4643  -14.5217 C   0  0  0  0  0  0  0  0  0  0  0  0
    9.4264   63.9868  -14.1107 C   0  0  0  0  0  0  0  0  0  0  0  0
   10.9308   63.7869  -14.1544 C   0  0  0  0  0  0  0  0  0  0  0  0
   11.8126   64.3586  -14.9421 C   0  0  0  0  0  0  0  0  0  0  0  0
   13.0541   66.3865  -17.3749 O   0  0  0  0  0  0  0  0  0  0  0  0
   13.4085   63.3102  -15.5228 H   0  0  0  0  0  0  0  0  0  0  0  0
   14.0545   66.2337  -17.4327 H   0  0  0  0  0  0  0  0  0  0  0  0
   15.4265   65.3219  -10.3718 Cl  0  0  0  0  0  0  0  0  0  0  0  0
   14.5947   64.2017  -11.4402 C   0  0  0  0  0  0  0  0  0  0  0  0
   14.2146   64.5943  -12.7210 C   0  0  0  0  0  0  0  0  0  0  0  0
   13.5404   63.7606  -13.5788 C   0  0  0  0  0  0  0  0  0  0  0  0
   13.2559   62.4794  -13.0915 C   0  0  0  0  0  0  0  0  0  0  0  0
   13.6260   62.0679  -11.8160 C   0  0  0  0  0  0  0  0  0  0  0  0
   14.2946   62.9319  -10.9904 C   0  0  0  0  0  0  0  0  0  0  0  0
   12.5039   67.5284  -15.4840 C   0  0  0  0  0  0  0  0  0  0  0  0
   12.8773   68.6894  -16.1610 C   0  0  0  0  0  0  0  0  0  0  0  0
   12.6395   69.9651  -15.6680 C   0  0  0  0  0  0  0  0  0  0  0  0
   11.9955   70.0956  -14.4376 C   0  0  0  0  0  0  0  0  0  0  0  0
   11.6147   68.9846  -13.7418 C   0  0  0  0  0  0  0  0  0  0  0  0
   11.8728   67.7114  -14.2741 C   0  0  0  0  0  0  0  0  0  0  0  0
   13.0460   71.0981  -16.4089 N   0  0  0  0  0  0  0  0  0  0  0  0
   14.1628   71.6473  -16.1530 O   0  0  0  0  0  0  0  0  0  0  0  0
   12.3072   71.6489  -17.3880 O   0  0  0  0  0  0  0  0  0  0  0  0
 14 15  1  0  0  0
 15 16  2  0  0  0
 15 20  1  0  0  0
 16 17  1  0  0  0
 17 18  2  0  0  0
 17  1  1  0  0  0
 18 19  1  0  0  0
 19 20  2  0  0  0
  1  2  1  0  0  0
  1 10  1  0  0  0
  2  3  1  0  0  0
  3  4  1  0  0  0
  3 11  1  0  0  0
  3 21  1  0  0  0
  4  5  1  0  0  0
  4 10  1  0  0  0
  5  6  1  0  0  0
  6  7  1  0  0  0
  7  8  1  0  0  0
  8  9  1  0  0  0
  9 10  2  0  0  0
 21 22  2  0  0  0
 21 26  1  0  0  0
 22 23  1  0  0  0
 23 24  2  0  0  0
 23 27  1  0  0  0
 24 25  1  0  0  0
 25 26  2  0  0  0
 27 28  2  0  0  0
 27 29  1  0  0  0
  1 12  1  0  0  0
 11 13  1  0  0  0
M  CHG 1   1   1
M  CHG 1  29  -1
M  END
> <minimizedAffinity>
-6.17904

$$$$
1491


 34 38  0  0  0  0  0  0  0  0999 V2000
   22.9994   63.1252   -9.5027 F   0  0  0  0  0  0  0  0  0  0  0  0
   22.8429   63.1201  -10.8386 C   0  0  0  0  0  0  0  0  0  0  0  0
   24.0268   63.2906  -11.5503 C   0  0  0  0  0  0  0  0  0  0  0  0
   24.0194   63.2985  -12.9275 C   0  0  0  0  0  0  0  0  0  0  0  0
   22.8149   63.1319  -13.5686 C   0  0  0  0  0  0  0  0  0  0  0  0
   21.6426   62.9615  -12.8393 C   0  0  0  0  0  0  0  0  0  0  0  0
   21.6364   62.9534  -11.4703 C   0  0  0  0  0  0  0  0  0  0  0  0
   22.8323   63.1417  -14.9167 N   0  0  0  0  0  0  0  0  0  0  0  0
   23.9630   63.3052  -15.6267 C   0  0  0  0  0  0  0  0  0  0  0  0
   25.1851   63.4749  -15.0144 C   0  0  0  0  0  0  0  0  0  0  0  0
   25.2142   63.4713  -13.6398 C   0  0  0  0  0  0  0  0  0  0  0  0
   26.2935   63.6196  -13.0195 O   0  0  0  0  0  0  0  0  0  0  0  0
   20.4389   62.7895  -10.7745 N   0  0  0  0  0  0  0  0  0  0  0  0
   19.3514   62.2210  -11.5293 C   0  0  0  0  0  0  0  0  0  0  0  0
   18.1451   61.9615  -10.5962 C   0  0  0  0  0  0  0  0  0  0  0  0
   17.7438   63.2322  -10.1364 N   0  0  0  0  0  0  0  0  0  0  0  0
   18.7946   63.8067   -9.2092 C   0  0  0  0  0  0  0  0  0  0  0  0
   19.9792   63.9658  -10.1120 C   0  0  0  0  0  0  0  0  0  0  0  0
   16.6747   64.0220  -10.3941 C   0  0  0  0  0  0  0  0  0  0  0  0
   16.6152   65.1313   -9.6971 O   0  0  0  0  0  0  0  0  0  0  0  0
   20.6396   62.0818  -10.0020 H   0  0  0  0  0  0  0  0  0  0  0  0
   15.5755   63.8633  -11.3051 C   0  0  0  0  0  0  0  0  0  0  0  0
   15.1785   64.8052  -12.1981 C   0  0  0  0  0  0  0  0  0  0  0  0
   14.1437   64.5866  -13.0988 C   0  0  0  0  0  0  0  0  0  0  0  0
   13.4931   63.3799  -13.0900 C   0  0  0  0  0  0  0  0  0  0  0  0
   13.8515   62.3980  -12.2103 C   0  0  0  0  0  0  0  0  0  0  0  0
   14.8708   62.6420  -11.3405 C   0  0  0  0  0  0  0  0  0  0  0  0
   13.6643   65.8412  -14.2443 Cl  0  0  0  0  0  0  0  0  0  0  0  0
   26.4160   63.6537  -15.8079 C   0  0  0  0  0  0  0  0  0  0  0  0
   27.3337   64.4104  -15.4535 O   0  0  0  0  0  0  0  0  0  0  0  0
   26.5362   62.9459  -16.9822 O   0  0  0  0  0  0  0  0  0  0  0  0
   21.5373   62.9629  -15.5837 C   0  0  0  0  0  0  0  0  0  0  0  0
   21.4078   62.1052  -16.7657 C   0  0  0  0  0  0  0  0  0  0  0  0
   21.4998   63.5405  -17.0375 C   0  0  0  0  0  0  0  0  0  0  0  0
  1  2  1  0  0  0
  2  3  2  0  0  0
  2  7  1  0  0  0
  3  4  1  0  0  0
  4  5  2  0  0  0
  4 11  1  0  0  0
  5  6  1  0  0  0
  5  8  1  0  0  0
  6  7  2  0  0  0
  7 13  1  0  0  0
 13 14  1  0  0  0
 13 18  1  0  0  0
 14 15  1  0  0  0
 15 16  1  0  0  0
 16 17  1  0  0  0
 16 19  1  0  0  0
 17 18  1  0  0  0
 19 20  2  0  0  0
 19 22  1  0  0  0
 22 23  2  0  0  0
 22 27  1  0  0  0
 23 24  1  0  0  0
 24 25  2  0  0  0
 24 28  1  0  0  0
 25 26  1  0  0  0
 26 27  2  0  0  0
  8  9  1  0  0  0
  8 32  1  0  0  0
  9 10  2  0  0  0
 10 11  1  0  0  0
 10 29  1  0  0  0
 11 12  2  0  0  0
 29 30  2  0  0  0
 29 31  1  0  0  0
 32 33  1  0  0  0
 32 34  1  0  0  0
 33 34  1  0  0  0
 13 21  1  0  0  0
M  CHG 1  13   1
M  END
> <minimizedAffinity>
-5.04200

$$$$
1506


 32 35  0  0  0  0  0  0  0  0999 V2000
   19.8135   62.5701   -9.3779 N   0  0  0  0  0  0  0  0  0  0  0  0
   20.7655   63.3036  -10.1742 C   0  0  0  0  0  0  0  0  0  0  0  0
   21.0194   62.9127  -11.3243 O   0  0  0  0  0  0  0  0  0  0  0  0
   19.6328   62.9641   -8.4582 H   0  0  0  0  0  0  0  0  0  0  0  0
   21.4459   64.5119   -9.6515 C   0  0  0  0  0  0  0  0  0  0  0  0
   22.9354   64.2493   -9.6564 C   0  0  0  0  0  0  0  0  0  0  0  0
   23.2164   63.2481   -8.5583 C   0  0  0  0  0  0  0  0  0  0  0  0
   23.0049   63.9691   -7.3065 N   0  0  0  0  0  0  0  0  0  0  0  0
   21.9813   64.9542   -7.2165 C   0  0  0  0  0  0  0  0  0  0  0  0
   20.9742   64.9306   -8.3082 C   0  0  0  0  0  0  0  0  0  0  0  0
   23.8465   63.6456   -6.2172 C   0  0  0  0  0  0  0  0  0  0  0  0
   23.5665   63.9948   -4.9469 N   0  0  0  0  0  0  0  0  0  0  0  0
   24.3420   63.7025   -3.9197 N   0  0  0  0  0  0  0  0  0  0  0  0
   24.2296   63.9591   -2.6207 N   0  0  0  0  0  0  0  0  0  0  0  0
   25.2494   63.4715   -1.9666 N   0  0  0  0  0  0  0  0  0  0  0  0
   26.0449   62.8852   -2.8359 N   0  0  0  0  0  0  0  0  0  0  0  0
   25.4873   63.0250   -4.0571 C   0  0  0  0  0  0  0  0  0  0  0  0
   25.8320   62.6379   -5.3397 C   0  0  0  0  0  0  0  0  0  0  0  0
   25.0221   62.9425   -6.4151 C   0  0  0  0  0  0  0  0  0  0  0  0
   19.2193   61.4356   -9.9668 C   0  0  0  0  0  0  0  0  0  0  0  0
   17.7982   61.1065   -9.7708 C   0  0  0  0  0  0  0  0  0  0  0  0
   15.5155   61.5464  -10.8250 C   0  0  0  0  0  0  0  0  0  0  0  0
   14.9735   60.4708  -10.4927 O   0  0  0  0  0  0  0  0  0  0  0  0
   16.8263   61.8440  -10.4836 N   0  0  0  0  0  0  0  0  0  0  0  0
   17.1336   62.8442  -10.8600 H   0  0  0  0  0  0  0  0  0  0  0  0
   12.1412   65.4076  -13.9726 Cl  0  0  0  0  0  0  0  0  0  0  0  0
   13.1155   64.2675  -13.0586 C   0  0  0  0  0  0  0  0  0  0  0  0
   14.1519   64.7311  -12.2655 C   0  0  0  0  0  0  0  0  0  0  0  0
   14.9087   63.8313  -11.5526 C   0  0  0  0  0  0  0  0  0  0  0  0
   14.6650   62.4761  -11.6051 C   0  0  0  0  0  0  0  0  0  0  0  0
   13.6352   62.0410  -12.3970 C   0  0  0  0  0  0  0  0  0  0  0  0
   12.8462   62.9269  -13.1344 C   0  0  0  0  0  0  0  0  0  0  0  0
 26 27  1  0  0  0
 27 28  2  0  0  0
 27 32  1  0  0  0
 28 29  1  0  0  0
 29 30  2  0  0  0
 30 31  1  0  0  0
 30 22  1  0  0  0
 31 32  2  0  0  0
 22 23  2  0  0  0
 22 24  1  0  0  0
 24 21  1  0  0  0
 21 20  1  0  0  0
 20  1  1  0  0  0
  1  2  1  0  0  0
  2  3  2  0  0  0
  2  5  1  0  0  0
  5  6  1  0  0  0
  5 10  1  0  0  0
  6  7  1  0  0  0
  7  8  1  0  0  0
  8  9  1  0  0  0
  8 11  1  0  0  0
  9 10  1  0  0  0
 11 12  2  0  0  0
 11 19  1  0  0  0
 12 13  1  0  0  0
 13 14  1  0  0  0
 13 17  1  0  0  0
 14 15  2  0  0  0
 15 16  1  0  0  0
 16 17  2  0  0  0
 17 18  1  0  0  0
 18 19  2  0  0  0
 24 25  1  0  0  0
  1  4  1  0  0  0
M  END
> <minimizedAffinity>
-10.25699

$$$$
1507


 32 35  0  0  0  0  0  0  0  0999 V2000
   19.8534   63.1648   -9.2823 C   0  0  0  0  0  0  0  0  0  0  0  0
   20.7455   63.5134  -10.1869 C   0  0  0  0  0  0  0  0  0  0  0  0
   22.1390   64.0343  -10.0040 C   0  0  0  0  0  0  0  0  0  0  0  0
   22.8488   63.3389  -11.0153 N   0  0  0  0  0  0  0  0  0  0  0  0
   21.9655   63.4241  -12.1751 C   0  0  0  0  0  0  0  0  0  0  0  0
   22.2896   63.4075  -13.3909 O   0  0  0  0  0  0  0  0  0  0  0  0
   20.6122   63.5353  -11.6432 C   0  0  0  0  0  0  0  0  0  0  0  0
   19.4952   63.6342  -12.2520 O   0  0  0  0  0  0  0  0  0  0  0  0
   20.1109   63.2488   -7.9253 O   0  0  0  0  0  0  0  0  0  0  0  0
   14.2603   61.2065  -11.0156 Br  0  0  0  0  0  0  0  0  0  0  0  0
   15.9979   61.8209  -10.4673 C   0  0  0  0  0  0  0  0  0  0  0  0
   17.0439   60.9473  -10.2787 C   0  0  0  0  0  0  0  0  0  0  0  0
   18.2976   61.3280   -9.8899 C   0  0  0  0  0  0  0  0  0  0  0  0
   18.5372   62.6717   -9.6701 C   0  0  0  0  0  0  0  0  0  0  0  0
   17.5084   63.5670   -9.8522 C   0  0  0  0  0  0  0  0  0  0  0  0
   16.2303   63.1636  -10.2506 C   0  0  0  0  0  0  0  0  0  0  0  0
   22.5742   64.0966   -8.6489 C   0  0  0  0  0  0  0  0  0  0  0  0
   23.3659   63.0896   -8.1519 C   0  0  0  0  0  0  0  0  0  0  0  0
   23.8389   63.0872   -6.8617 C   0  0  0  0  0  0  0  0  0  0  0  0
   23.5265   64.1258   -5.9965 C   0  0  0  0  0  0  0  0  0  0  0  0
   22.7301   65.1278   -6.5144 C   0  0  0  0  0  0  0  0  0  0  0  0
   22.2603   65.1224   -7.8089 C   0  0  0  0  0  0  0  0  0  0  0  0
   24.1212   64.1356   -4.3550 Cl  0  0  0  0  0  0  0  0  0  0  0  0
   24.1500   62.7033  -11.0907 C   0  0  0  0  0  0  0  0  0  0  0  0
   24.6916   62.4130  -12.4360 C   0  0  0  0  0  0  0  0  0  0  0  0
   25.3903   63.5432  -13.0577 N   0  0  0  0  0  0  0  0  0  0  0  0
   24.9629   63.7079  -14.4048 C   0  0  0  0  0  0  0  0  0  0  0  0
   25.9851   63.4823  -15.4631 C   0  0  0  0  0  0  0  0  0  0  0  0
   27.2939   63.7221  -15.0905 O   0  0  0  0  0  0  0  0  0  0  0  0
   27.5452   62.8130  -14.0374 C   0  0  0  0  0  0  0  0  0  0  0  0
   26.7947   63.3325  -12.8621 C   0  0  0  0  0  0  0  0  0  0  0  0
   25.1012   64.3859  -12.4718 H   0  0  0  0  0  0  0  0  0  0  0  0
 10 11  1  0  0  0
 11 12  2  0  0  0
 11 16  1  0  0  0
 12 13  1  0  0  0
 13 14  2  0  0  0
 14 15  1  0  0  0
 14  1  1  0  0  0
 15 16  2  0  0  0
  1  2  2  0  0  0
  1  9  1  0  0  0
  2  3  1  0  0  0
  2  7  1  0  0  0
  3  4  1  0  0  0
  3 17  1  0  0  0
  4  5  1  0  0  0
  4 24  1  0  0  0
  5  6  2  0  0  0
  5  7  1  0  0  0
  7  8  2  0  0  0
 24 25  1  0  0  0
 25 26  1  0  0  0
 26 27  1  0  0  0
 26 31  1  0  0  0
 27 28  1  0  0  0
 28 29  1  0  0  0
 29 30  1  0  0  0
 30 31  1  0  0  0
 17 18  2  0  0  0
 17 22  1  0  0  0
 18 19  1  0  0  0
 19 20  2  0  0  0
 20 21  1  0  0  0
 20 23  1  0  0  0
 21 22  2  0  0  0
 26 32  1  0  0  0
M  CHG 1   9  -1
M  CHG 1  26   1
M  END
> <minimizedAffinity>
-8.73778

$$$$
1511


 34 37  0  0  0  0  0  0  0  0999 V2000
   13.2482   63.8978  -13.0890 N   0  0  0  0  0  0  0  0  0  0  0  0
   14.1875   64.3262  -12.2303 C   0  0  0  0  0  0  0  0  0  0  0  0
   14.4890   65.5414  -12.1103 O   0  0  0  0  0  0  0  0  0  0  0  0
   14.7451   63.2694  -11.5301 C   0  0  0  0  0  0  0  0  0  0  0  0
   14.1320   62.1789  -11.9725 C   0  0  0  0  0  0  0  0  0  0  0  0
   14.6730   61.1551  -11.2942 N   0  0  0  0  0  0  0  0  0  0  0  0
   15.5915   61.6086  -10.4602 N   0  0  0  0  0  0  0  0  0  0  0  0
   15.6508   62.9071  -10.5896 N   0  0  0  0  0  0  0  0  0  0  0  0
   13.2131   62.5560  -12.9293 C   0  0  0  0  0  0  0  0  0  0  0  0
   12.4445   61.7627  -13.5675 O   0  0  0  0  0  0  0  0  0  0  0  0
   14.4330   60.1479  -11.3840 H   0  0  0  0  0  0  0  0  0  0  0  0
   16.1907   61.0401   -9.7904 H   0  0  0  0  0  0  0  0  0  0  0  0
    9.6154   67.0809  -16.9134 Br  0  0  0  0  0  0  0  0  0  0  0  0
   10.7559   66.0912  -15.7354 C   0  0  0  0  0  0  0  0  0  0  0  0
   12.0243   65.7051  -16.1214 C   0  0  0  0  0  0  0  0  0  0  0  0
   12.8492   64.9865  -15.2611 C   0  0  0  0  0  0  0  0  0  0  0  0
   12.4325   64.6316  -13.9949 C   0  0  0  0  0  0  0  0  0  0  0  0
   11.1661   65.0191  -13.6156 C   0  0  0  0  0  0  0  0  0  0  0  0
   10.3472   65.7325  -14.4665 C   0  0  0  0  0  0  0  0  0  0  0  0
   16.5100   63.8258   -9.8817 C   0  0  0  0  0  0  0  0  0  0  0  0
   17.9408   63.3542   -9.9975 C   0  0  0  0  0  0  0  0  0  0  0  0
   18.2312   62.1919   -9.6373 O   0  0  0  0  0  0  0  0  0  0  0  0
   18.9264   64.2144  -10.5033 N   0  0  0  0  0  0  0  0  0  0  0  0
   18.6051   65.1950  -10.7926 H   0  0  0  0  0  0  0  0  0  0  0  0
   20.2900   63.9009  -10.6692 C   0  0  0  0  0  0  0  0  0  0  0  0
   21.2813   64.1016   -9.7422 C   0  0  0  0  0  0  0  0  0  0  0  0
   22.6048   63.7882   -9.9732 C   0  0  0  0  0  0  0  0  0  0  0  0
   22.9385   63.2469  -11.1969 C   0  0  0  0  0  0  0  0  0  0  0  0
   21.9673   63.0274  -12.1603 C   0  0  0  0  0  0  0  0  0  0  0  0
   20.6609   63.3473  -11.9097 C   0  0  0  0  0  0  0  0  0  0  0  0
   24.2686   62.9228  -11.4504 O   0  0  0  0  0  0  0  0  0  0  0  0
   24.8792   63.3932  -12.6356 C   0  0  0  0  0  0  0  0  0  0  0  0
   23.5898   64.0033   -9.0119 O   0  0  0  0  0  0  0  0  0  0  0  0
   23.3394   63.5178   -7.6865 C   0  0  0  0  0  0  0  0  0  0  0  0
 13 14  1  0  0  0
 14 15  2  0  0  0
 14 19  1  0  0  0
 15 16  1  0  0  0
 16 17  2  0  0  0
 17 18  1  0  0  0
 17  1  1  0  0  0
 18 19  2  0  0  0
  1  2  1  0  0  0
  1  9  1  0  0  0
  2  3  2  0  0  0
  2  4  1  0  0  0
  4  5  2  0  0  0
  4  8  1  0  0  0
  5  6  1  0  0  0
  5  9  1  0  0  0
  6  7  1  0  0  0
  7  8  1  0  0  0
  8 20  1  0  0  0
 20 21  1  0  0  0
 21 22  2  0  0  0
 21 23  1  0  0  0
 23 25  1  0  0  0
 25 26  2  0  0  0
 25 30  1  0  0  0
 26 27  1  0  0  0
 27 28  2  0  0  0
 27 33  1  0  0  0
 28 29  1  0  0  0
 28 31  1  0  0  0
 29 30  2  0  0  0
 31 32  1  0  0  0
 33 34  1  0  0  0
  9 10  2  0  0  0
  6 11  1  0  0  0
  7 12  1  0  0  0
 23 24  1  0  0  0
M  END
> <minimizedAffinity>
-7.88421

$$$$
1516


 30 33  0  0  0  0  0  0  0  0999 V2000
   21.9280   63.5114  -10.3863 C   0  0  0  0  0  0  0  0  0  0  0  0
   22.5766   62.7647  -11.2506 O   0  0  0  0  0  0  0  0  0  0  0  0
   20.5801   63.2025  -10.2706 N   0  0  0  0  0  0  0  0  0  0  0  0
   19.6764   63.8487   -9.3767 C   0  0  0  0  0  0  0  0  0  0  0  0
   18.3830   63.0040   -9.3143 C   0  0  0  0  0  0  0  0  0  0  0  0
   17.7226   63.1341  -10.6736 C   0  0  0  0  0  0  0  0  0  0  0  0
   17.4170   64.4843  -10.9134 N   0  0  0  0  0  0  0  0  0  0  0  0
   16.2255   65.0451  -10.4393 C   0  0  0  0  0  0  0  0  0  0  0  0
   15.0113   64.1948  -10.4514 C   0  0  0  0  0  0  0  0  0  0  0  0
   15.2967   62.7515  -10.5925 C   0  0  0  0  0  0  0  0  0  0  0  0
   14.4169   61.7325  -10.6419 N   0  0  0  0  0  0  0  0  0  0  0  0
   15.1063   60.5952  -10.7738 C   0  0  0  0  0  0  0  0  0  0  0  0
   16.4231   60.9010  -10.8074 N   0  0  0  0  0  0  0  0  0  0  0  0
   16.5588   62.2355  -10.6955 C   0  0  0  0  0  0  0  0  0  0  0  0
   18.7524   62.6989  -11.7304 C   0  0  0  0  0  0  0  0  0  0  0  0
   20.0001   62.1390  -11.1064 C   0  0  0  0  0  0  0  0  0  0  0  0
   18.1337   65.0977  -11.2827 H   0  0  0  0  0  0  0  0  0  0  0  0
   17.1936   60.2148  -10.9016 H   0  0  0  0  0  0  0  0  0  0  0  0
   22.7602   64.5127   -9.7217 C   0  0  0  0  0  0  0  0  0  0  0  0
   22.4031   64.9059   -7.0496 C   0  0  0  0  0  0  0  0  0  0  0  0
   21.5776   65.6774   -6.4952 O   0  0  0  0  0  0  0  0  0  0  0  0
   22.5811   64.7100   -8.3782 N   0  0  0  0  0  0  0  0  0  0  0  0
   21.6348   65.6662   -8.6698 H   0  0  0  0  0  0  0  0  0  0  0  0
   25.8545   61.8306   -3.2512 Cl  0  0  0  0  0  0  0  0  0  0  0  0
   24.8443   62.7275   -4.3760 C   0  0  0  0  0  0  0  0  0  0  0  0
   23.8144   63.4748   -3.8768 C   0  0  0  0  0  0  0  0  0  0  0  0
   23.0116   64.1932   -4.7689 C   0  0  0  0  0  0  0  0  0  0  0  0
   23.2728   64.1302   -6.1058 C   0  0  0  0  0  0  0  0  0  0  0  0
   24.2914   63.3919   -6.6049 C   0  0  0  0  0  0  0  0  0  0  0  0
   25.1061   62.6656   -5.7136 C   0  0  0  0  0  0  0  0  0  0  0  0
 24 25  1  0  0  0
 25 26  2  0  0  0
 25 30  1  0  0  0
 26 27  1  0  0  0
 27 28  2  0  0  0
 28 29  1  0  0  0
 28 20  1  0  0  0
 29 30  2  0  0  0
 20 21  2  0  0  0
 20 22  1  0  0  0
 22 19  1  0  0  0
 19  1  1  0  0  0
  1  2  2  0  0  0
  1  3  1  0  0  0
  3  4  1  0  0  0
  3 16  1  0  0  0
  4  5  1  0  0  0
  5  6  1  0  0  0
  6  7  1  0  0  0
  6 14  1  0  0  0
  6 15  1  0  0  0
  7  8  1  0  0  0
  8  9  1  0  0  0
  9 10  1  0  0  0
 10 11  1  0  0  0
 10 14  2  0  0  0
 11 12  2  0  0  0
 12 13  1  0  0  0
 13 14  1  0  0  0
 15 16  1  0  0  0
 22 23  1  0  0  0
  7 17  1  0  0  0
 13 18  1  0  0  0
M  END
> <minimizedAffinity>
-9.47813

$$$$
1518


 31 34  0  0  0  0  0  0  0  0999 V2000
   21.3382   63.7170  -10.0464 C   0  0  0  0  0  0  0  0  0  0  0  0
   22.2554   62.9362  -10.3996 O   0  0  0  0  0  0  0  0  0  0  0  0
   19.9826   63.3419  -10.1963 N   0  0  0  0  0  0  0  0  0  0  0  0
   18.8795   64.1981   -9.8095 C   0  0  0  0  0  0  0  0  0  0  0  0
   17.7434   63.3029   -9.3375 C   0  0  0  0  0  0  0  0  0  0  0  0
   17.2423   62.4302  -10.4878 C   0  0  0  0  0  0  0  0  0  0  0  0
   16.8477   61.1765   -9.9137 N   0  0  0  0  0  0  0  0  0  0  0  0
   15.9333   60.4509  -10.7693 C   0  0  0  0  0  0  0  0  0  0  0  0
   14.5853   61.1683  -10.7577 C   0  0  0  0  0  0  0  0  0  0  0  0
   14.8391   62.5397  -11.2860 C   0  0  0  0  0  0  0  0  0  0  0  0
   14.0279   63.4291  -11.9329 N   0  0  0  0  0  0  0  0  0  0  0  0
   14.7515   64.5318  -12.1951 C   0  0  0  0  0  0  0  0  0  0  0  0
   15.9942   64.3339  -11.7200 N   0  0  0  0  0  0  0  0  0  0  0  0
   16.0886   63.0993  -11.1435 C   0  0  0  0  0  0  0  0  0  0  0  0
   18.3451   62.1885  -11.4963 C   0  0  0  0  0  0  0  0  0  0  0  0
   19.6442   62.0493  -10.7591 C   0  0  0  0  0  0  0  0  0  0  0  0
   17.6683   60.5835   -9.6806 H   0  0  0  0  0  0  0  0  0  0  0  0
   13.0294   63.2085  -12.1466 H   0  0  0  0  0  0  0  0  0  0  0  0
   21.7178   65.0288   -9.4756 C   0  0  0  0  0  0  0  0  0  0  0  0
   21.2673   65.1969   -8.0590 C   0  0  0  0  0  0  0  0  0  0  0  0
   22.8849   64.7554   -6.1890 C   0  0  0  0  0  0  0  0  0  0  0  0
   23.0318   65.9866   -5.9814 O   0  0  0  0  0  0  0  0  0  0  0  0
   22.0290   64.3132   -7.1981 N   0  0  0  0  0  0  0  0  0  0  0  0
   21.8944   63.2901   -7.3818 H   0  0  0  0  0  0  0  0  0  0  0  0
   25.9207   60.9937   -2.6241 Cl  0  0  0  0  0  0  0  0  0  0  0  0
   25.0101   62.0998   -3.6333 C   0  0  0  0  0  0  0  0  0  0  0  0
   25.4094   62.2807   -4.9500 C   0  0  0  0  0  0  0  0  0  0  0  0
   24.7337   63.1400   -5.8030 C   0  0  0  0  0  0  0  0  0  0  0  0
   23.6390   63.8362   -5.3406 C   0  0  0  0  0  0  0  0  0  0  0  0
   23.2603   63.6353   -4.0138 C   0  0  0  0  0  0  0  0  0  0  0  0
   23.9147   62.7908   -3.1593 C   0  0  0  0  0  0  0  0  0  0  0  0
 25 26  1  0  0  0
 26 27  2  0  0  0
 26 31  1  0  0  0
 27 28  1  0  0  0
 28 29  2  0  0  0
 29 30  1  0  0  0
 29 21  1  0  0  0
 30 31  2  0  0  0
 21 22  2  0  0  0
 21 23  1  0  0  0
 23 20  1  0  0  0
 20 19  1  0  0  0
 19  1  1  0  0  0
  1  2  2  0  0  0
  1  3  1  0  0  0
  3  4  1  0  0  0
  3 16  1  0  0  0
  4  5  1  0  0  0
  5  6  1  0  0  0
  6  7  1  0  0  0
  6 14  1  0  0  0
  6 15  1  0  0  0
  7  8  1  0  0  0
  8  9  1  0  0  0
  9 10  1  0  0  0
 10 11  1  0  0  0
 10 14  2  0  0  0
 11 12  1  0  0  0
 12 13  2  0  0  0
 13 14  1  0  0  0
 15 16  1  0  0  0
 23 24  1  0  0  0
  7 17  1  0  0  0
 11 18  1  0  0  0
M  END
> <minimizedAffinity>
-8.40077

$$$$
1521


 24 27  0  0  0  0  0  0  0  0999 V2000
   25.3238   62.6578   -5.9419 Cl  0  0  0  0  0  0  0  0  0  0  0  0
   23.8816   63.5701   -6.3351 C   0  0  0  0  0  0  0  0  0  0  0  0
   23.4316   63.5963   -7.6328 C   0  0  0  0  0  0  0  0  0  0  0  0
   23.8511   63.0527   -8.7877 N   0  0  0  0  0  0  0  0  0  0  0  0
   23.0439   63.3857   -9.8126 C   0  0  0  0  0  0  0  0  0  0  0  0
   22.0633   64.1854   -9.2647 C   0  0  0  0  0  0  0  0  0  0  0  0
   22.2889   64.3268   -7.9126 C   0  0  0  0  0  0  0  0  0  0  0  0
   21.6463   64.9960   -6.8910 C   0  0  0  0  0  0  0  0  0  0  0  0
   22.0751   64.9856   -5.5868 C   0  0  0  0  0  0  0  0  0  0  0  0
   23.2237   64.2512   -5.3104 C   0  0  0  0  0  0  0  0  0  0  0  0
   21.0364   64.6841  -10.2128 C   0  0  0  0  0  0  0  0  0  0  0  0
   20.5757   63.5053  -10.9109 N   0  0  0  0  0  0  0  0  0  0  0  0
   21.5335   62.9023  -11.7533 C   0  0  0  0  0  0  0  0  0  0  0  0
   22.9450   63.1393  -11.2666 C   0  0  0  0  0  0  0  0  0  0  0  0
   24.7004   62.4352   -8.9232 H   0  0  0  0  0  0  0  0  0  0  0  0
   19.2380   63.5474  -11.3247 C   0  0  0  0  0  0  0  0  0  0  0  0
   18.2840   63.0276  -10.2928 C   0  0  0  0  0  0  0  0  0  0  0  0
   16.9158   63.6062  -10.4018 C   0  0  0  0  0  0  0  0  0  0  0  0
   15.9491   62.5720  -10.5407 N   0  0  0  0  0  0  0  0  0  0  0  0
   16.6139   61.3107  -10.5927 C   0  0  0  0  0  0  0  0  0  0  0  0
   18.0836   61.5541  -10.5251 C   0  0  0  0  0  0  0  0  0  0  0  0
   18.8138   63.1636   -9.0034 O   0  0  0  0  0  0  0  0  0  0  0  0
   15.1917   62.5983   -9.8176 H   0  0  0  0  0  0  0  0  0  0  0  0
   18.0321   63.1922   -8.3906 H   0  0  0  0  0  0  0  0  0  0  0  0
  1  2  1  0  0  0
  2  3  2  0  0  0
  2 10  1  0  0  0
  3  4  1  0  0  0
  3  7  1  0  0  0
  4  5  1  0  0  0
  5  6  2  0  0  0
  5 14  1  0  0  0
  6  7  1  0  0  0
  6 11  1  0  0  0
  7  8  2  0  0  0
  8  9  1  0  0  0
  9 10  2  0  0  0
 11 12  1  0  0  0
 12 13  1  0  0  0
 12 16  1  0  0  0
 13 14  1  0  0  0
 16 17  1  0  0  0
 17 18  1  0  0  0
 17 21  1  0  0  0
 17 22  1  0  0  0
 18 19  1  0  0  0
 19 20  1  0  0  0
 20 21  1  0  0  0
  4 15  1  0  0  0
 19 23  1  0  0  0
 22 24  1  0  0  0
M  END
> <minimizedAffinity>
-8.27858

$$$$
1523


 25 28  0  0  0  0  0  0  0  0999 V2000
   22.3345   63.3343   -9.0761 C   0  0  0  0  0  0  0  0  0  0  0  0
   23.4158   62.9341   -9.6341 O   0  0  0  0  0  0  0  0  0  0  0  0
   22.3531   63.8420   -7.7766 N   0  0  0  0  0  0  0  0  0  0  0  0
   23.5946   63.9103   -7.0563 C   0  0  0  0  0  0  0  0  0  0  0  0
   23.9420   65.3578   -6.8440 C   0  0  0  0  0  0  0  0  0  0  0  0
   22.7744   66.0709   -6.4111 N   0  0  0  0  0  0  0  0  0  0  0  0
   21.6623   65.2324   -5.9226 C   0  0  0  0  0  0  0  0  0  0  0  0
   21.1977   64.3240   -7.0524 C   0  0  0  0  0  0  0  0  0  0  0  0
   22.5676   67.4504   -6.4048 C   0  0  0  0  0  0  0  0  0  0  0  0
   21.4242   67.8302   -5.9218 O   0  0  0  0  0  0  0  0  0  0  0  0
   19.0502   62.7279  -10.5773 N   0  0  0  0  0  0  0  0  0  0  0  0
   19.7234   63.3318  -11.5624 N   0  0  0  0  0  0  0  0  0  0  0  0
   20.9452   63.6210  -11.1743 N   0  0  0  0  0  0  0  0  0  0  0  0
   21.1160   63.2113   -9.9092 C   0  0  0  0  0  0  0  0  0  0  0  0
   19.9124   62.6519   -9.5498 C   0  0  0  0  0  0  0  0  0  0  0  0
   13.9307   63.8927  -11.2989 Br  0  0  0  0  0  0  0  0  0  0  0  0
   15.3640   62.6855  -10.9494 C   0  0  0  0  0  0  0  0  0  0  0  0
   16.6848   63.1540  -10.8919 C   0  0  0  0  0  0  0  0  0  0  0  0
   17.7089   62.2738  -10.6388 C   0  0  0  0  0  0  0  0  0  0  0  0
   17.4138   60.9495  -10.4482 C   0  0  0  0  0  0  0  0  0  0  0  0
   16.0982   60.4720  -10.5033 C   0  0  0  0  0  0  0  0  0  0  0  0
   15.0808   61.3597  -10.7566 C   0  0  0  0  0  0  0  0  0  0  0  0
   23.4287   68.5383   -6.8526 C   0  0  0  0  0  0  0  0  0  0  0  0
   23.0231   69.9426   -6.9135 C   0  0  0  0  0  0  0  0  0  0  0  0
   24.1145   69.4921   -5.9468 C   0  0  0  0  0  0  0  0  0  0  0  0
 16 17  1  0  0  0
 17 18  2  0  0  0
 17 22  1  0  0  0
 18 19  1  0  0  0
 19 20  2  0  0  0
 19 11  1  0  0  0
 20 21  1  0  0  0
 21 22  2  0  0  0
 11 12  1  0  0  0
 11 15  1  0  0  0
 12 13  2  0  0  0
 13 14  1  0  0  0
 14 15  2  0  0  0
 14  1  1  0  0  0
  1  2  2  0  0  0
  1  3  1  0  0  0
  3  4  1  0  0  0
  3  8  1  0  0  0
  4  5  1  0  0  0
  5  6  1  0  0  0
  6  7  1  0  0  0
  6  9  1  0  0  0
  7  8  1  0  0  0
  9 10  2  0  0  0
  9 23  1  0  0  0
 23 24  1  0  0  0
 23 25  1  0  0  0
 24 25  1  0  0  0
M  END
> <minimizedAffinity>
-8.60442

$$$$
1525


 26 29  0  0  0  0  0  0  0  0999 V2000
   19.3334   63.1139  -11.0937 N   0  0  0  0  0  0  0  0  0  0  0  0
   19.8574   64.1887  -10.3236 C   0  0  0  0  0  0  0  0  0  0  0  0
   19.1384   65.0357   -9.7403 O   0  0  0  0  0  0  0  0  0  0  0  0
   21.3101   64.0757  -10.3739 C   0  0  0  0  0  0  0  0  0  0  0  0
   21.5572   63.4291  -11.7207 C   0  0  0  0  0  0  0  0  0  0  0  0
   20.3300   62.6674  -12.0213 C   0  0  0  0  0  0  0  0  0  0  0  0
   20.1676   61.7929  -12.9129 O   0  0  0  0  0  0  0  0  0  0  0  0
   14.0244   63.7639  -11.2730 Br  0  0  0  0  0  0  0  0  0  0  0  0
   15.6110   62.7536  -10.9841 C   0  0  0  0  0  0  0  0  0  0  0  0
   16.8723   63.3196  -11.1481 C   0  0  0  0  0  0  0  0  0  0  0  0
   18.0176   62.5813  -10.9366 C   0  0  0  0  0  0  0  0  0  0  0  0
   17.8356   61.2564  -10.5562 C   0  0  0  0  0  0  0  0  0  0  0  0
   16.6048   60.6824  -10.3892 C   0  0  0  0  0  0  0  0  0  0  0  0
   15.4765   61.4354  -10.6055 C   0  0  0  0  0  0  0  0  0  0  0  0
   21.9275   63.3888   -9.3116 N   0  0  0  0  0  0  0  0  0  0  0  0
   21.1203   62.9568   -8.2434 C   0  0  0  0  0  0  0  0  0  0  0  0
   21.2095   63.9912   -7.1128 C   0  0  0  0  0  0  0  0  0  0  0  0
   22.3694   64.8439   -7.3175 N   0  0  0  0  0  0  0  0  0  0  0  0
   23.6053   64.3373   -7.8803 C   0  0  0  0  0  0  0  0  0  0  0  0
   23.3014   63.4900   -9.0933 C   0  0  0  0  0  0  0  0  0  0  0  0
   22.3271   66.2386   -6.9854 C   0  0  0  0  0  0  0  0  0  0  0  0
   23.3892   66.8513   -6.4215 N   0  0  0  0  0  0  0  0  0  0  0  0
   23.3490   68.1656   -6.1275 C   0  0  0  0  0  0  0  0  0  0  0  0
   22.2219   68.9350   -6.3922 C   0  0  0  0  0  0  0  0  0  0  0  0
   21.1373   68.3004   -6.9714 C   0  0  0  0  0  0  0  0  0  0  0  0
   21.2390   66.9869   -7.2411 N   0  0  0  0  0  0  0  0  0  0  0  0
  8  9  1  0  0  0
  9 10  2  0  0  0
  9 14  1  0  0  0
 10 11  1  0  0  0
 11 12  2  0  0  0
 11  1  1  0  0  0
 12 13  1  0  0  0
 13 14  2  0  0  0
  1  2  1  0  0  0
  1  6  1  0  0  0
  2  3  2  0  0  0
  2  4  1  0  0  0
  4  5  1  0  0  0
  4 15  1  0  0  0
  5  6  1  0  0  0
  6  7  2  0  0  0
 15 16  1  0  0  0
 15 20  1  0  0  0
 16 17  1  0  0  0
 17 18  1  0  0  0
 18 19  1  0  0  0
 18 21  1  0  0  0
 19 20  1  0  0  0
 21 22  2  0  0  0
 21 26  1  0  0  0
 22 23  1  0  0  0
 23 24  2  0  0  0
 24 25  1  0  0  0
 25 26  2  0  0  0
M  END
> <minimizedAffinity>
-8.23360

$$$$
1531


 27 30  0  0  0  0  0  0  0  0999 V2000
   22.4276   64.2226   -8.8926 N   0  0  0  0  0  0  0  0  0  0  0  0
   22.7592   63.8319  -10.1632 C   0  0  0  0  0  0  0  0  0  0  0  0
   21.6457   63.3321  -10.7046 N   0  0  0  0  0  0  0  0  0  0  0  0
   20.6049   63.3743   -9.8561 C   0  0  0  0  0  0  0  0  0  0  0  0
   21.1093   63.9436   -8.7004 C   0  0  0  0  0  0  0  0  0  0  0  0
   21.9027   62.8845  -12.0694 C   0  0  0  0  0  0  0  0  0  0  0  0
   23.3766   63.0760  -12.2772 C   0  0  0  0  0  0  0  0  0  0  0  0
   23.9154   63.7925  -11.0910 C   0  0  0  0  0  0  0  0  0  0  0  0
   19.2258   62.9315  -10.0556 C   0  0  0  0  0  0  0  0  0  0  0  0
   18.1521   63.7689  -10.2193 C   0  0  0  0  0  0  0  0  0  0  0  0
   16.8560   63.2678  -10.4077 C   0  0  0  0  0  0  0  0  0  0  0  0
   16.5956   61.9159  -10.4371 C   0  0  0  0  0  0  0  0  0  0  0  0
   17.6678   61.0662  -10.2727 C   0  0  0  0  0  0  0  0  0  0  0  0
   18.9418   61.5617  -10.0883 C   0  0  0  0  0  0  0  0  0  0  0  0
   15.3181   61.4062  -10.6226 O   0  0  0  0  0  0  0  0  0  0  0  0
   14.2985   62.2110  -11.1874 C   0  0  0  0  0  0  0  0  0  0  0  0
   23.2929   64.8543   -7.9554 C   0  0  0  0  0  0  0  0  0  0  0  0
   23.0703   64.7518   -6.5322 C   0  0  0  0  0  0  0  0  0  0  0  0
   22.1623   65.5859   -6.0639 O   0  0  0  0  0  0  0  0  0  0  0  0
   26.9839   61.6205   -5.3485 Cl  0  0  0  0  0  0  0  0  0  0  0  0
   25.4914   62.4121   -4.9186 C   0  0  0  0  0  0  0  0  0  0  0  0
   24.9633   62.1891   -3.6675 C   0  0  0  0  0  0  0  0  0  0  0  0
   23.7867   62.8190   -3.3435 C   0  0  0  0  0  0  0  0  0  0  0  0
   23.1689   63.6587   -4.2820 C   0  0  0  0  0  0  0  0  0  0  0  0
   23.6579   63.9059   -5.5286 C   0  0  0  0  0  0  0  0  0  0  0  0
   24.8719   63.2292   -5.8059 C   0  0  0  0  0  0  0  0  0  0  0  0
   25.7378   61.1417   -2.5014 Cl  0  0  0  0  0  0  0  0  0  0  0  0
 20 21  1  0  0  0
 21 22  2  0  0  0
 21 26  1  0  0  0
 22 23  1  0  0  0
 22 27  1  0  0  0
 23 24  2  0  0  0
 24 25  1  0  0  0
 25 26  2  0  0  0
 25 18  1  0  0  0
 18 19  2  0  0  0
 18 17  1  0  0  0
 17  1  1  0  0  0
  1  2  1  0  0  0
  1  5  1  0  0  0
  2  3  2  0  0  0
  2  8  1  0  0  0
  3  4  1  0  0  0
  3  6  1  0  0  0
  4  5  2  0  0  0
  4  9  1  0  0  0
  9 10  2  0  0  0
  9 14  1  0  0  0
 10 11  1  0  0  0
 11 12  2  0  0  0
 12 13  1  0  0  0
 12 15  1  0  0  0
 13 14  2  0  0  0
 15 16  1  0  0  0
  6  7  1  0  0  0
  7  8  1  0  0  0
M  END
> <minimizedAffinity>
-9.51954

$$$$
1533


 28 31  0  0  0  0  0  0  0  0999 V2000
   20.3966   63.3850   -9.7208 C   0  0  0  0  0  0  0  0  0  0  0  0
   21.4773   63.4056  -10.5432 N   0  0  0  0  0  0  0  0  0  0  0  0
   22.5409   63.8517   -9.8665 C   0  0  0  0  0  0  0  0  0  0  0  0
   22.1871   64.1346   -8.5754 N   0  0  0  0  0  0  0  0  0  0  0  0
   20.8773   63.8452   -8.5033 C   0  0  0  0  0  0  0  0  0  0  0  0
   23.7395   63.9000  -10.7334 C   0  0  0  0  0  0  0  0  0  0  0  0
   23.3689   62.9257  -11.8170 C   0  0  0  0  0  0  0  0  0  0  0  0
   21.8706   63.0944  -11.9181 C   0  0  0  0  0  0  0  0  0  0  0  0
   15.3456   64.5613  -10.3539 Cl  0  0  0  0  0  0  0  0  0  0  0  0
   16.6779   63.4285  -10.2784 C   0  0  0  0  0  0  0  0  0  0  0  0
   16.4153   62.1020  -10.4566 C   0  0  0  0  0  0  0  0  0  0  0  0
   17.4436   61.1897  -10.4024 C   0  0  0  0  0  0  0  0  0  0  0  0
   18.7430   61.6445  -10.1641 C   0  0  0  0  0  0  0  0  0  0  0  0
   19.0151   62.9820   -9.9833 C   0  0  0  0  0  0  0  0  0  0  0  0
   17.9775   63.8659  -10.0420 C   0  0  0  0  0  0  0  0  0  0  0  0
   14.7817   61.5066  -10.7578 Cl  0  0  0  0  0  0  0  0  0  0  0  0
   23.0321   64.6752   -7.5507 C   0  0  0  0  0  0  0  0  0  0  0  0
   22.8459   64.3778   -6.1568 C   0  0  0  0  0  0  0  0  0  0  0  0
   21.6839   64.8149   -5.6807 O   0  0  0  0  0  0  0  0  0  0  0  0
   23.6410   63.7091   -5.1583 C   0  0  0  0  0  0  0  0  0  0  0  0
   24.9356   63.2474   -5.4871 C   0  0  0  0  0  0  0  0  0  0  0  0
   25.7654   62.6035   -4.6069 C   0  0  0  0  0  0  0  0  0  0  0  0
   25.2801   62.4086   -3.3298 C   0  0  0  0  0  0  0  0  0  0  0  0
   24.0220   62.8491   -2.9843 C   0  0  0  0  0  0  0  0  0  0  0  0
   23.1810   63.5044   -3.8858 C   0  0  0  0  0  0  0  0  0  0  0  0
   27.0588   62.1484   -4.9571 N   0  0  0  0  0  0  0  0  0  0  0  0
   28.0446   62.8186   -4.6318 O   0  0  0  0  0  0  0  0  0  0  0  0
   27.2516   60.9866   -5.6463 O   0  0  0  0  0  0  0  0  0  0  0  0
  9 10  1  0  0  0
 10 11  2  0  0  0
 10 15  1  0  0  0
 11 12  1  0  0  0
 11 16  1  0  0  0
 12 13  2  0  0  0
 13 14  1  0  0  0
 14 15  2  0  0  0
 14  1  1  0  0  0
  1  2  1  0  0  0
  1  5  2  0  0  0
  2  3  2  0  0  0
  2  8  1  0  0  0
  3  4  1  0  0  0
  3  6  1  0  0  0
  4  5  1  0  0  0
  4 17  1  0  0  0
 17 18  1  0  0  0
 18 19  2  0  0  0
 18 20  1  0  0  0
 20 21  2  0  0  0
 20 25  1  0  0  0
 21 22  1  0  0  0
 22 23  2  0  0  0
 22 26  1  0  0  0
 23 24  1  0  0  0
 24 25  2  0  0  0
 26 27  2  0  0  0
 26 28  1  0  0  0
  6  7  1  0  0  0
  7  8  1  0  0  0
M  CHG 1  28  -1
M  END
> <minimizedAffinity>
-10.67934

$$$$
1535


 28 31  0  0  0  0  0  0  0  0999 V2000
   20.2622   63.4321   -9.7969 C   0  0  0  0  0  0  0  0  0  0  0  0
   20.8855   63.7154   -8.6419 N   0  0  0  0  0  0  0  0  0  0  0  0
   22.1614   64.0744   -8.8948 C   0  0  0  0  0  0  0  0  0  0  0  0
   22.3517   64.0207  -10.2251 N   0  0  0  0  0  0  0  0  0  0  0  0
   21.1948   63.6256  -10.8277 C   0  0  0  0  0  0  0  0  0  0  0  0
   22.8640   64.3783   -7.6265 C   0  0  0  0  0  0  0  0  0  0  0  0
   21.6980   64.8575   -6.8002 C   0  0  0  0  0  0  0  0  0  0  0  0
   20.6660   63.7861   -7.1923 C   0  0  0  0  0  0  0  0  0  0  0  0
   15.2458   64.5635  -10.5400 Cl  0  0  0  0  0  0  0  0  0  0  0  0
   16.5239   63.3972  -10.4055 C   0  0  0  0  0  0  0  0  0  0  0  0
   16.2644   62.0581  -10.5217 C   0  0  0  0  0  0  0  0  0  0  0  0
   17.3162   61.1812  -10.4051 C   0  0  0  0  0  0  0  0  0  0  0  0
   18.5864   61.6410  -10.1802 C   0  0  0  0  0  0  0  0  0  0  0  0
   18.8878   63.0008  -10.0574 C   0  0  0  0  0  0  0  0  0  0  0  0
   17.8376   63.8498  -10.1733 C   0  0  0  0  0  0  0  0  0  0  0  0
   14.6452   61.4599  -10.8094 Cl  0  0  0  0  0  0  0  0  0  0  0  0
   23.5659   64.2856  -10.9049 C   0  0  0  0  0  0  0  0  0  0  0  0
   24.2650   63.3067  -11.6867 C   0  0  0  0  0  0  0  0  0  0  0  0
   24.2811   62.1286  -11.0959 O   0  0  0  0  0  0  0  0  0  0  0  0
   24.9377   63.3665  -12.9629 C   0  0  0  0  0  0  0  0  0  0  0  0
   24.3137   63.4258  -14.1794 C   0  0  0  0  0  0  0  0  0  0  0  0
   25.0327   63.4831  -15.3770 C   0  0  0  0  0  0  0  0  0  0  0  0
   26.3903   63.4804  -15.3587 C   0  0  0  0  0  0  0  0  0  0  0  0
   27.0446   63.4214  -14.1476 C   0  0  0  0  0  0  0  0  0  0  0  0
   26.3511   63.3653  -12.9693 C   0  0  0  0  0  0  0  0  0  0  0  0
   24.3204   63.5439  -16.6142 N   0  0  0  0  0  0  0  0  0  0  0  0
   24.7496   62.9167  -17.5980 O   0  0  0  0  0  0  0  0  0  0  0  0
   23.1814   64.2702  -16.7525 O   0  0  0  0  0  0  0  0  0  0  0  0
  9 10  1  0  0  0
 10 11  2  0  0  0
 10 15  1  0  0  0
 11 12  1  0  0  0
 11 16  1  0  0  0
 12 13  2  0  0  0
 13 14  1  0  0  0
 14 15  2  0  0  0
 14  1  1  0  0  0
  1  2  1  0  0  0
  1  5  2  0  0  0
  2  3  1  0  0  0
  2  8  1  0  0  0
  3  4  2  0  0  0
  3  6  1  0  0  0
  4  5  1  0  0  0
  4 17  1  0  0  0
 17 18  1  0  0  0
 18 19  2  0  0  0
 18 20  1  0  0  0
 20 21  2  0  0  0
 20 25  1  0  0  0
 21 22  1  0  0  0
 22 23  2  0  0  0
 22 26  1  0  0  0
 23 24  1  0  0  0
 24 25  2  0  0  0
 26 27  2  0  0  0
 26 28  1  0  0  0
  6  7  1  0  0  0
  7  8  1  0  0  0
M  CHG 1  28  -1
M  END
> <minimizedAffinity>
-10.58995

$$$$
1536


 31 34  0  0  0  0  0  0  0  0999 V2000
   18.5554   63.0164  -11.0514 S   0  0  0  0  0  0  0  0  0  0  0  0
   18.4675   64.1284  -12.1018 O   0  0  0  0  0  0  0  0  0  0  0  0
   18.7130   61.7512  -11.8983 O   0  0  0  0  0  0  0  0  0  0  0  0
   20.0194   63.3282  -10.1652 C   0  0  0  0  0  0  0  0  0  0  0  0
   19.9491   63.5331   -8.7766 C   0  0  0  0  0  0  0  0  0  0  0  0
   21.0509   63.8330   -8.0187 C   0  0  0  0  0  0  0  0  0  0  0  0
   22.2695   63.9400   -8.6150 C   0  0  0  0  0  0  0  0  0  0  0  0
   22.4000   63.7495   -9.9671 C   0  0  0  0  0  0  0  0  0  0  0  0
   21.2622   63.4434  -10.7163 C   0  0  0  0  0  0  0  0  0  0  0  0
   21.4991   63.1330  -12.4278 Cl  0  0  0  0  0  0  0  0  0  0  0  0
   23.4134   64.2604   -7.8045 N   0  0  0  0  0  0  0  0  0  0  0  0
   23.2485   64.4570   -6.4107 C   0  0  0  0  0  0  0  0  0  0  0  0
   24.2071   64.3603   -5.6166 O   0  0  0  0  0  0  0  0  0  0  0  0
   21.8838   64.7853   -5.9216 C   0  0  0  0  0  0  0  0  0  0  0  0
   20.9414   64.0309   -6.6362 O   0  0  0  0  0  0  0  0  0  0  0  0
   24.3480   64.3434   -8.2513 H   0  0  0  0  0  0  0  0  0  0  0  0
   17.1220   62.9627  -10.2299 N   0  0  0  0  0  0  0  0  0  0  0  0
   16.3652   61.8118  -10.0423 C   0  0  0  0  0  0  0  0  0  0  0  0
   15.3022   61.5336  -11.0559 C   0  0  0  0  0  0  0  0  0  0  0  0
   14.9194   62.8406  -11.7466 C   0  0  0  0  0  0  0  0  0  0  0  0
   14.8753   63.8568  -10.5938 C   0  0  0  0  0  0  0  0  0  0  0  0
   16.3309   64.1852  -10.3019 C   0  0  0  0  0  0  0  0  0  0  0  0
   13.6446   62.7469  -12.4372 C   0  0  0  0  0  0  0  0  0  0  0  0
   12.8800   61.7750  -12.2012 O   0  0  0  0  0  0  0  0  0  0  0  0
   13.2384   63.7145  -13.3617 N   0  0  0  0  0  0  0  0  0  0  0  0
   11.9416   63.6708  -14.0470 C   0  0  0  0  0  0  0  0  0  0  0  0
   11.9788   64.7598  -15.0984 C   0  0  0  0  0  0  0  0  0  0  0  0
   12.1263   66.0599  -14.4731 N   0  0  0  0  0  0  0  0  0  0  0  0
   13.3494   66.1362  -13.6940 C   0  0  0  0  0  0  0  0  0  0  0  0
   14.0937   64.8125  -13.7151 C   0  0  0  0  0  0  0  0  0  0  0  0
   12.0792   67.1186  -15.4583 C   0  0  0  0  0  0  0  0  0  0  0  0
  1  2  2  0  0  0
  1  3  2  0  0  0
  1 17  1  0  0  0
  1  4  1  0  0  0
 17 18  1  0  0  0
 17 22  1  0  0  0
 18 19  1  0  0  0
 19 20  1  0  0  0
 20 21  1  0  0  0
 20 23  1  0  0  0
 21 22  1  0  0  0
 23 24  2  0  0  0
 23 25  1  0  0  0
 25 26  1  0  0  0
 25 30  1  0  0  0
 26 27  1  0  0  0
 27 28  1  0  0  0
 28 29  1  0  0  0
 28 31  1  0  0  0
 29 30  1  0  0  0
  4  5  2  0  0  0
  4  9  1  0  0  0
  5  6  1  0  0  0
  6  7  2  0  0  0
  6 15  1  0  0  0
  7  8  1  0  0  0
  7 11  1  0  0  0
  8  9  2  0  0  0
  9 10  1  0  0  0
 11 12  1  0  0  0
 12 13  2  0  0  0
 12 14  1  0  0  0
 14 15  1  0  0  0
 11 16  1  0  0  0
M  END
> <minimizedAffinity>
-7.57942

$$$$
1539


 34 37  0  0  0  0  0  0  0  0999 V2000
   21.7811   64.0448   -7.1977 C   0  0  0  0  0  0  0  0  0  0  0  0
   22.8921   63.5723   -8.0339 N   0  0  0  0  0  0  0  0  0  0  0  0
   22.6121   64.0733   -9.3332 C   0  0  0  0  0  0  0  0  0  0  0  0
   23.4373   64.3401  -10.2221 O   0  0  0  0  0  0  0  0  0  0  0  0
   21.1613   64.2106   -9.4134 C   0  0  0  0  0  0  0  0  0  0  0  0
   20.4257   64.6182  -10.3607 O   0  0  0  0  0  0  0  0  0  0  0  0
   20.6364   63.7681   -8.1132 C   0  0  0  0  0  0  0  0  0  0  0  0
   19.4336   63.2838   -7.8728 C   0  0  0  0  0  0  0  0  0  0  0  0
   19.1015   62.9550   -6.5557 O   0  0  0  0  0  0  0  0  0  0  0  0
   22.6655   70.0152   -6.5207 Cl  0  0  0  0  0  0  0  0  0  0  0  0
   22.4062   68.2831   -6.7182 C   0  0  0  0  0  0  0  0  0  0  0  0
   23.3619   67.3654   -6.3215 C   0  0  0  0  0  0  0  0  0  0  0  0
   23.1441   66.0138   -6.4833 C   0  0  0  0  0  0  0  0  0  0  0  0
   21.9884   65.5047   -7.0360 C   0  0  0  0  0  0  0  0  0  0  0  0
   21.0324   66.4486   -7.4314 C   0  0  0  0  0  0  0  0  0  0  0  0
   21.2469   67.7981   -7.2712 C   0  0  0  0  0  0  0  0  0  0  0  0
   18.4409   63.0726   -8.9159 C   0  0  0  0  0  0  0  0  0  0  0  0
   17.5356   64.0544   -9.2839 C   0  0  0  0  0  0  0  0  0  0  0  0
   16.5791   63.8407  -10.2546 C   0  0  0  0  0  0  0  0  0  0  0  0
   16.4894   62.6180  -10.9049 C   0  0  0  0  0  0  0  0  0  0  0  0
   17.3827   61.6340  -10.5483 C   0  0  0  0  0  0  0  0  0  0  0  0
   18.3478   61.8622   -9.5627 C   0  0  0  0  0  0  0  0  0  0  0  0
   15.6325   64.9194  -10.6146 C   0  0  0  0  0  0  0  0  0  0  0  0
   15.5304   62.3867  -11.8875 O   0  0  0  0  0  0  0  0  0  0  0  0
   14.2642   61.9254  -11.5073 C   0  0  0  0  0  0  0  0  0  0  0  0
   24.0358   62.7650   -7.6078 C   0  0  0  0  0  0  0  0  0  0  0  0
   24.5833   63.4195   -6.3606 C   0  0  0  0  0  0  0  0  0  0  0  0
   24.6534   62.5129   -5.2465 N   0  0  0  0  0  0  0  0  0  0  0  0
   24.1091   63.1061   -4.0687 C   0  0  0  0  0  0  0  0  0  0  0  0
   25.0909   63.7323   -3.1354 C   0  0  0  0  0  0  0  0  0  0  0  0
   26.3208   63.1331   -3.0920 O   0  0  0  0  0  0  0  0  0  0  0  0
   26.8999   62.9768   -4.3445 C   0  0  0  0  0  0  0  0  0  0  0  0
   26.0061   62.0465   -5.1222 C   0  0  0  0  0  0  0  0  0  0  0  0
   24.0296   61.6968   -5.5064 H   0  0  0  0  0  0  0  0  0  0  0  0
 10 11  1  0  0  0
 11 12  2  0  0  0
 11 16  1  0  0  0
 12 13  1  0  0  0
 13 14  2  0  0  0
 14 15  1  0  0  0
 14  1  1  0  0  0
 15 16  2  0  0  0
  1  2  1  0  0  0
  1  7  1  0  0  0
  2  3  1  0  0  0
  2 26  1  0  0  0
  3  4  2  0  0  0
  3  5  1  0  0  0
  5  6  2  0  0  0
  5  7  1  0  0  0
  7  8  2  0  0  0
  8  9  1  0  0  0
  8 17  1  0  0  0
 17 18  2  0  0  0
 17 22  1  0  0  0
 18 19  1  0  0  0
 19 20  2  0  0  0
 19 23  1  0  0  0
 20 21  1  0  0  0
 20 24  1  0  0  0
 21 22  2  0  0  0
 24 25  1  0  0  0
 26 27  1  0  0  0
 27 28  1  0  0  0
 28 29  1  0  0  0
 28 33  1  0  0  0
 29 30  1  0  0  0
 30 31  1  0  0  0
 31 32  1  0  0  0
 32 33  1  0  0  0
 28 34  1  0  0  0
M  CHG 1   9  -1
M  CHG 1  28   1
M  END
> <minimizedAffinity>
-6.95359

$$$$
1548


 24 27  0  0  0  0  0  0  0  0999 V2000
   10.3533   62.8622  -16.5371 Cl  0  0  0  0  0  0  0  0  0  0  0  0
   11.4978   63.6023  -15.4275 C   0  0  0  0  0  0  0  0  0  0  0  0
   12.0941   62.8931  -14.4078 C   0  0  0  0  0  0  0  0  0  0  0  0
   12.9826   63.4707  -13.5468 N   0  0  0  0  0  0  0  0  0  0  0  0
   13.3212   64.7684  -13.6544 C   0  0  0  0  0  0  0  0  0  0  0  0
   14.2035   65.3445  -12.8000 N   0  0  0  0  0  0  0  0  0  0  0  0
   14.7840   64.6430  -11.8031 C   0  0  0  0  0  0  0  0  0  0  0  0
   14.4636   63.3238  -11.6652 C   0  0  0  0  0  0  0  0  0  0  0  0
   15.0789   62.4982  -10.5766 C   0  0  0  0  0  0  0  0  0  0  0  0
   16.3797   63.1360  -10.3091 N   0  0  0  0  0  0  0  0  0  0  0  0
   16.2792   64.4894   -9.8420 C   0  0  0  0  0  0  0  0  0  0  0  0
   15.7334   65.3898  -10.9363 C   0  0  0  0  0  0  0  0  0  0  0  0
   17.5289   62.3832  -10.5320 C   0  0  0  0  0  0  0  0  0  0  0  0
   17.4011   61.1798  -10.9487 O   0  0  0  0  0  0  0  0  0  0  0  0
   13.5570   62.7654  -12.5560 C   0  0  0  0  0  0  0  0  0  0  0  0
   13.2581   61.5608  -12.4378 O   0  0  0  0  0  0  0  0  0  0  0  0
   12.7256   65.4897  -14.6778 C   0  0  0  0  0  0  0  0  0  0  0  0
   11.8253   64.9342  -15.5617 C   0  0  0  0  0  0  0  0  0  0  0  0
   18.9084   62.8427  -10.3317 C   0  0  0  0  0  0  0  0  0  0  0  0
   19.4378   63.0106   -9.1166 N   0  0  0  0  0  0  0  0  0  0  0  0
   20.6950   63.4295   -8.9435 C   0  0  0  0  0  0  0  0  0  0  0  0
   21.5200   63.7135  -10.0120 C   0  0  0  0  0  0  0  0  0  0  0  0
   20.9709   63.5387  -11.2266 N   0  0  0  0  0  0  0  0  0  0  0  0
   19.7200   63.1226  -11.4260 C   0  0  0  0  0  0  0  0  0  0  0  0
  1  2  1  0  0  0
  2  3  2  0  0  0
  2 18  1  0  0  0
  3  4  1  0  0  0
  4  5  1  0  0  0
  4 15  1  0  0  0
  5  6  2  0  0  0
  5 17  1  0  0  0
  6  7  1  0  0  0
  7  8  2  0  0  0
  7 12  1  0  0  0
  8  9  1  0  0  0
  8 15  1  0  0  0
  9 10  1  0  0  0
 10 11  1  0  0  0
 10 13  1  0  0  0
 11 12  1  0  0  0
 13 14  2  0  0  0
 13 19  1  0  0  0
 19 20  2  0  0  0
 19 24  1  0  0  0
 20 21  1  0  0  0
 21 22  2  0  0  0
 22 23  1  0  0  0
 23 24  2  0  0  0
 15 16  2  0  0  0
 17 18  2  0  0  0
M  END
> <minimizedAffinity>
-7.04699

$$$$
1553


 29 32  0  0  0  0  0  0  0  0999 V2000
   21.8644   63.8066   -7.3220 C   0  0  0  0  0  0  0  0  0  0  0  0
   22.9171   63.0440   -6.7654 N   0  0  0  0  0  0  0  0  0  0  0  0
   23.7751   63.7084   -5.8283 C   0  0  0  0  0  0  0  0  0  0  0  0
   24.3292   64.9877   -6.4781 C   0  0  0  0  0  0  0  0  0  0  0  0
   23.1317   65.8241   -6.6858 C   0  0  0  0  0  0  0  0  0  0  0  0
   22.9256   67.1864   -6.5390 C   0  0  0  0  0  0  0  0  0  0  0  0
   21.6066   67.4180   -6.8602 C   0  0  0  0  0  0  0  0  0  0  0  0
   21.0155   66.2597   -7.1913 N   0  0  0  0  0  0  0  0  0  0  0  0
   21.9575   65.2657   -7.0847 C   0  0  0  0  0  0  0  0  0  0  0  0
   21.1445   68.7197   -6.7894 C   0  0  0  0  0  0  0  0  0  0  0  0
   22.0114   69.7131   -6.4073 C   0  0  0  0  0  0  0  0  0  0  0  0
   23.3294   69.4786   -6.0866 C   0  0  0  0  0  0  0  0  0  0  0  0
   23.8084   68.1721   -6.1534 C   0  0  0  0  0  0  0  0  0  0  0  0
   22.4765   62.2177   -6.2478 H   0  0  0  0  0  0  0  0  0  0  0  0
   23.5472   62.5935   -7.4756 H   0  0  0  0  0  0  0  0  0  0  0  0
   20.0207   66.0833   -7.4868 H   0  0  0  0  0  0  0  0  0  0  0  0
   19.0468   63.1470  -11.8833 Br  0  0  0  0  0  0  0  0  0  0  0  0
   20.6886   63.3205  -10.9170 C   0  0  0  0  0  0  0  0  0  0  0  0
   20.6719   63.4904   -9.5289 C   0  0  0  0  0  0  0  0  0  0  0  0
   21.8524   63.6138   -8.8182 C   0  0  0  0  0  0  0  0  0  0  0  0
   23.0363   63.5628   -9.5252 C   0  0  0  0  0  0  0  0  0  0  0  0
   23.0440   63.3930  -10.9037 C   0  0  0  0  0  0  0  0  0  0  0  0
   21.8686   63.2704  -11.6076 C   0  0  0  0  0  0  0  0  0  0  0  0
   24.7262   63.3257  -11.8387 Br  0  0  0  0  0  0  0  0  0  0  0  0
   19.4360   63.5249   -8.9388 O   0  0  0  0  0  0  0  0  0  0  0  0
   19.2425   63.6311   -7.9808 H   0  0  0  0  0  0  0  0  0  0  0  0
   24.8731   62.8059   -5.4269 C   0  0  0  0  0  0  0  0  0  0  0  0
   25.9284   62.7874   -6.1119 O   0  0  0  0  0  0  0  0  0  0  0  0
   24.7212   62.0000   -4.3108 O   0  0  0  0  0  0  0  0  0  0  0  0
 17 18  1  0  0  0
 18 19  2  0  0  0
 18 23  1  0  0  0
 19 20  1  0  0  0
 19 25  1  0  0  0
 20 21  2  0  0  0
 20  1  1  0  0  0
 21 22  1  0  0  0
 22 23  2  0  0  0
 22 24  1  0  0  0
  1  2  1  0  0  0
  1  9  1  0  0  0
  2  3  1  0  0  0
  3  4  1  0  0  0
  3 27  1  0  0  0
  4  5  1  0  0  0
  5  6  1  0  0  0
  5  9  2  0  0  0
  6  7  2  0  0  0
  6 13  1  0  0  0
  7  8  1  0  0  0
  7 10  1  0  0  0
  8  9  1  0  0  0
 10 11  2  0  0  0
 11 12  1  0  0  0
 12 13  2  0  0  0
 27 28  2  0  0  0
 27 29  1  0  0  0
  2 14  1  0  0  0
  2 15  1  0  0  0
  8 16  1  0  0  0
 25 26  1  0  0  0
M  CHG 1   2   1
M  END
> <minimizedAffinity>
-6.58188

$$$$
1571


 28 31  0  0  0  0  0  0  0  0999 V2000
   21.3982   63.5349  -10.8013 O   0  0  0  0  0  0  0  0  0  0  0  0
   21.1313   62.9991  -12.0400 C   0  0  0  0  0  0  0  0  0  0  0  0
   22.0209   63.1743  -12.9206 O   0  0  0  0  0  0  0  0  0  0  0  0
   19.8790   62.2557  -12.3437 C   0  0  0  0  0  0  0  0  0  0  0  0
   18.8493   62.5044  -11.3333 N   0  0  0  0  0  0  0  0  0  0  0  0
   18.0196   63.6564  -11.2101 C   0  0  0  0  0  0  0  0  0  0  0  0
   17.9021   64.5817  -12.0517 O   0  0  0  0  0  0  0  0  0  0  0  0
   17.3152   63.5706   -9.9097 C   0  0  0  0  0  0  0  0  0  0  0  0
   17.1872   62.0720   -9.7663 C   0  0  0  0  0  0  0  0  0  0  0  0
   16.0999   61.4862  -10.6460 C   0  0  0  0  0  0  0  0  0  0  0  0
   15.2655   62.5359  -11.3310 C   0  0  0  0  0  0  0  0  0  0  0  0
   14.8454   63.6090  -10.3670 C   0  0  0  0  0  0  0  0  0  0  0  0
   16.0448   64.3149   -9.8424 C   0  0  0  0  0  0  0  0  0  0  0  0
   18.5035   61.6252  -10.2774 C   0  0  0  0  0  0  0  0  0  0  0  0
   19.2056   60.6488   -9.8667 O   0  0  0  0  0  0  0  0  0  0  0  0
   22.6378   64.0296  -10.3782 C   0  0  0  0  0  0  0  0  0  0  0  0
   24.4263   63.3541   -2.2689 Br  0  0  0  0  0  0  0  0  0  0  0  0
   24.2387   63.3599   -4.1869 C   0  0  0  0  0  0  0  0  0  0  0  0
   23.1874   64.0052   -4.7935 C   0  0  0  0  0  0  0  0  0  0  0  0
   23.0292   64.0275   -6.1243 N   0  0  0  0  0  0  0  0  0  0  0  0
   23.9166   63.4050   -6.9413 C   0  0  0  0  0  0  0  0  0  0  0  0
   23.8046   63.3993   -8.2716 N   0  0  0  0  0  0  0  0  0  0  0  0
   22.7887   64.0189   -8.9037 C   0  0  0  0  0  0  0  0  0  0  0  0
   21.8660   64.6630   -8.1056 C   0  0  0  0  0  0  0  0  0  0  0  0
   21.9932   64.6619   -6.7308 C   0  0  0  0  0  0  0  0  0  0  0  0
   21.1724   65.2390   -5.9645 O   0  0  0  0  0  0  0  0  0  0  0  0
   24.9965   62.7408   -6.3633 C   0  0  0  0  0  0  0  0  0  0  0  0
   25.1479   62.7242   -4.9931 C   0  0  0  0  0  0  0  0  0  0  0  0
 17 18  1  0  0  0
 18 19  2  0  0  0
 18 28  1  0  0  0
 19 20  1  0  0  0
 20 21  1  0  0  0
 20 25  1  0  0  0
 21 22  2  0  0  0
 21 27  1  0  0  0
 22 23  1  0  0  0
 23 24  2  0  0  0
 23 16  1  0  0  0
 24 25  1  0  0  0
 25 26  2  0  0  0
 16  1  1  0  0  0
  1  2  1  0  0  0
  2  3  2  0  0  0
  2  4  1  0  0  0
  4  5  1  0  0  0
  5  6  1  0  0  0
  5 14  1  0  0  0
  6  7  2  0  0  0
  6  8  1  0  0  0
  8  9  1  0  0  0
  8 13  1  0  0  0
  9 10  1  0  0  0
  9 14  1  0  0  0
 10 11  1  0  0  0
 11 12  1  0  0  0
 12 13  1  0  0  0
 14 15  2  0  0  0
 27 28  2  0  0  0
M  END
> <minimizedAffinity>
-9.16478

$$$$
1576


 30 33  0  0  0  0  0  0  0  0999 V2000
   17.7328   62.4211  -10.6854 N   0  0  0  0  0  0  0  0  0  0  0  0
   18.7809   62.4572  -11.6824 C   0  0  0  0  0  0  0  0  0  0  0  0
   20.1293   62.4454  -10.9664 C   0  0  0  0  0  0  0  0  0  0  0  0
   20.0616   63.3055   -9.7958 N   0  0  0  0  0  0  0  0  0  0  0  0
   19.0553   63.0308   -8.7971 C   0  0  0  0  0  0  0  0  0  0  0  0
   18.1324   61.9680   -9.3440 C   0  0  0  0  0  0  0  0  0  0  0  0
   20.9568   64.3968   -9.6176 C   0  0  0  0  0  0  0  0  0  0  0  0
   21.8328   64.6064  -10.5133 O   0  0  0  0  0  0  0  0  0  0  0  0
   15.6700   60.2066  -10.6815 Cl  0  0  0  0  0  0  0  0  0  0  0  0
   15.3453   61.8869  -10.9123 C   0  0  0  0  0  0  0  0  0  0  0  0
   16.3979   62.7764  -10.8883 C   0  0  0  0  0  0  0  0  0  0  0  0
   16.0677   64.1157  -11.0827 C   0  0  0  0  0  0  0  0  0  0  0  0
   14.7617   64.5162  -11.2853 C   0  0  0  0  0  0  0  0  0  0  0  0
   13.7474   63.5954  -11.3006 C   0  0  0  0  0  0  0  0  0  0  0  0
   14.0367   62.2800  -11.1144 C   0  0  0  0  0  0  0  0  0  0  0  0
   20.9334   65.2987   -8.4603 C   0  0  0  0  0  0  0  0  0  0  0  0
   22.0383   65.0791   -7.5289 N   0  0  0  0  0  0  0  0  0  0  0  0
   22.7388   63.9853   -7.3056 N   0  0  0  0  0  0  0  0  0  0  0  0
   23.6818   64.1530   -6.3760 C   0  0  0  0  0  0  0  0  0  0  0  0
   23.5852   65.4689   -5.9610 C   0  0  0  0  0  0  0  0  0  0  0  0
   22.5572   66.0202   -6.6927 C   0  0  0  0  0  0  0  0  0  0  0  0
   22.0968   67.4199   -6.5785 C   0  0  0  0  0  0  0  0  0  0  0  0
   24.6366   63.1396   -5.8911 C   0  0  0  0  0  0  0  0  0  0  0  0
   25.2287   62.3985   -6.7010 O   0  0  0  0  0  0  0  0  0  0  0  0
   24.8667   63.0280   -4.5024 N   0  0  0  0  0  0  0  0  0  0  0  0
   24.2226   63.8462   -3.5141 C   0  0  0  0  0  0  0  0  0  0  0  0
   24.6469   63.2885   -2.1497 C   0  0  0  0  0  0  0  0  0  0  0  0
   24.3981   61.9363   -2.0661 O   0  0  0  0  0  0  0  0  0  0  0  0
   25.0898   61.1796   -2.9820 C   0  0  0  0  0  0  0  0  0  0  0  0
   25.8149   62.0253   -4.0079 C   0  0  0  0  0  0  0  0  0  0  0  0
  9 10  1  0  0  0
 10 11  2  0  0  0
 10 15  1  0  0  0
 11 12  1  0  0  0
 11  1  1  0  0  0
 12 13  2  0  0  0
 13 14  1  0  0  0
 14 15  2  0  0  0
  1  2  1  0  0  0
  1  6  1  0  0  0
  2  3  1  0  0  0
  3  4  1  0  0  0
  4  5  1  0  0  0
  4  7  1  0  0  0
  5  6  1  0  0  0
  7  8  2  0  0  0
  7 16  1  0  0  0
 16 17  1  0  0  0
 17 18  1  0  0  0
 17 21  1  0  0  0
 18 19  2  0  0  0
 19 20  1  0  0  0
 19 23  1  0  0  0
 20 21  2  0  0  0
 21 22  1  0  0  0
 23 24  2  0  0  0
 23 25  1  0  0  0
 25 26  1  0  0  0
 25 30  1  0  0  0
 26 27  1  0  0  0
 27 28  1  0  0  0
 28 29  1  0  0  0
 29 30  1  0  0  0
M  END
> <minimizedAffinity>
-8.50914

$$$$
1581


 27 30  0  0  0  0  0  0  0  0999 V2000
   21.8116   63.4520   -8.0119 N   0  0  0  0  0  0  0  0  0  0  0  0
   23.1402   63.2876   -7.5914 C   0  0  0  0  0  0  0  0  0  0  0  0
   23.9326   64.5420   -7.4281 C   0  0  0  0  0  0  0  0  0  0  0  0
   23.0917   65.6829   -7.0958 N   0  0  0  0  0  0  0  0  0  0  0  0
   23.5132   66.9180   -6.8284 N   0  0  0  0  0  0  0  0  0  0  0  0
   22.4586   67.6962   -6.5684 C   0  0  0  0  0  0  0  0  0  0  0  0
   21.3410   66.9080   -6.6806 C   0  0  0  0  0  0  0  0  0  0  0  0
   21.7535   65.6155   -7.0194 C   0  0  0  0  0  0  0  0  0  0  0  0
   21.0079   64.3569   -7.2702 C   0  0  0  0  0  0  0  0  0  0  0  0
   22.4999   69.1512   -6.2219 C   0  0  0  0  0  0  0  0  0  0  0  0
   21.5637   69.3727   -5.1986 O   0  0  0  0  0  0  0  0  0  0  0  0
   21.2023   68.5039   -4.8580 H   0  0  0  0  0  0  0  0  0  0  0  0
   23.8588   69.5065   -5.6240 C   0  0  0  0  0  0  0  0  0  0  0  0
   24.5176   70.5462   -6.5183 C   0  0  0  0  0  0  0  0  0  0  0  0
   21.5127   63.2920   -9.3735 C   0  0  0  0  0  0  0  0  0  0  0  0
   13.7342   62.2537  -11.4134 Cl  0  0  0  0  0  0  0  0  0  0  0  0
   15.3812   62.7341  -11.0308 C   0  0  0  0  0  0  0  0  0  0  0  0
   16.2477   61.7573  -10.5955 C   0  0  0  0  0  0  0  0  0  0  0  0
   17.5180   62.1318  -10.3012 N   0  0  0  0  0  0  0  0  0  0  0  0
   17.9357   63.4018  -10.4239 C   0  0  0  0  0  0  0  0  0  0  0  0
   19.1943   63.7815  -10.1349 N   0  0  0  0  0  0  0  0  0  0  0  0
   20.1299   62.9177   -9.7009 C   0  0  0  0  0  0  0  0  0  0  0  0
   19.7005   61.6082   -9.5739 C   0  0  0  0  0  0  0  0  0  0  0  0
   18.4133   61.2207   -9.8693 C   0  0  0  0  0  0  0  0  0  0  0  0
   18.0629   60.0069   -9.7383 O   0  0  0  0  0  0  0  0  0  0  0  0
   17.0599   64.3983  -10.8666 C   0  0  0  0  0  0  0  0  0  0  0  0
   15.7674   64.0510  -11.1719 C   0  0  0  0  0  0  0  0  0  0  0  0
 16 17  1  0  0  0
 17 18  2  0  0  0
 17 27  1  0  0  0
 18 19  1  0  0  0
 19 20  1  0  0  0
 19 24  1  0  0  0
 20 21  2  0  0  0
 20 26  1  0  0  0
 21 22  1  0  0  0
 22 23  2  0  0  0
 22 15  1  0  0  0
 23 24  1  0  0  0
 24 25  2  0  0  0
 15  1  1  0  0  0
  1  2  1  0  0  0
  1  9  1  0  0  0
  2  3  1  0  0  0
  3  4  1  0  0  0
  4  5  1  0  0  0
  4  8  1  0  0  0
  5  6  2  0  0  0
  6  7  1  0  0  0
  6 10  1  0  0  0
  7  8  2  0  0  0
  8  9  1  0  0  0
 10 11  1  0  0  0
 10 13  1  0  0  0
 13 14  1  0  0  0
 26 27  2  0  0  0
 11 12  1  0  0  0
M  END
> <minimizedAffinity>
-9.30744

$$$$
1586


 29 32  0  0  0  0  0  0  0  0999 V2000
   12.9732   64.4848  -14.0160 C   0  0  0  0  0  0  0  0  0  0  0  0
   11.9417   63.7647  -14.4274 O   0  0  0  0  0  0  0  0  0  0  0  0
   13.5936   64.0387  -12.8373 N   0  0  0  0  0  0  0  0  0  0  0  0
   14.6946   64.6778  -12.2093 C   0  0  0  0  0  0  0  0  0  0  0  0
   14.9343   64.0223  -10.8385 C   0  0  0  0  0  0  0  0  0  0  0  0
   15.1756   62.6297  -11.1145 N   0  0  0  0  0  0  0  0  0  0  0  0
   14.1337   61.8959  -11.7510 C   0  0  0  0  0  0  0  0  0  0  0  0
   13.0408   62.8167  -12.2536 C   0  0  0  0  0  0  0  0  0  0  0  0
   16.3956   62.0245  -10.7673 C   0  0  0  0  0  0  0  0  0  0  0  0
   16.4427   60.7866  -10.6559 O   0  0  0  0  0  0  0  0  0  0  0  0
   17.5797   62.8804  -10.5475 C   0  0  0  0  0  0  0  0  0  0  0  0
   17.1605   63.9603   -9.7034 N   0  0  0  0  0  0  0  0  0  0  0  0
   15.9976   64.6770  -10.0788 C   0  0  0  0  0  0  0  0  0  0  0  0
   15.8408   65.8998   -9.7697 O   0  0  0  0  0  0  0  0  0  0  0  0
   17.6804   64.2324   -8.8325 H   0  0  0  0  0  0  0  0  0  0  0  0
   13.9047   69.3768  -17.4332 Cl  0  0  0  0  0  0  0  0  0  0  0  0
   13.6582   67.9203  -16.4581 C   0  0  0  0  0  0  0  0  0  0  0  0
   14.4729   66.8434  -16.5934 C   0  0  0  0  0  0  0  0  0  0  0  0
   14.2519   65.7103  -15.8095 C   0  0  0  0  0  0  0  0  0  0  0  0
   13.2452   65.5978  -14.8826 C   0  0  0  0  0  0  0  0  0  0  0  0
   12.4332   66.7417  -14.7867 C   0  0  0  0  0  0  0  0  0  0  0  0
   12.6320   67.8724  -15.5508 C   0  0  0  0  0  0  0  0  0  0  0  0
   18.7791   62.1464  -10.0835 C   0  0  0  0  0  0  0  0  0  0  0  0
   19.8790   63.0888   -9.8212 C   0  0  0  0  0  0  0  0  0  0  0  0
   20.3472   63.5191   -8.6473 N   0  0  0  0  0  0  0  0  0  0  0  0
   21.3771   64.3888   -8.8654 C   0  0  0  0  0  0  0  0  0  0  0  0
   21.5610   64.5107  -10.1817 N   0  0  0  0  0  0  0  0  0  0  0  0
   20.6601   63.7284  -10.7849 C   0  0  0  0  0  0  0  0  0  0  0  0
   22.2604   65.0944  -10.6484 H   0  0  0  0  0  0  0  0  0  0  0  0
 16 17  1  0  0  0
 17 18  2  0  0  0
 17 22  1  0  0  0
 18 19  1  0  0  0
 19 20  2  0  0  0
 20 21  1  0  0  0
 20  1  1  0  0  0
 21 22  2  0  0  0
  1  2  2  0  0  0
  1  3  1  0  0  0
  3  4  1  0  0  0
  3  8  1  0  0  0
  4  5  1  0  0  0
  5  6  1  0  0  0
  5 13  1  0  0  0
  6  7  1  0  0  0
  6  9  1  0  0  0
  7  8  1  0  0  0
  9 10  2  0  0  0
  9 11  1  0  0  0
 11 12  1  0  0  0
 11 23  1  0  0  0
 12 13  1  0  0  0
 13 14  2  0  0  0
 23 24  1  0  0  0
 24 25  1  0  0  0
 24 28  2  0  0  0
 25 26  2  0  0  0
 26 27  1  0  0  0
 27 28  1  0  0  0
 12 15  1  0  0  0
 27 29  1  0  0  0
M  END
> <minimizedAffinity>
-8.00916

$$$$
1591


 26 29  0  0  0  0  0  0  0  0999 V2000
   21.7994   63.4011  -11.8926 Cl  0  0  0  0  0  0  0  0  0  0  0  0
   20.5861   63.2590  -10.6405 C   0  0  0  0  0  0  0  0  0  0  0  0
   20.9029   63.5327   -9.3400 C   0  0  0  0  0  0  0  0  0  0  0  0
   19.8587   63.3711   -8.4252 C   0  0  0  0  0  0  0  0  0  0  0  0
   18.6429   62.9742   -8.8322 N   0  0  0  0  0  0  0  0  0  0  0  0
   18.3175   62.7063  -10.0768 N   0  0  0  0  0  0  0  0  0  0  0  0
   19.2881   62.8478  -10.9890 C   0  0  0  0  0  0  0  0  0  0  0  0
   19.0748   62.6158  -12.2063 O   0  0  0  0  0  0  0  0  0  0  0  0
   17.0006   62.2900  -10.4239 C   0  0  0  0  0  0  0  0  0  0  0  0
   16.6237   60.9623  -10.4611 C   0  0  0  0  0  0  0  0  0  0  0  0
   15.3457   60.5703  -10.7977 C   0  0  0  0  0  0  0  0  0  0  0  0
   14.3840   61.5084  -11.1155 C   0  0  0  0  0  0  0  0  0  0  0  0
   14.7541   62.8362  -11.0797 C   0  0  0  0  0  0  0  0  0  0  0  0
   16.0365   63.2246  -10.7414 C   0  0  0  0  0  0  0  0  0  0  0  0
   22.1817   63.9722   -8.9233 N   0  0  0  0  0  0  0  0  0  0  0  0
   23.4097   63.2895   -9.2953 C   0  0  0  0  0  0  0  0  0  0  0  0
   24.1256   62.7363   -8.0903 C   0  0  0  0  0  0  0  0  0  0  0  0
   24.0217   63.7314   -7.0513 N   0  0  0  0  0  0  0  0  0  0  0  0
   23.7913   65.0970   -7.4453 C   0  0  0  0  0  0  0  0  0  0  0  0
   22.3758   65.1336   -8.0620 C   0  0  0  0  0  0  0  0  0  0  0  0
   24.1429   63.3818   -5.6849 C   0  0  0  0  0  0  0  0  0  0  0  0
   23.4943   63.9455   -4.6255 N   0  0  0  0  0  0  0  0  0  0  0  0
   23.8722   63.3457   -3.5144 N   0  0  0  0  0  0  0  0  0  0  0  0
   24.7519   62.4069   -3.8393 C   0  0  0  0  0  0  0  0  0  0  0  0
   24.8973   62.4471   -5.1378 O   0  0  0  0  0  0  0  0  0  0  0  0
   25.4796   61.4489   -2.9453 C   0  0  0  0  0  0  0  0  0  0  0  0
  1  2  1  0  0  0
  2  3  2  0  0  0
  2  7  1  0  0  0
  3  4  1  0  0  0
  3 15  1  0  0  0
  4  5  2  0  0  0
  5  6  1  0  0  0
  6  7  1  0  0  0
  6  9  1  0  0  0
  7  8  2  0  0  0
  9 10  2  0  0  0
  9 14  1  0  0  0
 10 11  1  0  0  0
 11 12  2  0  0  0
 12 13  1  0  0  0
 13 14  2  0  0  0
 15 16  1  0  0  0
 15 20  1  0  0  0
 16 17  1  0  0  0
 17 18  1  0  0  0
 18 19  1  0  0  0
 18 21  1  0  0  0
 19 20  1  0  0  0
 21 22  2  0  0  0
 21 25  1  0  0  0
 22 23  1  0  0  0
 23 24  2  0  0  0
 24 25  1  0  0  0
 24 26  1  0  0  0
M  END
> <minimizedAffinity>
-9.54508

$$$$
1594


 27 30  0  0  0  0  0  0  0  0999 V2000
   21.9581   63.4755   -9.0740 C   0  0  0  0  0  0  0  0  0  0  0  0
   22.8894   62.9099   -9.7571 O   0  0  0  0  0  0  0  0  0  0  0  0
   22.3630   64.3076   -8.0483 N   0  0  0  0  0  0  0  0  0  0  0  0
   21.4546   65.0273   -7.1883 C   0  0  0  0  0  0  0  0  0  0  0  0
   21.4916   64.4752   -5.7790 C   0  0  0  0  0  0  0  0  0  0  0  0
   22.8995   64.0807   -5.4354 C   0  0  0  0  0  0  0  0  0  0  0  0
   23.9513   64.1003   -6.3099 C   0  0  0  0  0  0  0  0  0  0  0  0
   25.0248   63.6742   -5.5950 N   0  0  0  0  0  0  0  0  0  0  0  0
   24.6842   63.4019   -4.3559 N   0  0  0  0  0  0  0  0  0  0  0  0
   23.3757   63.6342   -4.1928 C   0  0  0  0  0  0  0  0  0  0  0  0
   22.6739   63.4907   -3.1405 O   0  0  0  0  0  0  0  0  0  0  0  0
   23.7945   64.5292   -7.7296 C   0  0  0  0  0  0  0  0  0  0  0  0
   25.9781   63.5913   -6.0239 H   0  0  0  0  0  0  0  0  0  0  0  0
   14.6765   63.4735  -11.2541 Cl  0  0  0  0  0  0  0  0  0  0  0  0
   16.2724   62.9720  -10.7277 C   0  0  0  0  0  0  0  0  0  0  0  0
   17.2694   63.8977  -10.5195 C   0  0  0  0  0  0  0  0  0  0  0  0
   18.4968   63.4721  -10.1106 N   0  0  0  0  0  0  0  0  0  0  0  0
   18.7109   62.1659   -9.9186 C   0  0  0  0  0  0  0  0  0  0  0  0
   19.9813   61.9906   -9.5216 N   0  0  0  0  0  0  0  0  0  0  0  0
   20.5887   63.1755   -9.4551 C   0  0  0  0  0  0  0  0  0  0  0  0
   19.6312   64.1293   -9.8350 C   0  0  0  0  0  0  0  0  0  0  0  0
   17.7116   61.1986  -10.1233 C   0  0  0  0  0  0  0  0  0  0  0  0
   16.4835   61.6181  -10.5316 C   0  0  0  0  0  0  0  0  0  0  0  0
   25.5487   62.9164   -3.2705 C   0  0  0  0  0  0  0  0  0  0  0  0
   25.7864   61.4295   -3.3987 C   0  0  0  0  0  0  0  0  0  0  0  0
   26.6445   61.1218   -4.4476 O   0  0  0  0  0  0  0  0  0  0  0  0
   26.3767   60.2768   -4.9178 H   0  0  0  0  0  0  0  0  0  0  0  0
 14 15  1  0  0  0
 15 16  2  0  0  0
 15 23  1  0  0  0
 16 17  1  0  0  0
 17 18  1  0  0  0
 17 21  1  0  0  0
 18 19  2  0  0  0
 18 22  1  0  0  0
 19 20  1  0  0  0
 20 21  2  0  0  0
 20  1  1  0  0  0
  1  2  2  0  0  0
  1  3  1  0  0  0
  3  4  1  0  0  0
  3 12  1  0  0  0
  4  5  1  0  0  0
  5  6  1  0  0  0
  6  7  2  0  0  0
  6 10  1  0  0  0
  7  8  1  0  0  0
  7 12  1  0  0  0
  8  9  1  0  0  0
  9 10  1  0  0  0
  9 24  1  0  0  0
 10 11  2  0  0  0
 24 25  1  0  0  0
 25 26  1  0  0  0
 22 23  2  0  0  0
  8 13  1  0  0  0
 26 27  1  0  0  0
M  END
> <minimizedAffinity>
-9.84076

$$$$
1599


 30 33  0  0  0  0  0  0  0  0999 V2000
   13.4713   65.5016  -14.5115 C   0  0  0  0  0  0  0  0  0  0  0  0
   14.7232   65.4244  -14.2494 O   0  0  0  0  0  0  0  0  0  0  0  0
   13.0078   66.0914  -15.6951 N   0  0  0  0  0  0  0  0  0  0  0  0
   11.6211   66.1988  -16.0184 C   0  0  0  0  0  0  0  0  0  0  0  0
   11.2915   67.4711  -16.7465 C   0  0  0  0  0  0  0  0  0  0  0  0
   12.2921   68.5898  -16.5559 C   0  0  0  0  0  0  0  0  0  0  0  0
   11.9156   69.5670  -17.5683 N   0  0  0  0  0  0  0  0  0  0  0  0
   12.5552   70.8242  -17.4888 C   0  0  0  0  0  0  0  0  0  0  0  0
   13.2136   71.1904  -16.2095 C   0  0  0  0  0  0  0  0  0  0  0  0
   12.5728   70.5089  -15.0419 C   0  0  0  0  0  0  0  0  0  0  0  0
   12.3398   70.9140  -13.7942 N   0  0  0  0  0  0  0  0  0  0  0  0
   11.7318   69.8782  -13.1788 C   0  0  0  0  0  0  0  0  0  0  0  0
   11.5905   68.8424  -14.0347 N   0  0  0  0  0  0  0  0  0  0  0  0
   12.1231   69.2268  -15.2307 C   0  0  0  0  0  0  0  0  0  0  0  0
   13.7260   68.1652  -16.7431 C   0  0  0  0  0  0  0  0  0  0  0  0
   13.9244   66.6619  -16.6757 C   0  0  0  0  0  0  0  0  0  0  0  0
   12.1272   69.0763  -18.4843 H   0  0  0  0  0  0  0  0  0  0  0  0
   11.1575   67.9304  -13.8122 H   0  0  0  0  0  0  0  0  0  0  0  0
   12.5737   64.9138  -13.4527 C   0  0  0  0  0  0  0  0  0  0  0  0
   13.8054   62.9150  -12.1017 C   0  0  0  0  0  0  0  0  0  0  0  0
   13.4875   61.6750  -12.0438 O   0  0  0  0  0  0  0  0  0  0  0  0
   13.2039   63.8912  -12.7613 N   0  0  0  0  0  0  0  0  0  0  0  0
   12.2488   63.0057  -13.2280 H   0  0  0  0  0  0  0  0  0  0  0  0
   18.4158   61.3102   -9.9409 Br  0  0  0  0  0  0  0  0  0  0  0  0
   17.1055   62.6289  -10.2649 C   0  0  0  0  0  0  0  0  0  0  0  0
   15.9974   62.3158  -11.0372 C   0  0  0  0  0  0  0  0  0  0  0  0
   15.0312   63.2518  -11.2946 C   0  0  0  0  0  0  0  0  0  0  0  0
   15.1036   64.5244  -10.8131 C   0  0  0  0  0  0  0  0  0  0  0  0
   16.2176   64.8481  -10.0325 C   0  0  0  0  0  0  0  0  0  0  0  0
   17.1946   63.9063   -9.7696 C   0  0  0  0  0  0  0  0  0  0  0  0
 24 25  1  0  0  0
 25 26  2  0  0  0
 25 30  1  0  0  0
 26 27  1  0  0  0
 27 28  2  0  0  0
 27 20  1  0  0  0
 28 29  1  0  0  0
 29 30  2  0  0  0
 20 21  2  0  0  0
 20 22  1  0  0  0
 22 19  1  0  0  0
 19  1  1  0  0  0
  1  2  2  0  0  0
  1  3  1  0  0  0
  3  4  1  0  0  0
  3 16  1  0  0  0
  4  5  1  0  0  0
  5  6  1  0  0  0
  6  7  1  0  0  0
  6 14  1  0  0  0
  6 15  1  0  0  0
  7  8  1  0  0  0
  8  9  1  0  0  0
  9 10  1  0  0  0
 10 11  1  0  0  0
 10 14  2  0  0  0
 11 12  2  0  0  0
 12 13  1  0  0  0
 13 14  1  0  0  0
 15 16  1  0  0  0
 22 23  1  0  0  0
  7 17  1  0  0  0
 13 18  1  0  0  0
M  END
> <minimizedAffinity>
-8.13960

$$$$
1609


 26 29  0  0  0  0  0  0  0  0999 V2000
   20.5002   62.9638  -10.1052 N   0  0  0  0  0  0  0  0  0  0  0  0
   20.3296   63.6625   -8.8592 C   0  0  0  0  0  0  0  0  0  0  0  0
   20.8439   65.0432   -9.2152 C   0  0  0  0  0  0  0  0  0  0  0  0
   22.0072   64.7069   -9.9597 O   0  0  0  0  0  0  0  0  0  0  0  0
   21.5906   63.6145  -10.7476 C   0  0  0  0  0  0  0  0  0  0  0  0
   22.1399   63.3049  -11.8518 O   0  0  0  0  0  0  0  0  0  0  0  0
   21.1168   65.5646   -7.8515 C   0  0  0  0  0  0  0  0  0  0  0  0
   21.9316   64.4643   -7.2873 N   0  0  0  0  0  0  0  0  0  0  0  0
   21.4153   63.2540   -7.8476 C   0  0  0  0  0  0  0  0  0  0  0  0
   22.9712   64.7324   -6.3924 C   0  0  0  0  0  0  0  0  0  0  0  0
   23.2322   65.9593   -6.0554 O   0  0  0  0  0  0  0  0  0  0  0  0
   23.8383   63.7529   -5.7641 C   0  0  0  0  0  0  0  0  0  0  0  0
   23.7493   63.2774   -4.4925 N   0  0  0  0  0  0  0  0  0  0  0  0
   24.7234   62.3910   -4.3012 C   0  0  0  0  0  0  0  0  0  0  0  0
   25.4387   62.2850   -5.4227 N   0  0  0  0  0  0  0  0  0  0  0  0
   24.9021   63.1223   -6.3384 C   0  0  0  0  0  0  0  0  0  0  0  0
   22.7570   63.6815   -3.5310 C   0  0  0  0  0  0  0  0  0  0  0  0
   19.7884   61.8431  -10.6748 C   0  0  0  0  0  0  0  0  0  0  0  0
   18.7512   61.2563   -9.7568 C   0  0  0  0  0  0  0  0  0  0  0  0
   15.2074   64.9204  -10.8638 Cl  0  0  0  0  0  0  0  0  0  0  0  0
   15.6837   63.2262  -10.7166 C   0  0  0  0  0  0  0  0  0  0  0  0
   16.9596   62.9093  -10.3159 C   0  0  0  0  0  0  0  0  0  0  0  0
   17.3721   61.5829  -10.1880 C   0  0  0  0  0  0  0  0  0  0  0  0
   16.4333   60.6152  -10.4842 C   0  0  0  0  0  0  0  0  0  0  0  0
   15.1517   60.9441  -10.8862 C   0  0  0  0  0  0  0  0  0  0  0  0
   14.7489   62.2567  -11.0113 C   0  0  0  0  0  0  0  0  0  0  0  0
 20 21  1  0  0  0
 21 22  2  0  0  0
 21 26  1  0  0  0
 22 23  1  0  0  0
 23 24  2  0  0  0
 23 19  1  0  0  0
 24 25  1  0  0  0
 25 26  2  0  0  0
 19 18  1  0  0  0
 18  1  1  0  0  0
  1  2  1  0  0  0
  1  5  1  0  0  0
  2  3  1  0  0  0
  2  9  1  0  0  0
  3  4  1  0  0  0
  3  7  1  0  0  0
  4  5  1  0  0  0
  5  6  2  0  0  0
  7  8  1  0  0  0
  8  9  1  0  0  0
  8 10  1  0  0  0
 10 11  2  0  0  0
 10 12  1  0  0  0
 12 13  1  0  0  0
 12 16  2  0  0  0
 13 14  1  0  0  0
 13 17  1  0  0  0
 14 15  2  0  0  0
 15 16  1  0  0  0
M  END
> <minimizedAffinity>
-9.01982

$$$$
1612


 31 34  0  0  0  0  0  0  0  0999 V2000
   22.0394   64.0735   -8.9914 N   0  0  0  0  0  0  0  0  0  0  0  0
   22.4766   65.0129   -8.1276 C   0  0  0  0  0  0  0  0  0  0  0  0
   21.4365   65.8897   -7.9286 C   0  0  0  0  0  0  0  0  0  0  0  0
   20.4231   65.4684   -8.6590 N   0  0  0  0  0  0  0  0  0  0  0  0
   20.7738   64.3409   -9.3264 C   0  0  0  0  0  0  0  0  0  0  0  0
   21.6404   66.9379   -7.0817 N   0  0  0  0  0  0  0  0  0  0  0  0
   22.8092   67.1207   -6.4565 C   0  0  0  0  0  0  0  0  0  0  0  0
   22.9478   68.1070   -5.6806 O   0  0  0  0  0  0  0  0  0  0  0  0
   23.8470   66.2907   -6.6219 N   0  0  0  0  0  0  0  0  0  0  0  0
   23.6744   65.2393   -7.4580 C   0  0  0  0  0  0  0  0  0  0  0  0
   24.6398   64.4602   -7.6153 O   0  0  0  0  0  0  0  0  0  0  0  0
   20.5458   67.8781   -6.8524 C   0  0  0  0  0  0  0  0  0  0  0  0
   24.7418   66.4700   -6.1140 H   0  0  0  0  0  0  0  0  0  0  0  0
   19.8831   63.5831  -10.1594 N   0  0  0  0  0  0  0  0  0  0  0  0
   19.2343   62.3945   -9.5691 C   0  0  0  0  0  0  0  0  0  0  0  0
   17.7446   62.4685   -9.6669 C   0  0  0  0  0  0  0  0  0  0  0  0
   17.3325   63.3425  -10.7409 N   0  0  0  0  0  0  0  0  0  0  0  0
   18.1843   63.4068  -11.9101 C   0  0  0  0  0  0  0  0  0  0  0  0
   19.5662   63.8906  -11.5075 C   0  0  0  0  0  0  0  0  0  0  0  0
   16.1329   64.0980  -10.6469 C   0  0  0  0  0  0  0  0  0  0  0  0
   15.4053   64.0061   -9.6343 O   0  0  0  0  0  0  0  0  0  0  0  0
   15.7106   65.0107  -11.7357 C   0  0  0  0  0  0  0  0  0  0  0  0
   14.3378   64.5418  -12.2105 C   0  0  0  0  0  0  0  0  0  0  0  0
   22.8386   62.9611   -9.3953 C   0  0  0  0  0  0  0  0  0  0  0  0
   26.9699   63.1369  -12.5347 Cl  0  0  0  0  0  0  0  0  0  0  0  0
   25.2249   63.1504  -12.2834 C   0  0  0  0  0  0  0  0  0  0  0  0
   24.7630   63.0317  -10.9789 C   0  0  0  0  0  0  0  0  0  0  0  0
   23.4149   63.0366  -10.7588 C   0  0  0  0  0  0  0  0  0  0  0  0
   22.5444   63.1610  -11.8593 C   0  0  0  0  0  0  0  0  0  0  0  0
   23.0266   63.2765  -13.1313 C   0  0  0  0  0  0  0  0  0  0  0  0
   24.3897   63.2726  -13.3718 C   0  0  0  0  0  0  0  0  0  0  0  0
 25 26  1  0  0  0
 26 27  2  0  0  0
 26 31  1  0  0  0
 27 28  1  0  0  0
 28 29  2  0  0  0
 28 24  1  0  0  0
 29 30  1  0  0  0
 30 31  2  0  0  0
 24  1  1  0  0  0
  1  2  1  0  0  0
  1  5  1  0  0  0
  2  3  2  0  0  0
  2 10  1  0  0  0
  3  4  1  0  0  0
  3  6  1  0  0  0
  4  5  2  0  0  0
  5 14  1  0  0  0
 14 15  1  0  0  0
 14 19  1  0  0  0
 15 16  1  0  0  0
 16 17  1  0  0  0
 17 18  1  0  0  0
 17 20  1  0  0  0
 18 19  1  0  0  0
 20 21  2  0  0  0
 20 22  1  0  0  0
 22 23  1  0  0  0
  6  7  1  0  0  0
  6 12  1  0  0  0
  7  8  2  0  0  0
  7  9  1  0  0  0
  9 10  1  0  0  0
 10 11  2  0  0  0
  9 13  1  0  0  0
M  END
> <minimizedAffinity>
-5.04995

$$$$
1622


 28 31  0  0  0  0  0  0  0  0999 V2000
   12.8293   66.0908  -15.9740 C   0  0  0  0  0  0  0  0  0  0  0  0
   12.8470   65.6397  -17.1480 O   0  0  0  0  0  0  0  0  0  0  0  0
   12.7353   67.4812  -15.6957 N   0  0  0  0  0  0  0  0  0  0  0  0
   12.6562   68.4076  -16.8037 C   0  0  0  0  0  0  0  0  0  0  0  0
   11.9246   69.6374  -16.2984 C   0  0  0  0  0  0  0  0  0  0  0  0
   10.8436   69.2829  -15.3009 C   0  0  0  0  0  0  0  0  0  0  0  0
   10.0755   70.4830  -15.0606 N   0  0  0  0  0  0  0  0  0  0  0  0
    9.0604   70.5680  -16.0493 C   0  0  0  0  0  0  0  0  0  0  0  0
    8.4066   71.5953  -16.4144 O   0  0  0  0  0  0  0  0  0  0  0  0
    8.9085   69.2440  -16.5696 N   0  0  0  0  0  0  0  0  0  0  0  0
    9.8253   68.3804  -15.8962 C   0  0  0  0  0  0  0  0  0  0  0  0
    9.7481   67.1229  -15.8442 O   0  0  0  0  0  0  0  0  0  0  0  0
    7.9850   68.7963  -17.6148 C   0  0  0  0  0  0  0  0  0  0  0  0
   11.4047   68.6950  -14.0400 C   0  0  0  0  0  0  0  0  0  0  0  0
   12.7120   68.0385  -14.3625 C   0  0  0  0  0  0  0  0  0  0  0  0
   10.2559   71.1535  -14.2900 H   0  0  0  0  0  0  0  0  0  0  0  0
   10.7864   63.9209  -16.1106 Cl  0  0  0  0  0  0  0  0  0  0  0  0
   12.0247   64.0431  -14.8531 C   0  0  0  0  0  0  0  0  0  0  0  0
   12.9128   65.0955  -14.9008 C   0  0  0  0  0  0  0  0  0  0  0  0
   13.8817   65.2022  -13.9273 C   0  0  0  0  0  0  0  0  0  0  0  0
   13.9746   64.2751  -12.9110 C   0  0  0  0  0  0  0  0  0  0  0  0
   13.0602   63.2341  -12.9027 C   0  0  0  0  0  0  0  0  0  0  0  0
   12.0786   63.0918  -13.8552 C   0  0  0  0  0  0  0  0  0  0  0  0
   14.9692   64.3644  -11.8919 N   0  0  0  0  0  0  0  0  0  0  0  0
   16.2662   64.4956  -12.0243 N   0  0  0  0  0  0  0  0  0  0  0  0
   16.8508   64.5419  -10.7917 C   0  0  0  0  0  0  0  0  0  0  0  0
   15.8565   64.4331   -9.8448 C   0  0  0  0  0  0  0  0  0  0  0  0
   14.6737   64.3219  -10.5813 C   0  0  0  0  0  0  0  0  0  0  0  0
 17 18  1  0  0  0
 18 19  2  0  0  0
 18 23  1  0  0  0
 19 20  1  0  0  0
 19  1  1  0  0  0
 20 21  2  0  0  0
 21 22  1  0  0  0
 21 24  1  0  0  0
 22 23  2  0  0  0
 24 25  1  0  0  0
 24 28  1  0  0  0
 25 26  2  0  0  0
 26 27  1  0  0  0
 27 28  2  0  0  0
  1  2  2  0  0  0
  1  3  1  0  0  0
  3  4  1  0  0  0
  3 15  1  0  0  0
  4  5  1  0  0  0
  5  6  1  0  0  0
  6  7  1  0  0  0
  6 11  1  0  0  0
  6 14  1  0  0  0
  7  8  1  0  0  0
  8  9  2  0  0  0
  8 10  1  0  0  0
 10 11  1  0  0  0
 10 13  1  0  0  0
 11 12  2  0  0  0
 14 15  1  0  0  0
  7 16  1  0  0  0
M  END
> <minimizedAffinity>
-4.58126

$$$$
1624


 32 35  0  0  0  0  0  0  0  0999 V2000
   21.7957   62.6825   -9.3860 C   0  0  0  0  0  0  0  0  0  0  0  0
   22.1747   63.6244   -8.3168 N   0  0  0  0  0  0  0  0  0  0  0  0
   21.4307   64.8222   -8.4961 C   0  0  0  0  0  0  0  0  0  0  0  0
   21.6981   65.9423   -8.0562 O   0  0  0  0  0  0  0  0  0  0  0  0
   20.2521   64.4858   -9.3186 C   0  0  0  0  0  0  0  0  0  0  0  0
   19.3282   65.2654   -9.7174 O   0  0  0  0  0  0  0  0  0  0  0  0
   20.3593   63.0619   -9.5915 C   0  0  0  0  0  0  0  0  0  0  0  0
   19.3584   62.3086   -9.9743 C   0  0  0  0  0  0  0  0  0  0  0  0
   19.6164   60.9679  -10.2440 O   0  0  0  0  0  0  0  0  0  0  0  0
   25.1047   63.6322  -14.2988 Cl  0  0  0  0  0  0  0  0  0  0  0  0
   24.1712   63.3572  -12.8542 C   0  0  0  0  0  0  0  0  0  0  0  0
   24.7690   63.1408  -11.6479 C   0  0  0  0  0  0  0  0  0  0  0  0
   23.9788   62.9261  -10.5281 C   0  0  0  0  0  0  0  0  0  0  0  0
   22.6212   62.9169  -10.5639 C   0  0  0  0  0  0  0  0  0  0  0  0
   22.0136   63.1388  -11.7996 C   0  0  0  0  0  0  0  0  0  0  0  0
   22.7763   63.3542  -12.9248 C   0  0  0  0  0  0  0  0  0  0  0  0
   17.9760   62.7434  -10.1447 C   0  0  0  0  0  0  0  0  0  0  0  0
   17.0891   61.7900  -10.6319 C   0  0  0  0  0  0  0  0  0  0  0  0
   15.7727   62.1190  -10.7926 C   0  0  0  0  0  0  0  0  0  0  0  0
   15.3056   63.3814  -10.4812 C   0  0  0  0  0  0  0  0  0  0  0  0
   16.1891   64.3228   -9.9983 C   0  0  0  0  0  0  0  0  0  0  0  0
   17.5162   63.9785   -9.8395 C   0  0  0  0  0  0  0  0  0  0  0  0
   13.6273   63.7526  -10.7023 Cl  0  0  0  0  0  0  0  0  0  0  0  0
   23.1408   63.2682   -7.3093 C   0  0  0  0  0  0  0  0  0  0  0  0
   23.1713   64.1328   -6.1071 C   0  0  0  0  0  0  0  0  0  0  0  0
   24.3112   64.0989   -5.2681 N   0  0  0  0  0  0  0  0  0  0  0  0
   25.3291   63.1614   -5.6928 C   0  0  0  0  0  0  0  0  0  0  0  0
   25.7098   62.1572   -4.6315 C   0  0  0  0  0  0  0  0  0  0  0  0
   25.9773   62.6950   -3.3993 O   0  0  0  0  0  0  0  0  0  0  0  0
   25.0330   63.6122   -2.9775 C   0  0  0  0  0  0  0  0  0  0  0  0
   23.8825   63.6174   -3.9380 C   0  0  0  0  0  0  0  0  0  0  0  0
   24.7105   65.0319   -5.0741 H   0  0  0  0  0  0  0  0  0  0  0  0
 10 11  1  0  0  0
 11 12  2  0  0  0
 11 16  1  0  0  0
 12 13  1  0  0  0
 13 14  2  0  0  0
 14 15  1  0  0  0
 14  1  1  0  0  0
 15 16  2  0  0  0
  1  2  1  0  0  0
  1  7  1  0  0  0
  2  3  1  0  0  0
  2 24  1  0  0  0
  3  4  2  0  0  0
  3  5  1  0  0  0
  5  6  2  0  0  0
  5  7  1  0  0  0
  7  8  2  0  0  0
  8  9  1  0  0  0
  8 17  1  0  0  0
 17 18  2  0  0  0
 17 22  1  0  0  0
 18 19  1  0  0  0
 19 20  2  0  0  0
 20 21  1  0  0  0
 20 23  1  0  0  0
 21 22  2  0  0  0
 24 25  1  0  0  0
 25 26  1  0  0  0
 26 27  1  0  0  0
 26 31  1  0  0  0
 27 28  1  0  0  0
 28 29  1  0  0  0
 29 30  1  0  0  0
 30 31  1  0  0  0
 26 32  1  0  0  0
M  CHG 1   9  -1
M  CHG 1  26   1
M  END
> <minimizedAffinity>
-8.50222

$$$$
1630


 39 43  0  0  0  0  0  0  0  0999 V2000
   27.7896   61.7345   -4.4469 Cl  0  0  0  0  0  0  0  0  0  0  0  0
   26.2791   62.5495   -4.8804 C   0  0  0  0  0  0  0  0  0  0  0  0
   25.1668   62.4036   -4.0878 C   0  0  0  0  0  0  0  0  0  0  0  0
   23.9808   63.0423   -4.4252 C   0  0  0  0  0  0  0  0  0  0  0  0
   23.8438   63.8342   -5.5328 C   0  0  0  0  0  0  0  0  0  0  0  0
   24.9962   63.9658   -6.3234 C   0  0  0  0  0  0  0  0  0  0  0  0
   26.1776   63.3367   -5.9981 C   0  0  0  0  0  0  0  0  0  0  0  0
   22.4851   64.3470   -5.5977 C   0  0  0  0  0  0  0  0  0  0  0  0
   22.5502   65.8019   -5.4904 N   0  0  0  0  0  0  0  0  0  0  0  0
   22.3304   66.2384   -6.8421 C   0  0  0  0  0  0  0  0  0  0  0  0
   21.1905   65.3462   -7.2778 C   0  0  0  0  0  0  0  0  0  0  0  0
   21.7101   64.0003   -6.8210 C   0  0  0  0  0  0  0  0  0  0  0  0
   22.4497   63.4896   -7.9575 C   0  0  0  0  0  0  0  0  0  0  0  0
   23.2737   62.5486   -7.9535 O   0  0  0  0  0  0  0  0  0  0  0  0
   22.0955   64.2336   -9.1151 N   0  0  0  0  0  0  0  0  0  0  0  0
   21.1277   65.2213   -8.7561 C   0  0  0  0  0  0  0  0  0  0  0  0
   20.3521   65.8855   -9.4838 O   0  0  0  0  0  0  0  0  0  0  0  0
   21.8063   63.7903   -4.4035 C   0  0  0  0  0  0  0  0  0  0  0  0
   20.6071   63.9702   -4.0375 O   0  0  0  0  0  0  0  0  0  0  0  0
   22.7484   62.9977   -3.7163 N   0  0  0  0  0  0  0  0  0  0  0  0
   25.2649   61.5509   -2.8708 C   0  0  0  0  0  0  0  0  0  0  0  0
   23.4690   66.0830   -5.0870 H   0  0  0  0  0  0  0  0  0  0  0  0
   22.5529   62.4677   -2.8249 H   0  0  0  0  0  0  0  0  0  0  0  0
   22.5794   64.0851  -10.4747 C   0  0  0  0  0  0  0  0  0  0  0  0
   21.5951   63.4197  -11.3467 C   0  0  0  0  0  0  0  0  0  0  0  0
   21.9899   63.0801  -12.6230 C   0  0  0  0  0  0  0  0  0  0  0  0
   21.0580   62.4540  -13.4394 C   0  0  0  0  0  0  0  0  0  0  0  0
   19.7930   62.1800  -13.0017 C   0  0  0  0  0  0  0  0  0  0  0  0
   19.4379   62.5335  -11.7216 C   0  0  0  0  0  0  0  0  0  0  0  0
   20.3164   63.1575  -10.8634 C   0  0  0  0  0  0  0  0  0  0  0  0
   23.2718   63.3666  -13.0429 O   0  0  0  0  0  0  0  0  0  0  0  0
   23.6269   63.7120  -14.3448 C   0  0  0  0  0  0  0  0  0  0  0  0
   21.9591   67.7035   -6.8976 C   0  0  0  0  0  0  0  0  0  0  0  0
   23.2392   68.4859   -6.6921 C   0  0  0  0  0  0  0  0  0  0  0  0
   23.0495   69.6127   -5.7452 C   0  0  0  0  0  0  0  0  0  0  0  0
   21.8848   70.0545   -5.5321 O   0  0  0  0  0  0  0  0  0  0  0  0
   24.2103   70.1412   -5.1192 N   0  0  0  0  0  0  0  0  0  0  0  0
   24.9614   69.4845   -4.8485 H   0  0  0  0  0  0  0  0  0  0  0  0
   24.2381   71.1807   -4.9647 H   0  0  0  0  0  0  0  0  0  0  0  0
  1  2  1  0  0  0
  2  3  2  0  0  0
  2  7  1  0  0  0
  3  4  1  0  0  0
  3 21  1  0  0  0
  4  5  2  0  0  0
  4 20  1  0  0  0
  5  6  1  0  0  0
  5  8  1  0  0  0
  6  7  2  0  0  0
  8  9  1  0  0  0
  8 12  1  0  0  0
  8 18  1  0  0  0
  9 10  1  0  0  0
 10 11  1  0  0  0
 10 33  1  0  0  0
 11 12  1  0  0  0
 11 16  1  0  0  0
 12 13  1  0  0  0
 13 14  2  0  0  0
 13 15  1  0  0  0
 15 16  1  0  0  0
 15 24  1  0  0  0
 16 17  2  0  0  0
 24 25  1  0  0  0
 25 26  2  0  0  0
 25 30  1  0  0  0
 26 27  1  0  0  0
 26 31  1  0  0  0
 27 28  2  0  0  0
 28 29  1  0  0  0
 29 30  2  0  0  0
 31 32  1  0  0  0
 33 34  1  0  0  0
 34 35  1  0  0  0
 35 36  2  0  0  0
 35 37  1  0  0  0
 18 19  2  0  0  0
 18 20  1  0  0  0
  9 22  1  0  0  0
 37 38  1  0  0  0
 37 39  1  0  0  0
 20 23  1  0  0  0
M  END
> <minimizedAffinity>
-4.78077

$$$$
1631


 29 32  0  0  0  0  0  0  0  0999 V2000
   21.7034   64.5176   -6.9712 C   0  0  0  0  0  0  0  0  0  0  0  0
   21.9686   63.9039   -8.2412 N   0  0  0  0  0  0  0  0  0  0  0  0
   23.3384   63.5275   -8.3402 C   0  0  0  0  0  0  0  0  0  0  0  0
   23.9779   63.2236   -9.3887 O   0  0  0  0  0  0  0  0  0  0  0  0
   23.9075   63.5509   -6.9764 C   0  0  0  0  0  0  0  0  0  0  0  0
   25.0941   63.2768   -6.6869 O   0  0  0  0  0  0  0  0  0  0  0  0
   22.8037   63.9531   -6.1147 C   0  0  0  0  0  0  0  0  0  0  0  0
   22.8243   63.8548   -4.8025 C   0  0  0  0  0  0  0  0  0  0  0  0
   21.6957   64.3356   -4.1074 O   0  0  0  0  0  0  0  0  0  0  0  0
   24.1087   68.9698   -5.5951 Cl  0  0  0  0  0  0  0  0  0  0  0  0
   22.8168   68.0952   -6.3875 C   0  0  0  0  0  0  0  0  0  0  0  0
   22.7482   66.7222   -6.3812 C   0  0  0  0  0  0  0  0  0  0  0  0
   21.7369   66.0014   -7.0035 C   0  0  0  0  0  0  0  0  0  0  0  0
   20.7553   66.7378   -7.6593 C   0  0  0  0  0  0  0  0  0  0  0  0
   20.7997   68.1135   -7.6815 C   0  0  0  0  0  0  0  0  0  0  0  0
   21.8248   68.7854   -7.0489 C   0  0  0  0  0  0  0  0  0  0  0  0
   21.0175   63.6974   -9.2638 C   0  0  0  0  0  0  0  0  0  0  0  0
   21.4978   63.7156  -10.5354 N   0  0  0  0  0  0  0  0  0  0  0  0
   20.7020   63.5325  -11.5881 C   0  0  0  0  0  0  0  0  0  0  0  0
   19.3622   63.3184  -11.3590 C   0  0  0  0  0  0  0  0  0  0  0  0
   18.8977   63.3027  -10.0608 C   0  0  0  0  0  0  0  0  0  0  0  0
   19.7078   63.4903   -9.0041 N   0  0  0  0  0  0  0  0  0  0  0  0
   22.5261   63.8760  -10.7205 H   0  0  0  0  0  0  0  0  0  0  0  0
   23.9232   63.2837   -4.0360 C   0  0  0  0  0  0  0  0  0  0  0  0
   24.8610   64.1342   -3.4333 C   0  0  0  0  0  0  0  0  0  0  0  0
   25.8940   63.6235   -2.6785 C   0  0  0  0  0  0  0  0  0  0  0  0
   26.0594   62.2693   -2.4761 C   0  0  0  0  0  0  0  0  0  0  0  0
   25.1487   61.4173   -3.0586 C   0  0  0  0  0  0  0  0  0  0  0  0
   24.1032   61.9366   -3.8234 C   0  0  0  0  0  0  0  0  0  0  0  0
 10 11  1  0  0  0
 11 12  2  0  0  0
 11 16  1  0  0  0
 12 13  1  0  0  0
 13 14  2  0  0  0
 13  1  1  0  0  0
 14 15  1  0  0  0
 15 16  2  0  0  0
  1  2  1  0  0  0
  1  7  1  0  0  0
  2  3  1  0  0  0
  2 17  1  0  0  0
  3  4  2  0  0  0
  3  5  1  0  0  0
  5  6  2  0  0  0
  5  7  1  0  0  0
  7  8  2  0  0  0
  8  9  1  0  0  0
  8 24  1  0  0  0
 24 25  2  0  0  0
 24 29  1  0  0  0
 25 26  1  0  0  0
 26 27  2  0  0  0
 27 28  1  0  0  0
 28 29  2  0  0  0
 17 18  2  0  0  0
 17 22  1  0  0  0
 18 19  1  0  0  0
 19 20  2  0  0  0
 20 21  1  0  0  0
 21 22  2  0  0  0
 18 23  1  0  0  0
M  CHG 1   9  -1
M  END
> <minimizedAffinity>
-5.13636

$$$$
1637


 29 32  0  0  0  0  0  0  0  0999 V2000
   23.2630   64.0338   -6.1701 C   0  0  0  0  0  0  0  0  0  0  0  0
   23.4221   63.4037   -7.3395 N   0  0  0  0  0  0  0  0  0  0  0  0
   22.8476   63.7786   -8.4785 C   0  0  0  0  0  0  0  0  0  0  0  0
   22.0139   64.9077   -8.4323 C   0  0  0  0  0  0  0  0  0  0  0  0
   21.8571   65.5397   -7.2501 C   0  0  0  0  0  0  0  0  0  0  0  0
   22.4860   65.1004   -6.1239 N   0  0  0  0  0  0  0  0  0  0  0  0
   21.0447   66.6629   -7.2045 O   0  0  0  0  0  0  0  0  0  0  0  0
   21.2948   65.1960   -9.6759 C   0  0  0  0  0  0  0  0  0  0  0  0
   20.6870   63.9607  -10.0640 N   0  0  0  0  0  0  0  0  0  0  0  0
   21.8482   63.2094  -10.7179 C   0  0  0  0  0  0  0  0  0  0  0  0
   22.9980   63.0801   -9.7823 C   0  0  0  0  0  0  0  0  0  0  0  0
   20.9957   67.3633   -7.9513 H   0  0  0  0  0  0  0  0  0  0  0  0
   24.0240   63.3367   -4.7279 S   0  0  0  0  0  0  0  0  0  0  0  0
   23.1535   62.4109   -4.0379 O   0  0  0  0  0  0  0  0  0  0  0  0
   24.4205   64.4910   -3.8575 O   0  0  0  0  0  0  0  0  0  0  0  0
   25.5495   62.5630   -5.3196 C   0  0  0  0  0  0  0  0  0  0  0  0
   20.3437   62.9910   -8.9617 C   0  0  0  0  0  0  0  0  0  0  0  0
   18.9844   62.5125   -9.4791 C   0  0  0  0  0  0  0  0  0  0  0  0
   17.9677   63.2990   -9.8585 C   0  0  0  0  0  0  0  0  0  0  0  0
   16.7218   62.8097  -10.3362 C   0  0  0  0  0  0  0  0  0  0  0  0
   16.6312   61.4157  -10.3893 C   0  0  0  0  0  0  0  0  0  0  0  0
   15.4573   60.8874  -10.8402 C   0  0  0  0  0  0  0  0  0  0  0  0
   14.3444   61.6548  -11.2496 C   0  0  0  0  0  0  0  0  0  0  0  0
   14.4862   63.0530  -11.1834 C   0  0  0  0  0  0  0  0  0  0  0  0
   15.6685   63.5642  -10.7273 C   0  0  0  0  0  0  0  0  0  0  0  0
   17.6074   60.6517  -10.0377 O   0  0  0  0  0  0  0  0  0  0  0  0
   18.7730   61.1399   -9.5864 C   0  0  0  0  0  0  0  0  0  0  0  0
   19.7372   60.3611   -9.2271 O   0  0  0  0  0  0  0  0  0  0  0  0
   18.2015   65.0138   -9.8223 Cl  0  0  0  0  0  0  0  0  0  0  0  0
 13 14  2  0  0  0
 13 15  2  0  0  0
 13 16  1  0  0  0
 13  1  1  0  0  0
  1  2  2  0  0  0
  1  6  1  0  0  0
  2  3  1  0  0  0
  3  4  2  0  0  0
  3 11  1  0  0  0
  4  5  1  0  0  0
  4  8  1  0  0  0
  5  6  2  0  0  0
  5  7  1  0  0  0
  8  9  1  0  0  0
  9 10  1  0  0  0
  9 17  1  0  0  0
 10 11  1  0  0  0
 17 18  1  0  0  0
 18 19  2  0  0  0
 18 27  1  0  0  0
 19 20  1  0  0  0
 19 29  1  0  0  0
 20 21  2  0  0  0
 20 25  1  0  0  0
 21 22  1  0  0  0
 21 26  1  0  0  0
 22 23  2  0  0  0
 23 24  1  0  0  0
 24 25  2  0  0  0
 26 27  1  0  0  0
 27 28  2  0  0  0
  7 12  1  0  0  0
M  END
> <minimizedAffinity>
-8.02804

$$$$
1638


 38 41  0  0  0  0  0  0  0  0999 V2000
   16.2787   63.1980  -11.0707 C   0  0  0  0  0  0  0  0  0  0  0  0
   15.0168   62.6573  -11.2790 C   0  0  0  0  0  0  0  0  0  0  0  0
   14.0924   63.3579  -11.9897 N   0  0  0  0  0  0  0  0  0  0  0  0
   14.3422   64.5674  -12.5092 C   0  0  0  0  0  0  0  0  0  0  0  0
   15.5619   65.0970  -12.3104 N   0  0  0  0  0  0  0  0  0  0  0  0
   16.5083   64.4431  -11.6157 C   0  0  0  0  0  0  0  0  0  0  0  0
   14.7599   61.3869  -10.7323 N   0  0  0  0  0  0  0  0  0  0  0  0
   13.9968   61.1957  -10.0509 H   0  0  0  0  0  0  0  0  0  0  0  0
   15.3579   60.5836  -11.0158 H   0  0  0  0  0  0  0  0  0  0  0  0
   13.3735   65.2985  -13.2576 N   0  0  0  0  0  0  0  0  0  0  0  0
   13.7291   66.0899  -14.4101 C   0  0  0  0  0  0  0  0  0  0  0  0
   12.9588   65.7510  -15.6560 C   0  0  0  0  0  0  0  0  0  0  0  0
   11.6121   65.1190  -15.3447 C   0  0  0  0  0  0  0  0  0  0  0  0
   11.1841   65.8111  -14.0393 C   0  0  0  0  0  0  0  0  0  0  0  0
   11.9700   65.2822  -12.8864 C   0  0  0  0  0  0  0  0  0  0  0  0
   11.6353   63.7498  -15.1433 N   0  0  0  0  0  0  0  0  0  0  0  0
   12.4693   62.8963  -15.8961 C   0  0  0  0  0  0  0  0  0  0  0  0
   12.8691   61.7267  -14.9807 C   0  0  0  0  0  0  0  0  0  0  0  0
   11.8224   61.6007  -13.9071 C   0  0  0  0  0  0  0  0  0  0  0  0
   10.4270   61.8264  -14.4309 C   0  0  0  0  0  0  0  0  0  0  0  0
   10.3234   63.1626  -15.1475 C   0  0  0  0  0  0  0  0  0  0  0  0
   10.6504   65.5757  -16.3736 C   0  0  0  0  0  0  0  0  0  0  0  0
   10.8784   65.3748  -17.6142 O   0  0  0  0  0  0  0  0  0  0  0  0
    9.4568   66.2408  -16.0722 N   0  0  0  0  0  0  0  0  0  0  0  0
    9.4063   67.2808  -16.2518 H   0  0  0  0  0  0  0  0  0  0  0  0
    8.5883   65.8180  -15.6881 H   0  0  0  0  0  0  0  0  0  0  0  0
   17.5027   62.3330  -10.1646 S   0  0  0  0  0  0  0  0  0  0  0  0
   17.5596   62.7835   -8.7413 O   0  0  0  0  0  0  0  0  0  0  0  0
   17.1928   60.8619  -10.2773 O   0  0  0  0  0  0  0  0  0  0  0  0
   19.0590   62.6145  -10.9593 C   0  0  0  0  0  0  0  0  0  0  0  0
   20.1328   63.0815  -10.2292 C   0  0  0  0  0  0  0  0  0  0  0  0
   21.3260   63.2861  -10.8895 C   0  0  0  0  0  0  0  0  0  0  0  0
   21.4593   63.0344  -12.2511 C   0  0  0  0  0  0  0  0  0  0  0  0
   20.3639   62.5683  -12.9454 C   0  0  0  0  0  0  0  0  0  0  0  0
   19.1563   62.3538  -12.3129 C   0  0  0  0  0  0  0  0  0  0  0  0
   20.5153   62.2429  -14.6776 Cl  0  0  0  0  0  0  0  0  0  0  0  0
   19.9639   63.3184   -8.8932 O   0  0  0  0  0  0  0  0  0  0  0  0
   20.9654   63.7401   -8.0102 C   0  0  0  0  0  0  0  0  0  0  0  0
 27 28  2  0  0  0
 27 29  2  0  0  0
 27  1  1  0  0  0
 27 30  1  0  0  0
  1  2  2  0  0  0
  1  6  1  0  0  0
  2  3  1  0  0  0
  2  7  1  0  0  0
  3  4  2  0  0  0
  4  5  1  0  0  0
  4 10  1  0  0  0
  5  6  2  0  0  0
 10 11  1  0  0  0
 10 15  1  0  0  0
 11 12  1  0  0  0
 12 13  1  0  0  0
 13 14  1  0  0  0
 13 16  1  0  0  0
 13 22  1  0  0  0
 14 15  1  0  0  0
 16 17  1  0  0  0
 16 21  1  0  0  0
 17 18  1  0  0  0
 18 19  1  0  0  0
 19 20  1  0  0  0
 20 21  1  0  0  0
 22 23  2  0  0  0
 22 24  1  0  0  0
 30 31  2  0  0  0
 30 35  1  0  0  0
 31 32  1  0  0  0
 31 37  1  0  0  0
 32 33  2  0  0  0
 33 34  1  0  0  0
 34 35  2  0  0  0
 34 36  1  0  0  0
 37 38  1  0  0  0
 24 25  1  0  0  0
 24 26  1  0  0  0
  7  8  1  0  0  0
  7  9  1  0  0  0
M  END
> <minimizedAffinity>
-4.87492

$$$$
1651


 23 26  0  0  0  0  0  0  0  0999 V2000
   15.3376   64.4624  -10.3884 Cl  0  0  0  0  0  0  0  0  0  0  0  0
   14.2642   64.0069  -11.7146 C   0  0  0  0  0  0  0  0  0  0  0  0
   13.6609   64.9491  -12.5110 C   0  0  0  0  0  0  0  0  0  0  0  0
   12.8116   64.5618  -13.5591 C   0  0  0  0  0  0  0  0  0  0  0  0
   12.5583   63.2454  -13.8213 C   0  0  0  0  0  0  0  0  0  0  0  0
   13.1727   62.2740  -13.0100 C   0  0  0  0  0  0  0  0  0  0  0  0
   13.9975   62.6876  -11.9931 C   0  0  0  0  0  0  0  0  0  0  0  0
   11.6770   63.0774  -14.9199 N   0  0  0  0  0  0  0  0  0  0  0  0
   11.3551   64.3791  -15.3776 C   0  0  0  0  0  0  0  0  0  0  0  0
   10.5839   64.6114  -16.3542 O   0  0  0  0  0  0  0  0  0  0  0  0
   12.0569   65.3776  -14.5412 C   0  0  0  0  0  0  0  0  0  0  0  0
   10.9873   66.2098  -13.8660 C   0  0  0  0  0  0  0  0  0  0  0  0
   10.3965   67.0500  -14.9616 C   0  0  0  0  0  0  0  0  0  0  0  0
    9.1776   67.0881  -15.2105 O   0  0  0  0  0  0  0  0  0  0  0  0
   11.3228   67.8268  -15.7305 N   0  0  0  0  0  0  0  0  0  0  0  0
   12.6556   67.3615  -15.8976 C   0  0  0  0  0  0  0  0  0  0  0  0
   13.7386   67.8669  -16.5481 N   0  0  0  0  0  0  0  0  0  0  0  0
   14.7393   67.0363  -16.3837 N   0  0  0  0  0  0  0  0  0  0  0  0
   14.3725   65.9799  -15.6414 C   0  0  0  0  0  0  0  0  0  0  0  0
   13.0237   66.1739  -15.3178 C   0  0  0  0  0  0  0  0  0  0  0  0
   11.2037   61.7984  -15.4588 C   0  0  0  0  0  0  0  0  0  0  0  0
   11.0353   68.7288  -16.1697 H   0  0  0  0  0  0  0  0  0  0  0  0
   13.7157   68.7714  -17.0738 H   0  0  0  0  0  0  0  0  0  0  0  0
  1  2  1  0  0  0
  2  3  2  0  0  0
  2  7  1  0  0  0
  3  4  1  0  0  0
  4  5  2  0  0  0
  4 11  1  0  0  0
  5  6  1  0  0  0
  5  8  1  0  0  0
  6  7  2  0  0  0
  8  9  1  0  0  0
  8 21  1  0  0  0
  9 10  2  0  0  0
  9 11  1  0  0  0
 11 12  1  0  0  0
 11 20  1  0  0  0
 12 13  1  0  0  0
 13 14  2  0  0  0
 13 15  1  0  0  0
 15 16  1  0  0  0
 16 17  1  0  0  0
 16 20  2  0  0  0
 17 18  1  0  0  0
 18 19  2  0  0  0
 19 20  1  0  0  0
 15 22  1  0  0  0
 17 23  1  0  0  0
M  END
> <minimizedAffinity>
-5.63120

$$$$
1657


 33 36  0  0  0  0  0  0  0  0999 V2000
   20.8544   62.6458   -8.7085 Cl  0  0  0  0  0  0  0  0  0  0  0  0
   19.3809   62.6681   -9.6857 C   0  0  0  0  0  0  0  0  0  0  0  0
   18.4931   61.6157   -9.6257 C   0  0  0  0  0  0  0  0  0  0  0  0
   17.3621   61.6372  -10.3754 C   0  0  0  0  0  0  0  0  0  0  0  0
   17.0884   62.7249  -11.2157 C   0  0  0  0  0  0  0  0  0  0  0  0
   17.9880   63.7629  -11.2599 C   0  0  0  0  0  0  0  0  0  0  0  0
   19.1497   63.7574  -10.4987 C   0  0  0  0  0  0  0  0  0  0  0  0
   15.9035   62.7551  -12.0045 N   0  0  0  0  0  0  0  0  0  0  0  0
   14.7386   62.0087  -11.5535 C   0  0  0  0  0  0  0  0  0  0  0  0
   15.2109   60.6894  -11.2037 N   0  0  0  0  0  0  0  0  0  0  0  0
   16.3613   60.5729  -10.3824 C   0  0  0  0  0  0  0  0  0  0  0  0
   16.5773   59.5811   -9.6389 O   0  0  0  0  0  0  0  0  0  0  0  0
   13.7642   61.9263  -12.6802 C   0  0  0  0  0  0  0  0  0  0  0  0
   12.8299   63.1121  -12.7540 C   0  0  0  0  0  0  0  0  0  0  0  0
   13.5393   64.3699  -12.6457 N   0  0  0  0  0  0  0  0  0  0  0  0
   14.3157   64.7406  -11.4796 C   0  0  0  0  0  0  0  0  0  0  0  0
   14.9829   65.7940  -11.5966 O   0  0  0  0  0  0  0  0  0  0  0  0
   14.4446   64.0706  -10.1751 C   0  0  0  0  0  0  0  0  0  0  0  0
   14.1631   62.6018  -10.2832 C   0  0  0  0  0  0  0  0  0  0  0  0
   15.9314   63.3195  -12.8791 H   0  0  0  0  0  0  0  0  0  0  0  0
   14.7490   59.8156  -11.5238 H   0  0  0  0  0  0  0  0  0  0  0  0
   13.5287   65.3029  -13.6975 C   0  0  0  0  0  0  0  0  0  0  0  0
   12.8898   65.0313  -14.9651 C   0  0  0  0  0  0  0  0  0  0  0  0
   13.7699   64.5762  -15.8578 O   0  0  0  0  0  0  0  0  0  0  0  0
   11.5789   65.1619  -15.3648 N   0  0  0  0  0  0  0  0  0  0  0  0
   11.2238   64.7971  -16.7607 C   0  0  0  0  0  0  0  0  0  0  0  0
    9.9389   63.9669  -16.6127 C   0  0  0  0  0  0  0  0  0  0  0  0
    9.8187   63.4232  -15.3016 N   0  0  0  0  0  0  0  0  0  0  0  0
    9.5868   64.3693  -14.2513 C   0  0  0  0  0  0  0  0  0  0  0  0
   10.4846   65.5936  -14.5877 C   0  0  0  0  0  0  0  0  0  0  0  0
    9.0778   62.2131  -15.1894 C   0  0  0  0  0  0  0  0  0  0  0  0
    9.6668   61.2258  -14.2028 C   0  0  0  0  0  0  0  0  0  0  0  0
    7.6237   62.4249  -14.8663 C   0  0  0  0  0  0  0  0  0  0  0  0
  1  2  1  0  0  0
  2  3  2  0  0  0
  2  7  1  0  0  0
  3  4  1  0  0  0
  4  5  2  0  0  0
  4 11  1  0  0  0
  5  6  1  0  0  0
  5  8  1  0  0  0
  6  7  2  0  0  0
  8  9  1  0  0  0
  9 10  1  0  0  0
  9 13  1  0  0  0
  9 19  1  0  0  0
 10 11  1  0  0  0
 11 12  2  0  0  0
 13 14  1  0  0  0
 14 15  1  0  0  0
 15 16  1  0  0  0
 15 22  1  0  0  0
 16 17  2  0  0  0
 16 18  1  0  0  0
 18 19  1  0  0  0
 22 23  1  0  0  0
 23 24  2  0  0  0
 23 25  1  0  0  0
 25 26  1  0  0  0
 25 30  1  0  0  0
 26 27  1  0  0  0
 27 28  1  0  0  0
 28 29  1  0  0  0
 28 31  1  0  0  0
 29 30  1  0  0  0
 31 32  1  0  0  0
 31 33  1  0  0  0
  8 20  1  0  0  0
 10 21  1  0  0  0
M  END
> <minimizedAffinity>
-4.03448

$$$$
1660


 31 34  0  0  0  0  0  0  0  0999 V2000
   23.2768   63.3879   -8.2942 N   0  0  0  0  0  0  0  0  0  0  0  0
   24.1125   63.2136   -9.2820 N   0  0  0  0  0  0  0  0  0  0  0  0
   23.5052   63.1944  -10.4732 C   0  0  0  0  0  0  0  0  0  0  0  0
   22.1496   63.3729  -10.2324 C   0  0  0  0  0  0  0  0  0  0  0  0
   22.0479   63.4903   -8.8499 C   0  0  0  0  0  0  0  0  0  0  0  0
   20.8179   63.6678   -8.3604 N   0  0  0  0  0  0  0  0  0  0  0  0
   19.7353   63.7305   -9.1664 C   0  0  0  0  0  0  0  0  0  0  0  0
   19.8020   63.6207  -10.5025 N   0  0  0  0  0  0  0  0  0  0  0  0
   21.0369   63.4384  -11.0380 C   0  0  0  0  0  0  0  0  0  0  0  0
   21.1486   63.3288  -12.2846 O   0  0  0  0  0  0  0  0  0  0  0  0
   24.9178   63.5850   -2.5518 Cl  0  0  0  0  0  0  0  0  0  0  0  0
   24.3884   63.5591   -4.2031 C   0  0  0  0  0  0  0  0  0  0  0  0
   23.3346   64.3017   -4.6853 C   0  0  0  0  0  0  0  0  0  0  0  0
   22.9311   64.2700   -6.0059 C   0  0  0  0  0  0  0  0  0  0  0  0
   23.5836   63.4748   -6.9118 C   0  0  0  0  0  0  0  0  0  0  0  0
   24.6412   62.7322   -6.4143 C   0  0  0  0  0  0  0  0  0  0  0  0
   25.0591   62.7499   -5.1015 C   0  0  0  0  0  0  0  0  0  0  0  0
   18.6322   63.7026  -11.3826 C   0  0  0  0  0  0  0  0  0  0  0  0
   17.6038   62.7077  -11.0305 C   0  0  0  0  0  0  0  0  0  0  0  0
   18.0442   61.5129  -10.8868 O   0  0  0  0  0  0  0  0  0  0  0  0
   16.2428   62.9364  -10.8429 N   0  0  0  0  0  0  0  0  0  0  0  0
   15.3194   61.8280  -10.5540 C   0  0  0  0  0  0  0  0  0  0  0  0
   14.3972   61.7789  -11.7794 C   0  0  0  0  0  0  0  0  0  0  0  0
   13.8378   63.0795  -12.0375 N   0  0  0  0  0  0  0  0  0  0  0  0
   14.1616   64.1438  -11.1060 C   0  0  0  0  0  0  0  0  0  0  0  0
   15.6483   64.2539  -10.8859 C   0  0  0  0  0  0  0  0  0  0  0  0
   13.0252   63.3206  -13.1668 C   0  0  0  0  0  0  0  0  0  0  0  0
   12.8311   62.3400  -13.9772 O   0  0  0  0  0  0  0  0  0  0  0  0
   12.4121   64.5101  -13.4898 O   0  0  0  0  0  0  0  0  0  0  0  0
   12.6036   65.1114  -14.7848 C   0  0  0  0  0  0  0  0  0  0  0  0
   13.9240   65.8574  -14.7135 C   0  0  0  0  0  0  0  0  0  0  0  0
 11 12  1  0  0  0
 12 13  2  0  0  0
 12 17  1  0  0  0
 13 14  1  0  0  0
 14 15  2  0  0  0
 15 16  1  0  0  0
 15  1  1  0  0  0
 16 17  2  0  0  0
  1  2  1  0  0  0
  1  5  1  0  0  0
  2  3  2  0  0  0
  3  4  1  0  0  0
  4  5  2  0  0  0
  4  9  1  0  0  0
  5  6  1  0  0  0
  6  7  2  0  0  0
  7  8  1  0  0  0
  8  9  1  0  0  0
  8 18  1  0  0  0
  9 10  2  0  0  0
 18 19  1  0  0  0
 19 20  2  0  0  0
 19 21  1  0  0  0
 21 22  1  0  0  0
 21 26  1  0  0  0
 22 23  1  0  0  0
 23 24  1  0  0  0
 24 25  1  0  0  0
 24 27  1  0  0  0
 25 26  1  0  0  0
 27 28  2  0  0  0
 27 29  1  0  0  0
 29 30  1  0  0  0
 30 31  1  0  0  0
M  END
> <minimizedAffinity>
-8.62157

$$$$
1666


 30 34  0  0  0  0  0  0  0  0999 V2000
   17.1516   63.2113  -10.0496 N   0  0  0  0  0  0  0  0  0  0  0  0
   16.5978   64.5377  -10.1231 C   0  0  0  0  0  0  0  0  0  0  0  0
   15.1369   64.5116  -10.5100 C   0  0  0  0  0  0  0  0  0  0  0  0
   14.9601   63.7530  -11.7737 N   0  0  0  0  0  0  0  0  0  0  0  0
   15.3440   62.3732  -11.5122 C   0  0  0  0  0  0  0  0  0  0  0  0
   16.1470   62.2092  -10.2336 C   0  0  0  0  0  0  0  0  0  0  0  0
   18.6412   62.9726  -10.7871 S   0  0  0  0  0  0  0  0  0  0  0  0
   18.6979   61.5294  -11.2713 O   0  0  0  0  0  0  0  0  0  0  0  0
   18.6542   63.7905  -12.0792 O   0  0  0  0  0  0  0  0  0  0  0  0
   20.0441   63.4051   -9.8960 C   0  0  0  0  0  0  0  0  0  0  0  0
   21.2041   63.7625  -10.5394 C   0  0  0  0  0  0  0  0  0  0  0  0
   22.3113   64.1148   -9.7885 C   0  0  0  0  0  0  0  0  0  0  0  0
   22.2998   64.1214   -8.4056 C   0  0  0  0  0  0  0  0  0  0  0  0
   21.1329   63.7622   -7.7642 C   0  0  0  0  0  0  0  0  0  0  0  0
   20.0206   63.4083   -8.5197 C   0  0  0  0  0  0  0  0  0  0  0  0
   23.8255   64.6046   -7.3693 Br  0  0  0  0  0  0  0  0  0  0  0  0
   13.5352   63.8205  -12.0174 C   0  0  0  0  0  0  0  0  0  0  0  0
   13.0748   63.8165  -13.4127 C   0  0  0  0  0  0  0  0  0  0  0  0
   12.6113   65.0230  -14.0092 N   0  0  0  0  0  0  0  0  0  0  0  0
   11.3226   65.6266  -14.0048 C   0  0  0  0  0  0  0  0  0  0  0  0
   10.2496   65.0244  -13.8547 O   0  0  0  0  0  0  0  0  0  0  0  0
   11.4780   67.0869  -14.2094 C   0  0  0  0  0  0  0  0  0  0  0  0
   12.7684   67.1126  -15.0602 C   0  0  0  0  0  0  0  0  0  0  0  0
   12.3163   67.2498  -16.4651 C   0  0  0  0  0  0  0  0  0  0  0  0
   10.8850   66.6905  -16.4011 C   0  0  0  0  0  0  0  0  0  0  0  0
   10.4890   67.5755  -15.2061 C   0  0  0  0  0  0  0  0  0  0  0  0
   11.0004   68.8934  -15.7116 C   0  0  0  0  0  0  0  0  0  0  0  0
   11.9307   68.7030  -16.6471 C   0  0  0  0  0  0  0  0  0  0  0  0
   13.5042   65.9002  -14.7311 C   0  0  0  0  0  0  0  0  0  0  0  0
   14.7041   65.6872  -15.0372 O   0  0  0  0  0  0  0  0  0  0  0  0
  7  8  2  0  0  0
  7  9  2  0  0  0
  7  1  1  0  0  0
  7 10  1  0  0  0
  1  2  1  0  0  0
  1  6  1  0  0  0
  2  3  1  0  0  0
  3  4  1  0  0  0
  4  5  1  0  0  0
  4 17  1  0  0  0
  5  6  1  0  0  0
 17 18  1  0  0  0
 18 19  1  0  0  0
 19 20  1  0  0  0
 19 29  1  0  0  0
 20 21  2  0  0  0
 20 22  1  0  0  0
 22 23  1  0  0  0
 22 26  1  0  0  0
 23 24  1  0  0  0
 23 29  1  0  0  0
 24 25  1  0  0  0
 24 28  1  0  0  0
 25 26  1  0  0  0
 26 27  1  0  0  0
 27 28  2  0  0  0
 29 30  2  0  0  0
 10 11  2  0  0  0
 10 15  1  0  0  0
 11 12  1  0  0  0
 12 13  2  0  0  0
 13 14  1  0  0  0
 13 16  1  0  0  0
 14 15  2  0  0  0
M  END
> <minimizedAffinity>
-7.80172

$$$$
1673


 35 38  0  0  0  0  0  0  0  0999 V2000
   21.1308   64.3230   -8.5694 C   0  0  0  0  0  0  0  0  0  0  0  0
   22.5993   64.2797   -8.8962 C   0  0  0  0  0  0  0  0  0  0  0  0
   23.2662   63.8899   -7.7349 N   0  0  0  0  0  0  0  0  0  0  0  0
   22.5195   64.6348   -6.6924 C   0  0  0  0  0  0  0  0  0  0  0  0
   22.9813   65.1088   -5.6196 O   0  0  0  0  0  0  0  0  0  0  0  0
   21.1390   64.7143   -7.1421 C   0  0  0  0  0  0  0  0  0  0  0  0
   20.1523   65.0566   -6.4306 O   0  0  0  0  0  0  0  0  0  0  0  0
   22.9333   63.9053  -10.2473 C   0  0  0  0  0  0  0  0  0  0  0  0
   24.1905   63.7401  -10.7368 C   0  0  0  0  0  0  0  0  0  0  0  0
   24.4056   63.3582  -12.0518 C   0  0  0  0  0  0  0  0  0  0  0  0
   23.3015   63.1411  -12.8901 C   0  0  0  0  0  0  0  0  0  0  0  0
   22.0393   63.3077  -12.3966 C   0  0  0  0  0  0  0  0  0  0  0  0
   21.8296   63.6809  -11.1057 C   0  0  0  0  0  0  0  0  0  0  0  0
   23.4601   62.7606  -14.2078 O   0  0  0  0  0  0  0  0  0  0  0  0
   25.6487   63.1825  -12.5692 O   0  0  0  0  0  0  0  0  0  0  0  0
   26.2481   64.0468  -13.4790 C   0  0  0  0  0  0  0  0  0  0  0  0
   26.9319   63.3387  -14.6349 C   0  0  0  0  0  0  0  0  0  0  0  0
   20.4173   63.0615   -8.7689 C   0  0  0  0  0  0  0  0  0  0  0  0
   20.9620   61.9646   -8.3978 O   0  0  0  0  0  0  0  0  0  0  0  0
   14.7956   62.2604  -11.2229 Br  0  0  0  0  0  0  0  0  0  0  0  0
   16.5518   62.5086  -10.4675 C   0  0  0  0  0  0  0  0  0  0  0  0
   17.0125   63.7551  -10.1313 C   0  0  0  0  0  0  0  0  0  0  0  0
   18.2698   63.9894   -9.5844 C   0  0  0  0  0  0  0  0  0  0  0  0
   19.0982   62.9120   -9.3668 C   0  0  0  0  0  0  0  0  0  0  0  0
   18.6210   61.6564   -9.7107 C   0  0  0  0  0  0  0  0  0  0  0  0
   17.3781   61.4258  -10.2520 C   0  0  0  0  0  0  0  0  0  0  0  0
   24.4165   63.1694   -7.2863 C   0  0  0  0  0  0  0  0  0  0  0  0
   24.4676   62.7949   -5.8536 C   0  0  0  0  0  0  0  0  0  0  0  0
   25.4545   63.2784   -4.9850 N   0  0  0  0  0  0  0  0  0  0  0  0
   24.8982   63.8967   -3.7744 C   0  0  0  0  0  0  0  0  0  0  0  0
   24.1444   62.9288   -2.9256 C   0  0  0  0  0  0  0  0  0  0  0  0
   24.3231   61.6513   -3.4053 O   0  0  0  0  0  0  0  0  0  0  0  0
   25.7048   61.4040   -3.4593 C   0  0  0  0  0  0  0  0  0  0  0  0
   26.3513   62.1779   -4.5887 C   0  0  0  0  0  0  0  0  0  0  0  0
   26.0512   63.9797   -5.4167 H   0  0  0  0  0  0  0  0  0  0  0  0
 20 21  1  0  0  0
 21 22  2  0  0  0
 21 26  1  0  0  0
 22 23  1  0  0  0
 23 24  2  0  0  0
 24 25  1  0  0  0
 24 18  1  0  0  0
 25 26  2  0  0  0
 18 19  2  0  0  0
 18  1  1  0  0  0
  1  2  1  0  0  0
  1  6  1  0  0  0
  2  3  1  0  0  0
  2  8  1  0  0  0
  3  4  1  0  0  0
  3 27  1  0  0  0
  4  5  2  0  0  0
  4  6  1  0  0  0
  6  7  2  0  0  0
 27 28  1  0  0  0
 28 29  1  0  0  0
 29 30  1  0  0  0
 29 34  1  0  0  0
 30 31  1  0  0  0
 31 32  1  0  0  0
 32 33  1  0  0  0
 33 34  1  0  0  0
  8  9  2  0  0  0
  8 13  1  0  0  0
  9 10  1  0  0  0
 10 11  2  0  0  0
 10 15  1  0  0  0
 11 12  1  0  0  0
 11 14  1  0  0  0
 12 13  2  0  0  0
 15 16  1  0  0  0
 16 17  1  0  0  0
 29 35  1  0  0  0
M  CHG 1  14  -1
M  CHG 1  29   1
M  END
> <minimizedAffinity>
-7.07555

$$$$
1676


 25 28  0  0  0  0  0  0  0  0999 V2000
   19.3943   63.6999  -10.6902 C   0  0  0  0  0  0  0  0  0  0  0  0
   20.0789   63.7017  -11.7312 O   0  0  0  0  0  0  0  0  0  0  0  0
   19.9010   64.3518   -9.5376 N   0  0  0  0  0  0  0  0  0  0  0  0
   19.3439   64.3578   -8.6677 H   0  0  0  0  0  0  0  0  0  0  0  0
   14.1706   63.9301  -11.6907 Br  0  0  0  0  0  0  0  0  0  0  0  0
   15.7582   63.0287  -11.1234 C   0  0  0  0  0  0  0  0  0  0  0  0
   15.7091   61.7133  -10.7145 C   0  0  0  0  0  0  0  0  0  0  0  0
   16.8397   61.0465  -10.3029 C   0  0  0  0  0  0  0  0  0  0  0  0
   17.0863   59.7898   -9.8608 N   0  0  0  0  0  0  0  0  0  0  0  0
   18.3791   59.7065   -9.6051 N   0  0  0  0  0  0  0  0  0  0  0  0
   18.9901   60.8315   -9.8531 N   0  0  0  0  0  0  0  0  0  0  0  0
   18.0454   61.7039  -10.2969 C   0  0  0  0  0  0  0  0  0  0  0  0
   18.1011   63.0251  -10.7054 C   0  0  0  0  0  0  0  0  0  0  0  0
   16.9575   63.6916  -11.1200 C   0  0  0  0  0  0  0  0  0  0  0  0
   19.9884   61.1119   -9.7652 H   0  0  0  0  0  0  0  0  0  0  0  0
   21.1840   65.0106   -9.5518 C   0  0  0  0  0  0  0  0  0  0  0  0
   22.1966   64.1192   -8.8857 C   0  0  0  0  0  0  0  0  0  0  0  0
   22.9065   64.3876   -7.7781 N   0  0  0  0  0  0  0  0  0  0  0  0
   23.7194   63.3543   -7.4704 C   0  0  0  0  0  0  0  0  0  0  0  0
   23.5059   62.4256   -8.4106 N   0  0  0  0  0  0  0  0  0  0  0  0
   22.5841   62.8870   -9.2696 N   0  0  0  0  0  0  0  0  0  0  0  0
   24.5675   63.5193   -6.2581 C   0  0  0  0  0  0  0  0  0  0  0  0
   23.5795   63.8742   -5.1375 C   0  0  0  0  0  0  0  0  0  0  0  0
   22.7226   65.0490   -5.4788 C   0  0  0  0  0  0  0  0  0  0  0  0
   22.9574   65.5307   -6.8940 C   0  0  0  0  0  0  0  0  0  0  0  0
  5  6  1  0  0  0
  6  7  2  0  0  0
  6 14  1  0  0  0
  7  8  1  0  0  0
  8  9  1  0  0  0
  8 12  2  0  0  0
  9 10  2  0  0  0
 10 11  1  0  0  0
 11 12  1  0  0  0
 12 13  1  0  0  0
 13 14  2  0  0  0
 13  1  1  0  0  0
  1  2  2  0  0  0
  1  3  1  0  0  0
  3 16  1  0  0  0
 16 17  1  0  0  0
 17 18  1  0  0  0
 17 21  2  0  0  0
 18 19  1  0  0  0
 18 25  1  0  0  0
 19 20  2  0  0  0
 19 22  1  0  0  0
 20 21  1  0  0  0
 22 23  1  0  0  0
 23 24  1  0  0  0
 24 25  1  0  0  0
 11 15  1  0  0  0
  3  4  1  0  0  0
M  END
> <minimizedAffinity>
-9.25542

$$$$
1687


 27 30  0  0  0  0  0  0  0  0999 V2000
   18.5723   63.2122  -10.8560 N   0  0  0  0  0  0  0  0  0  0  0  0
   18.4273   61.9173  -10.4949 C   0  0  0  0  0  0  0  0  0  0  0  0
   17.1993   61.2934  -10.4797 C   0  0  0  0  0  0  0  0  0  0  0  0
   16.0085   62.0414  -10.8638 C   0  0  0  0  0  0  0  0  0  0  0  0
   14.9788   61.1899  -10.7544 N   0  0  0  0  0  0  0  0  0  0  0  0
   15.4099   59.9877  -10.3415 N   0  0  0  0  0  0  0  0  0  0  0  0
   16.7405   60.0308  -10.1717 C   0  0  0  0  0  0  0  0  0  0  0  0
   17.4313   59.0589   -9.7902 O   0  0  0  0  0  0  0  0  0  0  0  0
   16.1934   63.3648  -11.2272 C   0  0  0  0  0  0  0  0  0  0  0  0
   17.4612   63.8767  -11.2047 C   0  0  0  0  0  0  0  0  0  0  0  0
   14.7574   59.1769  -10.1923 H   0  0  0  0  0  0  0  0  0  0  0  0
   15.0247   64.1453  -11.6179 C   0  0  0  0  0  0  0  0  0  0  0  0
   14.0581   64.2386  -10.8196 O   0  0  0  0  0  0  0  0  0  0  0  0
   14.9529   64.7776  -12.8306 O   0  0  0  0  0  0  0  0  0  0  0  0
   13.7091   65.0389  -13.4605 C   0  0  0  0  0  0  0  0  0  0  0  0
   19.8882   63.8414  -10.8607 C   0  0  0  0  0  0  0  0  0  0  0  0
   20.1792   64.3227   -9.4561 C   0  0  0  0  0  0  0  0  0  0  0  0
   24.4847   63.9793   -3.9277 Cl  0  0  0  0  0  0  0  0  0  0  0  0
   23.5610   63.9685   -5.4296 C   0  0  0  0  0  0  0  0  0  0  0  0
   24.0684   63.4391   -6.5974 C   0  0  0  0  0  0  0  0  0  0  0  0
   23.2999   63.4576   -7.7442 C   0  0  0  0  0  0  0  0  0  0  0  0
   23.5145   63.0251   -9.0165 N   0  0  0  0  0  0  0  0  0  0  0  0
   22.4239   63.2889   -9.7574 C   0  0  0  0  0  0  0  0  0  0  0  0
   21.4832   63.8914   -8.9997 N   0  0  0  0  0  0  0  0  0  0  0  0
   22.0265   63.9900   -7.7734 C   0  0  0  0  0  0  0  0  0  0  0  0
   21.5112   64.5198   -6.6134 C   0  0  0  0  0  0  0  0  0  0  0  0
   22.2856   64.4981   -5.4712 C   0  0  0  0  0  0  0  0  0  0  0  0
 18 19  1  0  0  0
 19 20  2  0  0  0
 19 27  1  0  0  0
 20 21  1  0  0  0
 21 22  1  0  0  0
 21 25  2  0  0  0
 22 23  2  0  0  0
 23 24  1  0  0  0
 24 25  1  0  0  0
 24 17  1  0  0  0
 25 26  1  0  0  0
 26 27  2  0  0  0
 17 16  1  0  0  0
 16  1  1  0  0  0
  1  2  1  0  0  0
  1 10  1  0  0  0
  2  3  2  0  0  0
  3  4  1  0  0  0
  3  7  1  0  0  0
  4  5  2  0  0  0
  4  9  1  0  0  0
  5  6  1  0  0  0
  6  7  1  0  0  0
  7  8  2  0  0  0
  9 10  2  0  0  0
  9 12  1  0  0  0
 12 13  2  0  0  0
 12 14  1  0  0  0
 14 15  1  0  0  0
  6 11  1  0  0  0
M  END
> <minimizedAffinity>
-9.08819

$$$$
1689


 32 35  0  0  0  0  0  0  0  0999 V2000
   21.0392   64.0553   -8.6616 C   0  0  0  0  0  0  0  0  0  0  0  0
   21.4020   64.5516   -9.7562 O   0  0  0  0  0  0  0  0  0  0  0  0
   21.3689   64.7393   -7.4725 N   0  0  0  0  0  0  0  0  0  0  0  0
   21.0991   64.4118   -6.0877 C   0  0  0  0  0  0  0  0  0  0  0  0
   22.3339   64.7914   -5.4011 C   0  0  0  0  0  0  0  0  0  0  0  0
   23.1720   65.6025   -6.3919 C   0  0  0  0  0  0  0  0  0  0  0  0
   22.0843   65.9874   -7.4167 C   0  0  0  0  0  0  0  0  0  0  0  0
   23.7357   66.7217   -5.8323 O   0  0  0  0  0  0  0  0  0  0  0  0
   23.1021   67.4745   -5.9414 H   0  0  0  0  0  0  0  0  0  0  0  0
   23.1211   63.8432   -4.7139 N   0  0  0  0  0  0  0  0  0  0  0  0
   24.3636   63.5853   -5.2046 C   0  0  0  0  0  0  0  0  0  0  0  0
   25.2089   62.6796   -4.6043 C   0  0  0  0  0  0  0  0  0  0  0  0
   24.8110   62.0036   -3.4748 C   0  0  0  0  0  0  0  0  0  0  0  0
   25.5693   61.1645   -2.9021 O   0  0  0  0  0  0  0  0  0  0  0  0
   23.5858   62.2583   -2.9905 N   0  0  0  0  0  0  0  0  0  0  0  0
   22.8103   63.1474   -3.6156 C   0  0  0  0  0  0  0  0  0  0  0  0
   21.6824   63.3465   -3.1203 O   0  0  0  0  0  0  0  0  0  0  0  0
   26.5762   62.4069   -5.1569 C   0  0  0  0  0  0  0  0  0  0  0  0
   23.2514   61.7459   -2.1167 H   0  0  0  0  0  0  0  0  0  0  0  0
   20.2893   62.7823   -8.6838 C   0  0  0  0  0  0  0  0  0  0  0  0
   20.0221   62.3566  -10.0955 C   0  0  0  0  0  0  0  0  0  0  0  0
   12.9815   64.5204  -12.2198 Cl  0  0  0  0  0  0  0  0  0  0  0  0
   14.3108   63.5468  -11.6386 C   0  0  0  0  0  0  0  0  0  0  0  0
   15.5865   64.0893  -11.5591 C   0  0  0  0  0  0  0  0  0  0  0  0
   16.6505   63.3321  -11.0987 C   0  0  0  0  0  0  0  0  0  0  0  0
   17.9599   63.5589  -10.9111 N   0  0  0  0  0  0  0  0  0  0  0  0
   18.5876   62.4527  -10.4255 C   0  0  0  0  0  0  0  0  0  0  0  0
   17.6019   61.5222  -10.3197 N   0  0  0  0  0  0  0  0  0  0  0  0
   16.4292   62.0301  -10.7197 C   0  0  0  0  0  0  0  0  0  0  0  0
   15.1606   61.4969  -10.8009 C   0  0  0  0  0  0  0  0  0  0  0  0
   14.0836   62.2417  -11.2595 C   0  0  0  0  0  0  0  0  0  0  0  0
   18.3910   64.4914  -11.1291 H   0  0  0  0  0  0  0  0  0  0  0  0
 22 23  1  0  0  0
 23 24  2  0  0  0
 23 31  1  0  0  0
 24 25  1  0  0  0
 25 26  1  0  0  0
 25 29  2  0  0  0
 26 27  1  0  0  0
 27 28  2  0  0  0
 27 21  1  0  0  0
 28 29  1  0  0  0
 29 30  1  0  0  0
 30 31  2  0  0  0
 21 20  1  0  0  0
 20  1  1  0  0  0
  1  2  2  0  0  0
  1  3  1  0  0  0
  3  4  1  0  0  0
  3  7  1  0  0  0
  4  5  1  0  0  0
  5  6  1  0  0  0
  5 10  1  0  0  0
  6  7  1  0  0  0
  6  8  1  0  0  0
 10 11  1  0  0  0
 10 16  1  0  0  0
 11 12  2  0  0  0
 12 13  1  0  0  0
 12 18  1  0  0  0
 13 14  2  0  0  0
 13 15  1  0  0  0
 15 16  1  0  0  0
 16 17  2  0  0  0
 26 32  1  0  0  0
  8  9  1  0  0  0
 15 19  1  0  0  0
M  END
> <minimizedAffinity>
-10.57556

$$$$
1690


 34 37  0  0  0  0  0  0  0  0999 V2000
   20.6791   63.8829   -9.2641 C   0  0  0  0  0  0  0  0  0  0  0  0
   19.5811   63.2830   -9.1373 O   0  0  0  0  0  0  0  0  0  0  0  0
   21.2321   64.6339   -8.1842 N   0  0  0  0  0  0  0  0  0  0  0  0
   22.4869   65.3487   -8.2573 C   0  0  0  0  0  0  0  0  0  0  0  0
   23.2347   65.2561   -6.9161 C   0  0  0  0  0  0  0  0  0  0  0  0
   22.7728   63.9984   -6.2634 C   0  0  0  0  0  0  0  0  0  0  0  0
   21.3506   64.1793   -5.7845 C   0  0  0  0  0  0  0  0  0  0  0  0
   20.5075   64.6942   -6.9328 C   0  0  0  0  0  0  0  0  0  0  0  0
   24.5945   65.2137   -7.2577 O   0  0  0  0  0  0  0  0  0  0  0  0
   22.9382   66.5155   -6.1652 C   0  0  0  0  0  0  0  0  0  0  0  0
   24.9511   66.1584   -7.2921 H   0  0  0  0  0  0  0  0  0  0  0  0
   23.6366   63.4513   -5.2778 N   0  0  0  0  0  0  0  0  0  0  0  0
   23.5053   63.6800   -3.9627 C   0  0  0  0  0  0  0  0  0  0  0  0
   24.3702   63.1272   -3.0268 C   0  0  0  0  0  0  0  0  0  0  0  0
   25.3951   62.3186   -3.4601 C   0  0  0  0  0  0  0  0  0  0  0  0
   26.1886   61.8102   -2.6079 O   0  0  0  0  0  0  0  0  0  0  0  0
   25.5245   62.0922   -4.7749 N   0  0  0  0  0  0  0  0  0  0  0  0
   24.6608   62.6501   -5.6406 C   0  0  0  0  0  0  0  0  0  0  0  0
   24.7883   62.4310   -6.8967 O   0  0  0  0  0  0  0  0  0  0  0  0
   24.1715   63.4193   -1.5653 C   0  0  0  0  0  0  0  0  0  0  0  0
   26.2959   61.4815   -5.1154 H   0  0  0  0  0  0  0  0  0  0  0  0
   21.4237   63.8286  -10.5339 C   0  0  0  0  0  0  0  0  0  0  0  0
   22.8139   63.3220  -10.2785 C   0  0  0  0  0  0  0  0  0  0  0  0
   25.0804   63.5496  -17.6082 Cl  0  0  0  0  0  0  0  0  0  0  0  0
   25.1059   63.4895  -15.8609 C   0  0  0  0  0  0  0  0  0  0  0  0
   23.9480   63.4815  -15.1026 C   0  0  0  0  0  0  0  0  0  0  0  0
   23.9781   63.4338  -13.7292 C   0  0  0  0  0  0  0  0  0  0  0  0
   23.0258   63.4162  -12.7877 N   0  0  0  0  0  0  0  0  0  0  0  0
   23.5815   63.3660  -11.5460 C   0  0  0  0  0  0  0  0  0  0  0  0
   24.8888   63.3539  -11.7592 N   0  0  0  0  0  0  0  0  0  0  0  0
   25.1782   63.3944  -13.0630 C   0  0  0  0  0  0  0  0  0  0  0  0
   26.3446   63.4019  -13.7951 C   0  0  0  0  0  0  0  0  0  0  0  0
   26.3114   63.4492  -15.1833 C   0  0  0  0  0  0  0  0  0  0  0  0
   21.9817   63.4369  -12.9497 H   0  0  0  0  0  0  0  0  0  0  0  0
 24 25  1  0  0  0
 25 26  2  0  0  0
 25 33  1  0  0  0
 26 27  1  0  0  0
 27 28  1  0  0  0
 27 31  2  0  0  0
 28 29  1  0  0  0
 29 30  2  0  0  0
 29 23  1  0  0  0
 30 31  1  0  0  0
 31 32  1  0  0  0
 32 33  2  0  0  0
 23 22  1  0  0  0
 22  1  1  0  0  0
  1  2  2  0  0  0
  1  3  1  0  0  0
  3  4  1  0  0  0
  3  8  1  0  0  0
  4  5  1  0  0  0
  5  6  1  0  0  0
  5  9  1  0  0  0
  5 10  1  0  0  0
  6  7  1  0  0  0
  6 12  1  0  0  0
  7  8  1  0  0  0
 12 13  1  0  0  0
 12 18  1  0  0  0
 13 14  2  0  0  0
 14 15  1  0  0  0
 14 20  1  0  0  0
 15 16  2  0  0  0
 15 17  1  0  0  0
 17 18  1  0  0  0
 18 19  2  0  0  0
 28 34  1  0  0  0
 17 21  1  0  0  0
  9 11  1  0  0  0
M  END
> <minimizedAffinity>
-7.68326

$$$$
1691


 35 39  0  0  0  0  0  0  0  0999 V2000
   13.9463   64.0454  -12.1469 C   0  0  0  0  0  0  0  0  0  0  0  0
   13.3002   63.2869  -11.3988 O   0  0  0  0  0  0  0  0  0  0  0  0
   13.2832   64.8049  -13.1242 N   0  0  0  0  0  0  0  0  0  0  0  0
   11.9036   64.8964  -13.4830 C   0  0  0  0  0  0  0  0  0  0  0  0
   11.9095   64.9460  -15.0298 C   0  0  0  0  0  0  0  0  0  0  0  0
   13.1634   65.7153  -15.2517 C   0  0  0  0  0  0  0  0  0  0  0  0
   13.9732   65.7326  -13.9996 C   0  0  0  0  0  0  0  0  0  0  0  0
   12.9398   67.0446  -15.6089 O   0  0  0  0  0  0  0  0  0  0  0  0
   11.9754   67.2896  -15.5277 H   0  0  0  0  0  0  0  0  0  0  0  0
   11.9398   63.6015  -15.5312 N   0  0  0  0  0  0  0  0  0  0  0  0
   10.9227   62.7288  -15.6242 C   0  0  0  0  0  0  0  0  0  0  0  0
   11.4099   61.5271  -16.1775 C   0  0  0  0  0  0  0  0  0  0  0  0
   12.7197   61.7252  -16.3976 N   0  0  0  0  0  0  0  0  0  0  0  0
   13.0522   62.9566  -16.0180 C   0  0  0  0  0  0  0  0  0  0  0  0
   10.5797   60.4493  -16.3881 C   0  0  0  0  0  0  0  0  0  0  0  0
   11.0446   59.3884  -16.8845 O   0  0  0  0  0  0  0  0  0  0  0  0
    9.2917   60.5822  -16.0509 N   0  0  0  0  0  0  0  0  0  0  0  0
    8.8388   61.7226  -15.5282 C   0  0  0  0  0  0  0  0  0  0  0  0
    7.6238   61.8311  -15.2154 O   0  0  0  0  0  0  0  0  0  0  0  0
    9.6185   62.8228  -15.2973 N   0  0  0  0  0  0  0  0  0  0  0  0
    9.0654   64.0127  -14.7322 C   0  0  0  0  0  0  0  0  0  0  0  0
    8.3832   59.4531  -16.2635 C   0  0  0  0  0  0  0  0  0  0  0  0
   15.4068   64.1356  -11.9959 C   0  0  0  0  0  0  0  0  0  0  0  0
   15.8496   63.4596  -10.7176 C   0  0  0  0  0  0  0  0  0  0  0  0
   23.2433   63.4405   -8.6020 Cl  0  0  0  0  0  0  0  0  0  0  0  0
   21.7739   63.4483   -9.5700 C   0  0  0  0  0  0  0  0  0  0  0  0
   20.5268   63.4446   -8.9903 C   0  0  0  0  0  0  0  0  0  0  0  0
   19.3858   63.4508   -9.7934 C   0  0  0  0  0  0  0  0  0  0  0  0
   18.0693   63.4507   -9.5259 N   0  0  0  0  0  0  0  0  0  0  0  0
   17.3484   63.4587  -10.6609 C   0  0  0  0  0  0  0  0  0  0  0  0
   18.2350   63.4640  -11.6566 N   0  0  0  0  0  0  0  0  0  0  0  0
   19.4923   63.4603  -11.1675 C   0  0  0  0  0  0  0  0  0  0  0  0
   20.7428   63.4626  -11.7480 C   0  0  0  0  0  0  0  0  0  0  0  0
   21.8753   63.4566  -10.9334 C   0  0  0  0  0  0  0  0  0  0  0  0
   17.6860   63.4438   -8.5427 H   0  0  0  0  0  0  0  0  0  0  0  0
 25 26  1  0  0  0
 26 27  2  0  0  0
 26 34  1  0  0  0
 27 28  1  0  0  0
 28 29  1  0  0  0
 28 32  2  0  0  0
 29 30  1  0  0  0
 30 31  2  0  0  0
 30 24  1  0  0  0
 31 32  1  0  0  0
 32 33  1  0  0  0
 33 34  2  0  0  0
 24 23  1  0  0  0
 23  1  1  0  0  0
  1  2  2  0  0  0
  1  3  1  0  0  0
  3  4  1  0  0  0
  3  7  1  0  0  0
  4  5  1  0  0  0
  5  6  1  0  0  0
  5 10  1  0  0  0
  6  7  1  0  0  0
  6  8  1  0  0  0
 10 11  1  0  0  0
 10 14  1  0  0  0
 11 12  2  0  0  0
 11 20  1  0  0  0
 12 13  1  0  0  0
 12 15  1  0  0  0
 13 14  2  0  0  0
 15 16  2  0  0  0
 15 17  1  0  0  0
 17 18  1  0  0  0
 17 22  1  0  0  0
 18 19  2  0  0  0
 18 20  1  0  0  0
 20 21  1  0  0  0
 29 35  1  0  0  0
  8  9  1  0  0  0
M  END
> <minimizedAffinity>
-6.97283

$$$$
1699


 31 34  0  0  0  0  0  0  0  0999 V2000
   14.6735   65.1489  -11.1448 Cl  0  0  0  0  0  0  0  0  0  0  0  0
   15.7714   63.8581  -10.7790 C   0  0  0  0  0  0  0  0  0  0  0  0
   17.0427   64.1211  -10.2900 C   0  0  0  0  0  0  0  0  0  0  0  0
   17.9274   63.1041   -9.9941 C   0  0  0  0  0  0  0  0  0  0  0  0
   17.5162   61.8163  -10.1968 C   0  0  0  0  0  0  0  0  0  0  0  0
   16.2430   61.5098  -10.6868 C   0  0  0  0  0  0  0  0  0  0  0  0
   15.3851   62.5491  -10.9714 C   0  0  0  0  0  0  0  0  0  0  0  0
   18.5645   60.9185   -9.8572 N   0  0  0  0  0  0  0  0  0  0  0  0
   19.6791   61.6845   -9.4267 C   0  0  0  0  0  0  0  0  0  0  0  0
   20.7748   61.1278   -9.0928 O   0  0  0  0  0  0  0  0  0  0  0  0
   19.2887   63.0878   -9.4625 C   0  0  0  0  0  0  0  0  0  0  0  0
   19.3647   63.7145   -8.1400 N   0  0  0  0  0  0  0  0  0  0  0  0
   20.7923   63.8928   -7.9981 C   0  0  0  0  0  0  0  0  0  0  0  0
   21.2988   64.3131   -9.3396 C   0  0  0  0  0  0  0  0  0  0  0  0
   20.1607   63.9919  -10.2607 C   0  0  0  0  0  0  0  0  0  0  0  0
   20.7284   63.3820  -11.4882 C   0  0  0  0  0  0  0  0  0  0  0  0
   20.0056   63.1285  -12.4870 O   0  0  0  0  0  0  0  0  0  0  0  0
   22.1160   63.1863  -11.2695 N   0  0  0  0  0  0  0  0  0  0  0  0
   22.3616   63.4027   -9.8750 C   0  0  0  0  0  0  0  0  0  0  0  0
   23.2777   62.9434   -9.1854 O   0  0  0  0  0  0  0  0  0  0  0  0
   18.5263   59.8576   -9.9108 H   0  0  0  0  0  0  0  0  0  0  0  0
   18.9381   64.6607   -8.2590 H   0  0  0  0  0  0  0  0  0  0  0  0
   21.1456   64.8644   -6.9014 C   0  0  0  0  0  0  0  0  0  0  0  0
   20.8145   64.2728   -5.6887 O   0  0  0  0  0  0  0  0  0  0  0  0
   22.6034   65.2459   -6.9123 C   0  0  0  0  0  0  0  0  0  0  0  0
   21.6069   63.9311   -5.2011 H   0  0  0  0  0  0  0  0  0  0  0  0
   23.0855   62.8476  -12.2411 C   0  0  0  0  0  0  0  0  0  0  0  0
   24.4147   63.4917  -12.1902 C   0  0  0  0  0  0  0  0  0  0  0  0
   25.0972   63.7743  -13.4728 C   0  0  0  0  0  0  0  0  0  0  0  0
   26.4427   63.4451  -13.5338 O   0  0  0  0  0  0  0  0  0  0  0  0
   26.8431   63.5559  -14.8874 C   0  0  0  0  0  0  0  0  0  0  0  0
  1  2  1  0  0  0
  2  3  2  0  0  0
  2  7  1  0  0  0
  3  4  1  0  0  0
  4  5  2  0  0  0
  4 11  1  0  0  0
  5  6  1  0  0  0
  5  8  1  0  0  0
  6  7  2  0  0  0
  8  9  1  0  0  0
  9 10  2  0  0  0
  9 11  1  0  0  0
 11 12  1  0  0  0
 11 15  1  0  0  0
 12 13  1  0  0  0
 13 14  1  0  0  0
 13 23  1  0  0  0
 14 15  1  0  0  0
 14 19  1  0  0  0
 15 16  1  0  0  0
 16 17  2  0  0  0
 16 18  1  0  0  0
 18 19  1  0  0  0
 18 27  1  0  0  0
 19 20  2  0  0  0
 27 28  1  0  0  0
 28 29  1  0  0  0
 29 30  1  0  0  0
 30 31  1  0  0  0
 23 24  1  0  0  0
 23 25  1  0  0  0
  8 21  1  0  0  0
 12 22  1  0  0  0
 24 26  1  0  0  0
M  END
> <minimizedAffinity>
-7.25054

$$$$
1706


 25 28  0  0  0  0  0  0  0  0999 V2000
   24.2354   63.9835  -11.1873 F   0  0  0  0  0  0  0  0  0  0  0  0
   22.9552   63.5727  -11.4766 C   0  0  0  0  0  0  0  0  0  0  0  0
   22.0201   63.5104  -10.4358 C   0  0  0  0  0  0  0  0  0  0  0  0
   20.7470   63.1062  -10.7013 C   0  0  0  0  0  0  0  0  0  0  0  0
   20.3751   62.7553  -12.0064 C   0  0  0  0  0  0  0  0  0  0  0  0
   21.3082   62.8256  -13.0037 C   0  0  0  0  0  0  0  0  0  0  0  0
   22.5983   63.2301  -12.7580 C   0  0  0  0  0  0  0  0  0  0  0  0
   23.8007   63.3195  -14.0519 Cl  0  0  0  0  0  0  0  0  0  0  0  0
   19.9679   63.1308   -9.4356 C   0  0  0  0  0  0  0  0  0  0  0  0
   19.4615   61.8220   -9.1667 N   0  0  0  0  0  0  0  0  0  0  0  0
   18.2289   61.3934   -9.7026 C   0  0  0  0  0  0  0  0  0  0  0  0
   17.8798   60.0815   -9.7486 N   0  0  0  0  0  0  0  0  0  0  0  0
   16.7267   59.6230  -10.2454 C   0  0  0  0  0  0  0  0  0  0  0  0
   15.8018   60.5278  -10.7550 C   0  0  0  0  0  0  0  0  0  0  0  0
   16.0757   61.8667  -10.7467 C   0  0  0  0  0  0  0  0  0  0  0  0
   17.2838   62.2685  -10.2193 C   0  0  0  0  0  0  0  0  0  0  0  0
   17.6726   63.6809  -10.1638 C   0  0  0  0  0  0  0  0  0  0  0  0
   16.8321   64.5236  -10.6296 O   0  0  0  0  0  0  0  0  0  0  0  0
   18.9032   64.1001   -9.6270 N   0  0  0  0  0  0  0  0  0  0  0  0
   20.9265   63.5873   -8.4231 C   0  0  0  0  0  0  0  0  0  0  0  0
   20.7062   63.7629   -7.1684 O   0  0  0  0  0  0  0  0  0  0  0  0
   22.1661   63.8152   -9.0423 N   0  0  0  0  0  0  0  0  0  0  0  0
   19.9909   61.1455   -8.5640 H   0  0  0  0  0  0  0  0  0  0  0  0
   19.0033   65.1126   -9.3846 H   0  0  0  0  0  0  0  0  0  0  0  0
   23.0726   64.1474   -8.6183 H   0  0  0  0  0  0  0  0  0  0  0  0
  1  2  1  0  0  0
  2  3  2  0  0  0
  2  7  1  0  0  0
  3  4  1  0  0  0
  3 22  1  0  0  0
  4  5  2  0  0  0
  4  9  1  0  0  0
  5  6  1  0  0  0
  6  7  2  0  0  0
  7  8  1  0  0  0
  9 10  1  0  0  0
  9 19  1  0  0  0
  9 20  1  0  0  0
 10 11  1  0  0  0
 11 12  2  0  0  0
 11 16  1  0  0  0
 12 13  1  0  0  0
 13 14  2  0  0  0
 14 15  1  0  0  0
 15 16  2  0  0  0
 16 17  1  0  0  0
 17 18  2  0  0  0
 17 19  1  0  0  0
 20 21  2  0  0  0
 20 22  1  0  0  0
 10 23  1  0  0  0
 19 24  1  0  0  0
 22 25  1  0  0  0
M  END
> <minimizedAffinity>
-9.16228

$$$$
1711


 30 33  0  0  0  0  0  0  0  0999 V2000
   17.1725   62.6663  -10.1976 N   0  0  0  0  0  0  0  0  0  0  0  0
   17.8543   61.8817  -11.1663 C   0  0  0  0  0  0  0  0  0  0  0  0
   19.3277   61.7305  -10.8838 C   0  0  0  0  0  0  0  0  0  0  0  0
   19.8878   62.8892  -10.2384 N   0  0  0  0  0  0  0  0  0  0  0  0
   19.2305   63.4373   -9.0764 C   0  0  0  0  0  0  0  0  0  0  0  0
   17.8633   62.8359   -8.9722 C   0  0  0  0  0  0  0  0  0  0  0  0
   21.0694   63.5170  -10.7037 C   0  0  0  0  0  0  0  0  0  0  0  0
   21.6436   63.0502  -11.7066 O   0  0  0  0  0  0  0  0  0  0  0  0
   16.2758   63.9645  -10.7707 S   0  0  0  0  0  0  0  0  0  0  0  0
   15.8716   64.8345   -9.5884 O   0  0  0  0  0  0  0  0  0  0  0  0
   17.1834   64.8418  -11.6120 O   0  0  0  0  0  0  0  0  0  0  0  0
   14.9031   63.5634  -11.7307 C   0  0  0  0  0  0  0  0  0  0  0  0
   14.3202   64.5276  -12.5362 C   0  0  0  0  0  0  0  0  0  0  0  0
   13.2200   64.2599  -13.3251 C   0  0  0  0  0  0  0  0  0  0  0  0
   12.6988   62.9792  -13.2960 C   0  0  0  0  0  0  0  0  0  0  0  0
   13.2894   62.0289  -12.4884 C   0  0  0  0  0  0  0  0  0  0  0  0
   14.3894   62.2825  -11.6952 C   0  0  0  0  0  0  0  0  0  0  0  0
   11.1643   62.5372  -14.3729 Br  0  0  0  0  0  0  0  0  0  0  0  0
   21.6394   64.7077  -10.0347 C   0  0  0  0  0  0  0  0  0  0  0  0
   22.3213   64.3478   -8.8258 N   0  0  0  0  0  0  0  0  0  0  0  0
   23.3406   63.3810   -8.6108 C   0  0  0  0  0  0  0  0  0  0  0  0
   23.8222   62.6561   -9.5088 O   0  0  0  0  0  0  0  0  0  0  0  0
   23.7006   63.3989   -7.2027 C   0  0  0  0  0  0  0  0  0  0  0  0
   22.9364   64.3415   -6.5564 C   0  0  0  0  0  0  0  0  0  0  0  0
   23.1060   64.5382   -5.1924 C   0  0  0  0  0  0  0  0  0  0  0  0
   24.0169   63.8164   -4.4718 C   0  0  0  0  0  0  0  0  0  0  0  0
   24.7988   62.8572   -5.1146 C   0  0  0  0  0  0  0  0  0  0  0  0
   24.6139   62.6766   -6.4773 C   0  0  0  0  0  0  0  0  0  0  0  0
   22.0637   64.9502   -7.5522 C   0  0  0  0  0  0  0  0  0  0  0  0
   21.2394   65.8572   -7.2647 O   0  0  0  0  0  0  0  0  0  0  0  0
  9 10  2  0  0  0
  9 11  2  0  0  0
  9  1  1  0  0  0
  9 12  1  0  0  0
  1  2  1  0  0  0
  1  6  1  0  0  0
  2  3  1  0  0  0
  3  4  1  0  0  0
  4  5  1  0  0  0
  4  7  1  0  0  0
  5  6  1  0  0  0
  7  8  2  0  0  0
  7 19  1  0  0  0
 19 20  1  0  0  0
 20 21  1  0  0  0
 20 29  1  0  0  0
 21 22  2  0  0  0
 21 23  1  0  0  0
 23 24  2  0  0  0
 23 28  1  0  0  0
 24 25  1  0  0  0
 24 29  1  0  0  0
 25 26  2  0  0  0
 26 27  1  0  0  0
 27 28  2  0  0  0
 29 30  2  0  0  0
 12 13  2  0  0  0
 12 17  1  0  0  0
 13 14  1  0  0  0
 14 15  2  0  0  0
 15 16  1  0  0  0
 15 18  1  0  0  0
 16 17  2  0  0  0
M  END
> <minimizedAffinity>
-8.24158

$$$$
1718


 34 38  0  0  0  0  0  0  0  0999 V2000
   20.2987   61.8998  -13.0551 Cl  0  0  0  0  0  0  0  0  0  0  0  0
   19.6225   62.6236  -11.6137 C   0  0  0  0  0  0  0  0  0  0  0  0
   20.4817   63.3848  -10.8203 C   0  0  0  0  0  0  0  0  0  0  0  0
   19.9870   63.9714   -9.6768 C   0  0  0  0  0  0  0  0  0  0  0  0
   18.6402   63.7718   -9.3675 C   0  0  0  0  0  0  0  0  0  0  0  0
   17.7992   63.0178  -10.1570 C   0  0  0  0  0  0  0  0  0  0  0  0
   18.2954   62.4315  -11.3025 C   0  0  0  0  0  0  0  0  0  0  0  0
   21.0338   64.7212   -8.9827 C   0  0  0  0  0  0  0  0  0  0  0  0
   20.6922   66.1173   -8.7852 N   0  0  0  0  0  0  0  0  0  0  0  0
   21.5310   66.5624   -7.6805 C   0  0  0  0  0  0  0  0  0  0  0  0
   21.6950   65.3757   -6.7712 C   0  0  0  0  0  0  0  0  0  0  0  0
   21.3439   64.1709   -7.6087 C   0  0  0  0  0  0  0  0  0  0  0  0
   22.5586   63.3175   -7.6219 C   0  0  0  0  0  0  0  0  0  0  0  0
   22.6369   62.2898   -8.3510 O   0  0  0  0  0  0  0  0  0  0  0  0
   23.5211   63.8489   -6.7269 N   0  0  0  0  0  0  0  0  0  0  0  0
   23.1582   65.1979   -6.4740 C   0  0  0  0  0  0  0  0  0  0  0  0
   23.8885   66.1449   -6.0665 O   0  0  0  0  0  0  0  0  0  0  0  0
   22.2321   64.5483   -9.8193 C   0  0  0  0  0  0  0  0  0  0  0  0
   23.4038   65.0348   -9.6148 O   0  0  0  0  0  0  0  0  0  0  0  0
   21.8568   63.7332  -10.9161 N   0  0  0  0  0  0  0  0  0  0  0  0
   19.6778   66.2455   -8.5709 H   0  0  0  0  0  0  0  0  0  0  0  0
   22.4961   63.4225  -11.6972 H   0  0  0  0  0  0  0  0  0  0  0  0
   24.6346   63.1605   -6.1828 C   0  0  0  0  0  0  0  0  0  0  0  0
   24.6001   62.8465   -4.7399 C   0  0  0  0  0  0  0  0  0  0  0  0
   23.6505   63.5401   -4.0054 O   0  0  0  0  0  0  0  0  0  0  0  0
   23.7992   62.9483   -2.7506 C   0  0  0  0  0  0  0  0  0  0  0  0
   25.3154   62.8835   -2.5270 C   0  0  0  0  0  0  0  0  0  0  0  0
   25.8446   63.0610   -3.9603 C   0  0  0  0  0  0  0  0  0  0  0  0
   20.8632   67.7189   -6.9966 C   0  0  0  0  0  0  0  0  0  0  0  0
   21.9427   68.6792   -6.6023 C   0  0  0  0  0  0  0  0  0  0  0  0
   21.6706   69.4809   -5.6721 O   0  0  0  0  0  0  0  0  0  0  0  0
   23.2133   68.7012   -7.2317 N   0  0  0  0  0  0  0  0  0  0  0  0
   23.8809   67.9364   -7.0113 H   0  0  0  0  0  0  0  0  0  0  0  0
   23.5200   69.4341   -7.9011 H   0  0  0  0  0  0  0  0  0  0  0  0
  1  2  1  0  0  0
  2  3  2  0  0  0
  2  7  1  0  0  0
  3  4  1  0  0  0
  3 20  1  0  0  0
  4  5  2  0  0  0
  4  8  1  0  0  0
  5  6  1  0  0  0
  6  7  2  0  0  0
  8  9  1  0  0  0
  8 12  1  0  0  0
  8 18  1  0  0  0
  9 10  1  0  0  0
 10 11  1  0  0  0
 10 29  1  0  0  0
 11 12  1  0  0  0
 11 16  1  0  0  0
 12 13  1  0  0  0
 13 14  2  0  0  0
 13 15  1  0  0  0
 15 16  1  0  0  0
 15 23  1  0  0  0
 16 17  2  0  0  0
 23 24  1  0  0  0
 24 25  1  0  0  0
 24 28  1  0  0  0
 25 26  1  0  0  0
 26 27  1  0  0  0
 27 28  1  0  0  0
 29 30  1  0  0  0
 30 31  2  0  0  0
 30 32  1  0  0  0
 18 19  2  0  0  0
 18 20  1  0  0  0
  9 21  1  0  0  0
 32 33  1  0  0  0
 32 34  1  0  0  0
 20 22  1  0  0  0
M  END
> <minimizedAffinity>
-8.86668

$$$$
1721


 28 31  0  0  0  0  0  0  0  0999 V2000
   20.8914   63.4954  -11.1831 C   0  0  0  0  0  0  0  0  0  0  0  0
   22.0819   63.6294  -10.3583 C   0  0  0  0  0  0  0  0  0  0  0  0
   23.1821   63.9126  -11.0890 O   0  0  0  0  0  0  0  0  0  0  0  0
   22.2815   63.5204   -9.0101 N   0  0  0  0  0  0  0  0  0  0  0  0
   21.3521   63.1270   -8.0068 C   0  0  0  0  0  0  0  0  0  0  0  0
   21.0643   64.2601   -7.0244 C   0  0  0  0  0  0  0  0  0  0  0  0
   22.2746   65.0281   -6.9616 N   0  0  0  0  0  0  0  0  0  0  0  0
   23.5198   64.3235   -7.0569 C   0  0  0  0  0  0  0  0  0  0  0  0
   23.6641   63.8867   -8.5186 C   0  0  0  0  0  0  0  0  0  0  0  0
   22.2795   66.4260   -6.8087 C   0  0  0  0  0  0  0  0  0  0  0  0
   23.3532   67.0896   -6.2895 N   0  0  0  0  0  0  0  0  0  0  0  0
   23.4217   68.3979   -6.1186 C   0  0  0  0  0  0  0  0  0  0  0  0
   22.3846   69.2202   -6.4590 C   0  0  0  0  0  0  0  0  0  0  0  0
   21.2593   68.6100   -6.9935 C   0  0  0  0  0  0  0  0  0  0  0  0
   21.2108   67.2352   -7.1644 C   0  0  0  0  0  0  0  0  0  0  0  0
   19.6786   63.9429  -10.6092 N   0  0  0  0  0  0  0  0  0  0  0  0
   19.5830   64.8981  -10.2534 H   0  0  0  0  0  0  0  0  0  0  0  0
   17.8169   59.3403   -9.3534 Cl  0  0  0  0  0  0  0  0  0  0  0  0
   17.6365   60.9633   -9.9659 C   0  0  0  0  0  0  0  0  0  0  0  0
   16.4617   61.4309  -10.3663 N   0  0  0  0  0  0  0  0  0  0  0  0
   16.2354   62.6582  -10.8465 C   0  0  0  0  0  0  0  0  0  0  0  0
   15.1637   63.3289  -11.2988 N   0  0  0  0  0  0  0  0  0  0  0  0
   15.5381   64.5672  -11.6622 C   0  0  0  0  0  0  0  0  0  0  0  0
   16.8609   64.6531  -11.4272 N   0  0  0  0  0  0  0  0  0  0  0  0
   17.3381   63.5045  -10.9254 C   0  0  0  0  0  0  0  0  0  0  0  0
   18.5601   63.0301  -10.5126 C   0  0  0  0  0  0  0  0  0  0  0  0
   18.7078   61.7847  -10.0415 N   0  0  0  0  0  0  0  0  0  0  0  0
   17.4882   65.4840  -11.5964 H   0  0  0  0  0  0  0  0  0  0  0  0
 18 19  1  0  0  0
 19 20  2  0  0  0
 19 27  1  0  0  0
 20 21  1  0  0  0
 21 22  1  0  0  0
 21 25  2  0  0  0
 22 23  2  0  0  0
 23 24  1  0  0  0
 24 25  1  0  0  0
 25 26  1  0  0  0
 26 27  2  0  0  0
 26 16  1  0  0  0
 16  1  1  0  0  0
  1  2  1  0  0  0
  2  3  2  0  0  0
  2  4  1  0  0  0
  4  5  1  0  0  0
  4  9  1  0  0  0
  5  6  1  0  0  0
  6  7  1  0  0  0
  7  8  1  0  0  0
  7 10  1  0  0  0
  8  9  1  0  0  0
 10 11  2  0  0  0
 10 15  1  0  0  0
 11 12  1  0  0  0
 12 13  2  0  0  0
 13 14  1  0  0  0
 14 15  2  0  0  0
 24 28  1  0  0  0
 16 17  1  0  0  0
M  END
> <minimizedAffinity>
-8.78566

$$$$
1726


 30 33  0  0  0  0  0  0  0  0999 V2000
   20.5579   63.0619   -8.2471 C   0  0  0  0  0  0  0  0  0  0  0  0
   21.6987   63.9557   -8.2033 N   0  0  0  0  0  0  0  0  0  0  0  0
   21.3270   65.0744   -7.4034 C   0  0  0  0  0  0  0  0  0  0  0  0
   22.2903   65.4322   -6.3161 C   0  0  0  0  0  0  0  0  0  0  0  0
   22.3011   64.4896   -5.1654 C   0  0  0  0  0  0  0  0  0  0  0  0
   23.5153   63.7390   -5.0077 N   0  0  0  0  0  0  0  0  0  0  0  0
   24.3979   63.4965   -5.9949 C   0  0  0  0  0  0  0  0  0  0  0  0
   25.5518   62.7824   -5.8457 C   0  0  0  0  0  0  0  0  0  0  0  0
   25.8534   62.2653   -4.6022 C   0  0  0  0  0  0  0  0  0  0  0  0
   24.9575   62.5087   -3.5885 C   0  0  0  0  0  0  0  0  0  0  0  0
   23.8038   63.2318   -3.7746 C   0  0  0  0  0  0  0  0  0  0  0  0
   23.0064   63.4342   -2.8222 O   0  0  0  0  0  0  0  0  0  0  0  0
   24.0081   64.0889   -7.3304 C   0  0  0  0  0  0  0  0  0  0  0  0
   22.8876   63.2797   -7.8515 C   0  0  0  0  0  0  0  0  0  0  0  0
   23.6573   65.5202   -7.0053 C   0  0  0  0  0  0  0  0  0  0  0  0
   21.8114   64.3057   -9.2033 H   0  0  0  0  0  0  0  0  0  0  0  0
   20.0883   62.7461   -9.6308 C   0  0  0  0  0  0  0  0  0  0  0  0
   21.1533   62.8392  -10.5250 O   0  0  0  0  0  0  0  0  0  0  0  0
   21.2851   63.8153  -10.6928 H   0  0  0  0  0  0  0  0  0  0  0  0
   18.9932   63.7589   -9.9633 C   0  0  0  0  0  0  0  0  0  0  0  0
   17.7964   63.2306   -9.4699 O   0  0  0  0  0  0  0  0  0  0  0  0
   16.1415   65.6489  -10.1581 Br  0  0  0  0  0  0  0  0  0  0  0  0
   15.7939   63.8259  -10.5878 C   0  0  0  0  0  0  0  0  0  0  0  0
   16.6941   62.8715  -10.1704 C   0  0  0  0  0  0  0  0  0  0  0  0
   16.4285   61.5582  -10.4887 C   0  0  0  0  0  0  0  0  0  0  0  0
   15.2832   61.2097  -11.2115 C   0  0  0  0  0  0  0  0  0  0  0  0
   14.3992   62.1912  -11.6164 C   0  0  0  0  0  0  0  0  0  0  0  0
   14.6484   63.4965  -11.3091 C   0  0  0  0  0  0  0  0  0  0  0  0
   13.1671   61.8447  -12.3910 C   0  0  0  0  0  0  0  0  0  0  0  0
   17.6527   60.2141   -9.9261 Br  0  0  0  0  0  0  0  0  0  0  0  0
 22 23  1  0  0  0
 23 24  2  0  0  0
 23 28  1  0  0  0
 24 25  1  0  0  0
 24 21  1  0  0  0
 25 26  2  0  0  0
 25 30  1  0  0  0
 26 27  1  0  0  0
 27 28  2  0  0  0
 27 29  1  0  0  0
 21 20  1  0  0  0
 20 17  1  0  0  0
 17 18  1  0  0  0
 17  1  1  0  0  0
  1  2  1  0  0  0
  2  3  1  0  0  0
  2 14  1  0  0  0
  3  4  1  0  0  0
  4  5  1  0  0  0
  4 15  1  0  0  0
  5  6  1  0  0  0
  6  7  1  0  0  0
  6 11  1  0  0  0
  7  8  2  0  0  0
  7 13  1  0  0  0
  8  9  1  0  0  0
  9 10  2  0  0  0
 10 11  1  0  0  0
 11 12  2  0  0  0
 13 14  1  0  0  0
 13 15  1  0  0  0
 18 19  1  0  0  0
  2 16  1  0  0  0
M  CHG 1   2   1
M  END
> <minimizedAffinity>
-8.31984

$$$$
1732


 28 31  0  0  0  0  0  0  0  0999 V2000
   21.1301   63.4853  -10.9718 N   0  0  0  0  0  0  0  0  0  0  0  0
   20.9565   62.8154  -12.0991 N   0  0  0  0  0  0  0  0  0  0  0  0
   19.6603   62.7202  -12.3737 N   0  0  0  0  0  0  0  0  0  0  0  0
   18.9767   63.3477  -11.3936 C   0  0  0  0  0  0  0  0  0  0  0  0
   19.9178   63.8047  -10.5512 N   0  0  0  0  0  0  0  0  0  0  0  0
   17.5324   63.4910  -11.2856 C   0  0  0  0  0  0  0  0  0  0  0  0
   16.8225   62.4676  -10.7020 C   0  0  0  0  0  0  0  0  0  0  0  0
   15.4481   62.6046  -10.6002 C   0  0  0  0  0  0  0  0  0  0  0  0
   14.7883   63.7163  -11.0595 C   0  0  0  0  0  0  0  0  0  0  0  0
   15.4988   64.7443  -11.6459 C   0  0  0  0  0  0  0  0  0  0  0  0
   16.8721   64.6058  -11.7462 C   0  0  0  0  0  0  0  0  0  0  0  0
   17.4374   61.2813  -10.2011 N   0  0  0  0  0  0  0  0  0  0  0  0
   16.8640   60.0847  -10.2150 N   0  0  0  0  0  0  0  0  0  0  0  0
   17.6915   59.2127   -9.6833 N   0  0  0  0  0  0  0  0  0  0  0  0
   18.7989   59.8599   -9.3279 N   0  0  0  0  0  0  0  0  0  0  0  0
   18.6382   61.1595   -9.6537 C   0  0  0  0  0  0  0  0  0  0  0  0
   22.4080   63.8111  -10.3184 C   0  0  0  0  0  0  0  0  0  0  0  0
   23.9646   63.9764  -12.2875 N   0  0  0  0  0  0  0  0  0  0  0  0
   23.5524   63.3177  -11.1290 C   0  0  0  0  0  0  0  0  0  0  0  0
   24.1228   62.2884  -10.7233 O   0  0  0  0  0  0  0  0  0  0  0  0
   23.4076   64.8455  -12.5441 H   0  0  0  0  0  0  0  0  0  0  0  0
   23.0274   63.8002  -15.1728 Br  0  0  0  0  0  0  0  0  0  0  0  0
   24.7878   63.5190  -14.5354 C   0  0  0  0  0  0  0  0  0  0  0  0
   25.0189   63.6461  -13.1650 C   0  0  0  0  0  0  0  0  0  0  0  0
   26.3260   63.4276  -12.7721 C   0  0  0  0  0  0  0  0  0  0  0  0
   27.3418   63.1024  -13.6742 C   0  0  0  0  0  0  0  0  0  0  0  0
   27.0519   62.9913  -15.0110 C   0  0  0  0  0  0  0  0  0  0  0  0
   25.7633   63.2015  -15.4485 C   0  0  0  0  0  0  0  0  0  0  0  0
 22 23  1  0  0  0
 23 24  2  0  0  0
 23 28  1  0  0  0
 24 25  1  0  0  0
 24 18  1  0  0  0
 25 26  2  0  0  0
 26 27  1  0  0  0
 27 28  2  0  0  0
 18 19  1  0  0  0
 19 20  2  0  0  0
 19 17  1  0  0  0
 17  1  1  0  0  0
  1  2  1  0  0  0
  1  5  1  0  0  0
  2  3  2  0  0  0
  3  4  1  0  0  0
  4  5  2  0  0  0
  4  6  1  0  0  0
  6  7  1  0  0  0
  6 11  2  0  0  0
  7  8  2  0  0  0
  7 12  1  0  0  0
  8  9  1  0  0  0
  9 10  2  0  0  0
 10 11  1  0  0  0
 12 13  1  0  0  0
 12 16  1  0  0  0
 13 14  2  0  0  0
 14 15  1  0  0  0
 15 16  2  0  0  0
 18 21  1  0  0  0
M  END
> <minimizedAffinity>
-9.22069

$$$$
1736


 35 39  0  0  0  0  0  0  0  0999 V2000
   18.4927   59.7132   -9.7823 Cl  0  0  0  0  0  0  0  0  0  0  0  0
   18.5388   61.4832   -9.7385 C   0  0  0  0  0  0  0  0  0  0  0  0
   19.7154   62.1523   -9.5102 C   0  0  0  0  0  0  0  0  0  0  0  0
   19.7423   63.5211   -9.4782 C   0  0  0  0  0  0  0  0  0  0  0  0
   18.5789   64.2211   -9.6763 C   0  0  0  0  0  0  0  0  0  0  0  0
   17.3685   63.5691   -9.9109 C   0  0  0  0  0  0  0  0  0  0  0  0
   17.3747   62.1926   -9.9371 C   0  0  0  0  0  0  0  0  0  0  0  0
   18.8030   65.6168   -9.6047 N   0  0  0  0  0  0  0  0  0  0  0  0
   20.1882   65.7911   -9.3462 C   0  0  0  0  0  0  0  0  0  0  0  0
   20.7709   66.8882   -9.2103 O   0  0  0  0  0  0  0  0  0  0  0  0
   20.8520   64.4765   -9.2589 C   0  0  0  0  0  0  0  0  0  0  0  0
   21.5103   64.2720   -7.9918 N   0  0  0  0  0  0  0  0  0  0  0  0
   22.7121   63.5385   -8.2383 C   0  0  0  0  0  0  0  0  0  0  0  0
   23.2117   63.9592   -9.6008 C   0  0  0  0  0  0  0  0  0  0  0  0
   21.9317   64.3832  -10.2747 C   0  0  0  0  0  0  0  0  0  0  0  0
   21.6771   63.3956  -11.3522 C   0  0  0  0  0  0  0  0  0  0  0  0
   20.5993   63.1243  -11.9391 O   0  0  0  0  0  0  0  0  0  0  0  0
   22.9495   62.7720  -11.6215 N   0  0  0  0  0  0  0  0  0  0  0  0
   23.7301   62.8266  -10.4098 C   0  0  0  0  0  0  0  0  0  0  0  0
   24.6781   62.0681  -10.0787 O   0  0  0  0  0  0  0  0  0  0  0  0
   18.1073   66.4116   -9.7148 H   0  0  0  0  0  0  0  0  0  0  0  0
   20.8833   63.7943   -7.3369 H   0  0  0  0  0  0  0  0  0  0  0  0
   23.7499   63.7790   -7.1629 C   0  0  0  0  0  0  0  0  0  0  0  0
   23.9026   62.5912   -6.4534 O   0  0  0  0  0  0  0  0  0  0  0  0
   23.1412   64.7843   -6.1909 C   0  0  0  0  0  0  0  0  0  0  0  0
   23.1428   62.4739   -5.8395 H   0  0  0  0  0  0  0  0  0  0  0  0
   23.3850   62.1905  -12.8735 C   0  0  0  0  0  0  0  0  0  0  0  0
   24.5999   62.9014  -13.3731 C   0  0  0  0  0  0  0  0  0  0  0  0
   24.6045   63.5066  -14.6120 C   0  0  0  0  0  0  0  0  0  0  0  0
   25.7430   64.1598  -15.0522 C   0  0  0  0  0  0  0  0  0  0  0  0
   26.8895   64.2290  -14.2850 C   0  0  0  0  0  0  0  0  0  0  0  0
   26.8957   63.6275  -13.0460 C   0  0  0  0  0  0  0  0  0  0  0  0
   25.7578   62.9818  -12.6200 C   0  0  0  0  0  0  0  0  0  0  0  0
   23.4428   63.4355  -15.3874 O   0  0  0  0  0  0  0  0  0  0  0  0
   23.5126   63.8551  -16.7542 C   0  0  0  0  0  0  0  0  0  0  0  0
  1  2  1  0  0  0
  2  3  2  0  0  0
  2  7  1  0  0  0
  3  4  1  0  0  0
  4  5  2  0  0  0
  4 11  1  0  0  0
  5  6  1  0  0  0
  5  8  1  0  0  0
  6  7  2  0  0  0
  8  9  1  0  0  0
  9 10  2  0  0  0
  9 11  1  0  0  0
 11 12  1  0  0  0
 11 15  1  0  0  0
 12 13  1  0  0  0
 13 14  1  0  0  0
 13 23  1  0  0  0
 14 15  1  0  0  0
 14 19  1  0  0  0
 15 16  1  0  0  0
 16 17  2  0  0  0
 16 18  1  0  0  0
 18 19  1  0  0  0
 18 27  1  0  0  0
 19 20  2  0  0  0
 27 28  1  0  0  0
 28 29  2  0  0  0
 28 33  1  0  0  0
 29 30  1  0  0  0
 29 34  1  0  0  0
 30 31  2  0  0  0
 31 32  1  0  0  0
 32 33  2  0  0  0
 34 35  1  0  0  0
 23 24  1  0  0  0
 23 25  1  0  0  0
  8 21  1  0  0  0
 12 22  1  0  0  0
 24 26  1  0  0  0
M  END
> <minimizedAffinity>
-3.01520

$$$$
1741


 28 31  0  0  0  0  0  0  0  0999 V2000
   19.8687   63.1283   -8.9219 C   0  0  0  0  0  0  0  0  0  0  0  0
   19.0997   63.1158   -7.9406 O   0  0  0  0  0  0  0  0  0  0  0  0
   20.8071   64.1592   -9.0742 N   0  0  0  0  0  0  0  0  0  0  0  0
   20.9539   65.2468   -8.1321 C   0  0  0  0  0  0  0  0  0  0  0  0
   22.4241   65.3064   -7.7521 C   0  0  0  0  0  0  0  0  0  0  0  0
   23.1421   64.2222   -8.2797 N   0  0  0  0  0  0  0  0  0  0  0  0
   23.1323   63.9761   -9.6630 C   0  0  0  0  0  0  0  0  0  0  0  0
   21.7318   64.2143  -10.2165 C   0  0  0  0  0  0  0  0  0  0  0  0
   19.7666   62.0197   -9.9312 C   0  0  0  0  0  0  0  0  0  0  0  0
   13.4328   64.3975  -12.1793 Br  0  0  0  0  0  0  0  0  0  0  0  0
   15.0461   63.5803  -11.5408 C   0  0  0  0  0  0  0  0  0  0  0  0
   15.0321   62.2462  -11.1280 C   0  0  0  0  0  0  0  0  0  0  0  0
   16.2149   61.6751  -10.6694 C   0  0  0  0  0  0  0  0  0  0  0  0
   17.3914   62.3849  -10.6114 C   0  0  0  0  0  0  0  0  0  0  0  0
   18.3960   61.5982  -10.1288 N   0  0  0  0  0  0  0  0  0  0  0  0
   17.8354   60.4063   -9.8905 C   0  0  0  0  0  0  0  0  0  0  0  0
   16.4924   60.4065  -10.2086 C   0  0  0  0  0  0  0  0  0  0  0  0
   17.4127   63.6992  -11.0169 C   0  0  0  0  0  0  0  0  0  0  0  0
   16.2337   64.2768  -11.4763 C   0  0  0  0  0  0  0  0  0  0  0  0
   23.7263   63.2863   -7.4116 C   0  0  0  0  0  0  0  0  0  0  0  0
   23.6182   63.6334   -5.9700 C   0  0  0  0  0  0  0  0  0  0  0  0
   22.5654   64.2181   -5.6109 O   0  0  0  0  0  0  0  0  0  0  0  0
   24.6104   63.3467   -5.0202 N   0  0  0  0  0  0  0  0  0  0  0  0
   24.4297   63.7285   -3.6338 C   0  0  0  0  0  0  0  0  0  0  0  0
   24.6304   62.4815   -2.7984 C   0  0  0  0  0  0  0  0  0  0  0  0
   25.9784   62.1320   -2.9662 O   0  0  0  0  0  0  0  0  0  0  0  0
   26.2401   61.7185   -4.2505 C   0  0  0  0  0  0  0  0  0  0  0  0
   25.8552   62.6713   -5.3281 C   0  0  0  0  0  0  0  0  0  0  0  0
 10 11  1  0  0  0
 11 12  2  0  0  0
 11 19  1  0  0  0
 12 13  1  0  0  0
 13 14  2  0  0  0
 13 17  1  0  0  0
 14 15  1  0  0  0
 14 18  1  0  0  0
 15 16  1  0  0  0
 15  9  1  0  0  0
 16 17  2  0  0  0
  9  1  1  0  0  0
  1  2  2  0  0  0
  1  3  1  0  0  0
  3  4  1  0  0  0
  3  8  1  0  0  0
  4  5  1  0  0  0
  5  6  1  0  0  0
  6  7  1  0  0  0
  6 20  1  0  0  0
  7  8  1  0  0  0
 20 21  1  0  0  0
 21 22  2  0  0  0
 21 23  1  0  0  0
 23 24  1  0  0  0
 23 28  1  0  0  0
 24 25  1  0  0  0
 25 26  1  0  0  0
 26 27  1  0  0  0
 27 28  1  0  0  0
 18 19  2  0  0  0
M  END
> <minimizedAffinity>
-8.99725

$$$$
1744


 34 37  0  0  0  0  0  0  0  0999 V2000
   21.3324   63.3649   -9.5090 N   0  0  0  0  0  0  0  0  0  0  0  0
   21.9527   63.6608  -10.7592 C   0  0  0  0  0  0  0  0  0  0  0  0
   23.0212   64.3106  -10.8688 O   0  0  0  0  0  0  0  0  0  0  0  0
   21.3258   63.1910  -11.9507 N   0  0  0  0  0  0  0  0  0  0  0  0
   20.1031   62.4441  -11.8561 C   0  0  0  0  0  0  0  0  0  0  0  0
   19.7284   61.8558  -12.9251 O   0  0  0  0  0  0  0  0  0  0  0  0
   19.3203   62.3547  -10.6099 C   0  0  0  0  0  0  0  0  0  0  0  0
   20.1255   62.6229   -9.3932 C   0  0  0  0  0  0  0  0  0  0  0  0
   19.7080   62.1828   -8.2940 O   0  0  0  0  0  0  0  0  0  0  0  0
   21.7285   63.3736  -12.9059 H   0  0  0  0  0  0  0  0  0  0  0  0
   25.0878   62.8345   -6.0078 Cl  0  0  0  0  0  0  0  0  0  0  0  0
   23.7098   63.6766   -6.6641 C   0  0  0  0  0  0  0  0  0  0  0  0
   23.0657   63.2196   -7.7870 C   0  0  0  0  0  0  0  0  0  0  0  0
   21.9664   63.8581   -8.3344 C   0  0  0  0  0  0  0  0  0  0  0  0
   21.5114   64.9871   -7.7241 C   0  0  0  0  0  0  0  0  0  0  0  0
   22.1284   65.4928   -6.5839 C   0  0  0  0  0  0  0  0  0  0  0  0
   23.2225   64.8268   -6.0698 C   0  0  0  0  0  0  0  0  0  0  0  0
   18.1355   63.2903  -10.6597 C   0  0  0  0  0  0  0  0  0  0  0  0
   17.1858   63.3315   -9.7431 C   0  0  0  0  0  0  0  0  0  0  0  0
   16.2470   64.3790  -10.2028 C   0  0  0  0  0  0  0  0  0  0  0  0
   17.1230   65.2546  -10.9604 N   0  0  0  0  0  0  0  0  0  0  0  0
   17.8694   64.2738  -11.6591 N   0  0  0  0  0  0  0  0  0  0  0  0
   16.6499   65.9293  -11.5669 H   0  0  0  0  0  0  0  0  0  0  0  0
   18.1812   64.2087  -12.6280 H   0  0  0  0  0  0  0  0  0  0  0  0
   15.1956   63.7962  -11.0827 C   0  0  0  0  0  0  0  0  0  0  0  0
   14.4583   64.4973  -11.9937 C   0  0  0  0  0  0  0  0  0  0  0  0
   13.5211   63.9012  -12.8142 C   0  0  0  0  0  0  0  0  0  0  0  0
   13.2920   62.5395  -12.7379 C   0  0  0  0  0  0  0  0  0  0  0  0
   14.0532   61.8243  -11.7992 C   0  0  0  0  0  0  0  0  0  0  0  0
   14.9816   62.4346  -10.9891 C   0  0  0  0  0  0  0  0  0  0  0  0
   12.7866   64.6690  -13.7350 O   0  0  0  0  0  0  0  0  0  0  0  0
   12.9694   65.6663  -13.7771 H   0  0  0  0  0  0  0  0  0  0  0  0
   12.3713   61.9113  -13.5414 O   0  0  0  0  0  0  0  0  0  0  0  0
   12.5067   61.8789  -14.9470 C   0  0  0  0  0  0  0  0  0  0  0  0
 11 12  1  0  0  0
 12 13  2  0  0  0
 12 17  1  0  0  0
 13 14  1  0  0  0
 14 15  2  0  0  0
 14  1  1  0  0  0
 15 16  1  0  0  0
 16 17  2  0  0  0
  1  2  1  0  0  0
  1  8  1  0  0  0
  2  3  2  0  0  0
  2  4  1  0  0  0
  4  5  1  0  0  0
  5  6  2  0  0  0
  5  7  1  0  0  0
  7  8  1  0  0  0
  7 18  1  0  0  0
  8  9  2  0  0  0
 18 19  2  0  0  0
 18 22  1  0  0  0
 19 20  1  0  0  0
 20 21  1  0  0  0
 20 25  1  0  0  0
 21 22  1  0  0  0
 25 26  2  0  0  0
 25 30  1  0  0  0
 26 27  1  0  0  0
 27 28  2  0  0  0
 27 31  1  0  0  0
 28 29  1  0  0  0
 28 33  1  0  0  0
 29 30  2  0  0  0
 33 34  1  0  0  0
  4 10  1  0  0  0
 21 23  1  0  0  0
 22 24  1  0  0  0
 31 32  1  0  0  0
M  END
> <minimizedAffinity>
-9.22386

$$$$
1745


 34 37  0  0  0  0  0  0  0  0999 V2000
   11.8669   66.2140  -14.6074 N   0  0  0  0  0  0  0  0  0  0  0  0
   10.8705   65.2631  -14.2686 C   0  0  0  0  0  0  0  0  0  0  0  0
    9.7187   65.6101  -13.9742 O   0  0  0  0  0  0  0  0  0  0  0  0
   11.1888   63.8640  -14.2598 N   0  0  0  0  0  0  0  0  0  0  0  0
   12.4985   63.4071  -14.5920 C   0  0  0  0  0  0  0  0  0  0  0  0
   12.7157   62.2555  -15.0068 O   0  0  0  0  0  0  0  0  0  0  0  0
   13.6493   64.3649  -14.4285 C   0  0  0  0  0  0  0  0  0  0  0  0
   13.1673   65.6715  -14.9239 C   0  0  0  0  0  0  0  0  0  0  0  0
   13.9038   66.4034  -15.6786 O   0  0  0  0  0  0  0  0  0  0  0  0
   10.4523   63.1916  -14.0103 H   0  0  0  0  0  0  0  0  0  0  0  0
   12.0567   70.5982  -12.0198 Cl  0  0  0  0  0  0  0  0  0  0  0  0
   11.7178   69.7384  -13.4975 C   0  0  0  0  0  0  0  0  0  0  0  0
   11.9075   68.3747  -13.5324 C   0  0  0  0  0  0  0  0  0  0  0  0
   11.6531   67.6167  -14.6816 C   0  0  0  0  0  0  0  0  0  0  0  0
   11.2033   68.3094  -15.7746 C   0  0  0  0  0  0  0  0  0  0  0  0
   11.0116   69.6740  -15.7487 C   0  0  0  0  0  0  0  0  0  0  0  0
   11.2670   70.4215  -14.5957 C   0  0  0  0  0  0  0  0  0  0  0  0
   14.0609   64.3964  -12.9930 C   0  0  0  0  0  0  0  0  0  0  0  0
   13.5011   63.8082  -11.9559 C   0  0  0  0  0  0  0  0  0  0  0  0
   14.2869   64.1449  -10.7371 C   0  0  0  0  0  0  0  0  0  0  0  0
   14.9261   65.4148  -11.1670 N   0  0  0  0  0  0  0  0  0  0  0  0
   15.1871   65.1452  -12.5167 N   0  0  0  0  0  0  0  0  0  0  0  0
   14.2630   66.2041  -11.0356 H   0  0  0  0  0  0  0  0  0  0  0  0
   15.9957   65.4128  -13.0676 H   0  0  0  0  0  0  0  0  0  0  0  0
   15.4003   63.1681  -10.5929 C   0  0  0  0  0  0  0  0  0  0  0  0
   16.6891   63.5747  -10.1861 C   0  0  0  0  0  0  0  0  0  0  0  0
   17.7276   62.7142  -10.0074 C   0  0  0  0  0  0  0  0  0  0  0  0
   17.5370   61.3632  -10.2283 C   0  0  0  0  0  0  0  0  0  0  0  0
   16.2929   60.9311  -10.6267 C   0  0  0  0  0  0  0  0  0  0  0  0
   15.2506   61.8139  -10.8039 C   0  0  0  0  0  0  0  0  0  0  0  0
   18.5873   60.4690  -10.0488 O   0  0  0  0  0  0  0  0  0  0  0  0
   19.4875   60.8231   -9.7532 H   0  0  0  0  0  0  0  0  0  0  0  0
   18.9906   63.1725   -9.6058 O   0  0  0  0  0  0  0  0  0  0  0  0
   19.8967   63.6478  -10.5772 C   0  0  0  0  0  0  0  0  0  0  0  0
 11 12  1  0  0  0
 12 13  2  0  0  0
 12 17  1  0  0  0
 13 14  1  0  0  0
 14 15  2  0  0  0
 14  1  1  0  0  0
 15 16  1  0  0  0
 16 17  2  0  0  0
  1  2  1  0  0  0
  1  8  1  0  0  0
  2  3  2  0  0  0
  2  4  1  0  0  0
  4  5  1  0  0  0
  5  6  2  0  0  0
  5  7  1  0  0  0
  7  8  1  0  0  0
  7 18  1  0  0  0
  8  9  2  0  0  0
 18 19  2  0  0  0
 18 22  1  0  0  0
 19 20  1  0  0  0
 20 21  1  0  0  0
 20 25  1  0  0  0
 21 22  1  0  0  0
 25 26  2  0  0  0
 25 30  1  0  0  0
 26 27  1  0  0  0
 27 28  2  0  0  0
 27 33  1  0  0  0
 28 29  1  0  0  0
 28 31  1  0  0  0
 29 30  2  0  0  0
 33 34  1  0  0  0
  4 10  1  0  0  0
 21 23  1  0  0  0
 22 24  1  0  0  0
 31 32  1  0  0  0
M  END
> <minimizedAffinity>
-7.52033

$$$$
1750


 27 30  0  0  0  0  0  0  0  0999 V2000
   19.3833   63.4111   -9.3250 N   0  0  0  0  0  0  0  0  0  0  0  0
   19.9332   64.5493   -9.9955 C   0  0  0  0  0  0  0  0  0  0  0  0
   21.2577   64.2456  -10.6691 C   0  0  0  0  0  0  0  0  0  0  0  0
   22.1091   63.5563   -9.7366 N   0  0  0  0  0  0  0  0  0  0  0  0
   21.6436   63.4019   -8.3728 C   0  0  0  0  0  0  0  0  0  0  0  0
   20.2779   62.7534   -8.4346 C   0  0  0  0  0  0  0  0  0  0  0  0
   23.3803   63.0240  -10.0974 C   0  0  0  0  0  0  0  0  0  0  0  0
   24.1027   62.4263   -9.2666 O   0  0  0  0  0  0  0  0  0  0  0  0
   23.8847   63.1625  -11.4656 C   0  0  0  0  0  0  0  0  0  0  0  0
   25.1876   63.3007  -11.8353 N   0  0  0  0  0  0  0  0  0  0  0  0
   25.2535   63.3994  -13.1721 C   0  0  0  0  0  0  0  0  0  0  0  0
   24.0059   63.3247  -13.6345 N   0  0  0  0  0  0  0  0  0  0  0  0
   23.1510   63.1801  -12.6130 C   0  0  0  0  0  0  0  0  0  0  0  0
   23.8015   63.4001  -14.9638 C   0  0  0  0  0  0  0  0  0  0  0  0
   24.8013   63.5501  -15.8847 C   0  0  0  0  0  0  0  0  0  0  0  0
   26.1096   63.6304  -15.4213 C   0  0  0  0  0  0  0  0  0  0  0  0
   26.3062   63.5523  -14.0609 C   0  0  0  0  0  0  0  0  0  0  0  0
   24.4970   63.6455  -17.6160 Cl  0  0  0  0  0  0  0  0  0  0  0  0
   18.4374   62.3869  -10.2800 S   0  0  0  0  0  0  0  0  0  0  0  0
   18.9257   62.4090  -11.6919 O   0  0  0  0  0  0  0  0  0  0  0  0
   18.5681   60.9848   -9.7547 O   0  0  0  0  0  0  0  0  0  0  0  0
   16.7651   62.7806  -10.2778 N   0  0  0  0  0  0  0  0  0  0  0  0
   15.9395   61.6852  -10.7514 C   0  0  0  0  0  0  0  0  0  0  0  0
   14.6465   62.2844  -11.2512 C   0  0  0  0  0  0  0  0  0  0  0  0
   14.2782   63.4035  -10.5122 O   0  0  0  0  0  0  0  0  0  0  0  0
   15.1440   64.4789  -10.6984 C   0  0  0  0  0  0  0  0  0  0  0  0
   16.4785   63.9122  -11.1399 C   0  0  0  0  0  0  0  0  0  0  0  0
 19 20  2  0  0  0
 19 21  2  0  0  0
 19  1  1  0  0  0
 19 22  1  0  0  0
  1  2  1  0  0  0
  1  6  1  0  0  0
  2  3  1  0  0  0
  3  4  1  0  0  0
  4  5  1  0  0  0
  4  7  1  0  0  0
  5  6  1  0  0  0
  7  8  2  0  0  0
  7  9  1  0  0  0
  9 10  1  0  0  0
  9 13  2  0  0  0
 10 11  2  0  0  0
 11 12  1  0  0  0
 11 17  1  0  0  0
 12 13  1  0  0  0
 12 14  1  0  0  0
 14 15  2  0  0  0
 15 16  1  0  0  0
 15 18  1  0  0  0
 16 17  2  0  0  0
 22 23  1  0  0  0
 22 27  1  0  0  0
 23 24  1  0  0  0
 24 25  1  0  0  0
 25 26  1  0  0  0
 26 27  1  0  0  0
M  END
> <minimizedAffinity>
-8.51647

$$$$
1758


 28 32  0  0  0  0  0  0  0  0999 V2000
   20.8026   63.1142   -9.5002 N   0  0  0  0  0  0  0  0  0  0  0  0
   21.8241   62.9683  -10.3243 N   0  0  0  0  0  0  0  0  0  0  0  0
   23.0040   63.1287   -9.6915 C   0  0  0  0  0  0  0  0  0  0  0  0
   24.2208   63.0579  -10.1763 C   0  0  0  0  0  0  0  0  0  0  0  0
   22.7045   63.3961   -8.3703 C   0  0  0  0  0  0  0  0  0  0  0  0
   23.5894   63.6213   -7.3873 C   0  0  0  0  0  0  0  0  0  0  0  0
   21.3290   63.3780   -8.2923 C   0  0  0  0  0  0  0  0  0  0  0  0
   20.6574   63.5784   -7.2486 O   0  0  0  0  0  0  0  0  0  0  0  0
   21.7510   62.7541  -11.3469 H   0  0  0  0  0  0  0  0  0  0  0  0
   14.7035   62.3121  -10.9856 I   0  0  0  0  0  0  0  0  0  0  0  0
   16.7272   62.6156  -10.4897 C   0  0  0  0  0  0  0  0  0  0  0  0
   17.2381   63.8787  -10.2707 C   0  0  0  0  0  0  0  0  0  0  0  0
   18.5790   64.0834   -9.9422 C   0  0  0  0  0  0  0  0  0  0  0  0
   19.4045   63.0099   -9.8345 C   0  0  0  0  0  0  0  0  0  0  0  0
   18.8810   61.7489  -10.0564 C   0  0  0  0  0  0  0  0  0  0  0  0
   17.5606   61.5258  -10.3816 C   0  0  0  0  0  0  0  0  0  0  0  0
   23.0495   63.8765   -6.0971 N   0  0  0  0  0  0  0  0  0  0  0  0
   22.1289   64.3282   -5.9298 H   0  0  0  0  0  0  0  0  0  0  0  0
   23.8222   63.4865   -4.9288 C   0  0  0  0  0  0  0  0  0  0  0  0
   22.9278   62.7629   -3.9335 C   0  0  0  0  0  0  0  0  0  0  0  0
   23.7202   62.3330   -2.8148 N   0  0  0  0  0  0  0  0  0  0  0  0
   24.2866   63.5277   -2.1976 C   0  0  0  0  0  0  0  0  0  0  0  0
   25.1731   64.2152   -3.0940 N   0  0  0  0  0  0  0  0  0  0  0  0
   26.2127   63.3264   -3.5633 C   0  0  0  0  0  0  0  0  0  0  0  0
   25.6760   62.1508   -4.1952 N   0  0  0  0  0  0  0  0  0  0  0  0
   24.7602   61.4535   -3.2979 C   0  0  0  0  0  0  0  0  0  0  0  0
   24.9233   62.5446   -5.3638 C   0  0  0  0  0  0  0  0  0  0  0  0
   24.4123   64.6738   -4.2289 C   0  0  0  0  0  0  0  0  0  0  0  0
 10 11  1  0  0  0
 11 12  2  0  0  0
 11 16  1  0  0  0
 12 13  1  0  0  0
 13 14  2  0  0  0
 14 15  1  0  0  0
 14  1  1  0  0  0
 15 16  2  0  0  0
  1  2  1  0  0  0
  1  7  1  0  0  0
  2  3  1  0  0  0
  3  4  2  0  0  0
  3  5  1  0  0  0
  5  6  2  0  0  0
  5  7  1  0  0  0
  6 17  1  0  0  0
 17 19  1  0  0  0
 19 20  1  0  0  0
 19 27  1  0  0  0
 19 28  1  0  0  0
 20 21  1  0  0  0
 21 22  1  0  0  0
 21 26  1  0  0  0
 22 23  1  0  0  0
 23 24  1  0  0  0
 23 28  1  0  0  0
 24 25  1  0  0  0
 25 26  1  0  0  0
 25 27  1  0  0  0
  7  8  2  0  0  0
  2  9  1  0  0  0
 17 18  1  0  0  0
M  END
> <minimizedAffinity>
-8.09706

$$$$
1764


 34 37  0  0  0  0  0  0  0  0999 V2000
   17.6532   62.5276  -11.0002 N   0  0  0  0  0  0  0  0  0  0  0  0
   16.5831   62.5026  -10.1268 C   0  0  0  0  0  0  0  0  0  0  0  0
   16.4217   63.9472   -9.6332 C   0  0  0  0  0  0  0  0  0  0  0  0
   16.7612   64.7334  -10.8804 C   0  0  0  0  0  0  0  0  0  0  0  0
   17.7235   63.8432  -11.6295 C   0  0  0  0  0  0  0  0  0  0  0  0
   15.3345   62.1244  -10.9053 C   0  0  0  0  0  0  0  0  0  0  0  0
   15.1486   60.9108  -11.0658 O   0  0  0  0  0  0  0  0  0  0  0  0
   14.4840   63.1353  -11.3851 N   0  0  0  0  0  0  0  0  0  0  0  0
   14.6772   64.1475  -11.2442 H   0  0  0  0  0  0  0  0  0  0  0  0
   13.2890   62.7927  -12.1170 C   0  0  0  0  0  0  0  0  0  0  0  0
   13.2252   63.2839  -13.5122 C   0  0  0  0  0  0  0  0  0  0  0  0
   12.4233   64.4324  -13.7450 N   0  0  0  0  0  0  0  0  0  0  0  0
   11.3765   64.2743  -14.7013 C   0  0  0  0  0  0  0  0  0  0  0  0
   10.1649   65.0286  -14.1917 C   0  0  0  0  0  0  0  0  0  0  0  0
   10.5802   66.4442  -13.8473 C   0  0  0  0  0  0  0  0  0  0  0  0
   11.4093   66.9838  -14.9816 C   0  0  0  0  0  0  0  0  0  0  0  0
   12.8232   66.5361  -14.9814 C   0  0  0  0  0  0  0  0  0  0  0  0
   13.2149   65.6091  -13.8931 C   0  0  0  0  0  0  0  0  0  0  0  0
   19.1332   61.8225  -10.7384 S   0  0  0  0  0  0  0  0  0  0  0  0
   19.7392   61.2337  -12.0109 O   0  0  0  0  0  0  0  0  0  0  0  0
   18.9324   60.6000   -9.8404 O   0  0  0  0  0  0  0  0  0  0  0  0
   20.3144   62.8359   -9.9631 C   0  0  0  0  0  0  0  0  0  0  0  0
   20.1835   63.0956   -8.5885 C   0  0  0  0  0  0  0  0  0  0  0  0
   21.0145   63.9234   -7.8893 C   0  0  0  0  0  0  0  0  0  0  0  0
   22.0382   64.5313   -8.5931 C   0  0  0  0  0  0  0  0  0  0  0  0
   22.2240   64.3234   -9.9267 C   0  0  0  0  0  0  0  0  0  0  0  0
   21.3492   63.4706  -10.5896 C   0  0  0  0  0  0  0  0  0  0  0  0
   21.7160   63.1735  -12.2743 Cl  0  0  0  0  0  0  0  0  0  0  0  0
   22.9230   65.3998   -7.8688 N   0  0  0  0  0  0  0  0  0  0  0  0
   22.7210   65.6025   -6.4722 C   0  0  0  0  0  0  0  0  0  0  0  0
   23.1433   66.6362   -5.9245 O   0  0  0  0  0  0  0  0  0  0  0  0
   21.9992   64.5403   -5.7281 C   0  0  0  0  0  0  0  0  0  0  0  0
   20.8807   64.1757   -6.5326 O   0  0  0  0  0  0  0  0  0  0  0  0
   23.7047   65.8684   -8.3899 H   0  0  0  0  0  0  0  0  0  0  0  0
 19 20  2  0  0  0
 19 21  2  0  0  0
 19  1  1  0  0  0
 19 22  1  0  0  0
  1  2  1  0  0  0
  1  5  1  0  0  0
  2  3  1  0  0  0
  2  6  1  0  0  0
  3  4  1  0  0  0
  4  5  1  0  0  0
  6  7  2  0  0  0
  6  8  1  0  0  0
  8 10  1  0  0  0
 10 11  1  0  0  0
 11 12  1  0  0  0
 12 13  1  0  0  0
 12 18  1  0  0  0
 13 14  1  0  0  0
 14 15  1  0  0  0
 15 16  1  0  0  0
 16 17  1  0  0  0
 17 18  1  0  0  0
 22 23  2  0  0  0
 22 27  1  0  0  0
 23 24  1  0  0  0
 24 25  2  0  0  0
 24 33  1  0  0  0
 25 26  1  0  0  0
 25 29  1  0  0  0
 26 27  2  0  0  0
 27 28  1  0  0  0
 29 30  1  0  0  0
 30 31  2  0  0  0
 30 32  1  0  0  0
 32 33  1  0  0  0
  8  9  1  0  0  0
 29 34  1  0  0  0
M  END
> <minimizedAffinity>
-8.74892

$$$$
1781


 24 27  0  0  0  0  0  0  0  0999 V2000
   23.0415   63.3900   -8.9389 C   0  0  0  0  0  0  0  0  0  0  0  0
   23.7622   62.4301   -9.4627 O   0  0  0  0  0  0  0  0  0  0  0  0
   22.2263   64.0611   -9.8377 N   0  0  0  0  0  0  0  0  0  0  0  0
   21.3570   65.1775   -9.6694 C   0  0  0  0  0  0  0  0  0  0  0  0
   19.9428   64.5701   -9.5728 C   0  0  0  0  0  0  0  0  0  0  0  0
   19.8671   63.4928  -10.5770 N   0  0  0  0  0  0  0  0  0  0  0  0
   20.7375   63.5754  -11.7144 C   0  0  0  0  0  0  0  0  0  0  0  0
   22.1763   63.5175  -11.2364 C   0  0  0  0  0  0  0  0  0  0  0  0
   18.9426   62.4245  -10.3890 C   0  0  0  0  0  0  0  0  0  0  0  0
   17.6541   62.5379  -10.7804 N   0  0  0  0  0  0  0  0  0  0  0  0
   16.7691   61.5703  -10.6204 N   0  0  0  0  0  0  0  0  0  0  0  0
   17.0828   60.3959  -10.0554 C   0  0  0  0  0  0  0  0  0  0  0  0
   15.9944   59.5884  -10.0156 N   0  0  0  0  0  0  0  0  0  0  0  0
   14.9969   60.2614  -10.5589 N   0  0  0  0  0  0  0  0  0  0  0  0
   15.4463   61.4724  -10.9338 C   0  0  0  0  0  0  0  0  0  0  0  0
   18.3852   60.2023   -9.6279 C   0  0  0  0  0  0  0  0  0  0  0  0
   19.2865   61.2256   -9.8059 C   0  0  0  0  0  0  0  0  0  0  0  0
   24.0495   63.8109   -2.9863 Cl  0  0  0  0  0  0  0  0  0  0  0  0
   23.7386   63.7132   -4.7253 C   0  0  0  0  0  0  0  0  0  0  0  0
   24.5843   63.0208   -5.5561 C   0  0  0  0  0  0  0  0  0  0  0  0
   24.3398   62.9479   -6.9079 C   0  0  0  0  0  0  0  0  0  0  0  0
   23.2413   63.5555   -7.5272 C   0  0  0  0  0  0  0  0  0  0  0  0
   22.4107   64.2418   -6.6710 C   0  0  0  0  0  0  0  0  0  0  0  0
   22.6487   64.3250   -5.2871 C   0  0  0  0  0  0  0  0  0  0  0  0
 18 19  1  0  0  0
 19 20  2  0  0  0
 19 24  1  0  0  0
 20 21  1  0  0  0
 21 22  2  0  0  0
 22 23  1  0  0  0
 22  1  1  0  0  0
 23 24  2  0  0  0
  1  2  2  0  0  0
  1  3  1  0  0  0
  3  4  1  0  0  0
  3  8  1  0  0  0
  4  5  1  0  0  0
  5  6  1  0  0  0
  6  7  1  0  0  0
  6  9  1  0  0  0
  7  8  1  0  0  0
  9 10  2  0  0  0
  9 17  1  0  0  0
 10 11  1  0  0  0
 11 12  1  0  0  0
 11 15  1  0  0  0
 12 13  2  0  0  0
 12 16  1  0  0  0
 13 14  1  0  0  0
 14 15  2  0  0  0
 16 17  2  0  0  0
M  END
> <minimizedAffinity>
-8.65334

$$$$
1788


 30 33  0  0  0  0  0  0  0  0999 V2000
   20.0683   63.0871  -10.4113 N   0  0  0  0  0  0  0  0  0  0  0  0
   20.9134   63.0427  -11.3793 N   0  0  0  0  0  0  0  0  0  0  0  0
   22.1771   63.4374  -10.9696 C   0  0  0  0  0  0  0  0  0  0  0  0
   22.0682   63.7327   -9.6880 N   0  0  0  0  0  0  0  0  0  0  0  0
   20.7537   63.5094   -9.3464 C   0  0  0  0  0  0  0  0  0  0  0  0
   20.3068   63.6902   -8.1936 O   0  0  0  0  0  0  0  0  0  0  0  0
   14.2273   61.7205  -10.7799 Cl  0  0  0  0  0  0  0  0  0  0  0  0
   15.9298   62.1265  -10.6755 C   0  0  0  0  0  0  0  0  0  0  0  0
   16.4007   63.4174  -10.8255 C   0  0  0  0  0  0  0  0  0  0  0  0
   17.7469   63.7283  -10.7394 C   0  0  0  0  0  0  0  0  0  0  0  0
   18.6881   62.7474  -10.4969 C   0  0  0  0  0  0  0  0  0  0  0  0
   18.2306   61.4552  -10.3454 C   0  0  0  0  0  0  0  0  0  0  0  0
   16.8763   61.1435  -10.4316 C   0  0  0  0  0  0  0  0  0  0  0  0
   23.2784   63.4824  -11.9292 C   0  0  0  0  0  0  0  0  0  0  0  0
   22.9613   63.5414  -13.2923 C   0  0  0  0  0  0  0  0  0  0  0  0
   23.8918   63.5270  -14.2944 C   0  0  0  0  0  0  0  0  0  0  0  0
   25.2461   63.4501  -13.9976 C   0  0  0  0  0  0  0  0  0  0  0  0
   25.5676   63.3899  -12.6707 C   0  0  0  0  0  0  0  0  0  0  0  0
   24.6119   63.4044  -11.6506 C   0  0  0  0  0  0  0  0  0  0  0  0
   23.0393   64.2851   -8.7970 C   0  0  0  0  0  0  0  0  0  0  0  0
   23.6548   63.3273   -7.8587 C   0  0  0  0  0  0  0  0  0  0  0  0
   24.1319   62.2699   -8.4477 O   0  0  0  0  0  0  0  0  0  0  0  0
   23.8068   63.3631   -6.4906 N   0  0  0  0  0  0  0  0  0  0  0  0
   23.3246   64.4027   -5.6212 C   0  0  0  0  0  0  0  0  0  0  0  0
   23.6165   64.1053   -4.1396 C   0  0  0  0  0  0  0  0  0  0  0  0
   25.0475   63.8284   -3.9818 N   0  0  0  0  0  0  0  0  0  0  0  0
   25.5620   62.9104   -4.9711 C   0  0  0  0  0  0  0  0  0  0  0  0
   26.7941   62.7084   -5.0653 O   0  0  0  0  0  0  0  0  0  0  0  0
   24.5297   62.2685   -5.8201 C   0  0  0  0  0  0  0  0  0  0  0  0
   25.6282   64.2412   -3.2472 H   0  0  0  0  0  0  0  0  0  0  0  0
  7  8  1  0  0  0
  8  9  2  0  0  0
  8 13  1  0  0  0
  9 10  1  0  0  0
 10 11  2  0  0  0
 11 12  1  0  0  0
 11  1  1  0  0  0
 12 13  2  0  0  0
  1  2  1  0  0  0
  1  5  1  0  0  0
  2  3  2  0  0  0
  3  4  1  0  0  0
  3 14  1  0  0  0
  4  5  1  0  0  0
  4 20  1  0  0  0
  5  6  2  0  0  0
 20 21  1  0  0  0
 21 22  2  0  0  0
 21 23  1  0  0  0
 23 24  1  0  0  0
 23 29  1  0  0  0
 24 25  1  0  0  0
 25 26  1  0  0  0
 26 27  1  0  0  0
 27 28  2  0  0  0
 27 29  1  0  0  0
 14 15  2  0  0  0
 14 19  1  0  0  0
 15 16  1  0  0  0
 16 17  2  0  0  0
 17 18  1  0  0  0
 18 19  2  0  0  0
 26 30  1  0  0  0
M  END
> <minimizedAffinity>
-9.62864

$$$$
1789


 29 32  0  0  0  0  0  0  0  0999 V2000
   22.9381   63.7354   -8.9018 N   0  0  0  0  0  0  0  0  0  0  0  0
   23.7933   63.9358   -9.8761 N   0  0  0  0  0  0  0  0  0  0  0  0
   23.1166   63.7968  -11.0121 N   0  0  0  0  0  0  0  0  0  0  0  0
   21.8242   63.5072  -10.7680 C   0  0  0  0  0  0  0  0  0  0  0  0
   21.7309   63.4735   -9.4347 C   0  0  0  0  0  0  0  0  0  0  0  0
   20.4002   63.1742   -9.1792 C   0  0  0  0  0  0  0  0  0  0  0  0
   19.9197   63.0566   -8.0295 O   0  0  0  0  0  0  0  0  0  0  0  0
   19.6940   63.0290  -10.3106 N   0  0  0  0  0  0  0  0  0  0  0  0
   20.5808   63.2363  -11.3017 C   0  0  0  0  0  0  0  0  0  0  0  0
   20.3147   63.1899  -12.5397 O   0  0  0  0  0  0  0  0  0  0  0  0
   24.8272   64.1646   -9.7841 H   0  0  0  0  0  0  0  0  0  0  0  0
   23.5596   63.9051  -11.9557 H   0  0  0  0  0  0  0  0  0  0  0  0
   24.2778   63.8992   -3.0964 Cl  0  0  0  0  0  0  0  0  0  0  0  0
   23.8672   63.8653   -4.8126 C   0  0  0  0  0  0  0  0  0  0  0  0
   22.9014   64.6641   -5.3558 C   0  0  0  0  0  0  0  0  0  0  0  0
   22.5528   64.6659   -6.6905 C   0  0  0  0  0  0  0  0  0  0  0  0
   23.2402   63.7893   -7.5241 C   0  0  0  0  0  0  0  0  0  0  0  0
   24.2317   62.9666   -6.9740 C   0  0  0  0  0  0  0  0  0  0  0  0
   24.5397   63.0031   -5.6434 C   0  0  0  0  0  0  0  0  0  0  0  0
   18.3124   62.7243  -10.4763 C   0  0  0  0  0  0  0  0  0  0  0  0
   17.8056   61.4451  -10.3568 C   0  0  0  0  0  0  0  0  0  0  0  0
   16.4660   61.1584  -10.5178 C   0  0  0  0  0  0  0  0  0  0  0  0
   15.5584   62.1543  -10.8129 C   0  0  0  0  0  0  0  0  0  0  0  0
   16.0497   63.4369  -10.9356 C   0  0  0  0  0  0  0  0  0  0  0  0
   17.3948   63.7145  -10.7713 C   0  0  0  0  0  0  0  0  0  0  0  0
   14.2079   61.8550  -10.9742 O   0  0  0  0  0  0  0  0  0  0  0  0
   13.4871   62.1313  -12.1356 C   0  0  0  0  0  0  0  0  0  0  0  0
   15.9560   59.8695  -10.3976 O   0  0  0  0  0  0  0  0  0  0  0  0
   16.7572   58.9130   -9.7287 C   0  0  0  0  0  0  0  0  0  0  0  0
 13 14  1  0  0  0
 14 15  2  0  0  0
 14 19  1  0  0  0
 15 16  1  0  0  0
 16 17  2  0  0  0
 17 18  1  0  0  0
 17  1  1  0  0  0
 18 19  2  0  0  0
  1  2  1  0  0  0
  1  5  1  0  0  0
  2  3  1  0  0  0
  3  4  1  0  0  0
  4  5  2  0  0  0
  4  9  1  0  0  0
  5  6  1  0  0  0
  6  7  2  0  0  0
  6  8  1  0  0  0
  8  9  1  0  0  0
  8 20  1  0  0  0
  9 10  2  0  0  0
 20 21  2  0  0  0
 20 25  1  0  0  0
 21 22  1  0  0  0
 22 23  2  0  0  0
 22 28  1  0  0  0
 23 24  1  0  0  0
 23 26  1  0  0  0
 24 25  2  0  0  0
 26 27  1  0  0  0
 28 29  1  0  0  0
  2 11  1  0  0  0
  3 12  1  0  0  0
M  END
> <minimizedAffinity>
-9.54514

$$$$
1790


 29 32  0  0  0  0  0  0  0  0999 V2000
   22.8137   63.7463   -9.1797 N   0  0  0  0  0  0  0  0  0  0  0  0
   23.6486   63.9667  -10.1756 N   0  0  0  0  0  0  0  0  0  0  0  0
   22.9458   63.7917  -11.2876 N   0  0  0  0  0  0  0  0  0  0  0  0
   21.6713   63.4615  -11.0174 C   0  0  0  0  0  0  0  0  0  0  0  0
   21.5994   63.4356   -9.6759 C   0  0  0  0  0  0  0  0  0  0  0  0
   20.2884   63.0958   -9.4009 C   0  0  0  0  0  0  0  0  0  0  0  0
   19.8527   62.9772   -8.2172 O   0  0  0  0  0  0  0  0  0  0  0  0
   19.5706   62.9171  -10.5223 N   0  0  0  0  0  0  0  0  0  0  0  0
   20.4304   63.1448  -11.5294 C   0  0  0  0  0  0  0  0  0  0  0  0
   20.1232   63.0717  -12.7566 O   0  0  0  0  0  0  0  0  0  0  0  0
   24.6597   64.2264  -10.0828 H   0  0  0  0  0  0  0  0  0  0  0  0
   23.3304   63.8956  -12.2514 H   0  0  0  0  0  0  0  0  0  0  0  0
   24.1878   64.0238   -3.3509 Cl  0  0  0  0  0  0  0  0  0  0  0  0
   23.7992   63.9235   -5.0732 C   0  0  0  0  0  0  0  0  0  0  0  0
   22.8357   64.7515   -5.6116 C   0  0  0  0  0  0  0  0  0  0  0  0
   22.5039   64.7081   -6.9403 C   0  0  0  0  0  0  0  0  0  0  0  0
   23.1312   63.8197   -7.8003 C   0  0  0  0  0  0  0  0  0  0  0  0
   24.0955   62.9966   -7.2426 C   0  0  0  0  0  0  0  0  0  0  0  0
   24.4322   63.0377   -5.9056 C   0  0  0  0  0  0  0  0  0  0  0  0
   18.1905   62.5627  -10.5726 C   0  0  0  0  0  0  0  0  0  0  0  0
   17.7563   61.2647  -10.3947 C   0  0  0  0  0  0  0  0  0  0  0  0
   16.4268   60.8977  -10.4383 C   0  0  0  0  0  0  0  0  0  0  0  0
   15.4852   61.8777  -10.6725 C   0  0  0  0  0  0  0  0  0  0  0  0
   15.8620   63.1920  -10.8581 C   0  0  0  0  0  0  0  0  0  0  0  0
   17.2150   63.5130  -10.8056 C   0  0  0  0  0  0  0  0  0  0  0  0
   14.8851   64.1508  -11.0920 O   0  0  0  0  0  0  0  0  0  0  0  0
   13.8844   63.9713  -12.0562 C   0  0  0  0  0  0  0  0  0  0  0  0
   16.0358   59.5580  -10.2501 O   0  0  0  0  0  0  0  0  0  0  0  0
   16.8785   58.6966   -9.5203 C   0  0  0  0  0  0  0  0  0  0  0  0
 13 14  1  0  0  0
 14 15  2  0  0  0
 14 19  1  0  0  0
 15 16  1  0  0  0
 16 17  2  0  0  0
 17 18  1  0  0  0
 17  1  1  0  0  0
 18 19  2  0  0  0
  1  2  1  0  0  0
  1  5  1  0  0  0
  2  3  1  0  0  0
  3  4  1  0  0  0
  4  5  2  0  0  0
  4  9  1  0  0  0
  5  6  1  0  0  0
  6  7  2  0  0  0
  6  8  1  0  0  0
  8  9  1  0  0  0
  8 20  1  0  0  0
  9 10  2  0  0  0
 20 21  2  0  0  0
 20 25  1  0  0  0
 21 22  1  0  0  0
 22 23  2  0  0  0
 22 28  1  0  0  0
 23 24  1  0  0  0
 24 25  2  0  0  0
 24 26  1  0  0  0
 26 27  1  0  0  0
 28 29  1  0  0  0
  2 11  1  0  0  0
  3 12  1  0  0  0
M  END
> <minimizedAffinity>
-9.73881

$$$$
1801


 26 29  0  0  0  0  0  0  0  0999 V2000
   25.6407   63.6942  -12.7872 Cl  0  0  0  0  0  0  0  0  0  0  0  0
   24.0141   63.4850  -12.1390 C   0  0  0  0  0  0  0  0  0  0  0  0
   23.7426   63.7954  -10.8182 C   0  0  0  0  0  0  0  0  0  0  0  0
   22.4854   63.6382  -10.3034 C   0  0  0  0  0  0  0  0  0  0  0  0
   21.5179   63.1612  -11.1551 C   0  0  0  0  0  0  0  0  0  0  0  0
   21.7598   62.8470  -12.4668 C   0  0  0  0  0  0  0  0  0  0  0  0
   23.0375   63.0111  -12.9753 C   0  0  0  0  0  0  0  0  0  0  0  0
   20.1488   62.9786  -10.6339 C   0  0  0  0  0  0  0  0  0  0  0  0
   19.0552   62.5620  -11.1684 N   0  0  0  0  0  0  0  0  0  0  0  0
   17.9627   62.5620  -10.2388 C   0  0  0  0  0  0  0  0  0  0  0  0
   18.5482   63.0676   -8.9612 C   0  0  0  0  0  0  0  0  0  0  0  0
   19.9361   63.3144   -9.2731 N   0  0  0  0  0  0  0  0  0  0  0  0
   20.9843   63.8090   -8.4275 C   0  0  0  0  0  0  0  0  0  0  0  0
   21.0139   64.1822   -7.1397 N   0  0  0  0  0  0  0  0  0  0  0  0
   22.2321   64.5716   -6.8074 N   0  0  0  0  0  0  0  0  0  0  0  0
   22.9721   64.4332   -7.9209 C   0  0  0  0  0  0  0  0  0  0  0  0
   24.1941   64.7101   -7.9883 O   0  0  0  0  0  0  0  0  0  0  0  0
   22.2159   63.9583   -8.9469 N   0  0  0  0  0  0  0  0  0  0  0  0
   22.7034   65.0536   -5.5130 C   0  0  0  0  0  0  0  0  0  0  0  0
   23.3897   63.9446   -4.8096 C   0  0  0  0  0  0  0  0  0  0  0  0
   22.7537   63.2966   -3.9313 O   0  0  0  0  0  0  0  0  0  0  0  0
   24.7340   63.5780   -5.0809 N   0  0  0  0  0  0  0  0  0  0  0  0
   25.2423   64.1221   -5.8072 H   0  0  0  0  0  0  0  0  0  0  0  0
   25.3615   62.4884   -4.3676 C   0  0  0  0  0  0  0  0  0  0  0  0
   26.6769   62.0914   -5.0432 C   0  0  0  0  0  0  0  0  0  0  0  0
   25.7468   63.0288   -2.9973 C   0  0  0  0  0  0  0  0  0  0  0  0
  1  2  1  0  0  0
  2  3  2  0  0  0
  2  7  1  0  0  0
  3  4  1  0  0  0
  4  5  2  0  0  0
  4 18  1  0  0  0
  5  6  1  0  0  0
  5  8  1  0  0  0
  6  7  2  0  0  0
  8  9  2  0  0  0
  8 12  1  0  0  0
  9 10  1  0  0  0
 10 11  1  0  0  0
 11 12  1  0  0  0
 12 13  1  0  0  0
 13 14  2  0  0  0
 13 18  1  0  0  0
 14 15  1  0  0  0
 15 16  1  0  0  0
 15 19  1  0  0  0
 16 17  2  0  0  0
 16 18  1  0  0  0
 19 20  1  0  0  0
 20 21  2  0  0  0
 20 22  1  0  0  0
 22 24  1  0  0  0
 24 25  1  0  0  0
 24 26  1  0  0  0
 22 23  1  0  0  0
M  END
> <minimizedAffinity>
-8.89247

$$$$
1802


 27 30  0  0  0  0  0  0  0  0999 V2000
   25.6117   63.7796  -12.8538 Cl  0  0  0  0  0  0  0  0  0  0  0  0
   23.9678   63.5216  -12.2635 C   0  0  0  0  0  0  0  0  0  0  0  0
   23.6896   63.8284  -10.9291 C   0  0  0  0  0  0  0  0  0  0  0  0
   22.4245   63.6590  -10.4042 C   0  0  0  0  0  0  0  0  0  0  0  0
   21.4584   63.1722  -11.2625 C   0  0  0  0  0  0  0  0  0  0  0  0
   21.6858   62.8618  -12.5623 C   0  0  0  0  0  0  0  0  0  0  0  0
   22.9755   63.0387  -13.0866 C   0  0  0  0  0  0  0  0  0  0  0  0
   20.1025   63.0002  -10.6817 C   0  0  0  0  0  0  0  0  0  0  0  0
   18.9931   62.5727  -11.2037 N   0  0  0  0  0  0  0  0  0  0  0  0
   17.9315   62.5894  -10.2238 C   0  0  0  0  0  0  0  0  0  0  0  0
   18.5270   63.1218   -8.9439 C   0  0  0  0  0  0  0  0  0  0  0  0
   19.9113   63.3370   -9.3321 N   0  0  0  0  0  0  0  0  0  0  0  0
   20.9649   63.8349   -8.5096 C   0  0  0  0  0  0  0  0  0  0  0  0
   20.9940   64.2199   -7.2166 N   0  0  0  0  0  0  0  0  0  0  0  0
   22.2254   64.6228   -6.9105 N   0  0  0  0  0  0  0  0  0  0  0  0
   22.9316   64.4772   -8.0293 C   0  0  0  0  0  0  0  0  0  0  0  0
   24.1569   64.7560   -8.1526 O   0  0  0  0  0  0  0  0  0  0  0  0
   22.1721   63.9848   -9.0471 N   0  0  0  0  0  0  0  0  0  0  0  0
   22.6793   65.1319   -5.6134 C   0  0  0  0  0  0  0  0  0  0  0  0
   23.1905   63.8414   -4.9011 C   0  0  0  0  0  0  0  0  0  0  0  0
   22.3469   63.5386   -3.9855 O   0  0  0  0  0  0  0  0  0  0  0  0
   24.3360   63.2575   -5.2784 N   0  0  0  0  0  0  0  0  0  0  0  0
   24.1131   62.2470   -4.3996 H   0  0  0  0  0  0  0  0  0  0  0  0
   25.5137   62.6572   -5.6659 C   0  0  0  0  0  0  0  0  0  0  0  0
   26.5613   62.6421   -4.5463 C   0  0  0  0  0  0  0  0  0  0  0  0
   26.0492   62.1147   -3.3850 O   0  0  0  0  0  0  0  0  0  0  0  0
   25.7093   63.0244   -2.4260 C   0  0  0  0  0  0  0  0  0  0  0  0
  1  2  1  0  0  0
  2  3  2  0  0  0
  2  7  1  0  0  0
  3  4  1  0  0  0
  4  5  2  0  0  0
  4 18  1  0  0  0
  5  6  1  0  0  0
  5  8  1  0  0  0
  6  7  2  0  0  0
  8  9  2  0  0  0
  8 12  1  0  0  0
  9 10  1  0  0  0
 10 11  1  0  0  0
 11 12  1  0  0  0
 12 13  1  0  0  0
 13 14  2  0  0  0
 13 18  1  0  0  0
 14 15  1  0  0  0
 15 16  1  0  0  0
 15 19  1  0  0  0
 16 17  2  0  0  0
 16 18  1  0  0  0
 19 20  1  0  0  0
 20 21  2  0  0  0
 20 22  1  0  0  0
 22 24  1  0  0  0
 24 25  1  0  0  0
 25 26  1  0  0  0
 26 27  1  0  0  0
 22 23  1  0  0  0
M  END
> <minimizedAffinity>
-7.49819

$$$$
1804


 26 30  0  0  0  0  0  0  0  0999 V2000
   25.5138   63.7168  -12.9444 Cl  0  0  0  0  0  0  0  0  0  0  0  0
   23.9398   63.5071  -12.2082 C   0  0  0  0  0  0  0  0  0  0  0  0
   23.6804   63.8158  -10.8832 C   0  0  0  0  0  0  0  0  0  0  0  0
   22.4387   63.6470  -10.3168 C   0  0  0  0  0  0  0  0  0  0  0  0
   21.4510   63.1516  -11.1332 C   0  0  0  0  0  0  0  0  0  0  0  0
   21.6518   62.8284  -12.4544 C   0  0  0  0  0  0  0  0  0  0  0  0
   22.9249   63.0115  -12.9996 C   0  0  0  0  0  0  0  0  0  0  0  0
   20.1056   62.9561  -10.5596 C   0  0  0  0  0  0  0  0  0  0  0  0
   19.0155   62.5189  -11.0760 N   0  0  0  0  0  0  0  0  0  0  0  0
   17.9350   62.5023  -10.1266 C   0  0  0  0  0  0  0  0  0  0  0  0
   18.5423   63.0239   -8.8636 C   0  0  0  0  0  0  0  0  0  0  0  0
   19.9154   63.2926   -9.2009 N   0  0  0  0  0  0  0  0  0  0  0  0
   20.9912   63.8102   -8.3911 C   0  0  0  0  0  0  0  0  0  0  0  0
   21.0487   64.1924   -7.1007 N   0  0  0  0  0  0  0  0  0  0  0  0
   22.2747   64.5993   -6.8186 N   0  0  0  0  0  0  0  0  0  0  0  0
   22.9712   64.4600   -7.9586 C   0  0  0  0  0  0  0  0  0  0  0  0
   24.1958   64.7588   -8.0526 O   0  0  0  0  0  0  0  0  0  0  0  0
   22.2002   63.9710   -8.9536 N   0  0  0  0  0  0  0  0  0  0  0  0
   22.7811   65.0998   -5.5321 C   0  0  0  0  0  0  0  0  0  0  0  0
   22.8268   63.9597   -4.5792 C   0  0  0  0  0  0  0  0  0  0  0  0
   21.7756   63.7237   -3.9321 O   0  0  0  0  0  0  0  0  0  0  0  0
   23.9962   63.1727   -4.4012 N   0  0  0  0  0  0  0  0  0  0  0  0
   24.1014   62.0512   -3.4873 C   0  0  0  0  0  0  0  0  0  0  0  0
   25.5503   61.6437   -3.4808 C   0  0  0  0  0  0  0  0  0  0  0  0
   26.2330   62.9027   -3.9744 C   0  0  0  0  0  0  0  0  0  0  0  0
   25.2614   63.3342   -5.0781 C   0  0  0  0  0  0  0  0  0  0  0  0
  1  2  1  0  0  0
  2  3  2  0  0  0
  2  7  1  0  0  0
  3  4  1  0  0  0
  4  5  2  0  0  0
  4 18  1  0  0  0
  5  6  1  0  0  0
  5  8  1  0  0  0
  6  7  2  0  0  0
  8  9  2  0  0  0
  8 12  1  0  0  0
  9 10  1  0  0  0
 10 11  1  0  0  0
 11 12  1  0  0  0
 12 13  1  0  0  0
 13 14  2  0  0  0
 13 18  1  0  0  0
 14 15  1  0  0  0
 15 16  1  0  0  0
 15 19  1  0  0  0
 16 17  2  0  0  0
 16 18  1  0  0  0
 19 20  1  0  0  0
 20 21  2  0  0  0
 20 22  1  0  0  0
 22 23  1  0  0  0
 22 26  1  0  0  0
 23 24  1  0  0  0
 24 25  1  0  0  0
 25 26  1  0  0  0
M  END
> <minimizedAffinity>
-8.25463

$$$$
1806


 32 35  0  0  0  0  0  0  0  0999 V2000
   21.7343   64.0760   -7.4941 N   0  0  0  0  0  0  0  0  0  0  0  0
   21.1096   64.4720   -6.2489 C   0  0  0  0  0  0  0  0  0  0  0  0
   22.2386   64.7781   -5.2515 C   0  0  0  0  0  0  0  0  0  0  0  0
   23.5172   64.4261   -5.7666 N   0  0  0  0  0  0  0  0  0  0  0  0
   23.9071   65.1613   -6.9686 C   0  0  0  0  0  0  0  0  0  0  0  0
   22.8254   64.8938   -7.9876 C   0  0  0  0  0  0  0  0  0  0  0  0
   14.0037   63.2059  -11.8434 Cl  0  0  0  0  0  0  0  0  0  0  0  0
   15.5448   63.3360  -10.9978 C   0  0  0  0  0  0  0  0  0  0  0  0
   16.4758   62.3435  -11.0134 C   0  0  0  0  0  0  0  0  0  0  0  0
   17.6702   62.4898  -10.3357 C   0  0  0  0  0  0  0  0  0  0  0  0
   17.9401   63.6378   -9.6356 C   0  0  0  0  0  0  0  0  0  0  0  0
   17.0007   64.6360   -9.6210 C   0  0  0  0  0  0  0  0  0  0  0  0
   15.8030   64.4931  -10.2990 C   0  0  0  0  0  0  0  0  0  0  0  0
   19.1786   63.8256   -8.9136 N   0  0  0  0  0  0  0  0  0  0  0  0
   20.1752   62.8223   -8.9015 C   0  0  0  0  0  0  0  0  0  0  0  0
   21.3116   62.9554   -8.2590 C   0  0  0  0  0  0  0  0  0  0  0  0
   19.9117   61.6042   -9.6334 N   0  0  0  0  0  0  0  0  0  0  0  0
   18.6884   61.4491  -10.3299 C   0  0  0  0  0  0  0  0  0  0  0  0
   18.4327   60.3808  -10.9842 O   0  0  0  0  0  0  0  0  0  0  0  0
   19.3279   64.7132   -8.4030 H   0  0  0  0  0  0  0  0  0  0  0  0
   20.6212   60.8450   -9.6460 H   0  0  0  0  0  0  0  0  0  0  0  0
   24.4402   63.4620   -5.2905 C   0  0  0  0  0  0  0  0  0  0  0  0
   25.4315   63.0276   -6.1539 N   0  0  0  0  0  0  0  0  0  0  0  0
   26.3491   62.1174   -5.8340 C   0  0  0  0  0  0  0  0  0  0  0  0
   26.3129   61.5780   -4.5783 C   0  0  0  0  0  0  0  0  0  0  0  0
   25.3492   61.9831   -3.6986 C   0  0  0  0  0  0  0  0  0  0  0  0
   24.3759   62.9467   -4.0305 C   0  0  0  0  0  0  0  0  0  0  0  0
   23.3996   63.3707   -3.0737 C   0  0  0  0  0  0  0  0  0  0  0  0
   23.5433   64.2742   -2.2531 O   0  0  0  0  0  0  0  0  0  0  0  0
   22.1435   62.7042   -3.0476 N   0  0  0  0  0  0  0  0  0  0  0  0
   21.4682   62.8066   -3.8383 H   0  0  0  0  0  0  0  0  0  0  0  0
   21.8304   62.0924   -2.2619 H   0  0  0  0  0  0  0  0  0  0  0  0
  7  8  1  0  0  0
  8  9  2  0  0  0
  8 13  1  0  0  0
  9 10  1  0  0  0
 10 11  2  0  0  0
 10 18  1  0  0  0
 11 12  1  0  0  0
 11 14  1  0  0  0
 12 13  2  0  0  0
 14 15  1  0  0  0
 15 16  2  0  0  0
 15 17  1  0  0  0
 16  1  1  0  0  0
  1  2  1  0  0  0
  1  6  1  0  0  0
  2  3  1  0  0  0
  3  4  1  0  0  0
  4  5  1  0  0  0
  4 22  1  0  0  0
  5  6  1  0  0  0
 22 23  2  0  0  0
 22 27  1  0  0  0
 23 24  1  0  0  0
 24 25  2  0  0  0
 25 26  1  0  0  0
 26 27  2  0  0  0
 27 28  1  0  0  0
 28 29  2  0  0  0
 28 30  1  0  0  0
 17 18  1  0  0  0
 18 19  2  0  0  0
 14 20  1  0  0  0
 30 31  1  0  0  0
 30 32  1  0  0  0
 17 21  1  0  0  0
M  END
> <minimizedAffinity>
-7.02871

$$$$
1808


 24 28  0  0  0  0  0  0  0  0999 V2000
   16.2050   62.7503  -10.5723 N   0  0  0  0  0  0  0  0  0  0  0  0
   16.9376   63.6049   -9.7081 C   0  0  0  0  0  0  0  0  0  0  0  0
   16.5719   64.7603   -9.3839 O   0  0  0  0  0  0  0  0  0  0  0  0
   18.1760   62.9072   -9.2693 C   0  0  0  0  0  0  0  0  0  0  0  0
   19.3528   63.2477  -10.1307 C   0  0  0  0  0  0  0  0  0  0  0  0
   20.0801   62.0389  -10.0585 O   0  0  0  0  0  0  0  0  0  0  0  0
   19.0747   61.2024  -10.6056 C   0  0  0  0  0  0  0  0  0  0  0  0
   17.9528   61.4444   -9.6557 C   0  0  0  0  0  0  0  0  0  0  0  0
   16.6506   61.4089  -10.3741 C   0  0  0  0  0  0  0  0  0  0  0  0
   16.0707   60.3794  -10.7295 O   0  0  0  0  0  0  0  0  0  0  0  0
   18.7978   61.9473  -11.8615 C   0  0  0  0  0  0  0  0  0  0  0  0
   18.9129   63.2310  -11.5347 C   0  0  0  0  0  0  0  0  0  0  0  0
   11.8977   64.7683  -14.3797 Br  0  0  0  0  0  0  0  0  0  0  0  0
   13.2441   64.1484  -13.1961 C   0  0  0  0  0  0  0  0  0  0  0  0
   14.2883   64.9775  -12.8649 C   0  0  0  0  0  0  0  0  0  0  0  0
   15.2512   64.5017  -12.0024 C   0  0  0  0  0  0  0  0  0  0  0  0
   15.1977   63.2323  -11.4706 C   0  0  0  0  0  0  0  0  0  0  0  0
   14.1427   62.3937  -11.8038 C   0  0  0  0  0  0  0  0  0  0  0  0
   13.1681   62.8800  -12.6776 C   0  0  0  0  0  0  0  0  0  0  0  0
   20.1363   64.4136   -9.7038 C   0  0  0  0  0  0  0  0  0  0  0  0
   21.3002   64.5887  -10.4010 O   0  0  0  0  0  0  0  0  0  0  0  0
   22.3581   64.3239   -9.5679 C   0  0  0  0  0  0  0  0  0  0  0  0
   21.7723   63.9643   -8.2422 C   0  0  0  0  0  0  0  0  0  0  0  0
   20.4450   64.3621   -8.3564 O   0  0  0  0  0  0  0  0  0  0  0  0
 13 14  1  0  0  0
 14 15  2  0  0  0
 14 19  1  0  0  0
 15 16  1  0  0  0
 16 17  2  0  0  0
 17 18  1  0  0  0
 17  1  1  0  0  0
 18 19  2  0  0  0
  1  2  1  0  0  0
  1  9  1  0  0  0
  2  3  2  0  0  0
  2  4  1  0  0  0
  4  5  1  0  0  0
  4  8  1  0  0  0
  5  6  1  0  0  0
  5 12  1  0  0  0
  5 20  1  0  0  0
  6  7  1  0  0  0
  7  8  1  0  0  0
  7 11  1  0  0  0
  8  9  1  0  0  0
  9 10  2  0  0  0
 11 12  2  0  0  0
 20 21  1  0  0  0
 20 24  1  0  0  0
 21 22  1  0  0  0
 22 23  1  0  0  0
 23 24  1  0  0  0
M  END
> <minimizedAffinity>
-7.25436

$$$$
1810


 32 35  0  0  0  0  0  0  0  0999 V2000
   17.0563   63.5528  -10.7029 N   0  0  0  0  0  0  0  0  0  0  0  0
   17.7336   63.7050  -11.9660 C   0  0  0  0  0  0  0  0  0  0  0  0
   19.1821   63.3277  -11.7607 C   0  0  0  0  0  0  0  0  0  0  0  0
   19.3322   62.6860  -10.4801 N   0  0  0  0  0  0  0  0  0  0  0  0
   18.3613   61.7127   -9.9933 C   0  0  0  0  0  0  0  0  0  0  0  0
   16.9550   62.1344  -10.4254 C   0  0  0  0  0  0  0  0  0  0  0  0
   20.4322   63.0039   -9.6634 C   0  0  0  0  0  0  0  0  0  0  0  0
   20.5717   62.3945   -8.5466 O   0  0  0  0  0  0  0  0  0  0  0  0
   21.4174   64.0354  -10.0881 C   0  0  0  0  0  0  0  0  0  0  0  0
   21.9651   64.8257   -8.9346 C   0  0  0  0  0  0  0  0  0  0  0  0
   23.3065   64.2991   -8.7028 N   0  0  0  0  0  0  0  0  0  0  0  0
   23.5535   63.2173   -9.5815 C   0  0  0  0  0  0  0  0  0  0  0  0
   24.4007   62.3146   -9.3788 O   0  0  0  0  0  0  0  0  0  0  0  0
   22.6287   63.4066  -10.7196 C   0  0  0  0  0  0  0  0  0  0  0  0
   24.2299   64.8117   -7.7164 C   0  0  0  0  0  0  0  0  0  0  0  0
   24.1116   64.0942   -6.4249 C   0  0  0  0  0  0  0  0  0  0  0  0
   23.1597   64.5093   -5.5054 C   0  0  0  0  0  0  0  0  0  0  0  0
   22.9916   63.8894   -4.2788 C   0  0  0  0  0  0  0  0  0  0  0  0
   23.8193   62.8230   -3.9925 C   0  0  0  0  0  0  0  0  0  0  0  0
   24.7794   62.3827   -4.8870 C   0  0  0  0  0  0  0  0  0  0  0  0
   24.9261   63.0260   -6.1152 C   0  0  0  0  0  0  0  0  0  0  0  0
   22.1454   65.8624   -5.9260 Cl  0  0  0  0  0  0  0  0  0  0  0  0
   15.5183   64.3204  -10.7207 S   0  0  0  0  0  0  0  0  0  0  0  0
   15.6386   65.7969  -10.9701 O   0  0  0  0  0  0  0  0  0  0  0  0
   14.9476   64.1827   -9.3252 O   0  0  0  0  0  0  0  0  0  0  0  0
   14.4348   63.5606  -11.8464 C   0  0  0  0  0  0  0  0  0  0  0  0
   13.8283   64.0480  -12.9822 C   0  0  0  0  0  0  0  0  0  0  0  0
   13.0606   63.0428  -13.5041 N   0  0  0  0  0  0  0  0  0  0  0  0
   13.1898   62.0213  -12.7446 O   0  0  0  0  0  0  0  0  0  0  0  0
   13.9940   62.2557  -11.7354 C   0  0  0  0  0  0  0  0  0  0  0  0
   14.3234   61.2496  -10.7022 C   0  0  0  0  0  0  0  0  0  0  0  0
   14.0003   65.4103  -13.5216 C   0  0  0  0  0  0  0  0  0  0  0  0
 23 24  2  0  0  0
 23 25  2  0  0  0
 23  1  1  0  0  0
 23 26  1  0  0  0
  1  2  1  0  0  0
  1  6  1  0  0  0
  2  3  1  0  0  0
  3  4  1  0  0  0
  4  5  1  0  0  0
  4  7  1  0  0  0
  5  6  1  0  0  0
  7  8  2  0  0  0
  7  9  1  0  0  0
  9 10  1  0  0  0
  9 14  1  0  0  0
 10 11  1  0  0  0
 11 12  1  0  0  0
 11 15  1  0  0  0
 12 13  2  0  0  0
 12 14  1  0  0  0
 15 16  1  0  0  0
 16 17  2  0  0  0
 16 21  1  0  0  0
 17 18  1  0  0  0
 17 22  1  0  0  0
 18 19  2  0  0  0
 19 20  1  0  0  0
 20 21  2  0  0  0
 26 27  1  0  0  0
 26 30  2  0  0  0
 27 28  2  0  0  0
 27 32  1  0  0  0
 28 29  1  0  0  0
 29 30  1  0  0  0
 30 31  1  0  0  0
M  END
> <minimizedAffinity>
-7.60950

$$$$
1816


 36 39  0  0  0  0  0  0  0  0999 V2000
   17.8267   62.6605  -11.3521 C   0  0  0  0  0  0  0  0  0  0  0  0
   18.1260   61.4773  -10.9687 O   0  0  0  0  0  0  0  0  0  0  0  0
   16.5068   63.0587  -11.2356 N   0  0  0  0  0  0  0  0  0  0  0  0
   15.4751   62.2176  -10.7139 C   0  0  0  0  0  0  0  0  0  0  0  0
   14.4127   62.0479  -11.8018 C   0  0  0  0  0  0  0  0  0  0  0  0
   13.9578   63.3291  -12.2242 N   0  0  0  0  0  0  0  0  0  0  0  0
   14.5947   64.5004  -11.5849 C   0  0  0  0  0  0  0  0  0  0  0  0
   16.1012   64.3827  -11.6481 C   0  0  0  0  0  0  0  0  0  0  0  0
   12.9650   63.5703  -13.1972 C   0  0  0  0  0  0  0  0  0  0  0  0
   12.7226   64.8620  -13.3947 O   0  0  0  0  0  0  0  0  0  0  0  0
   12.1792   62.6843  -14.0021 C   0  0  0  0  0  0  0  0  0  0  0  0
   12.4872   62.5383  -15.3785 C   0  0  0  0  0  0  0  0  0  0  0  0
   11.7568   61.7053  -16.1832 C   0  0  0  0  0  0  0  0  0  0  0  0
   12.0512   61.5939  -17.4024 O   0  0  0  0  0  0  0  0  0  0  0  0
   10.7207   60.9874  -15.7301 N   0  0  0  0  0  0  0  0  0  0  0  0
   10.4305   61.1247  -14.4357 C   0  0  0  0  0  0  0  0  0  0  0  0
    9.4528   60.4631  -13.9552 O   0  0  0  0  0  0  0  0  0  0  0  0
   11.1457   61.9542  -13.5980 N   0  0  0  0  0  0  0  0  0  0  0  0
    9.9606   60.1156  -16.5958 C   0  0  0  0  0  0  0  0  0  0  0  0
   10.8411   61.9864  -12.6054 H   0  0  0  0  0  0  0  0  0  0  0  0
   18.9301   63.5030  -11.8907 C   0  0  0  0  0  0  0  0  0  0  0  0
   22.1790   64.4862   -4.9638 Cl  0  0  0  0  0  0  0  0  0  0  0  0
   22.2377   64.1296   -6.6748 C   0  0  0  0  0  0  0  0  0  0  0  0
   21.0946   64.1208   -7.4682 C   0  0  0  0  0  0  0  0  0  0  0  0
   21.1434   63.8382   -8.8119 C   0  0  0  0  0  0  0  0  0  0  0  0
   22.3637   63.5582   -9.3818 C   0  0  0  0  0  0  0  0  0  0  0  0
   23.5125   63.5689   -8.5795 C   0  0  0  0  0  0  0  0  0  0  0  0
   23.4637   63.8506   -7.2336 C   0  0  0  0  0  0  0  0  0  0  0  0
   22.4252   63.2878  -10.6631 O   0  0  0  0  0  0  0  0  0  0  0  0
   21.3676   63.2695  -11.4371 C   0  0  0  0  0  0  0  0  0  0  0  0
   21.4680   63.0018  -12.6811 O   0  0  0  0  0  0  0  0  0  0  0  0
   20.0842   63.5381  -10.9641 C   0  0  0  0  0  0  0  0  0  0  0  0
   20.0025   63.8255   -9.6203 C   0  0  0  0  0  0  0  0  0  0  0  0
   18.7129   64.1278   -9.0074 C   0  0  0  0  0  0  0  0  0  0  0  0
   24.6228   63.8583   -6.4357 O   0  0  0  0  0  0  0  0  0  0  0  0
   25.0313   62.7279   -5.7058 C   0  0  0  0  0  0  0  0  0  0  0  0
 22 23  1  0  0  0
 23 24  2  0  0  0
 23 28  1  0  0  0
 24 25  1  0  0  0
 25 26  2  0  0  0
 25 33  1  0  0  0
 26 27  1  0  0  0
 26 29  1  0  0  0
 27 28  2  0  0  0
 28 35  1  0  0  0
 35 36  1  0  0  0
 29 30  1  0  0  0
 30 31  2  0  0  0
 30 32  1  0  0  0
 32 33  2  0  0  0
 32 21  1  0  0  0
 33 34  1  0  0  0
 21  1  1  0  0  0
  1  2  2  0  0  0
  1  3  1  0  0  0
  3  4  1  0  0  0
  3  8  1  0  0  0
  4  5  1  0  0  0
  5  6  1  0  0  0
  6  7  1  0  0  0
  6  9  1  0  0  0
  7  8  1  0  0  0
  9 10  2  0  0  0
  9 11  1  0  0  0
 11 12  2  0  0  0
 11 18  1  0  0  0
 12 13  1  0  0  0
 13 14  2  0  0  0
 13 15  1  0  0  0
 15 16  1  0  0  0
 15 19  1  0  0  0
 16 17  2  0  0  0
 16 18  1  0  0  0
 18 20  1  0  0  0
M  END
> <minimizedAffinity>
-7.63636

$$$$
1822


 24 27  0  0  0  0  0  0  0  0999 V2000
   23.6468   63.7825   -8.2830 Cl  0  0  0  0  0  0  0  0  0  0  0  0
   22.2313   63.5598   -9.3058 C   0  0  0  0  0  0  0  0  0  0  0  0
   22.4244   63.3206  -10.6478 C   0  0  0  0  0  0  0  0  0  0  0  0
   21.3383   63.1520  -11.4185 N   0  0  0  0  0  0  0  0  0  0  0  0
   20.0731   63.2075  -10.9262 C   0  0  0  0  0  0  0  0  0  0  0  0
   19.8727   63.4395   -9.6180 N   0  0  0  0  0  0  0  0  0  0  0  0
   18.5643   63.4483   -9.3813 N   0  0  0  0  0  0  0  0  0  0  0  0
   17.8846   63.2224  -10.5236 C   0  0  0  0  0  0  0  0  0  0  0  0
   18.8486   63.0765  -11.4672 N   0  0  0  0  0  0  0  0  0  0  0  0
   20.9472   63.6153   -8.8104 C   0  0  0  0  0  0  0  0  0  0  0  0
   20.7600   63.8347   -7.5718 O   0  0  0  0  0  0  0  0  0  0  0  0
   23.8166   63.2564  -11.2080 C   0  0  0  0  0  0  0  0  0  0  0  0
   21.4786   62.9704  -12.4405 H   0  0  0  0  0  0  0  0  0  0  0  0
   16.4726   63.1539  -10.7030 N   0  0  0  0  0  0  0  0  0  0  0  0
   15.6018   64.2609  -10.8908 C   0  0  0  0  0  0  0  0  0  0  0  0
   15.8926   65.4258  -11.2671 O   0  0  0  0  0  0  0  0  0  0  0  0
   14.1964   63.8417  -10.5636 C   0  0  0  0  0  0  0  0  0  0  0  0
   14.2331   62.3582  -10.4692 C   0  0  0  0  0  0  0  0  0  0  0  0
   13.4080   61.6410  -11.5229 C   0  0  0  0  0  0  0  0  0  0  0  0
   13.7879   62.2430  -12.8412 C   0  0  0  0  0  0  0  0  0  0  0  0
   13.7190   63.5607  -12.9003 C   0  0  0  0  0  0  0  0  0  0  0  0
   13.2818   64.2872  -11.6843 C   0  0  0  0  0  0  0  0  0  0  0  0
   15.6406   62.0046  -10.7333 C   0  0  0  0  0  0  0  0  0  0  0  0
   16.0710   60.8271  -10.9600 O   0  0  0  0  0  0  0  0  0  0  0  0
  1  2  1  0  0  0
  2  3  2  0  0  0
  2 10  1  0  0  0
  3  4  1  0  0  0
  3 12  1  0  0  0
  4  5  1  0  0  0
  5  6  1  0  0  0
  5  9  2  0  0  0
  6  7  1  0  0  0
  6 10  1  0  0  0
  7  8  2  0  0  0
  8  9  1  0  0  0
  8 14  1  0  0  0
 14 15  1  0  0  0
 14 23  1  0  0  0
 15 16  2  0  0  0
 15 17  1  0  0  0
 17 18  1  0  0  0
 17 22  1  0  0  0
 18 19  1  0  0  0
 18 23  1  0  0  0
 19 20  1  0  0  0
 20 21  2  0  0  0
 21 22  1  0  0  0
 23 24  2  0  0  0
 10 11  2  0  0  0
  4 13  1  0  0  0
M  END
> <minimizedAffinity>
-7.45805

$$$$
1825


 29 32  0  0  0  0  0  0  0  0999 V2000
   21.3981   64.3999   -9.5023 N   0  0  0  0  0  0  0  0  0  0  0  0
   22.3850   63.7216  -10.1606 C   0  0  0  0  0  0  0  0  0  0  0  0
   23.3131   63.3253   -9.2740 N   0  0  0  0  0  0  0  0  0  0  0  0
   22.9751   63.7166   -8.0389 C   0  0  0  0  0  0  0  0  0  0  0  0
   21.7594   64.3932   -8.2176 C   0  0  0  0  0  0  0  0  0  0  0  0
   24.3686   62.6095   -9.9904 C   0  0  0  0  0  0  0  0  0  0  0  0
   24.1725   62.9711  -11.4505 C   0  0  0  0  0  0  0  0  0  0  0  0
   22.7218   63.2857  -11.5395 C   0  0  0  0  0  0  0  0  0  0  0  0
   23.6228   63.5544   -6.7475 C   0  0  0  0  0  0  0  0  0  0  0  0
   24.7730   62.8332   -6.5826 C   0  0  0  0  0  0  0  0  0  0  0  0
   25.4109   62.6867   -5.3646 C   0  0  0  0  0  0  0  0  0  0  0  0
   24.8984   63.2790   -4.2206 C   0  0  0  0  0  0  0  0  0  0  0  0
   23.7433   64.0047   -4.3844 C   0  0  0  0  0  0  0  0  0  0  0  0
   23.1060   64.1511   -5.6008 C   0  0  0  0  0  0  0  0  0  0  0  0
   25.5091   63.1535   -2.9842 O   0  0  0  0  0  0  0  0  0  0  0  0
   24.8184   62.7183   -1.8276 C   0  0  0  0  0  0  0  0  0  0  0  0
   20.2222   65.0040  -10.1455 C   0  0  0  0  0  0  0  0  0  0  0  0
   18.3876   63.3033   -9.7434 N   0  0  0  0  0  0  0  0  0  0  0  0
   19.3041   63.8889  -10.6020 C   0  0  0  0  0  0  0  0  0  0  0  0
   19.4426   63.5503  -11.7823 O   0  0  0  0  0  0  0  0  0  0  0  0
   18.3598   63.6850   -8.7493 H   0  0  0  0  0  0  0  0  0  0  0  0
   13.7335   62.0269  -11.5510 Cl  0  0  0  0  0  0  0  0  0  0  0  0
   15.3103   61.6239  -10.9052 C   0  0  0  0  0  0  0  0  0  0  0  0
   16.2293   62.5945  -10.5775 C   0  0  0  0  0  0  0  0  0  0  0  0
   17.4995   62.2570  -10.0617 C   0  0  0  0  0  0  0  0  0  0  0  0
   17.7488   60.9243   -9.9102 C   0  0  0  0  0  0  0  0  0  0  0  0
   16.8103   59.9272  -10.2439 C   0  0  0  0  0  0  0  0  0  0  0  0
   15.5852   60.2858  -10.7446 C   0  0  0  0  0  0  0  0  0  0  0  0
   15.8743   64.0116  -10.7690 C   0  0  0  0  0  0  0  0  0  0  0  0
 22 23  1  0  0  0
 23 24  2  0  0  0
 23 28  1  0  0  0
 24 25  1  0  0  0
 24 29  1  0  0  0
 25 26  2  0  0  0
 25 18  1  0  0  0
 26 27  1  0  0  0
 27 28  2  0  0  0
 18 19  1  0  0  0
 19 20  2  0  0  0
 19 17  1  0  0  0
 17  1  1  0  0  0
  1  2  1  0  0  0
  1  5  1  0  0  0
  2  3  2  0  0  0
  2  8  1  0  0  0
  3  4  1  0  0  0
  3  6  1  0  0  0
  4  5  2  0  0  0
  4  9  1  0  0  0
  9 10  2  0  0  0
  9 14  1  0  0  0
 10 11  1  0  0  0
 11 12  2  0  0  0
 12 13  1  0  0  0
 12 15  1  0  0  0
 13 14  2  0  0  0
 15 16  1  0  0  0
  6  7  1  0  0  0
  7  8  1  0  0  0
 18 21  1  0  0  0
M  END
> <minimizedAffinity>
-8.88118

$$$$
1835


 36 39  0  0  0  0  0  0  0  0999 V2000
   22.4022   63.3410  -10.4680 C   0  0  0  0  0  0  0  0  0  0  0  0
   21.7202   63.3490   -9.3120 N   0  0  0  0  0  0  0  0  0  0  0  0
   20.4248   63.2130   -9.6445 C   0  0  0  0  0  0  0  0  0  0  0  0
   19.2859   63.1551   -8.9125 N   0  0  0  0  0  0  0  0  0  0  0  0
   18.0770   63.0118   -9.4896 C   0  0  0  0  0  0  0  0  0  0  0  0
   17.9747   62.9214  -10.8333 N   0  0  0  0  0  0  0  0  0  0  0  0
   19.0599   62.9711  -11.6284 C   0  0  0  0  0  0  0  0  0  0  0  0
   20.2877   63.1180  -11.0130 C   0  0  0  0  0  0  0  0  0  0  0  0
   21.5451   63.2018  -11.5069 N   0  0  0  0  0  0  0  0  0  0  0  0
   18.9204   62.8743  -13.0319 N   0  0  0  0  0  0  0  0  0  0  0  0
   18.5231   62.0334  -13.4851 H   0  0  0  0  0  0  0  0  0  0  0  0
   19.2258   63.6674  -13.6236 H   0  0  0  0  0  0  0  0  0  0  0  0
   22.1877   63.4720   -7.9621 C   0  0  0  0  0  0  0  0  0  0  0  0
   23.4254   62.8652   -7.7647 O   0  0  0  0  0  0  0  0  0  0  0  0
   23.7982   63.3966   -6.5307 C   0  0  0  0  0  0  0  0  0  0  0  0
   23.6816   64.8871   -6.8122 C   0  0  0  0  0  0  0  0  0  0  0  0
   22.3738   64.9288   -7.5754 C   0  0  0  0  0  0  0  0  0  0  0  0
   21.3896   65.3471   -6.6772 O   0  0  0  0  0  0  0  0  0  0  0  0
   23.6230   65.6308   -5.6419 O   0  0  0  0  0  0  0  0  0  0  0  0
   20.8714   64.5972   -6.3223 H   0  0  0  0  0  0  0  0  0  0  0  0
   23.5061   64.9909   -4.8890 H   0  0  0  0  0  0  0  0  0  0  0  0
   25.1964   63.0100   -6.1305 C   0  0  0  0  0  0  0  0  0  0  0  0
   25.5191   63.3987   -4.8538 O   0  0  0  0  0  0  0  0  0  0  0  0
   24.9275   64.1091   -4.5230 H   0  0  0  0  0  0  0  0  0  0  0  0
   23.8117   63.4597  -10.5962 N   0  0  0  0  0  0  0  0  0  0  0  0
   24.3954   63.8597   -9.8235 H   0  0  0  0  0  0  0  0  0  0  0  0
   24.6908   63.9186  -12.6759 C   0  0  0  0  0  0  0  0  0  0  0  0
   24.4924   63.0569  -11.7473 N   0  0  0  0  0  0  0  0  0  0  0  0
   23.0604   64.0498  -15.1655 Cl  0  0  0  0  0  0  0  0  0  0  0  0
   24.7511   63.6059  -15.1350 C   0  0  0  0  0  0  0  0  0  0  0  0
   25.3949   63.5825  -13.9167 C   0  0  0  0  0  0  0  0  0  0  0  0
   26.7275   63.2316  -13.8976 C   0  0  0  0  0  0  0  0  0  0  0  0
   27.4126   62.9109  -15.0614 C   0  0  0  0  0  0  0  0  0  0  0  0
   26.7755   62.9314  -16.2852 C   0  0  0  0  0  0  0  0  0  0  0  0
   25.4429   63.2823  -16.3043 C   0  0  0  0  0  0  0  0  0  0  0  0
   27.5548   63.2001  -12.3445 Cl  0  0  0  0  0  0  0  0  0  0  0  0
 29 30  1  0  0  0
 30 31  2  0  0  0
 30 35  1  0  0  0
 31 32  1  0  0  0
 31 27  1  0  0  0
 32 33  2  0  0  0
 32 36  1  0  0  0
 33 34  1  0  0  0
 34 35  2  0  0  0
 27 28  2  0  0  0
 28 25  1  0  0  0
 25  1  1  0  0  0
  1  2  1  0  0  0
  1  9  2  0  0  0
  2  3  1  0  0  0
  2 13  1  0  0  0
  3  4  2  0  0  0
  3  8  1  0  0  0
  4  5  1  0  0  0
  5  6  2  0  0  0
  6  7  1  0  0  0
  7  8  2  0  0  0
  7 10  1  0  0  0
  8  9  1  0  0  0
 13 14  1  0  0  0
 13 17  1  0  0  0
 14 15  1  0  0  0
 15 16  1  0  0  0
 15 22  1  0  0  0
 16 17  1  0  0  0
 16 19  1  0  0  0
 17 18  1  0  0  0
 22 23  1  0  0  0
 25 26  1  0  0  0
 10 11  1  0  0  0
 10 12  1  0  0  0
 18 20  1  0  0  0
 19 21  1  0  0  0
 23 24  1  0  0  0
M  END
> <minimizedAffinity>
-9.43234

$$$$
1837


 29 32  0  0  0  0  0  0  0  0999 V2000
   22.3741   63.5555   -9.2607 N   0  0  0  0  0  0  0  0  0  0  0  0
   22.0927   64.1120   -7.9208 C   0  0  0  0  0  0  0  0  0  0  0  0
   20.6286   63.6829   -7.6913 C   0  0  0  0  0  0  0  0  0  0  0  0
   20.0386   63.7942   -9.0339 N   0  0  0  0  0  0  0  0  0  0  0  0
   20.4828   64.9179   -9.7965 C   0  0  0  0  0  0  0  0  0  0  0  0
   21.9306   64.6057  -10.2082 C   0  0  0  0  0  0  0  0  0  0  0  0
   19.1296   62.8127   -9.4541 C   0  0  0  0  0  0  0  0  0  0  0  0
   19.4869   61.4919   -9.4478 N   0  0  0  0  0  0  0  0  0  0  0  0
   18.6853   60.5039   -9.8437 C   0  0  0  0  0  0  0  0  0  0  0  0
   17.4535   60.7903  -10.2788 N   0  0  0  0  0  0  0  0  0  0  0  0
   16.9911   62.0352  -10.3304 C   0  0  0  0  0  0  0  0  0  0  0  0
   15.8248   62.5883  -10.7188 N   0  0  0  0  0  0  0  0  0  0  0  0
   15.9494   63.8800  -10.5482 N   0  0  0  0  0  0  0  0  0  0  0  0
   17.1479   64.1734  -10.0677 N   0  0  0  0  0  0  0  0  0  0  0  0
   17.8432   63.0624   -9.9125 C   0  0  0  0  0  0  0  0  0  0  0  0
   14.6384   61.9306  -11.2327 C   0  0  0  0  0  0  0  0  0  0  0  0
   13.7342   62.9078  -11.9517 C   0  0  0  0  0  0  0  0  0  0  0  0
   23.7992   63.3425   -9.4365 C   0  0  0  0  0  0  0  0  0  0  0  0
   24.5197   63.9094  -11.8098 N   0  0  0  0  0  0  0  0  0  0  0  0
   24.0006   62.9912  -10.8924 C   0  0  0  0  0  0  0  0  0  0  0  0
   23.6840   61.8356  -11.2732 O   0  0  0  0  0  0  0  0  0  0  0  0
   24.7289   64.8853  -11.4295 H   0  0  0  0  0  0  0  0  0  0  0  0
   25.7192   63.0685  -17.6157 Cl  0  0  0  0  0  0  0  0  0  0  0  0
   25.3724   63.3178  -15.9177 C   0  0  0  0  0  0  0  0  0  0  0  0
   26.3748   63.2683  -14.9597 C   0  0  0  0  0  0  0  0  0  0  0  0
   26.0757   63.4663  -13.6367 C   0  0  0  0  0  0  0  0  0  0  0  0
   24.7726   63.7235  -13.1852 C   0  0  0  0  0  0  0  0  0  0  0  0
   23.8024   63.7659  -14.1469 C   0  0  0  0  0  0  0  0  0  0  0  0
   24.0910   63.5680  -15.4916 C   0  0  0  0  0  0  0  0  0  0  0  0
 23 24  1  0  0  0
 24 25  2  0  0  0
 24 29  1  0  0  0
 25 26  1  0  0  0
 26 27  2  0  0  0
 27 28  1  0  0  0
 27 19  1  0  0  0
 28 29  2  0  0  0
 19 20  1  0  0  0
 20 21  2  0  0  0
 20 18  1  0  0  0
 18  1  1  0  0  0
  1  2  1  0  0  0
  1  6  1  0  0  0
  2  3  1  0  0  0
  3  4  1  0  0  0
  4  5  1  0  0  0
  4  7  1  0  0  0
  5  6  1  0  0  0
  7  8  2  0  0  0
  7 15  1  0  0  0
  8  9  1  0  0  0
  9 10  2  0  0  0
 10 11  1  0  0  0
 11 12  1  0  0  0
 11 15  2  0  0  0
 12 13  1  0  0  0
 12 16  1  0  0  0
 13 14  2  0  0  0
 14 15  1  0  0  0
 16 17  1  0  0  0
 19 22  1  0  0  0
M  END
> <minimizedAffinity>
-7.91806

$$$$
1846


 31 34  0  0  0  0  0  0  0  0999 V2000
   15.4032   62.6446  -10.7953 N   0  0  0  0  0  0  0  0  0  0  0  0
   15.5947   63.9718  -10.6282 C   0  0  0  0  0  0  0  0  0  0  0  0
   16.7982   64.4463  -10.2439 N   0  0  0  0  0  0  0  0  0  0  0  0
   17.8510   63.6539  -10.0111 C   0  0  0  0  0  0  0  0  0  0  0  0
   19.0526   64.1163   -9.6288 N   0  0  0  0  0  0  0  0  0  0  0  0
   20.1249   63.3430   -9.3883 C   0  0  0  0  0  0  0  0  0  0  0  0
   19.9530   62.0029   -9.5514 N   0  0  0  0  0  0  0  0  0  0  0  0
   18.7689   61.4983   -9.9326 C   0  0  0  0  0  0  0  0  0  0  0  0
   17.6748   62.3015  -10.1767 C   0  0  0  0  0  0  0  0  0  0  0  0
   16.4496   61.8023  -10.5688 C   0  0  0  0  0  0  0  0  0  0  0  0
   16.3512   60.5575  -10.7028 O   0  0  0  0  0  0  0  0  0  0  0  0
   21.3748   63.8701   -8.9856 N   0  0  0  0  0  0  0  0  0  0  0  0
   21.4049   64.8116   -7.8907 C   0  0  0  0  0  0  0  0  0  0  0  0
   22.6239   64.5148   -7.0194 C   0  0  0  0  0  0  0  0  0  0  0  0
   23.7829   64.3828   -7.7811 O   0  0  0  0  0  0  0  0  0  0  0  0
   23.6433   63.2070   -8.5188 C   0  0  0  0  0  0  0  0  0  0  0  0
   22.6239   63.5123   -9.6167 C   0  0  0  0  0  0  0  0  0  0  0  0
   14.1629   62.0614  -11.1986 C   0  0  0  0  0  0  0  0  0  0  0  0
   13.3670   64.0828  -12.5007 N   0  0  0  0  0  0  0  0  0  0  0  0
   13.6039   62.7004  -12.4393 C   0  0  0  0  0  0  0  0  0  0  0  0
   13.3713   61.9359  -13.3887 O   0  0  0  0  0  0  0  0  0  0  0  0
   13.5957   64.6759  -11.6335 H   0  0  0  0  0  0  0  0  0  0  0  0
   14.4734   67.0951  -16.4789 Cl  0  0  0  0  0  0  0  0  0  0  0  0
   13.2998   66.1680  -15.5677 C   0  0  0  0  0  0  0  0  0  0  0  0
   11.9910   66.1077  -15.9819 C   0  0  0  0  0  0  0  0  0  0  0  0
   11.1358   65.3606  -15.2102 C   0  0  0  0  0  0  0  0  0  0  0  0
   11.5369   64.6814  -14.0579 C   0  0  0  0  0  0  0  0  0  0  0  0
   12.8403   64.7353  -13.6365 C   0  0  0  0  0  0  0  0  0  0  0  0
   13.7051   65.5051  -14.4368 C   0  0  0  0  0  0  0  0  0  0  0  0
   11.5515   66.7760  -17.1329 O   0  0  0  0  0  0  0  0  0  0  0  0
   10.9242   68.0325  -17.0186 C   0  0  0  0  0  0  0  0  0  0  0  0
 23 24  1  0  0  0
 24 25  2  0  0  0
 24 29  1  0  0  0
 25 26  1  0  0  0
 25 30  1  0  0  0
 26 27  2  0  0  0
 27 28  1  0  0  0
 28 29  2  0  0  0
 28 19  1  0  0  0
 19 20  1  0  0  0
 20 21  2  0  0  0
 20 18  1  0  0  0
 18  1  1  0  0  0
  1  2  1  0  0  0
  1 10  1  0  0  0
  2  3  2  0  0  0
  3  4  1  0  0  0
  4  5  2  0  0  0
  4  9  1  0  0  0
  5  6  1  0  0  0
  6  7  2  0  0  0
  6 12  1  0  0  0
  7  8  1  0  0  0
  8  9  2  0  0  0
  9 10  1  0  0  0
 10 11  2  0  0  0
 12 13  1  0  0  0
 12 17  1  0  0  0
 13 14  1  0  0  0
 14 15  1  0  0  0
 15 16  1  0  0  0
 16 17  1  0  0  0
 30 31  1  0  0  0
 19 22  1  0  0  0
M  END
> <minimizedAffinity>
-8.73847

$$$$
1850


 24 27  0  0  0  0  0  0  0  0999 V2000
   14.4675   63.7416  -11.2940 Cl  0  0  0  0  0  0  0  0  0  0  0  0
   15.5487   62.4121  -10.9011 C   0  0  0  0  0  0  0  0  0  0  0  0
   16.9142   62.6102  -10.8551 C   0  0  0  0  0  0  0  0  0  0  0  0
   17.7555   61.5776  -10.5498 C   0  0  0  0  0  0  0  0  0  0  0  0
   17.2073   60.3417  -10.2917 C   0  0  0  0  0  0  0  0  0  0  0  0
   15.8478   60.1218  -10.3328 C   0  0  0  0  0  0  0  0  0  0  0  0
   15.0068   61.1717  -10.6417 C   0  0  0  0  0  0  0  0  0  0  0  0
   19.2302   61.7110  -10.4802 C   0  0  0  0  0  0  0  0  0  0  0  0
   19.5368   63.1160  -10.5942 N   0  0  0  0  0  0  0  0  0  0  0  0
   18.8494   63.8493  -11.6310 C   0  0  0  0  0  0  0  0  0  0  0  0
   17.3994   63.9888  -11.1524 C   0  0  0  0  0  0  0  0  0  0  0  0
   20.4600   63.7698   -9.7451 C   0  0  0  0  0  0  0  0  0  0  0  0
   20.6825   64.9997   -9.8973 O   0  0  0  0  0  0  0  0  0  0  0  0
   21.1998   63.0800   -8.6622 C   0  0  0  0  0  0  0  0  0  0  0  0
   22.3932   63.7262   -8.3440 O   0  0  0  0  0  0  0  0  0  0  0  0
   22.9540   63.7461   -7.0738 C   0  0  0  0  0  0  0  0  0  0  0  0
   24.1031   63.0795   -6.8517 N   0  0  0  0  0  0  0  0  0  0  0  0
   24.6903   63.0595   -5.6580 N   0  0  0  0  0  0  0  0  0  0  0  0
   24.1802   63.7004   -4.5981 C   0  0  0  0  0  0  0  0  0  0  0  0
   24.9834   63.5041   -3.5343 N   0  0  0  0  0  0  0  0  0  0  0  0
   25.9743   62.7496   -3.9429 N   0  0  0  0  0  0  0  0  0  0  0  0
   25.8219   62.4598   -5.2457 C   0  0  0  0  0  0  0  0  0  0  0  0
   22.9939   64.3997   -4.7901 C   0  0  0  0  0  0  0  0  0  0  0  0
   22.3862   64.4214   -6.0221 C   0  0  0  0  0  0  0  0  0  0  0  0
  1  2  1  0  0  0
  2  3  2  0  0  0
  2  7  1  0  0  0
  3  4  1  0  0  0
  3 11  1  0  0  0
  4  5  2  0  0  0
  4  8  1  0  0  0
  5  6  1  0  0  0
  6  7  2  0  0  0
  8  9  1  0  0  0
  9 10  1  0  0  0
  9 12  1  0  0  0
 10 11  1  0  0  0
 12 13  2  0  0  0
 12 14  1  0  0  0
 14 15  1  0  0  0
 15 16  1  0  0  0
 16 17  2  0  0  0
 16 24  1  0  0  0
 17 18  1  0  0  0
 18 19  1  0  0  0
 18 22  1  0  0  0
 19 20  2  0  0  0
 19 23  1  0  0  0
 20 21  1  0  0  0
 21 22  2  0  0  0
 23 24  2  0  0  0
M  END
> <minimizedAffinity>
-9.48521

$$$$
1852


 26 29  0  0  0  0  0  0  0  0999 V2000
   21.7336   64.0784   -9.7569 S   0  0  0  0  0  0  0  0  0  0  0  0
   21.1323   65.3923  -10.1249 O   0  0  0  0  0  0  0  0  0  0  0  0
   22.9004   63.8061  -10.6695 O   0  0  0  0  0  0  0  0  0  0  0  0
   22.3096   64.1320   -8.1072 C   0  0  0  0  0  0  0  0  0  0  0  0
   23.4556   63.4529   -7.7442 C   0  0  0  0  0  0  0  0  0  0  0  0
   23.9534   63.4626   -6.4525 C   0  0  0  0  0  0  0  0  0  0  0  0
   23.2944   64.1755   -5.4677 C   0  0  0  0  0  0  0  0  0  0  0  0
   22.1575   64.8481   -5.8360 C   0  0  0  0  0  0  0  0  0  0  0  0
   21.6589   64.8408   -7.1208 C   0  0  0  0  0  0  0  0  0  0  0  0
   23.8280   64.1595   -4.1887 O   0  0  0  0  0  0  0  0  0  0  0  0
   24.6505   63.1152   -3.6991 C   0  0  0  0  0  0  0  0  0  0  0  0
   25.4628   62.4462   -4.7759 C   0  0  0  0  0  0  0  0  0  0  0  0
   25.0939   62.7900   -6.0792 O   0  0  0  0  0  0  0  0  0  0  0  0
   20.5868   62.8161   -9.9911 N   0  0  0  0  0  0  0  0  0  0  0  0
   19.5194   63.1975  -10.8612 C   0  0  0  0  0  0  0  0  0  0  0  0
   18.2149   62.8261  -10.1774 C   0  0  0  0  0  0  0  0  0  0  0  0
   18.6029   62.8963   -8.7149 C   0  0  0  0  0  0  0  0  0  0  0  0
   20.0275   62.3321   -8.7689 C   0  0  0  0  0  0  0  0  0  0  0  0
   17.2825   63.8613  -10.4396 O   0  0  0  0  0  0  0  0  0  0  0  0
   16.1029   63.6309  -11.1291 C   0  0  0  0  0  0  0  0  0  0  0  0
   15.4924   62.4359  -10.8820 N   0  0  0  0  0  0  0  0  0  0  0  0
   14.3463   62.1847  -11.5356 C   0  0  0  0  0  0  0  0  0  0  0  0
   13.7879   63.0796  -12.4260 C   0  0  0  0  0  0  0  0  0  0  0  0
   14.4504   64.2738  -12.6367 C   0  0  0  0  0  0  0  0  0  0  0  0
   15.6021   64.5261  -11.9785 N   0  0  0  0  0  0  0  0  0  0  0  0
   12.2927   62.7381  -13.2723 Cl  0  0  0  0  0  0  0  0  0  0  0  0
  1  2  2  0  0  0
  1  3  2  0  0  0
  1 14  1  0  0  0
  1  4  1  0  0  0
 14 15  1  0  0  0
 14 18  1  0  0  0
 15 16  1  0  0  0
 16 17  1  0  0  0
 16 19  1  0  0  0
 17 18  1  0  0  0
 19 20  1  0  0  0
 20 21  2  0  0  0
 20 25  1  0  0  0
 21 22  1  0  0  0
 22 23  2  0  0  0
 23 24  1  0  0  0
 23 26  1  0  0  0
 24 25  2  0  0  0
  4  5  2  0  0  0
  4  9  1  0  0  0
  5  6  1  0  0  0
  6  7  2  0  0  0
  6 13  1  0  0  0
  7  8  1  0  0  0
  7 10  1  0  0  0
  8  9  2  0  0  0
 10 11  1  0  0  0
 11 12  1  0  0  0
 12 13  1  0  0  0
M  END
> <minimizedAffinity>
-8.28932

$$$$
1856


 31 34  0  0  0  0  0  0  0  0999 V2000
   22.6496   63.8129   -8.0379 C   0  0  0  0  0  0  0  0  0  0  0  0
   23.3460   63.1750   -7.0846 N   0  0  0  0  0  0  0  0  0  0  0  0
   23.8340   63.7795   -5.9694 C   0  0  0  0  0  0  0  0  0  0  0  0
   23.5671   65.1092   -5.8736 N   0  0  0  0  0  0  0  0  0  0  0  0
   22.8773   65.8003   -6.7941 C   0  0  0  0  0  0  0  0  0  0  0  0
   22.4333   65.1383   -7.8548 N   0  0  0  0  0  0  0  0  0  0  0  0
   22.6363   67.1841   -6.6295 N   0  0  0  0  0  0  0  0  0  0  0  0
   21.3611   67.8069   -6.9205 C   0  0  0  0  0  0  0  0  0  0  0  0
   21.1600   69.0058   -6.0192 C   0  0  0  0  0  0  0  0  0  0  0  0
   22.1629   69.9341   -6.1044 O   0  0  0  0  0  0  0  0  0  0  0  0
   23.3139   69.4607   -6.7212 C   0  0  0  0  0  0  0  0  0  0  0  0
   23.6782   68.0952   -6.1453 C   0  0  0  0  0  0  0  0  0  0  0  0
   24.5607   63.0803   -4.9873 N   0  0  0  0  0  0  0  0  0  0  0  0
   25.7291   62.3313   -5.3409 C   0  0  0  0  0  0  0  0  0  0  0  0
   26.8561   62.8083   -4.4402 C   0  0  0  0  0  0  0  0  0  0  0  0
   26.4414   62.5862   -3.1182 O   0  0  0  0  0  0  0  0  0  0  0  0
   25.3964   63.4502   -2.7903 C   0  0  0  0  0  0  0  0  0  0  0  0
   24.1522   63.0990   -3.6154 C   0  0  0  0  0  0  0  0  0  0  0  0
   22.1603   63.1357   -9.1862 N   0  0  0  0  0  0  0  0  0  0  0  0
   22.7743   62.9500  -10.0037 H   0  0  0  0  0  0  0  0  0  0  0  0
   20.1023   63.1350  -10.2549 C   0  0  0  0  0  0  0  0  0  0  0  0
   20.8388   62.6949   -9.2579 N   0  0  0  0  0  0  0  0  0  0  0  0
   15.0528   64.5453  -11.1002 Br  0  0  0  0  0  0  0  0  0  0  0  0
   16.4166   63.2606  -10.7419 C   0  0  0  0  0  0  0  0  0  0  0  0
   17.7184   63.6490  -10.6326 C   0  0  0  0  0  0  0  0  0  0  0  0
   18.7188   62.7009  -10.3681 C   0  0  0  0  0  0  0  0  0  0  0  0
   18.3579   61.3886  -10.2256 C   0  0  0  0  0  0  0  0  0  0  0  0
   17.0146   60.9952  -10.3399 C   0  0  0  0  0  0  0  0  0  0  0  0
   16.0544   61.9398  -10.5983 C   0  0  0  0  0  0  0  0  0  0  0  0
   19.2995   60.4127   -9.9648 O   0  0  0  0  0  0  0  0  0  0  0  0
   20.2795   60.5803   -9.8645 H   0  0  0  0  0  0  0  0  0  0  0  0
 23 24  1  0  0  0
 24 25  2  0  0  0
 24 29  1  0  0  0
 25 26  1  0  0  0
 26 27  2  0  0  0
 26 21  1  0  0  0
 27 28  1  0  0  0
 27 30  1  0  0  0
 28 29  2  0  0  0
 21 22  2  0  0  0
 22 19  1  0  0  0
 19  1  1  0  0  0
  1  2  2  0  0  0
  1  6  1  0  0  0
  2  3  1  0  0  0
  3  4  2  0  0  0
  3 13  1  0  0  0
  4  5  1  0  0  0
  5  6  2  0  0  0
  5  7  1  0  0  0
  7  8  1  0  0  0
  7 12  1  0  0  0
  8  9  1  0  0  0
  9 10  1  0  0  0
 10 11  1  0  0  0
 11 12  1  0  0  0
 13 14  1  0  0  0
 13 18  1  0  0  0
 14 15  1  0  0  0
 15 16  1  0  0  0
 16 17  1  0  0  0
 17 18  1  0  0  0
 30 31  1  0  0  0
 19 20  1  0  0  0
M  END
> <minimizedAffinity>
-9.76150

$$$$
1863


 33 36  0  0  0  0  0  0  0  0999 V2000
   20.9096   63.9614   -9.9238 N   0  0  0  0  0  0  0  0  0  0  0  0
   21.4449   63.5825  -11.1168 C   0  0  0  0  0  0  0  0  0  0  0  0
   22.8084   63.6306  -10.9929 C   0  0  0  0  0  0  0  0  0  0  0  0
   23.0522   64.0320   -9.7460 N   0  0  0  0  0  0  0  0  0  0  0  0
   21.8936   64.2443   -9.0664 C   0  0  0  0  0  0  0  0  0  0  0  0
   23.5600   63.3100  -12.0604 N   0  0  0  0  0  0  0  0  0  0  0  0
   22.9990   62.9462  -13.2450 C   0  0  0  0  0  0  0  0  0  0  0  0
   23.7015   62.6415  -14.2599 O   0  0  0  0  0  0  0  0  0  0  0  0
   21.6650   62.8910  -13.3968 N   0  0  0  0  0  0  0  0  0  0  0  0
   20.9001   63.2064  -12.3426 C   0  0  0  0  0  0  0  0  0  0  0  0
   19.6626   63.1471  -12.5169 O   0  0  0  0  0  0  0  0  0  0  0  0
   24.9966   63.3496  -11.9816 C   0  0  0  0  0  0  0  0  0  0  0  0
   21.2301   62.6051  -14.3254 H   0  0  0  0  0  0  0  0  0  0  0  0
   21.8224   64.7248   -7.7078 N   0  0  0  0  0  0  0  0  0  0  0  0
   21.3004   63.7810   -6.7467 C   0  0  0  0  0  0  0  0  0  0  0  0
   21.3216   64.2870   -5.3270 C   0  0  0  0  0  0  0  0  0  0  0  0
   22.5963   64.8583   -5.0865 N   0  0  0  0  0  0  0  0  0  0  0  0
   22.8302   66.0128   -5.8881 C   0  0  0  0  0  0  0  0  0  0  0  0
   22.2101   66.0163   -7.2543 C   0  0  0  0  0  0  0  0  0  0  0  0
   23.6236   63.8679   -5.1631 C   0  0  0  0  0  0  0  0  0  0  0  0
   24.0863   63.3678   -3.8354 C   0  0  0  0  0  0  0  0  0  0  0  0
   24.5188   64.0945   -2.9271 O   0  0  0  0  0  0  0  0  0  0  0  0
   24.0023   61.9464   -3.6603 N   0  0  0  0  0  0  0  0  0  0  0  0
   24.7438   61.3035   -4.0190 H   0  0  0  0  0  0  0  0  0  0  0  0
   23.1957   61.5623   -3.1728 H   0  0  0  0  0  0  0  0  0  0  0  0
   19.5075   64.0027   -9.6746 C   0  0  0  0  0  0  0  0  0  0  0  0
   15.0683   61.5776  -10.9940 Cl  0  0  0  0  0  0  0  0  0  0  0  0
   16.7232   61.5779  -10.3904 C   0  0  0  0  0  0  0  0  0  0  0  0
   17.4752   62.7109  -10.2567 C   0  0  0  0  0  0  0  0  0  0  0  0
   18.7957   62.7020   -9.7820 C   0  0  0  0  0  0  0  0  0  0  0  0
   19.3298   61.4962   -9.4430 C   0  0  0  0  0  0  0  0  0  0  0  0
   18.5701   60.3433   -9.5762 C   0  0  0  0  0  0  0  0  0  0  0  0
   17.2718   60.3618  -10.0443 C   0  0  0  0  0  0  0  0  0  0  0  0
 27 28  1  0  0  0
 28 29  2  0  0  0
 28 33  1  0  0  0
 29 30  1  0  0  0
 30 31  2  0  0  0
 30 26  1  0  0  0
 31 32  1  0  0  0
 32 33  2  0  0  0
 26  1  1  0  0  0
  1  2  1  0  0  0
  1  5  1  0  0  0
  2  3  2  0  0  0
  2 10  1  0  0  0
  3  4  1  0  0  0
  3  6  1  0  0  0
  4  5  2  0  0  0
  5 14  1  0  0  0
 14 15  1  0  0  0
 14 19  1  0  0  0
 15 16  1  0  0  0
 16 17  1  0  0  0
 17 18  1  0  0  0
 17 20  1  0  0  0
 18 19  1  0  0  0
 20 21  1  0  0  0
 21 22  2  0  0  0
 21 23  1  0  0  0
  6  7  1  0  0  0
  6 12  1  0  0  0
  7  8  2  0  0  0
  7  9  1  0  0  0
  9 10  1  0  0  0
 10 11  2  0  0  0
 23 24  1  0  0  0
 23 25  1  0  0  0
  9 13  1  0  0  0
M  END
> <minimizedAffinity>
-7.04491

$$$$
1865


 29 32  0  0  0  0  0  0  0  0999 V2000
   12.1386   64.2863  -13.6514 N   0  0  0  0  0  0  0  0  0  0  0  0
   12.6065   63.2874  -14.5703 C   0  0  0  0  0  0  0  0  0  0  0  0
   13.3231   62.2828  -14.2484 O   0  0  0  0  0  0  0  0  0  0  0  0
   12.1398   63.6047  -15.8789 N   0  0  0  0  0  0  0  0  0  0  0  0
   11.8328   65.0174  -15.8508 C   0  0  0  0  0  0  0  0  0  0  0  0
   13.1498   65.7584  -15.9868 C   0  0  0  0  0  0  0  0  0  0  0  0
   12.8824   67.1844  -15.5191 C   0  0  0  0  0  0  0  0  0  0  0  0
   11.6824   67.6978  -16.1519 N   0  0  0  0  0  0  0  0  0  0  0  0
   11.0244   66.9213  -17.1693 C   0  0  0  0  0  0  0  0  0  0  0  0
   10.8720   65.4668  -16.8661 C   0  0  0  0  0  0  0  0  0  0  0  0
   11.1691   68.9637  -15.7676 C   0  0  0  0  0  0  0  0  0  0  0  0
   10.1132   69.4066  -16.3233 O   0  0  0  0  0  0  0  0  0  0  0  0
   11.3866   65.1986  -14.4469 C   0  0  0  0  0  0  0  0  0  0  0  0
   10.5217   65.9814  -13.9693 O   0  0  0  0  0  0  0  0  0  0  0  0
   12.0405   62.9610  -16.6862 H   0  0  0  0  0  0  0  0  0  0  0  0
   11.7862   69.8069  -14.7582 C   0  0  0  0  0  0  0  0  0  0  0  0
   11.5741   69.6354  -13.4385 N   0  0  0  0  0  0  0  0  0  0  0  0
   12.1779   70.4533  -12.5588 C   0  0  0  0  0  0  0  0  0  0  0  0
   13.0166   71.4739  -12.9527 C   0  0  0  0  0  0  0  0  0  0  0  0
   13.2302   71.6481  -14.2656 N   0  0  0  0  0  0  0  0  0  0  0  0
   12.6217   70.8228  -15.1598 C   0  0  0  0  0  0  0  0  0  0  0  0
   12.3678   64.3673  -12.2277 C   0  0  0  0  0  0  0  0  0  0  0  0
   15.4899   60.5189  -10.5248 Cl  0  0  0  0  0  0  0  0  0  0  0  0
   15.2000   62.1649  -11.0517 C   0  0  0  0  0  0  0  0  0  0  0  0
   13.9534   62.6235  -11.4239 C   0  0  0  0  0  0  0  0  0  0  0  0
   13.7202   63.9148  -11.8383 C   0  0  0  0  0  0  0  0  0  0  0  0
   14.7648   64.8087  -11.8929 C   0  0  0  0  0  0  0  0  0  0  0  0
   16.0230   64.3661  -11.5237 C   0  0  0  0  0  0  0  0  0  0  0  0
   16.2426   63.0683  -11.1100 C   0  0  0  0  0  0  0  0  0  0  0  0
 23 24  1  0  0  0
 24 25  2  0  0  0
 24 29  1  0  0  0
 25 26  1  0  0  0
 26 27  2  0  0  0
 26 22  1  0  0  0
 27 28  1  0  0  0
 28 29  2  0  0  0
 22  1  1  0  0  0
  1  2  1  0  0  0
  1 13  1  0  0  0
  2  3  2  0  0  0
  2  4  1  0  0  0
  4  5  1  0  0  0
  5  6  1  0  0  0
  5 10  1  0  0  0
  5 13  1  0  0  0
  6  7  1  0  0  0
  7  8  1  0  0  0
  8  9  1  0  0  0
  8 11  1  0  0  0
  9 10  1  0  0  0
 11 12  2  0  0  0
 11 16  1  0  0  0
 16 17  2  0  0  0
 16 21  1  0  0  0
 17 18  1  0  0  0
 18 19  2  0  0  0
 19 20  1  0  0  0
 20 21  2  0  0  0
 13 14  2  0  0  0
  4 15  1  0  0  0
M  END
> <minimizedAffinity>
-6.04080

$$$$
1871


 28 31  0  0  0  0  0  0  0  0999 V2000
   12.1078   64.0456  -15.7168 C   0  0  0  0  0  0  0  0  0  0  0  0
   12.7640   64.9701  -14.8774 N   0  0  0  0  0  0  0  0  0  0  0  0
   12.1257   66.2172  -14.9221 C   0  0  0  0  0  0  0  0  0  0  0  0
   12.2543   67.4503  -14.4977 C   0  0  0  0  0  0  0  0  0  0  0  0
   11.2615   68.4825  -14.8173 C   0  0  0  0  0  0  0  0  0  0  0  0
    9.9416   68.1076  -15.3091 C   0  0  0  0  0  0  0  0  0  0  0  0
    9.7459   66.6369  -15.5810 C   0  0  0  0  0  0  0  0  0  0  0  0
   10.9863   65.9817  -15.7970 N   0  0  0  0  0  0  0  0  0  0  0  0
   11.5249   65.0223  -16.7527 C   0  0  0  0  0  0  0  0  0  0  0  0
   10.4628   64.4818  -17.6151 C   0  0  0  0  0  0  0  0  0  0  0  0
   13.0340   63.2950  -16.4039 O   0  0  0  0  0  0  0  0  0  0  0  0
   13.6739   65.2065  -15.4834 H   0  0  0  0  0  0  0  0  0  0  0  0
   12.7689   62.3935  -16.6628 H   0  0  0  0  0  0  0  0  0  0  0  0
    7.6608   60.7003  -13.4913 Cl  0  0  0  0  0  0  0  0  0  0  0  0
    8.9812   61.6440  -14.1554 C   0  0  0  0  0  0  0  0  0  0  0  0
    9.9544   61.0733  -14.9637 C   0  0  0  0  0  0  0  0  0  0  0  0
   10.9704   61.8916  -15.4536 C   0  0  0  0  0  0  0  0  0  0  0  0
   11.0322   63.2284  -15.1600 C   0  0  0  0  0  0  0  0  0  0  0  0
   10.0645   63.8022  -14.3538 C   0  0  0  0  0  0  0  0  0  0  0  0
    9.0576   62.9928  -13.8678 C   0  0  0  0  0  0  0  0  0  0  0  0
   13.3709   64.4878  -13.7223 C   0  0  0  0  0  0  0  0  0  0  0  0
   14.3710   65.2655  -13.1620 C   0  0  0  0  0  0  0  0  0  0  0  0
   15.0562   64.8976  -12.0295 C   0  0  0  0  0  0  0  0  0  0  0  0
   14.7851   63.7003  -11.3593 C   0  0  0  0  0  0  0  0  0  0  0  0
   13.7914   62.9494  -11.9366 C   0  0  0  0  0  0  0  0  0  0  0  0
   13.1108   63.3239  -13.0687 C   0  0  0  0  0  0  0  0  0  0  0  0
   15.4779   63.3425  -10.2189 O   0  0  0  0  0  0  0  0  0  0  0  0
   16.8441   63.6536  -10.1106 C   0  0  0  0  0  0  0  0  0  0  0  0
 14 15  1  0  0  0
 15 16  2  0  0  0
 15 20  1  0  0  0
 16 17  1  0  0  0
 17 18  2  0  0  0
 18 19  1  0  0  0
 18  1  1  0  0  0
 19 20  2  0  0  0
  1  2  1  0  0  0
  1  9  1  0  0  0
  1 11  1  0  0  0
  2  3  1  0  0  0
  2 21  1  0  0  0
  3  4  2  0  0  0
  3  8  1  0  0  0
  4  5  1  0  0  0
  5  6  1  0  0  0
  6  7  1  0  0  0
  7  8  1  0  0  0
  8  9  1  0  0  0
  9 10  1  0  0  0
 21 22  2  0  0  0
 21 26  1  0  0  0
 22 23  1  0  0  0
 23 24  2  0  0  0
 24 25  1  0  0  0
 24 27  1  0  0  0
 25 26  2  0  0  0
 27 28  1  0  0  0
  2 12  1  0  0  0
 11 13  1  0  0  0
M  CHG 1   2   1
M  END
> <minimizedAffinity>
-5.13361

$$$$
1893


 28 31  0  0  0  0  0  0  0  0999 V2000
   19.4666   63.0875  -10.2886 N   0  0  0  0  0  0  0  0  0  0  0  0
   20.0693   63.4783   -9.1411 C   0  0  0  0  0  0  0  0  0  0  0  0
   19.4874   63.5367   -8.0263 O   0  0  0  0  0  0  0  0  0  0  0  0
   21.3975   63.8007   -9.3636 C   0  0  0  0  0  0  0  0  0  0  0  0
   21.6081   63.6065  -10.6558 C   0  0  0  0  0  0  0  0  0  0  0  0
   22.9032   63.9217  -10.8690 N   0  0  0  0  0  0  0  0  0  0  0  0
   23.4525   64.3013   -9.7072 N   0  0  0  0  0  0  0  0  0  0  0  0
   22.5245   64.2291   -8.7670 N   0  0  0  0  0  0  0  0  0  0  0  0
   20.4290   63.1702  -11.2233 C   0  0  0  0  0  0  0  0  0  0  0  0
   20.3044   62.8978  -12.4377 O   0  0  0  0  0  0  0  0  0  0  0  0
   23.3857   63.8761  -11.7854 H   0  0  0  0  0  0  0  0  0  0  0  0
   24.4322   64.6073   -9.5273 H   0  0  0  0  0  0  0  0  0  0  0  0
   13.7774   61.4401  -10.9662 Cl  0  0  0  0  0  0  0  0  0  0  0  0
   15.4723   61.8972  -10.7600 C   0  0  0  0  0  0  0  0  0  0  0  0
   16.4359   60.9451  -10.5009 C   0  0  0  0  0  0  0  0  0  0  0  0
   17.7453   61.3635  -10.3493 C   0  0  0  0  0  0  0  0  0  0  0  0
   18.1228   62.6864  -10.4466 C   0  0  0  0  0  0  0  0  0  0  0  0
   17.1299   63.6094  -10.7074 C   0  0  0  0  0  0  0  0  0  0  0  0
   15.7991   63.2337  -10.8671 C   0  0  0  0  0  0  0  0  0  0  0  0
   22.6839   64.5461   -7.3636 C   0  0  0  0  0  0  0  0  0  0  0  0
   22.4673   65.9834   -7.0645 C   0  0  0  0  0  0  0  0  0  0  0  0
   23.3978   66.7948   -6.4545 C   0  0  0  0  0  0  0  0  0  0  0  0
   23.1925   68.1320   -6.1791 C   0  0  0  0  0  0  0  0  0  0  0  0
   21.9921   68.7021   -6.5276 C   0  0  0  0  0  0  0  0  0  0  0  0
   21.0336   67.9287   -7.1394 C   0  0  0  0  0  0  0  0  0  0  0  0
   21.2658   66.5891   -7.4040 C   0  0  0  0  0  0  0  0  0  0  0  0
   24.2071   68.8675   -5.5537 O   0  0  0  0  0  0  0  0  0  0  0  0
   24.0228   70.2217   -5.1941 C   0  0  0  0  0  0  0  0  0  0  0  0
 13 14  1  0  0  0
 14 15  2  0  0  0
 14 19  1  0  0  0
 15 16  1  0  0  0
 16 17  2  0  0  0
 17 18  1  0  0  0
 17  1  1  0  0  0
 18 19  2  0  0  0
  1  2  1  0  0  0
  1  9  1  0  0  0
  2  3  2  0  0  0
  2  4  1  0  0  0
  4  5  2  0  0  0
  4  8  1  0  0  0
  5  6  1  0  0  0
  5  9  1  0  0  0
  6  7  1  0  0  0
  7  8  1  0  0  0
  8 20  1  0  0  0
 20 21  1  0  0  0
 21 22  2  0  0  0
 21 26  1  0  0  0
 22 23  1  0  0  0
 23 24  2  0  0  0
 23 27  1  0  0  0
 24 25  1  0  0  0
 25 26  2  0  0  0
 27 28  1  0  0  0
  9 10  2  0  0  0
  6 11  1  0  0  0
  7 12  1  0  0  0
M  END
> <minimizedAffinity>
-9.04257

$$$$
1894


 26 29  0  0  0  0  0  0  0  0999 V2000
   20.1614   63.2814   -9.3508 N   0  0  0  0  0  0  0  0  0  0  0  0
   20.5695   63.5741   -8.0954 C   0  0  0  0  0  0  0  0  0  0  0  0
   19.8609   63.4285   -7.0774 O   0  0  0  0  0  0  0  0  0  0  0  0
   21.8687   64.0529   -8.0952 C   0  0  0  0  0  0  0  0  0  0  0  0
   22.2589   64.0508   -9.3781 C   0  0  0  0  0  0  0  0  0  0  0  0
   23.5210   64.5148   -9.3662 N   0  0  0  0  0  0  0  0  0  0  0  0
   23.8814   64.7878   -8.1255 N   0  0  0  0  0  0  0  0  0  0  0  0
   22.8728   64.5084   -7.3282 N   0  0  0  0  0  0  0  0  0  0  0  0
   21.2068   63.5773  -10.1330 C   0  0  0  0  0  0  0  0  0  0  0  0
   21.2280   63.4428  -11.3872 O   0  0  0  0  0  0  0  0  0  0  0  0
   24.1462   64.6507  -10.1873 H   0  0  0  0  0  0  0  0  0  0  0  0
   24.8233   65.1686   -7.8139 H   0  0  0  0  0  0  0  0  0  0  0  0
   14.8079   61.1453  -11.0551 Cl  0  0  0  0  0  0  0  0  0  0  0  0
   16.3794   61.7650  -10.5552 C   0  0  0  0  0  0  0  0  0  0  0  0
   16.6016   63.1191  -10.4206 C   0  0  0  0  0  0  0  0  0  0  0  0
   17.8337   63.6074  -10.0285 C   0  0  0  0  0  0  0  0  0  0  0  0
   18.8931   62.7688   -9.7546 C   0  0  0  0  0  0  0  0  0  0  0  0
   18.6604   61.4124   -9.8916 C   0  0  0  0  0  0  0  0  0  0  0  0
   17.4322   60.9157  -10.2834 C   0  0  0  0  0  0  0  0  0  0  0  0
   22.8290   64.6606   -5.8928 C   0  0  0  0  0  0  0  0  0  0  0  0
   23.7950   63.8032   -5.1730 C   0  0  0  0  0  0  0  0  0  0  0  0
   24.7685   63.1368   -5.8761 C   0  0  0  0  0  0  0  0  0  0  0  0
   25.6548   62.3416   -5.1871 C   0  0  0  0  0  0  0  0  0  0  0  0
   25.5832   62.2031   -3.8126 C   0  0  0  0  0  0  0  0  0  0  0  0
   24.6076   62.8699   -3.1068 C   0  0  0  0  0  0  0  0  0  0  0  0
   23.7349   63.6565   -3.8064 C   0  0  0  0  0  0  0  0  0  0  0  0
 13 14  1  0  0  0
 14 15  2  0  0  0
 14 19  1  0  0  0
 15 16  1  0  0  0
 16 17  2  0  0  0
 17 18  1  0  0  0
 17  1  1  0  0  0
 18 19  2  0  0  0
  1  2  1  0  0  0
  1  9  1  0  0  0
  2  3  2  0  0  0
  2  4  1  0  0  0
  4  5  2  0  0  0
  4  8  1  0  0  0
  5  6  1  0  0  0
  5  9  1  0  0  0
  6  7  1  0  0  0
  7  8  1  0  0  0
  8 20  1  0  0  0
 20 21  1  0  0  0
 21 22  2  0  0  0
 21 26  1  0  0  0
 22 23  1  0  0  0
 23 24  2  0  0  0
 24 25  1  0  0  0
 25 26  2  0  0  0
  9 10  2  0  0  0
  6 11  1  0  0  0
  7 12  1  0  0  0
M  END
> <minimizedAffinity>
-9.74033

$$$$
1895


 32 35  0  0  0  0  0  0  0  0999 V2000
   13.4898   64.1649  -13.3900 N   0  0  0  0  0  0  0  0  0  0  0  0
   14.4802   64.5098  -12.4459 C   0  0  0  0  0  0  0  0  0  0  0  0
   14.1199   63.8025  -11.1228 C   0  0  0  0  0  0  0  0  0  0  0  0
   14.3528   62.4114  -11.4160 N   0  0  0  0  0  0  0  0  0  0  0  0
   13.4030   61.8842  -12.4202 C   0  0  0  0  0  0  0  0  0  0  0  0
   13.0900   62.8260  -13.5091 C   0  0  0  0  0  0  0  0  0  0  0  0
   15.3132   61.5453  -10.8971 C   0  0  0  0  0  0  0  0  0  0  0  0
   15.2380   60.3306  -11.4058 O   0  0  0  0  0  0  0  0  0  0  0  0
   13.5570   65.0431  -14.8528 S   0  0  0  0  0  0  0  0  0  0  0  0
   14.7441   65.9117  -14.9921 O   0  0  0  0  0  0  0  0  0  0  0  0
   13.5459   64.0536  -15.9933 O   0  0  0  0  0  0  0  0  0  0  0  0
   12.0813   66.0198  -14.9472 C   0  0  0  0  0  0  0  0  0  0  0  0
   10.5870   65.6712  -15.6860 S   0  0  0  0  0  0  0  0  0  0  0  0
    9.7551   67.1088  -15.3135 C   0  0  0  0  0  0  0  0  0  0  0  0
   10.6819   67.8338  -14.6110 C   0  0  0  0  0  0  0  0  0  0  0  0
   11.8854   67.2640  -14.4246 C   0  0  0  0  0  0  0  0  0  0  0  0
    8.0949   67.5596  -15.7322 Cl  0  0  0  0  0  0  0  0  0  0  0  0
   16.3752   61.6703   -9.9324 C   0  0  0  0  0  0  0  0  0  0  0  0
   17.4451   62.5795  -10.2102 N   0  0  0  0  0  0  0  0  0  0  0  0
   17.3913   63.9991  -10.0601 C   0  0  0  0  0  0  0  0  0  0  0  0
   16.3506   64.6293   -9.6694 O   0  0  0  0  0  0  0  0  0  0  0  0
   18.6519   64.5278  -10.4122 N   0  0  0  0  0  0  0  0  0  0  0  0
   19.6187   63.4409  -10.4016 C   0  0  0  0  0  0  0  0  0  0  0  0
   20.6535   63.5327  -11.4675 C   0  0  0  0  0  0  0  0  0  0  0  0
   21.9503   62.9406  -10.9049 C   0  0  0  0  0  0  0  0  0  0  0  0
   22.4824   63.9623   -9.9183 C   0  0  0  0  0  0  0  0  0  0  0  0
   21.3650   64.3927   -8.9998 C   0  0  0  0  0  0  0  0  0  0  0  0
   20.2139   63.3974   -9.0123 C   0  0  0  0  0  0  0  0  0  0  0  0
   20.3332   62.7345  -12.7100 C   0  0  0  0  0  0  0  0  0  0  0  0
   18.7600   62.2468  -10.6613 C   0  0  0  0  0  0  0  0  0  0  0  0
   19.1156   61.1667  -11.1711 O   0  0  0  0  0  0  0  0  0  0  0  0
   18.8748   65.5085  -10.6409 H   0  0  0  0  0  0  0  0  0  0  0  0
  9 10  2  0  0  0
  9 11  2  0  0  0
  9  1  1  0  0  0
  9 12  1  0  0  0
  1  2  1  0  0  0
  1  6  1  0  0  0
  2  3  1  0  0  0
  3  4  1  0  0  0
  4  5  1  0  0  0
  4  7  1  0  0  0
  5  6  1  0  0  0
  7  8  2  0  0  0
  7 18  1  0  0  0
 18 19  1  0  0  0
 19 20  1  0  0  0
 19 30  1  0  0  0
 20 21  2  0  0  0
 20 22  1  0  0  0
 22 23  1  0  0  0
 23 24  1  0  0  0
 23 28  1  0  0  0
 23 30  1  0  0  0
 24 25  1  0  0  0
 24 29  1  0  0  0
 25 26  1  0  0  0
 26 27  1  0  0  0
 27 28  1  0  0  0
 30 31  2  0  0  0
 12 13  1  0  0  0
 12 16  2  0  0  0
 13 14  1  0  0  0
 14 15  2  0  0  0
 14 17  1  0  0  0
 15 16  1  0  0  0
 22 32  1  0  0  0
M  END
> <minimizedAffinity>
-7.67989

$$$$
1906


 33 36  0  0  0  0  0  0  0  0999 V2000
   20.8522   63.6175   -8.2923 C   0  0  0  0  0  0  0  0  0  0  0  0
   20.8714   64.7214   -9.1570 O   0  0  0  0  0  0  0  0  0  0  0  0
   20.4046   65.8836   -8.6068 C   0  0  0  0  0  0  0  0  0  0  0  0
   21.3195   66.4830   -7.5580 C   0  0  0  0  0  0  0  0  0  0  0  0
   21.8347   65.3016   -6.8189 N   0  0  0  0  0  0  0  0  0  0  0  0
   20.9930   64.1689   -6.8615 C   0  0  0  0  0  0  0  0  0  0  0  0
   23.0504   65.4155   -6.1771 C   0  0  0  0  0  0  0  0  0  0  0  0
   23.7143   66.5322   -6.2250 O   0  0  0  0  0  0  0  0  0  0  0  0
   23.6844   64.3752   -5.4263 C   0  0  0  0  0  0  0  0  0  0  0  0
   23.4880   64.1759   -4.1229 N   0  0  0  0  0  0  0  0  0  0  0  0
   24.0810   63.1981   -3.4097 C   0  0  0  0  0  0  0  0  0  0  0  0
   24.9548   62.3292   -4.0436 C   0  0  0  0  0  0  0  0  0  0  0  0
   25.1739   62.4959   -5.3377 N   0  0  0  0  0  0  0  0  0  0  0  0
   24.5722   63.4776   -6.0292 C   0  0  0  0  0  0  0  0  0  0  0  0
   25.5788   61.2723   -3.2100 C   0  0  0  0  0  0  0  0  0  0  0  0
   19.4618   63.0555   -8.3768 C   0  0  0  0  0  0  0  0  0  0  0  0
   18.6649   63.3561   -9.3771 O   0  0  0  0  0  0  0  0  0  0  0  0
   14.5199   61.2783  -11.4665 Cl  0  0  0  0  0  0  0  0  0  0  0  0
   15.4814   62.6458  -10.9044 C   0  0  0  0  0  0  0  0  0  0  0  0
   16.7145   62.4209  -10.3555 C   0  0  0  0  0  0  0  0  0  0  0  0
   17.4833   63.4653   -9.9098 C   0  0  0  0  0  0  0  0  0  0  0  0
   16.9522   64.7638  -10.0384 C   0  0  0  0  0  0  0  0  0  0  0  0
   15.7285   64.9676  -10.5848 C   0  0  0  0  0  0  0  0  0  0  0  0
   14.9636   63.9214  -11.0304 C   0  0  0  0  0  0  0  0  0  0  0  0
   21.9491   62.7262   -8.6582 C   0  0  0  0  0  0  0  0  0  0  0  0
   23.0537   63.2639   -9.4547 C   0  0  0  0  0  0  0  0  0  0  0  0
   24.1693   63.4761   -8.9432 O   0  0  0  0  0  0  0  0  0  0  0  0
   22.8942   63.5632  -10.8380 N   0  0  0  0  0  0  0  0  0  0  0  0
   21.6237   63.3491  -11.5224 C   0  0  0  0  0  0  0  0  0  0  0  0
   21.9320   62.6207  -12.8134 C   0  0  0  0  0  0  0  0  0  0  0  0
   22.8271   63.3903  -13.5629 O   0  0  0  0  0  0  0  0  0  0  0  0
   24.0700   63.3659  -12.9314 C   0  0  0  0  0  0  0  0  0  0  0  0
   23.9822   64.0965  -11.6309 C   0  0  0  0  0  0  0  0  0  0  0  0
 18 19  1  0  0  0
 19 20  2  0  0  0
 19 24  1  0  0  0
 20 21  1  0  0  0
 21 22  2  0  0  0
 21 17  1  0  0  0
 22 23  1  0  0  0
 23 24  2  0  0  0
 17 16  1  0  0  0
 16  1  1  0  0  0
  1  2  1  0  0  0
  1  6  1  0  0  0
  1 25  1  0  0  0
  2  3  1  0  0  0
  3  4  1  0  0  0
  4  5  1  0  0  0
  5  6  1  0  0  0
  5  7  1  0  0  0
  7  8  2  0  0  0
  7  9  1  0  0  0
  9 10  2  0  0  0
  9 14  1  0  0  0
 10 11  1  0  0  0
 11 12  2  0  0  0
 12 13  1  0  0  0
 12 15  1  0  0  0
 13 14  2  0  0  0
 25 26  1  0  0  0
 26 27  2  0  0  0
 26 28  1  0  0  0
 28 29  1  0  0  0
 28 33  1  0  0  0
 29 30  1  0  0  0
 30 31  1  0  0  0
 31 32  1  0  0  0
 32 33  1  0  0  0
M  END
> <minimizedAffinity>
-7.02708

$$$$
1913


 29 32  0  0  0  0  0  0  0  0999 V2000
   19.7109   63.3167  -10.4041 N   0  0  0  0  0  0  0  0  0  0  0  0
   19.7271   64.5614   -9.6706 C   0  0  0  0  0  0  0  0  0  0  0  0
   21.0083   65.3343   -9.8331 C   0  0  0  0  0  0  0  0  0  0  0  0
   22.1676   64.4103   -9.6907 C   0  0  0  0  0  0  0  0  0  0  0  0
   22.1545   63.4087  -10.7936 C   0  0  0  0  0  0  0  0  0  0  0  0
   20.8385   62.8035  -11.1194 C   0  0  0  0  0  0  0  0  0  0  0  0
   17.3539   58.9200   -9.4508 Cl  0  0  0  0  0  0  0  0  0  0  0  0
   17.3517   60.5623  -10.0050 C   0  0  0  0  0  0  0  0  0  0  0  0
   16.2224   61.1122  -10.4553 N   0  0  0  0  0  0  0  0  0  0  0  0
   16.1649   62.3728  -10.8944 C   0  0  0  0  0  0  0  0  0  0  0  0
   15.1744   63.1173  -11.3700 N   0  0  0  0  0  0  0  0  0  0  0  0
   15.7224   64.3095  -11.6387 C   0  0  0  0  0  0  0  0  0  0  0  0
   17.0288   64.3380  -11.3448 N   0  0  0  0  0  0  0  0  0  0  0  0
   17.3489   63.1236  -10.8697 C   0  0  0  0  0  0  0  0  0  0  0  0
   18.5143   62.5706  -10.4098 C   0  0  0  0  0  0  0  0  0  0  0  0
   18.4819   61.2746   -9.9806 N   0  0  0  0  0  0  0  0  0  0  0  0
   17.7064   65.1301  -11.4439 H   0  0  0  0  0  0  0  0  0  0  0  0
   22.2814   63.8457   -8.3449 C   0  0  0  0  0  0  0  0  0  0  0  0
   22.6266   62.6446   -8.2272 O   0  0  0  0  0  0  0  0  0  0  0  0
   22.0214   64.5852   -7.1728 N   0  0  0  0  0  0  0  0  0  0  0  0
   21.7304   65.6011   -7.2717 H   0  0  0  0  0  0  0  0  0  0  0  0
   22.1296   64.0412   -5.8389 C   0  0  0  0  0  0  0  0  0  0  0  0
   23.4275   64.3677   -5.1580 C   0  0  0  0  0  0  0  0  0  0  0  0
   24.1236   63.1592   -4.7540 N   0  0  0  0  0  0  0  0  0  0  0  0
   24.2233   63.0185   -3.3405 C   0  0  0  0  0  0  0  0  0  0  0  0
   25.6533   63.2310   -2.8860 C   0  0  0  0  0  0  0  0  0  0  0  0
   26.4211   62.2358   -3.4374 O   0  0  0  0  0  0  0  0  0  0  0  0
   26.3448   62.0969   -4.7977 C   0  0  0  0  0  0  0  0  0  0  0  0
   25.3157   62.9242   -5.4865 C   0  0  0  0  0  0  0  0  0  0  0  0
  7  8  1  0  0  0
  8  9  2  0  0  0
  8 16  1  0  0  0
  9 10  1  0  0  0
 10 11  1  0  0  0
 10 14  2  0  0  0
 11 12  2  0  0  0
 12 13  1  0  0  0
 13 14  1  0  0  0
 14 15  1  0  0  0
 15 16  2  0  0  0
 15  1  1  0  0  0
  1  2  1  0  0  0
  1  6  1  0  0  0
  2  3  1  0  0  0
  3  4  1  0  0  0
  4  5  1  0  0  0
  4 18  1  0  0  0
  5  6  1  0  0  0
 18 19  2  0  0  0
 18 20  1  0  0  0
 20 22  1  0  0  0
 22 23  1  0  0  0
 23 24  1  0  0  0
 24 25  1  0  0  0
 24 29  1  0  0  0
 25 26  1  0  0  0
 26 27  1  0  0  0
 27 28  1  0  0  0
 28 29  1  0  0  0
 13 17  1  0  0  0
 20 21  1  0  0  0
M  END
> <minimizedAffinity>
-8.51671

$$$$
1927


 36 39  0  0  0  0  0  0  0  0999 V2000
   18.2166   63.7912   -9.8304 C   0  0  0  0  0  0  0  0  0  0  0  0
   22.8799   64.1388   -7.4965 C   0  0  0  0  0  0  0  0  0  0  0  0
   21.4108   64.2366   -7.0922 C   0  0  0  0  0  0  0  0  0  0  0  0
   20.7617   64.9524   -8.2588 C   0  0  0  0  0  0  0  0  0  0  0  0
   20.7667   64.1222   -9.4113 N   0  0  0  0  0  0  0  0  0  0  0  0
   22.1015   63.6499   -9.8634 C   0  0  0  0  0  0  0  0  0  0  0  0
   23.0494   63.3629   -8.7489 C   0  0  0  0  0  0  0  0  0  0  0  0
   19.6537   63.7084  -10.1313 C   0  0  0  0  0  0  0  0  0  0  0  0
   19.8971   63.1505  -11.2894 O   0  0  0  0  0  0  0  0  0  0  0  0
   23.2230   65.4941   -7.8042 O   0  0  0  0  0  0  0  0  0  0  0  0
   23.8403   65.4551   -8.5763 H   0  0  0  0  0  0  0  0  0  0  0  0
   26.1063   62.7427   -2.5431 Cl  0  0  0  0  0  0  0  0  0  0  0  0
   25.1682   63.1225   -4.0111 C   0  0  0  0  0  0  0  0  0  0  0  0
   24.0128   63.8626   -3.9408 C   0  0  0  0  0  0  0  0  0  0  0  0
   23.2854   64.1648   -5.0917 C   0  0  0  0  0  0  0  0  0  0  0  0
   23.6917   63.7361   -6.3622 C   0  0  0  0  0  0  0  0  0  0  0  0
   24.8514   62.9994   -6.3931 C   0  0  0  0  0  0  0  0  0  0  0  0
   25.5815   62.6920   -5.2612 C   0  0  0  0  0  0  0  0  0  0  0  0
   17.3420   64.0706  -10.8830 N   0  0  0  0  0  0  0  0  0  0  0  0
   15.9950   64.5229  -10.7330 C   0  0  0  0  0  0  0  0  0  0  0  0
   15.6045   64.6420   -9.5417 O   0  0  0  0  0  0  0  0  0  0  0  0
   17.6615   64.0305  -11.8877 H   0  0  0  0  0  0  0  0  0  0  0  0
   15.1756   64.8158  -11.8767 C   0  0  0  0  0  0  0  0  0  0  0  0
   14.3109   64.0945  -12.5106 C   0  0  0  0  0  0  0  0  0  0  0  0
   13.9988   62.7465  -12.1517 N   0  0  0  0  0  0  0  0  0  0  0  0
   13.0333   61.9894  -12.8476 N   0  0  0  0  0  0  0  0  0  0  0  0
   12.3278   62.5382  -13.9373 C   0  0  0  0  0  0  0  0  0  0  0  0
   11.4680   61.8252  -14.5325 O   0  0  0  0  0  0  0  0  0  0  0  0
   12.6124   63.9032  -14.3349 C   0  0  0  0  0  0  0  0  0  0  0  0
   13.5530   64.6480  -13.6611 C   0  0  0  0  0  0  0  0  0  0  0  0
   13.7440   65.9339  -14.0786 C   0  0  0  0  0  0  0  0  0  0  0  0
   13.0305   66.5023  -15.1405 C   0  0  0  0  0  0  0  0  0  0  0  0
   12.1065   65.7208  -15.7780 C   0  0  0  0  0  0  0  0  0  0  0  0
   11.8767   64.4033  -15.3896 C   0  0  0  0  0  0  0  0  0  0  0  0
   14.4858   62.2758  -11.3518 H   0  0  0  0  0  0  0  0  0  0  0  0
   12.8236   61.0060  -12.5569 H   0  0  0  0  0  0  0  0  0  0  0  0
 12 13  1  0  0  0
 13 14  2  0  0  0
 13 18  1  0  0  0
 14 15  1  0  0  0
 15 16  2  0  0  0
 16 17  1  0  0  0
 16  2  1  0  0  0
 17 18  2  0  0  0
  2  3  1  0  0  0
  2  7  1  0  0  0
  2 10  1  0  0  0
  3  4  1  0  0  0
  4  5  1  0  0  0
  5  6  1  0  0  0
  5  8  1  0  0  0
  6  7  1  0  0  0
  8  9  2  0  0  0
  8  1  1  0  0  0
  1 19  1  0  0  0
 19 20  1  0  0  0
 20 21  2  0  0  0
 20 23  1  0  0  0
 23 24  2  0  0  0
 24 25  1  0  0  0
 24 30  1  0  0  0
 25 26  1  0  0  0
 26 27  1  0  0  0
 27 28  2  0  0  0
 27 29  1  0  0  0
 29 30  2  0  0  0
 29 34  1  0  0  0
 30 31  1  0  0  0
 31 32  2  0  0  0
 32 33  1  0  0  0
 33 34  2  0  0  0
 19 22  1  0  0  0
 25 35  1  0  0  0
 26 36  1  0  0  0
 10 11  1  0  0  0
M  END
> <minimizedAffinity>
-9.74213

$$$$
1928


 28 31  0  0  0  0  0  0  0  0999 V2000
   18.9932   62.8634  -10.1387 N   0  0  0  0  0  0  0  0  0  0  0  0
   18.6327   61.5697  -10.0094 C   0  0  0  0  0  0  0  0  0  0  0  0
   17.3374   61.1751  -10.2289 C   0  0  0  0  0  0  0  0  0  0  0  0
   16.3375   62.1791  -10.6092 C   0  0  0  0  0  0  0  0  0  0  0  0
   15.1691   61.5184  -10.7589 N   0  0  0  0  0  0  0  0  0  0  0  0
   15.3564   60.2381  -10.5110 N   0  0  0  0  0  0  0  0  0  0  0  0
   16.6314   59.9741  -10.1900 C   0  0  0  0  0  0  0  0  0  0  0  0
   17.1378   58.8637   -9.8999 O   0  0  0  0  0  0  0  0  0  0  0  0
   16.7531   63.4884  -10.7295 C   0  0  0  0  0  0  0  0  0  0  0  0
   18.0706   63.7590  -10.4846 C   0  0  0  0  0  0  0  0  0  0  0  0
   14.6073   59.5234  -10.5606 H   0  0  0  0  0  0  0  0  0  0  0  0
   15.7845   64.5173  -11.1069 C   0  0  0  0  0  0  0  0  0  0  0  0
   15.4172   65.3721  -10.2889 O   0  0  0  0  0  0  0  0  0  0  0  0
   15.2524   64.5632  -12.3845 O   0  0  0  0  0  0  0  0  0  0  0  0
   13.8792   64.4273  -12.6639 C   0  0  0  0  0  0  0  0  0  0  0  0
   20.3895   63.2272   -9.8914 C   0  0  0  0  0  0  0  0  0  0  0  0
   22.7465   63.2382  -12.6516 C   0  0  0  0  0  0  0  0  0  0  0  0
   21.5652   62.9676  -13.2268 N   0  0  0  0  0  0  0  0  0  0  0  0
   20.6259   62.9352  -12.3298 O   0  0  0  0  0  0  0  0  0  0  0  0
   21.1515   63.1807  -11.1546 C   0  0  0  0  0  0  0  0  0  0  0  0
   22.4843   63.3728  -11.3437 N   0  0  0  0  0  0  0  0  0  0  0  0
   28.0117   63.7104  -15.5439 Cl  0  0  0  0  0  0  0  0  0  0  0  0
   26.4810   63.5734  -14.6955 C   0  0  0  0  0  0  0  0  0  0  0  0
   26.4308   63.4915  -13.3157 C   0  0  0  0  0  0  0  0  0  0  0  0
   25.2157   63.3836  -12.6661 C   0  0  0  0  0  0  0  0  0  0  0  0
   24.0210   63.3524  -13.3466 C   0  0  0  0  0  0  0  0  0  0  0  0
   24.0650   63.4328  -14.7234 C   0  0  0  0  0  0  0  0  0  0  0  0
   25.2776   63.5419  -15.3855 C   0  0  0  0  0  0  0  0  0  0  0  0
 22 23  1  0  0  0
 23 24  2  0  0  0
 23 28  1  0  0  0
 24 25  1  0  0  0
 25 26  2  0  0  0
 26 27  1  0  0  0
 26 17  1  0  0  0
 27 28  2  0  0  0
 17 18  2  0  0  0
 17 21  1  0  0  0
 18 19  1  0  0  0
 19 20  1  0  0  0
 20 21  2  0  0  0
 20 16  1  0  0  0
 16  1  1  0  0  0
  1  2  1  0  0  0
  1 10  1  0  0  0
  2  3  2  0  0  0
  3  4  1  0  0  0
  3  7  1  0  0  0
  4  5  2  0  0  0
  4  9  1  0  0  0
  5  6  1  0  0  0
  6  7  1  0  0  0
  7  8  2  0  0  0
  9 10  2  0  0  0
  9 12  1  0  0  0
 12 13  2  0  0  0
 12 14  1  0  0  0
 14 15  1  0  0  0
  6 11  1  0  0  0
M  END
> <minimizedAffinity>
-9.33088

$$$$
1930


 34 37  0  0  0  0  0  0  0  0999 V2000
   15.2244   62.0189  -11.1569 C   0  0  0  0  0  0  0  0  0  0  0  0
   15.1342   60.7705  -11.2819 O   0  0  0  0  0  0  0  0  0  0  0  0
   14.1933   62.8427  -11.6444 N   0  0  0  0  0  0  0  0  0  0  0  0
   13.0010   62.3044  -12.3002 C   0  0  0  0  0  0  0  0  0  0  0  0
   13.0680   62.8059  -13.7290 C   0  0  0  0  0  0  0  0  0  0  0  0
   13.1789   64.3120  -13.7678 C   0  0  0  0  0  0  0  0  0  0  0  0
   13.0951   64.8899  -12.3502 C   0  0  0  0  0  0  0  0  0  0  0  0
   14.2284   64.2907  -11.5346 C   0  0  0  0  0  0  0  0  0  0  0  0
   14.4431   64.7396  -14.2422 O   0  0  0  0  0  0  0  0  0  0  0  0
   12.1614   64.9713  -14.6489 C   0  0  0  0  0  0  0  0  0  0  0  0
   14.3549   65.7110  -14.4027 H   0  0  0  0  0  0  0  0  0  0  0  0
   12.0810   62.2610  -14.5929 N   0  0  0  0  0  0  0  0  0  0  0  0
   10.7820   62.1199  -14.1962 C   0  0  0  0  0  0  0  0  0  0  0  0
    9.8228   61.5903  -15.0330 C   0  0  0  0  0  0  0  0  0  0  0  0
   10.1759   61.1915  -16.3030 C   0  0  0  0  0  0  0  0  0  0  0  0
    9.3169   60.6959  -17.1089 O   0  0  0  0  0  0  0  0  0  0  0  0
   11.4567   61.3331  -16.6861 N   0  0  0  0  0  0  0  0  0  0  0  0
   12.3709   61.8625  -15.8225 C   0  0  0  0  0  0  0  0  0  0  0  0
   13.5475   61.9703  -16.2345 O   0  0  0  0  0  0  0  0  0  0  0  0
    8.4031   61.4237  -14.6336 C   0  0  0  0  0  0  0  0  0  0  0  0
   11.7270   61.0346  -17.6416 H   0  0  0  0  0  0  0  0  0  0  0  0
   16.4238   62.5883  -10.4962 C   0  0  0  0  0  0  0  0  0  0  0  0
   17.5939   61.6598  -10.4771 C   0  0  0  0  0  0  0  0  0  0  0  0
   23.7076   64.9995   -7.1573 Cl  0  0  0  0  0  0  0  0  0  0  0  0
   22.5948   64.2925   -8.3188 C   0  0  0  0  0  0  0  0  0  0  0  0
   21.3629   63.8013   -7.9686 C   0  0  0  0  0  0  0  0  0  0  0  0
   20.4908   63.2450   -8.8915 C   0  0  0  0  0  0  0  0  0  0  0  0
   19.2634   62.7005   -8.8466 N   0  0  0  0  0  0  0  0  0  0  0  0
   18.8661   62.3044  -10.0678 C   0  0  0  0  0  0  0  0  0  0  0  0
   19.9021   62.6228  -10.8967 N   0  0  0  0  0  0  0  0  0  0  0  0
   20.8976   63.1936  -10.2084 C   0  0  0  0  0  0  0  0  0  0  0  0
   22.1275   63.6760  -10.6036 C   0  0  0  0  0  0  0  0  0  0  0  0
   22.9708   64.2253   -9.6438 C   0  0  0  0  0  0  0  0  0  0  0  0
   19.8567   62.3472  -12.3315 C   0  0  0  0  0  0  0  0  0  0  0  0
 24 25  1  0  0  0
 25 26  2  0  0  0
 25 33  1  0  0  0
 26 27  1  0  0  0
 27 28  1  0  0  0
 27 31  2  0  0  0
 28 29  2  0  0  0
 29 30  1  0  0  0
 29 23  1  0  0  0
 30 31  1  0  0  0
 30 34  1  0  0  0
 31 32  1  0  0  0
 32 33  2  0  0  0
 23 22  1  0  0  0
 22  1  1  0  0  0
  1  2  2  0  0  0
  1  3  1  0  0  0
  3  4  1  0  0  0
  3  8  1  0  0  0
  4  5  1  0  0  0
  5  6  1  0  0  0
  5 12  1  0  0  0
  6  7  1  0  0  0
  6  9  1  0  0  0
  6 10  1  0  0  0
  7  8  1  0  0  0
 12 13  1  0  0  0
 12 18  1  0  0  0
 13 14  2  0  0  0
 14 15  1  0  0  0
 14 20  1  0  0  0
 15 16  2  0  0  0
 15 17  1  0  0  0
 17 18  1  0  0  0
 18 19  2  0  0  0
  9 11  1  0  0  0
 17 21  1  0  0  0
M  END
> <minimizedAffinity>
-8.13298

$$$$
1936


 25 28  0  0  0  0  0  0  0  0999 V2000
   22.8053   64.5495   -8.5021 N   0  0  0  0  0  0  0  0  0  0  0  0
   23.2861   63.6005   -7.5798 C   0  0  0  0  0  0  0  0  0  0  0  0
   23.4798   62.4435   -7.9901 O   0  0  0  0  0  0  0  0  0  0  0  0
   22.6346   65.5298   -8.1774 H   0  0  0  0  0  0  0  0  0  0  0  0
   23.5630   63.9239   -6.1694 C   0  0  0  0  0  0  0  0  0  0  0  0
   23.4506   65.3489   -5.7908 C   0  0  0  0  0  0  0  0  0  0  0  0
   22.3300   64.4786   -5.3785 C   0  0  0  0  0  0  0  0  0  0  0  0
   24.3232   63.0125   -5.3675 N   0  0  0  0  0  0  0  0  0  0  0  0
   24.0102   62.9733   -3.9938 C   0  0  0  0  0  0  0  0  0  0  0  0
   25.0122   63.8601   -3.2646 C   0  0  0  0  0  0  0  0  0  0  0  0
   26.2620   63.2889   -3.3024 O   0  0  0  0  0  0  0  0  0  0  0  0
   26.5189   62.5265   -4.4147 C   0  0  0  0  0  0  0  0  0  0  0  0
   25.7044   62.9541   -5.6187 C   0  0  0  0  0  0  0  0  0  0  0  0
   22.5317   64.2265   -9.8904 C   0  0  0  0  0  0  0  0  0  0  0  0
   15.8579   60.3745  -10.5375 Cl  0  0  0  0  0  0  0  0  0  0  0  0
   17.0348   61.6823  -10.4372 C   0  0  0  0  0  0  0  0  0  0  0  0
   18.3902   61.4425  -10.2859 C   0  0  0  0  0  0  0  0  0  0  0  0
   19.3424   62.4350  -10.2026 C   0  0  0  0  0  0  0  0  0  0  0  0
   20.6786   62.4808  -10.0583 N   0  0  0  0  0  0  0  0  0  0  0  0
   21.1114   63.7554  -10.0355 C   0  0  0  0  0  0  0  0  0  0  0  0
   20.0110   64.5132  -10.1684 N   0  0  0  0  0  0  0  0  0  0  0  0
   18.8993   63.7589  -10.2759 C   0  0  0  0  0  0  0  0  0  0  0  0
   17.5557   64.0116  -10.4260 C   0  0  0  0  0  0  0  0  0  0  0  0
   16.6226   63.0097  -10.5072 C   0  0  0  0  0  0  0  0  0  0  0  0
   20.0198   65.5582  -10.1874 H   0  0  0  0  0  0  0  0  0  0  0  0
 15 16  1  0  0  0
 16 17  2  0  0  0
 16 24  1  0  0  0
 17 18  1  0  0  0
 18 19  1  0  0  0
 18 22  2  0  0  0
 19 20  2  0  0  0
 20 21  1  0  0  0
 20 14  1  0  0  0
 21 22  1  0  0  0
 22 23  1  0  0  0
 23 24  2  0  0  0
 14  1  1  0  0  0
  1  2  1  0  0  0
  2  3  2  0  0  0
  2  5  1  0  0  0
  5  6  1  0  0  0
  5  7  1  0  0  0
  5  8  1  0  0  0
  6  7  1  0  0  0
  8  9  1  0  0  0
  8 13  1  0  0  0
  9 10  1  0  0  0
 10 11  1  0  0  0
 11 12  1  0  0  0
 12 13  1  0  0  0
 21 25  1  0  0  0
  1  4  1  0  0  0
M  END
> <minimizedAffinity>
-9.36588

$$$$
1937


 31 34  0  0  0  0  0  0  0  0999 V2000
   14.5167   63.0716  -11.9069 N   0  0  0  0  0  0  0  0  0  0  0  0
   13.7562   62.0882  -12.5261 C   0  0  0  0  0  0  0  0  0  0  0  0
   12.5607   62.8214  -13.2703 C   0  0  0  0  0  0  0  0  0  0  0  0
   13.1733   64.0879  -13.5718 N   0  0  0  0  0  0  0  0  0  0  0  0
   13.1184   64.9949  -12.3883 C   0  0  0  0  0  0  0  0  0  0  0  0
   13.6201   64.1081  -11.2836 C   0  0  0  0  0  0  0  0  0  0  0  0
   13.6597   64.4619  -14.7885 C   0  0  0  0  0  0  0  0  0  0  0  0
   14.5622   65.3674  -14.8128 O   0  0  0  0  0  0  0  0  0  0  0  0
   13.2517   63.9584  -16.1377 C   0  0  0  0  0  0  0  0  0  0  0  0
   11.7998   64.1544  -16.1643 O   0  0  0  0  0  0  0  0  0  0  0  0
   11.4512   65.3537  -15.4778 C   0  0  0  0  0  0  0  0  0  0  0  0
   12.3237   66.4059  -15.5674 C   0  0  0  0  0  0  0  0  0  0  0  0
   12.0738   67.6141  -14.9257 C   0  0  0  0  0  0  0  0  0  0  0  0
   10.8939   67.6916  -14.1946 C   0  0  0  0  0  0  0  0  0  0  0  0
    9.9914   66.6561  -14.0915 C   0  0  0  0  0  0  0  0  0  0  0  0
   10.2752   65.4738  -14.7458 C   0  0  0  0  0  0  0  0  0  0  0  0
   13.4930   66.2606  -16.3223 O   0  0  0  0  0  0  0  0  0  0  0  0
   13.7301   65.0683  -17.1123 C   0  0  0  0  0  0  0  0  0  0  0  0
   15.5371   62.7810  -10.9284 C   0  0  0  0  0  0  0  0  0  0  0  0
   18.0306   63.0095  -10.9780 N   0  0  0  0  0  0  0  0  0  0  0  0
   16.7969   63.5338  -11.3694 C   0  0  0  0  0  0  0  0  0  0  0  0
   16.6920   64.5280  -12.0392 O   0  0  0  0  0  0  0  0  0  0  0  0
   17.9726   62.2674  -10.1932 H   0  0  0  0  0  0  0  0  0  0  0  0
   19.3176   63.4134  -11.4159 C   0  0  0  0  0  0  0  0  0  0  0  0
   22.0890   63.2259  -12.3728 Cl  0  0  0  0  0  0  0  0  0  0  0  0
   21.6750   63.4385  -10.6885 C   0  0  0  0  0  0  0  0  0  0  0  0
   20.3325   63.3982  -10.3300 C   0  0  0  0  0  0  0  0  0  0  0  0
   20.0536   63.5151   -8.9940 C   0  0  0  0  0  0  0  0  0  0  0  0
   21.0674   63.6777   -8.0573 C   0  0  0  0  0  0  0  0  0  0  0  0
   22.4301   63.7187   -8.4173 C   0  0  0  0  0  0  0  0  0  0  0  0
   22.6637   63.5828   -9.7710 C   0  0  0  0  0  0  0  0  0  0  0  0
 25 26  1  0  0  0
 26 27  2  0  0  0
 26 31  1  0  0  0
 27 28  1  0  0  0
 27 24  1  0  0  0
 28 29  2  0  0  0
 29 30  1  0  0  0
 30 31  2  0  0  0
 24 20  1  0  0  0
 20 21  1  0  0  0
 21 22  2  0  0  0
 21 19  1  0  0  0
 19  1  1  0  0  0
  1  2  1  0  0  0
  1  6  1  0  0  0
  2  3  1  0  0  0
  3  4  1  0  0  0
  4  5  1  0  0  0
  4  7  1  0  0  0
  5  6  1  0  0  0
  7  8  2  0  0  0
  7  9  1  0  0  0
  9 10  1  0  0  0
  9 18  1  0  0  0
 10 11  1  0  0  0
 11 12  2  0  0  0
 11 16  1  0  0  0
 12 13  1  0  0  0
 12 17  1  0  0  0
 13 14  2  0  0  0
 14 15  1  0  0  0
 15 16  2  0  0  0
 17 18  1  0  0  0
 20 23  1  0  0  0
M  END
> <minimizedAffinity>
-6.63325

$$$$
1939


 28 31  0  0  0  0  0  0  0  0999 V2000
   22.0887   64.0276   -9.2048 N   0  0  0  0  0  0  0  0  0  0  0  0
   22.3437   64.1671   -7.8684 C   0  0  0  0  0  0  0  0  0  0  0  0
   23.5252   63.5546   -7.5528 C   0  0  0  0  0  0  0  0  0  0  0  0
   23.9582   63.0578   -8.7038 N   0  0  0  0  0  0  0  0  0  0  0  0
   23.0960   63.3326   -9.7355 C   0  0  0  0  0  0  0  0  0  0  0  0
   24.0011   63.5419   -6.2941 N   0  0  0  0  0  0  0  0  0  0  0  0
   23.2984   64.1488   -5.3020 C   0  0  0  0  0  0  0  0  0  0  0  0
   23.7800   64.1120   -4.1473 O   0  0  0  0  0  0  0  0  0  0  0  0
   22.1322   64.7639   -5.5623 N   0  0  0  0  0  0  0  0  0  0  0  0
   21.6673   64.7696   -6.8206 C   0  0  0  0  0  0  0  0  0  0  0  0
   20.5775   65.3532   -7.0110 O   0  0  0  0  0  0  0  0  0  0  0  0
   25.2644   62.8692   -6.0480 C   0  0  0  0  0  0  0  0  0  0  0  0
   21.6332   65.2137   -4.7667 H   0  0  0  0  0  0  0  0  0  0  0  0
   23.3328   62.8980  -11.0582 N   0  0  0  0  0  0  0  0  0  0  0  0
   22.2687   63.0880  -12.0347 C   0  0  0  0  0  0  0  0  0  0  0  0
   23.0298   63.4162  -13.3321 C   0  0  0  0  0  0  0  0  0  0  0  0
   24.2475   64.1482  -13.0639 N   0  0  0  0  0  0  0  0  0  0  0  0
   25.2472   63.3842  -12.3490 C   0  0  0  0  0  0  0  0  0  0  0  0
   24.4928   62.2939  -11.6022 C   0  0  0  0  0  0  0  0  0  0  0  0
   24.6483   64.4050  -13.9816 H   0  0  0  0  0  0  0  0  0  0  0  0
   20.9111   64.5683   -9.8306 C   0  0  0  0  0  0  0  0  0  0  0  0
   16.1475   60.9557  -10.5863 Cl  0  0  0  0  0  0  0  0  0  0  0  0
   17.5092   62.0323  -10.3648 C   0  0  0  0  0  0  0  0  0  0  0  0
   18.6525   61.5357   -9.8140 C   0  0  0  0  0  0  0  0  0  0  0  0
   19.7626   62.3637   -9.6208 C   0  0  0  0  0  0  0  0  0  0  0  0
   19.7625   63.6758   -9.9627 C   0  0  0  0  0  0  0  0  0  0  0  0
   18.5704   64.1549  -10.5275 C   0  0  0  0  0  0  0  0  0  0  0  0
   17.4665   63.3592  -10.7264 C   0  0  0  0  0  0  0  0  0  0  0  0
 22 23  1  0  0  0
 23 24  2  0  0  0
 23 28  1  0  0  0
 24 25  1  0  0  0
 25 26  2  0  0  0
 26 27  1  0  0  0
 26 21  1  0  0  0
 27 28  2  0  0  0
 21  1  1  0  0  0
  1  2  1  0  0  0
  1  5  1  0  0  0
  2  3  2  0  0  0
  2 10  1  0  0  0
  3  4  1  0  0  0
  3  6  1  0  0  0
  4  5  2  0  0  0
  5 14  1  0  0  0
 14 15  1  0  0  0
 14 19  1  0  0  0
 15 16  1  0  0  0
 16 17  1  0  0  0
 17 18  1  0  0  0
 18 19  1  0  0  0
  6  7  1  0  0  0
  6 12  1  0  0  0
  7  8  2  0  0  0
  7  9  1  0  0  0
  9 10  1  0  0  0
 10 11  2  0  0  0
 17 20  1  0  0  0
  9 13  1  0  0  0
M  END
> <minimizedAffinity>
-7.86455

$$$$
1940


 30 33  0  0  0  0  0  0  0  0999 V2000
   21.5862   64.8903   -6.4548 C   0  0  0  0  0  0  0  0  0  0  0  0
   21.6493   64.2300   -7.7649 N   0  0  0  0  0  0  0  0  0  0  0  0
   23.0124   64.2776   -8.1451 C   0  0  0  0  0  0  0  0  0  0  0  0
   23.4624   64.3063   -9.3150 O   0  0  0  0  0  0  0  0  0  0  0  0
   23.8045   64.2874   -6.9008 C   0  0  0  0  0  0  0  0  0  0  0  0
   25.0503   64.3267   -6.7841 O   0  0  0  0  0  0  0  0  0  0  0  0
   22.8139   64.2448   -5.8341 C   0  0  0  0  0  0  0  0  0  0  0  0
   22.9597   63.7582   -4.6510 C   0  0  0  0  0  0  0  0  0  0  0  0
   21.9117   63.7735   -3.7323 O   0  0  0  0  0  0  0  0  0  0  0  0
   23.0470   70.7266   -6.8747 Cl  0  0  0  0  0  0  0  0  0  0  0  0
   22.5848   69.0456   -6.7817 C   0  0  0  0  0  0  0  0  0  0  0  0
   21.4043   68.5717   -7.3121 C   0  0  0  0  0  0  0  0  0  0  0  0
   21.1000   67.2289   -7.2009 C   0  0  0  0  0  0  0  0  0  0  0  0
   21.9282   66.3291   -6.5790 C   0  0  0  0  0  0  0  0  0  0  0  0
   23.1187   66.8261   -6.0479 C   0  0  0  0  0  0  0  0  0  0  0  0
   23.4281   68.1641   -6.1553 C   0  0  0  0  0  0  0  0  0  0  0  0
   24.2318   63.1762   -4.2344 C   0  0  0  0  0  0  0  0  0  0  0  0
   24.8810   62.1436   -4.6402 O   0  0  0  0  0  0  0  0  0  0  0  0
   25.9898   61.9967   -3.9733 C   0  0  0  0  0  0  0  0  0  0  0  0
   26.0987   63.0044   -3.0493 C   0  0  0  0  0  0  0  0  0  0  0  0
   24.9761   63.7687   -3.2056 C   0  0  0  0  0  0  0  0  0  0  0  0
   20.5253   63.6647   -8.4977 C   0  0  0  0  0  0  0  0  0  0  0  0
   20.6735   63.7150   -9.9869 C   0  0  0  0  0  0  0  0  0  0  0  0
   20.1880   62.5872  -10.7054 N   0  0  0  0  0  0  0  0  0  0  0  0
   19.2359   61.7592  -10.0376 C   0  0  0  0  0  0  0  0  0  0  0  0
   17.9324   62.4589   -9.7273 C   0  0  0  0  0  0  0  0  0  0  0  0
   17.3551   62.9674  -10.8859 O   0  0  0  0  0  0  0  0  0  0  0  0
   18.2506   63.7335  -11.6249 C   0  0  0  0  0  0  0  0  0  0  0  0
   19.5244   63.0019  -11.9587 C   0  0  0  0  0  0  0  0  0  0  0  0
   21.0025   61.9881  -10.9637 H   0  0  0  0  0  0  0  0  0  0  0  0
 10 11  1  0  0  0
 11 12  2  0  0  0
 11 16  1  0  0  0
 12 13  1  0  0  0
 13 14  2  0  0  0
 14 15  1  0  0  0
 14  1  1  0  0  0
 15 16  2  0  0  0
  1  2  1  0  0  0
  1  7  1  0  0  0
  2  3  1  0  0  0
  2 22  1  0  0  0
  3  4  2  0  0  0
  3  5  1  0  0  0
  5  6  2  0  0  0
  5  7  1  0  0  0
  7  8  2  0  0  0
  8  9  1  0  0  0
  8 17  1  0  0  0
 17 18  1  0  0  0
 17 21  2  0  0  0
 18 19  1  0  0  0
 19 20  2  0  0  0
 20 21  1  0  0  0
 22 23  1  0  0  0
 23 24  1  0  0  0
 24 25  1  0  0  0
 24 29  1  0  0  0
 25 26  1  0  0  0
 26 27  1  0  0  0
 27 28  1  0  0  0
 28 29  1  0  0  0
 24 30  1  0  0  0
M  CHG 1   9  -1
M  CHG 1  24   1
M  END
> <minimizedAffinity>
-7.59371

$$$$
1941


 22 25  0  0  0  0  0  0  0  0999 V2000
   21.2643   63.2624  -11.7916 N   0  0  0  0  0  0  0  0  0  0  0  0
   20.7297   63.9016  -10.6233 C   0  0  0  0  0  0  0  0  0  0  0  0
   21.4686   64.2076   -9.6246 O   0  0  0  0  0  0  0  0  0  0  0  0
   19.2838   64.1133  -10.7979 C   0  0  0  0  0  0  0  0  0  0  0  0
   18.9260   63.1276  -11.8840 C   0  0  0  0  0  0  0  0  0  0  0  0
   17.9666   62.1018  -11.3205 C   0  0  0  0  0  0  0  0  0  0  0  0
   16.6705   62.8732  -11.0312 C   0  0  0  0  0  0  0  0  0  0  0  0
   17.0291   63.8597   -9.9576 C   0  0  0  0  0  0  0  0  0  0  0  0
   16.1847   64.5564   -9.4625 O   0  0  0  0  0  0  0  0  0  0  0  0
   18.4787   63.9127   -9.5598 C   0  0  0  0  0  0  0  0  0  0  0  0
   18.7823   62.5438   -8.9405 C   0  0  0  0  0  0  0  0  0  0  0  0
   18.4481   61.5409  -10.0109 C   0  0  0  0  0  0  0  0  0  0  0  0
   18.5707   60.3671   -9.7930 O   0  0  0  0  0  0  0  0  0  0  0  0
   20.1785   62.5671  -12.3886 C   0  0  0  0  0  0  0  0  0  0  0  0
   20.2777   61.6294  -13.2116 O   0  0  0  0  0  0  0  0  0  0  0  0
   26.8540   63.4749  -13.9696 Cl  0  0  0  0  0  0  0  0  0  0  0  0
   25.2191   63.4098  -13.3220 C   0  0  0  0  0  0  0  0  0  0  0  0
   24.1241   63.6186  -14.1239 C   0  0  0  0  0  0  0  0  0  0  0  0
   22.8485   63.5661  -13.6096 C   0  0  0  0  0  0  0  0  0  0  0  0
   22.6018   63.3041  -12.2748 C   0  0  0  0  0  0  0  0  0  0  0  0
   23.7123   63.0967  -11.4869 C   0  0  0  0  0  0  0  0  0  0  0  0
   24.9954   63.1451  -11.9808 C   0  0  0  0  0  0  0  0  0  0  0  0
 16 17  1  0  0  0
 17 18  2  0  0  0
 17 22  1  0  0  0
 18 19  1  0  0  0
 19 20  2  0  0  0
 20 21  1  0  0  0
 20  1  1  0  0  0
 21 22  2  0  0  0
  1  2  1  0  0  0
  1 14  1  0  0  0
  2  3  2  0  0  0
  2  4  1  0  0  0
  4  5  1  0  0  0
  4 10  1  0  0  0
  5  6  1  0  0  0
  5 14  1  0  0  0
  6  7  1  0  0  0
  6 12  1  0  0  0
  7  8  1  0  0  0
  8  9  2  0  0  0
  8 10  1  0  0  0
 10 11  1  0  0  0
 11 12  1  0  0  0
 12 13  2  0  0  0
 14 15  2  0  0  0
M  END
> <minimizedAffinity>
-8.19658

$$$$
1943


 34 38  0  0  0  0  0  0  0  0999 V2000
   22.7573   63.6353   -6.2416 N   0  0  0  0  0  0  0  0  0  0  0  0
   22.6723   63.2449   -7.6296 C   0  0  0  0  0  0  0  0  0  0  0  0
   23.5655   62.7018   -8.2860 O   0  0  0  0  0  0  0  0  0  0  0  0
   21.3455   63.5907   -8.1562 C   0  0  0  0  0  0  0  0  0  0  0  0
   21.3357   64.2949   -9.4920 C   0  0  0  0  0  0  0  0  0  0  0  0
   21.3419   65.7160   -9.2413 N   0  0  0  0  0  0  0  0  0  0  0  0
   21.6764   65.8796   -7.8406 C   0  0  0  0  0  0  0  0  0  0  0  0
   20.9367   64.7087   -7.2258 C   0  0  0  0  0  0  0  0  0  0  0  0
   21.5002   64.2626   -5.9383 C   0  0  0  0  0  0  0  0  0  0  0  0
   20.9446   64.4265   -4.8491 O   0  0  0  0  0  0  0  0  0  0  0  0
   20.0562   63.8553  -10.1493 C   0  0  0  0  0  0  0  0  0  0  0  0
   20.3882   63.0437  -11.1969 C   0  0  0  0  0  0  0  0  0  0  0  0
   19.4099   62.4156  -11.9837 C   0  0  0  0  0  0  0  0  0  0  0  0
   18.0720   62.6115  -11.7116 C   0  0  0  0  0  0  0  0  0  0  0  0
   17.7381   63.4271  -10.6637 C   0  0  0  0  0  0  0  0  0  0  0  0
   18.7116   64.0359   -9.8994 C   0  0  0  0  0  0  0  0  0  0  0  0
   21.7926   63.0153  -11.3938 N   0  0  0  0  0  0  0  0  0  0  0  0
   22.3679   63.8659  -10.4140 C   0  0  0  0  0  0  0  0  0  0  0  0
   23.5794   64.1694  -10.3952 O   0  0  0  0  0  0  0  0  0  0  0  0
   22.0676   66.1455   -9.8629 H   0  0  0  0  0  0  0  0  0  0  0  0
   22.3172   62.4608  -12.1378 H   0  0  0  0  0  0  0  0  0  0  0  0
   27.2136   62.9161   -2.3385 Cl  0  0  0  0  0  0  0  0  0  0  0  0
   25.8980   63.1217   -3.4813 C   0  0  0  0  0  0  0  0  0  0  0  0
   26.0776   62.7763   -4.7988 C   0  0  0  0  0  0  0  0  0  0  0  0
   25.0307   62.9514   -5.6965 C   0  0  0  0  0  0  0  0  0  0  0  0
   23.8104   63.4551   -5.3386 C   0  0  0  0  0  0  0  0  0  0  0  0
   23.6601   63.7901   -4.0150 C   0  0  0  0  0  0  0  0  0  0  0  0
   24.6958   63.6251   -3.0896 C   0  0  0  0  0  0  0  0  0  0  0  0
   21.1840   67.1901   -7.2846 C   0  0  0  0  0  0  0  0  0  0  0  0
   22.1428   67.8744   -6.4226 C   0  0  0  0  0  0  0  0  0  0  0  0
   23.3057   67.4447   -6.3017 O   0  0  0  0  0  0  0  0  0  0  0  0
   21.7543   69.0359   -5.7152 N   0  0  0  0  0  0  0  0  0  0  0  0
   20.7829   69.4308   -5.7135 H   0  0  0  0  0  0  0  0  0  0  0  0
   22.4303   69.6009   -5.1228 H   0  0  0  0  0  0  0  0  0  0  0  0
 22 23  1  0  0  0
 23 24  2  0  0  0
 23 28  1  0  0  0
 24 25  1  0  0  0
 25 26  2  0  0  0
 26 27  1  0  0  0
 26  1  1  0  0  0
 27 28  2  0  0  0
  1  2  1  0  0  0
  1  9  1  0  0  0
  2  3  2  0  0  0
  2  4  1  0  0  0
  4  5  1  0  0  0
  4  8  1  0  0  0
  5  6  1  0  0  0
  5 11  1  0  0  0
  5 18  1  0  0  0
  6  7  1  0  0  0
  7  8  1  0  0  0
  7 29  1  0  0  0
  8  9  1  0  0  0
  9 10  2  0  0  0
 29 30  1  0  0  0
 30 31  2  0  0  0
 30 32  1  0  0  0
 11 12  1  0  0  0
 11 16  2  0  0  0
 12 13  2  0  0  0
 12 17  1  0  0  0
 13 14  1  0  0  0
 14 15  2  0  0  0
 15 16  1  0  0  0
 17 18  1  0  0  0
 18 19  2  0  0  0
  6 20  1  0  0  0
 32 33  1  0  0  0
 32 34  1  0  0  0
 17 21  1  0  0  0
M  END
> <minimizedAffinity>
-7.79863

$$$$
1945


 24 27  0  0  0  0  0  0  0  0999 V2000
   25.5073   63.7659  -13.0090 Cl  0  0  0  0  0  0  0  0  0  0  0  0
   23.9235   63.5493  -12.2910 C   0  0  0  0  0  0  0  0  0  0  0  0
   23.6794   63.8435  -10.9692 C   0  0  0  0  0  0  0  0  0  0  0  0
   22.4116   63.6653  -10.4088 C   0  0  0  0  0  0  0  0  0  0  0  0
   21.3970   63.1827  -11.2221 C   0  0  0  0  0  0  0  0  0  0  0  0
   21.6252   62.8848  -12.5443 C   0  0  0  0  0  0  0  0  0  0  0  0
   22.8744   63.0625  -13.0817 C   0  0  0  0  0  0  0  0  0  0  0  0
   20.0434   62.9800  -10.6753 C   0  0  0  0  0  0  0  0  0  0  0  0
   18.9443   62.5544  -11.1982 N   0  0  0  0  0  0  0  0  0  0  0  0
   17.8596   62.5287  -10.2556 C   0  0  0  0  0  0  0  0  0  0  0  0
   18.4669   63.0310   -8.9823 C   0  0  0  0  0  0  0  0  0  0  0  0
   19.8416   63.2973   -9.3121 N   0  0  0  0  0  0  0  0  0  0  0  0
   20.9024   63.7908   -8.5040 C   0  0  0  0  0  0  0  0  0  0  0  0
   20.7427   64.0813   -7.2849 O   0  0  0  0  0  0  0  0  0  0  0  0
   22.2250   63.9896   -9.0358 N   0  0  0  0  0  0  0  0  0  0  0  0
   23.2961   64.4966   -8.1894 C   0  0  0  0  0  0  0  0  0  0  0  0
   23.8924   63.4130   -7.3753 C   0  0  0  0  0  0  0  0  0  0  0  0
   23.6805   62.2257   -7.7232 O   0  0  0  0  0  0  0  0  0  0  0  0
   24.6874   63.6537   -6.2293 N   0  0  0  0  0  0  0  0  0  0  0  0
   24.8547   64.6428   -5.9547 H   0  0  0  0  0  0  0  0  0  0  0  0
   25.2576   62.5789   -5.4535 C   0  0  0  0  0  0  0  0  0  0  0  0
   24.5890   62.5035   -4.1065 C   0  0  0  0  0  0  0  0  0  0  0  0
   25.1316   63.3024   -2.9748 C   0  0  0  0  0  0  0  0  0  0  0  0
   25.3556   61.8387   -3.0020 C   0  0  0  0  0  0  0  0  0  0  0  0
  1  2  1  0  0  0
  2  3  2  0  0  0
  2  7  1  0  0  0
  3  4  1  0  0  0
  4  5  2  0  0  0
  4 15  1  0  0  0
  5  6  1  0  0  0
  5  8  1  0  0  0
  6  7  2  0  0  0
  8  9  2  0  0  0
  8 12  1  0  0  0
  9 10  1  0  0  0
 10 11  1  0  0  0
 11 12  1  0  0  0
 12 13  1  0  0  0
 13 14  2  0  0  0
 13 15  1  0  0  0
 15 16  1  0  0  0
 16 17  1  0  0  0
 17 18  2  0  0  0
 17 19  1  0  0  0
 19 21  1  0  0  0
 21 22  1  0  0  0
 22 23  1  0  0  0
 22 24  1  0  0  0
 23 24  1  0  0  0
 19 20  1  0  0  0
M  END
> <minimizedAffinity>
-8.47079

$$$$
1956


 35 38  0  0  0  0  0  0  0  0999 V2000
   19.7219   62.5039  -10.3551 C   0  0  0  0  0  0  0  0  0  0  0  0
   20.5592   63.2622   -9.6674 C   0  0  0  0  0  0  0  0  0  0  0  0
   21.9906   62.9129   -9.3460 C   0  0  0  0  0  0  0  0  0  0  0  0
   22.3967   63.8493   -8.3381 N   0  0  0  0  0  0  0  0  0  0  0  0
   21.4453   64.8960   -8.2129 C   0  0  0  0  0  0  0  0  0  0  0  0
   21.5553   65.9279   -7.5347 O   0  0  0  0  0  0  0  0  0  0  0  0
   20.2837   64.5216   -9.0527 C   0  0  0  0  0  0  0  0  0  0  0  0
   19.2482   65.2173   -9.1762 O   0  0  0  0  0  0  0  0  0  0  0  0
   20.2363   61.2661  -10.8090 O   0  0  0  0  0  0  0  0  0  0  0  0
   13.9943   63.9159  -11.5915 Cl  0  0  0  0  0  0  0  0  0  0  0  0
   15.6466   63.4893  -11.2092 C   0  0  0  0  0  0  0  0  0  0  0  0
   15.9843   62.3500  -10.5186 C   0  0  0  0  0  0  0  0  0  0  0  0
   17.3042   62.0599  -10.2423 C   0  0  0  0  0  0  0  0  0  0  0  0
   18.3588   62.8932  -10.6401 C   0  0  0  0  0  0  0  0  0  0  0  0
   17.9912   64.0238  -11.3304 C   0  0  0  0  0  0  0  0  0  0  0  0
   16.6513   64.3218  -11.6127 C   0  0  0  0  0  0  0  0  0  0  0  0
   22.7506   63.0366  -10.6195 C   0  0  0  0  0  0  0  0  0  0  0  0
   22.0939   63.3197  -11.7825 C   0  0  0  0  0  0  0  0  0  0  0  0
   22.8009   63.4442  -12.9443 C   0  0  0  0  0  0  0  0  0  0  0  0
   24.1699   63.2915  -12.9812 C   0  0  0  0  0  0  0  0  0  0  0  0
   24.8367   63.0043  -11.8046 C   0  0  0  0  0  0  0  0  0  0  0  0
   24.1139   62.8795  -10.6274 C   0  0  0  0  0  0  0  0  0  0  0  0
   24.8826   63.4195  -14.1689 O   0  0  0  0  0  0  0  0  0  0  0  0
   26.2673   63.7876  -14.0901 C   0  0  0  0  0  0  0  0  0  0  0  0
   26.9562   63.3816  -15.3906 C   0  0  0  0  0  0  0  0  0  0  0  0
   25.8724   62.8544  -16.3201 C   0  0  0  0  0  0  0  0  0  0  0  0
   23.6095   63.7450   -7.5333 C   0  0  0  0  0  0  0  0  0  0  0  0
   23.2859   63.9947   -6.1007 C   0  0  0  0  0  0  0  0  0  0  0  0
   23.9826   63.0453   -5.2172 N   0  0  0  0  0  0  0  0  0  0  0  0
   24.0192   63.6102   -3.9035 C   0  0  0  0  0  0  0  0  0  0  0  0
   25.0433   62.9122   -3.0117 C   0  0  0  0  0  0  0  0  0  0  0  0
   26.2808   63.0340   -3.6692 O   0  0  0  0  0  0  0  0  0  0  0  0
   26.2335   62.2211   -4.7823 C   0  0  0  0  0  0  0  0  0  0  0  0
   25.2898   62.8318   -5.7987 C   0  0  0  0  0  0  0  0  0  0  0  0
   23.4662   62.1277   -5.1857 H   0  0  0  0  0  0  0  0  0  0  0  0
 10 11  1  0  0  0
 11 12  2  0  0  0
 11 16  1  0  0  0
 12 13  1  0  0  0
 13 14  2  0  0  0
 14 15  1  0  0  0
 14  1  1  0  0  0
 15 16  2  0  0  0
  1  2  2  0  0  0
  1  9  1  0  0  0
  2  3  1  0  0  0
  2  7  1  0  0  0
  3  4  1  0  0  0
  3 17  1  0  0  0
  4  5  1  0  0  0
  4 27  1  0  0  0
  5  6  2  0  0  0
  5  7  1  0  0  0
  7  8  2  0  0  0
 27 28  1  0  0  0
 28 29  1  0  0  0
 29 30  1  0  0  0
 29 34  1  0  0  0
 30 31  1  0  0  0
 31 32  1  0  0  0
 32 33  1  0  0  0
 33 34  1  0  0  0
 17 18  2  0  0  0
 17 22  1  0  0  0
 18 19  1  0  0  0
 19 20  2  0  0  0
 20 21  1  0  0  0
 20 23  1  0  0  0
 21 22  2  0  0  0
 23 24  1  0  0  0
 24 25  1  0  0  0
 25 26  1  0  0  0
 29 35  1  0  0  0
M  CHG 1   9  -1
M  CHG 1  29   1
M  END
> <minimizedAffinity>
-8.05247

$$$$
1957


 36 40  0  0  0  0  0  0  0  0999 V2000
   22.4760   63.5844  -11.1405 C   0  0  0  0  0  0  0  0  0  0  0  0
   23.0319   64.2213   -9.9534 N   0  0  0  0  0  0  0  0  0  0  0  0
   22.0100   64.1553   -8.9278 C   0  0  0  0  0  0  0  0  0  0  0  0
   21.3220   62.8566   -9.2351 C   0  0  0  0  0  0  0  0  0  0  0  0
   21.3170   62.7575  -10.7278 C   0  0  0  0  0  0  0  0  0  0  0  0
   20.0082   63.3131  -11.1694 C   0  0  0  0  0  0  0  0  0  0  0  0
   19.6956   63.6530  -12.3351 O   0  0  0  0  0  0  0  0  0  0  0  0
   19.1757   63.3804   -9.9906 N   0  0  0  0  0  0  0  0  0  0  0  0
   19.8875   62.8337   -8.9000 C   0  0  0  0  0  0  0  0  0  0  0  0
   19.4095   62.3990   -7.8237 O   0  0  0  0  0  0  0  0  0  0  0  0
   22.5903   64.1583   -7.5628 C   0  0  0  0  0  0  0  0  0  0  0  0
   22.1180   65.2867   -6.9356 C   0  0  0  0  0  0  0  0  0  0  0  0
   22.5070   65.5388   -5.6271 C   0  0  0  0  0  0  0  0  0  0  0  0
   23.3505   64.6561   -4.9949 C   0  0  0  0  0  0  0  0  0  0  0  0
   23.8307   63.5165   -5.6174 C   0  0  0  0  0  0  0  0  0  0  0  0
   23.4370   63.2789   -6.9177 C   0  0  0  0  0  0  0  0  0  0  0  0
   21.2608   66.0431   -7.8099 N   0  0  0  0  0  0  0  0  0  0  0  0
   21.1949   65.3517   -9.0438 C   0  0  0  0  0  0  0  0  0  0  0  0
   20.5404   65.7450  -10.0231 O   0  0  0  0  0  0  0  0  0  0  0  0
   23.3100   65.1871  -10.1578 H   0  0  0  0  0  0  0  0  0  0  0  0
   20.7983   66.9360   -7.5239 H   0  0  0  0  0  0  0  0  0  0  0  0
   23.6088   62.8092  -11.7579 C   0  0  0  0  0  0  0  0  0  0  0  0
   24.8042   62.9506  -11.1025 O   0  0  0  0  0  0  0  0  0  0  0  0
   24.7289   62.4969  -10.2243 H   0  0  0  0  0  0  0  0  0  0  0  0
   24.5065   64.1176  -17.6160 Cl  0  0  0  0  0  0  0  0  0  0  0  0
   24.2520   63.7323  -15.9222 C   0  0  0  0  0  0  0  0  0  0  0  0
   25.3020   63.4818  -15.0604 C   0  0  0  0  0  0  0  0  0  0  0  0
   25.0923   63.1819  -13.7398 C   0  0  0  0  0  0  0  0  0  0  0  0
   23.8075   63.1160  -13.2030 C   0  0  0  0  0  0  0  0  0  0  0  0
   22.7550   63.3637  -14.0498 C   0  0  0  0  0  0  0  0  0  0  0  0
   22.9925   63.6622  -15.3702 C   0  0  0  0  0  0  0  0  0  0  0  0
   17.8514   63.9268   -9.9461 C   0  0  0  0  0  0  0  0  0  0  0  0
   16.7787   63.0802  -10.5213 C   0  0  0  0  0  0  0  0  0  0  0  0
   16.9579   61.6065  -10.4153 C   0  0  0  0  0  0  0  0  0  0  0  0
   15.8342   60.8860  -10.7978 O   0  0  0  0  0  0  0  0  0  0  0  0
   14.7157   61.7453  -10.8236 C   0  0  0  0  0  0  0  0  0  0  0  0
 25 26  1  0  0  0
 26 27  2  0  0  0
 26 31  1  0  0  0
 27 28  1  0  0  0
 28 29  2  0  0  0
 29 30  1  0  0  0
 29 22  1  0  0  0
 30 31  2  0  0  0
 22 23  1  0  0  0
 22  1  1  0  0  0
  1  2  1  0  0  0
  1  5  1  0  0  0
  2  3  1  0  0  0
  3  4  1  0  0  0
  3 11  1  0  0  0
  3 18  1  0  0  0
  4  5  1  0  0  0
  4  9  1  0  0  0
  5  6  1  0  0  0
  6  7  2  0  0  0
  6  8  1  0  0  0
  8  9  1  0  0  0
  8 32  1  0  0  0
  9 10  2  0  0  0
 32 33  1  0  0  0
 33 34  1  0  0  0
 34 35  1  0  0  0
 35 36  1  0  0  0
 11 12  1  0  0  0
 11 16  2  0  0  0
 12 13  2  0  0  0
 12 17  1  0  0  0
 13 14  1  0  0  0
 14 15  2  0  0  0
 15 16  1  0  0  0
 17 18  1  0  0  0
 18 19  2  0  0  0
 23 24  1  0  0  0
  2 20  1  0  0  0
 17 21  1  0  0  0
M  END
> <minimizedAffinity>
-5.23774

$$$$
1958


 28 31  0  0  0  0  0  0  0  0999 V2000
   18.5639   62.9022   -9.3647 C   0  0  0  0  0  0  0  0  0  0  0  0
   18.0717   63.1734   -8.2150 O   0  0  0  0  0  0  0  0  0  0  0  0
   19.7084   63.5496   -9.8515 N   0  0  0  0  0  0  0  0  0  0  0  0
   20.2632   63.2517  -11.1337 C   0  0  0  0  0  0  0  0  0  0  0  0
   21.7385   63.5146  -11.2476 C   0  0  0  0  0  0  0  0  0  0  0  0
   22.3730   63.4539   -9.9087 C   0  0  0  0  0  0  0  0  0  0  0  0
   21.7256   63.9579   -8.7960 C   0  0  0  0  0  0  0  0  0  0  0  0
   22.2922   63.9135   -7.5850 N   0  0  0  0  0  0  0  0  0  0  0  0
   23.5142   63.3815   -7.3697 C   0  0  0  0  0  0  0  0  0  0  0  0
   24.1524   62.8860   -8.4572 N   0  0  0  0  0  0  0  0  0  0  0  0
   23.6250   62.9081   -9.6932 C   0  0  0  0  0  0  0  0  0  0  0  0
   24.3059   62.3916  -10.7862 O   0  0  0  0  0  0  0  0  0  0  0  0
   20.3561   64.5452   -9.0435 C   0  0  0  0  0  0  0  0  0  0  0  0
   24.5100   61.3931  -10.8780 H   0  0  0  0  0  0  0  0  0  0  0  0
   24.0638   63.3570   -6.0766 N   0  0  0  0  0  0  0  0  0  0  0  0
   23.5071   64.1614   -5.0298 C   0  0  0  0  0  0  0  0  0  0  0  0
   23.9185   63.4932   -3.7099 C   0  0  0  0  0  0  0  0  0  0  0  0
   25.2829   63.4844   -3.5624 O   0  0  0  0  0  0  0  0  0  0  0  0
   26.0044   63.0649   -4.6469 C   0  0  0  0  0  0  0  0  0  0  0  0
   25.1935   62.5232   -5.7916 C   0  0  0  0  0  0  0  0  0  0  0  0
   17.8531   61.8550  -10.1662 C   0  0  0  0  0  0  0  0  0  0  0  0
   12.7912   64.1349  -12.5247 Cl  0  0  0  0  0  0  0  0  0  0  0  0
   14.2547   63.4637  -11.8389 C   0  0  0  0  0  0  0  0  0  0  0  0
   14.2899   62.1462  -11.3937 C   0  0  0  0  0  0  0  0  0  0  0  0
   15.4485   61.6294  -10.8557 C   0  0  0  0  0  0  0  0  0  0  0  0
   16.6000   62.3773  -10.7342 C   0  0  0  0  0  0  0  0  0  0  0  0
   16.5731   63.6829  -11.1730 C   0  0  0  0  0  0  0  0  0  0  0  0
   15.4166   64.2008  -11.7114 C   0  0  0  0  0  0  0  0  0  0  0  0
 22 23  1  0  0  0
 23 24  2  0  0  0
 23 28  1  0  0  0
 24 25  1  0  0  0
 25 26  2  0  0  0
 26 27  1  0  0  0
 26 21  1  0  0  0
 27 28  2  0  0  0
 21  1  1  0  0  0
  1  2  2  0  0  0
  1  3  1  0  0  0
  3  4  1  0  0  0
  3 13  1  0  0  0
  4  5  1  0  0  0
  5  6  1  0  0  0
  6  7  2  0  0  0
  6 11  1  0  0  0
  7  8  1  0  0  0
  7 13  1  0  0  0
  8  9  2  0  0  0
  9 10  1  0  0  0
  9 15  1  0  0  0
 10 11  2  0  0  0
 11 12  1  0  0  0
 15 16  1  0  0  0
 15 20  1  0  0  0
 16 17  1  0  0  0
 17 18  1  0  0  0
 18 19  1  0  0  0
 19 20  1  0  0  0
 12 14  1  0  0  0
M  END
> <minimizedAffinity>
-8.97379

$$$$
1960


 28 31  0  0  0  0  0  0  0  0999 V2000
   17.3846   63.7924  -11.2390 C   0  0  0  0  0  0  0  0  0  0  0  0
   17.5118   64.8485  -11.9128 O   0  0  0  0  0  0  0  0  0  0  0  0
   18.4446   62.8721  -11.2237 N   0  0  0  0  0  0  0  0  0  0  0  0
   19.6840   63.1273  -11.9787 C   0  0  0  0  0  0  0  0  0  0  0  0
   20.8550   62.6257  -11.1475 C   0  0  0  0  0  0  0  0  0  0  0  0
   20.4432   62.7024   -9.7602 N   0  0  0  0  0  0  0  0  0  0  0  0
   19.4674   61.7090   -9.3453 C   0  0  0  0  0  0  0  0  0  0  0  0
   18.4398   61.6165  -10.4864 C   0  0  0  0  0  0  0  0  0  0  0  0
   20.9498   63.6912   -8.8777 C   0  0  0  0  0  0  0  0  0  0  0  0
   20.4744   64.9880   -8.9437 C   0  0  0  0  0  0  0  0  0  0  0  0
   20.9882   65.9226   -8.0918 N   0  0  0  0  0  0  0  0  0  0  0  0
   21.9231   65.6471   -7.2036 N   0  0  0  0  0  0  0  0  0  0  0  0
   22.4386   64.3846   -7.0833 C   0  0  0  0  0  0  0  0  0  0  0  0
   21.9228   63.4555   -7.9352 C   0  0  0  0  0  0  0  0  0  0  0  0
   23.4399   64.1600   -6.1127 N   0  0  0  0  0  0  0  0  0  0  0  0
   24.7030   63.5431   -6.4724 C   0  0  0  0  0  0  0  0  0  0  0  0
   25.0903   62.4790   -5.4445 C   0  0  0  0  0  0  0  0  0  0  0  0
   24.9491   62.9444   -4.1523 O   0  0  0  0  0  0  0  0  0  0  0  0
   23.6089   63.2323   -3.9439 C   0  0  0  0  0  0  0  0  0  0  0  0
   23.2757   64.5149   -4.7266 C   0  0  0  0  0  0  0  0  0  0  0  0
   16.1178   63.6003  -10.5077 C   0  0  0  0  0  0  0  0  0  0  0  0
   11.4683   63.0994  -14.3169 Cl  0  0  0  0  0  0  0  0  0  0  0  0
   12.8062   63.2350  -13.2174 C   0  0  0  0  0  0  0  0  0  0  0  0
   13.4435   64.4604  -13.0156 C   0  0  0  0  0  0  0  0  0  0  0  0
   14.5083   64.5607  -12.1390 C   0  0  0  0  0  0  0  0  0  0  0  0
   14.9684   63.4481  -11.4393 C   0  0  0  0  0  0  0  0  0  0  0  0
   14.3473   62.2457  -11.6343 C   0  0  0  0  0  0  0  0  0  0  0  0
   13.2730   62.1466  -12.5182 C   0  0  0  0  0  0  0  0  0  0  0  0
 22 23  1  0  0  0
 23 24  2  0  0  0
 23 28  1  0  0  0
 24 25  1  0  0  0
 25 26  2  0  0  0
 26 27  1  0  0  0
 26 21  1  0  0  0
 27 28  2  0  0  0
 21  1  1  0  0  0
  1  2  2  0  0  0
  1  3  1  0  0  0
  3  4  1  0  0  0
  3  8  1  0  0  0
  4  5  1  0  0  0
  5  6  1  0  0  0
  6  7  1  0  0  0
  6  9  1  0  0  0
  7  8  1  0  0  0
  9 10  2  0  0  0
  9 14  1  0  0  0
 10 11  1  0  0  0
 11 12  2  0  0  0
 12 13  1  0  0  0
 13 14  2  0  0  0
 13 15  1  0  0  0
 15 16  1  0  0  0
 15 20  1  0  0  0
 16 17  1  0  0  0
 17 18  1  0  0  0
 18 19  1  0  0  0
 19 20  1  0  0  0
M  END
> <minimizedAffinity>
-7.12008

$$$$
1966


 27 30  0  0  0  0  0  0  0  0999 V2000
   21.8293   63.6127  -10.4436 C   0  0  0  0  0  0  0  0  0  0  0  0
   22.7516   63.8551  -11.3156 O   0  0  0  0  0  0  0  0  0  0  0  0
   20.5184   63.3590  -10.7595 N   0  0  0  0  0  0  0  0  0  0  0  0
   20.7955   63.5058  -12.0901 H   0  0  0  0  0  0  0  0  0  0  0  0
   24.3830   62.2391   -9.2641 F   0  0  0  0  0  0  0  0  0  0  0  0
   23.5232   63.0352   -8.5827 C   0  0  0  0  0  0  0  0  0  0  0  0
   23.6976   63.3253   -7.2572 N   0  0  0  0  0  0  0  0  0  0  0  0
   22.6680   64.1225   -6.9307 C   0  0  0  0  0  0  0  0  0  0  0  0
   21.8929   64.3139   -8.0106 N   0  0  0  0  0  0  0  0  0  0  0  0
   22.3956   63.6482   -9.0685 C   0  0  0  0  0  0  0  0  0  0  0  0
   22.6028   64.5647   -5.6320 C   0  0  0  0  0  0  0  0  0  0  0  0
   23.5548   64.2155   -4.6723 C   0  0  0  0  0  0  0  0  0  0  0  0
   24.5910   63.4008   -5.0430 C   0  0  0  0  0  0  0  0  0  0  0  0
   24.6337   62.9663   -6.3631 C   0  0  0  0  0  0  0  0  0  0  0  0
   25.8320   62.9235   -3.8846 Cl  0  0  0  0  0  0  0  0  0  0  0  0
   19.2150   63.1080  -11.0735 C   0  0  0  0  0  0  0  0  0  0  0  0
   18.6357   61.8428  -10.4918 C   0  0  0  0  0  0  0  0  0  0  0  0
   17.3415   61.6145  -10.2550 N   0  0  0  0  0  0  0  0  0  0  0  0
   17.2327   60.3976   -9.7494 N   0  0  0  0  0  0  0  0  0  0  0  0
   18.4212   59.8411   -9.6574 N   0  0  0  0  0  0  0  0  0  0  0  0
   19.2858   60.7445  -10.1202 N   0  0  0  0  0  0  0  0  0  0  0  0
   16.3209   62.5724  -10.5417 C   0  0  0  0  0  0  0  0  0  0  0  0
   15.1671   62.1286  -11.1789 C   0  0  0  0  0  0  0  0  0  0  0  0
   14.1443   63.0118  -11.5023 C   0  0  0  0  0  0  0  0  0  0  0  0
   14.2406   64.3557  -11.2027 C   0  0  0  0  0  0  0  0  0  0  0  0
   15.3869   64.7882  -10.5707 C   0  0  0  0  0  0  0  0  0  0  0  0
   16.4074   63.9117  -10.2480 C   0  0  0  0  0  0  0  0  0  0  0  0
  5  6  1  0  0  0
  6  7  1  0  0  0
  6 10  2  0  0  0
  7  8  1  0  0  0
  7 14  1  0  0  0
  8  9  2  0  0  0
  8 11  1  0  0  0
  9 10  1  0  0  0
 10  1  1  0  0  0
  1  2  2  0  0  0
  1  3  1  0  0  0
  3 16  1  0  0  0
 16 17  1  0  0  0
 17 18  1  0  0  0
 17 21  2  0  0  0
 18 19  1  0  0  0
 18 22  1  0  0  0
 19 20  2  0  0  0
 20 21  1  0  0  0
 22 23  2  0  0  0
 22 27  1  0  0  0
 23 24  1  0  0  0
 24 25  2  0  0  0
 25 26  1  0  0  0
 26 27  2  0  0  0
 11 12  2  0  0  0
 12 13  1  0  0  0
 13 14  2  0  0  0
 13 15  1  0  0  0
  3  4  1  0  0  0
M  END
> <minimizedAffinity>
-9.77250

$$$$
1969


 26 29  0  0  0  0  0  0  0  0999 V2000
   22.1050   63.4738   -9.3661 C   0  0  0  0  0  0  0  0  0  0  0  0
   23.3984   63.2865   -9.8434 O   0  0  0  0  0  0  0  0  0  0  0  0
   22.0957   63.5876   -8.0164 N   0  0  0  0  0  0  0  0  0  0  0  0
   21.0448   63.8821   -7.0879 C   0  0  0  0  0  0  0  0  0  0  0  0
   21.6512   64.5085   -5.8153 C   0  0  0  0  0  0  0  0  0  0  0  0
   22.8127   65.2589   -6.3134 N   0  0  0  0  0  0  0  0  0  0  0  0
   23.9541   64.5355   -6.7665 C   0  0  0  0  0  0  0  0  0  0  0  0
   23.4028   63.2763   -7.3542 C   0  0  0  0  0  0  0  0  0  0  0  0
   22.7316   66.6408   -6.4415 C   0  0  0  0  0  0  0  0  0  0  0  0
   21.5538   67.2552   -6.8822 N   0  0  0  0  0  0  0  0  0  0  0  0
   21.3640   68.5210   -7.0109 C   0  0  0  0  0  0  0  0  0  0  0  0
   22.3621   69.4562   -6.6961 C   0  0  0  0  0  0  0  0  0  0  0  0
   23.5374   68.8556   -6.2642 C   0  0  0  0  0  0  0  0  0  0  0  0
   23.6665   67.5863   -6.1616 N   0  0  0  0  0  0  0  0  0  0  0  0
   18.9726   62.8460  -10.7782 N   0  0  0  0  0  0  0  0  0  0  0  0
   19.5536   63.1894  -11.9077 N   0  0  0  0  0  0  0  0  0  0  0  0
   20.6708   63.4552  -11.6142 N   0  0  0  0  0  0  0  0  0  0  0  0
   21.3237   63.4628  -10.5898 C   0  0  0  0  0  0  0  0  0  0  0  0
   19.8952   62.9388   -9.8579 C   0  0  0  0  0  0  0  0  0  0  0  0
   13.8332   63.8796  -10.9563 Cl  0  0  0  0  0  0  0  0  0  0  0  0
   15.2248   62.8497  -10.8313 C   0  0  0  0  0  0  0  0  0  0  0  0
   16.5363   63.3063  -10.8601 C   0  0  0  0  0  0  0  0  0  0  0  0
   17.5805   62.4553  -10.7482 C   0  0  0  0  0  0  0  0  0  0  0  0
   17.2748   61.1169  -10.6054 C   0  0  0  0  0  0  0  0  0  0  0  0
   16.0185   60.6134  -10.5701 C   0  0  0  0  0  0  0  0  0  0  0  0
   14.9620   61.4500  -10.6762 C   0  0  0  0  0  0  0  0  0  0  0  0
 20 21  1  0  0  0
 21 22  2  0  0  0
 21 26  1  0  0  0
 22 23  1  0  0  0
 23 24  2  0  0  0
 23 15  1  0  0  0
 24 25  1  0  0  0
 25 26  2  0  0  0
 15 16  1  0  0  0
 15 19  1  0  0  0
 16 17  2  0  0  0
 17 18  1  0  0  0
 18 19  2  0  0  0
 18  1  1  0  0  0
  1  2  2  0  0  0
  1  3  1  0  0  0
  3  4  1  0  0  0
  3  8  1  0  0  0
  4  5  1  0  0  0
  5  6  1  0  0  0
  6  7  1  0  0  0
  6  9  1  0  0  0
  7  8  1  0  0  0
  9 10  2  0  0  0
  9 14  1  0  0  0
 10 11  1  0  0  0
 11 12  2  0  0  0
 12 13  1  0  0  0
 13 14  2  0  0  0
M  END
> <minimizedAffinity>
-10.23548

$$$$
1971


 22 25  0  0  0  0  0  0  0  0999 V2000
   22.0243   63.9692   -8.8902 N   0  0  0  0  0  0  0  0  0  0  0  0
   23.2030   63.4144   -8.2769 C   0  0  0  0  0  0  0  0  0  0  0  0
   23.6388   62.2581   -8.4886 O   0  0  0  0  0  0  0  0  0  0  0  0
   23.8022   64.3995   -7.3807 C   0  0  0  0  0  0  0  0  0  0  0  0
   23.6459   64.1155   -5.9233 C   0  0  0  0  0  0  0  0  0  0  0  0
   23.7169   65.4328   -5.4038 O   0  0  0  0  0  0  0  0  0  0  0  0
   22.5782   65.9363   -6.0843 C   0  0  0  0  0  0  0  0  0  0  0  0
   22.9618   65.6792   -7.5206 C   0  0  0  0  0  0  0  0  0  0  0  0
   21.7983   65.2419   -8.2949 C   0  0  0  0  0  0  0  0  0  0  0  0
   20.7313   65.8888   -8.4316 O   0  0  0  0  0  0  0  0  0  0  0  0
   21.5660   64.9301   -5.7002 C   0  0  0  0  0  0  0  0  0  0  0  0
   22.2526   63.7728   -5.5614 C   0  0  0  0  0  0  0  0  0  0  0  0
   17.7492   61.3259  -10.1924 Cl  0  0  0  0  0  0  0  0  0  0  0  0
   19.2320   62.1692  -10.5830 C   0  0  0  0  0  0  0  0  0  0  0  0
   20.0269   62.7248   -9.6032 C   0  0  0  0  0  0  0  0  0  0  0  0
   21.2036   63.3943   -9.8997 C   0  0  0  0  0  0  0  0  0  0  0  0
   21.5518   63.4848  -11.2327 C   0  0  0  0  0  0  0  0  0  0  0  0
   20.7515   62.9255  -12.2204 C   0  0  0  0  0  0  0  0  0  0  0  0
   19.5818   62.2595  -11.9150 C   0  0  0  0  0  0  0  0  0  0  0  0
   24.6842   63.2283   -5.3331 C   0  0  0  0  0  0  0  0  0  0  0  0
   24.0804   62.3211   -4.4719 O   0  0  0  0  0  0  0  0  0  0  0  0
   23.1109   62.4887   -4.4231 H   0  0  0  0  0  0  0  0  0  0  0  0
 13 14  1  0  0  0
 14 15  2  0  0  0
 14 19  1  0  0  0
 15 16  1  0  0  0
 16 17  2  0  0  0
 16  1  1  0  0  0
 17 18  1  0  0  0
 18 19  2  0  0  0
  1  2  1  0  0  0
  1  9  1  0  0  0
  2  3  2  0  0  0
  2  4  1  0  0  0
  4  5  1  0  0  0
  4  8  1  0  0  0
  5  6  1  0  0  0
  5 12  1  0  0  0
  5 20  1  0  0  0
  6  7  1  0  0  0
  7  8  1  0  0  0
  7 11  1  0  0  0
  8  9  1  0  0  0
  9 10  2  0  0  0
 11 12  2  0  0  0
 20 21  1  0  0  0
 21 22  1  0  0  0
M  END
> <minimizedAffinity>
-6.91996

$$$$
1973


 24 27  0  0  0  0  0  0  0  0999 V2000
   24.6777   63.2409   -1.8002 Cl  0  0  0  0  0  0  0  0  0  0  0  0
   24.5991   63.2591   -3.5615 C   0  0  0  0  0  0  0  0  0  0  0  0
   23.4813   63.7009   -4.2389 C   0  0  0  0  0  0  0  0  0  0  0  0
   23.4021   63.7231   -5.5913 N   0  0  0  0  0  0  0  0  0  0  0  0
   24.4228   63.3090   -6.3648 C   0  0  0  0  0  0  0  0  0  0  0  0
   24.3619   63.3234   -7.7223 N   0  0  0  0  0  0  0  0  0  0  0  0
   23.2757   63.7523   -8.3906 C   0  0  0  0  0  0  0  0  0  0  0  0
   22.2115   64.1838   -7.6055 C   0  0  0  0  0  0  0  0  0  0  0  0
   21.0106   64.6576   -8.3420 C   0  0  0  0  0  0  0  0  0  0  0  0
   20.7825   63.6567   -9.3906 N   0  0  0  0  0  0  0  0  0  0  0  0
   21.8116   63.4804  -10.3759 C   0  0  0  0  0  0  0  0  0  0  0  0
   23.1969   63.7754   -9.8736 C   0  0  0  0  0  0  0  0  0  0  0  0
   19.5926   62.8964   -9.4126 C   0  0  0  0  0  0  0  0  0  0  0  0
   18.7466   63.1188   -8.4816 O   0  0  0  0  0  0  0  0  0  0  0  0
   22.3018   64.1581   -6.2313 C   0  0  0  0  0  0  0  0  0  0  0  0
   21.3134   64.5586   -5.5353 O   0  0  0  0  0  0  0  0  0  0  0  0
   25.5547   62.8607   -5.7039 C   0  0  0  0  0  0  0  0  0  0  0  0
   25.6603   62.8287   -4.3290 C   0  0  0  0  0  0  0  0  0  0  0  0
   19.3047   61.8826  -10.4514 C   0  0  0  0  0  0  0  0  0  0  0  0
   19.1679   62.4960  -11.8275 C   0  0  0  0  0  0  0  0  0  0  0  0
   18.3601   63.7726  -11.6329 C   0  0  0  0  0  0  0  0  0  0  0  0
   17.3639   63.5697  -10.6794 O   0  0  0  0  0  0  0  0  0  0  0  0
   16.9048   62.2455  -10.6918 C   0  0  0  0  0  0  0  0  0  0  0  0
   17.9297   61.2737  -10.1382 C   0  0  0  0  0  0  0  0  0  0  0  0
  1  2  1  0  0  0
  2  3  2  0  0  0
  2 18  1  0  0  0
  3  4  1  0  0  0
  4  5  1  0  0  0
  4 15  1  0  0  0
  5  6  2  0  0  0
  5 17  1  0  0  0
  6  7  1  0  0  0
  7  8  2  0  0  0
  7 12  1  0  0  0
  8  9  1  0  0  0
  8 15  1  0  0  0
  9 10  1  0  0  0
 10 11  1  0  0  0
 10 13  1  0  0  0
 11 12  1  0  0  0
 13 14  2  0  0  0
 13 19  1  0  0  0
 19 20  1  0  0  0
 19 24  1  0  0  0
 20 21  1  0  0  0
 21 22  1  0  0  0
 22 23  1  0  0  0
 23 24  1  0  0  0
 15 16  2  0  0  0
 17 18  2  0  0  0
M  END
> <minimizedAffinity>
-8.92774

$$$$
1974


 26 29  0  0  0  0  0  0  0  0999 V2000
   19.2873   59.8037   -9.2473 F   0  0  0  0  0  0  0  0  0  0  0  0
   18.1559   60.3608   -9.7420 C   0  0  0  0  0  0  0  0  0  0  0  0
   18.1515   61.7225  -10.0036 C   0  0  0  0  0  0  0  0  0  0  0  0
   17.0376   62.3577  -10.5068 C   0  0  0  0  0  0  0  0  0  0  0  0
   15.9118   61.5877  -10.7447 C   0  0  0  0  0  0  0  0  0  0  0  0
   15.9146   60.2370  -10.4862 C   0  0  0  0  0  0  0  0  0  0  0  0
   17.0304   59.6088   -9.9835 C   0  0  0  0  0  0  0  0  0  0  0  0
   14.4901   62.3921  -11.3855 Cl  0  0  0  0  0  0  0  0  0  0  0  0
   17.2788   63.7735  -10.6943 C   0  0  0  0  0  0  0  0  0  0  0  0
   16.4947   64.6472  -11.1299 O   0  0  0  0  0  0  0  0  0  0  0  0
   18.6541   63.9923  -10.2648 C   0  0  0  0  0  0  0  0  0  0  0  0
   19.2566   65.1111  -10.2723 O   0  0  0  0  0  0  0  0  0  0  0  0
   19.1669   62.7363   -9.8490 N   0  0  0  0  0  0  0  0  0  0  0  0
   20.4953   62.4650   -9.3395 C   0  0  0  0  0  0  0  0  0  0  0  0
   21.1558   63.6370   -8.8048 N   0  0  0  0  0  0  0  0  0  0  0  0
   20.7132   63.9147   -7.4816 C   0  0  0  0  0  0  0  0  0  0  0  0
   21.7805   64.2712   -6.5078 C   0  0  0  0  0  0  0  0  0  0  0  0
   22.9919   63.5108   -6.6721 N   0  0  0  0  0  0  0  0  0  0  0  0
   23.2027   62.8104   -7.9176 C   0  0  0  0  0  0  0  0  0  0  0  0
   22.5653   63.6510   -9.0034 C   0  0  0  0  0  0  0  0  0  0  0  0
   23.9776   63.4278   -5.6627 C   0  0  0  0  0  0  0  0  0  0  0  0
   25.1665   62.8458   -5.8919 N   0  0  0  0  0  0  0  0  0  0  0  0
   26.1220   62.7535   -4.9463 C   0  0  0  0  0  0  0  0  0  0  0  0
   25.9055   63.2663   -3.6816 C   0  0  0  0  0  0  0  0  0  0  0  0
   24.7195   63.8502   -3.4467 N   0  0  0  0  0  0  0  0  0  0  0  0
   23.7634   63.9428   -4.3904 C   0  0  0  0  0  0  0  0  0  0  0  0
  1  2  1  0  0  0
  2  3  2  0  0  0
  2  7  1  0  0  0
  3  4  1  0  0  0
  3 13  1  0  0  0
  4  5  2  0  0  0
  4  9  1  0  0  0
  5  6  1  0  0  0
  5  8  1  0  0  0
  6  7  2  0  0  0
  9 10  2  0  0  0
  9 11  1  0  0  0
 11 12  2  0  0  0
 11 13  1  0  0  0
 13 14  1  0  0  0
 14 15  1  0  0  0
 15 16  1  0  0  0
 15 20  1  0  0  0
 16 17  1  0  0  0
 17 18  1  0  0  0
 18 19  1  0  0  0
 18 21  1  0  0  0
 19 20  1  0  0  0
 21 22  2  0  0  0
 21 26  1  0  0  0
 22 23  1  0  0  0
 23 24  2  0  0  0
 24 25  1  0  0  0
 25 26  2  0  0  0
M  END
> <minimizedAffinity>
-7.63415

$$$$
1976


 26 29  0  0  0  0  0  0  0  0999 V2000
   20.0902   63.8479   -9.7670 C   0  0  0  0  0  0  0  0  0  0  0  0
   20.6679   64.7193  -10.5056 O   0  0  0  0  0  0  0  0  0  0  0  0
   18.7495   63.4428   -9.9989 N   0  0  0  0  0  0  0  0  0  0  0  0
   18.1614   62.4683   -9.1491 C   0  0  0  0  0  0  0  0  0  0  0  0
   17.4925   61.4087  -10.0337 C   0  0  0  0  0  0  0  0  0  0  0  0
   16.4073   62.1989  -10.7336 C   0  0  0  0  0  0  0  0  0  0  0  0
   16.6912   63.4616  -11.2113 C   0  0  0  0  0  0  0  0  0  0  0  0
   15.6957   64.1610  -11.8272 N   0  0  0  0  0  0  0  0  0  0  0  0
   14.4562   63.6710  -11.9863 C   0  0  0  0  0  0  0  0  0  0  0  0
   14.1967   62.4388  -11.5143 N   0  0  0  0  0  0  0  0  0  0  0  0
   15.1511   61.6877  -10.8886 C   0  0  0  0  0  0  0  0  0  0  0  0
   14.8866   60.4203  -10.4022 O   0  0  0  0  0  0  0  0  0  0  0  0
   18.0401   64.0457  -11.0763 C   0  0  0  0  0  0  0  0  0  0  0  0
   15.3463   59.6347  -10.8470 H   0  0  0  0  0  0  0  0  0  0  0  0
   20.8900   63.2673   -8.6406 C   0  0  0  0  0  0  0  0  0  0  0  0
   23.7174   62.6268   -7.8378 Cl  0  0  0  0  0  0  0  0  0  0  0  0
   22.9665   64.1696   -7.5289 C   0  0  0  0  0  0  0  0  0  0  0  0
   23.6482   65.1934   -6.8903 C   0  0  0  0  0  0  0  0  0  0  0  0
   23.0672   66.4221   -6.6372 C   0  0  0  0  0  0  0  0  0  0  0  0
   21.7608   66.6100   -7.0477 C   0  0  0  0  0  0  0  0  0  0  0  0
   21.0962   65.5781   -7.6832 C   0  0  0  0  0  0  0  0  0  0  0  0
   21.6607   64.3421   -7.9447 C   0  0  0  0  0  0  0  0  0  0  0  0
   21.1821   67.8365   -6.7957 O   0  0  0  0  0  0  0  0  0  0  0  0
   21.8931   69.0238   -6.5096 C   0  0  0  0  0  0  0  0  0  0  0  0
   23.3065   68.8103   -6.0972 C   0  0  0  0  0  0  0  0  0  0  0  0
   23.6978   67.4669   -6.0093 O   0  0  0  0  0  0  0  0  0  0  0  0
 16 17  1  0  0  0
 17 18  2  0  0  0
 17 22  1  0  0  0
 18 19  1  0  0  0
 19 20  2  0  0  0
 19 26  1  0  0  0
 20 21  1  0  0  0
 20 23  1  0  0  0
 21 22  2  0  0  0
 22 15  1  0  0  0
 15  1  1  0  0  0
  1  2  2  0  0  0
  1  3  1  0  0  0
  3  4  1  0  0  0
  3 13  1  0  0  0
  4  5  1  0  0  0
  5  6  1  0  0  0
  6  7  2  0  0  0
  6 11  1  0  0  0
  7  8  1  0  0  0
  7 13  1  0  0  0
  8  9  2  0  0  0
  9 10  1  0  0  0
 10 11  2  0  0  0
 11 12  1  0  0  0
 23 24  1  0  0  0
 24 25  1  0  0  0
 25 26  1  0  0  0
 12 14  1  0  0  0
M  END
> <minimizedAffinity>
-9.62818

$$$$
1982


 25 28  0  0  0  0  0  0  0  0999 V2000
   16.4869   63.7742   -9.6844 Cl  0  0  0  0  0  0  0  0  0  0  0  0
   18.1521   63.6423  -10.2086 C   0  0  0  0  0  0  0  0  0  0  0  0
   19.2191   63.8127   -9.3511 C   0  0  0  0  0  0  0  0  0  0  0  0
   20.5362   63.7127   -9.7509 C   0  0  0  0  0  0  0  0  0  0  0  0
   20.7800   63.4264  -11.0805 C   0  0  0  0  0  0  0  0  0  0  0  0
   19.7214   63.2532  -11.9477 C   0  0  0  0  0  0  0  0  0  0  0  0
   18.4045   63.3541  -11.5476 C   0  0  0  0  0  0  0  0  0  0  0  0
   22.1840   63.3131  -11.5320 C   0  0  0  0  0  0  0  0  0  0  0  0
   22.6732   63.0639  -12.6731 N   0  0  0  0  0  0  0  0  0  0  0  0
   24.1206   63.0436  -12.6909 C   0  0  0  0  0  0  0  0  0  0  0  0
   24.5249   63.3391  -11.2837 C   0  0  0  0  0  0  0  0  0  0  0  0
   23.2499   63.4975  -10.6107 N   0  0  0  0  0  0  0  0  0  0  0  0
   22.9115   63.7900   -9.2549 C   0  0  0  0  0  0  0  0  0  0  0  0
   23.6937   64.0094   -8.1828 N   0  0  0  0  0  0  0  0  0  0  0  0
   22.9640   64.2474   -7.1064 N   0  0  0  0  0  0  0  0  0  0  0  0
   21.6781   64.1724   -7.5296 C   0  0  0  0  0  0  0  0  0  0  0  0
   20.6982   64.3456   -6.7728 O   0  0  0  0  0  0  0  0  0  0  0  0
   21.6214   63.8930   -8.8422 N   0  0  0  0  0  0  0  0  0  0  0  0
   23.4398   64.5280   -5.7654 C   0  0  0  0  0  0  0  0  0  0  0  0
   24.2371   63.3215   -5.2501 C   0  0  0  0  0  0  0  0  0  0  0  0
   24.1470   63.2451   -3.7704 C   0  0  0  0  0  0  0  0  0  0  0  0
   24.6604   64.0803   -2.9843 O   0  0  0  0  0  0  0  0  0  0  0  0
   23.4343   62.1568   -3.2051 N   0  0  0  0  0  0  0  0  0  0  0  0
   23.4561   61.1952   -3.5906 H   0  0  0  0  0  0  0  0  0  0  0  0
   22.8591   62.3416   -2.3574 H   0  0  0  0  0  0  0  0  0  0  0  0
  1  2  1  0  0  0
  2  3  2  0  0  0
  2  7  1  0  0  0
  3  4  1  0  0  0
  4  5  2  0  0  0
  4 18  1  0  0  0
  5  6  1  0  0  0
  5  8  1  0  0  0
  6  7  2  0  0  0
  8  9  2  0  0  0
  8 12  1  0  0  0
  9 10  1  0  0  0
 10 11  1  0  0  0
 11 12  1  0  0  0
 12 13  1  0  0  0
 13 14  2  0  0  0
 13 18  1  0  0  0
 14 15  1  0  0  0
 15 16  1  0  0  0
 15 19  1  0  0  0
 16 17  2  0  0  0
 16 18  1  0  0  0
 19 20  1  0  0  0
 20 21  1  0  0  0
 21 22  2  0  0  0
 21 23  1  0  0  0
 23 24  1  0  0  0
 23 25  1  0  0  0
M  END
> <minimizedAffinity>
-8.95749

$$$$
1986


 30 33  0  0  0  0  0  0  0  0999 V2000
   15.5294   65.0190  -10.5166 Cl  0  0  0  0  0  0  0  0  0  0  0  0
   14.4377   64.1495  -11.5805 C   0  0  0  0  0  0  0  0  0  0  0  0
   13.5602   64.8256  -12.4044 C   0  0  0  0  0  0  0  0  0  0  0  0
   12.6878   64.1322  -13.2533 C   0  0  0  0  0  0  0  0  0  0  0  0
   12.7543   62.7631  -13.2204 C   0  0  0  0  0  0  0  0  0  0  0  0
   13.6466   62.0804  -12.3821 C   0  0  0  0  0  0  0  0  0  0  0  0
   14.5006   62.7716  -11.5507 C   0  0  0  0  0  0  0  0  0  0  0  0
   11.8985   62.0505  -14.0555 O   0  0  0  0  0  0  0  0  0  0  0  0
   10.9918   62.6560  -14.9085 C   0  0  0  0  0  0  0  0  0  0  0  0
   10.9256   64.0401  -14.9403 C   0  0  0  0  0  0  0  0  0  0  0  0
   11.7695   64.9073  -14.1104 C   0  0  0  0  0  0  0  0  0  0  0  0
   10.0074   64.5969  -15.8081 C   0  0  0  0  0  0  0  0  0  0  0  0
    9.9017   65.8625  -15.8809 O   0  0  0  0  0  0  0  0  0  0  0  0
    9.1916   63.8888  -16.6047 N   0  0  0  0  0  0  0  0  0  0  0  0
    9.2920   62.5387  -16.5398 C   0  0  0  0  0  0  0  0  0  0  0  0
    8.5169   61.8932  -17.2959 O   0  0  0  0  0  0  0  0  0  0  0  0
   10.1728   61.9522  -15.7086 N   0  0  0  0  0  0  0  0  0  0  0  0
   10.2190   60.5039  -15.6965 C   0  0  0  0  0  0  0  0  0  0  0  0
    8.2366   64.5302  -17.5089 C   0  0  0  0  0  0  0  0  0  0  0  0
   12.5776   65.8067  -14.9975 C   0  0  0  0  0  0  0  0  0  0  0  0
   12.4070   67.1732  -14.9615 C   0  0  0  0  0  0  0  0  0  0  0  0
   13.1450   67.9789  -15.7729 N   0  0  0  0  0  0  0  0  0  0  0  0
   14.0553   67.4470  -16.6267 C   0  0  0  0  0  0  0  0  0  0  0  0
   14.7216   68.2254  -17.3652 O   0  0  0  0  0  0  0  0  0  0  0  0
   14.2433   66.1191  -16.6842 N   0  0  0  0  0  0  0  0  0  0  0  0
   13.5160   65.3171  -15.8838 C   0  0  0  0  0  0  0  0  0  0  0  0
   13.7012   64.0934  -15.9485 O   0  0  0  0  0  0  0  0  0  0  0  0
   15.2303   65.5805  -17.6151 C   0  0  0  0  0  0  0  0  0  0  0  0
   12.9191   69.4181  -15.6856 C   0  0  0  0  0  0  0  0  0  0  0  0
   11.4911   67.7133  -14.1023 O   0  0  0  0  0  0  0  0  0  0  0  0
  1  2  1  0  0  0
  2  3  2  0  0  0
  2  7  1  0  0  0
  3  4  1  0  0  0
  4  5  2  0  0  0
  4 11  1  0  0  0
  5  6  1  0  0  0
  5  8  1  0  0  0
  6  7  2  0  0  0
  8  9  1  0  0  0
  9 10  2  0  0  0
  9 17  1  0  0  0
 10 11  1  0  0  0
 10 12  1  0  0  0
 11 20  1  0  0  0
 20 21  2  0  0  0
 20 26  1  0  0  0
 21 22  1  0  0  0
 21 30  1  0  0  0
 22 23  1  0  0  0
 22 29  1  0  0  0
 23 24  2  0  0  0
 23 25  1  0  0  0
 25 26  1  0  0  0
 25 28  1  0  0  0
 26 27  2  0  0  0
 12 13  2  0  0  0
 12 14  1  0  0  0
 14 15  1  0  0  0
 14 19  1  0  0  0
 15 16  2  0  0  0
 15 17  1  0  0  0
 17 18  1  0  0  0
M  CHG 1  30  -1
M  END
> <minimizedAffinity>
-6.30557

$$$$
1991


 31 34  0  0  0  0  0  0  0  0999 V2000
   16.1732   62.1555  -11.2542 Cl  0  0  0  0  0  0  0  0  0  0  0  0
   17.7583   62.3104  -10.5360 C   0  0  0  0  0  0  0  0  0  0  0  0
   18.6834   63.1950  -11.0439 C   0  0  0  0  0  0  0  0  0  0  0  0
   19.9224   63.3028  -10.4682 C   0  0  0  0  0  0  0  0  0  0  0  0
   20.2417   62.5091   -9.3598 C   0  0  0  0  0  0  0  0  0  0  0  0
   19.3174   61.6159   -8.8424 C   0  0  0  0  0  0  0  0  0  0  0  0
   18.0923   61.5376   -9.4458 C   0  0  0  0  0  0  0  0  0  0  0  0
   21.4433   62.4986   -8.6683 O   0  0  0  0  0  0  0  0  0  0  0  0
   22.4045   63.5245   -8.5933 C   0  0  0  0  0  0  0  0  0  0  0  0
   23.0423   63.8055   -9.9150 C   0  0  0  0  0  0  0  0  0  0  0  0
   22.1552   63.7966  -11.0387 N   0  0  0  0  0  0  0  0  0  0  0  0
   20.8079   64.2973  -11.1260 C   0  0  0  0  0  0  0  0  0  0  0  0
   22.6335   63.2166  -12.2633 C   0  0  0  0  0  0  0  0  0  0  0  0
   21.8433   63.2218  -13.2395 O   0  0  0  0  0  0  0  0  0  0  0  0
   21.7794   64.7621   -7.9690 C   0  0  0  0  0  0  0  0  0  0  0  0
   21.9797   64.7495   -6.4638 C   0  0  0  0  0  0  0  0  0  0  0  0
   23.3070   64.8834   -6.1061 O   0  0  0  0  0  0  0  0  0  0  0  0
   24.1418   64.3784   -7.0963 C   0  0  0  0  0  0  0  0  0  0  0  0
   23.5261   63.1038   -7.6400 C   0  0  0  0  0  0  0  0  0  0  0  0
   23.9754   62.6469  -12.3713 C   0  0  0  0  0  0  0  0  0  0  0  0
   25.0782   63.5153  -12.1776 N   0  0  0  0  0  0  0  0  0  0  0  0
   24.8794   64.8069  -12.8403 C   0  0  0  0  0  0  0  0  0  0  0  0
   24.7343   64.5653  -14.2960 C   0  0  0  0  0  0  0  0  0  0  0  0
   25.7298   63.6477  -14.9230 C   0  0  0  0  0  0  0  0  0  0  0  0
   26.5682   62.8368  -14.0159 C   0  0  0  0  0  0  0  0  0  0  0  0
   26.3709   63.0011  -12.5567 C   0  0  0  0  0  0  0  0  0  0  0  0
   25.1074   62.8005  -15.9697 C   0  0  0  0  0  0  0  0  0  0  0  0
   25.6540   61.7263  -16.2922 O   0  0  0  0  0  0  0  0  0  0  0  0
   23.9094   63.2124  -16.5921 N   0  0  0  0  0  0  0  0  0  0  0  0
   23.0339   62.6893  -16.2942 H   0  0  0  0  0  0  0  0  0  0  0  0
   23.8084   63.9566  -17.2924 H   0  0  0  0  0  0  0  0  0  0  0  0
  1  2  1  0  0  0
  2  3  2  0  0  0
  2  7  1  0  0  0
  3  4  1  0  0  0
  4  5  2  0  0  0
  4 12  1  0  0  0
  5  6  1  0  0  0
  5  8  1  0  0  0
  6  7  2  0  0  0
  8  9  1  0  0  0
  9 10  1  0  0  0
  9 15  1  0  0  0
  9 19  1  0  0  0
 10 11  1  0  0  0
 11 12  1  0  0  0
 11 13  1  0  0  0
 13 14  2  0  0  0
 13 20  1  0  0  0
 20 21  1  0  0  0
 21 22  1  0  0  0
 21 26  1  0  0  0
 22 23  1  0  0  0
 23 24  1  0  0  0
 24 25  1  0  0  0
 24 27  1  0  0  0
 25 26  1  0  0  0
 27 28  2  0  0  0
 27 29  1  0  0  0
 15 16  1  0  0  0
 16 17  1  0  0  0
 17 18  1  0  0  0
 18 19  1  0  0  0
 29 30  1  0  0  0
 29 31  1  0  0  0
M  END
> <minimizedAffinity>
-5.19663

$$$$
2003


 28 31  0  0  0  0  0  0  0  0999 V2000
   22.1886   64.7107   -7.7621 N   0  0  0  0  0  0  0  0  0  0  0  0
   21.0364   63.9120   -7.4768 C   0  0  0  0  0  0  0  0  0  0  0  0
   20.1928   63.6261   -8.6909 C   0  0  0  0  0  0  0  0  0  0  0  0
   20.9889   63.4358   -9.8815 N   0  0  0  0  0  0  0  0  0  0  0  0
   22.4269   63.4801   -9.8917 C   0  0  0  0  0  0  0  0  0  0  0  0
   23.0576   64.2021   -8.7625 C   0  0  0  0  0  0  0  0  0  0  0  0
   20.3135   63.1897  -11.1075 C   0  0  0  0  0  0  0  0  0  0  0  0
   20.9596   63.0127  -12.1937 O   0  0  0  0  0  0  0  0  0  0  0  0
   18.8529   63.1324  -11.1626 C   0  0  0  0  0  0  0  0  0  0  0  0
   18.0684   64.2005  -11.5494 C   0  0  0  0  0  0  0  0  0  0  0  0
   16.7285   64.0747  -11.5777 N   0  0  0  0  0  0  0  0  0  0  0  0
   16.0843   62.9418  -11.2438 C   0  0  0  0  0  0  0  0  0  0  0  0
   16.8347   61.8910  -10.8653 N   0  0  0  0  0  0  0  0  0  0  0  0
   16.2075   60.7464  -10.5277 C   0  0  0  0  0  0  0  0  0  0  0  0
   14.8330   60.6246  -10.5580 C   0  0  0  0  0  0  0  0  0  0  0  0
   14.0347   61.6846  -10.9426 C   0  0  0  0  0  0  0  0  0  0  0  0
   14.6990   62.8493  -11.2854 C   0  0  0  0  0  0  0  0  0  0  0  0
   18.1780   61.9768  -10.8237 C   0  0  0  0  0  0  0  0  0  0  0  0
   18.8785   60.9967  -10.4703 O   0  0  0  0  0  0  0  0  0  0  0  0
   22.9528   65.3608   -6.3983 S   0  0  0  0  0  0  0  0  0  0  0  0
   23.8171   66.5063   -6.7626 O   0  0  0  0  0  0  0  0  0  0  0  0
   21.8938   65.8107   -5.4171 O   0  0  0  0  0  0  0  0  0  0  0  0
   23.9242   64.0923   -5.6323 C   0  0  0  0  0  0  0  0  0  0  0  0
   23.8523   63.4847   -4.0414 S   0  0  0  0  0  0  0  0  0  0  0  0
   25.0943   62.3206   -4.1404 C   0  0  0  0  0  0  0  0  0  0  0  0
   25.5321   62.4442   -5.4299 C   0  0  0  0  0  0  0  0  0  0  0  0
   24.9319   63.3559   -6.2010 C   0  0  0  0  0  0  0  0  0  0  0  0
   25.7019   61.2024   -2.9024 Cl  0  0  0  0  0  0  0  0  0  0  0  0
 20 21  2  0  0  0
 20 22  2  0  0  0
 20  1  1  0  0  0
 20 23  1  0  0  0
  1  2  1  0  0  0
  1  6  1  0  0  0
  2  3  1  0  0  0
  3  4  1  0  0  0
  4  5  1  0  0  0
  4  7  1  0  0  0
  5  6  1  0  0  0
  7  8  2  0  0  0
  7  9  1  0  0  0
  9 10  2  0  0  0
  9 18  1  0  0  0
 10 11  1  0  0  0
 11 12  2  0  0  0
 12 13  1  0  0  0
 12 17  1  0  0  0
 13 14  1  0  0  0
 13 18  1  0  0  0
 14 15  2  0  0  0
 15 16  1  0  0  0
 16 17  2  0  0  0
 18 19  2  0  0  0
 23 24  1  0  0  0
 23 27  2  0  0  0
 24 25  1  0  0  0
 25 26  2  0  0  0
 25 28  1  0  0  0
 26 27  1  0  0  0
M  END
> <minimizedAffinity>
-9.55459

$$$$
2004


 29 32  0  0  0  0  0  0  0  0999 V2000
   23.0895   63.4091   -9.7161 S   0  0  0  0  0  0  0  0  0  0  0  0
   23.7464   64.5155  -10.5276 O   0  0  0  0  0  0  0  0  0  0  0  0
   23.9306   62.1731  -10.0306 O   0  0  0  0  0  0  0  0  0  0  0  0
   23.3339   63.7600   -8.0192 C   0  0  0  0  0  0  0  0  0  0  0  0
   24.3202   63.0408   -7.3149 C   0  0  0  0  0  0  0  0  0  0  0  0
   24.5193   63.2295   -5.9661 C   0  0  0  0  0  0  0  0  0  0  0  0
   23.7764   64.1210   -5.2261 C   0  0  0  0  0  0  0  0  0  0  0  0
   22.8157   64.8257   -5.9081 C   0  0  0  0  0  0  0  0  0  0  0  0
   22.5980   64.6491   -7.2823 C   0  0  0  0  0  0  0  0  0  0  0  0
   21.4073   65.6395   -8.0912 Cl  0  0  0  0  0  0  0  0  0  0  0  0
   24.0295   64.2658   -3.8410 N   0  0  0  0  0  0  0  0  0  0  0  0
   25.0337   63.5166   -3.1684 C   0  0  0  0  0  0  0  0  0  0  0  0
   25.4762   63.7740   -2.0324 O   0  0  0  0  0  0  0  0  0  0  0  0
   25.5762   62.3435   -3.9031 C   0  0  0  0  0  0  0  0  0  0  0  0
   25.5032   62.5047   -5.2928 O   0  0  0  0  0  0  0  0  0  0  0  0
   24.8252   61.0848   -3.5318 C   0  0  0  0  0  0  0  0  0  0  0  0
   23.4617   64.9456   -3.2836 H   0  0  0  0  0  0  0  0  0  0  0  0
   21.5125   63.1393  -10.2079 N   0  0  0  0  0  0  0  0  0  0  0  0
   21.1624   63.4685  -11.5194 C   0  0  0  0  0  0  0  0  0  0  0  0
   19.7829   62.9273  -11.9224 C   0  0  0  0  0  0  0  0  0  0  0  0
   18.8461   63.0167  -10.8424 N   0  0  0  0  0  0  0  0  0  0  0  0
   19.2857   62.6111   -9.5253 C   0  0  0  0  0  0  0  0  0  0  0  0
   20.5157   63.4381   -9.2069 C   0  0  0  0  0  0  0  0  0  0  0  0
   17.5459   63.4842  -11.0667 C   0  0  0  0  0  0  0  0  0  0  0  0
   17.1866   63.8318  -12.2202 O   0  0  0  0  0  0  0  0  0  0  0  0
   16.5327   63.5946   -9.9703 C   0  0  0  0  0  0  0  0  0  0  0  0
   15.1750   63.0474  -10.3430 C   0  0  0  0  0  0  0  0  0  0  0  0
   14.8126   64.4526  -10.8176 C   0  0  0  0  0  0  0  0  0  0  0  0
   15.9271   64.9740   -9.9056 C   0  0  0  0  0  0  0  0  0  0  0  0
  1  2  2  0  0  0
  1  3  2  0  0  0
  1 18  1  0  0  0
  1  4  1  0  0  0
 18 19  1  0  0  0
 18 23  1  0  0  0
 19 20  1  0  0  0
 20 21  1  0  0  0
 21 22  1  0  0  0
 21 24  1  0  0  0
 22 23  1  0  0  0
 24 25  2  0  0  0
 24 26  1  0  0  0
 26 27  1  0  0  0
 26 29  1  0  0  0
 27 28  1  0  0  0
 28 29  1  0  0  0
  4  5  2  0  0  0
  4  9  1  0  0  0
  5  6  1  0  0  0
  6  7  2  0  0  0
  6 15  1  0  0  0
  7  8  1  0  0  0
  7 11  1  0  0  0
  8  9  2  0  0  0
  9 10  1  0  0  0
 11 12  1  0  0  0
 12 13  2  0  0  0
 12 14  1  0  0  0
 14 15  1  0  0  0
 14 16  1  0  0  0
 11 17  1  0  0  0
M  END
> <minimizedAffinity>
-9.45248

$$$$
2012


 25 28  0  0  0  0  0  0  0  0999 V2000
   19.0792   62.8068  -10.4237 N   0  0  0  0  0  0  0  0  0  0  0  0
   20.0389   63.1455  -11.4184 C   0  0  0  0  0  0  0  0  0  0  0  0
   19.7564   63.5595  -12.5554 O   0  0  0  0  0  0  0  0  0  0  0  0
   21.3924   62.9245  -10.8819 C   0  0  0  0  0  0  0  0  0  0  0  0
   22.3762   63.7836  -11.2530 O   0  0  0  0  0  0  0  0  0  0  0  0
   23.1434   63.8752  -10.1063 N   0  0  0  0  0  0  0  0  0  0  0  0
   22.2605   63.8843   -8.9816 C   0  0  0  0  0  0  0  0  0  0  0  0
   21.1620   63.3009   -9.4478 C   0  0  0  0  0  0  0  0  0  0  0  0
   19.7916   62.9029   -9.1625 C   0  0  0  0  0  0  0  0  0  0  0  0
   19.3543   62.6907   -8.0029 O   0  0  0  0  0  0  0  0  0  0  0  0
   24.1753   63.9176  -10.1069 H   0  0  0  0  0  0  0  0  0  0  0  0
   14.0930   64.1187  -11.0295 Cl  0  0  0  0  0  0  0  0  0  0  0  0
   15.4009   62.9609  -10.8037 C   0  0  0  0  0  0  0  0  0  0  0  0
   16.7193   63.3982  -10.7086 C   0  0  0  0  0  0  0  0  0  0  0  0
   17.7047   62.4560  -10.5287 C   0  0  0  0  0  0  0  0  0  0  0  0
   17.3898   61.0905  -10.4446 C   0  0  0  0  0  0  0  0  0  0  0  0
   16.0972   60.6697  -10.5389 C   0  0  0  0  0  0  0  0  0  0  0  0
   15.1031   61.6171  -10.7173 C   0  0  0  0  0  0  0  0  0  0  0  0
   22.5098   64.3602   -7.6355 C   0  0  0  0  0  0  0  0  0  0  0  0
   23.2792   63.6272   -6.7273 C   0  0  0  0  0  0  0  0  0  0  0  0
   23.3413   64.2819   -5.5586 N   0  0  0  0  0  0  0  0  0  0  0  0
   22.6390   65.4098   -5.6813 N   0  0  0  0  0  0  0  0  0  0  0  0
   22.1305   65.4677   -6.9340 C   0  0  0  0  0  0  0  0  0  0  0  0
   21.2741   66.5566   -7.4677 C   0  0  0  0  0  0  0  0  0  0  0  0
   24.0250   63.9025   -4.3270 C   0  0  0  0  0  0  0  0  0  0  0  0
 12 13  1  0  0  0
 13 14  2  0  0  0
 13 18  1  0  0  0
 14 15  1  0  0  0
 15 16  2  0  0  0
 15  1  1  0  0  0
 16 17  1  0  0  0
 17 18  2  0  0  0
  1  2  1  0  0  0
  1  9  1  0  0  0
  2  3  2  0  0  0
  2  4  1  0  0  0
  4  5  1  0  0  0
  4  8  1  0  0  0
  5  6  1  0  0  0
  6  7  1  0  0  0
  7  8  2  0  0  0
  7 19  1  0  0  0
  8  9  1  0  0  0
  9 10  2  0  0  0
 19 20  2  0  0  0
 19 23  1  0  0  0
 20 21  1  0  0  0
 21 22  1  0  0  0
 21 25  1  0  0  0
 22 23  2  0  0  0
 23 24  1  0  0  0
  6 11  1  0  0  0
M  END
> <minimizedAffinity>
-8.41663

$$$$
2014


 26 29  0  0  0  0  0  0  0  0999 V2000
   19.4940   62.8099  -11.4466 C   0  0  0  0  0  0  0  0  0  0  0  0
   20.5499   63.1191  -10.6995 N   0  0  0  0  0  0  0  0  0  0  0  0
   21.6736   63.1546  -11.4737 C   0  0  0  0  0  0  0  0  0  0  0  0
   21.2502   62.8570  -12.7244 N   0  0  0  0  0  0  0  0  0  0  0  0
   19.9615   62.6502  -12.7240 N   0  0  0  0  0  0  0  0  0  0  0  0
   22.7483   63.4682  -10.7343 N   0  0  0  0  0  0  0  0  0  0  0  0
   22.3669   63.6466   -9.4751 C   0  0  0  0  0  0  0  0  0  0  0  0
   20.9793   63.4284   -9.4500 C   0  0  0  0  0  0  0  0  0  0  0  0
   20.3124   63.5540   -8.2955 N   0  0  0  0  0  0  0  0  0  0  0  0
   21.0193   63.8882   -7.1824 C   0  0  0  0  0  0  0  0  0  0  0  0
   20.3611   63.9983   -6.1014 O   0  0  0  0  0  0  0  0  0  0  0  0
   22.3318   64.1029   -7.1523 N   0  0  0  0  0  0  0  0  0  0  0  0
   22.9997   63.9816   -8.3008 C   0  0  0  0  0  0  0  0  0  0  0  0
   24.2426   64.1738   -8.3290 O   0  0  0  0  0  0  0  0  0  0  0  0
   23.0233   64.4610   -5.9016 C   0  0  0  0  0  0  0  0  0  0  0  0
   18.8915   63.3824   -8.2054 C   0  0  0  0  0  0  0  0  0  0  0  0
   24.1119   63.5973  -11.2062 C   0  0  0  0  0  0  0  0  0  0  0  0
   14.5373   64.7597  -11.7989 Br  0  0  0  0  0  0  0  0  0  0  0  0
   15.8190   63.4226  -11.2995 C   0  0  0  0  0  0  0  0  0  0  0  0
   17.1546   63.6236  -11.5159 C   0  0  0  0  0  0  0  0  0  0  0  0
   18.0752   62.6454  -11.1488 C   0  0  0  0  0  0  0  0  0  0  0  0
   17.5700   61.4989  -10.5717 C   0  0  0  0  0  0  0  0  0  0  0  0
   16.2364   61.3091  -10.3603 C   0  0  0  0  0  0  0  0  0  0  0  0
   15.3099   62.2736  -10.7205 C   0  0  0  0  0  0  0  0  0  0  0  0
   18.5252   60.5232  -10.2095 O   0  0  0  0  0  0  0  0  0  0  0  0
   18.2178   59.5269   -9.2520 C   0  0  0  0  0  0  0  0  0  0  0  0
 18 19  1  0  0  0
 19 20  2  0  0  0
 19 24  1  0  0  0
 20 21  1  0  0  0
 21 22  2  0  0  0
 21  1  1  0  0  0
 22 23  1  0  0  0
 22 25  1  0  0  0
 23 24  2  0  0  0
 25 26  1  0  0  0
  1  2  1  0  0  0
  1  5  2  0  0  0
  2  3  1  0  0  0
  2  8  1  0  0  0
  3  4  2  0  0  0
  3  6  1  0  0  0
  4  5  1  0  0  0
  6  7  1  0  0  0
  6 17  1  0  0  0
  7  8  2  0  0  0
  7 13  1  0  0  0
  8  9  1  0  0  0
  9 10  1  0  0  0
  9 16  1  0  0  0
 10 11  2  0  0  0
 10 12  1  0  0  0
 12 13  1  0  0  0
 12 15  1  0  0  0
 13 14  2  0  0  0
M  END
> <minimizedAffinity>
-6.89929

$$$$
2017


 24 27  0  0  0  0  0  0  0  0999 V2000
   24.8698   63.8742   -6.3164 Cl  0  0  0  0  0  0  0  0  0  0  0  0
   23.3923   63.8759   -7.2647 C   0  0  0  0  0  0  0  0  0  0  0  0
   23.3813   63.5940   -8.6173 C   0  0  0  0  0  0  0  0  0  0  0  0
   22.2321   63.5983   -9.3420 N   0  0  0  0  0  0  0  0  0  0  0  0
   21.0350   63.8743   -8.7967 C   0  0  0  0  0  0  0  0  0  0  0  0
   19.8913   63.8814   -9.5063 N   0  0  0  0  0  0  0  0  0  0  0  0
   19.8714   63.6091  -10.8232 C   0  0  0  0  0  0  0  0  0  0  0  0
   21.1100   63.3199  -11.3984 C   0  0  0  0  0  0  0  0  0  0  0  0
   22.2750   63.3163  -10.6618 C   0  0  0  0  0  0  0  0  0  0  0  0
   23.4022   63.0529  -11.1917 O   0  0  0  0  0  0  0  0  0  0  0  0
   21.0174   64.1610   -7.4379 C   0  0  0  0  0  0  0  0  0  0  0  0
   22.1742   64.1618   -6.6848 C   0  0  0  0  0  0  0  0  0  0  0  0
   18.6356   63.6037  -11.6481 C   0  0  0  0  0  0  0  0  0  0  0  0
   17.5234   63.3121  -10.8218 N   0  0  0  0  0  0  0  0  0  0  0  0
   17.0794   61.9706  -10.7599 C   0  0  0  0  0  0  0  0  0  0  0  0
   15.5933   61.8139  -10.4775 C   0  0  0  0  0  0  0  0  0  0  0  0
   14.8993   62.7129  -11.4373 C   0  0  0  0  0  0  0  0  0  0  0  0
   15.3962   63.9966  -11.5240 C   0  0  0  0  0  0  0  0  0  0  0  0
   14.8033   64.8446  -12.3776 N   0  0  0  0  0  0  0  0  0  0  0  0
   13.7386   64.4358  -13.1343 C   0  0  0  0  0  0  0  0  0  0  0  0
   13.2788   63.1670  -13.0224 N   0  0  0  0  0  0  0  0  0  0  0  0
   13.8323   62.2650  -12.1817 C   0  0  0  0  0  0  0  0  0  0  0  0
   13.0740   65.3656  -14.0839 C   0  0  0  0  0  0  0  0  0  0  0  0
   16.5520   64.3402  -10.6603 C   0  0  0  0  0  0  0  0  0  0  0  0
  1  2  1  0  0  0
  2  3  2  0  0  0
  2 12  1  0  0  0
  3  4  1  0  0  0
  4  5  1  0  0  0
  4  9  1  0  0  0
  5  6  2  0  0  0
  5 11  1  0  0  0
  6  7  1  0  0  0
  7  8  2  0  0  0
  7 13  1  0  0  0
  8  9  1  0  0  0
  9 10  2  0  0  0
 13 14  1  0  0  0
 14 15  1  0  0  0
 14 24  1  0  0  0
 15 16  1  0  0  0
 16 17  1  0  0  0
 17 18  2  0  0  0
 17 22  1  0  0  0
 18 19  1  0  0  0
 18 24  1  0  0  0
 19 20  2  0  0  0
 20 21  1  0  0  0
 20 23  1  0  0  0
 21 22  2  0  0  0
 11 12  2  0  0  0
M  END
> <minimizedAffinity>
-9.23911

$$$$
2020


 22 24  0  0  0  0  0  0  0  0999 V2000
   20.3474   64.5176  -10.3029 C   0  0  0  0  0  0  0  0  0  0  0  0
   19.1098   64.0562   -9.4844 C   0  0  0  0  0  0  0  0  0  0  0  0
   19.5791   62.6164   -9.1997 C   0  0  0  0  0  0  0  0  0  0  0  0
   19.5506   62.0991   -8.0978 O   0  0  0  0  0  0  0  0  0  0  0  0
   20.0472   61.9855  -10.4137 N   0  0  0  0  0  0  0  0  0  0  0  0
   19.5660   62.6321  -11.6486 C   0  0  0  0  0  0  0  0  0  0  0  0
   18.1332   62.8277  -11.3871 N   0  0  0  0  0  0  0  0  0  0  0  0
   17.9165   63.8041  -10.3489 C   0  0  0  0  0  0  0  0  0  0  0  0
   16.8348   64.3938  -10.1723 O   0  0  0  0  0  0  0  0  0  0  0  0
   20.1692   64.0629  -11.6516 C   0  0  0  0  0  0  0  0  0  0  0  0
   19.8497   61.9149  -12.8939 C   0  0  0  0  0  0  0  0  0  0  0  0
   20.6717   61.1750  -10.4319 H   0  0  0  0  0  0  0  0  0  0  0  0
   17.3940   62.3212  -11.8875 H   0  0  0  0  0  0  0  0  0  0  0  0
   22.3272   64.6700   -5.4017 Br  0  0  0  0  0  0  0  0  0  0  0  0
   22.4513   64.1747   -7.2339 C   0  0  0  0  0  0  0  0  0  0  0  0
   21.3944   64.4481   -8.1048 C   0  0  0  0  0  0  0  0  0  0  0  0
   21.4631   64.1018   -9.4605 C   0  0  0  0  0  0  0  0  0  0  0  0
   22.6300   63.4791   -9.8669 C   0  0  0  0  0  0  0  0  0  0  0  0
   23.6664   63.2177   -8.9876 C   0  0  0  0  0  0  0  0  0  0  0  0
   23.5829   63.5611   -7.6676 C   0  0  0  0  0  0  0  0  0  0  0  0
   22.6769   63.1384  -11.1887 O   0  0  0  0  0  0  0  0  0  0  0  0
   23.9080   63.1003  -11.8585 C   0  0  0  0  0  0  0  0  0  0  0  0
 14 15  1  0  0  0
 15 16  2  0  0  0
 15 20  1  0  0  0
 16 17  1  0  0  0
 17 18  2  0  0  0
 17  1  1  0  0  0
 18 19  1  0  0  0
 18 21  1  0  0  0
 19 20  2  0  0  0
 21 22  1  0  0  0
  1  2  1  0  0  0
  1 10  1  0  0  0
  2  3  1  0  0  0
  2  8  1  0  0  0
  3  4  2  0  0  0
  3  5  1  0  0  0
  5  6  1  0  0  0
  6  7  1  0  0  0
  6 10  1  0  0  0
  6 11  1  0  0  0
  7  8  1  0  0  0
  8  9  2  0  0  0
  5 12  1  0  0  0
  7 13  1  0  0  0
M  END
> <minimizedAffinity>
-5.28407

$$$$
2028


 31 34  0  0  0  0  0  0  0  0999 V2000
   13.9821   60.7681  -10.4903 Cl  0  0  0  0  0  0  0  0  0  0  0  0
   14.2342   62.3780  -11.1597 C   0  0  0  0  0  0  0  0  0  0  0  0
   13.6319   62.6831  -12.3938 C   0  0  0  0  0  0  0  0  0  0  0  0
   13.8248   63.9316  -12.9060 C   0  0  0  0  0  0  0  0  0  0  0  0
   14.5934   64.8829  -12.2496 C   0  0  0  0  0  0  0  0  0  0  0  0
   15.1718   64.5545  -11.0450 C   0  0  0  0  0  0  0  0  0  0  0  0
   14.9985   63.3068  -10.4891 C   0  0  0  0  0  0  0  0  0  0  0  0
   16.0003   65.6046  -10.3551 C   0  0  0  0  0  0  0  0  0  0  0  0
   12.9849   64.0357  -14.1388 C   0  0  0  0  0  0  0  0  0  0  0  0
   13.5586   64.7705  -15.1942 N   0  0  0  0  0  0  0  0  0  0  0  0
   13.1756   66.1405  -15.0019 C   0  0  0  0  0  0  0  0  0  0  0  0
   12.1472   66.2141  -13.9481 C   0  0  0  0  0  0  0  0  0  0  0  0
   11.7027   64.7524  -13.8513 C   0  0  0  0  0  0  0  0  0  0  0  0
   10.7381   64.6860  -14.9337 C   0  0  0  0  0  0  0  0  0  0  0  0
   10.4517   63.8099  -15.7790 O   0  0  0  0  0  0  0  0  0  0  0  0
   10.0504   65.9642  -14.8934 N   0  0  0  0  0  0  0  0  0  0  0  0
   10.9030   66.9066  -14.2606 C   0  0  0  0  0  0  0  0  0  0  0  0
   10.6148   68.0892  -14.0307 O   0  0  0  0  0  0  0  0  0  0  0  0
   12.6705   62.6433  -14.4508 C   0  0  0  0  0  0  0  0  0  0  0  0
   12.2462   62.0995  -15.5187 O   0  0  0  0  0  0  0  0  0  0  0  0
   12.9180   61.8590  -13.3074 N   0  0  0  0  0  0  0  0  0  0  0  0
   14.6003   64.6653  -15.2511 H   0  0  0  0  0  0  0  0  0  0  0  0
   12.6550   60.8609  -13.1071 H   0  0  0  0  0  0  0  0  0  0  0  0
   12.8275   66.8275  -16.3091 C   0  0  0  0  0  0  0  0  0  0  0  0
   13.3003   68.0993  -16.4401 O   0  0  0  0  0  0  0  0  0  0  0  0
   13.1025   65.8969  -17.4440 C   0  0  0  0  0  0  0  0  0  0  0  0
   13.6922   68.3057  -17.3265 H   0  0  0  0  0  0  0  0  0  0  0  0
    8.7331   66.2773  -15.3812 C   0  0  0  0  0  0  0  0  0  0  0  0
    8.6231   66.4973  -16.8440 C   0  0  0  0  0  0  0  0  0  0  0  0
    9.6446   67.1464  -17.4690 O   0  0  0  0  0  0  0  0  0  0  0  0
    9.5692   68.5236  -17.4459 C   0  0  0  0  0  0  0  0  0  0  0  0
  1  2  1  0  0  0
  2  3  2  0  0  0
  2  7  1  0  0  0
  3  4  1  0  0  0
  3 21  1  0  0  0
  4  5  2  0  0  0
  4  9  1  0  0  0
  5  6  1  0  0  0
  6  7  2  0  0  0
  6  8  1  0  0  0
  9 10  1  0  0  0
  9 13  1  0  0  0
  9 19  1  0  0  0
 10 11  1  0  0  0
 11 12  1  0  0  0
 11 24  1  0  0  0
 12 13  1  0  0  0
 12 17  1  0  0  0
 13 14  1  0  0  0
 14 15  2  0  0  0
 14 16  1  0  0  0
 16 17  1  0  0  0
 16 28  1  0  0  0
 17 18  2  0  0  0
 28 29  1  0  0  0
 29 30  1  0  0  0
 30 31  1  0  0  0
 24 25  1  0  0  0
 24 26  1  0  0  0
 19 20  2  0  0  0
 19 21  1  0  0  0
 10 22  1  0  0  0
 25 27  1  0  0  0
 21 23  1  0  0  0
M  END
> <minimizedAffinity>
-5.36352

$$$$
2032


 31 34  0  0  0  0  0  0  0  0999 V2000
   24.2160   63.2983  -13.5598 C   0  0  0  0  0  0  0  0  0  0  0  0
   23.4576   63.3004  -12.5115 C   0  0  0  0  0  0  0  0  0  0  0  0
   22.0912   63.3192  -12.4910 O   0  0  0  0  0  0  0  0  0  0  0  0
   21.6557   63.3056  -11.1675 C   0  0  0  0  0  0  0  0  0  0  0  0
   22.6899   63.2835  -10.2879 C   0  0  0  0  0  0  0  0  0  0  0  0
   22.4657   63.2491   -8.9068 C   0  0  0  0  0  0  0  0  0  0  0  0
   21.2036   63.2394   -8.3728 C   0  0  0  0  0  0  0  0  0  0  0  0
   20.1668   63.2688   -9.3228 C   0  0  0  0  0  0  0  0  0  0  0  0
   20.3501   63.2968  -10.6631 C   0  0  0  0  0  0  0  0  0  0  0  0
   18.8899   63.2755   -8.7226 O   0  0  0  0  0  0  0  0  0  0  0  0
   23.9006   63.2804  -11.1164 C   0  0  0  0  0  0  0  0  0  0  0  0
   25.0948   63.2611  -10.6984 O   0  0  0  0  0  0  0  0  0  0  0  0
   20.3137   62.5211  -17.1291 Br  0  0  0  0  0  0  0  0  0  0  0  0
   22.0900   62.9635  -16.6281 C   0  0  0  0  0  0  0  0  0  0  0  0
   22.5002   62.9870  -15.2831 C   0  0  0  0  0  0  0  0  0  0  0  0
   23.7888   63.3157  -14.9515 C   0  0  0  0  0  0  0  0  0  0  0  0
   24.6875   63.6211  -15.9472 C   0  0  0  0  0  0  0  0  0  0  0  0
   24.2761   63.5956  -17.2883 C   0  0  0  0  0  0  0  0  0  0  0  0
   22.9988   63.2733  -17.6153 C   0  0  0  0  0  0  0  0  0  0  0  0
   25.9443   63.9335  -15.5592 O   0  0  0  0  0  0  0  0  0  0  0  0
   27.0942   63.1785  -15.7279 C   0  0  0  0  0  0  0  0  0  0  0  0
   19.2657   63.3790  -11.6596 C   0  0  0  0  0  0  0  0  0  0  0  0
   17.9672   63.4107  -11.0294 N   0  0  0  0  0  0  0  0  0  0  0  0
   17.5365   62.0521  -10.7522 C   0  0  0  0  0  0  0  0  0  0  0  0
   16.1075   61.7941  -10.9794 C   0  0  0  0  0  0  0  0  0  0  0  0
   15.2246   62.8966  -10.7682 N   0  0  0  0  0  0  0  0  0  0  0  0
   15.7820   64.1555  -10.5630 C   0  0  0  0  0  0  0  0  0  0  0  0
   17.0311   64.3280  -11.4673 C   0  0  0  0  0  0  0  0  0  0  0  0
   18.2492   63.7768  -10.0081 H   0  0  0  0  0  0  0  0  0  0  0  0
   13.9516   62.8196  -11.3772 C   0  0  0  0  0  0  0  0  0  0  0  0
   13.6335   63.9069  -12.3423 C   0  0  0  0  0  0  0  0  0  0  0  0
 13 14  1  0  0  0
 14 15  2  0  0  0
 14 19  1  0  0  0
 15 16  1  0  0  0
 16 17  2  0  0  0
 16  1  1  0  0  0
 17 18  1  0  0  0
 17 20  1  0  0  0
 18 19  2  0  0  0
 20 21  1  0  0  0
  1  2  2  0  0  0
  2  3  1  0  0  0
  2 11  1  0  0  0
  3  4  1  0  0  0
  4  5  2  0  0  0
  4  9  1  0  0  0
  5  6  1  0  0  0
  5 11  1  0  0  0
  6  7  2  0  0  0
  7  8  1  0  0  0
  8  9  2  0  0  0
  8 10  1  0  0  0
  9 22  1  0  0  0
 22 23  1  0  0  0
 23 24  1  0  0  0
 23 28  1  0  0  0
 24 25  1  0  0  0
 25 26  1  0  0  0
 26 27  1  0  0  0
 26 30  1  0  0  0
 27 28  1  0  0  0
 30 31  1  0  0  0
 11 12  2  0  0  0
 23 29  1  0  0  0
M  CHG 1  10  -1
M  CHG 1  23   1
M  END
> <minimizedAffinity>
-5.74086

$$$$
2033


 29 32  0  0  0  0  0  0  0  0999 V2000
   19.1956   63.0824  -12.3029 C   0  0  0  0  0  0  0  0  0  0  0  0
   20.3447   63.1065  -11.6863 C   0  0  0  0  0  0  0  0  0  0  0  0
   20.4967   63.1020  -10.3085 O   0  0  0  0  0  0  0  0  0  0  0  0
   21.8278   63.1340   -9.9372 C   0  0  0  0  0  0  0  0  0  0  0  0
   22.6393   63.1632  -11.0485 C   0  0  0  0  0  0  0  0  0  0  0  0
   24.0102   63.1987  -10.9044 C   0  0  0  0  0  0  0  0  0  0  0  0
   24.5585   63.2062   -9.6394 C   0  0  0  0  0  0  0  0  0  0  0  0
   23.7058   63.1766   -8.5182 C   0  0  0  0  0  0  0  0  0  0  0  0
   22.3504   63.1397   -8.6360 C   0  0  0  0  0  0  0  0  0  0  0  0
   24.4030   63.1899   -7.2997 O   0  0  0  0  0  0  0  0  0  0  0  0
   21.7204   63.1458  -12.1916 C   0  0  0  0  0  0  0  0  0  0  0  0
   22.0409   63.1620  -13.4006 O   0  0  0  0  0  0  0  0  0  0  0  0
   14.4163   65.4236  -11.4428 Br  0  0  0  0  0  0  0  0  0  0  0  0
   15.7226   64.0508  -11.2489 C   0  0  0  0  0  0  0  0  0  0  0  0
   16.9549   64.0549  -11.8362 C   0  0  0  0  0  0  0  0  0  0  0  0
   17.8833   63.0493  -11.6799 C   0  0  0  0  0  0  0  0  0  0  0  0
   17.5181   61.9725  -10.8661 C   0  0  0  0  0  0  0  0  0  0  0  0
   16.2969   61.9142  -10.2529 C   0  0  0  0  0  0  0  0  0  0  0  0
   15.4010   62.9588  -10.4479 C   0  0  0  0  0  0  0  0  0  0  0  0
   18.4330   60.9529  -10.6888 O   0  0  0  0  0  0  0  0  0  0  0  0
   18.5134   60.2771   -9.4614 C   0  0  0  0  0  0  0  0  0  0  0  0
   21.4339   63.0887   -7.5303 C   0  0  0  0  0  0  0  0  0  0  0  0
   20.8931   64.2404   -6.9332 N   0  0  0  0  0  0  0  0  0  0  0  0
   20.5947   64.1381   -5.5307 C   0  0  0  0  0  0  0  0  0  0  0  0
   21.7860   64.3515   -4.6298 C   0  0  0  0  0  0  0  0  0  0  0  0
   22.9844   64.4873   -5.3170 O   0  0  0  0  0  0  0  0  0  0  0  0
   22.8291   65.5808   -6.1620 C   0  0  0  0  0  0  0  0  0  0  0  0
   21.7271   65.4349   -7.1593 C   0  0  0  0  0  0  0  0  0  0  0  0
   20.0092   64.4941   -7.4206 H   0  0  0  0  0  0  0  0  0  0  0  0
 13 14  1  0  0  0
 14 15  2  0  0  0
 14 19  1  0  0  0
 15 16  1  0  0  0
 16 17  2  0  0  0
 16  1  1  0  0  0
 17 18  1  0  0  0
 17 20  1  0  0  0
 18 19  2  0  0  0
 20 21  1  0  0  0
  1  2  2  0  0  0
  2  3  1  0  0  0
  2 11  1  0  0  0
  3  4  1  0  0  0
  4  5  2  0  0  0
  4  9  1  0  0  0
  5  6  1  0  0  0
  5 11  1  0  0  0
  6  7  2  0  0  0
  7  8  1  0  0  0
  8  9  2  0  0  0
  8 10  1  0  0  0
  9 22  1  0  0  0
 22 23  1  0  0  0
 23 24  1  0  0  0
 23 28  1  0  0  0
 24 25  1  0  0  0
 25 26  1  0  0  0
 26 27  1  0  0  0
 27 28  1  0  0  0
 11 12  2  0  0  0
 23 29  1  0  0  0
M  CHG 1  10  -1
M  CHG 1  23   1
M  END
> <minimizedAffinity>
-2.57204

$$$$
2041


 30 33  0  0  0  0  0  0  0  0999 V2000
   22.4072   63.7399   -7.8735 N   0  0  0  0  0  0  0  0  0  0  0  0
   23.0448   64.1298   -9.1149 C   0  0  0  0  0  0  0  0  0  0  0  0
   22.3925   63.4166  -10.2925 C   0  0  0  0  0  0  0  0  0  0  0  0
   20.9837   63.8085  -10.3248 N   0  0  0  0  0  0  0  0  0  0  0  0
   20.5239   64.5106   -9.1635 C   0  0  0  0  0  0  0  0  0  0  0  0
   20.9778   63.7420   -7.9503 C   0  0  0  0  0  0  0  0  0  0  0  0
   20.2128   63.4970  -11.4491 C   0  0  0  0  0  0  0  0  0  0  0  0
   20.7760   62.8720  -12.4375 O   0  0  0  0  0  0  0  0  0  0  0  0
   22.9577   64.7415   -6.5888 S   0  0  0  0  0  0  0  0  0  0  0  0
   23.9464   65.7155   -7.1863 O   0  0  0  0  0  0  0  0  0  0  0  0
   21.8554   65.5484   -5.9912 O   0  0  0  0  0  0  0  0  0  0  0  0
   23.7442   63.7579   -5.3747 C   0  0  0  0  0  0  0  0  0  0  0  0
   23.3526   63.6932   -4.0570 C   0  0  0  0  0  0  0  0  0  0  0  0
   24.0180   62.9072   -3.1476 C   0  0  0  0  0  0  0  0  0  0  0  0
   25.1171   62.1492   -3.5510 C   0  0  0  0  0  0  0  0  0  0  0  0
   25.5269   62.2056   -4.8877 C   0  0  0  0  0  0  0  0  0  0  0  0
   24.8431   63.0009   -5.7808 C   0  0  0  0  0  0  0  0  0  0  0  0
   25.9512   61.1556   -2.3860 Cl  0  0  0  0  0  0  0  0  0  0  0  0
   18.7963   63.7867  -11.6941 C   0  0  0  0  0  0  0  0  0  0  0  0
   17.7074   63.3619  -10.3411 S   0  0  0  0  0  0  0  0  0  0  0  0
   16.1213   62.7245  -10.8517 C   0  0  0  0  0  0  0  0  0  0  0  0
   15.7120   61.5176  -10.4825 N   0  0  0  0  0  0  0  0  0  0  0  0
   14.5276   61.0020  -10.8225 C   0  0  0  0  0  0  0  0  0  0  0  0
   13.6911   61.7611  -11.5961 N   0  0  0  0  0  0  0  0  0  0  0  0
   14.0737   62.9815  -11.9855 C   0  0  0  0  0  0  0  0  0  0  0  0
   13.4377   63.9268  -12.7370 N   0  0  0  0  0  0  0  0  0  0  0  0
   14.2279   64.9757  -12.8386 N   0  0  0  0  0  0  0  0  0  0  0  0
   15.3697   64.7636  -12.1804 C   0  0  0  0  0  0  0  0  0  0  0  0
   15.3009   63.5109  -11.6311 C   0  0  0  0  0  0  0  0  0  0  0  0
   12.1286   63.7969  -13.3063 C   0  0  0  0  0  0  0  0  0  0  0  0
  9 10  2  0  0  0
  9 11  2  0  0  0
  9  1  1  0  0  0
  9 12  1  0  0  0
  1  2  1  0  0  0
  1  6  1  0  0  0
  2  3  1  0  0  0
  3  4  1  0  0  0
  4  5  1  0  0  0
  4  7  1  0  0  0
  5  6  1  0  0  0
  7  8  2  0  0  0
  7 19  1  0  0  0
 19 20  1  0  0  0
 20 21  1  0  0  0
 21 22  2  0  0  0
 21 29  1  0  0  0
 22 23  1  0  0  0
 23 24  2  0  0  0
 24 25  1  0  0  0
 25 26  1  0  0  0
 25 29  2  0  0  0
 26 27  1  0  0  0
 26 30  1  0  0  0
 27 28  2  0  0  0
 28 29  1  0  0  0
 12 13  2  0  0  0
 12 17  1  0  0  0
 13 14  1  0  0  0
 14 15  2  0  0  0
 15 16  1  0  0  0
 15 18  1  0  0  0
 16 17  2  0  0  0
M  END
> <minimizedAffinity>
-8.43381

$$$$
2043


 32 35  0  0  0  0  0  0  0  0999 V2000
   20.3486   63.7895   -9.0345 N   0  0  0  0  0  0  0  0  0  0  0  0
   20.7269   64.9491   -9.8039 C   0  0  0  0  0  0  0  0  0  0  0  0
   22.2402   65.1160   -9.6840 C   0  0  0  0  0  0  0  0  0  0  0  0
   22.8648   63.8504   -9.7732 N   0  0  0  0  0  0  0  0  0  0  0  0
   22.6615   63.0702   -8.4726 C   0  0  0  0  0  0  0  0  0  0  0  0
   21.2722   63.3789   -8.0429 C   0  0  0  0  0  0  0  0  0  0  0  0
   23.5330   63.2217  -10.7831 C   0  0  0  0  0  0  0  0  0  0  0  0
   24.1040   62.0623  -10.3072 O   0  0  0  0  0  0  0  0  0  0  0  0
   23.8391   63.3598  -12.1526 C   0  0  0  0  0  0  0  0  0  0  0  0
   24.8446   63.3805  -12.9636 C   0  0  0  0  0  0  0  0  0  0  0  0
   26.1808   63.2465  -12.5577 N   0  0  0  0  0  0  0  0  0  0  0  0
   27.2887   63.2062  -13.4336 N   0  0  0  0  0  0  0  0  0  0  0  0
   27.0667   63.3066  -14.8105 C   0  0  0  0  0  0  0  0  0  0  0  0
   28.0444   63.2727  -15.6024 O   0  0  0  0  0  0  0  0  0  0  0  0
   25.6833   63.4511  -15.2973 C   0  0  0  0  0  0  0  0  0  0  0  0
   24.6038   63.4890  -14.4344 C   0  0  0  0  0  0  0  0  0  0  0  0
   23.3622   63.6236  -14.9670 C   0  0  0  0  0  0  0  0  0  0  0  0
   23.2030   63.7190  -16.3532 C   0  0  0  0  0  0  0  0  0  0  0  0
   24.2704   63.6827  -17.2147 C   0  0  0  0  0  0  0  0  0  0  0  0
   25.5287   63.5459  -16.6693 C   0  0  0  0  0  0  0  0  0  0  0  0
   26.4263   63.2095  -11.5661 H   0  0  0  0  0  0  0  0  0  0  0  0
   28.2565   63.1000  -13.0063 H   0  0  0  0  0  0  0  0  0  0  0  0
   19.5411   62.5881   -9.8862 S   0  0  0  0  0  0  0  0  0  0  0  0
   20.3101   62.3368  -11.1768 O   0  0  0  0  0  0  0  0  0  0  0  0
   19.6673   61.2850   -9.1054 O   0  0  0  0  0  0  0  0  0  0  0  0
   17.8704   62.8700  -10.1779 C   0  0  0  0  0  0  0  0  0  0  0  0
   17.3195   64.1188  -10.0371 C   0  0  0  0  0  0  0  0  0  0  0  0
   15.9725   64.3213  -10.2776 C   0  0  0  0  0  0  0  0  0  0  0  0
   15.1385   63.2948  -10.6608 C   0  0  0  0  0  0  0  0  0  0  0  0
   15.6885   62.0312  -10.8040 C   0  0  0  0  0  0  0  0  0  0  0  0
   17.0470   61.8416  -10.5595 C   0  0  0  0  0  0  0  0  0  0  0  0
   13.4385   63.6039  -10.9521 Cl  0  0  0  0  0  0  0  0  0  0  0  0
 23 24  2  0  0  0
 23 25  2  0  0  0
 23  1  1  0  0  0
 23 26  1  0  0  0
  1  2  1  0  0  0
  1  6  1  0  0  0
  2  3  1  0  0  0
  3  4  1  0  0  0
  4  5  1  0  0  0
  4  7  1  0  0  0
  5  6  1  0  0  0
  7  8  2  0  0  0
  7  9  1  0  0  0
  9 10  2  0  0  0
 10 11  1  0  0  0
 10 16  1  0  0  0
 11 12  1  0  0  0
 12 13  1  0  0  0
 13 14  2  0  0  0
 13 15  1  0  0  0
 15 16  2  0  0  0
 15 20  1  0  0  0
 16 17  1  0  0  0
 17 18  2  0  0  0
 18 19  1  0  0  0
 19 20  2  0  0  0
 26 27  2  0  0  0
 26 31  1  0  0  0
 27 28  1  0  0  0
 28 29  2  0  0  0
 29 30  1  0  0  0
 29 32  1  0  0  0
 30 31  2  0  0  0
 11 21  1  0  0  0
 12 22  1  0  0  0
M  END
> <minimizedAffinity>
-10.54766

$$$$
2046


 26 29  0  0  0  0  0  0  0  0999 V2000
   20.5134   62.3558  -12.6773 Cl  0  0  0  0  0  0  0  0  0  0  0  0
   20.8780   63.0074  -11.1099 C   0  0  0  0  0  0  0  0  0  0  0  0
   20.0637   62.7659  -10.0331 C   0  0  0  0  0  0  0  0  0  0  0  0
   20.4065   63.3116   -8.8166 C   0  0  0  0  0  0  0  0  0  0  0  0
   21.5278   64.0891   -8.6233 C   0  0  0  0  0  0  0  0  0  0  0  0
   22.3338   64.3214   -9.7146 C   0  0  0  0  0  0  0  0  0  0  0  0
   21.9984   63.7798  -10.9368 C   0  0  0  0  0  0  0  0  0  0  0  0
   18.8928   61.9936  -10.1292 N   0  0  0  0  0  0  0  0  0  0  0  0
   18.8156   60.7117   -9.8349 N   0  0  0  0  0  0  0  0  0  0  0  0
   17.5828   60.2774  -10.0167 N   0  0  0  0  0  0  0  0  0  0  0  0
   16.8824   61.3126  -10.4339 N   0  0  0  0  0  0  0  0  0  0  0  0
   17.6930   62.4103  -10.5114 C   0  0  0  0  0  0  0  0  0  0  0  0
   17.2075   63.7161  -10.9550 C   0  0  0  0  0  0  0  0  0  0  0  0
   15.8270   64.0410  -11.2924 C   0  0  0  0  0  0  0  0  0  0  0  0
   16.3398   64.4762   -9.9095 C   0  0  0  0  0  0  0  0  0  0  0  0
   21.8639   64.6502   -7.3297 N   0  0  0  0  0  0  0  0  0  0  0  0
   21.1821   65.1928   -6.7912 H   0  0  0  0  0  0  0  0  0  0  0  0
   23.1817   64.4049   -6.8565 C   0  0  0  0  0  0  0  0  0  0  0  0
   23.3626   64.0638   -5.4486 C   0  0  0  0  0  0  0  0  0  0  0  0
   22.4896   64.6597   -4.6738 O   0  0  0  0  0  0  0  0  0  0  0  0
   24.2601   63.2498   -4.8039 N   0  0  0  0  0  0  0  0  0  0  0  0
   25.2410   62.4148   -5.4202 C   0  0  0  0  0  0  0  0  0  0  0  0
   26.6176   62.8358   -4.9134 C   0  0  0  0  0  0  0  0  0  0  0  0
   26.5890   62.5595   -3.5288 O   0  0  0  0  0  0  0  0  0  0  0  0
   25.7483   63.4686   -2.9243 C   0  0  0  0  0  0  0  0  0  0  0  0
   24.2909   63.2153   -3.3253 C   0  0  0  0  0  0  0  0  0  0  0  0
  1  2  1  0  0  0
  2  3  2  0  0  0
  2  7  1  0  0  0
  3  4  1  0  0  0
  3  8  1  0  0  0
  4  5  2  0  0  0
  5  6  1  0  0  0
  5 16  1  0  0  0
  6  7  2  0  0  0
 16 18  1  0  0  0
 18 19  1  0  0  0
 19 20  2  0  0  0
 19 21  1  0  0  0
 21 22  1  0  0  0
 21 26  1  0  0  0
 22 23  1  0  0  0
 23 24  1  0  0  0
 24 25  1  0  0  0
 25 26  1  0  0  0
  8  9  1  0  0  0
  8 12  1  0  0  0
  9 10  2  0  0  0
 10 11  1  0  0  0
 11 12  2  0  0  0
 12 13  1  0  0  0
 13 14  1  0  0  0
 13 15  1  0  0  0
 14 15  1  0  0  0
 16 17  1  0  0  0
M  END
> <minimizedAffinity>
-9.54424

$$$$
2063


 34 37  0  0  0  0  0  0  0  0999 V2000
   13.6822   63.8112  -12.5855 C   0  0  0  0  0  0  0  0  0  0  0  0
   14.3237   65.0073  -12.2775 C   0  0  0  0  0  0  0  0  0  0  0  0
   15.3957   65.0594  -11.5229 O   0  0  0  0  0  0  0  0  0  0  0  0
   15.9488   63.9919  -10.9975 C   0  0  0  0  0  0  0  0  0  0  0  0
   15.3847   62.7627  -11.2461 C   0  0  0  0  0  0  0  0  0  0  0  0
   15.9968   61.6729  -10.6767 C   0  0  0  0  0  0  0  0  0  0  0  0
   17.1175   61.7616   -9.8906 C   0  0  0  0  0  0  0  0  0  0  0  0
   17.7122   63.0116   -9.6239 C   0  0  0  0  0  0  0  0  0  0  0  0
   17.0937   64.0976  -10.1969 C   0  0  0  0  0  0  0  0  0  0  0  0
   14.2581   62.6724  -12.0348 C   0  0  0  0  0  0  0  0  0  0  0  0
   13.7402   61.5470  -12.2636 O   0  0  0  0  0  0  0  0  0  0  0  0
    8.5982   63.8557  -16.0954 Br  0  0  0  0  0  0  0  0  0  0  0  0
   10.1759   63.8228  -15.0143 C   0  0  0  0  0  0  0  0  0  0  0  0
   10.9751   62.7060  -14.9353 C   0  0  0  0  0  0  0  0  0  0  0  0
   12.1235   62.6712  -14.1531 C   0  0  0  0  0  0  0  0  0  0  0  0
   12.4995   63.7777  -13.4204 C   0  0  0  0  0  0  0  0  0  0  0  0
   11.6938   64.9007  -13.5019 C   0  0  0  0  0  0  0  0  0  0  0  0
   10.5537   64.9366  -14.2783 C   0  0  0  0  0  0  0  0  0  0  0  0
   18.8386   63.0582   -8.8289 O   0  0  0  0  0  0  0  0  0  0  0  0
   20.0956   63.4161   -9.2190 C   0  0  0  0  0  0  0  0  0  0  0  0
   20.5679   62.6758  -10.3358 O   0  0  0  0  0  0  0  0  0  0  0  0
   21.5409   63.4623  -10.9130 C   0  0  0  0  0  0  0  0  0  0  0  0
   22.7407   63.6998  -10.0496 C   0  0  0  0  0  0  0  0  0  0  0  0
   22.3699   64.0072   -8.6187 C   0  0  0  0  0  0  0  0  0  0  0  0
   21.1662   63.2085   -8.1633 C   0  0  0  0  0  0  0  0  0  0  0  0
   20.7692   63.6992   -6.9252 O   0  0  0  0  0  0  0  0  0  0  0  0
   23.4752   63.8142   -7.8002 O   0  0  0  0  0  0  0  0  0  0  0  0
   23.3904   64.8405  -10.5483 O   0  0  0  0  0  0  0  0  0  0  0  0
   21.0772   63.1089   -6.1980 H   0  0  0  0  0  0  0  0  0  0  0  0
   24.3229   63.6981   -8.3296 H   0  0  0  0  0  0  0  0  0  0  0  0
   22.7372   65.5586  -10.7409 H   0  0  0  0  0  0  0  0  0  0  0  0
   21.9768   62.9621  -12.2670 C   0  0  0  0  0  0  0  0  0  0  0  0
   23.3244   62.6096  -12.2854 O   0  0  0  0  0  0  0  0  0  0  0  0
   23.4675   62.1529  -13.1725 H   0  0  0  0  0  0  0  0  0  0  0  0
 12 13  1  0  0  0
 13 14  2  0  0  0
 13 18  1  0  0  0
 14 15  1  0  0  0
 15 16  2  0  0  0
 16 17  1  0  0  0
 16  1  1  0  0  0
 17 18  2  0  0  0
  1  2  2  0  0  0
  1 10  1  0  0  0
  2  3  1  0  0  0
  3  4  1  0  0  0
  4  5  2  0  0  0
  4  9  1  0  0  0
  5  6  1  0  0  0
  5 10  1  0  0  0
  6  7  2  0  0  0
  7  8  1  0  0  0
  8  9  2  0  0  0
  8 19  1  0  0  0
 19 20  1  0  0  0
 20 21  1  0  0  0
 20 25  1  0  0  0
 21 22  1  0  0  0
 22 23  1  0  0  0
 22 32  1  0  0  0
 23 24  1  0  0  0
 23 28  1  0  0  0
 24 25  1  0  0  0
 24 27  1  0  0  0
 25 26  1  0  0  0
 32 33  1  0  0  0
 10 11  2  0  0  0
 26 29  1  0  0  0
 27 30  1  0  0  0
 28 31  1  0  0  0
 33 34  1  0  0  0
M  END
> <minimizedAffinity>
-9.23832

$$$$
2072


 27 30  0  0  0  0  0  0  0  0999 V2000
   19.4191   63.5972  -10.4649 N   0  0  0  0  0  0  0  0  0  0  0  0
   20.3915   63.0249  -11.3226 C   0  0  0  0  0  0  0  0  0  0  0  0
   21.8361   63.3010  -11.0167 C   0  0  0  0  0  0  0  0  0  0  0  0
   21.9997   63.4298   -9.6062 N   0  0  0  0  0  0  0  0  0  0  0  0
   21.2694   64.6378   -9.2236 C   0  0  0  0  0  0  0  0  0  0  0  0
   19.8179   64.3686   -9.3637 C   0  0  0  0  0  0  0  0  0  0  0  0
   18.3193   62.3724   -9.9566 S   0  0  0  0  0  0  0  0  0  0  0  0
   18.8601   61.0310  -10.3983 O   0  0  0  0  0  0  0  0  0  0  0  0
   18.1721   62.3394   -8.4816 O   0  0  0  0  0  0  0  0  0  0  0  0
   16.7196   62.6590  -10.6579 C   0  0  0  0  0  0  0  0  0  0  0  0
   16.1010   64.0635  -11.3998 S   0  0  0  0  0  0  0  0  0  0  0  0
   14.5383   63.5079  -11.7831 C   0  0  0  0  0  0  0  0  0  0  0  0
   14.5426   62.2214  -11.3142 C   0  0  0  0  0  0  0  0  0  0  0  0
   15.6668   61.7840  -10.7345 C   0  0  0  0  0  0  0  0  0  0  0  0
   13.0930   64.4329  -12.6610 Br  0  0  0  0  0  0  0  0  0  0  0  0
   23.3477   63.4766   -9.1530 C   0  0  0  0  0  0  0  0  0  0  0  0
   23.5591   64.5476   -8.1382 C   0  0  0  0  0  0  0  0  0  0  0  0
   23.8864   64.0147   -6.8326 N   0  0  0  0  0  0  0  0  0  0  0  0
   24.8757   63.1763   -6.5269 N   0  0  0  0  0  0  0  0  0  0  0  0
   24.8771   62.9144   -5.2124 C   0  0  0  0  0  0  0  0  0  0  0  0
   23.8642   63.6022   -4.6715 N   0  0  0  0  0  0  0  0  0  0  0  0
   23.6039   63.5420   -3.3433 C   0  0  0  0  0  0  0  0  0  0  0  0
   24.3594   62.7778   -2.4830 C   0  0  0  0  0  0  0  0  0  0  0  0
   25.4112   62.0574   -3.0141 C   0  0  0  0  0  0  0  0  0  0  0  0
   25.6511   62.1391   -4.3685 C   0  0  0  0  0  0  0  0  0  0  0  0
   23.2560   64.2816   -5.6876 C   0  0  0  0  0  0  0  0  0  0  0  0
   22.2620   65.0174   -5.4796 O   0  0  0  0  0  0  0  0  0  0  0  0
  7  8  2  0  0  0
  7  9  2  0  0  0
  7  1  1  0  0  0
  7 10  1  0  0  0
  1  2  1  0  0  0
  1  6  1  0  0  0
  2  3  1  0  0  0
  3  4  1  0  0  0
  4  5  1  0  0  0
  4 16  1  0  0  0
  5  6  1  0  0  0
 16 17  1  0  0  0
 17 18  1  0  0  0
 18 19  1  0  0  0
 18 26  1  0  0  0
 19 20  2  0  0  0
 20 21  1  0  0  0
 20 25  1  0  0  0
 21 22  1  0  0  0
 21 26  1  0  0  0
 22 23  2  0  0  0
 23 24  1  0  0  0
 24 25  2  0  0  0
 26 27  2  0  0  0
 10 11  1  0  0  0
 10 14  2  0  0  0
 11 12  1  0  0  0
 12 13  2  0  0  0
 12 15  1  0  0  0
 13 14  1  0  0  0
M  END
> <minimizedAffinity>
-9.03216

$$$$
2079


 31 34  0  0  0  0  0  0  0  0999 V2000
   23.8854   63.6099  -11.8242 C   0  0  0  0  0  0  0  0  0  0  0  0
   24.2439   63.7829  -10.5072 C   0  0  0  0  0  0  0  0  0  0  0  0
   23.2352   63.8249   -9.5344 C   0  0  0  0  0  0  0  0  0  0  0  0
   21.9056   63.7022   -9.8729 C   0  0  0  0  0  0  0  0  0  0  0  0
   20.8348   63.7287   -8.9787 C   0  0  0  0  0  0  0  0  0  0  0  0
   21.2348   63.8886   -7.6281 C   0  0  0  0  0  0  0  0  0  0  0  0
   22.5671   64.0111   -7.2449 C   0  0  0  0  0  0  0  0  0  0  0  0
   23.5606   63.9745   -8.2103 C   0  0  0  0  0  0  0  0  0  0  0  0
   20.3348   63.9362   -6.5816 O   0  0  0  0  0  0  0  0  0  0  0  0
   21.6203   63.5446  -11.1020 O   0  0  0  0  0  0  0  0  0  0  0  0
   22.5076   63.4889  -12.0990 C   0  0  0  0  0  0  0  0  0  0  0  0
   22.1571   63.3400  -13.2755 O   0  0  0  0  0  0  0  0  0  0  0  0
   27.8794   63.1970  -16.3841 Cl  0  0  0  0  0  0  0  0  0  0  0  0
   26.6975   63.2353  -15.0529 C   0  0  0  0  0  0  0  0  0  0  0  0
   25.3354   63.4152  -15.2630 C   0  0  0  0  0  0  0  0  0  0  0  0
   24.4376   63.5148  -14.2152 C   0  0  0  0  0  0  0  0  0  0  0  0
   24.8965   63.4374  -12.8864 C   0  0  0  0  0  0  0  0  0  0  0  0
   26.2219   63.2553  -12.7134 C   0  0  0  0  0  0  0  0  0  0  0  0
   27.1391   63.1549  -13.7440 C   0  0  0  0  0  0  0  0  0  0  0  0
   19.4649   63.4492   -9.2311 C   0  0  0  0  0  0  0  0  0  0  0  0
   18.6860   64.0426  -10.2876 N   0  0  0  0  0  0  0  0  0  0  0  0
   18.7903   63.2602  -11.5510 C   0  0  0  0  0  0  0  0  0  0  0  0
   18.7655   61.8043  -11.2479 C   0  0  0  0  0  0  0  0  0  0  0  0
   17.5699   61.3305  -10.5892 N   0  0  0  0  0  0  0  0  0  0  0  0
   16.9444   62.3253   -9.7858 C   0  0  0  0  0  0  0  0  0  0  0  0
   17.2519   63.7347   -9.9812 C   0  0  0  0  0  0  0  0  0  0  0  0
   18.7093   65.0240  -10.4432 H   0  0  0  0  0  0  0  0  0  0  0  0
   17.8727   60.1391   -9.7815 C   0  0  0  0  0  0  0  0  0  0  0  0
   16.7503   59.1276   -9.8161 C   0  0  0  0  0  0  0  0  0  0  0  0
   17.0158   58.0064   -9.0442 O   0  0  0  0  0  0  0  0  0  0  0  0
   16.6635   58.1765   -8.1135 H   0  0  0  0  0  0  0  0  0  0  0  0
 13 14  1  0  0  0
 14 15  2  0  0  0
 14 19  1  0  0  0
 15 16  1  0  0  0
 16 17  2  0  0  0
 17 18  1  0  0  0
 17  1  1  0  0  0
 18 19  2  0  0  0
  1  2  2  0  0  0
  1 11  1  0  0  0
  2  3  1  0  0  0
  3  4  2  0  0  0
  3  8  1  0  0  0
  4  5  1  0  0  0
  4 10  1  0  0  0
  5  6  2  0  0  0
  5 20  1  0  0  0
  6  7  1  0  0  0
  6  9  1  0  0  0
  7  8  2  0  0  0
 20 21  1  0  0  0
 21 22  1  0  0  0
 21 26  1  0  0  0
 22 23  1  0  0  0
 23 24  1  0  0  0
 24 25  1  0  0  0
 24 28  1  0  0  0
 25 26  1  0  0  0
 28 29  1  0  0  0
 29 30  1  0  0  0
 10 11  1  0  0  0
 11 12  2  0  0  0
 21 27  1  0  0  0
 30 31  1  0  0  0
M  CHG 1   9  -1
M  CHG 1  21   1
M  END
> <minimizedAffinity>
-8.11547

$$$$
2087


 32 35  0  0  0  0  0  0  0  0999 V2000
   21.9786   64.0214   -8.6678 N   0  0  0  0  0  0  0  0  0  0  0  0
   22.4473   65.0361   -7.8705 C   0  0  0  0  0  0  0  0  0  0  0  0
   21.4811   66.0157   -7.7545 C   0  0  0  0  0  0  0  0  0  0  0  0
   20.4488   65.5799   -8.4829 N   0  0  0  0  0  0  0  0  0  0  0  0
   20.7470   64.3655   -9.0449 C   0  0  0  0  0  0  0  0  0  0  0  0
   21.7026   67.1264   -7.0253 N   0  0  0  0  0  0  0  0  0  0  0  0
   22.8887   67.2581   -6.4145 C   0  0  0  0  0  0  0  0  0  0  0  0
   23.0840   68.2985   -5.7372 O   0  0  0  0  0  0  0  0  0  0  0  0
   23.8498   66.3327   -6.5051 N   0  0  0  0  0  0  0  0  0  0  0  0
   23.6610   65.1926   -7.2350 C   0  0  0  0  0  0  0  0  0  0  0  0
   24.5837   64.3453   -7.3023 O   0  0  0  0  0  0  0  0  0  0  0  0
   20.6573   68.1284   -6.9248 C   0  0  0  0  0  0  0  0  0  0  0  0
   24.7758   66.4538   -6.0211 H   0  0  0  0  0  0  0  0  0  0  0  0
   19.8693   63.7310   -9.9383 N   0  0  0  0  0  0  0  0  0  0  0  0
   19.6733   63.9400  -11.3283 C   0  0  0  0  0  0  0  0  0  0  0  0
   18.2498   63.5868  -11.7728 C   0  0  0  0  0  0  0  0  0  0  0  0
   17.2675   63.6433  -10.7701 N   0  0  0  0  0  0  0  0  0  0  0  0
   17.5596   63.0233   -9.5381 C   0  0  0  0  0  0  0  0  0  0  0  0
   19.0153   62.6525   -9.3693 C   0  0  0  0  0  0  0  0  0  0  0  0
   16.2584   64.6185  -10.8220 C   0  0  0  0  0  0  0  0  0  0  0  0
   15.0709   64.3236  -11.6380 C   0  0  0  0  0  0  0  0  0  0  0  0
   14.9289   64.7556  -12.8129 O   0  0  0  0  0  0  0  0  0  0  0  0
   14.0589   63.5458  -11.1178 O   0  0  0  0  0  0  0  0  0  0  0  0
   14.1127   62.1457  -11.1030 C   0  0  0  0  0  0  0  0  0  0  0  0
   22.7242   62.8266   -8.9704 C   0  0  0  0  0  0  0  0  0  0  0  0
   25.4027   63.4064  -14.5047 Br  0  0  0  0  0  0  0  0  0  0  0  0
   24.5698   63.2158  -12.7996 C   0  0  0  0  0  0  0  0  0  0  0  0
   23.2295   63.4826  -12.6295 C   0  0  0  0  0  0  0  0  0  0  0  0
   22.6369   63.3389  -11.3742 C   0  0  0  0  0  0  0  0  0  0  0  0
   23.4045   62.9315  -10.3232 C   0  0  0  0  0  0  0  0  0  0  0  0
   24.7343   62.6631  -10.4748 C   0  0  0  0  0  0  0  0  0  0  0  0
   25.3182   62.8036  -11.7097 C   0  0  0  0  0  0  0  0  0  0  0  0
 26 27  1  0  0  0
 27 28  2  0  0  0
 27 32  1  0  0  0
 28 29  1  0  0  0
 29 30  2  0  0  0
 30 31  1  0  0  0
 30 25  1  0  0  0
 31 32  2  0  0  0
 25  1  1  0  0  0
  1  2  1  0  0  0
  1  5  1  0  0  0
  2  3  2  0  0  0
  2 10  1  0  0  0
  3  4  1  0  0  0
  3  6  1  0  0  0
  4  5  2  0  0  0
  5 14  1  0  0  0
 14 15  1  0  0  0
 14 19  1  0  0  0
 15 16  1  0  0  0
 16 17  1  0  0  0
 17 18  1  0  0  0
 17 20  1  0  0  0
 18 19  1  0  0  0
 20 21  1  0  0  0
 21 22  2  0  0  0
 21 23  1  0  0  0
 23 24  1  0  0  0
  6  7  1  0  0  0
  6 12  1  0  0  0
  7  8  2  0  0  0
  7  9  1  0  0  0
  9 10  1  0  0  0
 10 11  2  0  0  0
  9 13  1  0  0  0
M  END
> <minimizedAffinity>
-6.00734

$$$$
2091


 28 31  0  0  0  0  0  0  0  0999 V2000
   21.5685   63.6923   -9.5735 N   0  0  0  0  0  0  0  0  0  0  0  0
   21.9719   63.5288  -10.8419 C   0  0  0  0  0  0  0  0  0  0  0  0
   23.3367   63.3459  -10.8565 C   0  0  0  0  0  0  0  0  0  0  0  0
   23.7232   63.4039   -9.5915 N   0  0  0  0  0  0  0  0  0  0  0  0
   22.6710   63.6126   -8.7877 C   0  0  0  0  0  0  0  0  0  0  0  0
   24.0551   63.1422  -11.9892 N   0  0  0  0  0  0  0  0  0  0  0  0
   23.3720   63.1196  -13.1449 C   0  0  0  0  0  0  0  0  0  0  0  0
   24.0531   62.9314  -14.1843 O   0  0  0  0  0  0  0  0  0  0  0  0
   22.0392   63.2882  -13.1962 N   0  0  0  0  0  0  0  0  0  0  0  0
   21.3172   63.4918  -12.0786 C   0  0  0  0  0  0  0  0  0  0  0  0
   20.0886   63.6479  -12.0909 O   0  0  0  0  0  0  0  0  0  0  0  0
   25.4893   62.9631  -11.9064 C   0  0  0  0  0  0  0  0  0  0  0  0
   21.5169   63.2663  -14.0983 H   0  0  0  0  0  0  0  0  0  0  0  0
   22.6901   63.7351   -7.3593 N   0  0  0  0  0  0  0  0  0  0  0  0
   21.4283   63.9443   -6.6844 C   0  0  0  0  0  0  0  0  0  0  0  0
   21.4689   65.3221   -6.0398 C   0  0  0  0  0  0  0  0  0  0  0  0
   22.7951   65.7812   -5.7939 N   0  0  0  0  0  0  0  0  0  0  0  0
   23.7649   64.7756   -5.5118 C   0  0  0  0  0  0  0  0  0  0  0  0
   23.8734   63.6813   -6.5425 C   0  0  0  0  0  0  0  0  0  0  0  0
   23.2361   66.9214   -6.5034 C   0  0  0  0  0  0  0  0  0  0  0  0
   20.2182   63.9216   -9.1204 C   0  0  0  0  0  0  0  0  0  0  0  0
   15.5600   60.2341  -10.7939 Br  0  0  0  0  0  0  0  0  0  0  0  0
   17.0403   61.3226  -10.2873 C   0  0  0  0  0  0  0  0  0  0  0  0
   18.2506   60.7723   -9.8775 C   0  0  0  0  0  0  0  0  0  0  0  0
   19.2920   61.6223   -9.5095 C   0  0  0  0  0  0  0  0  0  0  0  0
   19.1954   62.9790   -9.5268 C   0  0  0  0  0  0  0  0  0  0  0  0
   17.9525   63.4896   -9.9488 C   0  0  0  0  0  0  0  0  0  0  0  0
   16.8970   62.6900  -10.3200 C   0  0  0  0  0  0  0  0  0  0  0  0
 22 23  1  0  0  0
 23 24  2  0  0  0
 23 28  1  0  0  0
 24 25  1  0  0  0
 25 26  2  0  0  0
 26 27  1  0  0  0
 26 21  1  0  0  0
 27 28  2  0  0  0
 21  1  1  0  0  0
  1  2  1  0  0  0
  1  5  1  0  0  0
  2  3  2  0  0  0
  2 10  1  0  0  0
  3  4  1  0  0  0
  3  6  1  0  0  0
  4  5  2  0  0  0
  5 14  1  0  0  0
 14 15  1  0  0  0
 14 19  1  0  0  0
 15 16  1  0  0  0
 16 17  1  0  0  0
 17 18  1  0  0  0
 17 20  1  0  0  0
 18 19  1  0  0  0
  6  7  1  0  0  0
  6 12  1  0  0  0
  7  8  2  0  0  0
  7  9  1  0  0  0
  9 10  1  0  0  0
 10 11  2  0  0  0
  9 13  1  0  0  0
M  END
> <minimizedAffinity>
-7.06056

$$$$
2103


 29 32  0  0  0  0  0  0  0  0999 V2000
   19.7744   63.1521   -9.3950 C   0  0  0  0  0  0  0  0  0  0  0  0
   20.1326   63.0335  -10.7849 C   0  0  0  0  0  0  0  0  0  0  0  0
   21.3768   63.3550  -11.1874 C   0  0  0  0  0  0  0  0  0  0  0  0
   22.3432   63.8078  -10.2708 C   0  0  0  0  0  0  0  0  0  0  0  0
   22.0181   63.9289   -8.9416 C   0  0  0  0  0  0  0  0  0  0  0  0
   20.7231   63.5993   -8.5108 C   0  0  0  0  0  0  0  0  0  0  0  0
   20.3265   63.8143   -7.0953 C   0  0  0  0  0  0  0  0  0  0  0  0
   21.2514   64.7615   -6.3383 C   0  0  0  0  0  0  0  0  0  0  0  0
   22.6420   64.4486   -6.5695 N   0  0  0  0  0  0  0  0  0  0  0  0
   23.0026   64.3628   -7.9552 C   0  0  0  0  0  0  0  0  0  0  0  0
   24.1763   64.6740   -8.2449 O   0  0  0  0  0  0  0  0  0  0  0  0
   23.5879   64.2391   -5.4945 C   0  0  0  0  0  0  0  0  0  0  0  0
   23.5633   64.1075  -10.7514 O   0  0  0  0  0  0  0  0  0  0  0  0
   21.4307   63.1428  -12.5736 O   0  0  0  0  0  0  0  0  0  0  0  0
   20.2803   62.4424  -12.9971 C   0  0  0  0  0  0  0  0  0  0  0  0
   19.4024   62.6194  -11.9029 O   0  0  0  0  0  0  0  0  0  0  0  0
   24.3600   64.4285  -10.3190 H   0  0  0  0  0  0  0  0  0  0  0  0
   18.4034   62.7478   -9.1678 C   0  0  0  0  0  0  0  0  0  0  0  0
   16.3725   63.5470  -10.2408 C   0  0  0  0  0  0  0  0  0  0  0  0
   16.4010   64.5024   -9.4470 O   0  0  0  0  0  0  0  0  0  0  0  0
   17.4421   62.5312  -10.1579 N   0  0  0  0  0  0  0  0  0  0  0  0
   17.3330   61.8137  -10.8894 H   0  0  0  0  0  0  0  0  0  0  0  0
   13.3077   65.6793  -14.0477 Br  0  0  0  0  0  0  0  0  0  0  0  0
   13.8916   64.2438  -12.9317 C   0  0  0  0  0  0  0  0  0  0  0  0
   13.3192   63.0153  -13.0299 C   0  0  0  0  0  0  0  0  0  0  0  0
   13.7163   62.0046  -12.2580 N   0  0  0  0  0  0  0  0  0  0  0  0
   14.6984   62.1962  -11.3655 C   0  0  0  0  0  0  0  0  0  0  0  0
   15.3199   63.4317  -11.2221 C   0  0  0  0  0  0  0  0  0  0  0  0
   14.9158   64.4806  -12.0159 C   0  0  0  0  0  0  0  0  0  0  0  0
 23 24  1  0  0  0
 24 25  2  0  0  0
 24 29  1  0  0  0
 25 26  1  0  0  0
 26 27  2  0  0  0
 27 28  1  0  0  0
 28 29  2  0  0  0
 28 19  1  0  0  0
 19 20  2  0  0  0
 19 21  1  0  0  0
 21 18  1  0  0  0
 18  1  1  0  0  0
  1  2  2  0  0  0
  1  6  1  0  0  0
  2  3  1  0  0  0
  2 16  1  0  0  0
  3  4  2  0  0  0
  3 14  1  0  0  0
  4  5  1  0  0  0
  4 13  1  0  0  0
  5  6  2  0  0  0
  5 10  1  0  0  0
  6  7  1  0  0  0
  7  8  1  0  0  0
  8  9  1  0  0  0
  9 10  1  0  0  0
  9 12  1  0  0  0
 10 11  2  0  0  0
 14 15  1  0  0  0
 15 16  1  0  0  0
 21 22  1  0  0  0
 13 17  1  0  0  0
M  END
> <minimizedAffinity>
-9.18152

$$$$
2105


 29 32  0  0  0  0  0  0  0  0999 V2000
   12.9761   69.3311  -16.1077 Cl  0  0  0  0  0  0  0  0  0  0  0  0
   12.1149   68.0923  -15.2185 C   0  0  0  0  0  0  0  0  0  0  0  0
   12.4067   66.7427  -15.4177 C   0  0  0  0  0  0  0  0  0  0  0  0
   11.7591   65.7485  -14.7462 C   0  0  0  0  0  0  0  0  0  0  0  0
   10.7837   66.1452  -13.8416 C   0  0  0  0  0  0  0  0  0  0  0  0
   10.4820   67.4729  -13.6302 C   0  0  0  0  0  0  0  0  0  0  0  0
   11.1469   68.4625  -14.3187 C   0  0  0  0  0  0  0  0  0  0  0  0
   12.2972   64.4437  -15.1831 C   0  0  0  0  0  0  0  0  0  0  0  0
   11.2156   63.6295  -15.8471 C   0  0  0  0  0  0  0  0  0  0  0  0
   10.8779   62.4310  -15.4605 C   0  0  0  0  0  0  0  0  0  0  0  0
   11.5171   61.7891  -14.3594 N   0  0  0  0  0  0  0  0  0  0  0  0
   12.5455   62.4843  -13.6775 C   0  0  0  0  0  0  0  0  0  0  0  0
   12.8946   63.6919  -14.0587 C   0  0  0  0  0  0  0  0  0  0  0  0
   13.2338   61.9056  -12.5645 N   0  0  0  0  0  0  0  0  0  0  0  0
    9.7924   61.9360  -16.3313 C   0  0  0  0  0  0  0  0  0  0  0  0
    9.5463   62.9430  -17.2329 O   0  0  0  0  0  0  0  0  0  0  0  0
   10.3868   64.0036  -16.9861 C   0  0  0  0  0  0  0  0  0  0  0  0
   10.4540   65.1173  -17.6144 O   0  0  0  0  0  0  0  0  0  0  0  0
    8.6033   61.5648  -15.4734 C   0  0  0  0  0  0  0  0  0  0  0  0
   10.2060   60.6938  -17.0993 C   0  0  0  0  0  0  0  0  0  0  0  0
   13.3319   64.7893  -16.1857 C   0  0  0  0  0  0  0  0  0  0  0  0
   14.0680   63.9660  -16.8388 O   0  0  0  0  0  0  0  0  0  0  0  0
   13.3688   66.1937  -16.3021 N   0  0  0  0  0  0  0  0  0  0  0  0
   11.2519   60.8317  -14.0448 H   0  0  0  0  0  0  0  0  0  0  0  0
   12.7123   61.5021  -11.7752 H   0  0  0  0  0  0  0  0  0  0  0  0
   14.2608   61.9031  -12.5727 H   0  0  0  0  0  0  0  0  0  0  0  0
   14.0270   66.7162  -16.9567 H   0  0  0  0  0  0  0  0  0  0  0  0
   13.9568   64.3710  -13.3299 C   0  0  0  0  0  0  0  0  0  0  0  0
   14.8050   64.8957  -12.7435 N   0  0  0  0  0  0  0  0  0  0  0  0
  1  2  1  0  0  0
  2  3  2  0  0  0
  2  7  1  0  0  0
  3  4  1  0  0  0
  3 23  1  0  0  0
  4  5  2  0  0  0
  4  8  1  0  0  0
  5  6  1  0  0  0
  6  7  2  0  0  0
  8  9  1  0  0  0
  8 13  1  0  0  0
  8 21  1  0  0  0
  9 10  2  0  0  0
  9 17  1  0  0  0
 10 11  1  0  0  0
 10 15  1  0  0  0
 11 12  1  0  0  0
 12 13  2  0  0  0
 12 14  1  0  0  0
 13 28  1  0  0  0
 28 29  3  0  0  0
 15 16  1  0  0  0
 15 19  1  0  0  0
 15 20  1  0  0  0
 16 17  1  0  0  0
 17 18  2  0  0  0
 21 22  2  0  0  0
 21 23  1  0  0  0
 11 24  1  0  0  0
 14 25  1  0  0  0
 14 26  1  0  0  0
 23 27  1  0  0  0
M  END
> <minimizedAffinity>
-4.92897

$$$$
2109


 21 24  0  0  0  0  0  0  0  0999 V2000
   22.6262   64.1684   -8.0241 N   0  0  0  0  0  0  0  0  0  0  0  0
   22.8915   63.6357   -9.3302 C   0  0  0  0  0  0  0  0  0  0  0  0
   23.7802   62.7978   -9.6230 O   0  0  0  0  0  0  0  0  0  0  0  0
   21.9535   64.2230  -10.3141 C   0  0  0  0  0  0  0  0  0  0  0  0
   21.3110   63.2584  -11.0822 O   0  0  0  0  0  0  0  0  0  0  0  0
   20.5197   62.5594  -10.2853 N   0  0  0  0  0  0  0  0  0  0  0  0
   20.1635   63.2936   -9.1524 C   0  0  0  0  0  0  0  0  0  0  0  0
   20.8148   64.6558   -9.3966 C   0  0  0  0  0  0  0  0  0  0  0  0
   21.5706   65.1115   -8.2054 C   0  0  0  0  0  0  0  0  0  0  0  0
   21.3750   66.1164   -7.4585 O   0  0  0  0  0  0  0  0  0  0  0  0
   18.7475   63.3969   -8.7737 C   0  0  0  0  0  0  0  0  0  0  0  0
   17.7556   62.6548   -9.5800 C   0  0  0  0  0  0  0  0  0  0  0  0
   18.3868   61.3684  -10.0652 C   0  0  0  0  0  0  0  0  0  0  0  0
   19.5560   61.7661  -10.9282 C   0  0  0  0  0  0  0  0  0  0  0  0
   25.2782   62.8263   -2.7996 Cl  0  0  0  0  0  0  0  0  0  0  0  0
   24.5054   63.2171   -4.3257 C   0  0  0  0  0  0  0  0  0  0  0  0
   25.0185   62.7434   -5.5153 C   0  0  0  0  0  0  0  0  0  0  0  0
   24.4019   63.0574   -6.7151 C   0  0  0  0  0  0  0  0  0  0  0  0
   23.2693   63.8392   -6.7917 C   0  0  0  0  0  0  0  0  0  0  0  0
   22.7608   64.3110   -5.5899 C   0  0  0  0  0  0  0  0  0  0  0  0
   23.3719   64.0004   -4.3899 C   0  0  0  0  0  0  0  0  0  0  0  0
 15 16  1  0  0  0
 16 17  2  0  0  0
 16 21  1  0  0  0
 17 18  1  0  0  0
 18 19  2  0  0  0
 19 20  1  0  0  0
 19  1  1  0  0  0
 20 21  2  0  0  0
  1  2  1  0  0  0
  1  9  1  0  0  0
  2  3  2  0  0  0
  2  4  1  0  0  0
  4  5  1  0  0  0
  4  8  1  0  0  0
  5  6  1  0  0  0
  6  7  1  0  0  0
  6 14  1  0  0  0
  7  8  1  0  0  0
  7 11  1  0  0  0
  8  9  1  0  0  0
  9 10  2  0  0  0
 11 12  1  0  0  0
 12 13  1  0  0  0
 13 14  1  0  0  0
M  END
> <minimizedAffinity>
-8.35806

$$$$
2116


 33 36  0  0  0  0  0  0  0  0999 V2000
   23.0416   63.6224   -8.3339 C   0  0  0  0  0  0  0  0  0  0  0  0
   22.6576   64.8565   -8.0492 N   0  0  0  0  0  0  0  0  0  0  0  0
   22.9210   65.4837   -6.8896 C   0  0  0  0  0  0  0  0  0  0  0  0
   23.6260   64.7875   -5.9713 N   0  0  0  0  0  0  0  0  0  0  0  0
   24.0492   63.5165   -6.2053 C   0  0  0  0  0  0  0  0  0  0  0  0
   23.7457   62.9493   -7.3993 N   0  0  0  0  0  0  0  0  0  0  0  0
   24.7702   62.7961   -5.2320 N   0  0  0  0  0  0  0  0  0  0  0  0
   26.0683   62.2414   -5.5184 C   0  0  0  0  0  0  0  0  0  0  0  0
   26.9868   62.7639   -4.4040 C   0  0  0  0  0  0  0  0  0  0  0  0
   26.4214   62.4666   -3.1807 O   0  0  0  0  0  0  0  0  0  0  0  0
   25.2800   63.2389   -2.9694 C   0  0  0  0  0  0  0  0  0  0  0  0
   24.2235   62.6211   -3.9104 C   0  0  0  0  0  0  0  0  0  0  0  0
   22.4785   66.8251   -6.6242 N   0  0  0  0  0  0  0  0  0  0  0  0
   23.3957   67.8444   -6.2004 C   0  0  0  0  0  0  0  0  0  0  0  0
   22.8910   69.2346   -6.2006 C   0  0  0  0  0  0  0  0  0  0  0  0
   21.5088   69.3472   -6.2559 O   0  0  0  0  0  0  0  0  0  0  0  0
   20.9592   68.5560   -7.2554 C   0  0  0  0  0  0  0  0  0  0  0  0
   21.0872   67.1244   -6.7954 C   0  0  0  0  0  0  0  0  0  0  0  0
   22.6879   63.0289   -9.5770 N   0  0  0  0  0  0  0  0  0  0  0  0
   23.4262   62.6585  -10.1869 H   0  0  0  0  0  0  0  0  0  0  0  0
   20.3819   62.7272   -9.1599 C   0  0  0  0  0  0  0  0  0  0  0  0
   21.3614   62.9510   -9.9670 N   0  0  0  0  0  0  0  0  0  0  0  0
   15.7224   65.1311  -10.2997 Br  0  0  0  0  0  0  0  0  0  0  0  0
   16.8578   63.6106  -10.1831 C   0  0  0  0  0  0  0  0  0  0  0  0
   16.3469   62.3812  -10.5684 C   0  0  0  0  0  0  0  0  0  0  0  0
   17.1893   61.2904  -10.4694 C   0  0  0  0  0  0  0  0  0  0  0  0
   18.4733   61.4245  -10.0082 C   0  0  0  0  0  0  0  0  0  0  0  0
   19.0096   62.6509   -9.6172 C   0  0  0  0  0  0  0  0  0  0  0  0
   18.1555   63.7268   -9.7222 C   0  0  0  0  0  0  0  0  0  0  0  0
   19.3201   60.3156   -9.9091 O   0  0  0  0  0  0  0  0  0  0  0  0
   15.0434   62.2332  -11.0377 O   0  0  0  0  0  0  0  0  0  0  0  0
   18.9577   59.4080  -10.1855 H   0  0  0  0  0  0  0  0  0  0  0  0
   14.3922   62.9978  -11.1339 H   0  0  0  0  0  0  0  0  0  0  0  0
 23 24  1  0  0  0
 24 25  2  0  0  0
 24 29  1  0  0  0
 25 26  1  0  0  0
 25 31  1  0  0  0
 26 27  2  0  0  0
 27 28  1  0  0  0
 27 30  1  0  0  0
 28 29  2  0  0  0
 28 21  1  0  0  0
 21 22  2  0  0  0
 22 19  1  0  0  0
 19  1  1  0  0  0
  1  2  2  0  0  0
  1  6  1  0  0  0
  2  3  1  0  0  0
  3  4  2  0  0  0
  3 13  1  0  0  0
  4  5  1  0  0  0
  5  6  2  0  0  0
  5  7  1  0  0  0
  7  8  1  0  0  0
  7 12  1  0  0  0
  8  9  1  0  0  0
  9 10  1  0  0  0
 10 11  1  0  0  0
 11 12  1  0  0  0
 13 14  1  0  0  0
 13 18  1  0  0  0
 14 15  1  0  0  0
 15 16  1  0  0  0
 16 17  1  0  0  0
 17 18  1  0  0  0
 19 20  1  0  0  0
 30 32  1  0  0  0
 31 33  1  0  0  0
M  END
> <minimizedAffinity>
-10.39102

$$$$
2121


 31 34  0  0  0  0  0  0  0  0999 V2000
   12.8552   63.7696  -12.5512 C   0  0  0  0  0  0  0  0  0  0  0  0
   12.4405   64.9631  -12.1057 O   0  0  0  0  0  0  0  0  0  0  0  0
   12.0250   63.2295  -13.5101 N   0  0  0  0  0  0  0  0  0  0  0  0
   10.8963   64.1476  -13.8314 C   0  0  0  0  0  0  0  0  0  0  0  0
   11.3137   65.0644  -14.9649 C   0  0  0  0  0  0  0  0  0  0  0  0
   12.4284   64.4120  -15.6894 C   0  0  0  0  0  0  0  0  0  0  0  0
   12.0164   63.0831  -16.2342 C   0  0  0  0  0  0  0  0  0  0  0  0
   12.8696   62.0383  -15.4938 C   0  0  0  0  0  0  0  0  0  0  0  0
   12.2120   61.9509  -14.1038 C   0  0  0  0  0  0  0  0  0  0  0  0
   12.1640   62.9660  -17.6148 O   0  0  0  0  0  0  0  0  0  0  0  0
   11.9899   63.8914  -17.9846 H   0  0  0  0  0  0  0  0  0  0  0  0
   19.6001   63.3684   -9.0728 Cl  0  0  0  0  0  0  0  0  0  0  0  0
   18.0768   62.8875   -9.8250 C   0  0  0  0  0  0  0  0  0  0  0  0
   17.2691   63.8570  -10.3258 C   0  0  0  0  0  0  0  0  0  0  0  0
   16.0679   63.4451  -10.9135 C   0  0  0  0  0  0  0  0  0  0  0  0
   15.7081   62.1446  -10.9902 C   0  0  0  0  0  0  0  0  0  0  0  0
   14.4900   62.1003  -11.6108 N   0  0  0  0  0  0  0  0  0  0  0  0
   14.0721   63.3283  -11.9263 C   0  0  0  0  0  0  0  0  0  0  0  0
   15.0666   64.2018  -11.4894 C   0  0  0  0  0  0  0  0  0  0  0  0
   16.5337   61.1792  -10.4806 C   0  0  0  0  0  0  0  0  0  0  0  0
   17.7318   61.5530   -9.8910 C   0  0  0  0  0  0  0  0  0  0  0  0
   14.0276   61.2002  -11.7913 H   0  0  0  0  0  0  0  0  0  0  0  0
   13.1169   65.1670  -16.6877 N   0  0  0  0  0  0  0  0  0  0  0  0
   14.1293   66.0608  -16.1847 C   0  0  0  0  0  0  0  0  0  0  0  0
   13.5527   67.1295  -15.3360 C   0  0  0  0  0  0  0  0  0  0  0  0
   12.5370   67.8066  -16.1500 N   0  0  0  0  0  0  0  0  0  0  0  0
   12.3851   67.3188  -17.4961 C   0  0  0  0  0  0  0  0  0  0  0  0
   12.2421   65.8307  -17.6158 C   0  0  0  0  0  0  0  0  0  0  0  0
   11.7873   68.8904  -15.5997 C   0  0  0  0  0  0  0  0  0  0  0  0
   10.9230   69.4461  -16.2903 O   0  0  0  0  0  0  0  0  0  0  0  0
   12.0794   69.3180  -14.1951 C   0  0  0  0  0  0  0  0  0  0  0  0
 12 13  1  0  0  0
 13 14  2  0  0  0
 13 21  1  0  0  0
 14 15  1  0  0  0
 15 16  2  0  0  0
 15 19  1  0  0  0
 16 17  1  0  0  0
 16 20  1  0  0  0
 17 18  1  0  0  0
 18 19  2  0  0  0
 18  1  1  0  0  0
  1  2  2  0  0  0
  1  3  1  0  0  0
  3  4  1  0  0  0
  3  9  1  0  0  0
  4  5  1  0  0  0
  5  6  1  0  0  0
  6  7  1  0  0  0
  6 23  1  0  0  0
  7  8  1  0  0  0
  7 10  1  0  0  0
  8  9  1  0  0  0
 23 24  1  0  0  0
 23 28  1  0  0  0
 24 25  1  0  0  0
 25 26  1  0  0  0
 26 27  1  0  0  0
 26 29  1  0  0  0
 27 28  1  0  0  0
 29 30  2  0  0  0
 29 31  1  0  0  0
 20 21  2  0  0  0
 17 22  1  0  0  0
 10 11  1  0  0  0
M  END
> <minimizedAffinity>
-5.57651

$$$$
2122


 29 32  0  0  0  0  0  0  0  0999 V2000
   22.2424   65.2379   -6.9722 C   0  0  0  0  0  0  0  0  0  0  0  0
   23.5178   65.5099   -6.6463 N   0  0  0  0  0  0  0  0  0  0  0  0
   23.6637   66.7800   -6.3959 O   0  0  0  0  0  0  0  0  0  0  0  0
   22.4845   67.3453   -6.5584 C   0  0  0  0  0  0  0  0  0  0  0  0
   21.5982   66.4109   -6.9136 N   0  0  0  0  0  0  0  0  0  0  0  0
   22.2869   68.8184   -6.3453 C   0  0  0  0  0  0  0  0  0  0  0  0
   21.0493   69.0834   -6.1570 O   0  0  0  0  0  0  0  0  0  0  0  0
   23.3387   69.6572   -6.3662 N   0  0  0  0  0  0  0  0  0  0  0  0
   22.5022   70.6997   -6.0573 H   0  0  0  0  0  0  0  0  0  0  0  0
   24.4079   70.5325   -6.3838 C   0  0  0  0  0  0  0  0  0  0  0  0
   24.5005   71.4072   -5.1279 C   0  0  0  0  0  0  0  0  0  0  0  0
   24.8018   70.7122   -3.9397 N   0  0  0  0  0  0  0  0  0  0  0  0
   24.1706   71.3029   -2.8252 C   0  0  0  0  0  0  0  0  0  0  0  0
   24.8882   71.0564   -1.5409 C   0  0  0  0  0  0  0  0  0  0  0  0
   25.3269   69.7576   -1.5164 O   0  0  0  0  0  0  0  0  0  0  0  0
   26.3074   69.4777   -2.4491 C   0  0  0  0  0  0  0  0  0  0  0  0
   26.0672   70.1219   -3.7823 C   0  0  0  0  0  0  0  0  0  0  0  0
   21.7033   63.8870   -7.2894 C   0  0  0  0  0  0  0  0  0  0  0  0
   16.6186   63.7641  -10.0879 Cl  0  0  0  0  0  0  0  0  0  0  0  0
   18.3469   63.6373  -10.3756 C   0  0  0  0  0  0  0  0  0  0  0  0
   19.2117   63.7394   -9.2900 C   0  0  0  0  0  0  0  0  0  0  0  0
   20.5763   63.6376   -9.5222 C   0  0  0  0  0  0  0  0  0  0  0  0
   21.0113   63.4372  -10.8345 C   0  0  0  0  0  0  0  0  0  0  0  0
   20.1498   63.3398  -11.8883 C   0  0  0  0  0  0  0  0  0  0  0  0
   18.8111   63.4396  -11.6636 C   0  0  0  0  0  0  0  0  0  0  0  0
   22.3043   63.3855  -10.7376 O   0  0  0  0  0  0  0  0  0  0  0  0
   22.7090   63.5348   -9.5021 C   0  0  0  0  0  0  0  0  0  0  0  0
   23.9208   63.5218   -9.1565 O   0  0  0  0  0  0  0  0  0  0  0  0
   21.6349   63.6956   -8.7093 N   0  0  0  0  0  0  0  0  0  0  0  0
 19 20  1  0  0  0
 20 21  2  0  0  0
 20 25  1  0  0  0
 21 22  1  0  0  0
 22 23  2  0  0  0
 22 29  1  0  0  0
 23 24  1  0  0  0
 23 26  1  0  0  0
 24 25  2  0  0  0
 26 27  1  0  0  0
 27 28  2  0  0  0
 27 29  1  0  0  0
 29 18  1  0  0  0
 18  1  1  0  0  0
  1  2  2  0  0  0
  1  5  1  0  0  0
  2  3  1  0  0  0
  3  4  1  0  0  0
  4  5  2  0  0  0
  4  6  1  0  0  0
  6  7  2  0  0  0
  6  8  1  0  0  0
  8 10  1  0  0  0
 10 11  1  0  0  0
 11 12  1  0  0  0
 12 13  1  0  0  0
 12 17  1  0  0  0
 13 14  1  0  0  0
 14 15  1  0  0  0
 15 16  1  0  0  0
 16 17  1  0  0  0
  8  9  1  0  0  0
M  END
> <minimizedAffinity>
-9.00297

$$$$
2124


 25 29  0  0  0  0  0  0  0  0999 V2000
   20.1887   63.4264   -9.7500 N   0  0  0  0  0  0  0  0  0  0  0  0
   20.6940   64.0106   -8.5585 C   0  0  0  0  0  0  0  0  0  0  0  0
   20.2170   63.8389   -7.4056 O   0  0  0  0  0  0  0  0  0  0  0  0
   21.8860   64.8712   -8.8604 C   0  0  0  0  0  0  0  0  0  0  0  0
   23.0788   64.4320   -8.0789 C   0  0  0  0  0  0  0  0  0  0  0  0
   24.1085   64.2992   -9.0432 O   0  0  0  0  0  0  0  0  0  0  0  0
   23.3928   63.4426   -9.9186 C   0  0  0  0  0  0  0  0  0  0  0  0
   22.2564   64.3964  -10.2731 C   0  0  0  0  0  0  0  0  0  0  0  0
   21.0788   63.7348  -10.8152 C   0  0  0  0  0  0  0  0  0  0  0  0
   20.9025   63.4872  -12.0357 O   0  0  0  0  0  0  0  0  0  0  0  0
   22.9625   62.3883   -8.9700 C   0  0  0  0  0  0  0  0  0  0  0  0
   22.8808   62.9816   -7.7613 C   0  0  0  0  0  0  0  0  0  0  0  0
   24.1731   62.9684  -11.0726 C   0  0  0  0  0  0  0  0  0  0  0  0
   15.1591   60.2604  -10.6495 Cl  0  0  0  0  0  0  0  0  0  0  0  0
   16.6494   61.1683  -10.3753 C   0  0  0  0  0  0  0  0  0  0  0  0
   17.8163   60.5417  -10.0096 C   0  0  0  0  0  0  0  0  0  0  0  0
   18.9666   61.2836   -9.8070 C   0  0  0  0  0  0  0  0  0  0  0  0
   19.0056   62.6491   -9.9547 C   0  0  0  0  0  0  0  0  0  0  0  0
   17.8327   63.2818  -10.3236 C   0  0  0  0  0  0  0  0  0  0  0  0
   16.6739   62.5363  -10.5289 C   0  0  0  0  0  0  0  0  0  0  0  0
   23.4663   65.2564   -6.9276 C   0  0  0  0  0  0  0  0  0  0  0  0
   22.3200   65.5492   -6.1859 O   0  0  0  0  0  0  0  0  0  0  0  0
   22.1267   64.5383   -5.2784 C   0  0  0  0  0  0  0  0  0  0  0  0
   23.5226   64.0189   -5.0574 C   0  0  0  0  0  0  0  0  0  0  0  0
   24.2949   64.5187   -6.0817 O   0  0  0  0  0  0  0  0  0  0  0  0
 14 15  1  0  0  0
 15 16  2  0  0  0
 15 20  1  0  0  0
 16 17  1  0  0  0
 17 18  2  0  0  0
 18 19  1  0  0  0
 18  1  1  0  0  0
 19 20  2  0  0  0
  1  2  1  0  0  0
  1  9  1  0  0  0
  2  3  2  0  0  0
  2  4  1  0  0  0
  4  5  1  0  0  0
  4  8  1  0  0  0
  5  6  1  0  0  0
  5 12  1  0  0  0
  5 21  1  0  0  0
  6  7  1  0  0  0
  7  8  1  0  0  0
  7 11  1  0  0  0
  7 13  1  0  0  0
  8  9  1  0  0  0
  9 10  2  0  0  0
 11 12  2  0  0  0
 21 22  1  0  0  0
 21 25  1  0  0  0
 22 23  1  0  0  0
 23 24  1  0  0  0
 24 25  1  0  0  0
M  END
> <minimizedAffinity>
-7.26717

$$$$
2134


 36 39  0  0  0  0  0  0  0  0999 V2000
   20.7990   63.1764  -10.6214 C   0  0  0  0  0  0  0  0  0  0  0  0
   21.5546   63.0678  -11.6869 N   0  0  0  0  0  0  0  0  0  0  0  0
   22.8677   63.3750  -11.4358 N   0  0  0  0  0  0  0  0  0  0  0  0
   22.9290   63.7110  -10.0490 C   0  0  0  0  0  0  0  0  0  0  0  0
   23.9046   64.0753   -9.2708 N   0  0  0  0  0  0  0  0  0  0  0  0
   23.6992   64.3615   -7.8954 N   0  0  0  0  0  0  0  0  0  0  0  0
   22.4300   64.2676   -7.2965 C   0  0  0  0  0  0  0  0  0  0  0  0
   22.2212   64.5400   -6.0154 C   0  0  0  0  0  0  0  0  0  0  0  0
   21.3216   63.8580   -8.1519 C   0  0  0  0  0  0  0  0  0  0  0  0
   20.1984   63.7679   -7.6464 O   0  0  0  0  0  0  0  0  0  0  0  0
   21.6081   63.5861   -9.5247 N   0  0  0  0  0  0  0  0  0  0  0  0
   24.5508   64.6454   -7.3605 H   0  0  0  0  0  0  0  0  0  0  0  0
   23.9269   63.4006  -12.3880 C   0  0  0  0  0  0  0  0  0  0  0  0
   23.6826   63.5844  -13.7269 C   0  0  0  0  0  0  0  0  0  0  0  0
   24.6791   63.6589  -14.6906 C   0  0  0  0  0  0  0  0  0  0  0  0
   26.0038   63.5459  -14.3192 C   0  0  0  0  0  0  0  0  0  0  0  0
   26.2743   63.3574  -12.9802 C   0  0  0  0  0  0  0  0  0  0  0  0
   25.2522   63.2861  -12.0346 C   0  0  0  0  0  0  0  0  0  0  0  0
   27.1099   63.6580  -15.3184 C   0  0  0  0  0  0  0  0  0  0  0  0
   18.4923   63.9187  -10.1236 N   0  0  0  0  0  0  0  0  0  0  0  0
   19.3733   62.9151  -10.5922 C   0  0  0  0  0  0  0  0  0  0  0  0
   18.8974   61.7982  -10.9729 O   0  0  0  0  0  0  0  0  0  0  0  0
   18.8157   64.8500   -9.8229 H   0  0  0  0  0  0  0  0  0  0  0  0
   14.8458   63.4246  -11.0268 N   0  0  0  0  0  0  0  0  0  0  0  0
   16.2142   63.7250  -11.1426 C   0  0  0  0  0  0  0  0  0  0  0  0
   16.6395   64.0899  -12.2721 O   0  0  0  0  0  0  0  0  0  0  0  0
   17.1313   63.6386  -10.0773 N   0  0  0  0  0  0  0  0  0  0  0  0
   14.4598   63.1254  -10.0967 H   0  0  0  0  0  0  0  0  0  0  0  0
   16.7863   63.3382   -9.1082 H   0  0  0  0  0  0  0  0  0  0  0  0
   10.8751   63.7182  -15.4216 Cl  0  0  0  0  0  0  0  0  0  0  0  0
   12.0614   63.5760  -14.1182 C   0  0  0  0  0  0  0  0  0  0  0  0
   12.5019   62.3443  -13.7080 C   0  0  0  0  0  0  0  0  0  0  0  0
   13.4226   62.3176  -12.6839 C   0  0  0  0  0  0  0  0  0  0  0  0
   13.8934   63.4830  -12.0837 C   0  0  0  0  0  0  0  0  0  0  0  0
   13.4174   64.7059  -12.5343 C   0  0  0  0  0  0  0  0  0  0  0  0
   12.4965   64.7461  -13.5565 C   0  0  0  0  0  0  0  0  0  0  0  0
 30 31  1  0  0  0
 31 32  2  0  0  0
 31 36  1  0  0  0
 32 33  1  0  0  0
 33 34  2  0  0  0
 34 35  1  0  0  0
 34 24  1  0  0  0
 35 36  2  0  0  0
 24 25  1  0  0  0
 25 26  2  0  0  0
 25 27  1  0  0  0
 27 20  1  0  0  0
 20 21  1  0  0  0
 21 22  2  0  0  0
 21  1  1  0  0  0
  1  2  2  0  0  0
  1 11  1  0  0  0
  2  3  1  0  0  0
  3  4  1  0  0  0
  3 13  1  0  0  0
  4  5  2  0  0  0
  4 11  1  0  0  0
  5  6  1  0  0  0
  6  7  1  0  0  0
  7  8  2  0  0  0
  7  9  1  0  0  0
  9 10  2  0  0  0
  9 11  1  0  0  0
 13 14  2  0  0  0
 13 18  1  0  0  0
 14 15  1  0  0  0
 15 16  2  0  0  0
 16 17  1  0  0  0
 16 19  1  0  0  0
 17 18  2  0  0  0
 24 28  1  0  0  0
 27 29  1  0  0  0
 20 23  1  0  0  0
  6 12  1  0  0  0
M  END
> <minimizedAffinity>
-10.36617

$$$$
2136


 33 37  0  0  0  0  0  0  0  0999 V2000
   16.0266   64.5224  -10.5016 Cl  0  0  0  0  0  0  0  0  0  0  0  0
   17.2706   63.3056  -10.3058 C   0  0  0  0  0  0  0  0  0  0  0  0
   18.6019   63.6221  -10.1281 C   0  0  0  0  0  0  0  0  0  0  0  0
   19.5645   62.6300   -9.9762 C   0  0  0  0  0  0  0  0  0  0  0  0
   19.1232   61.3358  -10.0117 C   0  0  0  0  0  0  0  0  0  0  0  0
   17.8016   61.0011  -10.1871 C   0  0  0  0  0  0  0  0  0  0  0  0
   16.8615   61.9764  -10.3355 C   0  0  0  0  0  0  0  0  0  0  0  0
   20.8681   63.2831   -9.8083 C   0  0  0  0  0  0  0  0  0  0  0  0
   21.8252   62.8834  -10.8241 N   0  0  0  0  0  0  0  0  0  0  0  0
   23.0910   63.3371  -10.2426 C   0  0  0  0  0  0  0  0  0  0  0  0
   22.9855   63.1364   -8.7787 C   0  0  0  0  0  0  0  0  0  0  0  0
   21.5419   62.8270   -8.5413 C   0  0  0  0  0  0  0  0  0  0  0  0
   21.0962   63.5628   -7.3547 C   0  0  0  0  0  0  0  0  0  0  0  0
   20.0264   63.3220   -6.7413 O   0  0  0  0  0  0  0  0  0  0  0  0
   22.0906   64.5421   -7.0817 N   0  0  0  0  0  0  0  0  0  0  0  0
   23.1517   64.4321   -8.0208 C   0  0  0  0  0  0  0  0  0  0  0  0
   24.1009   65.2331   -8.2395 O   0  0  0  0  0  0  0  0  0  0  0  0
   20.6246   64.7330   -9.8743 C   0  0  0  0  0  0  0  0  0  0  0  0
   21.4396   65.6622   -9.7829 O   0  0  0  0  0  0  0  0  0  0  0  0
   19.2271   64.8955  -10.0687 N   0  0  0  0  0  0  0  0  0  0  0  0
   21.6413   63.3619  -11.7482 H   0  0  0  0  0  0  0  0  0  0  0  0
   18.7053   65.8086  -10.1589 H   0  0  0  0  0  0  0  0  0  0  0  0
   22.0185   65.5127   -5.9925 C   0  0  0  0  0  0  0  0  0  0  0  0
   22.2227   66.8985   -6.5873 C   0  0  0  0  0  0  0  0  0  0  0  0
   23.3523   67.5021   -6.0578 O   0  0  0  0  0  0  0  0  0  0  0  0
   23.3188   68.8566   -6.3259 C   0  0  0  0  0  0  0  0  0  0  0  0
   24.2533   62.5846  -10.8173 C   0  0  0  0  0  0  0  0  0  0  0  0
   24.6820   63.0421  -12.1492 C   0  0  0  0  0  0  0  0  0  0  0  0
   26.0508   63.1596  -12.3817 C   0  0  0  0  0  0  0  0  0  0  0  0
   26.4826   63.5630  -13.6187 C   0  0  0  0  0  0  0  0  0  0  0  0
   25.6232   63.8595  -14.6496 C   0  0  0  0  0  0  0  0  0  0  0  0
   24.2778   63.7310  -14.3804 C   0  0  0  0  0  0  0  0  0  0  0  0
   23.7895   63.3288  -13.1550 C   0  0  0  0  0  0  0  0  0  0  0  0
  1  2  1  0  0  0
  2  3  2  0  0  0
  2  7  1  0  0  0
  3  4  1  0  0  0
  3 20  1  0  0  0
  4  5  2  0  0  0
  4  8  1  0  0  0
  5  6  1  0  0  0
  6  7  2  0  0  0
  8  9  1  0  0  0
  8 12  1  0  0  0
  8 18  1  0  0  0
  9 10  1  0  0  0
 10 11  1  0  0  0
 10 27  1  0  0  0
 11 12  1  0  0  0
 11 16  1  0  0  0
 12 13  1  0  0  0
 13 14  2  0  0  0
 13 15  1  0  0  0
 15 16  1  0  0  0
 15 23  1  0  0  0
 16 17  2  0  0  0
 23 24  1  0  0  0
 24 25  1  0  0  0
 25 26  1  0  0  0
 27 28  1  0  0  0
 28 29  2  0  0  0
 28 33  1  0  0  0
 29 30  1  0  0  0
 30 31  2  0  0  0
 31 32  1  0  0  0
 32 33  2  0  0  0
 18 19  2  0  0  0
 18 20  1  0  0  0
  9 21  1  0  0  0
 20 22  1  0  0  0
M  END
> <minimizedAffinity>
-8.41586

$$$$
2139


 27 30  0  0  0  0  0  0  0  0999 V2000
   22.0027   64.1608   -8.7732 N   0  0  0  0  0  0  0  0  0  0  0  0
   21.6286   65.3007   -8.0353 C   0  0  0  0  0  0  0  0  0  0  0  0
   22.1476   65.3867   -6.6256 C   0  0  0  0  0  0  0  0  0  0  0  0
   23.3517   64.5162   -6.5798 N   0  0  0  0  0  0  0  0  0  0  0  0
   24.1496   64.5848   -7.7448 C   0  0  0  0  0  0  0  0  0  0  0  0
   23.4057   63.8657   -8.8493 C   0  0  0  0  0  0  0  0  0  0  0  0
   23.5511   63.7783   -5.3938 C   0  0  0  0  0  0  0  0  0  0  0  0
   22.5131   63.6358   -4.5155 N   0  0  0  0  0  0  0  0  0  0  0  0
   22.5786   62.9997   -3.3528 C   0  0  0  0  0  0  0  0  0  0  0  0
   23.7477   62.4441   -2.9920 N   0  0  0  0  0  0  0  0  0  0  0  0
   24.8105   62.5516   -3.8210 C   0  0  0  0  0  0  0  0  0  0  0  0
   26.0742   62.0969   -3.7338 N   0  0  0  0  0  0  0  0  0  0  0  0
   26.7468   62.4567   -4.8272 C   0  0  0  0  0  0  0  0  0  0  0  0
   25.9430   63.1512   -5.6519 N   0  0  0  0  0  0  0  0  0  0  0  0
   24.7473   63.2197   -5.0453 C   0  0  0  0  0  0  0  0  0  0  0  0
   21.4411   62.8864   -2.4719 N   0  0  0  0  0  0  0  0  0  0  0  0
   26.2410   63.5307   -6.5759 H   0  0  0  0  0  0  0  0  0  0  0  0
   21.4452   63.2799   -1.5208 H   0  0  0  0  0  0  0  0  0  0  0  0
   20.5851   62.3951   -2.7974 H   0  0  0  0  0  0  0  0  0  0  0  0
   21.1315   63.0496   -8.7644 C   0  0  0  0  0  0  0  0  0  0  0  0
   15.9380   63.7551  -11.6697 Cl  0  0  0  0  0  0  0  0  0  0  0  0
   17.4616   63.5507  -10.8296 C   0  0  0  0  0  0  0  0  0  0  0  0
   18.6465   63.7759  -11.4979 C   0  0  0  0  0  0  0  0  0  0  0  0
   19.8228   63.5984  -10.7783 C   0  0  0  0  0  0  0  0  0  0  0  0
   19.8573   63.2171   -9.4606 C   0  0  0  0  0  0  0  0  0  0  0  0
   18.6669   62.9995   -8.8142 C   0  0  0  0  0  0  0  0  0  0  0  0
   17.4931   63.1697   -9.5075 C   0  0  0  0  0  0  0  0  0  0  0  0
 21 22  1  0  0  0
 22 23  2  0  0  0
 22 27  1  0  0  0
 23 24  1  0  0  0
 24 25  2  0  0  0
 25 26  1  0  0  0
 25 20  1  0  0  0
 26 27  2  0  0  0
 20  1  1  0  0  0
  1  2  1  0  0  0
  1  6  1  0  0  0
  2  3  1  0  0  0
  3  4  1  0  0  0
  4  5  1  0  0  0
  4  7  1  0  0  0
  5  6  1  0  0  0
  7  8  2  0  0  0
  7 15  1  0  0  0
  8  9  1  0  0  0
  9 10  2  0  0  0
  9 16  1  0  0  0
 10 11  1  0  0  0
 11 12  1  0  0  0
 11 15  2  0  0  0
 12 13  2  0  0  0
 13 14  1  0  0  0
 14 15  1  0  0  0
 14 17  1  0  0  0
 16 18  1  0  0  0
 16 19  1  0  0  0
M  END
> <minimizedAffinity>
-7.61285

$$$$
2149


 24 27  0  0  0  0  0  0  0  0999 V2000
   22.0747   64.5202   -7.1504 N   0  0  0  0  0  0  0  0  0  0  0  0
   20.8423   64.1154   -6.9074 N   0  0  0  0  0  0  0  0  0  0  0  0
   20.3060   63.5519   -7.9742 N   0  0  0  0  0  0  0  0  0  0  0  0
   21.2001   63.5778   -8.9621 C   0  0  0  0  0  0  0  0  0  0  0  0
   22.3204   64.1899   -8.4433 C   0  0  0  0  0  0  0  0  0  0  0  0
   23.3810   64.3410   -9.2496 N   0  0  0  0  0  0  0  0  0  0  0  0
   23.3497   63.9080  -10.5218 C   0  0  0  0  0  0  0  0  0  0  0  0
   22.2448   63.3137  -11.0060 N   0  0  0  0  0  0  0  0  0  0  0  0
   21.1203   63.1144  -10.2698 C   0  0  0  0  0  0  0  0  0  0  0  0
   19.9627   62.4931  -10.7714 N   0  0  0  0  0  0  0  0  0  0  0  0
   19.2154   61.4332  -10.1486 C   0  0  0  0  0  0  0  0  0  0  0  0
   17.8277   61.9084   -9.9264 C   0  0  0  0  0  0  0  0  0  0  0  0
   17.3886   63.0316  -10.6410 N   0  0  0  0  0  0  0  0  0  0  0  0
   18.0517   63.4390  -11.8056 C   0  0  0  0  0  0  0  0  0  0  0  0
   19.4201   62.9179  -12.0380 C   0  0  0  0  0  0  0  0  0  0  0  0
   17.2681   64.1596   -9.7347 C   0  0  0  0  0  0  0  0  0  0  0  0
   23.0125   65.1874   -6.2494 C   0  0  0  0  0  0  0  0  0  0  0  0
   25.7302   60.9789   -2.9213 Cl  0  0  0  0  0  0  0  0  0  0  0  0
   24.9472   62.2057   -3.9119 C   0  0  0  0  0  0  0  0  0  0  0  0
   23.9351   62.9685   -3.3861 C   0  0  0  0  0  0  0  0  0  0  0  0
   23.3300   63.9294   -4.1796 C   0  0  0  0  0  0  0  0  0  0  0  0
   23.7189   64.1352   -5.4747 C   0  0  0  0  0  0  0  0  0  0  0  0
   24.7329   63.3730   -6.0043 C   0  0  0  0  0  0  0  0  0  0  0  0
   25.3326   62.4209   -5.2195 C   0  0  0  0  0  0  0  0  0  0  0  0
 18 19  1  0  0  0
 19 20  2  0  0  0
 19 24  1  0  0  0
 20 21  1  0  0  0
 21 22  2  0  0  0
 22 23  1  0  0  0
 22 17  1  0  0  0
 23 24  2  0  0  0
 17  1  1  0  0  0
  1  2  1  0  0  0
  1  5  1  0  0  0
  2  3  2  0  0  0
  3  4  1  0  0  0
  4  5  2  0  0  0
  4  9  1  0  0  0
  5  6  1  0  0  0
  6  7  2  0  0  0
  7  8  1  0  0  0
  8  9  2  0  0  0
  9 10  1  0  0  0
 10 11  1  0  0  0
 10 15  1  0  0  0
 11 12  1  0  0  0
 12 13  1  0  0  0
 13 14  1  0  0  0
 13 16  1  0  0  0
 14 15  1  0  0  0
M  END
> <minimizedAffinity>
-8.15638

$$$$
2163


 31 34  0  0  0  0  0  0  0  0999 V2000
   22.6307   66.6128   -6.5009 C   0  0  0  0  0  0  0  0  0  0  0  0
   21.8487   66.1173   -7.4842 N   0  0  0  0  0  0  0  0  0  0  0  0
   21.7699   64.8032   -7.7237 C   0  0  0  0  0  0  0  0  0  0  0  0
   22.4924   63.9697   -6.9592 N   0  0  0  0  0  0  0  0  0  0  0  0
   23.2997   64.3987   -5.9525 C   0  0  0  0  0  0  0  0  0  0  0  0
   23.3304   65.7472   -5.7669 N   0  0  0  0  0  0  0  0  0  0  0  0
   20.9480   64.2820   -8.7589 N   0  0  0  0  0  0  0  0  0  0  0  0
   19.8619   63.3635   -8.4977 C   0  0  0  0  0  0  0  0  0  0  0  0
   19.8235   62.2476   -9.5309 C   0  0  0  0  0  0  0  0  0  0  0  0
   19.9859   62.7673  -10.8201 O   0  0  0  0  0  0  0  0  0  0  0  0
   21.1981   63.3983  -10.9656 C   0  0  0  0  0  0  0  0  0  0  0  0
   21.1783   64.6630  -10.1345 C   0  0  0  0  0  0  0  0  0  0  0  0
   24.0545   63.5198   -5.1549 N   0  0  0  0  0  0  0  0  0  0  0  0
   23.8676   63.4531   -3.7362 C   0  0  0  0  0  0  0  0  0  0  0  0
   25.2411   63.6426   -3.0958 C   0  0  0  0  0  0  0  0  0  0  0  0
   26.0722   62.6707   -3.6253 O   0  0  0  0  0  0  0  0  0  0  0  0
   26.3295   62.8536   -4.9635 C   0  0  0  0  0  0  0  0  0  0  0  0
   25.0370   62.6685   -5.7590 C   0  0  0  0  0  0  0  0  0  0  0  0
   22.7375   68.0029   -6.2190 N   0  0  0  0  0  0  0  0  0  0  0  0
   21.9309   68.6586   -6.4054 H   0  0  0  0  0  0  0  0  0  0  0  0
   23.9659   69.7893   -5.2806 C   0  0  0  0  0  0  0  0  0  0  0  0
   23.8929   68.5787   -5.6882 N   0  0  0  0  0  0  0  0  0  0  0  0
   27.0969   70.6292   -1.0429 Br  0  0  0  0  0  0  0  0  0  0  0  0
   26.6541   70.8048   -2.8884 C   0  0  0  0  0  0  0  0  0  0  0  0
   25.5026   70.2475   -3.3986 C   0  0  0  0  0  0  0  0  0  0  0  0
   25.1825   70.3745   -4.7285 C   0  0  0  0  0  0  0  0  0  0  0  0
   26.0472   71.0767   -5.5397 C   0  0  0  0  0  0  0  0  0  0  0  0
   27.2189   71.6464   -5.0352 C   0  0  0  0  0  0  0  0  0  0  0  0
   27.5360   71.5153   -3.6930 C   0  0  0  0  0  0  0  0  0  0  0  0
   25.6996   71.1893   -6.8808 O   0  0  0  0  0  0  0  0  0  0  0  0
   26.5813   71.6364   -7.8843 C   0  0  0  0  0  0  0  0  0  0  0  0
 23 24  1  0  0  0
 24 25  2  0  0  0
 24 29  1  0  0  0
 25 26  1  0  0  0
 26 27  2  0  0  0
 26 21  1  0  0  0
 27 28  1  0  0  0
 27 30  1  0  0  0
 28 29  2  0  0  0
 30 31  1  0  0  0
 21 22  2  0  0  0
 22 19  1  0  0  0
 19  1  1  0  0  0
  1  2  2  0  0  0
  1  6  1  0  0  0
  2  3  1  0  0  0
  3  4  2  0  0  0
  3  7  1  0  0  0
  4  5  1  0  0  0
  5  6  2  0  0  0
  5 13  1  0  0  0
 13 14  1  0  0  0
 13 18  1  0  0  0
 14 15  1  0  0  0
 15 16  1  0  0  0
 16 17  1  0  0  0
 17 18  1  0  0  0
  7  8  1  0  0  0
  7 12  1  0  0  0
  8  9  1  0  0  0
  9 10  1  0  0  0
 10 11  1  0  0  0
 11 12  1  0  0  0
 19 20  1  0  0  0
M  END
> <minimizedAffinity>
-8.53349

$$$$
2164


 25 28  0  0  0  0  0  0  0  0999 V2000
   22.2298   64.3016   -9.6682 C   0  0  0  0  0  0  0  0  0  0  0  0
   20.7604   64.5709   -9.4735 C   0  0  0  0  0  0  0  0  0  0  0  0
   20.4113   63.3018  -10.1290 N   0  0  0  0  0  0  0  0  0  0  0  0
   21.7496   63.3132  -10.6901 C   0  0  0  0  0  0  0  0  0  0  0  0
   19.2420   62.4928  -10.1458 C   0  0  0  0  0  0  0  0  0  0  0  0
   19.2576   61.1926   -9.7530 N   0  0  0  0  0  0  0  0  0  0  0  0
   18.1205   60.4373   -9.7781 C   0  0  0  0  0  0  0  0  0  0  0  0
   16.9569   60.9508  -10.1890 N   0  0  0  0  0  0  0  0  0  0  0  0
   16.8694   62.2206  -10.5888 C   0  0  0  0  0  0  0  0  0  0  0  0
   15.8359   62.9596  -11.0394 N   0  0  0  0  0  0  0  0  0  0  0  0
   16.3183   64.1569  -11.2918 N   0  0  0  0  0  0  0  0  0  0  0  0
   17.6266   64.2028  -11.0160 N   0  0  0  0  0  0  0  0  0  0  0  0
   18.0200   62.9822  -10.5628 C   0  0  0  0  0  0  0  0  0  0  0  0
   14.4465   62.5481  -11.2228 C   0  0  0  0  0  0  0  0  0  0  0  0
   22.9235   64.3961   -7.2603 N   0  0  0  0  0  0  0  0  0  0  0  0
   22.9003   63.6857   -8.4705 C   0  0  0  0  0  0  0  0  0  0  0  0
   23.3935   62.5647   -8.6624 O   0  0  0  0  0  0  0  0  0  0  0  0
   22.4537   65.3739   -7.2234 H   0  0  0  0  0  0  0  0  0  0  0  0
   27.0215   61.8284   -5.1266 Br  0  0  0  0  0  0  0  0  0  0  0  0
   25.3717   62.7737   -5.0015 C   0  0  0  0  0  0  0  0  0  0  0  0
   24.7283   63.2476   -6.1207 C   0  0  0  0  0  0  0  0  0  0  0  0
   23.5132   63.9465   -6.0629 C   0  0  0  0  0  0  0  0  0  0  0  0
   22.9877   64.1393   -4.8162 C   0  0  0  0  0  0  0  0  0  0  0  0
   23.6484   63.6536   -3.6852 C   0  0  0  0  0  0  0  0  0  0  0  0
   24.8246   62.9796   -3.7700 C   0  0  0  0  0  0  0  0  0  0  0  0
 19 20  1  0  0  0
 20 21  2  0  0  0
 20 25  1  0  0  0
 21 22  1  0  0  0
 22 23  2  0  0  0
 22 15  1  0  0  0
 23 24  1  0  0  0
 24 25  2  0  0  0
 15 16  1  0  0  0
 16 17  2  0  0  0
 16  1  1  0  0  0
  1  2  1  0  0  0
  1  4  1  0  0  0
  2  3  1  0  0  0
  3  4  1  0  0  0
  3  5  1  0  0  0
  5  6  2  0  0  0
  5 13  1  0  0  0
  6  7  1  0  0  0
  7  8  2  0  0  0
  8  9  1  0  0  0
  9 10  1  0  0  0
  9 13  2  0  0  0
 10 11  1  0  0  0
 10 14  1  0  0  0
 11 12  2  0  0  0
 12 13  1  0  0  0
 15 18  1  0  0  0
M  END
> <minimizedAffinity>
-8.96541

$$$$
2170


 32 36  0  0  0  0  0  0  0  0999 V2000
   21.7986   62.9338  -11.4631 N   0  0  0  0  0  0  0  0  0  0  0  0
   22.4693   63.0857  -12.5851 N   0  0  0  0  0  0  0  0  0  0  0  0
   21.6540   63.1575  -13.6470 C   0  0  0  0  0  0  0  0  0  0  0  0
   22.3570   63.3107  -14.7802 N   0  0  0  0  0  0  0  0  0  0  0  0
   23.6731   63.3416  -14.4781 C   0  0  0  0  0  0  0  0  0  0  0  0
   23.7283   63.1985  -13.0873 C   0  0  0  0  0  0  0  0  0  0  0  0
   24.9980   63.1943  -12.5497 C   0  0  0  0  0  0  0  0  0  0  0  0
   25.0985   63.0636  -11.2929 O   0  0  0  0  0  0  0  0  0  0  0  0
   26.1312   63.3212  -13.2905 N   0  0  0  0  0  0  0  0  0  0  0  0
   25.9922   63.4560  -14.6180 C   0  0  0  0  0  0  0  0  0  0  0  0
   27.0667   63.5734  -15.2945 O   0  0  0  0  0  0  0  0  0  0  0  0
   24.7910   63.4667  -15.2124 N   0  0  0  0  0  0  0  0  0  0  0  0
   24.7114   63.6131  -16.6408 C   0  0  0  0  0  0  0  0  0  0  0  0
   27.4257   63.3092  -12.6483 C   0  0  0  0  0  0  0  0  0  0  0  0
   20.4009   63.0392  -13.1395 N   0  0  0  0  0  0  0  0  0  0  0  0
   20.4750   62.9011  -11.8089 C   0  0  0  0  0  0  0  0  0  0  0  0
   19.4095   62.7458  -10.8761 N   0  0  0  0  0  0  0  0  0  0  0  0
   19.0609   61.4490  -10.3211 C   0  0  0  0  0  0  0  0  0  0  0  0
   17.5563   61.3788  -10.2298 C   0  0  0  0  0  0  0  0  0  0  0  0
   17.0696   62.4615   -9.4800 O   0  0  0  0  0  0  0  0  0  0  0  0
   17.2266   63.6568  -10.1466 C   0  0  0  0  0  0  0  0  0  0  0  0
   18.6593   63.9028  -10.4646 C   0  0  0  0  0  0  0  0  0  0  0  0
   22.2695   62.8099  -10.1031 C   0  0  0  0  0  0  0  0  0  0  0  0
   22.1770   64.0600   -9.3286 C   0  0  0  0  0  0  0  0  0  0  0  0
   21.6960   65.1139   -9.8016 O   0  0  0  0  0  0  0  0  0  0  0  0
   24.2719   63.9847   -3.6709 Cl  0  0  0  0  0  0  0  0  0  0  0  0
   23.6538   64.0157   -5.3136 C   0  0  0  0  0  0  0  0  0  0  0  0
   22.5609   64.7977   -5.6628 C   0  0  0  0  0  0  0  0  0  0  0  0
   22.0901   64.8079   -6.9605 C   0  0  0  0  0  0  0  0  0  0  0  0
   22.6711   64.0538   -7.9578 C   0  0  0  0  0  0  0  0  0  0  0  0
   23.7723   63.2707   -7.5909 C   0  0  0  0  0  0  0  0  0  0  0  0
   24.2498   63.2547   -6.2975 C   0  0  0  0  0  0  0  0  0  0  0  0
 26 27  1  0  0  0
 27 28  2  0  0  0
 27 32  1  0  0  0
 28 29  1  0  0  0
 29 30  2  0  0  0
 30 31  1  0  0  0
 30 24  1  0  0  0
 31 32  2  0  0  0
 24 25  2  0  0  0
 24 23  1  0  0  0
 23  1  1  0  0  0
  1  2  1  0  0  0
  1 16  1  0  0  0
  2  3  1  0  0  0
  2  6  1  0  0  0
  3  4  2  0  0  0
  3 15  1  0  0  0
  4  5  1  0  0  0
  5  6  2  0  0  0
  5 12  1  0  0  0
  6  7  1  0  0  0
  7  8  2  0  0  0
  7  9  1  0  0  0
  9 10  1  0  0  0
  9 14  1  0  0  0
 10 11  2  0  0  0
 10 12  1  0  0  0
 12 13  1  0  0  0
 15 16  2  0  0  0
 16 17  1  0  0  0
 17 18  1  0  0  0
 17 22  1  0  0  0
 18 19  1  0  0  0
 19 20  1  0  0  0
 20 21  1  0  0  0
 21 22  1  0  0  0
M  END
> <minimizedAffinity>
-4.41706

$$$$
2177


 31 35  0  0  0  0  0  0  0  0999 V2000
   17.2433   63.2396  -10.7395 N   0  0  0  0  0  0  0  0  0  0  0  0
   16.5460   61.9867  -10.9064 C   0  0  0  0  0  0  0  0  0  0  0  0
   15.0656   62.2662  -10.8884 C   0  0  0  0  0  0  0  0  0  0  0  0
   14.6888   63.4122  -11.6923 N   0  0  0  0  0  0  0  0  0  0  0  0
   15.4284   64.6485  -11.5348 C   0  0  0  0  0  0  0  0  0  0  0  0
   16.8999   64.3363  -11.6161 C   0  0  0  0  0  0  0  0  0  0  0  0
   26.0191   63.2160  -12.0990 Cl  0  0  0  0  0  0  0  0  0  0  0  0
   24.2645   63.2161  -11.8942 C   0  0  0  0  0  0  0  0  0  0  0  0
   23.7283   63.2997  -10.6284 C   0  0  0  0  0  0  0  0  0  0  0  0
   22.3682   63.3019  -10.4348 C   0  0  0  0  0  0  0  0  0  0  0  0
   21.4944   63.2217  -11.5001 C   0  0  0  0  0  0  0  0  0  0  0  0
   22.0490   63.1380  -12.7597 C   0  0  0  0  0  0  0  0  0  0  0  0
   23.4090   63.1344  -12.9694 C   0  0  0  0  0  0  0  0  0  0  0  0
   20.0998   63.2286  -11.2368 N   0  0  0  0  0  0  0  0  0  0  0  0
   19.5306   63.3141   -9.9344 C   0  0  0  0  0  0  0  0  0  0  0  0
   18.2348   63.3189   -9.7246 C   0  0  0  0  0  0  0  0  0  0  0  0
   20.4219   63.3983   -8.8328 N   0  0  0  0  0  0  0  0  0  0  0  0
   21.8093   63.3931   -9.0710 C   0  0  0  0  0  0  0  0  0  0  0  0
   22.6677   63.4649   -8.1322 O   0  0  0  0  0  0  0  0  0  0  0  0
   19.4325   63.1680  -12.0349 H   0  0  0  0  0  0  0  0  0  0  0  0
   20.0813   63.4643   -7.8469 H   0  0  0  0  0  0  0  0  0  0  0  0
   13.6049   63.3085  -12.6177 C   0  0  0  0  0  0  0  0  0  0  0  0
   12.9796   62.1228  -12.7558 N   0  0  0  0  0  0  0  0  0  0  0  0
   11.9415   61.9797  -13.6268 C   0  0  0  0  0  0  0  0  0  0  0  0
   11.5172   63.0239  -14.3720 N   0  0  0  0  0  0  0  0  0  0  0  0
   12.0975   64.2250  -14.2791 C   0  0  0  0  0  0  0  0  0  0  0  0
   11.8824   65.4059  -14.8867 N   0  0  0  0  0  0  0  0  0  0  0  0
   12.7644   66.2637  -14.4056 N   0  0  0  0  0  0  0  0  0  0  0  0
   13.5587   65.6502  -13.4835 C   0  0  0  0  0  0  0  0  0  0  0  0
   13.1592   64.3544  -13.3821 C   0  0  0  0  0  0  0  0  0  0  0  0
   10.8670   65.7163  -15.8978 C   0  0  0  0  0  0  0  0  0  0  0  0
  7  8  1  0  0  0
  8  9  2  0  0  0
  8 13  1  0  0  0
  9 10  1  0  0  0
 10 11  2  0  0  0
 10 18  1  0  0  0
 11 12  1  0  0  0
 11 14  1  0  0  0
 12 13  2  0  0  0
 14 15  1  0  0  0
 15 16  2  0  0  0
 15 17  1  0  0  0
 16  1  1  0  0  0
  1  2  1  0  0  0
  1  6  1  0  0  0
  2  3  1  0  0  0
  3  4  1  0  0  0
  4  5  1  0  0  0
  4 22  1  0  0  0
  5  6  1  0  0  0
 22 23  2  0  0  0
 22 30  1  0  0  0
 23 24  1  0  0  0
 24 25  2  0  0  0
 25 26  1  0  0  0
 26 27  1  0  0  0
 26 30  2  0  0  0
 27 28  1  0  0  0
 27 31  1  0  0  0
 28 29  2  0  0  0
 29 30  1  0  0  0
 17 18  1  0  0  0
 18 19  2  0  0  0
 14 20  1  0  0  0
 17 21  1  0  0  0
M  END
> <minimizedAffinity>
-8.16922

$$$$
2184


 29 32  0  0  0  0  0  0  0  0999 V2000
   20.2618   63.3162  -10.0462 N   0  0  0  0  0  0  0  0  0  0  0  0
   21.3496   62.6500   -9.5145 C   0  0  0  0  0  0  0  0  0  0  0  0
   22.6099   63.5822   -9.4958 C   0  0  0  0  0  0  0  0  0  0  0  0
   22.1537   64.5303   -8.3701 N   0  0  0  0  0  0  0  0  0  0  0  0
   21.0931   65.3208   -8.7649 C   0  0  0  0  0  0  0  0  0  0  0  0
   20.6154   64.7635  -10.1244 C   0  0  0  0  0  0  0  0  0  0  0  0
   20.2098   63.0627  -11.0855 H   0  0  0  0  0  0  0  0  0  0  0  0
   22.8720   64.3288   -7.1716 C   0  0  0  0  0  0  0  0  0  0  0  0
   22.4559   64.6311   -5.9222 C   0  0  0  0  0  0  0  0  0  0  0  0
   23.1453   64.1624   -4.7674 C   0  0  0  0  0  0  0  0  0  0  0  0
   24.2653   63.3813   -4.8691 C   0  0  0  0  0  0  0  0  0  0  0  0
   24.7072   63.0713   -6.1515 C   0  0  0  0  0  0  0  0  0  0  0  0
   24.0314   63.5360   -7.2699 C   0  0  0  0  0  0  0  0  0  0  0  0
   24.9045   62.9502   -3.7134 O   0  0  0  0  0  0  0  0  0  0  0  0
   24.2430   63.0048   -2.4400 C   0  0  0  0  0  0  0  0  0  0  0  0
   18.9496   63.2416   -9.5717 C   0  0  0  0  0  0  0  0  0  0  0  0
   14.7849   65.3523  -11.7766 Cl  0  0  0  0  0  0  0  0  0  0  0  0
   15.3479   63.7354  -11.3391 C   0  0  0  0  0  0  0  0  0  0  0  0
   16.5405   63.4898  -10.7127 C   0  0  0  0  0  0  0  0  0  0  0  0
   16.8965   62.2359  -10.3575 C   0  0  0  0  0  0  0  0  0  0  0  0
   16.0777   61.1703  -10.6100 C   0  0  0  0  0  0  0  0  0  0  0  0
   14.8453   61.4200  -11.2601 C   0  0  0  0  0  0  0  0  0  0  0  0
   14.4743   62.6821  -11.6297 C   0  0  0  0  0  0  0  0  0  0  0  0
   13.2478   62.8941  -12.2987 O   0  0  0  0  0  0  0  0  0  0  0  0
   16.3756   59.9516  -10.2593 O   0  0  0  0  0  0  0  0  0  0  0  0
   17.5161   59.7008   -9.6264 C   0  0  0  0  0  0  0  0  0  0  0  0
   17.7781   58.5358   -9.3023 O   0  0  0  0  0  0  0  0  0  0  0  0
   18.4155   60.7438   -9.3262 C   0  0  0  0  0  0  0  0  0  0  0  0
   18.1376   62.0185   -9.6791 C   0  0  0  0  0  0  0  0  0  0  0  0
 17 18  1  0  0  0
 18 19  2  0  0  0
 18 23  1  0  0  0
 19 20  1  0  0  0
 20 21  2  0  0  0
 20 29  1  0  0  0
 21 22  1  0  0  0
 21 25  1  0  0  0
 22 23  2  0  0  0
 23 24  1  0  0  0
 25 26  1  0  0  0
 26 27  2  0  0  0
 26 28  1  0  0  0
 28 29  2  0  0  0
 29 16  1  0  0  0
 16  1  1  0  0  0
  1  2  1  0  0  0
  1  6  1  0  0  0
  2  3  1  0  0  0
  3  4  1  0  0  0
  4  5  1  0  0  0
  4  8  1  0  0  0
  5  6  1  0  0  0
  8  9  2  0  0  0
  8 13  1  0  0  0
  9 10  1  0  0  0
 10 11  2  0  0  0
 11 12  1  0  0  0
 11 14  1  0  0  0
 12 13  2  0  0  0
 14 15  1  0  0  0
  1  7  1  0  0  0
M  CHG 1   1   1
M  CHG 1  24  -1
M  END
> <minimizedAffinity>
-8.51757

$$$$
2195


 29 32  0  0  0  0  0  0  0  0999 V2000
   21.2213   64.1597   -7.9068 C   0  0  0  0  0  0  0  0  0  0  0  0
   20.2103   63.4571   -8.4137 N   0  0  0  0  0  0  0  0  0  0  0  0
   20.1978   63.0550   -9.6965 C   0  0  0  0  0  0  0  0  0  0  0  0
   19.3155   62.3451  -10.4521 N   0  0  0  0  0  0  0  0  0  0  0  0
   19.8417   62.2591  -11.6555 N   0  0  0  0  0  0  0  0  0  0  0  0
   21.0092   62.8711  -11.7169 N   0  0  0  0  0  0  0  0  0  0  0  0
   21.2728   63.3856  -10.5106 C   0  0  0  0  0  0  0  0  0  0  0  0
   22.3309   64.1156   -9.9967 C   0  0  0  0  0  0  0  0  0  0  0  0
   22.2464   64.4683   -8.7071 N   0  0  0  0  0  0  0  0  0  0  0  0
   23.4143   64.4559  -10.7944 O   0  0  0  0  0  0  0  0  0  0  0  0
   23.9816   63.7340  -11.2122 H   0  0  0  0  0  0  0  0  0  0  0  0
   23.3077   64.2294   -5.1123 N   0  0  0  0  0  0  0  0  0  0  0  0
   22.0805   63.7829   -5.5971 C   0  0  0  0  0  0  0  0  0  0  0  0
   21.2727   64.6152   -6.4906 C   0  0  0  0  0  0  0  0  0  0  0  0
   21.7344   66.0493   -6.4658 C   0  0  0  0  0  0  0  0  0  0  0  0
   23.1973   66.0813   -6.7287 C   0  0  0  0  0  0  0  0  0  0  0  0
   23.9264   65.3569   -5.6342 C   0  0  0  0  0  0  0  0  0  0  0  0
   24.2960   63.0159   -4.4625 S   0  0  0  0  0  0  0  0  0  0  0  0
   25.0130   62.2224   -5.4978 O   0  0  0  0  0  0  0  0  0  0  0  0
   23.4307   62.1142   -3.6057 O   0  0  0  0  0  0  0  0  0  0  0  0
   25.5136   63.7119   -3.3356 C   0  0  0  0  0  0  0  0  0  0  0  0
   18.0666   61.8048  -10.0137 C   0  0  0  0  0  0  0  0  0  0  0  0
   16.9049   62.6781  -10.3083 C   0  0  0  0  0  0  0  0  0  0  0  0
   15.7230   62.0907  -10.6835 C   0  0  0  0  0  0  0  0  0  0  0  0
   14.5839   62.8366  -10.9781 C   0  0  0  0  0  0  0  0  0  0  0  0
   14.6226   64.2119  -10.8970 C   0  0  0  0  0  0  0  0  0  0  0  0
   15.8053   64.8087  -10.5205 C   0  0  0  0  0  0  0  0  0  0  0  0
   16.9383   64.0524  -10.2282 C   0  0  0  0  0  0  0  0  0  0  0  0
   15.6055   60.3477  -10.8067 Cl  0  0  0  0  0  0  0  0  0  0  0  0
 18 19  2  0  0  0
 18 20  2  0  0  0
 18 12  1  0  0  0
 18 21  1  0  0  0
 12 13  1  0  0  0
 12 17  1  0  0  0
 13 14  1  0  0  0
 14 15  1  0  0  0
 14  1  1  0  0  0
 15 16  1  0  0  0
 16 17  1  0  0  0
  1  2  2  0  0  0
  1  9  1  0  0  0
  2  3  1  0  0  0
  3  4  1  0  0  0
  3  7  2  0  0  0
  4  5  1  0  0  0
  4 22  1  0  0  0
  5  6  2  0  0  0
  6  7  1  0  0  0
  7  8  1  0  0  0
  8  9  2  0  0  0
  8 10  1  0  0  0
 22 23  1  0  0  0
 23 24  2  0  0  0
 23 28  1  0  0  0
 24 25  1  0  0  0
 24 29  1  0  0  0
 25 26  2  0  0  0
 26 27  1  0  0  0
 27 28  2  0  0  0
 10 11  1  0  0  0
M  END
> <minimizedAffinity>
-9.85171

$$$$
2197


 28 31  0  0  0  0  0  0  0  0999 V2000
   19.2708   62.0113  -10.9773 N   0  0  0  0  0  0  0  0  0  0  0  0
   20.3242   62.1358   -9.9489 C   0  0  0  0  0  0  0  0  0  0  0  0
   21.0905   63.3696  -10.2521 C   0  0  0  0  0  0  0  0  0  0  0  0
   21.5017   63.5856  -11.5148 O   0  0  0  0  0  0  0  0  0  0  0  0
   20.9563   62.9015  -12.5313 C   0  0  0  0  0  0  0  0  0  0  0  0
   19.9769   61.8317  -12.1921 C   0  0  0  0  0  0  0  0  0  0  0  0
   22.2760   63.3810   -9.3456 C   0  0  0  0  0  0  0  0  0  0  0  0
   23.3166   62.7996   -9.7537 O   0  0  0  0  0  0  0  0  0  0  0  0
   22.3130   63.9906   -8.0778 N   0  0  0  0  0  0  0  0  0  0  0  0
   21.1956   64.6944   -7.4771 C   0  0  0  0  0  0  0  0  0  0  0  0
   21.6144   65.0866   -6.0741 C   0  0  0  0  0  0  0  0  0  0  0  0
   22.7648   65.9707   -6.0601 N   0  0  0  0  0  0  0  0  0  0  0  0
   23.7908   65.4295   -6.8933 C   0  0  0  0  0  0  0  0  0  0  0  0
   23.5237   63.9600   -7.2434 C   0  0  0  0  0  0  0  0  0  0  0  0
   22.3258   67.2836   -6.4072 C   0  0  0  0  0  0  0  0  0  0  0  0
   23.3666   68.3492   -6.1981 C   0  0  0  0  0  0  0  0  0  0  0  0
   22.7790   69.6777   -5.7243 C   0  0  0  0  0  0  0  0  0  0  0  0
   23.4627   69.5373   -7.0484 C   0  0  0  0  0  0  0  0  0  0  0  0
   18.1366   63.2494  -10.8549 S   0  0  0  0  0  0  0  0  0  0  0  0
   18.3524   63.9345   -9.4987 O   0  0  0  0  0  0  0  0  0  0  0  0
   18.3421   64.3568  -11.8596 O   0  0  0  0  0  0  0  0  0  0  0  0
   16.4924   62.6969  -10.8402 C   0  0  0  0  0  0  0  0  0  0  0  0
   15.4301   63.5741  -10.8405 C   0  0  0  0  0  0  0  0  0  0  0  0
   14.1188   63.1441  -10.7702 C   0  0  0  0  0  0  0  0  0  0  0  0
   13.8502   61.8001  -10.7003 C   0  0  0  0  0  0  0  0  0  0  0  0
   14.9071   60.9017  -10.7013 C   0  0  0  0  0  0  0  0  0  0  0  0
   16.2020   61.3331  -10.7692 C   0  0  0  0  0  0  0  0  0  0  0  0
   15.6981   65.3185  -11.0194 Cl  0  0  0  0  0  0  0  0  0  0  0  0
 19 20  2  0  0  0
 19 21  2  0  0  0
 19  1  1  0  0  0
 19 22  1  0  0  0
  1  2  1  0  0  0
  1  6  1  0  0  0
  2  3  1  0  0  0
  3  4  1  0  0  0
  3  7  1  0  0  0
  4  5  1  0  0  0
  5  6  1  0  0  0
  7  8  2  0  0  0
  7  9  1  0  0  0
  9 10  1  0  0  0
  9 14  1  0  0  0
 10 11  1  0  0  0
 11 12  1  0  0  0
 12 13  1  0  0  0
 12 15  1  0  0  0
 13 14  1  0  0  0
 15 16  1  0  0  0
 16 17  1  0  0  0
 16 18  1  0  0  0
 17 18  1  0  0  0
 22 23  2  0  0  0
 22 27  1  0  0  0
 23 24  1  0  0  0
 23 28  1  0  0  0
 24 25  2  0  0  0
 25 26  1  0  0  0
 26 27  2  0  0  0
M  END
> <minimizedAffinity>
-8.31062

$$$$
2210


 33 36  0  0  0  0  0  0  0  0999 V2000
   18.9501   63.2779  -12.4265 C   0  0  0  0  0  0  0  0  0  0  0  0
   20.1069   63.2288  -11.7533 C   0  0  0  0  0  0  0  0  0  0  0  0
   20.2048   63.3017  -10.3685 O   0  0  0  0  0  0  0  0  0  0  0  0
   21.5543   63.1885  -10.0068 C   0  0  0  0  0  0  0  0  0  0  0  0
   22.3713   63.0476  -11.0862 C   0  0  0  0  0  0  0  0  0  0  0  0
   23.7320   62.8971  -10.9549 C   0  0  0  0  0  0  0  0  0  0  0  0
   24.3074   62.8858   -9.6887 C   0  0  0  0  0  0  0  0  0  0  0  0
   23.4641   63.0330   -8.5861 C   0  0  0  0  0  0  0  0  0  0  0  0
   22.1219   63.1843   -8.7212 C   0  0  0  0  0  0  0  0  0  0  0  0
   24.1176   63.0123   -7.3543 O   0  0  0  0  0  0  0  0  0  0  0  0
   21.4532   63.0748  -12.2628 C   0  0  0  0  0  0  0  0  0  0  0  0
   21.7784   62.9881  -13.4541 O   0  0  0  0  0  0  0  0  0  0  0  0
   15.1341   66.4018  -10.4769 Br  0  0  0  0  0  0  0  0  0  0  0  0
   16.0335   64.7287  -10.6226 C   0  0  0  0  0  0  0  0  0  0  0  0
   17.1241   64.5992  -11.4993 C   0  0  0  0  0  0  0  0  0  0  0  0
   17.7458   63.4050  -11.5876 C   0  0  0  0  0  0  0  0  0  0  0  0
   17.3429   62.3199  -10.8416 C   0  0  0  0  0  0  0  0  0  0  0  0
   16.2545   62.4728   -9.9705 C   0  0  0  0  0  0  0  0  0  0  0  0
   15.5909   63.6782   -9.8580 C   0  0  0  0  0  0  0  0  0  0  0  0
   18.0119   61.1100  -10.9551 O   0  0  0  0  0  0  0  0  0  0  0  0
   18.4477   60.3087   -9.9129 C   0  0  0  0  0  0  0  0  0  0  0  0
   21.1983   63.5344   -7.6209 C   0  0  0  0  0  0  0  0  0  0  0  0
   21.7481   64.3875   -6.6757 N   0  0  0  0  0  0  0  0  0  0  0  0
   21.0259   64.3198   -5.3663 C   0  0  0  0  0  0  0  0  0  0  0  0
   22.1589   64.1596   -4.3220 C   0  0  0  0  0  0  0  0  0  0  0  0
   23.4085   64.4994   -4.9257 N   0  0  0  0  0  0  0  0  0  0  0  0
   23.4249   65.7039   -5.6588 C   0  0  0  0  0  0  0  0  0  0  0  0
   22.3065   65.6517   -6.7890 C   0  0  0  0  0  0  0  0  0  0  0  0
   22.6330   63.7233   -6.3729 H   0  0  0  0  0  0  0  0  0  0  0  0
   24.4822   63.6506   -4.7742 C   0  0  0  0  0  0  0  0  0  0  0  0
   25.0276   63.3511   -3.4144 C   0  0  0  0  0  0  0  0  0  0  0  0
   25.3227   64.5344   -2.7181 O   0  0  0  0  0  0  0  0  0  0  0  0
   25.0121   64.4322   -1.7593 H   0  0  0  0  0  0  0  0  0  0  0  0
 13 14  1  0  0  0
 14 15  2  0  0  0
 14 19  1  0  0  0
 15 16  1  0  0  0
 16 17  2  0  0  0
 16  1  1  0  0  0
 17 18  1  0  0  0
 17 20  1  0  0  0
 18 19  2  0  0  0
 20 21  1  0  0  0
  1  2  2  0  0  0
  2  3  1  0  0  0
  2 11  1  0  0  0
  3  4  1  0  0  0
  4  5  2  0  0  0
  4  9  1  0  0  0
  5  6  1  0  0  0
  5 11  1  0  0  0
  6  7  2  0  0  0
  7  8  1  0  0  0
  8  9  2  0  0  0
  8 10  1  0  0  0
  9 22  1  0  0  0
 22 23  1  0  0  0
 23 24  1  0  0  0
 23 28  1  0  0  0
 24 25  1  0  0  0
 25 26  1  0  0  0
 26 27  1  0  0  0
 26 30  1  0  0  0
 27 28  1  0  0  0
 30 31  1  0  0  0
 31 32  1  0  0  0
 11 12  2  0  0  0
 23 29  1  0  0  0
 32 33  1  0  0  0
M  CHG 1  10  -1
M  CHG 1  23   1
M  END
> <minimizedAffinity>
-3.92058

$$$$
2213


 31 34  0  0  0  0  0  0  0  0999 V2000
   14.3711   65.6916  -10.6945 Cl  0  0  0  0  0  0  0  0  0  0  0  0
   14.0131   64.2727  -11.6541 C   0  0  0  0  0  0  0  0  0  0  0  0
   13.2213   64.4325  -12.8009 C   0  0  0  0  0  0  0  0  0  0  0  0
   12.9228   63.3402  -13.5726 C   0  0  0  0  0  0  0  0  0  0  0  0
   13.4385   62.1063  -13.1606 C   0  0  0  0  0  0  0  0  0  0  0  0
   14.2145   61.9616  -12.0323 C   0  0  0  0  0  0  0  0  0  0  0  0
   14.5182   63.0610  -11.2504 C   0  0  0  0  0  0  0  0  0  0  0  0
   14.8511   60.3989  -11.5350 Cl  0  0  0  0  0  0  0  0  0  0  0  0
   12.1009   63.4146  -14.7900 C   0  0  0  0  0  0  0  0  0  0  0  0
   11.6605   64.7959  -15.0480 C   0  0  0  0  0  0  0  0  0  0  0  0
   11.9678   65.8666  -14.2687 C   0  0  0  0  0  0  0  0  0  0  0  0
   11.5328   67.1287  -14.5532 N   0  0  0  0  0  0  0  0  0  0  0  0
   10.7810   67.2900  -15.6392 C   0  0  0  0  0  0  0  0  0  0  0  0
   10.3520   68.4474  -15.9448 O   0  0  0  0  0  0  0  0  0  0  0  0
   10.4520   66.2564  -16.4402 N   0  0  0  0  0  0  0  0  0  0  0  0
   10.8735   65.0157  -16.1715 C   0  0  0  0  0  0  0  0  0  0  0  0
   10.5674   64.0511  -16.9181 O   0  0  0  0  0  0  0  0  0  0  0  0
    9.6277   66.4987  -17.6159 C   0  0  0  0  0  0  0  0  0  0  0  0
   11.8778   68.2466  -13.7016 C   0  0  0  0  0  0  0  0  0  0  0  0
   12.7421   65.6795  -13.1562 O   0  0  0  0  0  0  0  0  0  0  0  0
   10.9370   62.4695  -14.7226 C   0  0  0  0  0  0  0  0  0  0  0  0
   10.9037   61.3039  -15.4487 C   0  0  0  0  0  0  0  0  0  0  0  0
    9.8731   60.4447  -15.4172 N   0  0  0  0  0  0  0  0  0  0  0  0
    8.8200   60.7458  -14.6333 C   0  0  0  0  0  0  0  0  0  0  0  0
    7.8529   59.9292  -14.6121 O   0  0  0  0  0  0  0  0  0  0  0  0
    8.8098   61.8766  -13.9060 N   0  0  0  0  0  0  0  0  0  0  0  0
    9.8295   62.7464  -13.9226 C   0  0  0  0  0  0  0  0  0  0  0  0
    9.8488   63.8081  -13.2551 O   0  0  0  0  0  0  0  0  0  0  0  0
    7.6563   62.1553  -13.0819 C   0  0  0  0  0  0  0  0  0  0  0  0
    9.8697   59.2190  -16.1930 C   0  0  0  0  0  0  0  0  0  0  0  0
   11.9831   60.9970  -16.2517 O   0  0  0  0  0  0  0  0  0  0  0  0
  1  2  1  0  0  0
  2  3  2  0  0  0
  2  7  1  0  0  0
  3  4  1  0  0  0
  3 20  1  0  0  0
  4  5  2  0  0  0
  4  9  1  0  0  0
  5  6  1  0  0  0
  6  7  2  0  0  0
  6  8  1  0  0  0
  9 10  1  0  0  0
  9 21  1  0  0  0
 10 11  2  0  0  0
 10 16  1  0  0  0
 11 12  1  0  0  0
 11 20  1  0  0  0
 12 13  1  0  0  0
 12 19  1  0  0  0
 13 14  2  0  0  0
 13 15  1  0  0  0
 15 16  1  0  0  0
 15 18  1  0  0  0
 16 17  2  0  0  0
 21 22  2  0  0  0
 21 27  1  0  0  0
 22 23  1  0  0  0
 22 31  1  0  0  0
 23 24  1  0  0  0
 23 30  1  0  0  0
 24 25  2  0  0  0
 24 26  1  0  0  0
 26 27  1  0  0  0
 26 29  1  0  0  0
 27 28  2  0  0  0
M  CHG 1  31  -1
M  END
> <minimizedAffinity>
-0.24915

$$$$
2214


 34 38  0  0  0  0  0  0  0  0999 V2000
   25.7364   62.6557   -5.7456 Cl  0  0  0  0  0  0  0  0  0  0  0  0
   24.3022   63.5232   -6.2508 C   0  0  0  0  0  0  0  0  0  0  0  0
   23.7317   63.3389   -7.4809 C   0  0  0  0  0  0  0  0  0  0  0  0
   22.5866   64.0530   -7.8436 C   0  0  0  0  0  0  0  0  0  0  0  0
   22.0652   64.9285   -6.9384 C   0  0  0  0  0  0  0  0  0  0  0  0
   22.6487   65.1198   -5.6750 C   0  0  0  0  0  0  0  0  0  0  0  0
   23.7684   64.4220   -5.3207 C   0  0  0  0  0  0  0  0  0  0  0  0
   20.9143   65.5431   -7.5091 N   0  0  0  0  0  0  0  0  0  0  0  0
   20.7072   65.0399   -8.8068 C   0  0  0  0  0  0  0  0  0  0  0  0
   19.7554   65.4036   -9.5676 O   0  0  0  0  0  0  0  0  0  0  0  0
   21.7692   64.0630   -9.0683 C   0  0  0  0  0  0  0  0  0  0  0  0
   22.6419   64.4695  -10.1474 N   0  0  0  0  0  0  0  0  0  0  0  0
   22.5322   63.5529  -11.2374 C   0  0  0  0  0  0  0  0  0  0  0  0
   21.3896   62.6771  -10.9060 C   0  0  0  0  0  0  0  0  0  0  0  0
   21.2308   62.6943   -9.4109 C   0  0  0  0  0  0  0  0  0  0  0  0
   19.7644   62.5977   -9.2411 C   0  0  0  0  0  0  0  0  0  0  0  0
   19.1176   62.2480   -8.2222 O   0  0  0  0  0  0  0  0  0  0  0  0
   19.1051   62.9787  -10.4676 N   0  0  0  0  0  0  0  0  0  0  0  0
   20.1293   63.3463  -11.3841 C   0  0  0  0  0  0  0  0  0  0  0  0
   19.9681   64.0852  -12.3835 O   0  0  0  0  0  0  0  0  0  0  0  0
   20.2915   66.2713   -7.0455 H   0  0  0  0  0  0  0  0  0  0  0  0
   23.6465   64.5115   -9.8662 H   0  0  0  0  0  0  0  0  0  0  0  0
   17.6755   62.9816  -10.6958 C   0  0  0  0  0  0  0  0  0  0  0  0
   17.0986   64.3654  -10.8212 C   0  0  0  0  0  0  0  0  0  0  0  0
   16.4882   64.5050  -12.0649 O   0  0  0  0  0  0  0  0  0  0  0  0
   15.1660   64.1550  -11.9113 C   0  0  0  0  0  0  0  0  0  0  0  0
   14.7676   64.4409  -10.4800 C   0  0  0  0  0  0  0  0  0  0  0  0
   16.0878   64.7119   -9.7856 C   0  0  0  0  0  0  0  0  0  0  0  0
   23.8182   62.8229  -11.5192 C   0  0  0  0  0  0  0  0  0  0  0  0
   24.5785   63.3343  -12.6442 C   0  0  0  0  0  0  0  0  0  0  0  0
   25.8266   63.2833  -12.6340 O   0  0  0  0  0  0  0  0  0  0  0  0
   23.9299   63.8967  -13.7658 N   0  0  0  0  0  0  0  0  0  0  0  0
   24.1634   63.5440  -14.7233 H   0  0  0  0  0  0  0  0  0  0  0  0
   23.2218   64.6526  -13.7134 H   0  0  0  0  0  0  0  0  0  0  0  0
  1  2  1  0  0  0
  2  3  2  0  0  0
  2  7  1  0  0  0
  3  4  1  0  0  0
  4  5  2  0  0  0
  4 11  1  0  0  0
  5  6  1  0  0  0
  5  8  1  0  0  0
  6  7  2  0  0  0
  8  9  1  0  0  0
  9 10  2  0  0  0
  9 11  1  0  0  0
 11 12  1  0  0  0
 11 15  1  0  0  0
 12 13  1  0  0  0
 13 14  1  0  0  0
 13 29  1  0  0  0
 14 15  1  0  0  0
 14 19  1  0  0  0
 15 16  1  0  0  0
 16 17  2  0  0  0
 16 18  1  0  0  0
 18 19  1  0  0  0
 18 23  1  0  0  0
 19 20  2  0  0  0
 23 24  1  0  0  0
 24 25  1  0  0  0
 24 28  1  0  0  0
 25 26  1  0  0  0
 26 27  1  0  0  0
 27 28  1  0  0  0
 29 30  1  0  0  0
 30 31  2  0  0  0
 30 32  1  0  0  0
  8 21  1  0  0  0
 12 22  1  0  0  0
 32 33  1  0  0  0
 32 34  1  0  0  0
M  END
> <minimizedAffinity>
-7.32107

$$$$
2225


 29 32  0  0  0  0  0  0  0  0999 V2000
   17.8594   62.8007  -11.1163 C   0  0  0  0  0  0  0  0  0  0  0  0
   18.1548   61.6467  -11.6476 O   0  0  0  0  0  0  0  0  0  0  0  0
   16.6132   62.8878  -10.5166 N   0  0  0  0  0  0  0  0  0  0  0  0
   15.7410   61.6739  -10.5532 C   0  0  0  0  0  0  0  0  0  0  0  0
   14.3479   62.1766  -10.8364 C   0  0  0  0  0  0  0  0  0  0  0  0
   14.3296   63.4962  -11.4412 N   0  0  0  0  0  0  0  0  0  0  0  0
   14.8834   64.5793  -10.6738 C   0  0  0  0  0  0  0  0  0  0  0  0
   16.0044   63.9958   -9.8289 C   0  0  0  0  0  0  0  0  0  0  0  0
   13.7880   63.6772  -12.7314 C   0  0  0  0  0  0  0  0  0  0  0  0
   13.9245   64.8585  -13.3956 N   0  0  0  0  0  0  0  0  0  0  0  0
   13.4367   65.0755  -14.6092 C   0  0  0  0  0  0  0  0  0  0  0  0
   12.7681   64.0541  -15.2045 N   0  0  0  0  0  0  0  0  0  0  0  0
   12.5947   62.8803  -14.6246 C   0  0  0  0  0  0  0  0  0  0  0  0
   13.1088   62.6593  -13.3508 C   0  0  0  0  0  0  0  0  0  0  0  0
   13.5697   66.2977  -15.3128 N   0  0  0  0  0  0  0  0  0  0  0  0
   12.5581   67.3378  -15.1609 C   0  0  0  0  0  0  0  0  0  0  0  0
   12.1289   67.6896  -16.5886 C   0  0  0  0  0  0  0  0  0  0  0  0
   13.2024   68.1526  -17.3016 O   0  0  0  0  0  0  0  0  0  0  0  0
   14.2147   67.2409  -17.4827 C   0  0  0  0  0  0  0  0  0  0  0  0
   14.6712   66.5889  -16.1969 C   0  0  0  0  0  0  0  0  0  0  0  0
   18.9258   63.8114  -11.2551 C   0  0  0  0  0  0  0  0  0  0  0  0
   19.9513   63.8967  -10.4862 O   0  0  0  0  0  0  0  0  0  0  0  0
   24.5039   64.1285   -6.7743 Cl  0  0  0  0  0  0  0  0  0  0  0  0
   23.1631   64.0589   -7.8902 C   0  0  0  0  0  0  0  0  0  0  0  0
   23.3563   63.9758   -9.2498 C   0  0  0  0  0  0  0  0  0  0  0  0
   22.3196   63.9194  -10.1311 C   0  0  0  0  0  0  0  0  0  0  0  0
   20.9761   63.9456   -9.6982 C   0  0  0  0  0  0  0  0  0  0  0  0
   20.7985   64.0313   -8.3011 C   0  0  0  0  0  0  0  0  0  0  0  0
   21.8601   64.0850   -7.4479 C   0  0  0  0  0  0  0  0  0  0  0  0
 23 24  1  0  0  0
 24 25  2  0  0  0
 24 29  1  0  0  0
 25 26  1  0  0  0
 26 27  2  0  0  0
 27 28  1  0  0  0
 27 22  1  0  0  0
 28 29  2  0  0  0
 22 21  1  0  0  0
 21  1  1  0  0  0
  1  2  2  0  0  0
  1  3  1  0  0  0
  3  4  1  0  0  0
  3  8  1  0  0  0
  4  5  1  0  0  0
  5  6  1  0  0  0
  6  7  1  0  0  0
  6  9  1  0  0  0
  7  8  1  0  0  0
  9 10  2  0  0  0
  9 14  1  0  0  0
 10 11  1  0  0  0
 11 12  2  0  0  0
 11 15  1  0  0  0
 12 13  1  0  0  0
 13 14  2  0  0  0
 15 16  1  0  0  0
 15 20  1  0  0  0
 16 17  1  0  0  0
 17 18  1  0  0  0
 18 19  1  0  0  0
 19 20  1  0  0  0
M  END
> <minimizedAffinity>
-6.82090

$$$$
2231


 27 31  0  0  0  0  0  0  0  0999 V2000
   17.6413   62.9518   -9.9033 N   0  0  0  0  0  0  0  0  0  0  0  0
   17.8051   62.9270   -8.5924 N   0  0  0  0  0  0  0  0  0  0  0  0
   19.0683   63.0984   -8.2544 N   0  0  0  0  0  0  0  0  0  0  0  0
   19.8065   63.2478   -9.3676 C   0  0  0  0  0  0  0  0  0  0  0  0
   18.8901   63.1522  -10.3956 C   0  0  0  0  0  0  0  0  0  0  0  0
   19.3515   63.2662  -11.6614 N   0  0  0  0  0  0  0  0  0  0  0  0
   20.6661   63.4658  -11.8697 C   0  0  0  0  0  0  0  0  0  0  0  0
   21.5614   63.5582  -10.8556 N   0  0  0  0  0  0  0  0  0  0  0  0
   21.1556   63.4517   -9.5770 C   0  0  0  0  0  0  0  0  0  0  0  0
   22.0839   63.5474   -8.4967 N   0  0  0  0  0  0  0  0  0  0  0  0
   23.3112   62.7856   -8.6289 C   0  0  0  0  0  0  0  0  0  0  0  0
   24.4245   63.3951   -7.7801 C   0  0  0  0  0  0  0  0  0  0  0  0
   23.9207   63.9184   -6.5615 N   0  0  0  0  0  0  0  0  0  0  0  0
   22.9532   65.0404   -6.7648 C   0  0  0  0  0  0  0  0  0  0  0  0
   21.7382   64.3752   -7.3838 C   0  0  0  0  0  0  0  0  0  0  0  0
   24.2335   63.4875   -5.2837 C   0  0  0  0  0  0  0  0  0  0  0  0
   23.6190   64.1561   -4.3224 O   0  0  0  0  0  0  0  0  0  0  0  0
   25.1064   62.4394   -4.7773 C   0  0  0  0  0  0  0  0  0  0  0  0
   26.5708   62.6623   -4.7931 C   0  0  0  0  0  0  0  0  0  0  0  0
   25.8209   62.4123   -3.5055 C   0  0  0  0  0  0  0  0  0  0  0  0
   12.5700   62.5344  -12.9759 Cl  0  0  0  0  0  0  0  0  0  0  0  0
   14.0514   62.6479  -12.0768 C   0  0  0  0  0  0  0  0  0  0  0  0
   14.5840   61.5261  -11.4933 C   0  0  0  0  0  0  0  0  0  0  0  0
   15.7579   61.6114  -10.7786 C   0  0  0  0  0  0  0  0  0  0  0  0
   16.4289   62.8024  -10.6265 C   0  0  0  0  0  0  0  0  0  0  0  0
   15.8704   63.9109  -11.2228 C   0  0  0  0  0  0  0  0  0  0  0  0
   14.6926   63.8452  -11.9436 C   0  0  0  0  0  0  0  0  0  0  0  0
 21 22  1  0  0  0
 22 23  2  0  0  0
 22 27  1  0  0  0
 23 24  1  0  0  0
 24 25  2  0  0  0
 25 26  1  0  0  0
 25  1  1  0  0  0
 26 27  2  0  0  0
  1  2  1  0  0  0
  1  5  1  0  0  0
  2  3  2  0  0  0
  3  4  1  0  0  0
  4  5  2  0  0  0
  4  9  1  0  0  0
  5  6  1  0  0  0
  6  7  2  0  0  0
  7  8  1  0  0  0
  8  9  2  0  0  0
  9 10  1  0  0  0
 10 11  1  0  0  0
 10 15  1  0  0  0
 11 12  1  0  0  0
 12 13  1  0  0  0
 13 14  1  0  0  0
 13 16  1  0  0  0
 14 15  1  0  0  0
 16 17  2  0  0  0
 16 18  1  0  0  0
 18 19  1  0  0  0
 18 20  1  0  0  0
 19 20  1  0  0  0
M  END
> <minimizedAffinity>
-8.15766

$$$$
2242


 32 35  0  0  0  0  0  0  0  0999 V2000
   13.9591   63.6026  -13.0797 N   0  0  0  0  0  0  0  0  0  0  0  0
   14.1669   63.4528  -11.7065 C   0  0  0  0  0  0  0  0  0  0  0  0
   13.5239   64.0802  -10.8526 O   0  0  0  0  0  0  0  0  0  0  0  0
   14.5645   63.0198  -13.7400 H   0  0  0  0  0  0  0  0  0  0  0  0
   11.6019   62.1631  -14.0559 Cl  0  0  0  0  0  0  0  0  0  0  0  0
   11.8416   63.8936  -14.1621 C   0  0  0  0  0  0  0  0  0  0  0  0
   10.8629   64.6524  -14.7393 C   0  0  0  0  0  0  0  0  0  0  0  0
   10.9797   66.0088  -14.8578 C   0  0  0  0  0  0  0  0  0  0  0  0
   12.1171   66.6024  -14.3784 C   0  0  0  0  0  0  0  0  0  0  0  0
   13.1208   65.8170  -13.7857 C   0  0  0  0  0  0  0  0  0  0  0  0
   13.0172   64.4600  -13.6618 C   0  0  0  0  0  0  0  0  0  0  0  0
   12.3166   67.9779  -14.4600 O   0  0  0  0  0  0  0  0  0  0  0  0
   11.2377   68.8954  -14.6932 C   0  0  0  0  0  0  0  0  0  0  0  0
   10.1799   68.2350  -15.5138 C   0  0  0  0  0  0  0  0  0  0  0  0
    9.4789   68.9484  -16.2681 O   0  0  0  0  0  0  0  0  0  0  0  0
    9.9647   66.8289  -15.4489 N   0  0  0  0  0  0  0  0  0  0  0  0
    9.0922   66.4061  -15.8220 H   0  0  0  0  0  0  0  0  0  0  0  0
   15.1969   62.5057  -11.1972 C   0  0  0  0  0  0  0  0  0  0  0  0
   16.4062   62.9392  -11.0195 N   0  0  0  0  0  0  0  0  0  0  0  0
   17.4291   62.1193  -10.5470 N   0  0  0  0  0  0  0  0  0  0  0  0
   17.1413   60.7715  -10.2497 C   0  0  0  0  0  0  0  0  0  0  0  0
   18.0874   60.0827   -9.7365 O   0  0  0  0  0  0  0  0  0  0  0  0
   15.8214   60.1615  -10.5089 C   0  0  0  0  0  0  0  0  0  0  0  0
   14.8847   61.1539  -10.9052 N   0  0  0  0  0  0  0  0  0  0  0  0
   13.8717   60.8804  -10.9970 H   0  0  0  0  0  0  0  0  0  0  0  0
   18.7695   62.6374  -10.3660 C   0  0  0  0  0  0  0  0  0  0  0  0
   19.2365   63.0066   -9.1281 C   0  0  0  0  0  0  0  0  0  0  0  0
   20.5367   63.5001   -8.9786 C   0  0  0  0  0  0  0  0  0  0  0  0
   21.3747   63.6286  -10.0676 C   0  0  0  0  0  0  0  0  0  0  0  0
   20.8918   63.2555  -11.3008 C   0  0  0  0  0  0  0  0  0  0  0  0
   19.6236   62.7745  -11.4390 C   0  0  0  0  0  0  0  0  0  0  0  0
   22.7716   64.1461   -9.9612 C   0  0  0  0  0  0  0  0  0  0  0  0
  5  6  1  0  0  0
  6  7  2  0  0  0
  6 11  1  0  0  0
  7  8  1  0  0  0
  8  9  2  0  0  0
  8 16  1  0  0  0
  9 10  1  0  0  0
  9 12  1  0  0  0
 10 11  2  0  0  0
 11  1  1  0  0  0
  1  2  1  0  0  0
  2  3  2  0  0  0
  2 18  1  0  0  0
 18 19  2  0  0  0
 18 24  1  0  0  0
 19 20  1  0  0  0
 20 21  1  0  0  0
 20 26  1  0  0  0
 21 22  2  0  0  0
 21 23  1  0  0  0
 23 24  1  0  0  0
 26 27  2  0  0  0
 26 31  1  0  0  0
 27 28  1  0  0  0
 28 29  2  0  0  0
 29 30  1  0  0  0
 29 32  1  0  0  0
 30 31  2  0  0  0
 12 13  1  0  0  0
 13 14  1  0  0  0
 14 15  2  0  0  0
 14 16  1  0  0  0
  1  4  1  0  0  0
 24 25  1  0  0  0
 16 17  1  0  0  0
M  END
> <minimizedAffinity>
-8.68364

$$$$
2266


 27 30  0  0  0  0  0  0  0  0999 V2000
   17.7032   62.7858  -10.6059 N   0  0  0  0  0  0  0  0  0  0  0  0
   16.9512   61.5965  -10.6483 C   0  0  0  0  0  0  0  0  0  0  0  0
   15.4735   61.7936  -10.3728 C   0  0  0  0  0  0  0  0  0  0  0  0
   15.0191   62.8629  -11.3115 C   0  0  0  0  0  0  0  0  0  0  0  0
   15.8135   63.9875  -11.3970 C   0  0  0  0  0  0  0  0  0  0  0  0
   15.4627   64.9785  -12.2168 N   0  0  0  0  0  0  0  0  0  0  0  0
   14.3324   64.8420  -12.9394 C   0  0  0  0  0  0  0  0  0  0  0  0
   13.5415   63.7566  -12.8750 N   0  0  0  0  0  0  0  0  0  0  0  0
   12.4899   63.9005  -13.7030 N   0  0  0  0  0  0  0  0  0  0  0  0
   12.5603   65.0816  -14.3339 C   0  0  0  0  0  0  0  0  0  0  0  0
   13.7057   65.6833  -13.8690 C   0  0  0  0  0  0  0  0  0  0  0  0
   13.8665   62.7331  -12.0544 C   0  0  0  0  0  0  0  0  0  0  0  0
   13.1671   61.6931  -11.9505 O   0  0  0  0  0  0  0  0  0  0  0  0
   17.0299   64.0169  -10.5502 C   0  0  0  0  0  0  0  0  0  0  0  0
   11.7426   63.1783  -13.8171 H   0  0  0  0  0  0  0  0  0  0  0  0
   19.2851   62.7386  -11.1621 S   0  0  0  0  0  0  0  0  0  0  0  0
   19.6753   61.3507  -11.6497 O   0  0  0  0  0  0  0  0  0  0  0  0
   19.3687   63.6117  -12.4102 O   0  0  0  0  0  0  0  0  0  0  0  0
   20.5067   63.2523  -10.0633 C   0  0  0  0  0  0  0  0  0  0  0  0
   21.8212   63.4280  -10.4894 C   0  0  0  0  0  0  0  0  0  0  0  0
   22.7747   63.8373   -9.5831 C   0  0  0  0  0  0  0  0  0  0  0  0
   22.4804   64.0789   -8.2810 C   0  0  0  0  0  0  0  0  0  0  0  0
   21.2000   63.9159   -7.8319 C   0  0  0  0  0  0  0  0  0  0  0  0
   20.2446   63.5058   -8.7380 C   0  0  0  0  0  0  0  0  0  0  0  0
   20.7885   64.2237   -6.1412 Cl  0  0  0  0  0  0  0  0  0  0  0  0
   22.2037   63.2053  -11.7911 O   0  0  0  0  0  0  0  0  0  0  0  0
   23.5725   63.0417  -12.0854 C   0  0  0  0  0  0  0  0  0  0  0  0
 16 17  2  0  0  0
 16 18  2  0  0  0
 16  1  1  0  0  0
 16 19  1  0  0  0
  1  2  1  0  0  0
  1 14  1  0  0  0
  2  3  1  0  0  0
  3  4  1  0  0  0
  4  5  2  0  0  0
  4 12  1  0  0  0
  5  6  1  0  0  0
  5 14  1  0  0  0
  6  7  2  0  0  0
  7  8  1  0  0  0
  7 11  1  0  0  0
  8  9  1  0  0  0
  8 12  1  0  0  0
  9 10  1  0  0  0
 10 11  2  0  0  0
 12 13  2  0  0  0
 19 20  2  0  0  0
 19 24  1  0  0  0
 20 21  1  0  0  0
 20 26  1  0  0  0
 21 22  2  0  0  0
 22 23  1  0  0  0
 23 24  2  0  0  0
 23 25  1  0  0  0
 26 27  1  0  0  0
  9 15  1  0  0  0
M  END
> <minimizedAffinity>
-8.28436

$$$$
2267


 27 30  0  0  0  0  0  0  0  0999 V2000
   17.4899   62.7222  -10.4534 N   0  0  0  0  0  0  0  0  0  0  0  0
   16.8281   61.5012  -10.3375 C   0  0  0  0  0  0  0  0  0  0  0  0
   15.3316   61.6008  -10.5192 C   0  0  0  0  0  0  0  0  0  0  0  0
   14.9137   62.7301  -11.3823 C   0  0  0  0  0  0  0  0  0  0  0  0
   15.6384   63.8928  -11.2804 C   0  0  0  0  0  0  0  0  0  0  0  0
   15.3329   64.9656  -12.0194 N   0  0  0  0  0  0  0  0  0  0  0  0
   14.2766   64.9008  -12.8946 C   0  0  0  0  0  0  0  0  0  0  0  0
   13.5768   63.7508  -12.9810 N   0  0  0  0  0  0  0  0  0  0  0  0
   12.6165   63.9450  -13.8890 N   0  0  0  0  0  0  0  0  0  0  0  0
   12.6873   65.1770  -14.3774 C   0  0  0  0  0  0  0  0  0  0  0  0
   13.7504   65.8346  -13.7612 C   0  0  0  0  0  0  0  0  0  0  0  0
   13.8383   62.6488  -12.2665 C   0  0  0  0  0  0  0  0  0  0  0  0
   13.1865   61.5798  -12.3484 O   0  0  0  0  0  0  0  0  0  0  0  0
   16.7680   63.9340  -10.3370 C   0  0  0  0  0  0  0  0  0  0  0  0
   11.9047   63.2380  -14.1832 H   0  0  0  0  0  0  0  0  0  0  0  0
   18.9959   62.7733  -11.1689 S   0  0  0  0  0  0  0  0  0  0  0  0
   19.3682   61.3919  -11.6574 O   0  0  0  0  0  0  0  0  0  0  0  0
   19.0012   63.6717  -12.3701 O   0  0  0  0  0  0  0  0  0  0  0  0
   20.2865   63.2934  -10.1082 C   0  0  0  0  0  0  0  0  0  0  0  0
   20.1023   63.5163   -8.7544 C   0  0  0  0  0  0  0  0  0  0  0  0
   21.1621   63.9285   -7.9610 C   0  0  0  0  0  0  0  0  0  0  0  0
   22.4249   64.1314   -8.4681 C   0  0  0  0  0  0  0  0  0  0  0  0
   22.6094   63.9096   -9.8158 C   0  0  0  0  0  0  0  0  0  0  0  0
   21.5567   63.5003  -10.6040 C   0  0  0  0  0  0  0  0  0  0  0  0
   20.9110   64.2062   -6.2490 Cl  0  0  0  0  0  0  0  0  0  0  0  0
   23.4840   64.5484   -7.6459 O   0  0  0  0  0  0  0  0  0  0  0  0
   24.1673   63.5997   -6.8487 C   0  0  0  0  0  0  0  0  0  0  0  0
 16 17  2  0  0  0
 16 18  2  0  0  0
 16  1  1  0  0  0
 16 19  1  0  0  0
  1  2  1  0  0  0
  1 14  1  0  0  0
  2  3  1  0  0  0
  3  4  1  0  0  0
  4  5  2  0  0  0
  4 12  1  0  0  0
  5  6  1  0  0  0
  5 14  1  0  0  0
  6  7  2  0  0  0
  7  8  1  0  0  0
  7 11  1  0  0  0
  8  9  1  0  0  0
  8 12  1  0  0  0
  9 10  1  0  0  0
 10 11  2  0  0  0
 12 13  2  0  0  0
 19 20  2  0  0  0
 19 24  1  0  0  0
 20 21  1  0  0  0
 21 22  2  0  0  0
 21 25  1  0  0  0
 22 23  1  0  0  0
 22 26  1  0  0  0
 23 24  2  0  0  0
 26 27  1  0  0  0
  9 15  1  0  0  0
M  END
> <minimizedAffinity>
-8.49045

$$$$
2270


 22 24  0  0  0  0  0  0  0  0999 V2000
   19.9895   63.4082   -9.8919 C   0  0  0  0  0  0  0  0  0  0  0  0
   20.2089   64.5751  -10.3241 O   0  0  0  0  0  0  0  0  0  0  0  0
   20.9960   62.6720   -9.1947 N   0  0  0  0  0  0  0  0  0  0  0  0
   20.7710   61.7338   -8.8653 H   0  0  0  0  0  0  0  0  0  0  0  0
   14.4628   61.2690  -10.8187 Cl  0  0  0  0  0  0  0  0  0  0  0  0
   16.0979   61.8658  -10.5459 C   0  0  0  0  0  0  0  0  0  0  0  0
   16.3236   63.2252  -10.5053 C   0  0  0  0  0  0  0  0  0  0  0  0
   17.6077   63.6724  -10.2910 C   0  0  0  0  0  0  0  0  0  0  0  0
   18.6961   62.8124  -10.1113 C   0  0  0  0  0  0  0  0  0  0  0  0
   18.4628   61.4682  -10.1529 C   0  0  0  0  0  0  0  0  0  0  0  0
   17.1635   60.9953  -10.3698 C   0  0  0  0  0  0  0  0  0  0  0  0
   15.2628   64.1034  -10.6799 O   0  0  0  0  0  0  0  0  0  0  0  0
   14.9571   64.6465  -11.9497 C   0  0  0  0  0  0  0  0  0  0  0  0
   22.2687   63.3000   -8.9961 C   0  0  0  0  0  0  0  0  0  0  0  0
   22.5201   63.9151   -7.6776 C   0  0  0  0  0  0  0  0  0  0  0  0
   21.4611   64.6808   -7.0952 N   0  0  0  0  0  0  0  0  0  0  0  0
   21.5335   64.3956   -5.6415 C   0  0  0  0  0  0  0  0  0  0  0  0
   23.0238   64.5465   -5.3117 C   0  0  0  0  0  0  0  0  0  0  0  0
   23.7121   65.3880   -6.2696 N   0  0  0  0  0  0  0  0  0  0  0  0
   23.7732   64.7717   -7.5973 C   0  0  0  0  0  0  0  0  0  0  0  0
   22.8990   66.5795   -6.4410 C   0  0  0  0  0  0  0  0  0  0  0  0
   21.6380   66.1172   -7.1607 C   0  0  0  0  0  0  0  0  0  0  0  0
  5  6  1  0  0  0
  6  7  2  0  0  0
  6 11  1  0  0  0
  7  8  1  0  0  0
  7 12  1  0  0  0
  8  9  2  0  0  0
  9 10  1  0  0  0
  9  1  1  0  0  0
 10 11  2  0  0  0
  1  2  2  0  0  0
  1  3  1  0  0  0
  3 14  1  0  0  0
 14 15  1  0  0  0
 15 16  1  0  0  0
 15 20  1  0  0  0
 16 17  1  0  0  0
 16 22  1  0  0  0
 17 18  1  0  0  0
 18 19  1  0  0  0
 19 20  1  0  0  0
 19 21  1  0  0  0
 21 22  1  0  0  0
 12 13  1  0  0  0
  3  4  1  0  0  0
M  END
> <minimizedAffinity>
-7.76818

$$$$
2271


 27 30  0  0  0  0  0  0  0  0999 V2000
   21.6061   63.2196   -8.5205 C   0  0  0  0  0  0  0  0  0  0  0  0
   21.4781   62.8511   -9.8411 N   0  0  0  0  0  0  0  0  0  0  0  0
   20.1425   63.2643  -10.2187 C   0  0  0  0  0  0  0  0  0  0  0  0
   19.6041   63.8413  -11.2435 C   0  0  0  0  0  0  0  0  0  0  0  0
   18.1665   64.1471  -11.3567 C   0  0  0  0  0  0  0  0  0  0  0  0
   17.3315   63.7667  -10.1862 C   0  0  0  0  0  0  0  0  0  0  0  0
   17.9239   62.7086   -9.3180 C   0  0  0  0  0  0  0  0  0  0  0  0
   19.3451   62.8868   -9.1104 N   0  0  0  0  0  0  0  0  0  0  0  0
   20.2297   62.7657   -7.9549 C   0  0  0  0  0  0  0  0  0  0  0  0
   22.5164   62.3776   -7.8209 O   0  0  0  0  0  0  0  0  0  0  0  0
   21.3633   61.7718   -9.8411 H   0  0  0  0  0  0  0  0  0  0  0  0
   22.1248   61.4677   -7.8683 H   0  0  0  0  0  0  0  0  0  0  0  0
   22.3088   68.8437   -6.5567 Cl  0  0  0  0  0  0  0  0  0  0  0  0
   22.1185   67.2049   -7.1265 C   0  0  0  0  0  0  0  0  0  0  0  0
   22.9832   66.1765   -6.7739 C   0  0  0  0  0  0  0  0  0  0  0  0
   22.8167   64.9023   -7.2305 C   0  0  0  0  0  0  0  0  0  0  0  0
   21.7669   64.5878   -8.0718 C   0  0  0  0  0  0  0  0  0  0  0  0
   20.9084   65.5992   -8.4239 C   0  0  0  0  0  0  0  0  0  0  0  0
   21.0796   66.8918   -7.9594 C   0  0  0  0  0  0  0  0  0  0  0  0
   22.4243   63.1058  -10.8219 C   0  0  0  0  0  0  0  0  0  0  0  0
   23.7410   63.3611  -10.6406 C   0  0  0  0  0  0  0  0  0  0  0  0
   24.5742   63.5870  -11.7349 C   0  0  0  0  0  0  0  0  0  0  0  0
   24.1116   63.5623  -13.0397 C   0  0  0  0  0  0  0  0  0  0  0  0
   22.7664   63.2995  -13.1930 C   0  0  0  0  0  0  0  0  0  0  0  0
   21.9219   63.0740  -12.1386 C   0  0  0  0  0  0  0  0  0  0  0  0
   24.9739   63.7930  -14.0992 O   0  0  0  0  0  0  0  0  0  0  0  0
   26.3605   63.7605  -13.8786 C   0  0  0  0  0  0  0  0  0  0  0  0
 13 14  1  0  0  0
 14 15  2  0  0  0
 14 19  1  0  0  0
 15 16  1  0  0  0
 16 17  2  0  0  0
 17 18  1  0  0  0
 17  1  1  0  0  0
 18 19  2  0  0  0
  1  2  1  0  0  0
  1  9  1  0  0  0
  1 10  1  0  0  0
  2  3  1  0  0  0
  2 20  1  0  0  0
  3  4  2  0  0  0
  3  8  1  0  0  0
  4  5  1  0  0  0
  5  6  1  0  0  0
  6  7  1  0  0  0
  7  8  1  0  0  0
  8  9  1  0  0  0
 20 21  2  0  0  0
 20 25  1  0  0  0
 21 22  1  0  0  0
 22 23  2  0  0  0
 23 24  1  0  0  0
 23 26  1  0  0  0
 24 25  2  0  0  0
 26 27  1  0  0  0
  2 11  1  0  0  0
 10 12  1  0  0  0
M  CHG 1   2   1
M  END
> <minimizedAffinity>
-6.57844

$$$$
2272


 29 32  0  0  0  0  0  0  0  0999 V2000
   19.5708   63.1967  -10.9341 C   0  0  0  0  0  0  0  0  0  0  0  0
   19.7093   62.1530  -11.6798 O   0  0  0  0  0  0  0  0  0  0  0  0
   20.7579   63.7864  -10.4952 N   0  0  0  0  0  0  0  0  0  0  0  0
   20.8361   64.8454   -9.4714 C   0  0  0  0  0  0  0  0  0  0  0  0
   21.4820   64.0094   -8.3222 C   0  0  0  0  0  0  0  0  0  0  0  0
   22.8332   63.6618   -8.7394 N   0  0  0  0  0  0  0  0  0  0  0  0
   23.1618   63.5929  -10.0558 C   0  0  0  0  0  0  0  0  0  0  0  0
   22.0417   63.4503  -11.0466 C   0  0  0  0  0  0  0  0  0  0  0  0
   18.2039   63.5931  -10.6980 C   0  0  0  0  0  0  0  0  0  0  0  0
   17.2457   62.7204  -10.0256 C   0  0  0  0  0  0  0  0  0  0  0  0
   11.8043   64.8245  -13.9653 Cl  0  0  0  0  0  0  0  0  0  0  0  0
   13.0886   64.1506  -12.9927 C   0  0  0  0  0  0  0  0  0  0  0  0
   13.0893   62.8226  -12.6659 C   0  0  0  0  0  0  0  0  0  0  0  0
   14.1391   62.3070  -11.8949 C   0  0  0  0  0  0  0  0  0  0  0  0
   15.1762   63.0927  -11.4508 C   0  0  0  0  0  0  0  0  0  0  0  0
   15.1891   64.4593  -11.7813 C   0  0  0  0  0  0  0  0  0  0  0  0
   14.1357   64.9349  -12.5446 C   0  0  0  0  0  0  0  0  0  0  0  0
   16.0427   62.3604  -10.7560 N   0  0  0  0  0  0  0  0  0  0  0  0
   15.5239   61.0862  -10.7695 C   0  0  0  0  0  0  0  0  0  0  0  0
   16.0499   60.0804  -10.2115 O   0  0  0  0  0  0  0  0  0  0  0  0
   14.4056   61.1069  -11.4516 O   0  0  0  0  0  0  0  0  0  0  0  0
   23.4619   63.0408   -7.6725 C   0  0  0  0  0  0  0  0  0  0  0  0
   23.9577   64.0500   -6.6359 C   0  0  0  0  0  0  0  0  0  0  0  0
   24.3661   65.1587   -7.1541 O   0  0  0  0  0  0  0  0  0  0  0  0
   23.9573   63.7658   -5.3388 N   0  0  0  0  0  0  0  0  0  0  0  0
   24.2882   65.0436   -5.0187 H   0  0  0  0  0  0  0  0  0  0  0  0
   23.9571   63.4624   -3.9583 C   0  0  0  0  0  0  0  0  0  0  0  0
   25.3897   63.2922   -3.3228 C   0  0  0  0  0  0  0  0  0  0  0  0
   24.5386   62.1342   -3.5210 C   0  0  0  0  0  0  0  0  0  0  0  0
 11 12  1  0  0  0
 12 13  2  0  0  0
 12 17  1  0  0  0
 13 14  1  0  0  0
 14 15  2  0  0  0
 14 21  1  0  0  0
 15 16  1  0  0  0
 15 18  1  0  0  0
 16 17  2  0  0  0
 18 19  1  0  0  0
 18 10  1  0  0  0
 19 20  2  0  0  0
 19 21  1  0  0  0
 10  9  1  0  0  0
  9  1  1  0  0  0
  1  2  2  0  0  0
  1  3  1  0  0  0
  3  4  1  0  0  0
  3  8  1  0  0  0
  4  5  1  0  0  0
  5  6  1  0  0  0
  6  7  1  0  0  0
  6 22  1  0  0  0
  7  8  1  0  0  0
 22 23  1  0  0  0
 23 24  2  0  0  0
 23 25  1  0  0  0
 25 27  1  0  0  0
 27 28  1  0  0  0
 27 29  1  0  0  0
 28 29  1  0  0  0
 25 26  1  0  0  0
M  END
> <minimizedAffinity>
-9.24998

$$$$
2275


 21 23  0  0  0  0  0  0  0  0999 V2000
   23.5015   64.4905   -8.2665 Cl  0  0  0  0  0  0  0  0  0  0  0  0
   22.2403   63.9029   -9.3277 C   0  0  0  0  0  0  0  0  0  0  0  0
   22.4844   63.7585  -10.6778 C   0  0  0  0  0  0  0  0  0  0  0  0
   21.4475   63.2865  -11.4518 C   0  0  0  0  0  0  0  0  0  0  0  0
   21.5643   63.1160  -12.7039 O   0  0  0  0  0  0  0  0  0  0  0  0
   20.2680   62.9917  -10.8851 N   0  0  0  0  0  0  0  0  0  0  0  0
   19.9912   63.1137   -9.6018 N   0  0  0  0  0  0  0  0  0  0  0  0
   18.6976   62.7814   -9.0292 C   0  0  0  0  0  0  0  0  0  0  0  0
   17.6297   63.7917   -9.3916 C   0  0  0  0  0  0  0  0  0  0  0  0
   17.0758   63.5059  -10.7767 C   0  0  0  0  0  0  0  0  0  0  0  0
   18.1561   63.5951  -11.8300 C   0  0  0  0  0  0  0  0  0  0  0  0
   19.1747   62.4902  -11.7321 C   0  0  0  0  0  0  0  0  0  0  0  0
   18.5609   61.3590  -10.9868 C   0  0  0  0  0  0  0  0  0  0  0  0
   18.2830   61.4901   -9.6944 C   0  0  0  0  0  0  0  0  0  0  0  0
   21.0033   63.5805   -8.8121 C   0  0  0  0  0  0  0  0  0  0  0  0
   20.7645   63.7096   -7.5638 O   0  0  0  0  0  0  0  0  0  0  0  0
   23.7355   64.0756  -11.2804 N   0  0  0  0  0  0  0  0  0  0  0  0
   24.1301   65.0207  -10.9896 H   0  0  0  0  0  0  0  0  0  0  0  0
   24.4367   63.2239  -12.2021 C   0  0  0  0  0  0  0  0  0  0  0  0
   24.6688   63.9052  -13.5398 C   0  0  0  0  0  0  0  0  0  0  0  0
   25.7519   62.7239  -11.7052 C   0  0  0  0  0  0  0  0  0  0  0  0
  1  2  1  0  0  0
  2  3  2  0  0  0
  2 15  1  0  0  0
  3  4  1  0  0  0
  3 17  1  0  0  0
  4  5  2  0  0  0
  4  6  1  0  0  0
  6  7  1  0  0  0
  6 12  1  0  0  0
  7  8  1  0  0  0
  7 15  1  0  0  0
  8  9  1  0  0  0
  8 14  1  0  0  0
  9 10  1  0  0  0
 10 11  1  0  0  0
 11 12  1  0  0  0
 12 13  1  0  0  0
 13 14  2  0  0  0
 15 16  2  0  0  0
 17 19  1  0  0  0
 19 20  1  0  0  0
 19 21  1  0  0  0
 17 18  1  0  0  0
M  END
> <minimizedAffinity>
-6.90138

$$$$
2276


 21 24  0  0  0  0  0  0  0  0999 V2000
   24.0424   63.8459  -11.1840 Cl  0  0  0  0  0  0  0  0  0  0  0  0
   22.4327   63.6151  -10.5307 C   0  0  0  0  0  0  0  0  0  0  0  0
   22.2465   63.8257   -9.1804 C   0  0  0  0  0  0  0  0  0  0  0  0
   20.9380   63.6179   -8.7262 C   0  0  0  0  0  0  0  0  0  0  0  0
   20.7129   63.7942   -7.5132 O   0  0  0  0  0  0  0  0  0  0  0  0
   19.9624   63.2444   -9.5629 N   0  0  0  0  0  0  0  0  0  0  0  0
   20.1486   63.0439  -10.8586 N   0  0  0  0  0  0  0  0  0  0  0  0
   18.9781   62.6460  -11.6277 C   0  0  0  0  0  0  0  0  0  0  0  0
   18.4449   61.3826  -10.9777 C   0  0  0  0  0  0  0  0  0  0  0  0
   18.2775   61.5716   -9.5321 C   0  0  0  0  0  0  0  0  0  0  0  0
   18.5886   63.0140   -9.1101 C   0  0  0  0  0  0  0  0  0  0  0  0
   17.7556   63.8893  -10.0044 C   0  0  0  0  0  0  0  0  0  0  0  0
   17.9511   63.7047  -11.2990 C   0  0  0  0  0  0  0  0  0  0  0  0
   17.0621   61.3495  -10.4429 C   0  0  0  0  0  0  0  0  0  0  0  0
   21.3723   63.2258  -11.3438 C   0  0  0  0  0  0  0  0  0  0  0  0
   21.5594   63.0382  -12.5732 O   0  0  0  0  0  0  0  0  0  0  0  0
   23.2738   64.2281   -8.2788 N   0  0  0  0  0  0  0  0  0  0  0  0
   24.0736   64.7338   -8.7149 H   0  0  0  0  0  0  0  0  0  0  0  0
   23.2797   63.9935   -6.8810 C   0  0  0  0  0  0  0  0  0  0  0  0
   24.4905   63.2555   -6.3718 C   0  0  0  0  0  0  0  0  0  0  0  0
   23.1748   65.2701   -6.0583 C   0  0  0  0  0  0  0  0  0  0  0  0
  1  2  1  0  0  0
  2  3  2  0  0  0
  2 15  1  0  0  0
  3  4  1  0  0  0
  3 17  1  0  0  0
  4  5  2  0  0  0
  4  6  1  0  0  0
  6  7  1  0  0  0
  6 11  1  0  0  0
  7  8  1  0  0  0
  7 15  1  0  0  0
  8  9  1  0  0  0
  8 13  1  0  0  0
  9 10  1  0  0  0
  9 14  1  0  0  0
 10 11  1  0  0  0
 10 14  1  0  0  0
 11 12  1  0  0  0
 12 13  2  0  0  0
 15 16  2  0  0  0
 17 19  1  0  0  0
 19 20  1  0  0  0
 19 21  1  0  0  0
 17 18  1  0  0  0
M  END
> <minimizedAffinity>
-8.36885

$$$$
2281


 34 37  0  0  0  0  0  0  0  0999 V2000
   17.6681   62.3776   -9.8100 N   0  0  0  0  0  0  0  0  0  0  0  0
   18.3620   62.5558   -8.6053 C   0  0  0  0  0  0  0  0  0  0  0  0
   19.7830   63.1209   -8.9730 C   0  0  0  0  0  0  0  0  0  0  0  0
   19.9787   63.5470  -10.2681 N   0  0  0  0  0  0  0  0  0  0  0  0
   19.1981   62.9693  -11.3279 C   0  0  0  0  0  0  0  0  0  0  0  0
   18.5290   61.6452  -10.8333 C   0  0  0  0  0  0  0  0  0  0  0  0
   15.4738   60.3804  -10.5757 Cl  0  0  0  0  0  0  0  0  0  0  0  0
   15.5159   62.1577  -10.9135 C   0  0  0  0  0  0  0  0  0  0  0  0
   16.4821   62.8612  -10.3400 C   0  0  0  0  0  0  0  0  0  0  0  0
   16.4365   64.3186  -10.6115 C   0  0  0  0  0  0  0  0  0  0  0  0
   15.5082   64.7526  -11.3780 N   0  0  0  0  0  0  0  0  0  0  0  0
   14.5450   63.9919  -11.9612 N   0  0  0  0  0  0  0  0  0  0  0  0
   14.5336   62.7065  -11.7387 C   0  0  0  0  0  0  0  0  0  0  0  0
   13.6808   61.9022  -12.2470 O   0  0  0  0  0  0  0  0  0  0  0  0
   13.7502   64.6281  -13.0104 C   0  0  0  0  0  0  0  0  0  0  0  0
   12.3975   64.5280  -13.0710 C   0  0  0  0  0  0  0  0  0  0  0  0
   11.6662   65.2373  -13.9990 C   0  0  0  0  0  0  0  0  0  0  0  0
   12.2997   66.0845  -14.9068 C   0  0  0  0  0  0  0  0  0  0  0  0
   13.6900   66.1606  -14.8261 C   0  0  0  0  0  0  0  0  0  0  0  0
   14.3822   65.4614  -13.9154 C   0  0  0  0  0  0  0  0  0  0  0  0
   21.3779   63.3847  -10.7873 C   0  0  0  0  0  0  0  0  0  0  0  0
   22.3189   63.9998   -9.8631 C   0  0  0  0  0  0  0  0  0  0  0  0
   22.6037   65.0452   -9.5909 O   0  0  0  0  0  0  0  0  0  0  0  0
   23.1635   62.7880   -9.0051 N   0  0  0  0  0  0  0  0  0  0  0  0
   23.7071   63.7337   -7.9674 C   0  0  0  0  0  0  0  0  0  0  0  0
   23.9897   64.8858   -8.1502 O   0  0  0  0  0  0  0  0  0  0  0  0
   23.8292   63.0602   -6.6950 N   0  0  0  0  0  0  0  0  0  0  0  0
   22.8832   62.3069   -9.5418 H   0  0  0  0  0  0  0  0  0  0  0  0
   23.5697   62.0179   -6.7046 H   0  0  0  0  0  0  0  0  0  0  0  0
   24.2682   63.6077   -5.4673 C   0  0  0  0  0  0  0  0  0  0  0  0
   23.5378   63.2976   -4.2253 C   0  0  0  0  0  0  0  0  0  0  0  0
   24.1961   62.0630   -3.6013 C   0  0  0  0  0  0  0  0  0  0  0  0
   25.6406   62.2734   -3.9905 C   0  0  0  0  0  0  0  0  0  0  0  0
   25.6771   63.0168   -5.2522 C   0  0  0  0  0  0  0  0  0  0  0  0
  7  8  1  0  0  0
  8  9  2  0  0  0
  8 13  1  0  0  0
  9 10  1  0  0  0
  9  1  1  0  0  0
 10 11  2  0  0  0
 11 12  1  0  0  0
 12 13  1  0  0  0
 12 15  1  0  0  0
 13 14  2  0  0  0
 15 16  2  0  0  0
 15 20  1  0  0  0
 16 17  1  0  0  0
 17 18  2  0  0  0
 18 19  1  0  0  0
 19 20  2  0  0  0
  1  2  1  0  0  0
  1  6  1  0  0  0
  2  3  1  0  0  0
  3  4  1  0  0  0
  4  5  1  0  0  0
  4 21  1  0  0  0
  5  6  1  0  0  0
 21 22  1  0  0  0
 22 23  2  0  0  0
 22 24  1  0  0  0
 24 25  1  0  0  0
 25 26  2  0  0  0
 25 27  1  0  0  0
 27 30  1  0  0  0
 30 31  1  0  0  0
 30 34  1  0  0  0
 31 32  1  0  0  0
 32 33  1  0  0  0
 33 34  1  0  0  0
 24 28  1  0  0  0
 27 29  1  0  0  0
M  END
> <minimizedAffinity>
-9.07789

$$$$
2282


 31 34  0  0  0  0  0  0  0  0999 V2000
   22.1265   63.2580   -9.0696 N   0  0  0  0  0  0  0  0  0  0  0  0
   22.7102   62.4012   -8.0654 C   0  0  0  0  0  0  0  0  0  0  0  0
   23.5513   63.2112   -7.1293 C   0  0  0  0  0  0  0  0  0  0  0  0
   23.2678   64.6006   -7.3898 N   0  0  0  0  0  0  0  0  0  0  0  0
   23.8084   64.9493   -8.6539 C   0  0  0  0  0  0  0  0  0  0  0  0
   22.9551   64.2459   -9.7139 C   0  0  0  0  0  0  0  0  0  0  0  0
   21.6418   63.3045  -11.9909 Cl  0  0  0  0  0  0  0  0  0  0  0  0
   20.3740   63.1714  -10.7909 C   0  0  0  0  0  0  0  0  0  0  0  0
   20.7636   63.1671   -9.4546 C   0  0  0  0  0  0  0  0  0  0  0  0
   19.7405   63.0619   -8.5368 C   0  0  0  0  0  0  0  0  0  0  0  0
   18.4629   62.9709   -8.9457 N   0  0  0  0  0  0  0  0  0  0  0  0
   18.0724   62.9736  -10.2081 N   0  0  0  0  0  0  0  0  0  0  0  0
   19.0407   63.0748  -11.1381 C   0  0  0  0  0  0  0  0  0  0  0  0
   18.6929   63.0799  -12.3524 O   0  0  0  0  0  0  0  0  0  0  0  0
   16.6890   62.8699  -10.5694 C   0  0  0  0  0  0  0  0  0  0  0  0
   16.0963   61.6337  -10.6841 C   0  0  0  0  0  0  0  0  0  0  0  0
   14.7465   61.5205  -11.0356 C   0  0  0  0  0  0  0  0  0  0  0  0
   13.9744   62.6340  -11.2760 C   0  0  0  0  0  0  0  0  0  0  0  0
   14.5596   63.8758  -11.1626 C   0  0  0  0  0  0  0  0  0  0  0  0
   15.9022   63.9753  -10.8134 C   0  0  0  0  0  0  0  0  0  0  0  0
   23.4416   65.4891   -6.3113 C   0  0  0  0  0  0  0  0  0  0  0  0
   22.7286   66.7639   -6.4432 C   0  0  0  0  0  0  0  0  0  0  0  0
   21.5108   66.6877   -6.8218 O   0  0  0  0  0  0  0  0  0  0  0  0
   23.2603   68.0514   -6.1898 N   0  0  0  0  0  0  0  0  0  0  0  0
   24.2488   68.1084   -5.8717 H   0  0  0  0  0  0  0  0  0  0  0  0
   22.5178   69.2781   -6.3329 C   0  0  0  0  0  0  0  0  0  0  0  0
   23.3559   70.4280   -5.8662 C   0  0  0  0  0  0  0  0  0  0  0  0
   23.7663   70.1999   -4.5797 O   0  0  0  0  0  0  0  0  0  0  0  0
   25.1310   70.2265   -4.4885 C   0  0  0  0  0  0  0  0  0  0  0  0
   25.5381   71.1530   -5.6148 C   0  0  0  0  0  0  0  0  0  0  0  0
   24.6138   70.5893   -6.7077 C   0  0  0  0  0  0  0  0  0  0  0  0
  7  8  1  0  0  0
  8  9  2  0  0  0
  8 13  1  0  0  0
  9 10  1  0  0  0
  9  1  1  0  0  0
 10 11  2  0  0  0
 11 12  1  0  0  0
 12 13  1  0  0  0
 12 15  1  0  0  0
 13 14  2  0  0  0
 15 16  2  0  0  0
 15 20  1  0  0  0
 16 17  1  0  0  0
 17 18  2  0  0  0
 18 19  1  0  0  0
 19 20  2  0  0  0
  1  2  1  0  0  0
  1  6  1  0  0  0
  2  3  1  0  0  0
  3  4  1  0  0  0
  4  5  1  0  0  0
  4 21  1  0  0  0
  5  6  1  0  0  0
 21 22  1  0  0  0
 22 23  2  0  0  0
 22 24  1  0  0  0
 24 26  1  0  0  0
 26 27  1  0  0  0
 27 28  1  0  0  0
 27 31  1  0  0  0
 28 29  1  0  0  0
 29 30  1  0  0  0
 30 31  1  0  0  0
 24 25  1  0  0  0
M  END
> <minimizedAffinity>
-8.02523

$$$$
2284


 33 37  0  0  0  0  0  0  0  0999 V2000
   20.0420   63.1841   -9.0122 C   0  0  0  0  0  0  0  0  0  0  0  0
   21.2242   63.4423   -8.3473 C   0  0  0  0  0  0  0  0  0  0  0  0
   22.4503   63.5542   -8.9518 C   0  0  0  0  0  0  0  0  0  0  0  0
   23.4734   63.7955   -8.2307 O   0  0  0  0  0  0  0  0  0  0  0  0
   22.5488   63.4066  -10.3064 N   0  0  0  0  0  0  0  0  0  0  0  0
   23.6217   63.4867  -10.9875 N   0  0  0  0  0  0  0  0  0  0  0  0
   23.6442   63.3358  -12.2787 C   0  0  0  0  0  0  0  0  0  0  0  0
   21.9655   63.0481  -12.5655 S   0  0  0  0  0  0  0  0  0  0  0  0
   21.4044   63.1574  -10.9463 C   0  0  0  0  0  0  0  0  0  0  0  0
   20.1986   63.0472  -10.3466 N   0  0  0  0  0  0  0  0  0  0  0  0
   24.7404   63.3837  -13.2537 C   0  0  0  0  0  0  0  0  0  0  0  0
   26.0385   63.3760  -12.7904 C   0  0  0  0  0  0  0  0  0  0  0  0
   27.1186   63.4194  -13.6611 C   0  0  0  0  0  0  0  0  0  0  0  0
   26.8993   63.4705  -15.0221 C   0  0  0  0  0  0  0  0  0  0  0  0
   25.6041   63.4791  -15.5108 C   0  0  0  0  0  0  0  0  0  0  0  0
   24.5660   63.4356  -14.6084 C   0  0  0  0  0  0  0  0  0  0  0  0
   28.2388   63.5249  -16.1217 Cl  0  0  0  0  0  0  0  0  0  0  0  0
   18.7415   63.0720   -8.3093 C   0  0  0  0  0  0  0  0  0  0  0  0
   15.9150   62.8562  -11.3361 N   0  0  0  0  0  0  0  0  0  0  0  0
   16.4635   61.6599  -10.8661 C   0  0  0  0  0  0  0  0  0  0  0  0
   17.8296   61.9067  -10.2176 C   0  0  0  0  0  0  0  0  0  0  0  0
   17.7027   62.9511   -9.2815 N   0  0  0  0  0  0  0  0  0  0  0  0
   17.2177   64.1662   -9.8163 C   0  0  0  0  0  0  0  0  0  0  0  0
   16.7727   63.9628  -11.2472 C   0  0  0  0  0  0  0  0  0  0  0  0
   14.2742   63.0617  -11.4715 S   0  0  0  0  0  0  0  0  0  0  0  0
   13.7810   63.8490  -10.2615 O   0  0  0  0  0  0  0  0  0  0  0  0
   13.5312   61.7538  -11.5612 O   0  0  0  0  0  0  0  0  0  0  0  0
   13.8711   64.0460  -12.8606 C   0  0  0  0  0  0  0  0  0  0  0  0
   14.5835   65.0998  -13.3476 N   0  0  0  0  0  0  0  0  0  0  0  0
   13.9734   65.6152  -14.4163 C   0  0  0  0  0  0  0  0  0  0  0  0
   12.8521   64.9252  -14.6675 N   0  0  0  0  0  0  0  0  0  0  0  0
   12.7931   63.9612  -13.7083 C   0  0  0  0  0  0  0  0  0  0  0  0
   12.1768   65.0943  -15.4308 H   0  0  0  0  0  0  0  0  0  0  0  0
 25 26  2  0  0  0
 25 27  2  0  0  0
 25 19  1  0  0  0
 25 28  1  0  0  0
 19 20  1  0  0  0
 19 24  1  0  0  0
 20 21  1  0  0  0
 21 22  1  0  0  0
 22 23  1  0  0  0
 22 18  1  0  0  0
 23 24  1  0  0  0
 18  1  1  0  0  0
  1  2  2  0  0  0
  1 10  1  0  0  0
  2  3  1  0  0  0
  3  4  2  0  0  0
  3  5  1  0  0  0
  5  6  1  0  0  0
  5  9  1  0  0  0
  6  7  2  0  0  0
  7  8  1  0  0  0
  7 11  1  0  0  0
  8  9  1  0  0  0
  9 10  2  0  0  0
 11 12  2  0  0  0
 11 16  1  0  0  0
 12 13  1  0  0  0
 13 14  2  0  0  0
 14 15  1  0  0  0
 14 17  1  0  0  0
 15 16  2  0  0  0
 28 29  1  0  0  0
 28 32  2  0  0  0
 29 30  2  0  0  0
 30 31  1  0  0  0
 31 32  1  0  0  0
 31 33  1  0  0  0
M  END
> <minimizedAffinity>
-9.07006

$$$$
2285


 32 35  0  0  0  0  0  0  0  0999 V2000
   19.2096   63.4365  -10.6307 N   0  0  0  0  0  0  0  0  0  0  0  0
   19.5945   64.2113   -9.4888 C   0  0  0  0  0  0  0  0  0  0  0  0
   20.9411   64.9405   -9.6499 C   0  0  0  0  0  0  0  0  0  0  0  0
   21.9078   63.9403   -9.9789 N   0  0  0  0  0  0  0  0  0  0  0  0
   21.6017   63.4468  -11.2929 C   0  0  0  0  0  0  0  0  0  0  0  0
   20.3736   62.6019  -11.0937 C   0  0  0  0  0  0  0  0  0  0  0  0
   18.0910   62.1994  -10.0106 S   0  0  0  0  0  0  0  0  0  0  0  0
   18.6280   60.8537  -10.4598 O   0  0  0  0  0  0  0  0  0  0  0  0
   18.0880   62.2680   -8.5249 O   0  0  0  0  0  0  0  0  0  0  0  0
   16.4996   62.3987  -10.6311 C   0  0  0  0  0  0  0  0  0  0  0  0
   16.2260   63.6622  -11.1719 C   0  0  0  0  0  0  0  0  0  0  0  0
   15.0238   63.9830  -11.8079 C   0  0  0  0  0  0  0  0  0  0  0  0
   14.0509   62.9929  -11.9077 C   0  0  0  0  0  0  0  0  0  0  0  0
   14.3336   61.7535  -11.3633 C   0  0  0  0  0  0  0  0  0  0  0  0
   15.5341   61.4452  -10.7365 C   0  0  0  0  0  0  0  0  0  0  0  0
   12.8901   63.3768  -12.5531 O   0  0  0  0  0  0  0  0  0  0  0  0
   13.0266   64.2466  -13.7091 C   0  0  0  0  0  0  0  0  0  0  0  0
   14.0251   65.3372  -13.5046 C   0  0  0  0  0  0  0  0  0  0  0  0
   14.7876   65.2448  -12.3261 O   0  0  0  0  0  0  0  0  0  0  0  0
   23.2001   64.0598   -9.4986 C   0  0  0  0  0  0  0  0  0  0  0  0
   23.3717   64.3012   -8.0643 C   0  0  0  0  0  0  0  0  0  0  0  0
   24.0986   65.3612   -7.8149 O   0  0  0  0  0  0  0  0  0  0  0  0
   22.9127   63.6399   -6.9616 N   0  0  0  0  0  0  0  0  0  0  0  0
   22.3389   62.7329   -6.9933 H   0  0  0  0  0  0  0  0  0  0  0  0
   23.0884   64.0909   -5.5793 C   0  0  0  0  0  0  0  0  0  0  0  0
   24.1090   63.2479   -4.9247 C   0  0  0  0  0  0  0  0  0  0  0  0
   23.9544   62.8275   -3.5836 C   0  0  0  0  0  0  0  0  0  0  0  0
   24.9157   62.1791   -2.9074 C   0  0  0  0  0  0  0  0  0  0  0  0
   26.1645   61.8781   -3.5360 C   0  0  0  0  0  0  0  0  0  0  0  0
   26.3309   62.2767   -4.8009 C   0  0  0  0  0  0  0  0  0  0  0  0
   25.3467   62.9579   -5.5276 C   0  0  0  0  0  0  0  0  0  0  0  0
   22.4013   63.1644   -2.7794 Cl  0  0  0  0  0  0  0  0  0  0  0  0
  7  8  2  0  0  0
  7  9  2  0  0  0
  7  1  1  0  0  0
  7 10  1  0  0  0
  1  2  1  0  0  0
  1  6  1  0  0  0
  2  3  1  0  0  0
  3  4  1  0  0  0
  4  5  1  0  0  0
  4 20  1  0  0  0
  5  6  1  0  0  0
 20 21  1  0  0  0
 21 22  2  0  0  0
 21 23  1  0  0  0
 23 25  1  0  0  0
 25 26  1  0  0  0
 26 27  2  0  0  0
 26 31  1  0  0  0
 27 28  1  0  0  0
 27 32  1  0  0  0
 28 29  2  0  0  0
 29 30  1  0  0  0
 30 31  2  0  0  0
 10 11  2  0  0  0
 10 15  1  0  0  0
 11 12  1  0  0  0
 12 13  2  0  0  0
 12 19  1  0  0  0
 13 14  1  0  0  0
 13 16  1  0  0  0
 14 15  2  0  0  0
 16 17  1  0  0  0
 17 18  1  0  0  0
 18 19  1  0  0  0
 23 24  1  0  0  0
M  END
> <minimizedAffinity>
-8.68145

$$$$
2286


 31 34  0  0  0  0  0  0  0  0999 V2000
   17.0663   62.8949  -10.0774 N   0  0  0  0  0  0  0  0  0  0  0  0
   16.5844   64.1958   -9.7846 C   0  0  0  0  0  0  0  0  0  0  0  0
   15.7582   64.8103  -10.8832 C   0  0  0  0  0  0  0  0  0  0  0  0
   14.8908   63.8428  -11.5214 N   0  0  0  0  0  0  0  0  0  0  0  0
   14.7618   62.5614  -10.8538 C   0  0  0  0  0  0  0  0  0  0  0  0
   16.1088   61.9564  -10.5436 C   0  0  0  0  0  0  0  0  0  0  0  0
   14.2374   64.1747  -12.7146 C   0  0  0  0  0  0  0  0  0  0  0  0
   14.4149   65.3121  -13.2119 O   0  0  0  0  0  0  0  0  0  0  0  0
   18.5588   62.8511  -10.9130 S   0  0  0  0  0  0  0  0  0  0  0  0
   18.4996   63.7888  -12.0796 O   0  0  0  0  0  0  0  0  0  0  0  0
   18.8530   61.4758  -11.4351 O   0  0  0  0  0  0  0  0  0  0  0  0
   19.9109   63.2885   -9.8550 C   0  0  0  0  0  0  0  0  0  0  0  0
   21.4920   63.7387  -10.2835 S   0  0  0  0  0  0  0  0  0  0  0  0
   22.1398   63.9866   -8.7308 C   0  0  0  0  0  0  0  0  0  0  0  0
   21.0874   63.7069   -7.9005 C   0  0  0  0  0  0  0  0  0  0  0  0
   19.9247   63.3432   -8.4879 C   0  0  0  0  0  0  0  0  0  0  0  0
   23.7787   64.4860   -8.2602 Cl  0  0  0  0  0  0  0  0  0  0  0  0
   13.3349   63.2274  -13.4185 C   0  0  0  0  0  0  0  0  0  0  0  0
   12.3922   63.9049  -14.2647 N   0  0  0  0  0  0  0  0  0  0  0  0
   12.3131   63.7401  -15.6724 C   0  0  0  0  0  0  0  0  0  0  0  0
   13.0690   62.9720  -16.3575 O   0  0  0  0  0  0  0  0  0  0  0  0
   11.2829   64.5410  -16.2369 N   0  0  0  0  0  0  0  0  0  0  0  0
   10.8190   65.4273  -15.1859 C   0  0  0  0  0  0  0  0  0  0  0  0
    9.3225   65.4350  -15.0663 C   0  0  0  0  0  0  0  0  0  0  0  0
    8.6445   66.3870  -16.0068 C   0  0  0  0  0  0  0  0  0  0  0  0
    9.2191   67.7728  -15.9818 C   0  0  0  0  0  0  0  0  0  0  0  0
   10.4268   67.8823  -15.0769 C   0  0  0  0  0  0  0  0  0  0  0  0
   11.3991   66.7924  -15.4703 C   0  0  0  0  0  0  0  0  0  0  0  0
   11.3737   64.8415  -13.9399 C   0  0  0  0  0  0  0  0  0  0  0  0
   11.0256   65.1061  -12.7648 O   0  0  0  0  0  0  0  0  0  0  0  0
   10.8012   64.4640  -17.6157 C   0  0  0  0  0  0  0  0  0  0  0  0
  9 10  2  0  0  0
  9 11  2  0  0  0
  9  1  1  0  0  0
  9 12  1  0  0  0
  1  2  1  0  0  0
  1  6  1  0  0  0
  2  3  1  0  0  0
  3  4  1  0  0  0
  4  5  1  0  0  0
  4  7  1  0  0  0
  5  6  1  0  0  0
  7  8  2  0  0  0
  7 18  1  0  0  0
 18 19  1  0  0  0
 19 20  1  0  0  0
 19 29  1  0  0  0
 20 21  2  0  0  0
 20 22  1  0  0  0
 22 23  1  0  0  0
 22 31  1  0  0  0
 23 24  1  0  0  0
 23 28  1  0  0  0
 23 29  1  0  0  0
 24 25  1  0  0  0
 25 26  1  0  0  0
 26 27  1  0  0  0
 27 28  1  0  0  0
 29 30  2  0  0  0
 12 13  1  0  0  0
 12 16  2  0  0  0
 13 14  1  0  0  0
 14 15  2  0  0  0
 14 17  1  0  0  0
 15 16  1  0  0  0
M  END
> <minimizedAffinity>
-7.07398

$$$$
2298


 34 37  0  0  0  0  0  0  0  0999 V2000
   15.1325   64.8989  -12.1615 C   0  0  0  0  0  0  0  0  0  0  0  0
   17.3471   62.8116  -10.4107 N   0  0  0  0  0  0  0  0  0  0  0  0
   16.2001   62.0459  -10.3969 C   0  0  0  0  0  0  0  0  0  0  0  0
   15.1069   62.7089  -11.1907 C   0  0  0  0  0  0  0  0  0  0  0  0
   14.9514   64.1039  -10.9818 N   0  0  0  0  0  0  0  0  0  0  0  0
   15.7483   64.5629   -9.8898 C   0  0  0  0  0  0  0  0  0  0  0  0
   17.2072   64.1678  -10.0980 C   0  0  0  0  0  0  0  0  0  0  0  0
   18.8507   62.2061  -10.7785 S   0  0  0  0  0  0  0  0  0  0  0  0
   19.0176   60.7455  -10.4384 O   0  0  0  0  0  0  0  0  0  0  0  0
   19.2264   62.3254  -12.2386 O   0  0  0  0  0  0  0  0  0  0  0  0
   20.0814   63.0561   -9.8486 C   0  0  0  0  0  0  0  0  0  0  0  0
   20.0413   63.0905   -8.4823 C   0  0  0  0  0  0  0  0  0  0  0  0
   20.9963   63.7503   -7.7544 C   0  0  0  0  0  0  0  0  0  0  0  0
   22.0166   64.3928   -8.4209 C   0  0  0  0  0  0  0  0  0  0  0  0
   22.0600   64.3604   -9.8019 C   0  0  0  0  0  0  0  0  0  0  0  0
   21.0988   63.6961  -10.5203 C   0  0  0  0  0  0  0  0  0  0  0  0
   23.2239   65.2288   -7.4604 Cl  0  0  0  0  0  0  0  0  0  0  0  0
   13.9820   64.7281  -13.1115 C   0  0  0  0  0  0  0  0  0  0  0  0
   13.1874   63.7923  -12.8751 O   0  0  0  0  0  0  0  0  0  0  0  0
   13.8088   65.5909  -14.2229 N   0  0  0  0  0  0  0  0  0  0  0  0
   14.5145   66.3624  -14.3636 H   0  0  0  0  0  0  0  0  0  0  0  0
   12.6824   65.3536  -15.0781 C   0  0  0  0  0  0  0  0  0  0  0  0
   11.7001   66.4536  -15.2045 C   0  0  0  0  0  0  0  0  0  0  0  0
   11.8274   67.0873  -16.5681 C   0  0  0  0  0  0  0  0  0  0  0  0
   12.8049   68.2670  -16.5688 C   0  0  0  0  0  0  0  0  0  0  0  0
   12.2399   69.4145  -15.7555 C   0  0  0  0  0  0  0  0  0  0  0  0
   11.4090   68.8105  -14.6383 C   0  0  0  0  0  0  0  0  0  0  0  0
   12.1337   67.5509  -14.2126 C   0  0  0  0  0  0  0  0  0  0  0  0
   10.3464   66.1732  -14.9160 N   0  0  0  0  0  0  0  0  0  0  0  0
    9.4238   66.1147  -15.9936 C   0  0  0  0  0  0  0  0  0  0  0  0
    8.0261   66.2418  -15.3604 C   0  0  0  0  0  0  0  0  0  0  0  0
    7.7859   65.1741  -14.5294 O   0  0  0  0  0  0  0  0  0  0  0  0
    8.8307   64.2911  -14.4225 C   0  0  0  0  0  0  0  0  0  0  0  0
   10.1482   64.9962  -14.0979 C   0  0  0  0  0  0  0  0  0  0  0  0
  8  9  2  0  0  0
  8 10  2  0  0  0
  8  2  1  0  0  0
  8 11  1  0  0  0
  2  3  1  0  0  0
  2  7  1  0  0  0
  3  4  1  0  0  0
  4  5  1  0  0  0
  5  6  1  0  0  0
  5  1  1  0  0  0
  6  7  1  0  0  0
  1 18  1  0  0  0
 18 19  2  0  0  0
 18 20  1  0  0  0
 20 22  1  0  0  0
 22 23  1  0  0  0
 23 24  1  0  0  0
 23 28  1  0  0  0
 23 29  1  0  0  0
 24 25  1  0  0  0
 25 26  1  0  0  0
 26 27  1  0  0  0
 27 28  1  0  0  0
 29 30  1  0  0  0
 29 34  1  0  0  0
 30 31  1  0  0  0
 31 32  1  0  0  0
 32 33  1  0  0  0
 33 34  1  0  0  0
 11 12  2  0  0  0
 11 16  1  0  0  0
 12 13  1  0  0  0
 13 14  2  0  0  0
 14 15  1  0  0  0
 14 17  1  0  0  0
 15 16  2  0  0  0
 20 21  1  0  0  0
M  END
> <minimizedAffinity>
-7.64515

$$$$
2301


 24 27  0  0  0  0  0  0  0  0999 V2000
   22.9803   64.8693   -7.3262 C   0  0  0  0  0  0  0  0  0  0  0  0
   21.5035   64.9728   -7.1334 C   0  0  0  0  0  0  0  0  0  0  0  0
   20.8187   63.6416   -7.4895 C   0  0  0  0  0  0  0  0  0  0  0  0
   21.0802   63.5193   -8.9310 N   0  0  0  0  0  0  0  0  0  0  0  0
   22.4560   63.3362   -9.2703 C   0  0  0  0  0  0  0  0  0  0  0  0
   23.3682   64.3628   -8.6647 C   0  0  0  0  0  0  0  0  0  0  0  0
   23.4729   66.1952   -7.2193 O   0  0  0  0  0  0  0  0  0  0  0  0
   23.3651   66.6153   -8.1277 H   0  0  0  0  0  0  0  0  0  0  0  0
   19.9894   63.5922   -9.8304 C   0  0  0  0  0  0  0  0  0  0  0  0
   18.7719   63.9275   -9.3703 N   0  0  0  0  0  0  0  0  0  0  0  0
   17.6840   64.0397  -10.1069 N   0  0  0  0  0  0  0  0  0  0  0  0
   16.4085   64.3560   -9.8678 N   0  0  0  0  0  0  0  0  0  0  0  0
   15.7078   64.3240  -10.9792 N   0  0  0  0  0  0  0  0  0  0  0  0
   16.5207   63.9909  -11.9440 N   0  0  0  0  0  0  0  0  0  0  0  0
   17.7564   63.8096  -11.4165 C   0  0  0  0  0  0  0  0  0  0  0  0
   18.9786   63.4590  -11.9640 C   0  0  0  0  0  0  0  0  0  0  0  0
   20.1059   63.3459  -11.1781 C   0  0  0  0  0  0  0  0  0  0  0  0
   25.6732   61.7582   -2.9161 Cl  0  0  0  0  0  0  0  0  0  0  0  0
   24.8837   62.6760   -4.1818 C   0  0  0  0  0  0  0  0  0  0  0  0
   23.8590   63.5740   -3.9141 C   0  0  0  0  0  0  0  0  0  0  0  0
   23.2142   64.3008   -4.8762 C   0  0  0  0  0  0  0  0  0  0  0  0
   23.5777   64.1580   -6.1842 C   0  0  0  0  0  0  0  0  0  0  0  0
   24.6053   63.2654   -6.4852 C   0  0  0  0  0  0  0  0  0  0  0  0
   25.2441   62.5390   -5.4990 C   0  0  0  0  0  0  0  0  0  0  0  0
 18 19  1  0  0  0
 19 20  2  0  0  0
 19 24  1  0  0  0
 20 21  1  0  0  0
 21 22  2  0  0  0
 22 23  1  0  0  0
 22  1  1  0  0  0
 23 24  2  0  0  0
  1  2  1  0  0  0
  1  6  1  0  0  0
  1  7  1  0  0  0
  2  3  1  0  0  0
  3  4  1  0  0  0
  4  5  1  0  0  0
  4  9  1  0  0  0
  5  6  1  0  0  0
  9 10  2  0  0  0
  9 17  1  0  0  0
 10 11  1  0  0  0
 11 12  1  0  0  0
 11 15  1  0  0  0
 12 13  2  0  0  0
 13 14  1  0  0  0
 14 15  2  0  0  0
 15 16  1  0  0  0
 16 17  2  0  0  0
  7  8  1  0  0  0
M  END
> <minimizedAffinity>
-9.46521

$$$$
2304


 28 31  0  0  0  0  0  0  0  0999 V2000
   14.0688   63.5460  -12.5797 N   0  0  0  0  0  0  0  0  0  0  0  0
   14.4357   64.8919  -12.8076 C   0  0  0  0  0  0  0  0  0  0  0  0
   13.6586   65.5873  -13.8943 C   0  0  0  0  0  0  0  0  0  0  0  0
   12.2522   65.2996  -13.8550 N   0  0  0  0  0  0  0  0  0  0  0  0
   11.8298   64.2186  -13.0001 C   0  0  0  0  0  0  0  0  0  0  0  0
   12.8547   63.1003  -13.1681 C   0  0  0  0  0  0  0  0  0  0  0  0
   11.3562   66.0529  -14.6313 C   0  0  0  0  0  0  0  0  0  0  0  0
   11.8447   66.9678  -15.3531 O   0  0  0  0  0  0  0  0  0  0  0  0
    9.8829   65.8404  -14.6537 C   0  0  0  0  0  0  0  0  0  0  0  0
    9.5324   64.6472  -15.3325 N   0  0  0  0  0  0  0  0  0  0  0  0
    9.3003   64.7569  -16.7360 C   0  0  0  0  0  0  0  0  0  0  0  0
    8.6470   66.4310  -16.9023 S   0  0  0  0  0  0  0  0  0  0  0  0
    9.1444   67.0104  -15.2320 C   0  0  0  0  0  0  0  0  0  0  0  0
    8.1433   63.8019  -16.9588 C   0  0  0  0  0  0  0  0  0  0  0  0
    8.6713   62.5985  -16.1667 C   0  0  0  0  0  0  0  0  0  0  0  0
    9.3238   63.2476  -15.0325 C   0  0  0  0  0  0  0  0  0  0  0  0
    9.6423   62.6413  -13.9656 O   0  0  0  0  0  0  0  0  0  0  0  0
   10.4500   64.4673  -17.6160 C   0  0  0  0  0  0  0  0  0  0  0  0
   14.4010   62.9425  -11.0291 S   0  0  0  0  0  0  0  0  0  0  0  0
   13.6560   63.7109   -9.9833 O   0  0  0  0  0  0  0  0  0  0  0  0
   13.9045   61.5196  -10.9564 O   0  0  0  0  0  0  0  0  0  0  0  0
   16.1234   62.8917  -10.6647 C   0  0  0  0  0  0  0  0  0  0  0  0
   16.7839   61.6867  -10.5750 C   0  0  0  0  0  0  0  0  0  0  0  0
   18.1273   61.6118  -10.2908 C   0  0  0  0  0  0  0  0  0  0  0  0
   18.8818   62.7520  -10.0808 C   0  0  0  0  0  0  0  0  0  0  0  0
   18.1898   63.9477  -10.1776 C   0  0  0  0  0  0  0  0  0  0  0  0
   16.8498   64.0375  -10.4611 C   0  0  0  0  0  0  0  0  0  0  0  0
   20.5937   62.6934   -9.7166 Cl  0  0  0  0  0  0  0  0  0  0  0  0
 19 20  2  0  0  0
 19 21  2  0  0  0
 19  1  1  0  0  0
 19 22  1  0  0  0
  1  2  1  0  0  0
  1  6  1  0  0  0
  2  3  1  0  0  0
  3  4  1  0  0  0
  4  5  1  0  0  0
  4  7  1  0  0  0
  5  6  1  0  0  0
  7  8  2  0  0  0
  7  9  1  0  0  0
  9 10  1  0  0  0
  9 13  1  0  0  0
 10 11  1  0  0  0
 10 16  1  0  0  0
 11 12  1  0  0  0
 11 14  1  0  0  0
 11 18  1  0  0  0
 12 13  1  0  0  0
 14 15  1  0  0  0
 15 16  1  0  0  0
 16 17  2  0  0  0
 22 23  2  0  0  0
 22 27  1  0  0  0
 23 24  1  0  0  0
 24 25  2  0  0  0
 25 26  1  0  0  0
 25 28  1  0  0  0
 26 27  2  0  0  0
M  END
> <minimizedAffinity>
-6.12605

$$$$
2319


 33 36  0  0  0  0  0  0  0  0999 V2000
   16.9362   63.5270  -10.1041 N   0  0  0  0  0  0  0  0  0  0  0  0
   18.2853   63.3105  -10.4625 C   0  0  0  0  0  0  0  0  0  0  0  0
   18.7119   63.6806  -11.5760 O   0  0  0  0  0  0  0  0  0  0  0  0
   16.5127   63.2452   -9.1944 H   0  0  0  0  0  0  0  0  0  0  0  0
   11.0112   61.9272  -14.3333 Br  0  0  0  0  0  0  0  0  0  0  0  0
   12.2523   63.3018  -13.8499 C   0  0  0  0  0  0  0  0  0  0  0  0
   13.2606   63.0792  -12.9346 C   0  0  0  0  0  0  0  0  0  0  0  0
   14.1653   64.0651  -12.5790 C   0  0  0  0  0  0  0  0  0  0  0  0
   14.0089   65.2911  -13.1880 C   0  0  0  0  0  0  0  0  0  0  0  0
   13.0153   65.5513  -14.1047 C   0  0  0  0  0  0  0  0  0  0  0  0
   12.1183   64.5539  -14.4502 C   0  0  0  0  0  0  0  0  0  0  0  0
   12.8542   67.2756  -14.9141 Br  0  0  0  0  0  0  0  0  0  0  0  0
   15.1230   63.5688  -11.6020 C   0  0  0  0  0  0  0  0  0  0  0  0
   16.1039   64.1612  -11.0314 N   0  0  0  0  0  0  0  0  0  0  0  0
   14.7527   62.1700  -11.3603 C   0  0  0  0  0  0  0  0  0  0  0  0
   15.3643   61.4093  -10.5633 O   0  0  0  0  0  0  0  0  0  0  0  0
   13.6297   61.9273  -12.1842 N   0  0  0  0  0  0  0  0  0  0  0  0
   13.1331   61.0219  -12.2373 H   0  0  0  0  0  0  0  0  0  0  0  0
   19.2593   62.6383   -9.5454 C   0  0  0  0  0  0  0  0  0  0  0  0
   20.0305   63.5877   -8.7910 N   0  0  0  0  0  0  0  0  0  0  0  0
   21.4516   63.6155   -8.8082 C   0  0  0  0  0  0  0  0  0  0  0  0
   22.0530   62.7755   -9.5125 O   0  0  0  0  0  0  0  0  0  0  0  0
   19.5672   64.3091   -8.1900 H   0  0  0  0  0  0  0  0  0  0  0  0
   22.2666   64.5939   -8.0275 C   0  0  0  0  0  0  0  0  0  0  0  0
   23.5313   64.0891   -7.7166 O   0  0  0  0  0  0  0  0  0  0  0  0
   23.9518   63.7256   -6.4392 C   0  0  0  0  0  0  0  0  0  0  0  0
   23.2355   64.2254   -5.3838 C   0  0  0  0  0  0  0  0  0  0  0  0
   23.6347   63.8787   -4.0929 C   0  0  0  0  0  0  0  0  0  0  0  0
   24.7139   63.0607   -3.8476 C   0  0  0  0  0  0  0  0  0  0  0  0
   25.4119   62.5760   -4.9367 C   0  0  0  0  0  0  0  0  0  0  0  0
   25.0228   62.9141   -6.2117 C   0  0  0  0  0  0  0  0  0  0  0  0
   22.1617   65.0395   -5.6169 O   0  0  0  0  0  0  0  0  0  0  0  0
   21.5283   65.1513   -6.8614 C   0  0  0  0  0  0  0  0  0  0  0  0
  5  6  1  0  0  0
  6  7  2  0  0  0
  6 11  1  0  0  0
  7  8  1  0  0  0
  7 17  1  0  0  0
  8  9  2  0  0  0
  8 13  1  0  0  0
  9 10  1  0  0  0
 10 11  2  0  0  0
 10 12  1  0  0  0
 13 14  2  0  0  0
 13 15  1  0  0  0
 14  1  1  0  0  0
  1  2  1  0  0  0
  2  3  2  0  0  0
  2 19  1  0  0  0
 19 20  1  0  0  0
 20 21  1  0  0  0
 21 22  2  0  0  0
 21 24  1  0  0  0
 24 25  1  0  0  0
 24 33  1  0  0  0
 25 26  1  0  0  0
 26 27  2  0  0  0
 26 31  1  0  0  0
 27 28  1  0  0  0
 27 32  1  0  0  0
 28 29  2  0  0  0
 29 30  1  0  0  0
 30 31  2  0  0  0
 32 33  1  0  0  0
 15 16  2  0  0  0
 15 17  1  0  0  0
  1  4  1  0  0  0
 20 23  1  0  0  0
 17 18  1  0  0  0
M  END
> <minimizedAffinity>
-9.66903

$$$$
2330


 28 31  0  0  0  0  0  0  0  0999 V2000
   21.6413   63.1777   -9.1469 C   0  0  0  0  0  0  0  0  0  0  0  0
   22.3431   63.0529  -10.1767 O   0  0  0  0  0  0  0  0  0  0  0  0
   20.3206   62.7258   -9.1598 N   0  0  0  0  0  0  0  0  0  0  0  0
   19.8084   62.8711   -8.2175 H   0  0  0  0  0  0  0  0  0  0  0  0
   20.8060   65.9837   -8.5472 Cl  0  0  0  0  0  0  0  0  0  0  0  0
   21.9789   65.0958   -7.5859 C   0  0  0  0  0  0  0  0  0  0  0  0
   22.2749   63.8052   -7.9726 C   0  0  0  0  0  0  0  0  0  0  0  0
   23.1974   63.1261   -7.2056 C   0  0  0  0  0  0  0  0  0  0  0  0
   23.8221   63.6503   -6.1043 C   0  0  0  0  0  0  0  0  0  0  0  0
   23.4881   64.9631   -5.7532 C   0  0  0  0  0  0  0  0  0  0  0  0
   22.5782   65.6882   -6.4768 C   0  0  0  0  0  0  0  0  0  0  0  0
   24.7945   62.9151   -5.3084 C   0  0  0  0  0  0  0  0  0  0  0  0
   24.6247   62.2463   -4.1642 N   0  0  0  0  0  0  0  0  0  0  0  0
   25.8012   61.7193   -3.7882 N   0  0  0  0  0  0  0  0  0  0  0  0
   26.7089   62.0531   -4.6883 N   0  0  0  0  0  0  0  0  0  0  0  0
   26.0934   62.7841   -5.6202 N   0  0  0  0  0  0  0  0  0  0  0  0
   25.9886   61.1432   -2.9356 H   0  0  0  0  0  0  0  0  0  0  0  0
   19.5562   62.1245  -10.1748 C   0  0  0  0  0  0  0  0  0  0  0  0
   18.6829   60.9788   -9.8898 C   0  0  0  0  0  0  0  0  0  0  0  0
   17.2659   61.0467  -10.2365 C   0  0  0  0  0  0  0  0  0  0  0  0
   16.5243   62.1410  -10.4383 N   0  0  0  0  0  0  0  0  0  0  0  0
   15.3023   61.7594  -10.7739 C   0  0  0  0  0  0  0  0  0  0  0  0
   15.2813   60.4201  -10.7810 N   0  0  0  0  0  0  0  0  0  0  0  0
   16.4710   59.9931  -10.4554 N   0  0  0  0  0  0  0  0  0  0  0  0
   14.2945   62.6589  -11.0494 C   0  0  0  0  0  0  0  0  0  0  0  0
   14.6031   64.0040  -10.9633 C   0  0  0  0  0  0  0  0  0  0  0  0
   15.8692   64.3890  -10.6152 C   0  0  0  0  0  0  0  0  0  0  0  0
   16.8252   63.4519  -10.3550 C   0  0  0  0  0  0  0  0  0  0  0  0
  5  6  1  0  0  0
  6  7  2  0  0  0
  6 11  1  0  0  0
  7  8  1  0  0  0
  7  1  1  0  0  0
  8  9  2  0  0  0
  9 10  1  0  0  0
  9 12  1  0  0  0
 10 11  2  0  0  0
 12 13  2  0  0  0
 12 16  1  0  0  0
 13 14  1  0  0  0
 14 15  1  0  0  0
 15 16  2  0  0  0
  1  2  2  0  0  0
  1  3  1  0  0  0
  3 18  1  0  0  0
 18 19  1  0  0  0
 19 20  1  0  0  0
 20 21  1  0  0  0
 20 24  2  0  0  0
 21 22  1  0  0  0
 21 28  1  0  0  0
 22 23  2  0  0  0
 22 25  1  0  0  0
 23 24  1  0  0  0
 25 26  2  0  0  0
 26 27  1  0  0  0
 27 28  2  0  0  0
 14 17  1  0  0  0
  3  4  1  0  0  0
M  END
> <minimizedAffinity>
-10.14790

$$$$
2334


 30 33  0  0  0  0  0  0  0  0999 V2000
   18.2872   61.9967   -9.9652 S   0  0  0  0  0  0  0  0  0  0  0  0
   18.0288   62.1700   -8.4666 O   0  0  0  0  0  0  0  0  0  0  0  0
   18.2410   60.4788  -10.1763 O   0  0  0  0  0  0  0  0  0  0  0  0
   19.8668   62.5356  -10.3507 C   0  0  0  0  0  0  0  0  0  0  0  0
   20.2857   62.7450  -11.6418 C   0  0  0  0  0  0  0  0  0  0  0  0
   21.5561   63.2448  -11.8857 C   0  0  0  0  0  0  0  0  0  0  0  0
   22.4342   63.5427  -10.8400 C   0  0  0  0  0  0  0  0  0  0  0  0
   22.0283   63.3348   -9.5409 C   0  0  0  0  0  0  0  0  0  0  0  0
   20.7650   62.8392   -9.3198 C   0  0  0  0  0  0  0  0  0  0  0  0
   19.3225   62.3366  -13.0455 Cl  0  0  0  0  0  0  0  0  0  0  0  0
   22.9241   63.6350   -8.4321 C   0  0  0  0  0  0  0  0  0  0  0  0
   23.3338   64.8573   -8.0529 N   0  0  0  0  0  0  0  0  0  0  0  0
   24.1303   64.7594   -7.0244 O   0  0  0  0  0  0  0  0  0  0  0  0
   24.2620   63.4989   -6.7070 C   0  0  0  0  0  0  0  0  0  0  0  0
   23.5172   62.7882   -7.5751 N   0  0  0  0  0  0  0  0  0  0  0  0
   25.0887   62.9323   -5.5853 C   0  0  0  0  0  0  0  0  0  0  0  0
   16.9899   62.7355  -10.7665 N   0  0  0  0  0  0  0  0  0  0  0  0
   15.7579   62.7983  -10.0641 C   0  0  0  0  0  0  0  0  0  0  0  0
   14.6653   63.5008  -10.8359 C   0  0  0  0  0  0  0  0  0  0  0  0
   15.1070   64.8658  -11.2379 C   0  0  0  0  0  0  0  0  0  0  0  0
   16.4693   64.8413  -11.9094 C   0  0  0  0  0  0  0  0  0  0  0  0
   17.4286   64.1222  -11.0268 C   0  0  0  0  0  0  0  0  0  0  0  0
   14.0740   62.6907  -11.9199 C   0  0  0  0  0  0  0  0  0  0  0  0
   14.2182   61.4191  -11.7901 O   0  0  0  0  0  0  0  0  0  0  0  0
   13.3904   63.1442  -13.0394 N   0  0  0  0  0  0  0  0  0  0  0  0
   12.8330   62.2430  -13.9987 C   0  0  0  0  0  0  0  0  0  0  0  0
   11.5278   62.7097  -14.5803 C   0  0  0  0  0  0  0  0  0  0  0  0
   11.3156   64.0524  -14.5431 O   0  0  0  0  0  0  0  0  0  0  0  0
   11.6893   64.7093  -13.3892 C   0  0  0  0  0  0  0  0  0  0  0  0
   13.2169   64.5508  -13.3081 C   0  0  0  0  0  0  0  0  0  0  0  0
  1  2  2  0  0  0
  1  3  2  0  0  0
  1 17  1  0  0  0
  1  4  1  0  0  0
 17 18  1  0  0  0
 17 22  1  0  0  0
 18 19  1  0  0  0
 19 20  1  0  0  0
 19 23  1  0  0  0
 20 21  1  0  0  0
 21 22  1  0  0  0
 23 24  2  0  0  0
 23 25  1  0  0  0
 25 26  1  0  0  0
 25 30  1  0  0  0
 26 27  1  0  0  0
 27 28  1  0  0  0
 28 29  1  0  0  0
 29 30  1  0  0  0
  4  5  2  0  0  0
  4  9  1  0  0  0
  5  6  1  0  0  0
  5 10  1  0  0  0
  6  7  2  0  0  0
  7  8  1  0  0  0
  8  9  2  0  0  0
  8 11  1  0  0  0
 11 12  2  0  0  0
 11 15  1  0  0  0
 12 13  1  0  0  0
 13 14  1  0  0  0
 14 15  2  0  0  0
 14 16  1  0  0  0
M  END
> <minimizedAffinity>
-7.38987

$$$$
2335


 35 38  0  0  0  0  0  0  0  0999 V2000
   13.5254   63.5695  -13.4465 N   0  0  0  0  0  0  0  0  0  0  0  0
   13.9975   62.3826  -12.8520 C   0  0  0  0  0  0  0  0  0  0  0  0
   13.9975   62.4203  -11.3391 C   0  0  0  0  0  0  0  0  0  0  0  0
   14.1399   63.7779  -10.7656 C   0  0  0  0  0  0  0  0  0  0  0  0
   14.6333   64.8462  -11.6715 C   0  0  0  0  0  0  0  0  0  0  0  0
   14.1455   64.7701  -13.0959 C   0  0  0  0  0  0  0  0  0  0  0  0
   15.0412   61.5196  -10.7863 C   0  0  0  0  0  0  0  0  0  0  0  0
   14.7068   60.3490  -10.4798 O   0  0  0  0  0  0  0  0  0  0  0  0
   16.3970   61.9895  -10.6134 N   0  0  0  0  0  0  0  0  0  0  0  0
   16.5604   62.9621  -10.8856 H   0  0  0  0  0  0  0  0  0  0  0  0
   17.3409   61.0750  -10.0826 C   0  0  0  0  0  0  0  0  0  0  0  0
   18.7859   61.3639  -10.2357 C   0  0  0  0  0  0  0  0  0  0  0  0
   19.2068   62.7007  -10.4352 N   0  0  0  0  0  0  0  0  0  0  0  0
   20.0536   62.9755  -11.5023 C   0  0  0  0  0  0  0  0  0  0  0  0
   21.4393   63.4409  -11.1594 C   0  0  0  0  0  0  0  0  0  0  0  0
   21.4577   64.3119  -10.0802 O   0  0  0  0  0  0  0  0  0  0  0  0
   20.9950   63.5886   -8.9813 C   0  0  0  0  0  0  0  0  0  0  0  0
   19.5146   63.3699   -9.1928 C   0  0  0  0  0  0  0  0  0  0  0  0
   12.2213   63.5226  -14.4758 S   0  0  0  0  0  0  0  0  0  0  0  0
   11.2047   62.5211  -13.9305 O   0  0  0  0  0  0  0  0  0  0  0  0
   12.6670   62.8951  -15.7909 O   0  0  0  0  0  0  0  0  0  0  0  0
   11.4507   65.0251  -14.8275 C   0  0  0  0  0  0  0  0  0  0  0  0
   12.2068   66.1287  -15.1921 C   0  0  0  0  0  0  0  0  0  0  0  0
   11.6413   67.3435  -15.4954 C   0  0  0  0  0  0  0  0  0  0  0  0
   10.2489   67.4742  -15.4332 C   0  0  0  0  0  0  0  0  0  0  0  0
    9.5181   66.3892  -15.0752 C   0  0  0  0  0  0  0  0  0  0  0  0
   10.0899   65.1650  -14.7704 C   0  0  0  0  0  0  0  0  0  0  0  0
    8.9472   63.6927  -14.2690 Br  0  0  0  0  0  0  0  0  0  0  0  0
    9.8424   68.8593  -15.7946 C   0  0  0  0  0  0  0  0  0  0  0  0
   11.1228   69.6282  -15.5407 C   0  0  0  0  0  0  0  0  0  0  0  0
   12.1241   68.6171  -15.8992 N   0  0  0  0  0  0  0  0  0  0  0  0
   13.3273   68.9225  -16.5321 C   0  0  0  0  0  0  0  0  0  0  0  0
   13.5773   70.1314  -16.8681 O   0  0  0  0  0  0  0  0  0  0  0  0
   14.3568   67.9364  -16.8530 C   0  0  0  0  0  0  0  0  0  0  0  0
   15.5251   68.5562  -17.6159 C   0  0  0  0  0  0  0  0  0  0  0  0
 19 20  2  0  0  0
 19 21  2  0  0  0
 19  1  1  0  0  0
 19 22  1  0  0  0
  1  2  1  0  0  0
  1  6  1  0  0  0
  2  3  1  0  0  0
  3  4  1  0  0  0
  3  7  1  0  0  0
  4  5  1  0  0  0
  5  6  1  0  0  0
  7  8  2  0  0  0
  7  9  1  0  0  0
  9 11  1  0  0  0
 11 12  1  0  0  0
 12 13  1  0  0  0
 13 14  1  0  0  0
 13 18  1  0  0  0
 14 15  1  0  0  0
 15 16  1  0  0  0
 16 17  1  0  0  0
 17 18  1  0  0  0
 22 23  2  0  0  0
 22 27  1  0  0  0
 23 24  1  0  0  0
 24 25  2  0  0  0
 24 31  1  0  0  0
 25 26  1  0  0  0
 25 29  1  0  0  0
 26 27  2  0  0  0
 27 28  1  0  0  0
 29 30  1  0  0  0
 30 31  1  0  0  0
 31 32  1  0  0  0
 32 33  2  0  0  0
 32 34  1  0  0  0
 34 35  1  0  0  0
  9 10  1  0  0  0
M  END
> <minimizedAffinity>
-7.53249

$$$$
2345


 27 30  0  0  0  0  0  0  0  0999 V2000
   13.6603   65.0395  -13.6286 C   0  0  0  0  0  0  0  0  0  0  0  0
   14.7443   64.8654  -14.3012 O   0  0  0  0  0  0  0  0  0  0  0  0
   12.6663   65.8049  -14.2472 N   0  0  0  0  0  0  0  0  0  0  0  0
   12.8898   66.3650  -15.5703 C   0  0  0  0  0  0  0  0  0  0  0  0
   12.7166   67.8804  -15.5463 C   0  0  0  0  0  0  0  0  0  0  0  0
   11.6843   68.2169  -14.6109 N   0  0  0  0  0  0  0  0  0  0  0  0
   10.6677   67.2492  -14.3308 C   0  0  0  0  0  0  0  0  0  0  0  0
   11.3891   66.0795  -13.6327 C   0  0  0  0  0  0  0  0  0  0  0  0
   15.5062   63.5742  -11.1699 N   0  0  0  0  0  0  0  0  0  0  0  0
   14.7235   64.7873  -11.3731 C   0  0  0  0  0  0  0  0  0  0  0  0
   13.5996   64.4175  -12.3004 C   0  0  0  0  0  0  0  0  0  0  0  0
   13.4894   62.9294  -12.2857 C   0  0  0  0  0  0  0  0  0  0  0  0
   14.5837   62.4853  -11.3912 C   0  0  0  0  0  0  0  0  0  0  0  0
   14.7775   61.3490  -10.8484 O   0  0  0  0  0  0  0  0  0  0  0  0
   21.3135   63.1205   -9.7414 Cl  0  0  0  0  0  0  0  0  0  0  0  0
   19.6047   63.2507  -10.1562 C   0  0  0  0  0  0  0  0  0  0  0  0
   18.6352   62.9898   -9.2247 C   0  0  0  0  0  0  0  0  0  0  0  0
   17.2989   63.0958   -9.5632 C   0  0  0  0  0  0  0  0  0  0  0  0
   16.8833   63.4619  -10.8254 C   0  0  0  0  0  0  0  0  0  0  0  0
   17.8702   63.7223  -11.7524 C   0  0  0  0  0  0  0  0  0  0  0  0
   19.2281   63.6168  -11.4187 C   0  0  0  0  0  0  0  0  0  0  0  0
   11.6692   69.4732  -13.9684 C   0  0  0  0  0  0  0  0  0  0  0  0
   11.2570   70.6560  -14.5026 N   0  0  0  0  0  0  0  0  0  0  0  0
   11.3878   71.6192  -13.5807 C   0  0  0  0  0  0  0  0  0  0  0  0
   11.8932   71.0518  -12.4350 C   0  0  0  0  0  0  0  0  0  0  0  0
   12.0472   69.7684  -12.7090 N   0  0  0  0  0  0  0  0  0  0  0  0
   10.7539   70.8426  -15.8700 C   0  0  0  0  0  0  0  0  0  0  0  0
 15 16  1  0  0  0
 16 17  2  0  0  0
 16 21  1  0  0  0
 17 18  1  0  0  0
 18 19  2  0  0  0
 19 20  1  0  0  0
 19  9  1  0  0  0
 20 21  2  0  0  0
  9 10  1  0  0  0
  9 13  1  0  0  0
 10 11  1  0  0  0
 11 12  1  0  0  0
 11  1  1  0  0  0
 12 13  1  0  0  0
 13 14  2  0  0  0
  1  2  2  0  0  0
  1  3  1  0  0  0
  3  4  1  0  0  0
  3  8  1  0  0  0
  4  5  1  0  0  0
  5  6  1  0  0  0
  6  7  1  0  0  0
  6 22  1  0  0  0
  7  8  1  0  0  0
 22 23  1  0  0  0
 22 26  2  0  0  0
 23 24  1  0  0  0
 23 27  1  0  0  0
 24 25  2  0  0  0
 25 26  1  0  0  0
M  END
> <minimizedAffinity>
-7.07622

$$$$
2349


 28 31  0  0  0  0  0  0  0  0999 V2000
   22.1835   63.4947  -10.5838 N   0  0  0  0  0  0  0  0  0  0  0  0
   22.6543   63.9006   -9.2904 C   0  0  0  0  0  0  0  0  0  0  0  0
   23.8688   64.2219   -9.1584 O   0  0  0  0  0  0  0  0  0  0  0  0
   21.7041   63.9115   -8.2393 N   0  0  0  0  0  0  0  0  0  0  0  0
   20.4926   63.5868   -8.3501 C   0  0  0  0  0  0  0  0  0  0  0  0
   19.8217   63.1187   -9.6118 C   0  0  0  0  0  0  0  0  0  0  0  0
   19.4480   61.6903   -9.3327 C   0  0  0  0  0  0  0  0  0  0  0  0
   18.3808   61.1403  -10.0753 N   0  0  0  0  0  0  0  0  0  0  0  0
   17.2712   61.9897  -10.2977 C   0  0  0  0  0  0  0  0  0  0  0  0
   17.4125   63.3360  -10.1926 C   0  0  0  0  0  0  0  0  0  0  0  0
   16.2984   64.1394  -10.4204 C   0  0  0  0  0  0  0  0  0  0  0  0
   15.0871   63.5621  -10.7432 C   0  0  0  0  0  0  0  0  0  0  0  0
   14.9439   62.1869  -10.8494 C   0  0  0  0  0  0  0  0  0  0  0  0
   16.0672   61.3946  -10.6190 C   0  0  0  0  0  0  0  0  0  0  0  0
   13.8683   64.3983  -10.9836 C   0  0  0  0  0  0  0  0  0  0  0  0
   18.6770   64.0252   -9.8554 C   0  0  0  0  0  0  0  0  0  0  0  0
   18.7555   60.4874  -11.3200 C   0  0  0  0  0  0  0  0  0  0  0  0
   20.8158   63.1498  -10.7122 C   0  0  0  0  0  0  0  0  0  0  0  0
   20.4665   62.8504  -11.9102 O   0  0  0  0  0  0  0  0  0  0  0  0
   19.6380   63.6438   -7.2333 O   0  0  0  0  0  0  0  0  0  0  0  0
   17.9807   60.3415   -9.4853 H   0  0  0  0  0  0  0  0  0  0  0  0
   26.1600   63.3026  -15.0993 Cl  0  0  0  0  0  0  0  0  0  0  0  0
   25.0222   63.3454  -13.7656 C   0  0  0  0  0  0  0  0  0  0  0  0
   23.6576   63.5212  -13.9973 C   0  0  0  0  0  0  0  0  0  0  0  0
   22.7564   63.5651  -12.9681 C   0  0  0  0  0  0  0  0  0  0  0  0
   23.1332   63.4396  -11.6294 C   0  0  0  0  0  0  0  0  0  0  0  0
   24.4897   63.2643  -11.4103 C   0  0  0  0  0  0  0  0  0  0  0  0
   25.3964   63.2202  -12.4419 C   0  0  0  0  0  0  0  0  0  0  0  0
 22 23  1  0  0  0
 23 24  2  0  0  0
 23 28  1  0  0  0
 24 25  1  0  0  0
 25 26  2  0  0  0
 26 27  1  0  0  0
 26  1  1  0  0  0
 27 28  2  0  0  0
  1  2  1  0  0  0
  1 18  1  0  0  0
  2  3  2  0  0  0
  2  4  1  0  0  0
  4  5  2  0  0  0
  5  6  1  0  0  0
  5 20  1  0  0  0
  6  7  1  0  0  0
  6 16  1  0  0  0
  6 18  1  0  0  0
  7  8  1  0  0  0
  8  9  1  0  0  0
  8 17  1  0  0  0
  9 10  2  0  0  0
  9 14  1  0  0  0
 10 11  1  0  0  0
 10 16  1  0  0  0
 11 12  2  0  0  0
 12 13  1  0  0  0
 12 15  1  0  0  0
 13 14  2  0  0  0
 18 19  2  0  0  0
  8 21  1  0  0  0
M  CHG 1   8   1
M  CHG 1  20  -1
M  END
> <minimizedAffinity>
-6.33409

$$$$
2350


 23 26  0  0  0  0  0  0  0  0999 V2000
   21.9634   64.3435   -8.6834 N   0  0  0  0  0  0  0  0  0  0  0  0
   22.1393   63.5563   -9.8726 C   0  0  0  0  0  0  0  0  0  0  0  0
   23.0466   62.6968  -10.0035 O   0  0  0  0  0  0  0  0  0  0  0  0
   21.1163   63.9050  -10.8898 C   0  0  0  0  0  0  0  0  0  0  0  0
   20.1830   62.7841  -11.2143 C   0  0  0  0  0  0  0  0  0  0  0  0
   20.0478   61.9337   -9.9687 C   0  0  0  0  0  0  0  0  0  0  0  0
   19.3539   62.9035   -9.0136 C   0  0  0  0  0  0  0  0  0  0  0  0
   19.0362   64.1357   -9.8285 C   0  0  0  0  0  0  0  0  0  0  0  0
   20.2460   64.9458  -10.1741 C   0  0  0  0  0  0  0  0  0  0  0  0
   21.0454   65.3773   -9.0021 C   0  0  0  0  0  0  0  0  0  0  0  0
   20.9061   66.4795   -8.4174 O   0  0  0  0  0  0  0  0  0  0  0  0
   18.7980   63.4524  -11.1942 C   0  0  0  0  0  0  0  0  0  0  0  0
   18.1276   62.3946   -8.5909 O   0  0  0  0  0  0  0  0  0  0  0  0
   19.1606   60.9161  -10.2459 O   0  0  0  0  0  0  0  0  0  0  0  0
   18.2933   61.8960   -7.7353 H   0  0  0  0  0  0  0  0  0  0  0  0
   19.2979   60.4664  -11.1117 H   0  0  0  0  0  0  0  0  0  0  0  0
   24.4313   63.6654   -3.2621 Cl  0  0  0  0  0  0  0  0  0  0  0  0
   23.7162   63.8530   -4.8620 C   0  0  0  0  0  0  0  0  0  0  0  0
   22.4683   64.4285   -5.0085 C   0  0  0  0  0  0  0  0  0  0  0  0
   21.8931   64.5876   -6.2465 C   0  0  0  0  0  0  0  0  0  0  0  0
   22.5587   64.1690   -7.4050 C   0  0  0  0  0  0  0  0  0  0  0  0
   23.7977   63.6013   -7.2204 C   0  0  0  0  0  0  0  0  0  0  0  0
   24.3966   63.4304   -5.9950 C   0  0  0  0  0  0  0  0  0  0  0  0
 17 18  1  0  0  0
 18 19  2  0  0  0
 18 23  1  0  0  0
 19 20  1  0  0  0
 20 21  2  0  0  0
 21 22  1  0  0  0
 21  1  1  0  0  0
 22 23  2  0  0  0
  1  2  1  0  0  0
  1 10  1  0  0  0
  2  3  2  0  0  0
  2  4  1  0  0  0
  4  5  1  0  0  0
  4  9  1  0  0  0
  5  6  1  0  0  0
  5 12  1  0  0  0
  6  7  1  0  0  0
  6 14  1  0  0  0
  7  8  1  0  0  0
  7 13  1  0  0  0
  8  9  1  0  0  0
  8 12  1  0  0  0
  9 10  1  0  0  0
 10 11  2  0  0  0
 13 15  1  0  0  0
 14 16  1  0  0  0
M  END
> <minimizedAffinity>
-6.52083

$$$$
2357


 36 39  0  0  0  0  0  0  0  0999 V2000
   18.3647   63.2288  -10.8560 C   0  0  0  0  0  0  0  0  0  0  0  0
   17.9936   64.1452  -11.7286 C   0  0  0  0  0  0  0  0  0  0  0  0
   16.8817   64.9559  -11.1719 C   0  0  0  0  0  0  0  0  0  0  0  0
   16.9833   64.7055   -9.7612 N   0  0  0  0  0  0  0  0  0  0  0  0
   17.5301   63.4139   -9.7177 N   0  0  0  0  0  0  0  0  0  0  0  0
   16.1175   64.8117   -9.2353 H   0  0  0  0  0  0  0  0  0  0  0  0
   17.3444   62.7192   -8.9671 H   0  0  0  0  0  0  0  0  0  0  0  0
   21.4120   63.1007   -9.6747 N   0  0  0  0  0  0  0  0  0  0  0  0
   21.9474   63.6433  -10.8734 C   0  0  0  0  0  0  0  0  0  0  0  0
   22.9608   64.4177  -10.7600 O   0  0  0  0  0  0  0  0  0  0  0  0
   21.3828   63.3357  -12.1151 N   0  0  0  0  0  0  0  0  0  0  0  0
   20.2641   62.4765  -12.2076 C   0  0  0  0  0  0  0  0  0  0  0  0
   19.9548   61.9509  -13.2944 O   0  0  0  0  0  0  0  0  0  0  0  0
   19.4483   62.1966  -11.0048 C   0  0  0  0  0  0  0  0  0  0  0  0
   20.2882   62.2399   -9.7840 C   0  0  0  0  0  0  0  0  0  0  0  0
   19.9946   61.4968   -8.8316 O   0  0  0  0  0  0  0  0  0  0  0  0
   21.8240   63.7675  -12.9779 H   0  0  0  0  0  0  0  0  0  0  0  0
   23.9425   64.4458   -4.4226 Cl  0  0  0  0  0  0  0  0  0  0  0  0
   23.1946   64.0472   -5.9751 C   0  0  0  0  0  0  0  0  0  0  0  0
   23.8473   63.2616   -6.8915 C   0  0  0  0  0  0  0  0  0  0  0  0
   23.2483   62.9606   -8.0978 C   0  0  0  0  0  0  0  0  0  0  0  0
   22.0001   63.4259   -8.4226 C   0  0  0  0  0  0  0  0  0  0  0  0
   21.3503   64.2090   -7.5099 C   0  0  0  0  0  0  0  0  0  0  0  0
   21.9422   64.5246   -6.2797 C   0  0  0  0  0  0  0  0  0  0  0  0
   15.6320   64.5167  -11.7816 C   0  0  0  0  0  0  0  0  0  0  0  0
   15.1182   63.2908  -11.4162 C   0  0  0  0  0  0  0  0  0  0  0  0
   13.9417   62.7876  -11.9332 C   0  0  0  0  0  0  0  0  0  0  0  0
   13.2538   63.5706  -12.8696 C   0  0  0  0  0  0  0  0  0  0  0  0
   13.7279   64.8016  -13.2671 C   0  0  0  0  0  0  0  0  0  0  0  0
   14.9113   65.2400  -12.7068 C   0  0  0  0  0  0  0  0  0  0  0  0
   12.0755   63.1123  -13.4142 O   0  0  0  0  0  0  0  0  0  0  0  0
   11.7094   62.2120  -13.1365 H   0  0  0  0  0  0  0  0  0  0  0  0
   13.0211   65.5230  -14.1824 O   0  0  0  0  0  0  0  0  0  0  0  0
   13.5399   66.2240  -15.2749 C   0  0  0  0  0  0  0  0  0  0  0  0
   13.4152   61.5544  -11.5711 O   0  0  0  0  0  0  0  0  0  0  0  0
   14.1581   60.7920  -10.6420 C   0  0  0  0  0  0  0  0  0  0  0  0
 18 19  1  0  0  0
 19 20  2  0  0  0
 19 24  1  0  0  0
 20 21  1  0  0  0
 21 22  2  0  0  0
 22 23  1  0  0  0
 22  8  1  0  0  0
 23 24  2  0  0  0
  8  9  1  0  0  0
  8 15  1  0  0  0
  9 10  2  0  0  0
  9 11  1  0  0  0
 11 12  1  0  0  0
 12 13  2  0  0  0
 12 14  1  0  0  0
 14 15  1  0  0  0
 14  1  1  0  0  0
 15 16  2  0  0  0
  1  2  2  0  0  0
  1  5  1  0  0  0
  2  3  1  0  0  0
  3  4  1  0  0  0
  3 25  1  0  0  0
  4  5  1  0  0  0
 25 26  2  0  0  0
 25 30  1  0  0  0
 26 27  1  0  0  0
 27 28  2  0  0  0
 27 35  1  0  0  0
 28 29  1  0  0  0
 28 31  1  0  0  0
 29 30  2  0  0  0
 29 33  1  0  0  0
 33 34  1  0  0  0
 35 36  1  0  0  0
 11 17  1  0  0  0
  4  6  1  0  0  0
  5  7  1  0  0  0
 31 32  1  0  0  0
M  END
> <minimizedAffinity>
-5.76102

$$$$
2358


 34 37  0  0  0  0  0  0  0  0999 V2000
   22.7539   64.2549   -7.0230 N   0  0  0  0  0  0  0  0  0  0  0  0
   22.0902   65.5020   -6.8716 C   0  0  0  0  0  0  0  0  0  0  0  0
   22.2032   66.1094   -5.7666 O   0  0  0  0  0  0  0  0  0  0  0  0
   21.3208   66.0624   -7.9161 N   0  0  0  0  0  0  0  0  0  0  0  0
   21.1900   65.3895   -9.1532 C   0  0  0  0  0  0  0  0  0  0  0  0
   20.6521   65.9568  -10.1674 O   0  0  0  0  0  0  0  0  0  0  0  0
   21.6628   64.0172   -9.3319 C   0  0  0  0  0  0  0  0  0  0  0  0
   22.5998   63.6077   -8.2778 C   0  0  0  0  0  0  0  0  0  0  0  0
   23.3531   62.5919   -8.4720 O   0  0  0  0  0  0  0  0  0  0  0  0
   20.8362   66.9880   -7.7834 H   0  0  0  0  0  0  0  0  0  0  0  0
   26.0013   61.8060   -2.6580 Cl  0  0  0  0  0  0  0  0  0  0  0  0
   25.0606   62.5215   -3.9537 C   0  0  0  0  0  0  0  0  0  0  0  0
   25.5527   62.5749   -5.2496 C   0  0  0  0  0  0  0  0  0  0  0  0
   24.7982   63.1375   -6.2343 C   0  0  0  0  0  0  0  0  0  0  0  0
   23.5370   63.6682   -5.9919 C   0  0  0  0  0  0  0  0  0  0  0  0
   23.0522   63.6132   -4.7040 C   0  0  0  0  0  0  0  0  0  0  0  0
   23.8066   63.0415   -3.6770 C   0  0  0  0  0  0  0  0  0  0  0  0
   20.5045   63.0827   -9.4512 C   0  0  0  0  0  0  0  0  0  0  0  0
   19.5258   62.8959   -8.6063 C   0  0  0  0  0  0  0  0  0  0  0  0
   18.6340   61.8639   -9.1896 C   0  0  0  0  0  0  0  0  0  0  0  0
   19.4559   61.2176  -10.1903 N   0  0  0  0  0  0  0  0  0  0  0  0
   20.3324   62.2358  -10.5822 N   0  0  0  0  0  0  0  0  0  0  0  0
   19.9710   60.3970   -9.7920 H   0  0  0  0  0  0  0  0  0  0  0  0
   20.7517   62.3082  -11.5452 H   0  0  0  0  0  0  0  0  0  0  0  0
   17.4459   62.4958   -9.8270 C   0  0  0  0  0  0  0  0  0  0  0  0
   16.4546   61.7561  -10.4302 C   0  0  0  0  0  0  0  0  0  0  0  0
   15.3482   62.3331  -11.0260 C   0  0  0  0  0  0  0  0  0  0  0  0
   15.2052   63.7019  -11.0304 C   0  0  0  0  0  0  0  0  0  0  0  0
   16.1832   64.4578  -10.4328 C   0  0  0  0  0  0  0  0  0  0  0  0
   17.2817   63.8730   -9.8424 C   0  0  0  0  0  0  0  0  0  0  0  0
   14.3853   61.5372  -11.6163 O   0  0  0  0  0  0  0  0  0  0  0  0
   14.4686   60.5402  -11.6254 H   0  0  0  0  0  0  0  0  0  0  0  0
   14.1084   64.2988  -11.6194 O   0  0  0  0  0  0  0  0  0  0  0  0
   14.2252   64.8504  -12.9109 C   0  0  0  0  0  0  0  0  0  0  0  0
 11 12  1  0  0  0
 12 13  2  0  0  0
 12 17  1  0  0  0
 13 14  1  0  0  0
 14 15  2  0  0  0
 15 16  1  0  0  0
 15  1  1  0  0  0
 16 17  2  0  0  0
  1  2  1  0  0  0
  1  8  1  0  0  0
  2  3  2  0  0  0
  2  4  1  0  0  0
  4  5  1  0  0  0
  5  6  2  0  0  0
  5  7  1  0  0  0
  7  8  1  0  0  0
  7 18  1  0  0  0
  8  9  2  0  0  0
 18 19  2  0  0  0
 18 22  1  0  0  0
 19 20  1  0  0  0
 20 21  1  0  0  0
 20 25  1  0  0  0
 21 22  1  0  0  0
 25 26  2  0  0  0
 25 30  1  0  0  0
 26 27  1  0  0  0
 27 28  2  0  0  0
 27 31  1  0  0  0
 28 29  1  0  0  0
 28 33  1  0  0  0
 29 30  2  0  0  0
 33 34  1  0  0  0
  4 10  1  0  0  0
 21 23  1  0  0  0
 22 24  1  0  0  0
 31 32  1  0  0  0
M  END
> <minimizedAffinity>
-9.07581

$$$$
2359


 32 35  0  0  0  0  0  0  0  0999 V2000
   19.9628   63.1093  -10.7377 N   0  0  0  0  0  0  0  0  0  0  0  0
   20.6862   62.8709  -11.9557 C   0  0  0  0  0  0  0  0  0  0  0  0
   20.0942   62.4961  -13.0144 O   0  0  0  0  0  0  0  0  0  0  0  0
   22.0904   63.0757  -11.9144 N   0  0  0  0  0  0  0  0  0  0  0  0
   22.7384   63.5026  -10.6950 C   0  0  0  0  0  0  0  0  0  0  0  0
   23.8244   64.0836  -10.8156 O   0  0  0  0  0  0  0  0  0  0  0  0
   22.1007   63.2368   -9.4202 C   0  0  0  0  0  0  0  0  0  0  0  0
   20.6431   63.5292   -9.5657 C   0  0  0  0  0  0  0  0  0  0  0  0
   19.9614   64.1354   -8.7005 O   0  0  0  0  0  0  0  0  0  0  0  0
   22.6298   62.9095  -12.7823 H   0  0  0  0  0  0  0  0  0  0  0  0
   14.0426   62.1613  -10.8694 Cl  0  0  0  0  0  0  0  0  0  0  0  0
   15.7522   62.4819  -10.8428 C   0  0  0  0  0  0  0  0  0  0  0  0
   16.6087   61.4451  -10.4993 C   0  0  0  0  0  0  0  0  0  0  0  0
   17.9712   61.6762  -10.4718 C   0  0  0  0  0  0  0  0  0  0  0  0
   18.5327   62.9018  -10.7729 C   0  0  0  0  0  0  0  0  0  0  0  0
   17.6639   63.9206  -11.1128 C   0  0  0  0  0  0  0  0  0  0  0  0
   16.2951   63.7268  -11.1508 C   0  0  0  0  0  0  0  0  0  0  0  0
   22.6803   63.8285   -8.2360 C   0  0  0  0  0  0  0  0  0  0  0  0
   22.4675   63.5386   -6.9730 C   0  0  0  0  0  0  0  0  0  0  0  0
   23.2800   64.3988   -6.0780 C   0  0  0  0  0  0  0  0  0  0  0  0
   24.1913   65.0416   -6.9963 N   0  0  0  0  0  0  0  0  0  0  0  0
   23.6383   64.9072   -8.2678 N   0  0  0  0  0  0  0  0  0  0  0  0
   25.1643   64.6727   -6.9280 H   0  0  0  0  0  0  0  0  0  0  0  0
   23.9109   65.5164   -9.0675 H   0  0  0  0  0  0  0  0  0  0  0  0
   24.0794   63.6356   -5.1125 C   0  0  0  0  0  0  0  0  0  0  0  0
   25.1259   62.8644   -5.5949 C   0  0  0  0  0  0  0  0  0  0  0  0
   25.8953   62.1379   -4.7168 C   0  0  0  0  0  0  0  0  0  0  0  0
   25.6560   62.1540   -3.3625 C   0  0  0  0  0  0  0  0  0  0  0  0
   24.6216   62.9132   -2.8682 C   0  0  0  0  0  0  0  0  0  0  0  0
   23.8428   63.6483   -3.7625 C   0  0  0  0  0  0  0  0  0  0  0  0
   26.9563   61.3555   -5.1914 O   0  0  0  0  0  0  0  0  0  0  0  0
   27.1451   61.3335   -6.1782 H   0  0  0  0  0  0  0  0  0  0  0  0
 11 12  1  0  0  0
 12 13  2  0  0  0
 12 17  1  0  0  0
 13 14  1  0  0  0
 14 15  2  0  0  0
 15 16  1  0  0  0
 15  1  1  0  0  0
 16 17  2  0  0  0
  1  2  1  0  0  0
  1  8  1  0  0  0
  2  3  2  0  0  0
  2  4  1  0  0  0
  4  5  1  0  0  0
  5  6  2  0  0  0
  5  7  1  0  0  0
  7  8  1  0  0  0
  7 18  1  0  0  0
  8  9  2  0  0  0
 18 19  2  0  0  0
 18 22  1  0  0  0
 19 20  1  0  0  0
 20 21  1  0  0  0
 20 25  1  0  0  0
 21 22  1  0  0  0
 25 26  2  0  0  0
 25 30  1  0  0  0
 26 27  1  0  0  0
 27 28  2  0  0  0
 27 31  1  0  0  0
 28 29  1  0  0  0
 29 30  2  0  0  0
  4 10  1  0  0  0
 21 23  1  0  0  0
 22 24  1  0  0  0
 31 32  1  0  0  0
M  END
> <minimizedAffinity>
-12.05771

$$$$
2361


 30 33  0  0  0  0  0  0  0  0999 V2000
   22.8220   63.5168   -8.8608 N   0  0  0  0  0  0  0  0  0  0  0  0
   23.5036   62.6141   -9.7124 C   0  0  0  0  0  0  0  0  0  0  0  0
   24.4332   61.8990   -9.2621 O   0  0  0  0  0  0  0  0  0  0  0  0
   23.1116   62.5317  -11.0937 N   0  0  0  0  0  0  0  0  0  0  0  0
   22.0604   63.3393  -11.6053 C   0  0  0  0  0  0  0  0  0  0  0  0
   21.9575   63.5064  -12.8463 O   0  0  0  0  0  0  0  0  0  0  0  0
   21.1106   63.9660  -10.6721 C   0  0  0  0  0  0  0  0  0  0  0  0
   21.7792   64.3071   -9.4046 C   0  0  0  0  0  0  0  0  0  0  0  0
   21.4163   65.3502   -8.7583 O   0  0  0  0  0  0  0  0  0  0  0  0
   23.5862   61.8810  -11.7561 H   0  0  0  0  0  0  0  0  0  0  0  0
   24.3907   63.9739   -3.0649 Cl  0  0  0  0  0  0  0  0  0  0  0  0
   23.9279   63.8458   -4.7532 C   0  0  0  0  0  0  0  0  0  0  0  0
   22.8194   64.5034   -5.2428 C   0  0  0  0  0  0  0  0  0  0  0  0
   22.4557   64.3982   -6.5803 C   0  0  0  0  0  0  0  0  0  0  0  0
   23.1873   63.6355   -7.4648 C   0  0  0  0  0  0  0  0  0  0  0  0
   24.2942   62.9806   -6.9721 C   0  0  0  0  0  0  0  0  0  0  0  0
   24.6572   63.0848   -5.6417 C   0  0  0  0  0  0  0  0  0  0  0  0
   19.9414   63.0610  -10.4106 C   0  0  0  0  0  0  0  0  0  0  0  0
   19.1504   62.4846  -11.2777 C   0  0  0  0  0  0  0  0  0  0  0  0
   18.1416   61.6900  -10.5596 C   0  0  0  0  0  0  0  0  0  0  0  0
   18.6616   61.5928   -9.2250 N   0  0  0  0  0  0  0  0  0  0  0  0
   19.5281   62.6908   -9.1058 N   0  0  0  0  0  0  0  0  0  0  0  0
   19.1449   60.7062   -9.0528 H   0  0  0  0  0  0  0  0  0  0  0  0
   19.7775   63.1065   -8.1794 H   0  0  0  0  0  0  0  0  0  0  0  0
   16.8831   62.4792  -10.5628 C   0  0  0  0  0  0  0  0  0  0  0  0
   15.6921   61.8820  -10.9000 C   0  0  0  0  0  0  0  0  0  0  0  0
   14.5350   62.5999  -10.9055 N   0  0  0  0  0  0  0  0  0  0  0  0
   14.4936   63.9040  -10.5888 C   0  0  0  0  0  0  0  0  0  0  0  0
   15.6686   64.5338  -10.2463 C   0  0  0  0  0  0  0  0  0  0  0  0
   16.8692   63.8090  -10.2356 C   0  0  0  0  0  0  0  0  0  0  0  0
 11 12  1  0  0  0
 12 13  2  0  0  0
 12 17  1  0  0  0
 13 14  1  0  0  0
 14 15  2  0  0  0
 15 16  1  0  0  0
 15  1  1  0  0  0
 16 17  2  0  0  0
  1  2  1  0  0  0
  1  8  1  0  0  0
  2  3  2  0  0  0
  2  4  1  0  0  0
  4  5  1  0  0  0
  5  6  2  0  0  0
  5  7  1  0  0  0
  7  8  1  0  0  0
  7 18  1  0  0  0
  8  9  2  0  0  0
 18 19  2  0  0  0
 18 22  1  0  0  0
 19 20  1  0  0  0
 20 21  1  0  0  0
 20 25  1  0  0  0
 21 22  1  0  0  0
 25 26  2  0  0  0
 25 30  1  0  0  0
 26 27  1  0  0  0
 27 28  2  0  0  0
 28 29  1  0  0  0
 29 30  2  0  0  0
  4 10  1  0  0  0
 21 23  1  0  0  0
 22 24  1  0  0  0
M  END
> <minimizedAffinity>
-9.40930

$$$$
2363


 33 36  0  0  0  0  0  0  0  0999 V2000
   10.4948   65.3886  -15.7311 N   0  0  0  0  0  0  0  0  0  0  0  0
   10.7434   64.3839  -14.7598 C   0  0  0  0  0  0  0  0  0  0  0  0
   10.1298   63.0959  -15.0467 C   0  0  0  0  0  0  0  0  0  0  0  0
    9.3021   62.8937  -16.1095 C   0  0  0  0  0  0  0  0  0  0  0  0
    8.7254   61.6258  -16.3131 C   0  0  0  0  0  0  0  0  0  0  0  0
    8.9582   60.5601  -15.4809 C   0  0  0  0  0  0  0  0  0  0  0  0
    9.8028   60.7839  -14.4059 C   0  0  0  0  0  0  0  0  0  0  0  0
   10.3618   62.0040  -14.2034 C   0  0  0  0  0  0  0  0  0  0  0  0
    9.0101   63.9322  -17.0584 N   0  0  0  0  0  0  0  0  0  0  0  0
    9.6374   65.1765  -16.8212 C   0  0  0  0  0  0  0  0  0  0  0  0
    9.4280   66.1498  -17.6160 O   0  0  0  0  0  0  0  0  0  0  0  0
   10.1189   64.8861  -13.5636 O   0  0  0  0  0  0  0  0  0  0  0  0
    8.3736   63.7425  -17.8526 H   0  0  0  0  0  0  0  0  0  0  0  0
   10.6091   64.5486  -12.7692 H   0  0  0  0  0  0  0  0  0  0  0  0
   13.1460   70.7507  -15.1699 Cl  0  0  0  0  0  0  0  0  0  0  0  0
   12.3601   69.1753  -15.3287 C   0  0  0  0  0  0  0  0  0  0  0  0
   12.8558   68.2684  -16.2380 C   0  0  0  0  0  0  0  0  0  0  0  0
   12.2417   67.0266  -16.3680 C   0  0  0  0  0  0  0  0  0  0  0  0
   11.1538   66.6955  -15.6048 C   0  0  0  0  0  0  0  0  0  0  0  0
   10.6801   67.6239  -14.7039 C   0  0  0  0  0  0  0  0  0  0  0  0
   11.2666   68.8675  -14.5488 C   0  0  0  0  0  0  0  0  0  0  0  0
   12.1855   64.2652  -14.4241 C   0  0  0  0  0  0  0  0  0  0  0  0
   12.9933   63.9059  -15.2828 O   0  0  0  0  0  0  0  0  0  0  0  0
   12.5843   64.5746  -13.1103 N   0  0  0  0  0  0  0  0  0  0  0  0
   11.8983   64.8837  -12.3670 H   0  0  0  0  0  0  0  0  0  0  0  0
   13.9778   64.4929  -12.6709 C   0  0  0  0  0  0  0  0  0  0  0  0
   14.1049   64.1201  -11.2438 C   0  0  0  0  0  0  0  0  0  0  0  0
   15.2988   63.4851  -10.8395 N   0  0  0  0  0  0  0  0  0  0  0  0
   15.3680   62.0826  -10.8773 C   0  0  0  0  0  0  0  0  0  0  0  0
   16.8244   61.6600  -10.6639 C   0  0  0  0  0  0  0  0  0  0  0  0
   17.4656   62.5498   -9.7834 O   0  0  0  0  0  0  0  0  0  0  0  0
   17.6878   63.7854  -10.3866 C   0  0  0  0  0  0  0  0  0  0  0  0
   16.5086   64.1029  -11.2655 C   0  0  0  0  0  0  0  0  0  0  0  0
 15 16  1  0  0  0
 16 17  2  0  0  0
 16 21  1  0  0  0
 17 18  1  0  0  0
 18 19  2  0  0  0
 19 20  1  0  0  0
 19  1  1  0  0  0
 20 21  2  0  0  0
  1  2  1  0  0  0
  1 10  1  0  0  0
  2  3  1  0  0  0
  2 12  1  0  0  0
  2 22  1  0  0  0
  3  4  1  0  0  0
  3  8  2  0  0  0
  4  5  2  0  0  0
  4  9  1  0  0  0
  5  6  1  0  0  0
  6  7  2  0  0  0
  7  8  1  0  0  0
  9 10  1  0  0  0
 10 11  2  0  0  0
 22 23  2  0  0  0
 22 24  1  0  0  0
 24 26  1  0  0  0
 26 27  1  0  0  0
 27 28  1  0  0  0
 28 29  1  0  0  0
 28 33  1  0  0  0
 29 30  1  0  0  0
 30 31  1  0  0  0
 31 32  1  0  0  0
 32 33  1  0  0  0
  9 13  1  0  0  0
 12 14  1  0  0  0
 24 25  1  0  0  0
M  END
> <minimizedAffinity>
-5.84888

$$$$
2364


 33 37  0  0  0  0  0  0  0  0999 V2000
   22.6334   64.5328   -7.6095 N   0  0  0  0  0  0  0  0  0  0  0  0
   23.4205   63.4418   -8.0707 C   0  0  0  0  0  0  0  0  0  0  0  0
   24.5502   63.2142   -7.5299 O   0  0  0  0  0  0  0  0  0  0  0  0
   23.0007   62.5446   -9.1521 C   0  0  0  0  0  0  0  0  0  0  0  0
   21.8510   62.9731   -9.8777 N   0  0  0  0  0  0  0  0  0  0  0  0
   20.8682   63.7002   -9.1420 C   0  0  0  0  0  0  0  0  0  0  0  0
   19.8155   62.8712   -8.4476 C   0  0  0  0  0  0  0  0  0  0  0  0
   18.8327   63.3671   -9.3559 N   0  0  0  0  0  0  0  0  0  0  0  0
   19.7584   64.1449  -10.0798 C   0  0  0  0  0  0  0  0  0  0  0  0
   21.4267   64.8003   -8.3138 C   0  0  0  0  0  0  0  0  0  0  0  0
   20.8860   65.9310   -8.2138 O   0  0  0  0  0  0  0  0  0  0  0  0
   22.2915   63.7581  -10.9948 C   0  0  0  0  0  0  0  0  0  0  0  0
   23.7942   63.7606  -10.9986 C   0  0  0  0  0  0  0  0  0  0  0  0
   24.1339   62.5429  -10.1878 C   0  0  0  0  0  0  0  0  0  0  0  0
   24.3325   63.7173  -12.2775 O   0  0  0  0  0  0  0  0  0  0  0  0
   24.4423   64.6508  -12.5817 H   0  0  0  0  0  0  0  0  0  0  0  0
   23.0302   65.3480   -6.4751 C   0  0  0  0  0  0  0  0  0  0  0  0
   25.7586   63.0261   -2.6709 Cl  0  0  0  0  0  0  0  0  0  0  0  0
   24.2401   63.4230   -3.4444 C   0  0  0  0  0  0  0  0  0  0  0  0
   24.2113   64.1867   -4.5934 C   0  0  0  0  0  0  0  0  0  0  0  0
   23.0320   64.5148   -5.2231 C   0  0  0  0  0  0  0  0  0  0  0  0
   21.8560   64.0553   -4.6727 C   0  0  0  0  0  0  0  0  0  0  0  0
   21.8986   63.3038   -3.5408 C   0  0  0  0  0  0  0  0  0  0  0  0
   23.0661   62.9647   -2.8957 C   0  0  0  0  0  0  0  0  0  0  0  0
   17.9701   62.4548  -10.0141 C   0  0  0  0  0  0  0  0  0  0  0  0
   16.6450   62.9675  -10.3808 C   0  0  0  0  0  0  0  0  0  0  0  0
   15.7485   62.1544  -11.0293 C   0  0  0  0  0  0  0  0  0  0  0  0
   14.4798   62.6168  -11.3901 C   0  0  0  0  0  0  0  0  0  0  0  0
   14.1294   63.9126  -11.0872 C   0  0  0  0  0  0  0  0  0  0  0  0
   15.0071   64.7475  -10.4382 C   0  0  0  0  0  0  0  0  0  0  0  0
   16.2637   64.2545  -10.0927 C   0  0  0  0  0  0  0  0  0  0  0  0
   13.5757   61.8022  -12.0425 O   0  0  0  0  0  0  0  0  0  0  0  0
   12.9962   62.2653  -13.2479 C   0  0  0  0  0  0  0  0  0  0  0  0
 18 19  1  0  0  0
 19 20  2  0  0  0
 19 24  1  0  0  0
 20 21  1  0  0  0
 21 22  2  0  0  0
 21 17  1  0  0  0
 22 23  1  0  0  0
 23 24  2  0  0  0
 17  1  1  0  0  0
  1  2  1  0  0  0
  1 10  1  0  0  0
  2  3  2  0  0  0
  2  4  1  0  0  0
  4  5  1  0  0  0
  4 14  1  0  0  0
  5  6  1  0  0  0
  5 12  1  0  0  0
  6  7  1  0  0  0
  6  9  1  0  0  0
  6 10  1  0  0  0
  7  8  1  0  0  0
  8  9  1  0  0  0
  8 25  1  0  0  0
 25 26  1  0  0  0
 26 27  2  0  0  0
 26 31  1  0  0  0
 27 28  1  0  0  0
 28 29  2  0  0  0
 28 32  1  0  0  0
 29 30  1  0  0  0
 30 31  2  0  0  0
 32 33  1  0  0  0
 10 11  2  0  0  0
 12 13  1  0  0  0
 13 14  1  0  0  0
 13 15  1  0  0  0
 15 16  1  0  0  0
M  END
> <minimizedAffinity>
-8.60436

$$$$
2365


 32 36  0  0  0  0  0  0  0  0999 V2000
   13.8517   64.1949  -12.4082 N   0  0  0  0  0  0  0  0  0  0  0  0
   13.6991   64.8794  -13.6234 C   0  0  0  0  0  0  0  0  0  0  0  0
   14.7258   65.4083  -14.1480 O   0  0  0  0  0  0  0  0  0  0  0  0
   13.0123   63.7512  -11.9624 H   0  0  0  0  0  0  0  0  0  0  0  0
   12.4126   65.0301  -14.3425 C   0  0  0  0  0  0  0  0  0  0  0  0
   11.4743   63.8891  -14.0048 C   0  0  0  0  0  0  0  0  0  0  0  0
   10.1725   64.0308  -14.7415 C   0  0  0  0  0  0  0  0  0  0  0  0
    9.5184   65.3242  -14.2512 C   0  0  0  0  0  0  0  0  0  0  0  0
   10.4155   66.4829  -14.5484 C   0  0  0  0  0  0  0  0  0  0  0  0
   11.7533   66.3069  -13.8679 C   0  0  0  0  0  0  0  0  0  0  0  0
   10.6212   66.5778  -16.0426 C   0  0  0  0  0  0  0  0  0  0  0  0
   11.2730   65.2948  -16.5033 C   0  0  0  0  0  0  0  0  0  0  0  0
   10.3463   64.1394  -16.2244 C   0  0  0  0  0  0  0  0  0  0  0  0
   12.6128   65.1200  -15.8392 C   0  0  0  0  0  0  0  0  0  0  0  0
    9.3391   62.9069  -14.3624 N   0  0  0  0  0  0  0  0  0  0  0  0
    8.0891   62.8819  -13.9350 N   0  0  0  0  0  0  0  0  0  0  0  0
    7.6809   61.6723  -13.6931 N   0  0  0  0  0  0  0  0  0  0  0  0
    8.6772   60.8468  -13.9608 C   0  0  0  0  0  0  0  0  0  0  0  0
    9.7182   61.6183  -14.3812 N   0  0  0  0  0  0  0  0  0  0  0  0
   15.5521   62.9348  -11.1269 C   0  0  0  0  0  0  0  0  0  0  0  0
   14.8540   61.8918  -11.0601 O   0  0  0  0  0  0  0  0  0  0  0  0
   15.0781   64.0909  -11.7914 N   0  0  0  0  0  0  0  0  0  0  0  0
   15.7244   64.9292  -11.8049 H   0  0  0  0  0  0  0  0  0  0  0  0
   16.8935   62.8846  -10.4764 C   0  0  0  0  0  0  0  0  0  0  0  0
   17.3878   61.4891  -10.2964 C   0  0  0  0  0  0  0  0  0  0  0  0
   17.8633   63.7247  -11.2753 C   0  0  0  0  0  0  0  0  0  0  0  0
   23.2743   63.2800  -10.7343 Br  0  0  0  0  0  0  0  0  0  0  0  0
   21.4089   63.5473  -10.4495 C   0  0  0  0  0  0  0  0  0  0  0  0
   20.3644   63.4389  -11.3457 C   0  0  0  0  0  0  0  0  0  0  0  0
   19.1945   63.7190  -10.7161 N   0  0  0  0  0  0  0  0  0  0  0  0
   19.4850   63.9940   -9.4738 N   0  0  0  0  0  0  0  0  0  0  0  0
   20.8075   63.9091   -9.2417 C   0  0  0  0  0  0  0  0  0  0  0  0
 27 28  1  0  0  0
 28 29  2  0  0  0
 28 32  1  0  0  0
 29 30  1  0  0  0
 30 31  1  0  0  0
 30 26  1  0  0  0
 31 32  2  0  0  0
 26 24  1  0  0  0
 24 25  1  0  0  0
 24 20  1  0  0  0
 20 21  2  0  0  0
 20 22  1  0  0  0
 22  1  1  0  0  0
  1  2  1  0  0  0
  2  3  2  0  0  0
  2  5  1  0  0  0
  5  6  1  0  0  0
  5 10  1  0  0  0
  5 14  1  0  0  0
  6  7  1  0  0  0
  7  8  1  0  0  0
  7 13  1  0  0  0
  7 15  1  0  0  0
  8  9  1  0  0  0
  9 10  1  0  0  0
  9 11  1  0  0  0
 11 12  1  0  0  0
 12 13  1  0  0  0
 12 14  1  0  0  0
 15 16  1  0  0  0
 15 19  1  0  0  0
 16 17  2  0  0  0
 17 18  1  0  0  0
 18 19  2  0  0  0
 22 23  1  0  0  0
  1  4  1  0  0  0
M  END
> <minimizedAffinity>
-7.78072

$$$$
2373


 28 31  0  0  0  0  0  0  0  0999 V2000
   21.4192   64.0675   -8.5700 N   0  0  0  0  0  0  0  0  0  0  0  0
   20.5160   63.3707   -9.2372 C   0  0  0  0  0  0  0  0  0  0  0  0
   20.9796   63.0262  -10.4686 N   0  0  0  0  0  0  0  0  0  0  0  0
   22.1941   63.5149  -10.5903 C   0  0  0  0  0  0  0  0  0  0  0  0
   22.4732   64.1770   -9.3761 C   0  0  0  0  0  0  0  0  0  0  0  0
   20.2414   62.2244  -11.4033 C   0  0  0  0  0  0  0  0  0  0  0  0
   19.1227   63.0451  -12.0413 C   0  0  0  0  0  0  0  0  0  0  0  0
   18.6290   63.9672  -10.9216 C   0  0  0  0  0  0  0  0  0  0  0  0
   18.1209   63.1032   -9.8006 C   0  0  0  0  0  0  0  0  0  0  0  0
   19.1670   63.0514   -8.6760 C   0  0  0  0  0  0  0  0  0  0  0  0
   23.1550   63.4251  -11.6938 C   0  0  0  0  0  0  0  0  0  0  0  0
   24.5063   63.3709  -11.5771 C   0  0  0  0  0  0  0  0  0  0  0  0
   25.3697   63.3569  -12.6718 C   0  0  0  0  0  0  0  0  0  0  0  0
   24.8733   63.3960  -13.9458 C   0  0  0  0  0  0  0  0  0  0  0  0
   23.5090   63.4488  -14.0982 C   0  0  0  0  0  0  0  0  0  0  0  0
   22.6695   63.4636  -13.0057 C   0  0  0  0  0  0  0  0  0  0  0  0
   25.7205   63.3830  -15.0673 O   0  0  0  0  0  0  0  0  0  0  0  0
   27.1187   63.3757  -14.9609 C   0  0  0  0  0  0  0  0  0  0  0  0
   21.3887   64.6578   -7.2282 C   0  0  0  0  0  0  0  0  0  0  0  0
   22.7817   64.9276   -6.8120 C   0  0  0  0  0  0  0  0  0  0  0  0
   23.3306   65.9848   -7.2692 O   0  0  0  0  0  0  0  0  0  0  0  0
   25.8570   61.4320   -3.0102 Cl  0  0  0  0  0  0  0  0  0  0  0  0
   24.9419   62.4573   -4.0851 C   0  0  0  0  0  0  0  0  0  0  0  0
   23.9062   63.2618   -3.6802 C   0  0  0  0  0  0  0  0  0  0  0  0
   23.2180   64.0508   -4.5676 C   0  0  0  0  0  0  0  0  0  0  0  0
   23.5420   64.0703   -5.9294 C   0  0  0  0  0  0  0  0  0  0  0  0
   24.5711   63.2720   -6.3330 C   0  0  0  0  0  0  0  0  0  0  0  0
   25.2550   62.4838   -5.4350 C   0  0  0  0  0  0  0  0  0  0  0  0
 22 23  1  0  0  0
 23 24  2  0  0  0
 23 28  1  0  0  0
 24 25  1  0  0  0
 25 26  2  0  0  0
 26 27  1  0  0  0
 26 20  1  0  0  0
 27 28  2  0  0  0
 20 21  2  0  0  0
 20 19  1  0  0  0
 19  1  1  0  0  0
  1  2  2  0  0  0
  1  5  1  0  0  0
  2  3  1  0  0  0
  2 10  1  0  0  0
  3  4  1  0  0  0
  3  6  1  0  0  0
  4  5  2  0  0  0
  4 11  1  0  0  0
 11 12  2  0  0  0
 11 16  1  0  0  0
 12 13  1  0  0  0
 13 14  2  0  0  0
 14 15  1  0  0  0
 14 17  1  0  0  0
 15 16  2  0  0  0
 17 18  1  0  0  0
  6  7  1  0  0  0
  7  8  1  0  0  0
  8  9  1  0  0  0
  9 10  1  0  0  0
M  END
> <minimizedAffinity>
-8.90913

$$$$
2375


 37 40  0  0  0  0  0  0  0  0999 V2000
   14.5035   62.6591  -11.5288 C   0  0  0  0  0  0  0  0  0  0  0  0
   14.3859   63.9025  -10.8253 C   0  0  0  0  0  0  0  0  0  0  0  0
   19.2334   62.7029  -10.4843 C   0  0  0  0  0  0  0  0  0  0  0  0
   19.0055   61.2829  -10.1777 C   0  0  0  0  0  0  0  0  0  0  0  0
   17.5771   60.8277  -10.0117 C   0  0  0  0  0  0  0  0  0  0  0  0
   16.5779   61.7935  -10.3327 N   0  0  0  0  0  0  0  0  0  0  0  0
   16.8291   63.1307   -9.7593 C   0  0  0  0  0  0  0  0  0  0  0  0
   18.1332   63.6611  -10.1001 C   0  0  0  0  0  0  0  0  0  0  0  0
   15.2971   61.5352  -10.8770 C   0  0  0  0  0  0  0  0  0  0  0  0
   14.8015   60.4121  -10.8315 O   0  0  0  0  0  0  0  0  0  0  0  0
   19.4025   62.8007  -11.8985 O   0  0  0  0  0  0  0  0  0  0  0  0
   20.2628   63.1906  -12.1279 H   0  0  0  0  0  0  0  0  0  0  0  0
   24.1144   64.8863   -7.6011 Cl  0  0  0  0  0  0  0  0  0  0  0  0
   22.6934   64.2686   -8.4772 C   0  0  0  0  0  0  0  0  0  0  0  0
   21.5298   63.9779   -7.8036 C   0  0  0  0  0  0  0  0  0  0  0  0
   20.4228   63.4773   -8.5049 C   0  0  0  0  0  0  0  0  0  0  0  0
   20.4603   63.2657   -9.8752 C   0  0  0  0  0  0  0  0  0  0  0  0
   21.6192   63.5638  -10.5156 C   0  0  0  0  0  0  0  0  0  0  0  0
   22.7312   64.0565   -9.8444 C   0  0  0  0  0  0  0  0  0  0  0  0
   13.4204   62.0983  -12.3016 N   0  0  0  0  0  0  0  0  0  0  0  0
   12.9317   62.6231  -13.4968 C   0  0  0  0  0  0  0  0  0  0  0  0
   13.5997   63.7961  -13.7877 O   0  0  0  0  0  0  0  0  0  0  0  0
   12.9962   61.2512  -11.7926 H   0  0  0  0  0  0  0  0  0  0  0  0
   12.0102   62.3209  -14.4876 C   0  0  0  0  0  0  0  0  0  0  0  0
   11.0061   62.6744  -15.2335 C   0  0  0  0  0  0  0  0  0  0  0  0
   10.4745   61.7206  -16.2163 N   0  0  0  0  0  0  0  0  0  0  0  0
    9.3559   61.9704  -16.9866 N   0  0  0  0  0  0  0  0  0  0  0  0
    8.6434   63.1548  -16.8894 C   0  0  0  0  0  0  0  0  0  0  0  0
    7.6250   63.4270  -17.5743 O   0  0  0  0  0  0  0  0  0  0  0  0
    9.1037   64.1810  -15.9234 C   0  0  0  0  0  0  0  0  0  0  0  0
   10.2190   63.8904  -15.1742 C   0  0  0  0  0  0  0  0  0  0  0  0
   10.5553   64.8439  -14.2067 C   0  0  0  0  0  0  0  0  0  0  0  0
    9.8059   66.0002  -14.0437 C   0  0  0  0  0  0  0  0  0  0  0  0
    8.7060   66.2522  -14.8213 C   0  0  0  0  0  0  0  0  0  0  0  0
    8.3520   65.3211  -15.7742 C   0  0  0  0  0  0  0  0  0  0  0  0
   11.0056   60.8115  -16.3006 H   0  0  0  0  0  0  0  0  0  0  0  0
    9.0300   61.2371  -17.6750 H   0  0  0  0  0  0  0  0  0  0  0  0
 13 14  1  0  0  0
 14 15  2  0  0  0
 14 19  1  0  0  0
 15 16  1  0  0  0
 16 17  2  0  0  0
 17 18  1  0  0  0
 17  3  1  0  0  0
 18 19  2  0  0  0
  3  4  1  0  0  0
  3  8  1  0  0  0
  3 11  1  0  0  0
  4  5  1  0  0  0
  5  6  1  0  0  0
  6  7  1  0  0  0
  6  9  1  0  0  0
  7  8  1  0  0  0
  9 10  2  0  0  0
  9  1  1  0  0  0
  1 20  1  0  0  0
  1  2  1  0  0  0
 20 21  1  0  0  0
 21 22  2  0  0  0
 21 24  1  0  0  0
 24 25  2  0  0  0
 25 26  1  0  0  0
 25 31  1  0  0  0
 26 27  1  0  0  0
 27 28  1  0  0  0
 28 29  2  0  0  0
 28 30  1  0  0  0
 30 31  2  0  0  0
 30 35  1  0  0  0
 31 32  1  0  0  0
 32 33  2  0  0  0
 33 34  1  0  0  0
 34 35  2  0  0  0
 20 23  1  0  0  0
 26 36  1  0  0  0
 27 37  1  0  0  0
 11 12  1  0  0  0
M  END
> <minimizedAffinity>
-9.88009

$$$$
2377


 33 36  0  0  0  0  0  0  0  0999 V2000
   14.7249   62.8218  -11.2013 N   0  0  0  0  0  0  0  0  0  0  0  0
   13.7899   63.7624  -10.5917 C   0  0  0  0  0  0  0  0  0  0  0  0
   13.0352   64.5642  -11.6278 C   0  0  0  0  0  0  0  0  0  0  0  0
   13.1455   63.8735  -12.8897 N   0  0  0  0  0  0  0  0  0  0  0  0
   12.9552   62.4351  -12.8411 C   0  0  0  0  0  0  0  0  0  0  0  0
   14.1948   61.8489  -12.1667 C   0  0  0  0  0  0  0  0  0  0  0  0
   13.4181   64.5071  -14.1195 C   0  0  0  0  0  0  0  0  0  0  0  0
   13.4924   63.8133  -15.1572 O   0  0  0  0  0  0  0  0  0  0  0  0
   16.0795   60.2268  -10.5225 Cl  0  0  0  0  0  0  0  0  0  0  0  0
   16.8655   61.7843  -10.5853 C   0  0  0  0  0  0  0  0  0  0  0  0
   16.0959   62.8865  -10.8895 C   0  0  0  0  0  0  0  0  0  0  0  0
   16.8039   64.0967  -10.9006 C   0  0  0  0  0  0  0  0  0  0  0  0
   18.1221   64.1431  -10.6326 N   0  0  0  0  0  0  0  0  0  0  0  0
   18.8632   63.0950  -10.3416 N   0  0  0  0  0  0  0  0  0  0  0  0
   18.2313   61.9151  -10.3191 C   0  0  0  0  0  0  0  0  0  0  0  0
   18.8669   60.8652  -10.0496 O   0  0  0  0  0  0  0  0  0  0  0  0
   20.2547   63.2352  -10.0706 C   0  0  0  0  0  0  0  0  0  0  0  0
   20.7474   63.3347   -8.7784 C   0  0  0  0  0  0  0  0  0  0  0  0
   22.0918   63.4708   -8.4982 C   0  0  0  0  0  0  0  0  0  0  0  0
   22.9767   63.5088   -9.5557 C   0  0  0  0  0  0  0  0  0  0  0  0
   22.5194   63.4130  -10.8572 C   0  0  0  0  0  0  0  0  0  0  0  0
   21.1494   63.2756  -11.1087 C   0  0  0  0  0  0  0  0  0  0  0  0
   13.6245   65.9693  -14.2555 C   0  0  0  0  0  0  0  0  0  0  0  0
   13.7395   66.3624  -15.7101 C   0  0  0  0  0  0  0  0  0  0  0  0
   12.5666   67.1697  -16.1810 C   0  0  0  0  0  0  0  0  0  0  0  0
   12.6603   68.5785  -15.8682 N   0  0  0  0  0  0  0  0  0  0  0  0
   12.0538   69.2323  -14.7682 C   0  0  0  0  0  0  0  0  0  0  0  0
   11.3231   68.6907  -13.8719 O   0  0  0  0  0  0  0  0  0  0  0  0
   12.3538   70.6108  -14.7608 N   0  0  0  0  0  0  0  0  0  0  0  0
   13.1845   70.8997  -15.9087 C   0  0  0  0  0  0  0  0  0  0  0  0
   13.3718   69.5954  -16.5820 C   0  0  0  0  0  0  0  0  0  0  0  0
   14.0448   69.3988  -17.6160 O   0  0  0  0  0  0  0  0  0  0  0  0
   11.9141   71.5827  -13.7805 C   0  0  0  0  0  0  0  0  0  0  0  0
  9 10  1  0  0  0
 10 11  2  0  0  0
 10 15  1  0  0  0
 11 12  1  0  0  0
 11  1  1  0  0  0
 12 13  2  0  0  0
 13 14  1  0  0  0
 14 15  1  0  0  0
 14 17  1  0  0  0
 15 16  2  0  0  0
 17 18  2  0  0  0
 17 22  1  0  0  0
 18 19  1  0  0  0
 19 20  2  0  0  0
 20 21  1  0  0  0
 21 22  2  0  0  0
  1  2  1  0  0  0
  1  6  1  0  0  0
  2  3  1  0  0  0
  3  4  1  0  0  0
  4  5  1  0  0  0
  4  7  1  0  0  0
  5  6  1  0  0  0
  7  8  2  0  0  0
  7 23  1  0  0  0
 23 24  1  0  0  0
 24 25  1  0  0  0
 25 26  1  0  0  0
 26 27  1  0  0  0
 26 31  1  0  0  0
 27 28  2  0  0  0
 27 29  1  0  0  0
 29 30  1  0  0  0
 29 33  1  0  0  0
 30 31  1  0  0  0
 31 32  2  0  0  0
M  END
> <minimizedAffinity>
-7.42726

$$$$
2380


 27 30  0  0  0  0  0  0  0  0999 V2000
   21.8618   63.4446  -11.5892 Cl  0  0  0  0  0  0  0  0  0  0  0  0
   20.5408   63.2365  -10.4441 C   0  0  0  0  0  0  0  0  0  0  0  0
   20.8017   63.4789   -9.1164 C   0  0  0  0  0  0  0  0  0  0  0  0
   19.7413   63.3049   -8.2415 C   0  0  0  0  0  0  0  0  0  0  0  0
   18.5397   62.9197   -8.7058 N   0  0  0  0  0  0  0  0  0  0  0  0
   18.2755   62.6836   -9.9803 N   0  0  0  0  0  0  0  0  0  0  0  0
   19.2831   62.8425  -10.8564 C   0  0  0  0  0  0  0  0  0  0  0  0
   19.1049   62.6356  -12.0906 O   0  0  0  0  0  0  0  0  0  0  0  0
   22.0939   63.8796   -8.7154 N   0  0  0  0  0  0  0  0  0  0  0  0
   23.2505   63.0048   -8.8705 C   0  0  0  0  0  0  0  0  0  0  0  0
   23.6685   62.6434   -7.4319 C   0  0  0  0  0  0  0  0  0  0  0  0
   23.8411   63.8287   -6.6517 N   0  0  0  0  0  0  0  0  0  0  0  0
   23.6989   65.1214   -7.3545 C   0  0  0  0  0  0  0  0  0  0  0  0
   22.3938   65.1705   -8.1232 C   0  0  0  0  0  0  0  0  0  0  0  0
   24.1395   63.8205   -5.2642 C   0  0  0  0  0  0  0  0  0  0  0  0
   24.2838   64.8985   -4.6132 O   0  0  0  0  0  0  0  0  0  0  0  0
   24.3013   62.5776   -4.4896 C   0  0  0  0  0  0  0  0  0  0  0  0
   25.6113   62.2178   -4.4057 O   0  0  0  0  0  0  0  0  0  0  0  0
   25.8110   61.5725   -3.1919 C   0  0  0  0  0  0  0  0  0  0  0  0
   25.0067   62.4600   -2.2526 C   0  0  0  0  0  0  0  0  0  0  0  0
   23.7636   62.7049   -3.0820 C   0  0  0  0  0  0  0  0  0  0  0  0
   16.9698   62.2743  -10.4141 C   0  0  0  0  0  0  0  0  0  0  0  0
   16.0350   63.2167  -10.7900 C   0  0  0  0  0  0  0  0  0  0  0  0
   14.7599   62.8326  -11.2149 C   0  0  0  0  0  0  0  0  0  0  0  0
   14.4174   61.5052  -11.2641 C   0  0  0  0  0  0  0  0  0  0  0  0
   15.3364   60.5574  -10.8924 C   0  0  0  0  0  0  0  0  0  0  0  0
   16.5854   60.9510  -10.4780 C   0  0  0  0  0  0  0  0  0  0  0  0
  1  2  1  0  0  0
  2  3  2  0  0  0
  2  7  1  0  0  0
  3  4  1  0  0  0
  3  9  1  0  0  0
  4  5  2  0  0  0
  5  6  1  0  0  0
  6  7  1  0  0  0
  6 22  1  0  0  0
  7  8  2  0  0  0
 22 23  2  0  0  0
 22 27  1  0  0  0
 23 24  1  0  0  0
 24 25  2  0  0  0
 25 26  1  0  0  0
 26 27  2  0  0  0
  9 10  1  0  0  0
  9 14  1  0  0  0
 10 11  1  0  0  0
 11 12  1  0  0  0
 12 13  1  0  0  0
 12 15  1  0  0  0
 13 14  1  0  0  0
 15 16  2  0  0  0
 15 17  1  0  0  0
 17 18  1  0  0  0
 17 21  1  0  0  0
 18 19  1  0  0  0
 19 20  1  0  0  0
 20 21  1  0  0  0
M  END
> <minimizedAffinity>
-8.59832

$$$$
2381


 30 33  0  0  0  0  0  0  0  0999 V2000
   19.1218   62.8471  -10.6869 N   0  0  0  0  0  0  0  0  0  0  0  0
   18.8523   61.6790   -9.8954 C   0  0  0  0  0  0  0  0  0  0  0  0
   17.4441   61.1726  -10.1157 C   0  0  0  0  0  0  0  0  0  0  0  0
   16.5164   62.2486  -10.3604 N   0  0  0  0  0  0  0  0  0  0  0  0
   16.9341   63.6009  -10.0802 C   0  0  0  0  0  0  0  0  0  0  0  0
   18.1460   63.8912  -10.9278 C   0  0  0  0  0  0  0  0  0  0  0  0
   15.2209   61.9725  -10.8667 C   0  0  0  0  0  0  0  0  0  0  0  0
   14.8467   60.7817  -11.1166 O   0  0  0  0  0  0  0  0  0  0  0  0
   21.3197   63.7554   -8.8388 Cl  0  0  0  0  0  0  0  0  0  0  0  0
   21.5163   63.3990  -10.5395 C   0  0  0  0  0  0  0  0  0  0  0  0
   20.4185   62.9889  -11.2691 C   0  0  0  0  0  0  0  0  0  0  0  0
   20.6432   62.7211  -12.6077 C   0  0  0  0  0  0  0  0  0  0  0  0
   21.8607   62.8521  -13.1666 N   0  0  0  0  0  0  0  0  0  0  0  0
   22.9234   63.2442  -12.4825 N   0  0  0  0  0  0  0  0  0  0  0  0
   22.7418   63.5133  -11.1770 C   0  0  0  0  0  0  0  0  0  0  0  0
   23.7393   63.8849  -10.5239 O   0  0  0  0  0  0  0  0  0  0  0  0
   24.2134   63.3817  -13.0853 C   0  0  0  0  0  0  0  0  0  0  0  0
   24.3395   63.6401  -14.4348 C   0  0  0  0  0  0  0  0  0  0  0  0
   25.5802   63.7740  -15.0246 C   0  0  0  0  0  0  0  0  0  0  0  0
   26.7474   63.6565  -14.2983 C   0  0  0  0  0  0  0  0  0  0  0  0
   26.6280   63.3990  -12.9487 C   0  0  0  0  0  0  0  0  0  0  0  0
   25.3884   63.2658  -12.3660 C   0  0  0  0  0  0  0  0  0  0  0  0
   14.2264   63.0443  -11.1356 C   0  0  0  0  0  0  0  0  0  0  0  0
   13.7402   62.9907  -12.4493 O   0  0  0  0  0  0  0  0  0  0  0  0
   13.5079   64.1521  -13.1606 C   0  0  0  0  0  0  0  0  0  0  0  0
   14.3722   65.0652  -13.6169 N   0  0  0  0  0  0  0  0  0  0  0  0
   13.7430   66.0085  -14.2379 O   0  0  0  0  0  0  0  0  0  0  0  0
   12.4429   65.7980  -14.2413 C   0  0  0  0  0  0  0  0  0  0  0  0
   12.2605   64.6132  -13.5574 C   0  0  0  0  0  0  0  0  0  0  0  0
   11.4687   66.7044  -14.8756 C   0  0  0  0  0  0  0  0  0  0  0  0
  9 10  1  0  0  0
 10 11  2  0  0  0
 10 15  1  0  0  0
 11 12  1  0  0  0
 11  1  1  0  0  0
 12 13  2  0  0  0
 13 14  1  0  0  0
 14 15  1  0  0  0
 14 17  1  0  0  0
 15 16  2  0  0  0
 17 18  2  0  0  0
 17 22  1  0  0  0
 18 19  1  0  0  0
 19 20  2  0  0  0
 20 21  1  0  0  0
 21 22  2  0  0  0
  1  2  1  0  0  0
  1  6  1  0  0  0
  2  3  1  0  0  0
  3  4  1  0  0  0
  4  5  1  0  0  0
  4  7  1  0  0  0
  5  6  1  0  0  0
  7  8  2  0  0  0
  7 23  1  0  0  0
 23 24  1  0  0  0
 24 25  1  0  0  0
 25 26  2  0  0  0
 25 29  1  0  0  0
 26 27  1  0  0  0
 27 28  1  0  0  0
 28 29  2  0  0  0
 28 30  1  0  0  0
M  END
> <minimizedAffinity>
-9.84569

$$$$
2386


 30 33  0  0  0  0  0  0  0  0999 V2000
   25.6480   62.9515  -12.4166 Cl  0  0  0  0  0  0  0  0  0  0  0  0
   23.9941   63.1546  -11.8481 C   0  0  0  0  0  0  0  0  0  0  0  0
   23.7775   63.0521  -10.4758 C   0  0  0  0  0  0  0  0  0  0  0  0
   22.4895   63.2081  -10.0154 C   0  0  0  0  0  0  0  0  0  0  0  0
   21.4527   63.4594  -10.9041 C   0  0  0  0  0  0  0  0  0  0  0  0
   21.6773   63.5601  -12.2717 C   0  0  0  0  0  0  0  0  0  0  0  0
   22.9716   63.4024  -12.7335 C   0  0  0  0  0  0  0  0  0  0  0  0
   20.1332   63.6278  -10.5192 O   0  0  0  0  0  0  0  0  0  0  0  0
   19.4453   63.1070   -9.4159 C   0  0  0  0  0  0  0  0  0  0  0  0
   19.9710   63.4849   -8.0791 C   0  0  0  0  0  0  0  0  0  0  0  0
   21.3435   63.8702   -8.0137 N   0  0  0  0  0  0  0  0  0  0  0  0
   22.4581   63.0678   -8.5350 C   0  0  0  0  0  0  0  0  0  0  0  0
   21.6810   65.1074   -7.3994 C   0  0  0  0  0  0  0  0  0  0  0  0
   20.7354   65.7885   -6.9409 O   0  0  0  0  0  0  0  0  0  0  0  0
   17.9769   63.5622   -9.5146 C   0  0  0  0  0  0  0  0  0  0  0  0
   17.5202   63.2235  -10.9078 C   0  0  0  0  0  0  0  0  0  0  0  0
   18.4637   62.5020  -11.6176 O   0  0  0  0  0  0  0  0  0  0  0  0
   18.8350   61.3324  -10.9781 C   0  0  0  0  0  0  0  0  0  0  0  0
   19.3509   61.5814   -9.5775 C   0  0  0  0  0  0  0  0  0  0  0  0
   23.0531   65.5786   -7.2919 C   0  0  0  0  0  0  0  0  0  0  0  0
   23.7334   65.4604   -5.9897 C   0  0  0  0  0  0  0  0  0  0  0  0
   23.3252   64.4113   -5.0416 C   0  0  0  0  0  0  0  0  0  0  0  0
   24.2870   63.5381   -4.4798 N   0  0  0  0  0  0  0  0  0  0  0  0
   25.0241   62.5575   -5.1875 C   0  0  0  0  0  0  0  0  0  0  0  0
   24.9820   62.2769   -6.4222 O   0  0  0  0  0  0  0  0  0  0  0  0
   25.8619   61.9073   -4.2481 N   0  0  0  0  0  0  0  0  0  0  0  0
   25.9269   62.7210   -3.0363 C   0  0  0  0  0  0  0  0  0  0  0  0
   24.6672   63.4901   -3.1186 C   0  0  0  0  0  0  0  0  0  0  0  0
   24.0526   64.0083   -2.1181 O   0  0  0  0  0  0  0  0  0  0  0  0
   26.3638   61.0044   -4.3606 H   0  0  0  0  0  0  0  0  0  0  0  0
  1  2  1  0  0  0
  2  3  2  0  0  0
  2  7  1  0  0  0
  3  4  1  0  0  0
  4  5  2  0  0  0
  4 12  1  0  0  0
  5  6  1  0  0  0
  5  8  1  0  0  0
  6  7  2  0  0  0
  8  9  1  0  0  0
  9 10  1  0  0  0
  9 15  1  0  0  0
  9 19  1  0  0  0
 10 11  1  0  0  0
 11 12  1  0  0  0
 11 13  1  0  0  0
 13 14  2  0  0  0
 13 20  1  0  0  0
 20 21  1  0  0  0
 21 22  1  0  0  0
 22 23  1  0  0  0
 23 24  1  0  0  0
 23 28  1  0  0  0
 24 25  2  0  0  0
 24 26  1  0  0  0
 26 27  1  0  0  0
 27 28  1  0  0  0
 28 29  2  0  0  0
 15 16  1  0  0  0
 16 17  1  0  0  0
 17 18  1  0  0  0
 18 19  1  0  0  0
 26 30  1  0  0  0
M  END
> <minimizedAffinity>
-7.47463

$$$$
2402


 33 36  0  0  0  0  0  0  0  0999 V2000
   21.8411   63.3290   -9.2954 C   0  0  0  0  0  0  0  0  0  0  0  0
   22.6266   63.1710  -10.4828 N   0  0  0  0  0  0  0  0  0  0  0  0
   21.8316   63.3775  -11.6401 C   0  0  0  0  0  0  0  0  0  0  0  0
   22.1607   63.5067  -12.8440 O   0  0  0  0  0  0  0  0  0  0  0  0
   20.4115   63.4287  -11.2215 C   0  0  0  0  0  0  0  0  0  0  0  0
   19.4120   63.5974  -11.9639 O   0  0  0  0  0  0  0  0  0  0  0  0
   20.4369   63.2440   -9.7826 C   0  0  0  0  0  0  0  0  0  0  0  0
   19.3291   63.0528   -9.0553 C   0  0  0  0  0  0  0  0  0  0  0  0
   19.5574   62.9271   -7.6790 O   0  0  0  0  0  0  0  0  0  0  0  0
   17.9917   62.9743   -9.6315 C   0  0  0  0  0  0  0  0  0  0  0  0
   17.2893   61.9588   -9.9992 O   0  0  0  0  0  0  0  0  0  0  0  0
   16.1197   62.2540  -10.4831 C   0  0  0  0  0  0  0  0  0  0  0  0
   15.9881   63.6340  -10.4502 C   0  0  0  0  0  0  0  0  0  0  0  0
   17.1961   64.0697   -9.9024 C   0  0  0  0  0  0  0  0  0  0  0  0
   14.8327   64.2202  -10.9096 C   0  0  0  0  0  0  0  0  0  0  0  0
   13.8017   63.4547  -11.4032 C   0  0  0  0  0  0  0  0  0  0  0  0
   13.9249   62.0715  -11.4397 C   0  0  0  0  0  0  0  0  0  0  0  0
   15.0706   61.5022  -10.9817 C   0  0  0  0  0  0  0  0  0  0  0  0
   15.2242   60.1316  -11.0037 O   0  0  0  0  0  0  0  0  0  0  0  0
   16.2773   59.4272  -10.3600 C   0  0  0  0  0  0  0  0  0  0  0  0
   22.8117   68.4811   -6.0433 Br  0  0  0  0  0  0  0  0  0  0  0  0
   22.5848   66.8538   -7.0211 C   0  0  0  0  0  0  0  0  0  0  0  0
   21.4786   66.7314   -7.8113 C   0  0  0  0  0  0  0  0  0  0  0  0
   21.2831   65.5847   -8.5226 C   0  0  0  0  0  0  0  0  0  0  0  0
   22.1477   64.5069   -8.5015 C   0  0  0  0  0  0  0  0  0  0  0  0
   23.2565   64.6570   -7.6964 C   0  0  0  0  0  0  0  0  0  0  0  0
   23.4841   65.8162   -6.9568 C   0  0  0  0  0  0  0  0  0  0  0  0
   24.0267   62.8498  -10.5344 C   0  0  0  0  0  0  0  0  0  0  0  0
   24.4598   62.4681  -11.9381 C   0  0  0  0  0  0  0  0  0  0  0  0
   25.3080   63.4293  -12.5545 N   0  0  0  0  0  0  0  0  0  0  0  0
   26.7101   63.1458  -12.5119 C   0  0  0  0  0  0  0  0  0  0  0  0
   24.8811   63.7014  -13.9204 C   0  0  0  0  0  0  0  0  0  0  0  0
   25.1773   64.3454  -12.0301 H   0  0  0  0  0  0  0  0  0  0  0  0
 21 22  1  0  0  0
 22 23  2  0  0  0
 22 27  1  0  0  0
 23 24  1  0  0  0
 24 25  2  0  0  0
 25 26  1  0  0  0
 25  1  1  0  0  0
 26 27  2  0  0  0
  1  2  1  0  0  0
  1  7  1  0  0  0
  2  3  1  0  0  0
  2 28  1  0  0  0
  3  4  2  0  0  0
  3  5  1  0  0  0
  5  6  2  0  0  0
  5  7  1  0  0  0
  7  8  2  0  0  0
  8  9  1  0  0  0
  8 10  1  0  0  0
 10 11  1  0  0  0
 10 14  2  0  0  0
 11 12  1  0  0  0
 12 13  2  0  0  0
 12 18  1  0  0  0
 13 14  1  0  0  0
 13 15  1  0  0  0
 15 16  2  0  0  0
 16 17  1  0  0  0
 17 18  2  0  0  0
 18 19  1  0  0  0
 19 20  1  0  0  0
 28 29  1  0  0  0
 29 30  1  0  0  0
 30 31  1  0  0  0
 30 32  1  0  0  0
 30 33  1  0  0  0
M  CHG 1   9  -1
M  CHG 1  30   1
M  END
> <minimizedAffinity>
-7.82890

$$$$
2403


 26 29  0  0  0  0  0  0  0  0999 V2000
   19.7069   64.2068   -9.7416 C   0  0  0  0  0  0  0  0  0  0  0  0
   18.9093   63.0158   -9.9578 N   0  0  0  0  0  0  0  0  0  0  0  0
   17.6131   62.8855  -10.2753 C   0  0  0  0  0  0  0  0  0  0  0  0
   17.2558   61.5442  -10.3601 C   0  0  0  0  0  0  0  0  0  0  0  0
   18.3904   60.8602  -10.0803 N   0  0  0  0  0  0  0  0  0  0  0  0
   19.3746   61.7306   -9.8413 C   0  0  0  0  0  0  0  0  0  0  0  0
   16.0123   61.1222  -10.6682 N   0  0  0  0  0  0  0  0  0  0  0  0
   15.0975   62.0819  -10.9006 C   0  0  0  0  0  0  0  0  0  0  0  0
   13.9286   61.7057  -11.1901 O   0  0  0  0  0  0  0  0  0  0  0  0
   15.3901   63.3896  -10.8331 N   0  0  0  0  0  0  0  0  0  0  0  0
   16.6330   63.8145  -10.5242 C   0  0  0  0  0  0  0  0  0  0  0  0
   16.9247   65.0245  -10.4589 O   0  0  0  0  0  0  0  0  0  0  0  0
   14.4001   64.4220  -11.0849 C   0  0  0  0  0  0  0  0  0  0  0  0
   15.7040   59.7067  -10.7390 C   0  0  0  0  0  0  0  0  0  0  0  0
   26.0920   63.1433   -4.6394 Br  0  0  0  0  0  0  0  0  0  0  0  0
   24.4851   63.5145   -5.5938 C   0  0  0  0  0  0  0  0  0  0  0  0
   24.4154   63.1423   -6.9087 C   0  0  0  0  0  0  0  0  0  0  0  0
   23.2865   63.3955   -7.6034 N   0  0  0  0  0  0  0  0  0  0  0  0
   22.2414   64.0027   -7.0216 C   0  0  0  0  0  0  0  0  0  0  0  0
   21.0996   64.2584   -7.7249 N   0  0  0  0  0  0  0  0  0  0  0  0
   20.9892   63.9098   -9.0192 C   0  0  0  0  0  0  0  0  0  0  0  0
   22.0700   63.2894   -9.5950 C   0  0  0  0  0  0  0  0  0  0  0  0
   23.2359   63.0170   -8.9135 C   0  0  0  0  0  0  0  0  0  0  0  0
   24.2245   62.4579   -9.4124 O   0  0  0  0  0  0  0  0  0  0  0  0
   22.3029   64.3827   -5.6904 C   0  0  0  0  0  0  0  0  0  0  0  0
   23.4376   64.1396   -4.9574 C   0  0  0  0  0  0  0  0  0  0  0  0
 15 16  1  0  0  0
 16 17  2  0  0  0
 16 26  1  0  0  0
 17 18  1  0  0  0
 18 19  1  0  0  0
 18 23  1  0  0  0
 19 20  2  0  0  0
 19 25  1  0  0  0
 20 21  1  0  0  0
 21 22  2  0  0  0
 21  1  1  0  0  0
 22 23  1  0  0  0
 23 24  2  0  0  0
  1  2  1  0  0  0
  2  3  1  0  0  0
  2  6  1  0  0  0
  3  4  2  0  0  0
  3 11  1  0  0  0
  4  5  1  0  0  0
  4  7  1  0  0  0
  5  6  2  0  0  0
  7  8  1  0  0  0
  7 14  1  0  0  0
  8  9  2  0  0  0
  8 10  1  0  0  0
 10 11  1  0  0  0
 10 13  1  0  0  0
 11 12  2  0  0  0
 25 26  2  0  0  0
M  END
> <minimizedAffinity>
-8.76414

$$$$
2416


 34 37  0  0  0  0  0  0  0  0999 V2000
   17.2100   62.6461  -10.5763 N   0  0  0  0  0  0  0  0  0  0  0  0
   16.2460   61.6612  -10.7680 C   0  0  0  0  0  0  0  0  0  0  0  0
   14.8563   62.3115  -10.7384 C   0  0  0  0  0  0  0  0  0  0  0  0
   14.8990   63.5863  -11.4564 N   0  0  0  0  0  0  0  0  0  0  0  0
   15.8553   64.5611  -10.9699 C   0  0  0  0  0  0  0  0  0  0  0  0
   16.7490   63.8217   -9.9635 C   0  0  0  0  0  0  0  0  0  0  0  0
   14.0489   63.8101  -12.5753 C   0  0  0  0  0  0  0  0  0  0  0  0
   13.2794   62.8800  -12.9115 O   0  0  0  0  0  0  0  0  0  0  0  0
   18.8305   62.3466  -10.7544 S   0  0  0  0  0  0  0  0  0  0  0  0
   19.1044   60.8991  -10.3898 O   0  0  0  0  0  0  0  0  0  0  0  0
   19.3379   62.5091  -12.1721 O   0  0  0  0  0  0  0  0  0  0  0  0
   19.8605   63.3255   -9.7039 C   0  0  0  0  0  0  0  0  0  0  0  0
   20.5564   64.4103  -10.1850 C   0  0  0  0  0  0  0  0  0  0  0  0
   21.3509   65.1402   -9.3282 C   0  0  0  0  0  0  0  0  0  0  0  0
   21.4920   64.8412   -7.9858 C   0  0  0  0  0  0  0  0  0  0  0  0
   20.7877   63.7453   -7.5024 C   0  0  0  0  0  0  0  0  0  0  0  0
   19.9959   63.0191   -8.3627 C   0  0  0  0  0  0  0  0  0  0  0  0
   22.4872   65.7550   -6.9008 Cl  0  0  0  0  0  0  0  0  0  0  0  0
   14.0831   65.0809  -13.2986 C   0  0  0  0  0  0  0  0  0  0  0  0
   13.2404   65.0983  -14.5655 C   0  0  0  0  0  0  0  0  0  0  0  0
   13.9256   65.6498  -15.7045 N   0  0  0  0  0  0  0  0  0  0  0  0
   13.7486   66.8532  -16.4381 C   0  0  0  0  0  0  0  0  0  0  0  0
   14.1871   66.9451  -17.6152 O   0  0  0  0  0  0  0  0  0  0  0  0
   13.0754   68.0867  -15.9768 C   0  0  0  0  0  0  0  0  0  0  0  0
   12.0933   68.1848  -14.9849 C   0  0  0  0  0  0  0  0  0  0  0  0
   11.5759   69.4089  -14.6694 C   0  0  0  0  0  0  0  0  0  0  0  0
   11.9882   70.5855  -15.2977 C   0  0  0  0  0  0  0  0  0  0  0  0
   12.9699   70.4554  -16.2807 C   0  0  0  0  0  0  0  0  0  0  0  0
   13.4994   69.2269  -16.6098 C   0  0  0  0  0  0  0  0  0  0  0  0
   11.5532   67.1046  -14.2387 N   0  0  0  0  0  0  0  0  0  0  0  0
   11.9335   65.7256  -14.2745 C   0  0  0  0  0  0  0  0  0  0  0  0
   10.9542   64.9440  -14.0052 O   0  0  0  0  0  0  0  0  0  0  0  0
   14.7309   65.0779  -16.1115 H   0  0  0  0  0  0  0  0  0  0  0  0
   10.8014   67.3572  -13.5979 H   0  0  0  0  0  0  0  0  0  0  0  0
  9 10  2  0  0  0
  9 11  2  0  0  0
  9  1  1  0  0  0
  9 12  1  0  0  0
  1  2  1  0  0  0
  1  6  1  0  0  0
  2  3  1  0  0  0
  3  4  1  0  0  0
  4  5  1  0  0  0
  4  7  1  0  0  0
  5  6  1  0  0  0
  7  8  2  0  0  0
  7 19  1  0  0  0
 19 20  1  0  0  0
 20 21  1  0  0  0
 20 31  1  0  0  0
 21 22  1  0  0  0
 22 23  2  0  0  0
 22 24  1  0  0  0
 24 25  2  0  0  0
 24 29  1  0  0  0
 25 26  1  0  0  0
 25 30  1  0  0  0
 26 27  2  0  0  0
 27 28  1  0  0  0
 28 29  2  0  0  0
 30 31  1  0  0  0
 31 32  2  0  0  0
 12 13  2  0  0  0
 12 17  1  0  0  0
 13 14  1  0  0  0
 14 15  2  0  0  0
 15 16  1  0  0  0
 15 18  1  0  0  0
 16 17  2  0  0  0
 21 33  1  0  0  0
 30 34  1  0  0  0
M  END
> <minimizedAffinity>
-8.57182

$$$$
2417


 27 30  0  0  0  0  0  0  0  0999 V2000
   20.7146   62.7235   -9.9074 N   0  0  0  0  0  0  0  0  0  0  0  0
   21.5076   62.9998   -8.6871 C   0  0  0  0  0  0  0  0  0  0  0  0
   21.9566   64.3723   -8.9008 C   0  0  0  0  0  0  0  0  0  0  0  0
   22.5528   64.2608  -10.2950 C   0  0  0  0  0  0  0  0  0  0  0  0
   21.3362   63.4580  -10.9243 C   0  0  0  0  0  0  0  0  0  0  0  0
   23.6834   63.2735  -10.3327 C   0  0  0  0  0  0  0  0  0  0  0  0
   23.5018   62.3991  -11.4363 O   0  0  0  0  0  0  0  0  0  0  0  0
   23.5468   63.0058  -12.2715 H   0  0  0  0  0  0  0  0  0  0  0  0
   19.3189   63.0334   -9.5622 C   0  0  0  0  0  0  0  0  0  0  0  0
   17.0437   64.8128  -10.5362 Cl  0  0  0  0  0  0  0  0  0  0  0  0
   16.2988   63.2256  -10.6937 C   0  0  0  0  0  0  0  0  0  0  0  0
   17.0186   62.1386  -10.2586 C   0  0  0  0  0  0  0  0  0  0  0  0
   16.3961   60.9122  -10.2909 C   0  0  0  0  0  0  0  0  0  0  0  0
   17.3397   60.0327   -9.8892 N   0  0  0  0  0  0  0  0  0  0  0  0
   18.4565   60.6661   -9.6482 N   0  0  0  0  0  0  0  0  0  0  0  0
   18.3322   62.0264   -9.8614 C   0  0  0  0  0  0  0  0  0  0  0  0
   17.0849   58.6017   -9.6485 C   0  0  0  0  0  0  0  0  0  0  0  0
   15.1224   60.7434  -10.7415 C   0  0  0  0  0  0  0  0  0  0  0  0
   14.4071   61.8595  -11.1855 C   0  0  0  0  0  0  0  0  0  0  0  0
   15.0166   63.1097  -11.1588 C   0  0  0  0  0  0  0  0  0  0  0  0
   22.9900   64.8862   -7.9293 C   0  0  0  0  0  0  0  0  0  0  0  0
   23.0331   64.0034   -6.8063 N   0  0  0  0  0  0  0  0  0  0  0  0
   24.1376   63.0690   -6.8629 C   0  0  0  0  0  0  0  0  0  0  0  0
   25.0692   63.1602   -5.6765 C   0  0  0  0  0  0  0  0  0  0  0  0
   24.4373   63.0544   -4.4588 O   0  0  0  0  0  0  0  0  0  0  0  0
   23.1797   63.6508   -4.4489 C   0  0  0  0  0  0  0  0  0  0  0  0
   23.1111   64.6821   -5.5335 C   0  0  0  0  0  0  0  0  0  0  0  0
 10 11  1  0  0  0
 11 12  2  0  0  0
 11 20  1  0  0  0
 12 13  1  0  0  0
 12 16  1  0  0  0
 13 14  1  0  0  0
 13 18  2  0  0  0
 14 15  1  0  0  0
 14 17  1  0  0  0
 15 16  2  0  0  0
 16  9  1  0  0  0
  9  1  1  0  0  0
  1  2  1  0  0  0
  1  5  1  0  0  0
  2  3  1  0  0  0
  3  4  1  0  0  0
  3 21  1  0  0  0
  4  5  1  0  0  0
  4  6  1  0  0  0
  6  7  1  0  0  0
 21 22  1  0  0  0
 22 23  1  0  0  0
 22 27  1  0  0  0
 23 24  1  0  0  0
 24 25  1  0  0  0
 25 26  1  0  0  0
 26 27  1  0  0  0
 18 19  1  0  0  0
 19 20  2  0  0  0
  7  8  1  0  0  0
M  END
> <minimizedAffinity>
-9.12328

$$$$
2419


 32 36  0  0  0  0  0  0  0  0999 V2000
   20.3831   63.0472  -11.2215 C   0  0  0  0  0  0  0  0  0  0  0  0
   21.0024   63.1301  -12.4796 C   0  0  0  0  0  0  0  0  0  0  0  0
   22.3073   63.2215  -12.2569 N   0  0  0  0  0  0  0  0  0  0  0  0
   23.4730   63.3370  -12.9638 C   0  0  0  0  0  0  0  0  0  0  0  0
   24.4658   63.3897  -12.0181 C   0  0  0  0  0  0  0  0  0  0  0  0
   23.8852   63.3079  -10.8307 N   0  0  0  0  0  0  0  0  0  0  0  0
   22.5321   63.2014  -10.9646 C   0  0  0  0  0  0  0  0  0  0  0  0
   21.3466   63.0921  -10.2948 N   0  0  0  0  0  0  0  0  0  0  0  0
   25.8106   63.5104  -12.3799 C   0  0  0  0  0  0  0  0  0  0  0  0
   26.1548   63.5768  -13.7128 C   0  0  0  0  0  0  0  0  0  0  0  0
   25.1405   63.5213  -14.6416 C   0  0  0  0  0  0  0  0  0  0  0  0
   23.8010   63.4024  -14.2900 C   0  0  0  0  0  0  0  0  0  0  0  0
   24.4174   63.3364   -9.9404 H   0  0  0  0  0  0  0  0  0  0  0  0
   14.2329   62.8884  -10.6590 Br  0  0  0  0  0  0  0  0  0  0  0  0
   16.1515   62.9210  -10.8242 C   0  0  0  0  0  0  0  0  0  0  0  0
   16.8090   64.0171  -11.2919 C   0  0  0  0  0  0  0  0  0  0  0  0
   18.1693   64.0353  -11.4069 C   0  0  0  0  0  0  0  0  0  0  0  0
   18.9489   62.9506  -11.0589 C   0  0  0  0  0  0  0  0  0  0  0  0
   18.2967   61.8597  -10.5937 C   0  0  0  0  0  0  0  0  0  0  0  0
   16.8865   61.8251  -10.4685 C   0  0  0  0  0  0  0  0  0  0  0  0
   21.3000   63.0631   -8.8649 C   0  0  0  0  0  0  0  0  0  0  0  0
   21.6639   64.3000   -8.1479 C   0  0  0  0  0  0  0  0  0  0  0  0
   22.9467   64.3441   -7.3991 C   0  0  0  0  0  0  0  0  0  0  0  0
   22.7381   64.3960   -5.9689 N   0  0  0  0  0  0  0  0  0  0  0  0
   22.3429   65.2567   -5.5987 H   0  0  0  0  0  0  0  0  0  0  0  0
   21.9672   63.6587   -5.7712 H   0  0  0  0  0  0  0  0  0  0  0  0
   23.8711   63.9478   -5.2147 C   0  0  0  0  0  0  0  0  0  0  0  0
   23.5622   63.4767   -3.8217 C   0  0  0  0  0  0  0  0  0  0  0  0
   24.8912   63.5194   -3.0530 C   0  0  0  0  0  0  0  0  0  0  0  0
   25.8427   62.5732   -3.6992 C   0  0  0  0  0  0  0  0  0  0  0  0
   26.0064   62.7926   -5.1853 C   0  0  0  0  0  0  0  0  0  0  0  0
   24.6399   62.8133   -5.8797 C   0  0  0  0  0  0  0  0  0  0  0  0
 14 15  1  0  0  0
 15 16  2  0  0  0
 15 20  1  0  0  0
 16 17  1  0  0  0
 17 18  2  0  0  0
 18 19  1  0  0  0
 18  1  1  0  0  0
 19 20  2  0  0  0
  1  2  2  0  0  0
  1  8  1  0  0  0
  2  3  1  0  0  0
  3  4  1  0  0  0
  3  7  1  0  0  0
  4  5  2  0  0  0
  4 12  1  0  0  0
  5  6  1  0  0  0
  5  9  1  0  0  0
  6  7  2  0  0  0
  7  8  1  0  0  0
  8 21  1  0  0  0
 21 22  1  0  0  0
 22 23  1  0  0  0
 23 24  1  0  0  0
 24 27  1  0  0  0
 27 28  1  0  0  0
 27 32  1  0  0  0
 28 29  1  0  0  0
 29 30  1  0  0  0
 30 31  1  0  0  0
 31 32  1  0  0  0
  9 10  2  0  0  0
 10 11  1  0  0  0
 11 12  2  0  0  0
  6 13  1  0  0  0
 24 25  1  0  0  0
 24 26  1  0  0  0
M  CHG 1  24   1
M  END
> <minimizedAffinity>
-9.71330

$$$$
2420


 29 32  0  0  0  0  0  0  0  0999 V2000
   20.6811   63.4752  -10.4192 N   0  0  0  0  0  0  0  0  0  0  0  0
   20.9406   64.7138   -9.6878 C   0  0  0  0  0  0  0  0  0  0  0  0
   22.4368   64.6723   -9.4710 C   0  0  0  0  0  0  0  0  0  0  0  0
   22.9437   64.1848  -10.8232 C   0  0  0  0  0  0  0  0  0  0  0  0
   21.7866   63.3597  -11.3198 C   0  0  0  0  0  0  0  0  0  0  0  0
   21.7818   62.6618  -12.3772 O   0  0  0  0  0  0  0  0  0  0  0  0
   13.6987   63.1982  -11.4717 Br  0  0  0  0  0  0  0  0  0  0  0  0
   15.5661   63.0931  -11.1191 C   0  0  0  0  0  0  0  0  0  0  0  0
   16.1202   61.9514  -10.5849 C   0  0  0  0  0  0  0  0  0  0  0  0
   17.4554   61.8586  -10.3264 C   0  0  0  0  0  0  0  0  0  0  0  0
   18.2762   60.8966   -9.8175 N   0  0  0  0  0  0  0  0  0  0  0  0
   19.5204   61.3489   -9.7857 N   0  0  0  0  0  0  0  0  0  0  0  0
   19.5762   62.6003  -10.2602 C   0  0  0  0  0  0  0  0  0  0  0  0
   18.2703   62.9284  -10.6042 C   0  0  0  0  0  0  0  0  0  0  0  0
   17.7375   64.0926  -11.1436 C   0  0  0  0  0  0  0  0  0  0  0  0
   16.3889   64.1844  -11.4043 C   0  0  0  0  0  0  0  0  0  0  0  0
   17.8793   59.9691   -9.5250 H   0  0  0  0  0  0  0  0  0  0  0  0
   22.8147   63.7147   -8.4044 C   0  0  0  0  0  0  0  0  0  0  0  0
   22.1345   62.6659   -8.2811 O   0  0  0  0  0  0  0  0  0  0  0  0
   23.9020   63.9391   -7.5297 N   0  0  0  0  0  0  0  0  0  0  0  0
   24.4471   64.8290   -7.6619 H   0  0  0  0  0  0  0  0  0  0  0  0
   24.2751   63.0128   -6.4918 C   0  0  0  0  0  0  0  0  0  0  0  0
   23.7823   63.5258   -5.1553 C   0  0  0  0  0  0  0  0  0  0  0  0
   24.0808   62.6303   -4.0648 N   0  0  0  0  0  0  0  0  0  0  0  0
   25.4527   62.1681   -4.2435 C   0  0  0  0  0  0  0  0  0  0  0  0
   26.4333   63.1804   -3.6576 C   0  0  0  0  0  0  0  0  0  0  0  0
   26.3552   63.2618   -2.2871 O   0  0  0  0  0  0  0  0  0  0  0  0
   25.1228   62.8158   -1.8700 C   0  0  0  0  0  0  0  0  0  0  0  0
   24.0053   63.2856   -2.7789 C   0  0  0  0  0  0  0  0  0  0  0  0
  7  8  1  0  0  0
  8  9  2  0  0  0
  8 16  1  0  0  0
  9 10  1  0  0  0
 10 11  1  0  0  0
 10 14  2  0  0  0
 11 12  1  0  0  0
 12 13  2  0  0  0
 13 14  1  0  0  0
 13  1  1  0  0  0
 14 15  1  0  0  0
 15 16  2  0  0  0
  1  2  1  0  0  0
  1  5  1  0  0  0
  2  3  1  0  0  0
  3  4  1  0  0  0
  3 18  1  0  0  0
  4  5  1  0  0  0
  5  6  2  0  0  0
 18 19  2  0  0  0
 18 20  1  0  0  0
 20 22  1  0  0  0
 22 23  1  0  0  0
 23 24  1  0  0  0
 24 25  1  0  0  0
 24 29  1  0  0  0
 25 26  1  0  0  0
 26 27  1  0  0  0
 27 28  1  0  0  0
 28 29  1  0  0  0
 11 17  1  0  0  0
 20 21  1  0  0  0
M  END
> <minimizedAffinity>
-8.67896

$$$$
2432


 26 29  0  0  0  0  0  0  0  0999 V2000
   23.4364   63.1858  -10.4825 C   0  0  0  0  0  0  0  0  0  0  0  0
   24.1166   62.2250   -9.8850 O   0  0  0  0  0  0  0  0  0  0  0  0
   22.5105   63.8720   -9.7129 N   0  0  0  0  0  0  0  0  0  0  0  0
   22.3289   63.4438   -8.3047 C   0  0  0  0  0  0  0  0  0  0  0  0
   20.8926   63.0092   -8.1856 C   0  0  0  0  0  0  0  0  0  0  0  0
   20.0957   63.2544   -9.3457 N   0  0  0  0  0  0  0  0  0  0  0  0
   20.2948   64.3738  -10.2543 C   0  0  0  0  0  0  0  0  0  0  0  0
   21.6823   64.9662  -10.0609 C   0  0  0  0  0  0  0  0  0  0  0  0
   19.0307   62.3707   -9.6710 C   0  0  0  0  0  0  0  0  0  0  0  0
   19.1742   61.0368   -9.5586 N   0  0  0  0  0  0  0  0  0  0  0  0
   18.1714   60.1806   -9.8662 C   0  0  0  0  0  0  0  0  0  0  0  0
   16.9873   60.6476  -10.2979 N   0  0  0  0  0  0  0  0  0  0  0  0
   16.7642   61.9643  -10.4369 C   0  0  0  0  0  0  0  0  0  0  0  0
   15.6940   62.6744  -10.8395 N   0  0  0  0  0  0  0  0  0  0  0  0
   16.0299   63.9475  -10.7824 N   0  0  0  0  0  0  0  0  0  0  0  0
   17.3042   64.0865  -10.3478 C   0  0  0  0  0  0  0  0  0  0  0  0
   17.8110   62.8352  -10.1148 C   0  0  0  0  0  0  0  0  0  0  0  0
   14.3902   62.1657  -11.2669 C   0  0  0  0  0  0  0  0  0  0  0  0
   23.2961   63.8357  -15.7365 Cl  0  0  0  0  0  0  0  0  0  0  0  0
   23.8227   63.6146  -14.0819 C   0  0  0  0  0  0  0  0  0  0  0  0
   23.0588   63.4897  -12.9611 N   0  0  0  0  0  0  0  0  0  0  0  0
   23.8051   63.3354  -11.8663 C   0  0  0  0  0  0  0  0  0  0  0  0
   25.1199   63.3672  -12.3487 C   0  0  0  0  0  0  0  0  0  0  0  0
   25.1382   63.5392  -13.7127 C   0  0  0  0  0  0  0  0  0  0  0  0
   26.5293   63.6424  -14.7704 Cl  0  0  0  0  0  0  0  0  0  0  0  0
   22.0244   63.5136  -13.0608 H   0  0  0  0  0  0  0  0  0  0  0  0
 19 20  1  0  0  0
 20 21  1  0  0  0
 20 24  2  0  0  0
 21 22  1  0  0  0
 22 23  2  0  0  0
 22  1  1  0  0  0
 23 24  1  0  0  0
 24 25  1  0  0  0
  1  2  2  0  0  0
  1  3  1  0  0  0
  3  4  1  0  0  0
  3  8  1  0  0  0
  4  5  1  0  0  0
  5  6  1  0  0  0
  6  7  1  0  0  0
  6  9  1  0  0  0
  7  8  1  0  0  0
  9 10  2  0  0  0
  9 17  1  0  0  0
 10 11  1  0  0  0
 11 12  2  0  0  0
 12 13  1  0  0  0
 13 14  1  0  0  0
 13 17  2  0  0  0
 14 15  1  0  0  0
 14 18  1  0  0  0
 15 16  2  0  0  0
 16 17  1  0  0  0
 21 26  1  0  0  0
M  END
> <minimizedAffinity>
-9.25752

$$$$
2439


 30 34  0  0  0  0  0  0  0  0999 V2000
   20.2355   63.0244  -11.1569 C   0  0  0  0  0  0  0  0  0  0  0  0
   20.8609   63.1248  -12.4126 C   0  0  0  0  0  0  0  0  0  0  0  0
   22.1769   63.2182  -12.2354 N   0  0  0  0  0  0  0  0  0  0  0  0
   23.3494   63.3429  -12.9100 C   0  0  0  0  0  0  0  0  0  0  0  0
   24.3307   63.3840  -11.9795 C   0  0  0  0  0  0  0  0  0  0  0  0
   23.7421   63.2846  -10.7787 N   0  0  0  0  0  0  0  0  0  0  0  0
   22.4019   63.1797  -10.9208 C   0  0  0  0  0  0  0  0  0  0  0  0
   21.2142   63.0596  -10.2416 N   0  0  0  0  0  0  0  0  0  0  0  0
   25.6557   63.5082  -12.3583 C   0  0  0  0  0  0  0  0  0  0  0  0
   26.0036   63.5944  -13.6966 C   0  0  0  0  0  0  0  0  0  0  0  0
   24.9964   63.5519  -14.6513 C   0  0  0  0  0  0  0  0  0  0  0  0
   23.6890   63.4269  -14.2380 C   0  0  0  0  0  0  0  0  0  0  0  0
   24.2409   63.2961   -9.8512 H   0  0  0  0  0  0  0  0  0  0  0  0
   14.0460   62.9613  -10.7726 Br  0  0  0  0  0  0  0  0  0  0  0  0
   15.9394   62.9706  -10.8826 C   0  0  0  0  0  0  0  0  0  0  0  0
   16.6293   64.0678  -11.3088 C   0  0  0  0  0  0  0  0  0  0  0  0
   18.0085   64.0387  -11.3763 C   0  0  0  0  0  0  0  0  0  0  0  0
   18.7772   62.9290  -11.0270 C   0  0  0  0  0  0  0  0  0  0  0  0
   18.0784   61.8416  -10.6031 C   0  0  0  0  0  0  0  0  0  0  0  0
   16.6643   61.8648  -10.5328 C   0  0  0  0  0  0  0  0  0  0  0  0
   21.1131   63.0152   -8.8205 C   0  0  0  0  0  0  0  0  0  0  0  0
   20.9462   64.3482   -8.1374 C   0  0  0  0  0  0  0  0  0  0  0  0
   21.1991   64.3944   -6.6969 C   0  0  0  0  0  0  0  0  0  0  0  0
   22.3585   65.0759   -6.2008 N   0  0  0  0  0  0  0  0  0  0  0  0
   22.8692   64.4849   -4.9770 C   0  0  0  0  0  0  0  0  0  0  0  0
   23.8385   63.3919   -5.1363 C   0  0  0  0  0  0  0  0  0  0  0  0
   24.3948   63.1838   -6.4956 C   0  0  0  0  0  0  0  0  0  0  0  0
   24.5307   64.4727   -7.2259 C   0  0  0  0  0  0  0  0  0  0  0  0
   23.3510   65.3696   -7.1725 C   0  0  0  0  0  0  0  0  0  0  0  0
   21.9941   65.9942   -5.8609 H   0  0  0  0  0  0  0  0  0  0  0  0
 14 15  1  0  0  0
 15 16  2  0  0  0
 15 20  1  0  0  0
 16 17  1  0  0  0
 17 18  2  0  0  0
 18 19  1  0  0  0
 18  1  1  0  0  0
 19 20  2  0  0  0
  1  2  2  0  0  0
  1  8  1  0  0  0
  2  3  1  0  0  0
  3  4  1  0  0  0
  3  7  1  0  0  0
  4  5  2  0  0  0
  4 12  1  0  0  0
  5  6  1  0  0  0
  5  9  1  0  0  0
  6  7  2  0  0  0
  7  8  1  0  0  0
  8 21  1  0  0  0
 21 22  1  0  0  0
 22 23  1  0  0  0
 23 24  1  0  0  0
 24 25  1  0  0  0
 24 29  1  0  0  0
 25 26  1  0  0  0
 26 27  1  0  0  0
 27 28  1  0  0  0
 28 29  1  0  0  0
  9 10  2  0  0  0
 10 11  1  0  0  0
 11 12  2  0  0  0
  6 13  1  0  0  0
 24 30  1  0  0  0
M  CHG 1  24   1
M  END
> <minimizedAffinity>
-8.84376

$$$$
2440


 33 36  0  0  0  0  0  0  0  0999 V2000
   15.4367   60.6111  -11.2287 Cl  0  0  0  0  0  0  0  0  0  0  0  0
   16.0049   62.1801  -10.6661 C   0  0  0  0  0  0  0  0  0  0  0  0
   17.3479   62.2715  -10.2716 C   0  0  0  0  0  0  0  0  0  0  0  0
   17.7852   63.4923   -9.8355 C   0  0  0  0  0  0  0  0  0  0  0  0
   16.9231   64.6079   -9.7848 C   0  0  0  0  0  0  0  0  0  0  0  0
   15.6112   64.5061  -10.1729 C   0  0  0  0  0  0  0  0  0  0  0  0
   15.1763   63.2745  -10.6117 C   0  0  0  0  0  0  0  0  0  0  0  0
   19.2073   63.3639   -9.4895 C   0  0  0  0  0  0  0  0  0  0  0  0
   19.5443   63.8238   -8.1900 N   0  0  0  0  0  0  0  0  0  0  0  0
   20.8603   64.2877   -8.1325 C   0  0  0  0  0  0  0  0  0  0  0  0
   21.2571   64.5220   -9.5738 C   0  0  0  0  0  0  0  0  0  0  0  0
   20.0665   64.2151  -10.4224 C   0  0  0  0  0  0  0  0  0  0  0  0
   20.5421   63.4484  -11.6037 C   0  0  0  0  0  0  0  0  0  0  0  0
   19.8108   63.1225  -12.5678 O   0  0  0  0  0  0  0  0  0  0  0  0
   21.9317   63.1752  -11.4190 N   0  0  0  0  0  0  0  0  0  0  0  0
   22.2474   63.5398  -10.0670 C   0  0  0  0  0  0  0  0  0  0  0  0
   23.2098   63.0886   -9.4263 O   0  0  0  0  0  0  0  0  0  0  0  0
   19.5399   61.9560   -9.7258 C   0  0  0  0  0  0  0  0  0  0  0  0
   20.6441   61.3552   -9.5421 O   0  0  0  0  0  0  0  0  0  0  0  0
   18.3878   61.3023  -10.2225 N   0  0  0  0  0  0  0  0  0  0  0  0
   19.1975   63.2525   -7.4017 H   0  0  0  0  0  0  0  0  0  0  0  0
   18.2737   60.3024  -10.5122 H   0  0  0  0  0  0  0  0  0  0  0  0
   22.8615   62.6491  -12.3706 C   0  0  0  0  0  0  0  0  0  0  0  0
   24.1789   63.3337  -12.4441 C   0  0  0  0  0  0  0  0  0  0  0  0
   24.8057   63.4292  -13.7897 C   0  0  0  0  0  0  0  0  0  0  0  0
   26.3051   63.6900  -13.6996 C   0  0  0  0  0  0  0  0  0  0  0  0
   21.1906   65.4223   -7.2427 C   0  0  0  0  0  0  0  0  0  0  0  0
   22.5902   65.5843   -6.8019 C   0  0  0  0  0  0  0  0  0  0  0  0
   23.1767   64.5084   -5.9963 C   0  0  0  0  0  0  0  0  0  0  0  0
   23.1478   64.5606   -4.7527 O   0  0  0  0  0  0  0  0  0  0  0  0
   23.7993   63.3627   -6.5717 N   0  0  0  0  0  0  0  0  0  0  0  0
   23.2832   62.6340   -7.0956 H   0  0  0  0  0  0  0  0  0  0  0  0
   24.8213   63.2489   -6.4638 H   0  0  0  0  0  0  0  0  0  0  0  0
  1  2  1  0  0  0
  2  3  2  0  0  0
  2  7  1  0  0  0
  3  4  1  0  0  0
  3 20  1  0  0  0
  4  5  2  0  0  0
  4  8  1  0  0  0
  5  6  1  0  0  0
  6  7  2  0  0  0
  8  9  1  0  0  0
  8 12  1  0  0  0
  8 18  1  0  0  0
  9 10  1  0  0  0
 10 11  1  0  0  0
 10 27  1  0  0  0
 11 12  1  0  0  0
 11 16  1  0  0  0
 12 13  1  0  0  0
 13 14  2  0  0  0
 13 15  1  0  0  0
 15 16  1  0  0  0
 15 23  1  0  0  0
 16 17  2  0  0  0
 23 24  1  0  0  0
 24 25  1  0  0  0
 25 26  1  0  0  0
 27 28  1  0  0  0
 28 29  1  0  0  0
 29 30  2  0  0  0
 29 31  1  0  0  0
 18 19  2  0  0  0
 18 20  1  0  0  0
  9 21  1  0  0  0
 31 32  1  0  0  0
 31 33  1  0  0  0
 20 22  1  0  0  0
M  END
> <minimizedAffinity>
-7.89040

$$$$
2447


 33 36  0  0  0  0  0  0  0  0999 V2000
   16.3778   62.2228  -10.8805 C   0  0  0  0  0  0  0  0  0  0  0  0
   15.4506   61.0544  -10.8938 C   0  0  0  0  0  0  0  0  0  0  0  0
   15.6019   60.0631  -10.1408 O   0  0  0  0  0  0  0  0  0  0  0  0
   14.4128   61.1715  -11.8147 O   0  0  0  0  0  0  0  0  0  0  0  0
   13.8716   62.3666  -12.2401 C   0  0  0  0  0  0  0  0  0  0  0  0
   14.3826   63.5075  -11.7278 C   0  0  0  0  0  0  0  0  0  0  0  0
   15.4596   63.4122  -10.7662 C   0  0  0  0  0  0  0  0  0  0  0  0
   15.6372   64.2600   -9.8754 O   0  0  0  0  0  0  0  0  0  0  0  0
   17.3614   62.1800   -9.7653 C   0  0  0  0  0  0  0  0  0  0  0  0
   21.0477   63.8948  -10.4631 N   0  0  0  0  0  0  0  0  0  0  0  0
   20.3481   63.6351   -9.2499 C   0  0  0  0  0  0  0  0  0  0  0  0
   19.7383   62.2492   -9.3280 C   0  0  0  0  0  0  0  0  0  0  0  0
   18.6726   62.3048  -10.2978 N   0  0  0  0  0  0  0  0  0  0  0  0
   18.8676   63.2177  -11.3620 C   0  0  0  0  0  0  0  0  0  0  0  0
   20.3724   63.3540  -11.5982 C   0  0  0  0  0  0  0  0  0  0  0  0
   22.7170   63.5833  -10.4026 S   0  0  0  0  0  0  0  0  0  0  0  0
   23.5428   64.8058  -10.0634 O   0  0  0  0  0  0  0  0  0  0  0  0
   22.9690   62.5873   -9.2783 O   0  0  0  0  0  0  0  0  0  0  0  0
   23.3609   62.8778  -11.8729 C   0  0  0  0  0  0  0  0  0  0  0  0
   13.8484   64.8194  -12.1179 C   0  0  0  0  0  0  0  0  0  0  0  0
   13.3299   64.8977  -13.4211 N   0  0  0  0  0  0  0  0  0  0  0  0
   13.9864   65.6283  -14.4188 C   0  0  0  0  0  0  0  0  0  0  0  0
   13.0001   66.0063  -15.5471 C   0  0  0  0  0  0  0  0  0  0  0  0
   11.8500   66.5453  -14.8675 N   0  0  0  0  0  0  0  0  0  0  0  0
   11.0759   65.5605  -14.1256 C   0  0  0  0  0  0  0  0  0  0  0  0
   12.0042   64.4511  -13.6505 C   0  0  0  0  0  0  0  0  0  0  0  0
   11.5113   67.9120  -14.9076 C   0  0  0  0  0  0  0  0  0  0  0  0
   11.8556   68.8156  -13.9281 C   0  0  0  0  0  0  0  0  0  0  0  0
   11.5015   70.1414  -14.0199 C   0  0  0  0  0  0  0  0  0  0  0  0
   10.7889   70.6386  -15.0859 C   0  0  0  0  0  0  0  0  0  0  0  0
   10.4310   69.7627  -16.0779 C   0  0  0  0  0  0  0  0  0  0  0  0
   10.7862   68.4247  -15.9884 C   0  0  0  0  0  0  0  0  0  0  0  0
   11.9659   71.2369  -12.7464 Cl  0  0  0  0  0  0  0  0  0  0  0  0
 16 17  2  0  0  0
 16 18  2  0  0  0
 16 10  1  0  0  0
 16 19  1  0  0  0
 10 11  1  0  0  0
 10 15  1  0  0  0
 11 12  1  0  0  0
 12 13  1  0  0  0
 13 14  1  0  0  0
 13  9  1  0  0  0
 14 15  1  0  0  0
  9  1  1  0  0  0
  1  2  1  0  0  0
  1  7  1  0  0  0
  2  3  2  0  0  0
  2  4  1  0  0  0
  4  5  1  0  0  0
  5  6  2  0  0  0
  6  7  1  0  0  0
  6 20  1  0  0  0
  7  8  2  0  0  0
 20 21  1  0  0  0
 21 22  1  0  0  0
 21 26  1  0  0  0
 22 23  1  0  0  0
 23 24  1  0  0  0
 24 25  1  0  0  0
 24 27  1  0  0  0
 25 26  1  0  0  0
 27 28  2  0  0  0
 27 32  1  0  0  0
 28 29  1  0  0  0
 29 30  2  0  0  0
 29 33  1  0  0  0
 30 31  1  0  0  0
 31 32  2  0  0  0
M  END
> <minimizedAffinity>
-7.73948

$$$$
