
 OpenBabel03232203513D

 60 63  0  0  1  0  0  0  0  0999 V2000
   -2.1810   15.5460  -14.9240 B   0  0  0  0  0  0  0  0  0  0  0  0
   -1.3520   16.1530  -13.3090 C   0  0  0  0  0  0  0  0  0  0  0  0
   -0.2440   15.4320  -12.8370 C   0  0  0  0  0  0  0  0  0  0  0  0
    0.3330   15.8740  -11.6900 C   0  0  0  0  0  0  0  0  0  0  0  0
   -0.1440   16.9940  -10.9970 C   0  0  0  0  0  0  0  0  0  0  0  0
   -1.2320   17.6840  -11.4800 C   0  0  0  0  0  0  0  0  0  0  0  0
   -1.8320   17.2520  -12.6440 C   0  0  0  0  0  0  0  0  0  0  0  0
   -1.9670   19.2190  -10.6260 B   0  0  0  0  0  0  0  0  0  0  0  0
    1.8380   15.0070  -10.9650 B   0  0  0  0  0  0  0  0  0  0  0  0
    0.1870   14.3570  -13.5330 O   0  0  0  0  0  0  0  0  0  0  0  0
    0.7940   13.1850  -12.9930 C   0  0  0  0  0  0  0  0  0  0  0  0
    0.1410   11.9780  -13.5190 C   0  0  1  0  0  0  0  0  0  0  0  0
    1.1150   11.3030  -14.2750 O   0  0  0  0  0  0  0  0  0  0  0  0
   -0.8740   11.1970  -12.8320 C   0  0  0  0  0  0  0  0  0  0  0  0
   -1.1210    9.8320  -13.1320 N   0  0  0  0  0  0  0  0  0  0  0  0
   -0.2450    8.8080  -12.9560 C   0  0  0  0  0  0  0  0  0  0  0  0
   -0.8270    7.6340  -13.3540 C   0  0  0  0  0  0  0  0  0  0  0  0
   -2.0340    7.9660  -13.7640 N   0  0  0  0  0  0  0  0  0  0  0  0
   -2.2490    9.3050  -13.6460 C   0  0  0  0  0  0  0  0  0  0  0  0
   -3.4470    9.9340  -14.1360 N   0  0  0  0  0  0  0  0  0  0  0  0
   -3.7700   11.3080  -14.1140 C   0  0  0  0  0  0  0  0  0  0  0  0
   -5.1300   11.4840  -14.8460 C   0  0  0  0  0  0  0  0  0  0  0  0
   -6.0760   10.7320  -14.0450 N   0  0  0  0  0  4  0  0  0  0  0  0
   -5.8480    9.3400  -14.4770 C   0  0  0  0  0  0  0  0  0  0  0  0
   -4.4310    9.0480  -14.7730 C   0  0  0  0  0  0  0  0  0  0  0  0
   -7.4440   11.1130  -14.3340 C   0  0  0  0  0  0  0  0  0  0  0  0
   -7.9350   12.0350  -13.2400 C   0  0  0  0  0  0  0  0  0  0  0  0
   -8.5150   13.1680  -13.8230 O   0  0  0  0  0  0  0  0  0  0  0  0
   -0.2070    6.4140  -13.3210 N   0  0  0  0  0  0  0  0  0  0  0  0
    1.0520    6.3960  -12.8680 C   0  0  0  0  0  0  0  0  0  0  0  0
    1.6220    5.2680  -12.8380 O   0  0  0  0  0  0  0  0  0  0  0  0
    1.6720    7.5230  -12.4690 N   0  0  0  0  0  0  0  0  0  0  0  0
    1.0760    8.7260  -12.4950 C   0  0  0  0  0  0  0  0  0  0  0  0
    1.7330    9.8640  -12.0870 O   0  0  0  0  0  0  0  0  0  0  0  0
   -0.9290    5.2280  -13.7610 C   0  0  0  0  0  0  0  0  0  0  0  0
    0.3300   17.3220  -10.0940 H   0  0  0  0  0  0  0  0  0  0  0  0
   -2.7020   17.7750  -13.0620 H   0  0  0  0  0  0  0  0  0  0  0  0
    0.4830   13.2490  -11.8920 H   0  0  0  0  0  0  0  0  0  0  0  0
    1.8730   13.2110  -12.9470 H   0  0  0  0  0  0  0  0  0  0  0  0
   -0.4860   12.4350  -14.4600 H   0  0  0  0  0  0  0  0  0  0  0  0
    1.9930   11.7170  -14.1940 H   0  0  0  0  0  0  0  0  0  0  0  0
   -0.8890   11.3900  -11.7070 H   0  0  0  0  0  0  0  0  0  0  0  0
   -1.8550   11.7720  -13.0820 H   0  0  0  0  0  0  0  0  0  0  0  0
   -3.1010   11.9410  -14.7520 H   0  0  0  0  0  0  0  0  0  0  0  0
   -3.9800   11.7190  -13.1220 H   0  0  0  0  0  0  0  0  0  0  0  0
   -5.0650   11.0700  -15.8690 H   0  0  0  0  0  0  0  0  0  0  0  0
   -5.4470   12.5270  -14.8640 H   0  0  0  0  0  0  0  0  0  0  0  0
   -5.8660   10.7450  -13.0240 H   0  0  0  0  0  0  0  0  0  0  0  0
   -6.3900    8.6160  -13.8620 H   0  0  0  0  0  0  0  0  0  0  0  0
   -6.3890    9.3090  -15.4770 H   0  0  0  0  0  0  0  0  0  0  0  0
   -4.2120    8.0070  -14.4710 H   0  0  0  0  0  0  0  0  0  0  0  0
   -4.1800    9.1030  -15.8600 H   0  0  0  0  0  0  0  0  0  0  0  0
   -8.1220   10.2190  -14.3350 H   0  0  0  0  0  0  0  0  0  0  0  0
   -7.5320   11.6700  -15.2860 H   0  0  0  0  0  0  0  0  0  0  0  0
   -8.7380   11.5500  -12.6430 H   0  0  0  0  0  0  0  0  0  0  0  0
   -7.0930   12.3800  -12.5750 H   0  0  0  0  0  0  0  0  0  0  0  0
   -9.0580   13.6710  -13.1550 H   0  0  0  0  0  0  0  0  0  0  0  0
   -1.2300    4.7040  -12.8070 H   0  0  0  0  0  0  0  0  0  0  0  0
   -1.8900    5.5500  -14.2070 H   0  0  0  0  0  0  0  0  0  0  0  0
   -0.3480    4.5500  -14.3810 H   0  0  0  0  0  0  0  0  0  0  0  0
  1  2  1  0  0  0  0
  2  3  2  0  0  0  0
  2  7  1  0  0  0  0
  3  4  1  0  0  0  0
  4  5  2  0  0  0  0
  4  9  1  0  0  0  0
  5 36  1  0  0  0  0
  6  5  1  0  0  0  0
  6  8  1  0  0  0  0
  7  6  2  0  0  0  0
 10 11  1  0  0  0  0
 10  3  1  0  0  0  0
 11 39  1  0  0  0  0
 11 38  1  0  0  0  0
 12 40  1  6  0  0  0
 12 11  1  0  0  0  0
 12 14  1  0  0  0  0
 13 41  1  0  0  0  0
 13 12  1  0  0  0  0
 14 42  1  0  0  0  0
 15 16  1  0  0  0  0
 15 14  1  0  0  0  0
 16 33  1  0  0  0  0
 17 29  1  0  0  0  0
 17 16  2  0  0  0  0
 18 19  2  0  0  0  0
 18 17  1  0  0  0  0
 19 15  1  0  0  0  0
 20 21  1  0  0  0  0
 20 19  1  0  0  0  0
 21 45  1  0  0  0  0
 22 21  1  0  0  0  0
 22 23  1  0  0  0  0
 23 48  1  0  0  0  0
 24 23  1  0  0  0  0
 24 49  1  0  0  0  0
 25 24  1  0  0  0  0
 25 51  1  0  0  0  0
 25 20  1  0  0  0  0
 26 23  1  0  0  0  0
 26 27  1  0  0  0  0
 27 55  1  0  0  0  0
 27 56  1  0  0  0  0
 28 27  1  0  0  0  0
 28 57  1  0  0  0  0
 29 30  1  0  0  0  0
 30 31  2  0  0  0  0
 30 32  1  0  0  0  0
 33 32  1  0  0  0  0
 33 34  2  0  0  0  0
 35 29  1  0  0  0  0
 35 58  1  0  0  0  0
 37  7  1  0  0  0  0
 43 14  1  0  0  0  0
 44 21  1  0  0  0  0
 46 22  1  0  0  0  0
 47 22  1  0  0  0  0
 50 24  1  0  0  0  0
 52 25  1  0  0  0  0
 53 26  1  0  0  0  0
 54 26  1  0  0  0  0
 59 35  1  0  0  0  0
 60 35  1  0  0  0  0
M  END
>  <Pose>
1

>  <Score>
-6.21

$$$$
