
 OpenBabel03232203513D

 53 56  0  0  0  0  0  0  0  0999 V2000
  -10.2670   11.6980  -16.9940 B   0  0  0  0  0  0  0  0  0  0  0  0
   -9.1900   11.9330  -15.4090 C   0  0  0  0  0  0  0  0  0  0  0  0
   -9.4750   12.9850  -14.5640 C   0  0  0  0  0  0  0  0  0  0  0  0
   -8.7420   13.1640  -13.4240 C   0  0  0  0  0  0  0  0  0  0  0  0
   -7.7270   12.2710  -13.1640 C   0  0  0  0  0  0  0  0  0  0  0  0
   -7.3990   11.2020  -13.9780 C   0  0  0  0  0  0  0  0  0  0  0  0
   -8.2130   11.0680  -15.1630 C   0  0  0  0  0  0  0  0  0  0  0  0
   -6.4190   10.2650  -13.8160 C   0  0  0  0  0  0  0  0  0  0  0  0
   -5.9790    9.0450  -14.1790 N   0  0  0  0  0  0  0  0  0  0  0  0
   -4.6680    9.0860  -13.2690 N   0  0  0  0  0  0  0  0  0  0  0  0
   -3.6900    9.6540  -14.1700 C   0  0  0  0  0  0  0  0  0  0  0  0
   -3.9660    9.8200  -15.3580 O   0  0  0  0  0  0  0  0  0  0  0  0
   -2.4160   10.1160  -13.6670 C   0  0  0  0  0  0  0  0  0  0  0  0
   -1.7470   11.2130  -13.7230 N   0  0  0  0  0  0  0  0  0  0  0  0
   -0.4600   10.9670  -13.5420 N   0  0  0  0  0  0  0  0  0  0  0  0
   -0.2980    9.6650  -13.3560 N   0  0  0  0  0  0  0  0  0  0  0  0
   -1.4510    9.0140  -13.3940 C   0  0  0  0  0  0  0  0  0  0  0  0
   -1.8400    7.6330  -13.3990 C   0  0  0  0  0  0  0  0  0  0  0  0
   -1.5660    6.8450  -14.6020 N   0  0  0  0  0  0  0  0  0  0  0  0
   -2.5680    7.0140  -15.6040 C   0  0  0  0  0  0  0  0  0  0  0  0
   -3.9110    6.4370  -15.2570 C   0  0  0  0  0  0  0  0  0  0  0  0
   -3.8590    5.0570  -15.3460 O   0  0  0  0  0  0  0  0  0  0  0  0
   -2.5470    4.5990  -15.1750 C   0  0  0  0  0  0  0  0  0  0  0  0
   -1.8610    5.4210  -14.1360 C   0  0  0  0  0  0  0  0  0  0  0  0
    1.0030    9.0590  -13.5550 C   0  0  0  0  0  0  0  0  0  0  0  0
    1.8620    9.0940  -14.4860 N   0  0  0  0  0  0  0  0  0  0  0  0
    2.9140    8.3130  -14.2380 O   0  0  0  0  0  0  0  0  0  0  0  0
    2.6980    7.7690  -13.0960 N   0  0  0  0  0  0  0  0  0  0  0  0
    1.5340    8.1610  -12.5780 C   0  0  0  0  0  0  0  0  0  0  0  0
    0.9460    7.7730  -11.3630 N   0  0  0  0  0  0  0  0  0  0  0  0
   -9.0120   14.2090  -12.5330 O   0  0  0  0  0  0  0  0  0  0  0  0
   -8.3480   15.4740  -12.7280 C   0  0  0  0  0  0  0  0  0  0  0  0
  -10.5150   13.8630  -14.8830 O   0  0  0  0  0  0  0  0  0  0  0  0
   -7.1480   12.4170  -12.2350 H   0  0  0  0  0  0  0  0  0  0  0  0
   -8.0070   10.2280  -15.8330 H   0  0  0  0  0  0  0  0  0  0  0  0
   -5.5890   10.6160  -13.0330 H   0  0  0  0  0  0  0  0  0  0  0  0
   -4.8280    8.7650  -12.4100 H   0  0  0  0  0  0  0  0  0  0  0  0
   -1.7100    7.0140  -12.5060 H   0  0  0  0  0  0  0  0  0  0  0  0
   -3.0280    7.6230  -13.4420 H   0  0  0  0  0  0  0  0  0  0  0  0
   -2.6720    8.0840  -15.8220 H   0  0  0  0  0  0  0  0  0  0  0  0
   -2.2490    6.4990  -16.5720 H   0  0  0  0  0  0  0  0  0  0  0  0
   -4.3400    6.8190  -14.3310 H   0  0  0  0  0  0  0  0  0  0  0  0
   -4.6200    6.7490  -16.0790 H   0  0  0  0  0  0  0  0  0  0  0  0
   -1.9900    4.3780  -16.0650 H   0  0  0  0  0  0  0  0  0  0  0  0
   -2.6980    3.5730  -14.6740 H   0  0  0  0  0  0  0  0  0  0  0  0
   -0.9640    4.9310  -13.7850 H   0  0  0  0  0  0  0  0  0  0  0  0
   -2.6600    5.5520  -13.3440 H   0  0  0  0  0  0  0  0  0  0  0  0
    1.0430    6.8200  -10.9700 H   0  0  0  0  0  0  0  0  0  0  0  0
    0.3690    8.4550  -10.7640 H   0  0  0  0  0  0  0  0  0  0  0  0
   -8.6710   16.2190  -11.9910 H   0  0  0  0  0  0  0  0  0  0  0  0
   -7.2230   15.2690  -12.6250 H   0  0  0  0  0  0  0  0  0  0  0  0
   -8.5460   15.8000  -13.7460 H   0  0  0  0  0  0  0  0  0  0  0  0
  -10.7930   14.5700  -14.1690 H   0  0  0  0  0  0  0  0  0  0  0  0
  1  2  1  0  0  0  0
  2  7  2  0  0  0  0
  2  3  1  0  0  0  0
  3  4  2  0  0  0  0
  4  5  1  0  0  0  0
  4 31  1  0  0  0  0
  5 34  1  0  0  0  0
  6  8  1  0  0  0  0
  6  5  2  0  0  0  0
  7  6  1  0  0  0  0
  8 36  1  0  0  0  0
  9  8  1  0  0  0  0
  9 10  1  0  0  0  0
 10 37  1  0  0  0  0
 11 13  1  0  0  0  0
 11 10  1  0  0  0  0
 12 11  2  0  0  0  0
 13 17  2  0  0  0  0
 14 13  1  0  0  0  0
 14 15  2  0  0  0  0
 15 16  1  0  0  0  0
 17 16  1  0  0  0  0
 18 17  1  0  0  0  0
 18 38  1  0  0  0  0
 19 24  1  0  0  0  0
 19 18  1  0  0  0  0
 20 21  1  0  0  0  0
 20 19  1  0  0  0  0
 21 42  1  0  0  0  0
 22 21  1  0  0  0  0
 22 23  1  0  0  0  0
 23 45  1  0  0  0  0
 23 24  1  0  0  0  0
 24 46  1  0  0  0  0
 24 47  1  0  0  0  0
 25 16  1  0  0  0  0
 25 29  1  0  0  0  0
 26 27  1  0  0  0  0
 26 25  2  0  0  0  0
 27 28  1  0  0  0  0
 28 29  2  0  0  0  0
 29 30  1  0  0  0  0
 30 48  1  0  0  0  0
 30 49  1  0  0  0  0
 32 51  1  0  0  0  0
 32 31  1  0  0  0  0
 32 50  1  0  0  0  0
 33  3  1  0  0  0  0
 33 53  1  0  0  0  0
 35  7  1  0  0  0  0
 39 18  1  0  0  0  0
 40 20  1  0  0  0  0
 41 20  1  0  0  0  0
 43 21  1  0  0  0  0
 44 23  1  0  0  0  0
 52 32  1  0  0  0  0
M  END
>  <Pose>
1

>  <Score>
-7.27

$$$$
