
 OpenBabel03232203513D

 47 50  0  0  1  0  0  0  0  0999 V2000
   -0.0830    6.7780  -13.1430 B   0  0  0  0  0  0  0  0  0  0  0  0
   -0.4670    8.6440  -13.3870 C   0  0  0  0  0  0  0  0  0  0  0  0
    0.5210    9.5500  -13.5380 C   0  0  0  0  0  0  0  0  0  0  0  0
    0.2250   10.9400  -13.6540 C   0  0  0  0  0  0  0  0  0  0  0  0
   -1.0730   11.3120  -13.5990 C   0  0  0  0  0  0  0  0  0  0  0  0
   -2.0700   10.3700  -13.4310 C   0  0  0  0  0  0  0  0  0  0  0  0
   -1.7850    9.0430  -13.3270 C   0  0  0  0  0  0  0  0  0  0  0  0
    1.3960   11.8040  -13.4060 C   0  0  0  0  0  0  0  0  0  0  0  0
    1.2790   13.0220  -12.7150 N   0  0  2  0  0  4  0  0  0  0  0  0
    0.4070   13.1890  -11.6640 C   0  0  0  0  0  0  0  0  0  0  0  0
    0.5620   14.4920  -11.0210 N   0  0  2  0  0  0  0  0  0  0  0  0
    0.3330   15.5090  -12.0340 C   0  0  0  0  0  0  0  0  0  0  0  0
    1.2070   15.3480  -13.1770 N   0  0  2  0  0  0  0  0  0  0  0  0
    1.1290   14.0750  -13.7760 C   0  0  0  0  0  0  0  0  0  0  0  0
    2.5640   15.6110  -12.7440 C   0  0  0  0  0  0  0  0  0  0  0  0
    2.8630   14.6090  -11.6570 C   0  0  2  0  0  0  0  0  0  0  0  0
    2.6860   13.2530  -12.2320 C   0  0  0  0  0  0  0  0  0  0  0  0
    1.8840   14.7160  -10.4900 C   0  0  0  0  0  0  0  0  0  0  0  0
    1.8160    9.1730  -13.5840 O   0  0  0  0  0  0  0  0  0  0  0  0
    2.5060    8.8220  -14.8010 C   0  0  0  0  0  0  0  0  0  0  0  0
    3.9540    8.6470  -14.7220 C   0  0  0  0  0  0  0  0  0  0  0  0
    4.7820    9.3610  -15.2700 O   0  0  0  0  0  0  0  0  0  0  0  0
    4.4310    7.5970  -13.9290 O   0  0  0  0  0  0  0  0  0  0  0  0
    5.7940    7.2980  -13.7930 C   0  0  0  0  0  0  0  0  0  0  0  0
   -1.3380   12.3670  -13.6380 H   0  0  0  0  0  0  0  0  0  0  0  0
   -3.1220   10.7280  -13.3740 H   0  0  0  0  0  0  0  0  0  0  0  0
   -2.5660    8.3050  -13.2410 H   0  0  0  0  0  0  0  0  0  0  0  0
    2.2230   11.7000  -14.1150 H   0  0  0  0  0  0  0  0  0  0  0  0
    1.9690   11.1610  -12.4830 H   0  0  0  0  0  0  0  0  0  0  0  0
    0.4530   12.3660  -10.9460 H   0  0  0  0  0  0  0  0  0  0  0  0
   -0.6380   13.1980  -12.0720 H   0  0  0  0  0  0  0  0  0  0  0  0
    0.6100   16.4880  -11.5820 H   0  0  0  0  0  0  0  0  0  0  0  0
   -0.7280   15.5680  -12.3170 H   0  0  0  0  0  0  0  0  0  0  0  0
    0.1830   13.9490  -14.3170 H   0  0  0  0  0  0  0  0  0  0  0  0
    2.0190   13.9220  -14.4430 H   0  0  0  0  0  0  0  0  0  0  0  0
    3.2410   15.3450  -13.6000 H   0  0  0  0  0  0  0  0  0  0  0  0
    2.7120   16.6250  -12.3790 H   0  0  0  0  0  0  0  0  0  0  0  0
    3.9140   14.6700  -11.2950 H   0  0  0  0  0  0  0  0  0  0  0  0
    3.3360   13.0310  -13.1070 H   0  0  0  0  0  0  0  0  0  0  0  0
    2.8190   12.4380  -11.4640 H   0  0  0  0  0  0  0  0  0  0  0  0
    1.9500   15.7380  -10.1150 H   0  0  0  0  0  0  0  0  0  0  0  0
    2.1770   13.9340   -9.7760 H   0  0  0  0  0  0  0  0  0  0  0  0
    2.1660    9.5420  -15.6100 H   0  0  0  0  0  0  0  0  0  0  0  0
    2.0870    7.8210  -15.1450 H   0  0  0  0  0  0  0  0  0  0  0  0
    5.9690    6.6580  -12.9030 H   0  0  0  0  0  0  0  0  0  0  0  0
    6.3690    8.2490  -13.7380 H   0  0  0  0  0  0  0  0  0  0  0  0
    6.0720    6.7350  -14.7290 H   0  0  0  0  0  0  0  0  0  0  0  0
  2  7  1  0  0  0  0
  2  1  1  0  0  0  0
  3  2  2  0  0  0  0
  4  5  2  0  0  0  0
  4  3  1  0  0  0  0
  4  8  1  0  0  0  0
  5  6  1  0  0  0  0
  6 26  1  0  0  0  0
  6  7  2  0  0  0  0
  7 27  1  0  0  0  0
  8 29  1  0  0  0  0
  9  8  1  6  0  0  0
  9 17  1  0  0  0  0
  9 10  1  0  0  0  0
 10 11  1  0  0  0  0
 10 30  1  0  0  0  0
 11 12  1  6  0  0  0
 11 18  1  0  0  0  0
 12 32  1  0  0  0  0
 13 14  1  1  0  0  0
 13 15  1  0  0  0  0
 13 12  1  0  0  0  0
 14  9  1  0  0  0  0
 15 37  1  0  0  0  0
 15 16  1  0  0  0  0
 16 38  1  1  0  0  0
 16 18  1  0  0  0  0
 17 16  1  0  0  0  0
 17 40  1  0  0  0  0
 18 41  1  0  0  0  0
 18 42  1  0  0  0  0
 19  3  1  0  0  0  0
 20 21  1  0  0  0  0
 20 19  1  0  0  0  0
 21 23  1  0  0  0  0
 22 21  2  0  0  0  0
 23 24  1  0  0  0  0
 24 46  1  0  0  0  0
 24 45  1  0  0  0  0
 25  5  1  0  0  0  0
 28  8  1  0  0  0  0
 31 10  1  0  0  0  0
 33 12  1  0  0  0  0
 34 14  1  0  0  0  0
 35 14  1  0  0  0  0
 36 15  1  0  0  0  0
 39 17  1  0  0  0  0
 43 20  1  0  0  0  0
 44 20  1  0  0  0  0
 47 24  1  0  0  0  0
M  END
>  <Pose>
1

>  <Score>
-4.75

$$$$
