
 OpenBabel03232203513D

 41 43  0  0  1  0  0  0  0  0999 V2000
    2.6180   14.5170  -11.4390 B   0  0  0  0  0  0  0  0  0  0  0  0
    1.5700   13.2640  -12.4510 C   0  0  0  0  0  0  0  0  0  0  0  0
    0.2330   13.6220  -12.6790 C   0  0  0  0  0  0  0  0  0  0  0  0
   -0.4950   12.7060  -13.4080 C   0  0  0  0  0  0  0  0  0  0  0  0
    0.0730   11.5170  -13.8730 C   0  0  0  0  0  0  0  0  0  0  0  0
    1.3860   11.1880  -13.6370 C   0  0  0  0  0  0  0  0  0  0  0  0
    2.1220   12.0940  -12.9130 C   0  0  0  0  0  0  0  0  0  0  0  0
    1.9760    9.9120  -14.1440 C   0  0  0  0  0  0  0  0  0  0  0  0
   -0.2770   14.8410  -12.1780 N   0  0  0  0  0  0  0  0  0  0  0  0
   -0.6660   15.9790  -12.8870 C   0  0  0  0  0  0  0  0  0  0  0  0
   -0.7710   15.9670  -14.1220 O   0  0  0  0  0  0  0  0  0  0  0  0
   -0.9580   17.2190  -12.1430 C   0  0  0  0  0  0  0  0  0  0  0  0
   -2.3160   17.6560  -12.1650 N   0  0  1  0  0  4  0  0  0  0  0  0
   -2.4620   18.7030  -11.1420 C   0  0  0  0  0  0  0  0  0  0  0  0
   -3.6430   19.5520  -11.5390 C   0  0  0  0  0  0  0  0  0  0  0  0
   -4.6460   18.6260  -12.0630 N   0  0  1  0  0  0  0  0  0  0  0  0
   -4.2430   18.3520  -13.4400 C   0  0  0  0  0  0  0  0  0  0  0  0
   -2.7290   18.1910  -13.4600 C   0  0  0  0  0  0  0  0  0  0  0  0
   -4.5540   17.3660  -11.3420 C   0  0  0  0  0  0  0  0  0  0  0  0
   -3.2810   16.6380  -11.8030 C   0  0  0  0  0  0  0  0  0  0  0  0
   -1.5380   12.9050  -13.6280 H   0  0  0  0  0  0  0  0  0  0  0  0
   -0.5170   10.8020  -14.4480 H   0  0  0  0  0  0  0  0  0  0  0  0
    3.1640   11.8650  -12.7070 H   0  0  0  0  0  0  0  0  0  0  0  0
    2.8700    9.6230  -13.5540 H   0  0  0  0  0  0  0  0  0  0  0  0
    2.2680    9.9830  -15.1950 H   0  0  0  0  0  0  0  0  0  0  0  0
    1.2160    9.1260  -13.9490 H   0  0  0  0  0  0  0  0  0  0  0  0
   -0.3780   14.8970  -11.1200 H   0  0  0  0  0  0  0  0  0  0  0  0
   -0.3510   18.0800  -12.5600 H   0  0  0  0  0  0  0  0  0  0  0  0
   -0.6720   17.1360  -11.0640 H   0  0  0  0  0  0  0  0  0  0  0  0
   -2.6010   18.1780  -10.1800 H   0  0  0  0  0  0  0  0  0  0  0  0
   -1.5230   19.2910  -11.0780 H   0  0  0  0  0  0  0  0  0  0  0  0
   -3.3050   20.2620  -12.3130 H   0  0  0  0  0  0  0  0  0  0  0  0
   -4.0710   20.0940  -10.6480 H   0  0  0  0  0  0  0  0  0  0  0  0
   -4.4770   19.2370  -14.0660 H   0  0  0  0  0  0  0  0  0  0  0  0
   -4.7370   17.4330  -13.8370 H   0  0  0  0  0  0  0  0  0  0  0  0
   -2.5080   17.4410  -14.2220 H   0  0  0  0  0  0  0  0  0  0  0  0
   -2.1990   19.1450  -13.6040 H   0  0  0  0  0  0  0  0  0  0  0  0
   -4.5390   17.5970  -10.2680 H   0  0  0  0  0  0  0  0  0  0  0  0
   -5.4510   16.7540  -11.5760 H   0  0  0  0  0  0  0  0  0  0  0  0
   -3.5820   16.0510  -12.7010 H   0  0  0  0  0  0  0  0  0  0  0  0
   -2.9660   16.0180  -10.9580 H   0  0  0  0  0  0  0  0  0  0  0  0
  2  1  1  0  0  0  0
  3  2  1  0  0  0  0
  3  9  1  0  0  0  0
  4  3  2  0  0  0  0
  5  6  2  0  0  0  0
  5  4  1  0  0  0  0
  6  7  1  0  0  0  0
  7 23  1  0  0  0  0
  7  2  2  0  0  0  0
  8 26  1  0  0  0  0
  8  6  1  0  0  0  0
  8 24  1  0  0  0  0
  9 27  1  0  0  0  0
 10  9  1  0  0  0  0
 10 12  1  0  0  0  0
 11 10  2  0  0  0  0
 12 29  1  0  0  0  0
 13 12  1  6  0  0  0
 13 20  1  0  0  0  0
 13 14  1  0  0  0  0
 14 31  1  0  0  0  0
 14 30  1  0  0  0  0
 15 14  1  0  0  0  0
 15 33  1  0  0  0  0
 16 17  1  6  0  0  0
 16 15  1  0  0  0  0
 16 19  1  0  0  0  0
 18 17  1  0  0  0  0
 18 13  1  0  0  0  0
 19 38  1  0  0  0  0
 20 19  1  0  0  0  0
 20 41  1  0  0  0  0
 21  4  1  0  0  0  0
 22  5  1  0  0  0  0
 25  8  1  0  0  0  0
 28 12  1  0  0  0  0
 32 15  1  0  0  0  0
 34 17  1  0  0  0  0
 35 17  1  0  0  0  0
 36 18  1  0  0  0  0
 37 18  1  0  0  0  0
 39 19  1  0  0  0  0
 40 20  1  0  0  0  0
M  END
>  <Pose>
1

>  <Score>
-5.34

$$$$
