
 OpenBabel03232203513D

 33 36  0  0  1  0  0  0  0  0999 V2000
   -3.8370    9.6470  -14.0120 B   0  0  0  0  0  0  0  0  0  0  0  0
   -2.4460   10.9540  -13.9770 C   0  0  0  0  0  0  0  0  0  0  0  0
   -1.2160   10.6860  -13.4310 C   0  0  0  0  0  0  0  0  0  0  0  0
   -0.2410   11.6540  -13.4170 C   0  0  0  0  0  0  0  0  0  0  0  0
   -0.4640   12.9170  -13.9490 C   0  0  0  0  0  0  0  0  0  0  0  0
   -1.6890   13.2070  -14.5010 C   0  0  0  0  0  0  0  0  0  0  0  0
   -2.6760   12.2150  -14.5100 C   0  0  0  0  0  0  0  0  0  0  0  0
   -0.8830    9.3610  -12.8460 C   0  0  1  0  0  0  0  0  0  0  0  0
    0.1150    8.6190  -13.4790 C   0  0  1  0  0  0  0  0  0  0  0  0
    1.5890    8.6970  -13.6680 C   0  0  0  0  0  0  0  0  0  0  0  0
    1.8970    7.8010  -12.5250 N   0  0  0  0  0  0  0  0  0  0  0  0
    1.0800    8.0930  -11.5620 C   0  0  1  0  0  0  0  0  0  0  0  0
    0.2460    9.1580  -12.0220 C   0  0  2  0  0  0  0  0  0  0  0  0
    1.0010   10.4330  -11.8290 C   0  0  0  0  0  0  0  0  0  0  0  0
    1.5870   11.4530  -11.6980 N   0  0  0  0  0  0  0  0  0  0  0  0
    1.0370    7.4480  -10.2690 N   0  0  0  0  0  0  0  0  0  0  0  0
    1.9100    8.0410  -14.8620 O   0  0  0  0  0  0  0  0  0  0  0  0
    2.7110    8.8970  -15.5920 C   0  0  0  0  0  0  0  0  0  0  0  0
    3.3220    9.7710  -14.5100 C   0  0  0  0  0  0  0  0  0  0  0  0
    2.2000    9.8860  -13.6520 O   0  0  0  0  0  0  0  0  0  0  0  0
   -0.2380    7.1580  -13.5820 C   0  0  0  0  0  0  0  0  0  0  0  0
   -0.5240    6.0160  -13.6820 N   0  0  0  0  0  0  0  0  0  0  0  0
    0.7630   11.4950  -12.9940 H   0  0  0  0  0  0  0  0  0  0  0  0
    0.2870   13.6850  -13.9480 H   0  0  0  0  0  0  0  0  0  0  0  0
   -1.8760   14.1670  -14.9140 H   0  0  0  0  0  0  0  0  0  0  0  0
   -3.6590   12.3990  -14.9370 H   0  0  0  0  0  0  0  0  0  0  0  0
   -1.8370    8.8760  -12.4930 H   0  0  0  0  0  0  0  0  0  0  0  0
    1.6400    6.6310  -10.0570 H   0  0  0  0  0  0  0  0  0  0  0  0
    0.3990    7.7920   -9.5280 H   0  0  0  0  0  0  0  0  0  0  0  0
    2.0610    9.5200  -16.2440 H   0  0  0  0  0  0  0  0  0  0  0  0
    3.4830    8.3580  -16.1800 H   0  0  0  0  0  0  0  0  0  0  0  0
    4.1420    9.2240  -13.9960 H   0  0  0  0  0  0  0  0  0  0  0  0
    3.6520   10.7500  -14.8800 H   0  0  0  0  0  0  0  0  0  0  0  0
  1  2  1  0  0  0  0
  2  3  1  0  0  0  0
  3  4  2  0  0  0  0
  3  8  1  0  0  0  0
  4 23  1  0  0  0  0
  5 24  1  0  0  0  0
  5  4  1  0  0  0  0
  6  5  2  0  0  0  0
  7  6  1  0  0  0  0
  7  2  2  0  0  0  0
  8 27  1  1  0  0  0
  8 13  1  0  0  0  0
  9 21  1  1  0  0  0
  9  8  1  0  0  0  0
  9 13  1  0  0  0  0
 10 20  1  0  0  0  0
 10  9  1  0  0  0  0
 10 11  1  0  0  0  0
 11 12  1  0  0  0  0
 12 16  1  6  0  0  0
 13 14  1  6  0  0  0
 13 12  1  0  0  0  0
 14 15  3  0  0  0  0
 16 28  1  0  0  0  0
 16 29  1  0  0  0  0
 17 10  1  0  0  0  0
 18 17  1  0  0  0  0
 18 19  1  0  0  0  0
 19 32  1  0  0  0  0
 19 20  1  0  0  0  0
 22 21  3  0  0  0  0
 25  6  1  0  0  0  0
 26  7  1  0  0  0  0
 30 18  1  0  0  0  0
 31 18  1  0  0  0  0
 33 19  1  0  0  0  0
M  END
>  <Pose>
1

>  <Score>
-2.66

$$$$
