
 OpenBabel03232203513D

 40 43  0  0  0  0  0  0  0  0999 V2000
   -4.2460   18.4420  -12.8520 B   0  0  0  0  0  0  0  0  0  0  0  0
   -2.9520   18.9140  -11.5290 C   0  0  0  0  0  0  0  0  0  0  0  0
   -1.7280   18.3760  -11.2970 C   0  0  0  0  0  0  0  0  0  0  0  0
   -1.1650   19.0300  -10.2240 N   0  0  0  0  0  0  0  0  0  0  0  0
   -2.0320   19.9270   -9.8340 N   0  0  0  0  0  0  0  0  0  0  0  0
   -3.1400   19.9260  -10.5660 C   0  0  0  0  0  0  0  0  0  0  0  0
    0.1280   18.7720   -9.6470 C   0  0  0  0  0  0  0  0  0  0  0  0
   -1.0300   17.2990  -12.0290 C   0  0  0  0  0  0  0  0  0  0  0  0
   -1.1470   17.3120  -13.3110 O   0  0  0  0  0  0  0  0  0  0  0  0
   -0.2770   16.3040  -11.4120 N   0  0  0  0  0  0  0  0  0  0  0  0
    0.1620   15.1040  -12.0260 C   0  0  0  0  0  0  0  0  0  0  0  0
    1.3970   14.5790  -11.5960 C   0  0  0  0  0  0  0  0  0  0  0  0
    2.2760   15.0340  -10.6620 N   0  0  0  0  0  0  0  0  0  0  0  0
    3.2680   14.1950  -10.6310 O   0  0  0  0  0  0  0  0  0  0  0  0
    3.0810   13.2360  -11.4840 N   0  0  0  0  0  0  0  0  0  0  0  0
    1.9180   13.4260  -12.1200 C   0  0  0  0  0  0  0  0  0  0  0  0
    1.2710   12.7030  -13.1020 C   0  0  0  0  0  0  0  0  0  0  0  0
    0.0610   13.2210  -13.5220 C   0  0  0  0  0  0  0  0  0  0  0  0
   -0.4780   14.3930  -12.9950 C   0  0  0  0  0  0  0  0  0  0  0  0
    1.7930   11.5180  -13.6510 N   0  0  0  0  0  0  0  0  0  0  0  0
    0.8690   10.4300  -13.9610 C   0  0  0  0  0  0  0  0  0  0  0  0
    1.5990    9.1810  -14.3730 C   0  0  0  0  0  0  0  0  0  0  0  0
    2.7360    8.9030  -13.6890 O   0  0  0  0  0  0  0  0  0  0  0  0
    3.4730    9.9400  -13.1970 C   0  0  0  0  0  0  0  0  0  0  0  0
    3.1550   11.2060  -13.9660 C   0  0  0  0  0  0  0  0  0  0  0  0
   -4.0240   20.5240  -10.5080 H   0  0  0  0  0  0  0  0  0  0  0  0
    0.9080   18.7580  -10.4420 H   0  0  0  0  0  0  0  0  0  0  0  0
    0.1270   17.7820   -9.1590 H   0  0  0  0  0  0  0  0  0  0  0  0
    0.3420   19.5350   -8.8860 H   0  0  0  0  0  0  0  0  0  0  0  0
   -0.0370   16.4840  -10.3910 H   0  0  0  0  0  0  0  0  0  0  0  0
   -0.4630   12.6700  -14.2900 H   0  0  0  0  0  0  0  0  0  0  0  0
   -1.4210   14.7360  -13.3680 H   0  0  0  0  0  0  0  0  0  0  0  0
    0.2400   10.1720  -13.0820 H   0  0  0  0  0  0  0  0  0  0  0  0
    0.1860   10.7140  -14.7960 H   0  0  0  0  0  0  0  0  0  0  0  0
    0.8830    8.3270  -14.2110 H   0  0  0  0  0  0  0  0  0  0  0  0
    1.7370    9.2220  -15.4860 H   0  0  0  0  0  0  0  0  0  0  0  0
    3.1590   10.1130  -12.1350 H   0  0  0  0  0  0  0  0  0  0  0  0
    4.5750    9.7720  -13.2250 H   0  0  0  0  0  0  0  0  0  0  0  0
    3.1550   10.9190  -15.0610 H   0  0  0  0  0  0  0  0  0  0  0  0
    3.8930   11.9790  -13.8670 H   0  0  0  0  0  0  0  0  0  0  0  0
  1  2  1  0  0  0  0
  2  3  2  0  0  0  0
  2  6  1  0  0  0  0
  3  4  1  0  0  0  0
  4  5  1  0  0  0  0
  4  7  1  0  0  0  0
  6 26  1  0  0  0  0
  6  5  2  0  0  0  0
  7 28  1  0  0  0  0
  7 29  1  0  0  0  0
  8 10  1  0  0  0  0
  8  3  1  0  0  0  0
  9  8  2  0  0  0  0
 10 30  1  0  0  0  0
 11 12  1  0  0  0  0
 11 10  1  0  0  0  0
 12 13  2  0  0  0  0
 13 14  1  0  0  0  0
 15 14  1  0  0  0  0
 16 12  1  0  0  0  0
 16 15  2  0  0  0  0
 17 16  1  0  0  0  0
 18 17  2  0  0  0  0
 18 19  1  0  0  0  0
 19 11  2  0  0  0  0
 20 17  1  0  0  0  0
 21 20  1  0  0  0  0
 21 33  1  0  0  0  0
 22 35  1  0  0  0  0
 22 21  1  0  0  0  0
 22 23  1  0  0  0  0
 23 24  1  0  0  0  0
 24 37  1  0  0  0  0
 25 40  1  0  0  0  0
 25 20  1  0  0  0  0
 25 24  1  0  0  0  0
 27  7  1  0  0  0  0
 31 18  1  0  0  0  0
 32 19  1  0  0  0  0
 34 21  1  0  0  0  0
 36 22  1  0  0  0  0
 38 24  1  0  0  0  0
 39 25  1  0  0  0  0
M  END
>  <Pose>
1

>  <Score>
-7.16

$$$$
