
 OpenBabel03232203513D

 36 39  0  0  0  0  0  0  0  0999 V2000
   -1.4040   16.8780  -12.4370 B   0  0  0  0  0  0  0  0  0  0  0  0
   -0.1680   15.4440  -12.4360 C   0  0  0  0  0  0  0  0  0  0  0  0
   -0.4900   14.2540  -13.1000 C   0  0  0  0  0  0  0  0  0  0  0  0
    0.4180   13.2270  -13.0890 C   0  0  0  0  0  0  0  0  0  0  0  0
    1.6190   13.3510  -12.4420 C   0  0  0  0  0  0  0  0  0  0  0  0
    1.9470   14.5440  -11.7750 C   0  0  0  0  0  0  0  0  0  0  0  0
    1.0340   15.5790  -11.7860 C   0  0  0  0  0  0  0  0  0  0  0  0
    2.5050   12.2460  -12.4660 N   0  0  0  0  0  0  0  0  0  0  0  0
    2.2870   11.1190  -11.8160 N   0  0  0  0  0  0  0  0  0  0  0  0
    3.2700   10.2670  -12.0150 N   0  0  0  0  0  0  0  0  0  0  0  0
    4.1560   10.8410  -12.8130 N   0  0  0  0  0  0  0  0  0  0  0  0
    3.6790   12.0590  -13.0860 C   0  0  0  0  0  0  0  0  0  0  0  0
    0.1360   11.9220  -13.7960 C   0  0  0  0  0  0  0  0  0  0  0  0
    0.9550   11.6170  -14.7230 O   0  0  0  0  0  0  0  0  0  0  0  0
   -0.9510   11.1810  -13.3990 N   0  0  0  0  0  0  0  0  0  0  0  0
   -2.0320   10.4440  -13.0040 C   0  0  0  0  0  0  0  0  0  0  0  0
   -1.9730    8.9860  -13.4270 C   0  0  0  0  0  0  0  0  0  0  0  0
   -0.9750    8.1290  -13.1200 N   0  0  0  0  0  0  0  0  0  0  0  0
   -1.2250    6.9210  -13.6420 C   0  0  0  0  0  0  0  0  0  0  0  0
   -2.4000    7.0360  -14.2810 N   0  0  0  0  0  0  0  0  0  0  0  0
   -2.8570    8.2910  -14.1520 N   0  0  0  0  0  0  0  0  0  0  0  0
   -0.3270    5.8620  -13.4540 C   0  0  0  0  0  0  0  0  0  0  0  0
    0.8190    6.0510  -12.7330 C   0  0  0  0  0  0  0  0  0  0  0  0
    1.0760    7.2960  -12.1950 C   0  0  0  0  0  0  0  0  0  0  0  0
    0.1660    8.3230  -12.4010 C   0  0  0  0  0  0  0  0  0  0  0  0
   -1.4340   14.1380  -13.6110 H   0  0  0  0  0  0  0  0  0  0  0  0
    2.9010   14.6020  -11.2810 H   0  0  0  0  0  0  0  0  0  0  0  0
    1.2870   16.4990  -11.2690 H   0  0  0  0  0  0  0  0  0  0  0  0
    4.1650   12.7790  -13.7140 H   0  0  0  0  0  0  0  0  0  0  0  0
   -0.1540   10.4120  -12.6060 H   0  0  0  0  0  0  0  0  0  0  0  0
   -3.0450   10.8080  -13.3390 H   0  0  0  0  0  0  0  0  0  0  0  0
   -2.1750   10.3580  -11.8790 H   0  0  0  0  0  0  0  0  0  0  0  0
   -0.5770    4.9120  -13.9010 H   0  0  0  0  0  0  0  0  0  0  0  0
    1.5470    5.2440  -12.5660 H   0  0  0  0  0  0  0  0  0  0  0  0
    1.9480    7.5100  -11.6210 H   0  0  0  0  0  0  0  0  0  0  0  0
    0.3310    9.3100  -12.0000 H   0  0  0  0  0  0  0  0  0  0  0  0
  1  2  1  0  0  0  0
  2  7  1  0  0  0  0
  3  4  1  0  0  0  0
  3  2  2  0  0  0  0
  4  5  2  0  0  0  0
  5  6  1  0  0  0  0
  6 27  1  0  0  0  0
  7  6  2  0  0  0  0
  7 28  1  0  0  0  0
  8  5  1  0  0  0  0
  8  9  1  0  0  0  0
 10  9  2  0  0  0  0
 11 10  1  0  0  0  0
 12 11  2  0  0  0  0
 12  8  1  0  0  0  0
 13 15  1  0  0  0  0
 13  4  1  0  0  0  0
 14 13  2  0  0  0  0
 15 16  1  0  0  0  0
 15 30  1  0  0  0  0
 16 32  1  0  0  0  0
 17 18  1  0  0  0  0
 17 16  1  0  0  0  0
 18 25  1  0  0  0  0
 19 22  1  0  0  0  0
 19 18  1  0  0  0  0
 20 21  1  0  0  0  0
 20 19  2  0  0  0  0
 21 17  2  0  0  0  0
 22 23  2  0  0  0  0
 23 34  1  0  0  0  0
 23 24  1  0  0  0  0
 24 35  1  0  0  0  0
 25 24  2  0  0  0  0
 25 36  1  0  0  0  0
 26  3  1  0  0  0  0
 29 12  1  0  0  0  0
 31 16  1  0  0  0  0
 33 22  1  0  0  0  0
M  END
>  <Pose>
1

>  <Score>
-6.58

$$$$
