
 OpenBabel03232203513D

 54 57  0  0  0  0  0  0  0  0999 V2000
   -1.7810    5.8200  -13.9010 B   0  0  0  0  0  0  0  0  0  0  0  0
   -0.4370    7.0590  -13.3610 C   0  0  0  0  0  0  0  0  0  0  0  0
   -0.4650    8.3680  -13.7880 C   0  0  0  0  0  0  0  0  0  0  0  0
    0.5030    9.2620  -13.3980 C   0  0  0  0  0  0  0  0  0  0  0  0
    1.5040    8.8120  -12.5660 C   0  0  0  0  0  0  0  0  0  0  0  0
    1.5450    7.4860  -12.1250 C   0  0  0  0  0  0  0  0  0  0  0  0
    0.5660    6.5900  -12.5220 C   0  0  0  0  0  0  0  0  0  0  0  0
    2.4710    9.7360  -12.1870 O   0  0  0  0  0  0  0  0  0  0  0  0
    3.3900   10.3200  -13.0810 C   0  0  0  0  0  0  0  0  0  0  0  0
    0.4840   10.6510  -13.8440 C   0  0  0  0  0  0  0  0  0  0  0  0
   -0.4330   11.4800  -13.5160 N   0  0  0  0  0  0  0  0  0  0  0  0
   -0.4670   12.8110  -13.9330 N   0  0  0  0  0  0  0  0  0  0  0  0
   -0.1410   13.8950  -13.0720 C   0  0  0  0  0  0  0  0  0  0  0  0
    0.8330   13.8290  -12.1390 N   0  0  0  0  0  4  0  0  0  0  0  0
    1.1150   14.8680  -11.3430 C   0  0  0  0  0  0  0  0  0  0  0  0
    0.4030   15.9960  -11.4880 N   0  0  0  0  0  0  0  0  0  0  0  0
   -0.5920   16.1320  -12.4060 C   0  0  0  0  0  0  0  0  0  0  0  0
   -0.8220   15.0360  -13.1800 N   0  0  0  0  0  0  0  0  0  0  0  0
   -1.3340   17.3180  -12.5530 N   0  0  0  0  0  0  0  0  0  0  0  0
   -1.3240   18.3350  -11.5440 C   0  0  0  0  0  0  0  0  0  0  0  0
   -2.7800   18.6310  -11.1940 C   0  0  0  0  0  0  0  0  0  0  0  0
   -3.4180   18.9790  -12.3720 O   0  0  0  0  0  0  0  0  0  0  0  0
   -3.5210   17.9310  -13.2570 C   0  0  0  0  0  0  0  0  0  0  0  0
   -2.1250   17.5260  -13.7300 C   0  0  0  0  0  0  0  0  0  0  0  0
    2.1410   14.7990  -10.3620 N   0  0  0  0  0  0  0  0  0  0  0  0
    3.5380   14.6700  -10.7100 C   0  0  0  0  0  0  0  0  0  0  0  0
    4.2430   13.6740   -9.8020 C   0  0  0  0  0  0  0  0  0  0  0  0
    3.8870   13.8920   -8.4660 O   0  0  0  0  0  0  0  0  0  0  0  0
    2.5380   13.7240   -8.2650 C   0  0  0  0  0  0  0  0  0  0  0  0
    1.8100   14.8560   -8.9560 C   0  0  0  0  0  0  0  0  0  0  0  0
   -1.2540    8.7430  -14.4510 H   0  0  0  0  0  0  0  0  0  0  0  0
    2.3480    7.1490  -11.4650 H   0  0  0  0  0  0  0  0  0  0  0  0
    0.6160    5.5740  -12.1690 H   0  0  0  0  0  0  0  0  0  0  0  0
    4.2950    9.6620  -13.0900 H   0  0  0  0  0  0  0  0  0  0  0  0
    2.9740   10.4970  -14.0850 H   0  0  0  0  0  0  0  0  0  0  0  0
    3.7200   11.2970  -12.6610 H   0  0  0  0  0  0  0  0  0  0  0  0
    1.2760   11.0160  -14.4820 H   0  0  0  0  0  0  0  0  0  0  0  0
   -0.7510   12.9810  -14.9360 H   0  0  0  0  0  0  0  0  0  0  0  0
   -0.7540   18.0110  -10.6350 H   0  0  0  0  0  0  0  0  0  0  0  0
   -0.8950   19.2710  -11.9690 H   0  0  0  0  0  0  0  0  0  0  0  0
   -2.7550   19.5220  -10.5350 H   0  0  0  0  0  0  0  0  0  0  0  0
   -3.2430   17.7880  -10.6740 H   0  0  0  0  0  0  0  0  0  0  0  0
   -3.9600   17.0210  -12.7820 H   0  0  0  0  0  0  0  0  0  0  0  0
   -4.1090   18.2500  -14.1240 H   0  0  0  0  0  0  0  0  0  0  0  0
   -2.1710   16.6390  -14.3870 H   0  0  0  0  0  0  0  0  0  0  0  0
   -1.7310   18.4170  -14.2740 H   0  0  0  0  0  0  0  0  0  0  0  0
    4.0050   15.6670  -10.4670 H   0  0  0  0  0  0  0  0  0  0  0  0
    3.6990   14.3840  -11.7540 H   0  0  0  0  0  0  0  0  0  0  0  0
    3.9870   12.6650  -10.1500 H   0  0  0  0  0  0  0  0  0  0  0  0
    5.3390   13.8960   -9.8570 H   0  0  0  0  0  0  0  0  0  0  0  0
    2.2430   12.7350   -8.6690 H   0  0  0  0  0  0  0  0  0  0  0  0
    2.3470   13.7060   -7.1870 H   0  0  0  0  0  0  0  0  0  0  0  0
    2.2000   15.7940   -8.5490 H   0  0  0  0  0  0  0  0  0  0  0  0
    0.7210   14.8080   -8.7970 H   0  0  0  0  0  0  0  0  0  0  0  0
  1  2  1  0  0  0  0
  2  7  1  0  0  0  0
  3  4  1  0  0  0  0
  3  2  2  0  0  0  0
  4  5  2  0  0  0  0
  5  8  1  0  0  0  0
  5  6  1  0  0  0  0
  6 32  1  0  0  0  0
  7 33  1  0  0  0  0
  7  6  2  0  0  0  0
  9 36  1  0  0  0  0
  9  8  1  0  0  0  0
 10 11  2  0  0  0  0
 10  4  1  0  0  0  0
 12 11  1  0  0  0  0
 12 13  1  0  0  0  0
 13 14  2  0  0  0  0
 14 15  2  0  0  0  0
 15 25  1  0  0  0  0
 16 15  1  0  0  0  0
 17 16  2  0  0  0  0
 18 13  1  0  0  0  0
 18 17  1  0  0  0  0
 19 17  1  0  0  0  0
 19 20  1  0  0  0  0
 20 21  1  0  0  0  0
 20 39  1  0  0  0  0
 21 42  1  0  0  0  0
 21 41  1  0  0  0  0
 22 21  1  0  0  0  0
 23 43  1  0  0  0  0
 23 22  1  0  0  0  0
 24 23  1  0  0  0  0
 24 19  1  0  0  0  0
 25 30  1  0  0  0  0
 26 47  1  0  0  0  0
 26 25  1  0  0  0  0
 26 27  1  0  0  0  0
 27 28  1  0  0  0  0
 28 29  1  0  0  0  0
 29 52  1  0  0  0  0
 30 54  1  0  0  0  0
 30 53  1  0  0  0  0
 30 29  1  0  0  0  0
 31  3  1  0  0  0  0
 34  9  1  0  0  0  0
 35  9  1  0  0  0  0
 37 10  1  0  0  0  0
 38 12  1  0  0  0  0
 40 20  1  0  0  0  0
 44 23  1  0  0  0  0
 45 24  1  0  0  0  0
 46 24  1  0  0  0  0
 48 26  1  0  0  0  0
 49 27  1  0  0  0  0
 50 27  1  0  0  0  0
 51 29  1  0  0  0  0
M  END
>  <Pose>
1

>  <Score>
-5.76

$$$$
