
 OpenBabel03232203513D

 50 53  0  0  0  0  0  0  0  0999 V2000
   -0.1230    8.4800  -13.1970 B   0  0  0  0  0  0  0  0  0  0  0  0
    1.4830    9.4330  -13.5560 C   0  0  0  0  0  0  0  0  0  0  0  0
    1.7210   10.7000  -13.0370 C   0  0  0  0  0  0  0  0  0  0  0  0
    2.8770   11.3890  -13.2950 C   0  0  0  0  0  0  0  0  0  0  0  0
    3.8350   10.8080  -14.0940 C   0  0  0  0  0  0  0  0  0  0  0  0
    3.6060    9.5570  -14.6090 C   0  0  0  0  0  0  0  0  0  0  0  0
    2.4400    8.8470  -14.3550 C   0  0  0  0  0  0  0  0  0  0  0  0
    3.0920   12.7180  -12.7330 C   0  0  0  0  0  0  0  0  0  0  0  0
    4.1150   13.3970  -13.0080 O   0  0  0  0  0  0  0  0  0  0  0  0
    2.0900   13.2770  -11.8240 C   0  0  0  0  0  0  0  0  0  0  0  0
    1.1960   14.1820  -12.4340 N   0  0  0  0  0  0  0  0  0  0  0  0
    1.5400   15.5540  -12.3750 C   0  0  0  0  0  0  0  0  0  0  0  0
    0.5400   16.5000  -12.9190 C   0  0  0  0  0  0  0  0  0  0  0  0
   -0.7490   16.2730  -12.3490 N   0  0  0  0  0  0  0  0  0  0  0  0
   -1.0270   14.9890  -11.7730 C   0  0  0  0  0  0  0  0  0  0  0  0
   -0.1870   13.8680  -12.3390 C   0  0  0  0  0  0  0  0  0  0  0  0
   -1.7680   17.2620  -12.3590 C   0  0  0  0  0  0  0  0  0  0  0  0
   -1.7660   18.1710  -11.3860 C   0  0  0  0  0  0  0  0  0  0  0  0
   -0.9530   18.4300  -10.2550 N   0  0  0  0  0  0  0  0  0  0  0  0
   -1.5240   19.5670   -9.6410 N   0  0  0  0  0  0  0  0  0  0  0  0
   -2.6540   19.9750  -10.3890 C   0  0  0  0  0  0  0  0  0  0  0  0
   -2.8430   19.1840  -11.4340 C   0  0  0  0  0  0  0  0  0  0  0  0
   -3.8060   19.1480  -12.4810 N   0  0  0  0  0  0  0  0  0  0  0  0
   -3.7630   18.2480  -13.4000 C   0  0  0  0  0  0  0  0  0  0  0  0
   -2.7610   17.2590  -13.4060 N   0  0  0  0  0  0  0  0  0  0  0  0
   -3.5460   21.1270  -10.0950 C   0  0  0  0  0  0  0  0  0  0  0  0
    0.2090   17.6880   -9.8280 C   0  0  0  0  0  0  0  0  0  0  0  0
    0.9300   11.0990  -12.4190 H   0  0  0  0  0  0  0  0  0  0  0  0
    4.7450   11.3790  -14.2830 H   0  0  0  0  0  0  0  0  0  0  0  0
    4.3460    9.0840  -15.2380 H   0  0  0  0  0  0  0  0  0  0  0  0
    2.2920    7.8450  -14.7860 H   0  0  0  0  0  0  0  0  0  0  0  0
    2.5980   13.7710  -10.9530 H   0  0  0  0  0  0  0  0  0  0  0  0
    1.4820   12.4550  -11.3410 H   0  0  0  0  0  0  0  0  0  0  0  0
    1.8780   15.8200  -11.3570 H   0  0  0  0  0  0  0  0  0  0  0  0
    2.4740   15.6690  -13.0100 H   0  0  0  0  0  0  0  0  0  0  0  0
    0.4620   16.3210  -14.0260 H   0  0  0  0  0  0  0  0  0  0  0  0
    0.8880   17.5480  -12.8300 H   0  0  0  0  0  0  0  0  0  0  0  0
   -1.0930   14.9610  -10.6800 H   0  0  0  0  0  0  0  0  0  0  0  0
   -2.0840   14.7480  -12.1150 H   0  0  0  0  0  0  0  0  0  0  0  0
   -0.3080   12.9990  -11.6590 H   0  0  0  0  0  0  0  0  0  0  0  0
   -0.5390   13.5330  -13.3390 H   0  0  0  0  0  0  0  0  0  0  0  0
   -1.1220   19.9830   -8.7750 H   0  0  0  0  0  0  0  0  0  0  0  0
   -4.5410   18.2740  -14.1870 H   0  0  0  0  0  0  0  0  0  0  0  0
   -2.6850   16.5150  -14.1210 H   0  0  0  0  0  0  0  0  0  0  0  0
   -3.3980   21.4460   -9.0450 H   0  0  0  0  0  0  0  0  0  0  0  0
   -4.5870   20.9320  -10.3620 H   0  0  0  0  0  0  0  0  0  0  0  0
   -3.1920   21.9840  -10.7320 H   0  0  0  0  0  0  0  0  0  0  0  0
    0.0950   16.6080   -9.8190 H   0  0  0  0  0  0  0  0  0  0  0  0
    1.1080   18.0740  -10.3530 H   0  0  0  0  0  0  0  0  0  0  0  0
    0.3430   17.9660   -8.7310 H   0  0  0  0  0  0  0  0  0  0  0  0
  2  1  1  0  0  0  0
  2  3  1  0  0  0  0
  3 28  1  0  0  0  0
  4  3  2  0  0  0  0
  4  8  1  0  0  0  0
  5  4  1  0  0  0  0
  6  7  1  0  0  0  0
  6  5  2  0  0  0  0
  7  2  2  0  0  0  0
  8 10  1  0  0  0  0
  9  8  2  0  0  0  0
 10 33  1  0  0  0  0
 10 32  1  0  0  0  0
 11 12  1  0  0  0  0
 11 16  1  0  0  0  0
 11 10  1  0  0  0  0
 12 34  1  0  0  0  0
 13 37  1  0  0  0  0
 13 12  1  0  0  0  0
 13 14  1  0  0  0  0
 14 15  1  0  0  0  0
 15 38  1  0  0  0  0
 16 15  1  0  0  0  0
 16 40  1  0  0  0  0
 17 14  1  0  0  0  0
 17 18  2  0  0  0  0
 18 19  1  0  0  0  0
 19 27  1  0  0  0  0
 19 20  1  0  0  0  0
 20 42  1  0  0  0  0
 21 26  1  0  0  0  0
 21 20  1  0  0  0  0
 22 18  1  0  0  0  0
 22 21  2  0  0  0  0
 23 22  1  0  0  0  0
 24 23  2  0  0  0  0
 25 24  1  0  0  0  0
 25 17  1  0  0  0  0
 26 45  1  0  0  0  0
 27 48  1  0  0  0  0
 27 50  1  0  0  0  0
 29  5  1  0  0  0  0
 30  6  1  0  0  0  0
 31  7  1  0  0  0  0
 35 12  1  0  0  0  0
 36 13  1  0  0  0  0
 39 15  1  0  0  0  0
 41 16  1  0  0  0  0
 43 24  1  0  0  0  0
 44 25  1  0  0  0  0
 46 26  1  0  0  0  0
 47 26  1  0  0  0  0
 49 27  1  0  0  0  0
M  END
>  <Pose>
1

>  <Score>
-6.99

$$$$
