
 OpenBabel03232203513D

 52 55  0  0  1  0  0  0  0  0999 V2000
  -10.7980   13.2200  -16.6390 B   0  0  0  0  0  0  0  0  0  0  0  0
   -9.7570   11.5990  -16.6590 C   0  0  0  0  0  0  0  0  0  0  0  0
   -8.7340   11.4380  -15.7550 C   0  0  0  0  0  0  0  0  0  0  0  0
   -7.9860   10.2810  -15.7800 C   0  0  0  0  0  0  0  0  0  0  0  0
   -8.2530    9.3030  -16.6830 C   0  0  0  0  0  0  0  0  0  0  0  0
   -9.2780    9.4800  -17.5730 C   0  0  0  0  0  0  0  0  0  0  0  0
  -10.0650   10.6330  -17.5950 C   0  0  0  0  0  0  0  0  0  0  0  0
   -6.9030   10.1370  -14.7370 C   0  0  0  0  0  0  0  0  0  0  0  0
   -7.1150   10.6820  -13.6670 O   0  0  0  0  0  0  0  0  0  0  0  0
   -5.8180    9.3790  -15.1680 N   0  0  0  0  0  0  0  0  0  0  0  0
   -5.2190    8.3230  -14.4370 C   0  0  1  0  0  0  0  0  0  0  0  0
   -6.1270    7.1340  -14.1690 C   0  0  0  0  0  0  0  0  0  0  0  0
   -3.9500    7.8610  -14.9820 C   0  0  0  0  0  0  0  0  0  0  0  0
   -3.9810    7.3520  -16.1460 O   0  0  0  0  0  0  0  0  0  0  0  0
   -2.7240    7.9470  -14.2620 N   0  0  0  0  0  0  0  0  0  0  0  0
   -1.7210    6.9140  -14.3110 C   0  0  0  0  0  0  0  0  0  0  0  0
   -0.5370    7.6170  -15.0190 C   0  0  0  0  0  0  0  0  0  0  0  0
    0.0260    8.5500  -13.9810 C   0  0  2  0  0  0  0  0  0  0  0  0
    0.8880    9.4900  -14.6960 N   0  0  0  0  0  0  0  0  0  0  0  0
    1.9120    8.8570  -15.4400 C   0  0  0  0  0  0  0  0  0  0  0  0
    2.8990    8.0990  -14.5720 C   0  0  0  0  0  0  0  0  0  0  0  0
    2.2480    7.5110  -13.3860 C   0  0  0  0  0  0  0  0  0  0  0  0
    2.7730    6.7250  -12.4310 N   0  0  0  0  0  0  0  0  0  0  0  0
    1.7860    6.4500  -11.5500 C   0  0  0  0  0  0  0  0  0  0  0  0
    0.6560    7.0710  -11.9750 N   0  0  0  0  0  0  0  0  0  0  0  0
    0.9120    7.7380  -13.1180 C   0  0  0  0  0  0  0  0  0  0  0  0
   -0.9800    9.3350  -13.2150 C   0  0  0  0  0  0  0  0  0  0  0  0
   -2.4280    9.0840  -13.4660 C   0  0  0  0  0  0  0  0  0  0  0  0
   -8.4860   12.1960  -14.9970 H   0  0  0  0  0  0  0  0  0  0  0  0
   -7.6500    8.3700  -16.6810 H   0  0  0  0  0  0  0  0  0  0  0  0
   -9.5230    8.7160  -18.3150 H   0  0  0  0  0  0  0  0  0  0  0  0
  -10.8870   10.7780  -18.2840 H   0  0  0  0  0  0  0  0  0  0  0  0
   -5.3490    9.6210  -16.0920 H   0  0  0  0  0  0  0  0  0  0  0  0
   -5.0860    8.7390  -13.3920 H   0  0  0  0  0  0  0  0  0  0  0  0
   -5.4880    6.1980  -14.0870 H   0  0  0  0  0  0  0  0  0  0  0  0
   -6.5950    7.2100  -13.1210 H   0  0  0  0  0  0  0  0  0  0  0  0
   -6.8790    6.9600  -14.9070 H   0  0  0  0  0  0  0  0  0  0  0  0
   -1.9390    6.0320  -14.9320 H   0  0  0  0  0  0  0  0  0  0  0  0
   -1.3220    6.5880  -13.3570 H   0  0  0  0  0  0  0  0  0  0  0  0
    0.1690    6.7860  -15.2080 H   0  0  0  0  0  0  0  0  0  0  0  0
   -0.8210    8.0580  -15.9630 H   0  0  0  0  0  0  0  0  0  0  0  0
    1.2510   10.2510  -14.0660 H   0  0  0  0  0  0  0  0  0  0  0  0
    1.4860    8.2360  -16.2350 H   0  0  0  0  0  0  0  0  0  0  0  0
    2.5090    9.6430  -15.9500 H   0  0  0  0  0  0  0  0  0  0  0  0
    3.7110    8.7840  -14.2050 H   0  0  0  0  0  0  0  0  0  0  0  0
    3.3580    7.3130  -15.2130 H   0  0  0  0  0  0  0  0  0  0  0  0
    1.8980    5.8310  -10.6520 H   0  0  0  0  0  0  0  0  0  0  0  0
   -0.2140    6.9730  -11.4150 H   0  0  0  0  0  0  0  0  0  0  0  0
   -0.8010    9.1630  -12.1340 H   0  0  0  0  0  0  0  0  0  0  0  0
   -0.8080   10.4450  -13.3540 H   0  0  0  0  0  0  0  0  0  0  0  0
   -2.9130    9.9510  -13.9340 H   0  0  0  0  0  0  0  0  0  0  0  0
   -2.9810    8.9320  -12.4850 H   0  0  0  0  0  0  0  0  0  0  0  0
  2  1  1  0  0  0  0
  2  3  1  0  0  0  0
  3 29  1  0  0  0  0
  4  3  2  0  0  0  0
  4  8  1  0  0  0  0
  5 30  1  0  0  0  0
  5  4  1  0  0  0  0
  6  5  2  0  0  0  0
  7  6  1  0  0  0  0
  7  2  2  0  0  0  0
  8  9  2  0  0  0  0
 10  8  1  0  0  0  0
 10 11  1  0  0  0  0
 11 12  1  0  0  0  0
 11 34  1  1  0  0  0
 12 35  1  0  0  0  0
 12 36  1  0  0  0  0
 13 11  1  0  0  0  0
 13 15  1  0  0  0  0
 14 13  2  0  0  0  0
 15 28  1  0  0  0  0
 16 15  1  0  0  0  0
 16 39  1  0  0  0  0
 17 16  1  0  0  0  0
 17 18  1  0  0  0  0
 18 27  1  0  0  0  0
 18 26  1  1  0  0  0
 19 42  1  0  0  0  0
 19 18  1  0  0  0  0
 20 19  1  0  0  0  0
 20 21  1  0  0  0  0
 21 45  1  0  0  0  0
 21 22  1  0  0  0  0
 22 26  2  0  0  0  0
 22 23  1  0  0  0  0
 23 24  2  0  0  0  0
 24 47  1  0  0  0  0
 25 24  1  0  0  0  0
 25 48  1  0  0  0  0
 26 25  1  0  0  0  0
 27 49  1  0  0  0  0
 28 27  1  0  0  0  0
 28 52  1  0  0  0  0
 31  6  1  0  0  0  0
 32  7  1  0  0  0  0
 33 10  1  0  0  0  0
 37 12  1  0  0  0  0
 38 16  1  0  0  0  0
 40 17  1  0  0  0  0
 41 17  1  0  0  0  0
 43 20  1  0  0  0  0
 44 20  1  0  0  0  0
 46 21  1  0  0  0  0
 50 27  1  0  0  0  0
 51 28  1  0  0  0  0
M  END
>  <Pose>
1

>  <Score>
-5.16

$$$$
