
 OpenBabel03232203513D

 49 52  0  0  0  0  0  0  0  0999 V2000
    1.1760    6.9080  -11.9920 B   0  0  0  0  0  0  0  0  0  0  0  0
    1.5830    8.4190  -13.0480 C   0  0  0  0  0  0  0  0  0  0  0  0
    0.7480    9.5250  -13.0070 C   0  0  0  0  0  0  0  0  0  0  0  0
    1.0130   10.6350  -13.7650 C   0  0  0  0  0  0  0  0  0  0  0  0
    2.0950   10.7130  -14.5880 C   0  0  0  0  0  0  0  0  0  0  0  0
    2.9430    9.6020  -14.6340 C   0  0  0  0  0  0  0  0  0  0  0  0
    2.6800    8.4800  -13.8710 C   0  0  0  0  0  0  0  0  0  0  0  0
    0.1340   11.8560  -13.7030 C   0  0  0  0  0  0  0  0  0  0  0  0
   -0.9680   11.7190  -14.3430 O   0  0  0  0  0  0  0  0  0  0  0  0
    0.5680   12.9050  -13.0230 N   0  0  0  0  0  0  0  0  0  0  0  0
    1.0230   14.0030  -12.3100 C   0  0  0  0  0  0  0  0  0  0  0  0
   -0.0180   15.0910  -12.2450 C   0  0  0  0  0  0  0  0  0  0  0  0
   -1.0950   14.8350  -12.8900 O   0  0  0  0  0  0  0  0  0  0  0  0
    0.1460   16.2940  -11.5460 N   0  0  0  0  0  0  0  0  0  0  0  0
    0.6910   17.4710  -12.1430 C   0  0  0  0  0  0  0  0  0  0  0  0
    0.0480   18.7310  -11.6350 C   0  0  0  0  0  0  0  0  0  0  0  0
   -1.3270   18.5440  -11.0330 C   0  0  0  0  0  0  0  0  0  0  0  0
   -1.5890   19.8130  -10.3680 N   0  0  0  0  0  0  0  0  0  0  0  0
   -2.9040   20.0050   -9.8880 C   0  0  0  0  0  0  0  0  0  0  0  0
   -3.9770   19.1340  -10.4300 C   0  0  0  0  0  0  0  0  0  0  0  0
   -3.6580   18.6580  -11.8120 C   0  0  0  0  0  0  0  0  0  0  0  0
   -4.4280   18.4430  -12.8780 N   0  0  0  0  0  0  0  0  0  0  0  0
   -3.5970   18.0170  -13.8520 C   0  0  0  0  0  0  0  0  0  0  0  0
   -2.3270   17.9670  -13.3950 N   0  0  0  0  0  0  0  0  0  0  0  0
   -2.3460   18.3720  -12.0930 C   0  0  0  0  0  0  0  0  0  0  0  0
   -1.4130   17.4070  -10.0480 C   0  0  0  0  0  0  0  0  0  0  0  0
   -0.2570   16.4300  -10.1510 C   0  0  0  0  0  0  0  0  0  0  0  0
   -0.1120    9.5140  -12.3790 H   0  0  0  0  0  0  0  0  0  0  0  0
    2.2780   11.5950  -15.1680 H   0  0  0  0  0  0  0  0  0  0  0  0
    3.8080    9.6230  -15.2720 H   0  0  0  0  0  0  0  0  0  0  0  0
    3.3370    7.6240  -13.9050 H   0  0  0  0  0  0  0  0  0  0  0  0
    1.8160   12.3210  -12.8940 H   0  0  0  0  0  0  0  0  0  0  0  0
    1.9520   14.4550  -12.8030 H   0  0  0  0  0  0  0  0  0  0  0  0
    1.3970   13.7360  -11.2910 H   0  0  0  0  0  0  0  0  0  0  0  0
    1.7710   17.5110  -11.8020 H   0  0  0  0  0  0  0  0  0  0  0  0
    0.7660   17.4240  -13.2450 H   0  0  0  0  0  0  0  0  0  0  0  0
    0.6940   19.2090  -10.8900 H   0  0  0  0  0  0  0  0  0  0  0  0
   -0.0890   19.3900  -12.5190 H   0  0  0  0  0  0  0  0  0  0  0  0
   -0.8770   19.8390   -9.5830 H   0  0  0  0  0  0  0  0  0  0  0  0
   -3.1940   21.0720  -10.1320 H   0  0  0  0  0  0  0  0  0  0  0  0
   -2.8900   19.9720   -8.7580 H   0  0  0  0  0  0  0  0  0  0  0  0
   -4.1450   18.2720   -9.7430 H   0  0  0  0  0  0  0  0  0  0  0  0
   -4.9540   19.6940  -10.4140 H   0  0  0  0  0  0  0  0  0  0  0  0
   -3.9400   17.7630  -14.8370 H   0  0  0  0  0  0  0  0  0  0  0  0
   -1.5000   17.6720  -13.9420 H   0  0  0  0  0  0  0  0  0  0  0  0
   -2.3420   16.8010  -10.2750 H   0  0  0  0  0  0  0  0  0  0  0  0
   -1.4680   17.7330   -8.9970 H   0  0  0  0  0  0  0  0  0  0  0  0
    0.6010   16.7390   -9.5100 H   0  0  0  0  0  0  0  0  0  0  0  0
   -0.6310   15.4460   -9.8100 H   0  0  0  0  0  0  0  0  0  0  0  0
  2  3  1  0  0  0  0
  2  1  1  0  0  0  0
  3 28  1  0  0  0  0
  4  8  1  0  0  0  0
  4  3  2  0  0  0  0
  5  4  1  0  0  0  0
  6  5  2  0  0  0  0
  6  7  1  0  0  0  0
  7  2  2  0  0  0  0
  8 10  1  0  0  0  0
  9  8  2  0  0  0  0
 10 32  1  0  0  0  0
 10 11  1  0  0  0  0
 11 12  1  0  0  0  0
 11 34  1  0  0  0  0
 12 14  1  0  0  0  0
 13 12  2  0  0  0  0
 14 27  1  0  0  0  0
 15 35  1  0  0  0  0
 15 16  1  0  0  0  0
 15 14  1  0  0  0  0
 16 17  1  0  0  0  0
 16 37  1  0  0  0  0
 17 18  1  0  0  0  0
 17 26  1  0  0  0  0
 18 19  1  0  0  0  0
 18 39  1  0  0  0  0
 19 41  1  0  0  0  0
 20 43  1  0  0  0  0
 20 19  1  0  0  0  0
 20 42  1  0  0  0  0
 21 20  1  0  0  0  0
 22 21  1  0  0  0  0
 23 24  1  0  0  0  0
 23 22  2  0  0  0  0
 24 25  1  0  0  0  0
 25 21  2  0  0  0  0
 25 17  1  0  0  0  0
 26 47  1  0  0  0  0
 27 26  1  0  0  0  0
 27 49  1  0  0  0  0
 27 48  1  0  0  0  0
 29  5  1  0  0  0  0
 30  6  1  0  0  0  0
 31  7  1  0  0  0  0
 33 11  1  0  0  0  0
 36 15  1  0  0  0  0
 38 16  1  0  0  0  0
 40 19  1  0  0  0  0
 44 23  1  0  0  0  0
 45 24  1  0  0  0  0
 46 26  1  0  0  0  0
M  END
>  <Pose>
1

>  <Score>
-6.22

$$$$
