
 OpenBabel03232203513D

 42 45  0  0  1  0  0  0  0  0999 V2000
   -3.0670   20.0200  -10.2330 B   0  0  0  0  0  0  0  0  0  0  0  0
   -3.0530   18.8730  -11.7480 C   0  0  0  0  0  0  0  0  0  0  0  0
   -2.0830   17.9230  -11.9420 C   0  0  0  0  0  0  0  0  0  0  0  0
   -2.0490   17.0830  -13.0260 C   0  0  0  0  0  0  0  0  0  0  0  0
   -3.0530   17.2230  -13.9530 C   0  0  0  0  0  0  0  0  0  0  0  0
   -4.0650   18.1820  -13.7930 C   0  0  0  0  0  0  0  0  0  0  0  0
   -4.0580   19.0080  -12.6810 C   0  0  0  0  0  0  0  0  0  0  0  0
   -1.0150   16.0800  -13.2180 C   0  0  0  0  0  0  0  0  0  0  0  0
   -0.1440   16.3530  -14.1170 O   0  0  0  0  0  0  0  0  0  0  0  0
   -0.9130   14.8680  -12.5020 N   0  0  0  0  0  0  0  0  0  0  0  0
   -0.7000   13.6480  -13.1890 C   0  0  2  0  0  0  0  0  0  0  0  0
   -1.4900   12.4850  -12.6880 C   0  0  0  0  0  0  0  0  0  0  0  0
   -0.7380   11.3300  -13.2080 N   0  0  0  0  0  0  0  0  0  0  0  0
    0.5630   11.7800  -13.6810 C   0  0  1  0  0  0  0  0  0  0  0  0
    0.7310   13.1140  -13.0220 C   0  0  0  0  0  0  0  0  0  0  0  0
    1.5540   10.7830  -13.2870 C   0  0  0  0  0  0  0  0  0  0  0  0
    2.6970   11.1160  -12.9500 O   0  0  0  0  0  0  0  0  0  0  0  0
    1.2010    9.3930  -13.2900 N   0  0  0  0  0  0  0  0  0  0  0  0
   -0.0460    9.0560  -13.9340 C   0  0  1  0  0  0  0  0  0  0  0  0
   -0.3340    7.6200  -13.7770 C   0  0  0  0  0  0  0  0  0  0  0  0
    1.0180    7.0580  -13.3850 C   0  0  0  0  0  0  0  0  0  0  0  0
    1.7910    8.1880  -12.7940 C   0  0  0  0  0  0  0  0  0  0  0  0
   -1.0780    9.9500  -13.3030 C   0  0  0  0  0  0  0  0  0  0  0  0
   -2.1700    9.5040  -12.8870 O   0  0  0  0  0  0  0  0  0  0  0  0
   -1.2830   17.8080  -11.2100 H   0  0  0  0  0  0  0  0  0  0  0  0
   -3.1040   16.6040  -14.8350 H   0  0  0  0  0  0  0  0  0  0  0  0
   -4.8550   18.2920  -14.5220 H   0  0  0  0  0  0  0  0  0  0  0  0
   -4.8560   19.7330  -12.6000 H   0  0  0  0  0  0  0  0  0  0  0  0
   -0.9970   14.8830  -11.4690 H   0  0  0  0  0  0  0  0  0  0  0  0
   -0.8560   13.7210  -14.2830 H   0  0  0  0  0  0  0  0  0  0  0  0
   -1.4000   12.4910  -11.5650 H   0  0  0  0  0  0  0  0  0  0  0  0
   -2.5370   12.4650  -12.9850 H   0  0  0  0  0  0  0  0  0  0  0  0
    0.4810   11.8900  -14.7940 H   0  0  0  0  0  0  0  0  0  0  0  0
    0.9830   12.9700  -11.9700 H   0  0  0  0  0  0  0  0  0  0  0  0
    1.4300   13.7750  -13.5740 H   0  0  0  0  0  0  0  0  0  0  0  0
   -0.0110    9.3970  -15.0050 H   0  0  0  0  0  0  0  0  0  0  0  0
   -0.5850    7.1940  -14.7810 H   0  0  0  0  0  0  0  0  0  0  0  0
   -1.1330    7.3560  -13.0740 H   0  0  0  0  0  0  0  0  0  0  0  0
    1.5650    6.7050  -14.3060 H   0  0  0  0  0  0  0  0  0  0  0  0
    0.8500    6.2040  -12.7150 H   0  0  0  0  0  0  0  0  0  0  0  0
    1.7330    8.0960  -11.6850 H   0  0  0  0  0  0  0  0  0  0  0  0
    2.8740    8.0870  -13.0990 H   0  0  0  0  0  0  0  0  0  0  0  0
  2  1  1  0  0  0  0
  3  2  1  0  0  0  0
  3 25  1  0  0  0  0
  4  3  2  0  0  0  0
  5  6  2  0  0  0  0
  5  4  1  0  0  0  0
  6  7  1  0  0  0  0
  7 28  1  0  0  0  0
  7  2  2  0  0  0  0
  8  4  1  0  0  0  0
  8 10  1  0  0  0  0
  9  8  2  0  0  0  0
 10 29  1  0  0  0  0
 11 30  1  6  0  0  0
 11 15  1  0  0  0  0
 11 12  1  0  0  0  0
 11 10  1  0  0  0  0
 12 31  1  0  0  0  0
 13 12  1  0  0  0  0
 14 33  1  6  0  0  0
 14 16  1  0  0  0  0
 14 13  1  0  0  0  0
 14 15  1  0  0  0  0
 15 34  1  0  0  0  0
 16 17  2  0  0  0  0
 18 16  1  0  0  0  0
 18 22  1  0  0  0  0
 19 36  1  6  0  0  0
 19 20  1  0  0  0  0
 19 23  1  0  0  0  0
 19 18  1  0  0  0  0
 20 21  1  0  0  0  0
 20 38  1  0  0  0  0
 21 22  1  0  0  0  0
 21 40  1  0  0  0  0
 22 41  1  0  0  0  0
 23 13  1  0  0  0  0
 23 24  2  0  0  0  0
 26  5  1  0  0  0  0
 27  6  1  0  0  0  0
 32 12  1  0  0  0  0
 35 15  1  0  0  0  0
 37 20  1  0  0  0  0
 39 21  1  0  0  0  0
 42 22  1  0  0  0  0
M  END
>  <Pose>
1

>  <Score>
-6.89

$$$$
