
 OpenBabel03232203513D

 44 47  0  0  0  0  0  0  0  0999 V2000
   -2.9180    6.0610  -15.1750 B   0  0  0  0  0  0  0  0  0  0  0  0
   -3.7470    7.7150  -14.7080 C   0  0  0  0  0  0  0  0  0  0  0  0
   -2.9380    8.7180  -14.1570 C   0  0  0  0  0  0  0  0  0  0  0  0
   -3.4580    9.9720  -13.8020 C   0  0  0  0  0  0  0  0  0  0  0  0
   -4.7930   10.1690  -14.0070 C   0  0  0  0  0  0  0  0  0  0  0  0
   -5.6300    9.1770  -14.5600 C   0  0  0  0  0  0  0  0  0  0  0  0
   -5.0620    7.9240  -14.9100 C   0  0  0  0  0  0  0  0  0  0  0  0
   -2.5230   11.1120  -13.6010 C   0  0  0  0  0  0  0  0  0  0  0  0
   -1.2020   10.8990  -13.5920 C   0  0  0  0  0  0  0  0  0  0  0  0
   -0.5900    9.7240  -13.7410 O   0  0  0  0  0  0  0  0  0  0  0  0
    0.8160    9.9050  -13.7070 C   0  0  0  0  0  0  0  0  0  0  0  0
    1.1320   11.2100  -13.5390 C   0  0  0  0  0  0  0  0  0  0  0  0
    2.4790   11.5660  -13.5610 C   0  0  0  0  0  0  0  0  0  0  0  0
    3.4410   10.6190  -13.7230 C   0  0  0  0  0  0  0  0  0  0  0  0
    3.0870    9.2910  -13.8610 C   0  0  0  0  0  0  0  0  0  0  0  0
    1.7790    8.8690  -13.8560 C   0  0  0  0  0  0  0  0  0  0  0  0
    1.2650    7.5550  -13.5270 C   0  0  0  0  0  0  0  0  0  0  0  0
    0.3250    6.9400  -12.7820 N   0  0  0  0  0  4  0  0  0  0  0  0
   -0.4680    5.8490  -13.1480 C   0  0  0  0  0  0  0  0  0  0  0  0
    0.0880    4.4860  -12.6810 C   0  0  0  0  0  0  0  0  0  0  0  0
    0.1010    4.3410  -11.3140 O   0  0  0  0  0  0  0  0  0  0  0  0
    0.4720    5.5520  -10.7190 C   0  0  0  0  0  0  0  0  0  0  0  0
    1.1970    6.4230  -11.6020 C   0  0  0  0  0  0  0  0  0  0  0  0
    4.1110    8.3540  -14.0130 O   0  0  0  0  0  0  0  0  0  0  0  0
   -0.1620   11.9260  -13.4440 C   0  0  0  0  0  0  0  0  0  0  0  0
   -0.3280   13.1470  -13.2690 O   0  0  0  0  0  0  0  0  0  0  0  0
   -1.9230    8.5040  -14.0600 H   0  0  0  0  0  0  0  0  0  0  0  0
   -5.2730   11.0830  -13.7750 H   0  0  0  0  0  0  0  0  0  0  0  0
   -6.6740    9.2710  -14.7570 H   0  0  0  0  0  0  0  0  0  0  0  0
   -5.6730    7.1670  -15.3470 H   0  0  0  0  0  0  0  0  0  0  0  0
   -2.8850   12.0990  -13.4300 H   0  0  0  0  0  0  0  0  0  0  0  0
    2.7420   12.5830  -13.4380 H   0  0  0  0  0  0  0  0  0  0  0  0
    4.5170   10.9030  -13.7540 H   0  0  0  0  0  0  0  0  0  0  0  0
    0.7330    7.3430  -14.7080 H   0  0  0  0  0  0  0  0  0  0  0  0
    2.1460    6.7830  -13.8460 H   0  0  0  0  0  0  0  0  0  0  0  0
   -0.3020    7.6880  -12.3000 H   0  0  0  0  0  0  0  0  0  0  0  0
   -0.6880    5.7600  -14.2250 H   0  0  0  0  0  0  0  0  0  0  0  0
   -1.5060    5.8980  -12.6120 H   0  0  0  0  0  0  0  0  0  0  0  0
    1.0640    4.3130  -13.1790 H   0  0  0  0  0  0  0  0  0  0  0  0
   -0.6660    3.7360  -13.0700 H   0  0  0  0  0  0  0  0  0  0  0  0
   -0.3310    6.0840  -10.2000 H   0  0  0  0  0  0  0  0  0  0  0  0
    1.2200    5.2710   -9.8960 H   0  0  0  0  0  0  0  0  0  0  0  0
    2.0560    5.9220  -12.1770 H   0  0  0  0  0  0  0  0  0  0  0  0
    1.5570    7.3120  -11.1630 H   0  0  0  0  0  0  0  0  0  0  0  0
  1  2  1  0  0  0  0
  2  3  1  0  0  0  0
  3 27  1  0  0  0  0
  3  4  2  0  0  0  0
  4  8  1  0  0  0  0
  5  4  1  0  0  0  0
  5 28  1  0  0  0  0
  6  5  2  0  0  0  0
  7  2  2  0  0  0  0
  7  6  1  0  0  0  0
  8  9  2  0  0  0  0
  8 31  1  0  0  0  0
  9 25  1  0  0  0  0
 10 11  1  0  0  0  0
 10  9  1  0  0  0  0
 11 12  1  0  0  0  0
 12 25  1  0  0  0  0
 13 12  2  0  0  0  0
 13 32  1  0  0  0  0
 14 13  1  0  0  0  0
 15 16  1  0  0  0  0
 15 14  2  0  0  0  0
 16 11  2  0  0  0  0
 16 17  1  0  0  0  0
 17 18  1  0  0  0  0
 18 36  1  0  0  0  0
 18 23  1  0  0  0  0
 19 18  1  0  0  0  0
 19 20  1  0  0  0  0
 19 38  1  0  0  0  0
 20 21  1  0  0  0  0
 21 22  1  0  0  0  0
 22 41  1  0  0  0  0
 22 42  1  0  0  0  0
 23 44  1  0  0  0  0
 23 22  1  0  0  0  0
 24 15  1  0  0  0  0
 25 26  2  0  0  0  0
 29  6  1  0  0  0  0
 30  7  1  0  0  0  0
 33 14  1  0  0  0  0
 34 17  1  0  0  0  0
 35 17  1  0  0  0  0
 37 19  1  0  0  0  0
 39 20  1  0  0  0  0
 40 20  1  0  0  0  0
 43 23  1  0  0  0  0
M  END
>  <Pose>
1

>  <Score>
-4.46

$$$$
