
 OpenBabel03232203513D

 52 55  0  0  0  0  0  0  0  0999 V2000
   -6.4920   21.9990   -9.5450 B   0  0  0  0  0  0  0  0  0  0  0  0
   -4.6200   21.5820   -9.5530 C   0  0  0  0  0  0  0  0  0  0  0  0
   -4.1210   20.4760  -10.2380 C   0  0  0  0  0  0  0  0  0  0  0  0
   -2.7690   20.2000  -10.1840 C   0  0  0  0  0  0  0  0  0  0  0  0
   -1.9610   21.0490   -9.4500 C   0  0  0  0  0  0  0  0  0  0  0  0
   -2.4920   22.1230   -8.7970 C   0  0  0  0  0  0  0  0  0  0  0  0
   -3.8250   22.4410   -8.8030 C   0  0  0  0  0  0  0  0  0  0  0  0
   -2.1250   18.9950  -10.7410 C   0  0  0  0  0  0  0  0  0  0  0  0
   -2.7090   18.2240  -11.6160 N   0  0  0  0  0  0  0  0  0  0  0  0
   -2.2450   17.1240  -12.1650 N   0  0  0  0  0  0  0  0  0  0  0  0
   -1.9230   16.3050  -13.2080 C   0  0  0  0  0  0  0  0  0  0  0  0
   -1.5280   16.6240  -14.3510 O   0  0  0  0  0  0  0  0  0  0  0  0
   -2.0480   14.8160  -12.9190 C   0  0  0  0  0  0  0  0  0  0  0  0
   -3.0780   14.0660  -12.7270 N   0  0  0  0  0  0  0  0  0  0  0  0
   -2.7140   12.7880  -12.7120 N   0  0  0  0  0  0  0  0  0  0  0  0
   -1.3720   12.7160  -12.9160 N   0  0  0  0  0  0  0  0  0  0  0  0
   -0.9120   13.9190  -13.0190 C   0  0  0  0  0  0  0  0  0  0  0  0
    0.4050   14.5260  -13.1770 C   0  0  0  0  0  0  0  0  0  0  0  0
    1.2010   14.9210  -12.1060 N   0  0  0  0  0  0  0  0  0  0  0  0
    1.4410   14.4750  -10.8630 C   0  0  0  0  0  0  0  0  0  0  0  0
    2.8760   13.8810  -10.8230 C   0  0  0  0  0  0  0  0  0  0  0  0
    3.2020   13.4810  -12.1450 N   0  0  0  0  0  0  0  0  0  0  0  0
    3.4090   14.6180  -12.9910 C   0  0  0  0  0  0  0  0  0  0  0  0
    2.3880   15.6890  -12.5870 C   0  0  0  0  0  0  0  0  0  0  0  0
    4.0470   12.3810  -12.3500 C   0  0  0  0  0  0  0  0  0  0  0  0
   -0.8520   11.4480  -13.4030 C   0  0  0  0  0  0  0  0  0  0  0  0
    0.4960   11.5370  -13.9120 N   0  0  0  0  0  0  0  0  0  0  0  0
    0.8940   10.4280  -14.3230 O   0  0  0  0  0  0  0  0  0  0  0  0
   -0.0490    9.5510  -14.1610 N   0  0  0  0  0  0  0  0  0  0  0  0
   -1.1350   10.2040  -13.5820 C   0  0  0  0  0  0  0  0  0  0  0  0
   -2.3050    9.4730  -13.2900 N   0  0  0  0  0  0  0  0  0  0  0  0
   -4.7820   19.8470  -10.7870 H   0  0  0  0  0  0  0  0  0  0  0  0
   -0.9010   20.8180   -9.4290 H   0  0  0  0  0  0  0  0  0  0  0  0
   -1.8350   22.8130   -8.2190 H   0  0  0  0  0  0  0  0  0  0  0  0
   -4.1990   23.2890   -8.2660 H   0  0  0  0  0  0  0  0  0  0  0  0
   -1.1840   18.6410  -10.3780 H   0  0  0  0  0  0  0  0  0  0  0  0
   -1.8150   16.5140  -11.1950 H   0  0  0  0  0  0  0  0  0  0  0  0
    1.0140   13.5850  -13.7040 H   0  0  0  0  0  0  0  0  0  0  0  0
    0.5020   15.2360  -14.0030 H   0  0  0  0  0  0  0  0  0  0  0  0
    0.7620   13.8280  -10.3440 H   0  0  0  0  0  0  0  0  0  0  0  0
    1.5170   15.4030  -10.1600 H   0  0  0  0  0  0  0  0  0  0  0  0
    3.5570   14.6330  -10.4710 H   0  0  0  0  0  0  0  0  0  0  0  0
    2.8190   13.0030  -10.1740 H   0  0  0  0  0  0  0  0  0  0  0  0
    3.2670   14.4120  -14.0960 H   0  0  0  0  0  0  0  0  0  0  0  0
    4.4310   14.9940  -12.8740 H   0  0  0  0  0  0  0  0  0  0  0  0
    2.1180   16.3700  -13.3520 H   0  0  0  0  0  0  0  0  0  0  0  0
    2.7620   16.2220  -11.7330 H   0  0  0  0  0  0  0  0  0  0  0  0
    4.3460   11.9820  -11.3380 H   0  0  0  0  0  0  0  0  0  0  0  0
    3.4440   11.5640  -12.8580 H   0  0  0  0  0  0  0  0  0  0  0  0
    4.9440   12.6090  -12.9260 H   0  0  0  0  0  0  0  0  0  0  0  0
   -2.2550    8.9730  -12.3340 H   0  0  0  0  0  0  0  0  0  0  0  0
   -3.1570    9.3340  -13.7970 H   0  0  0  0  0  0  0  0  0  0  0  0
  2  1  1  0  0  0  0
  2  7  1  0  0  0  0
  3  4  1  0  0  0  0
  3  2  2  0  0  0  0
  4  5  2  0  0  0  0
  5 33  1  0  0  0  0
  5  6  1  0  0  0  0
  6 34  1  0  0  0  0
  7  6  2  0  0  0  0
  7 35  1  0  0  0  0
  8 36  1  0  0  0  0
  8  4  1  0  0  0  0
  9  8  2  0  0  0  0
 10  9  1  0  0  0  0
 10 37  1  0  0  0  0
 11 13  1  0  0  0  0
 11 10  1  0  0  0  0
 12 11  2  0  0  0  0
 13 14  1  0  0  0  0
 14 15  2  0  0  0  0
 16 15  1  0  0  0  0
 17 13  2  0  0  0  0
 17 16  1  0  0  0  0
 18 17  1  0  0  0  0
 18 19  1  0  0  0  0
 19 20  1  0  0  0  0
 20 21  1  0  0  0  0
 20 40  1  0  0  0  0
 20 41  1  0  0  0  0
 21 42  1  0  0  0  0
 21 43  1  0  0  0  0
 22 21  1  0  0  0  0
 23 45  1  0  0  0  0
 23 24  1  0  0  0  0
 23 22  1  0  0  0  0
 24 19  1  0  0  0  0
 24 47  1  0  0  0  0
 25 22  1  0  0  0  0
 25 48  1  0  0  0  0
 26 16  1  0  0  0  0
 27 26  2  0  0  0  0
 28 29  1  0  0  0  0
 28 27  1  0  0  0  0
 29 30  2  0  0  0  0
 30 26  1  0  0  0  0
 30 31  1  0  0  0  0
 31 51  1  0  0  0  0
 32  3  1  0  0  0  0
 38 18  1  0  0  0  0
 39 18  1  0  0  0  0
 44 23  1  0  0  0  0
 46 24  1  0  0  0  0
 49 25  1  0  0  0  0
 50 25  1  0  0  0  0
 52 31  1  0  0  0  0
M  END
>  <Pose>
1

>  <Score>
-5.14

$$$$
