
 OpenBabel03232203513D

 50 53  0  0  0  0  0  0  0  0999 V2000
    7.5140    6.1310  -13.3470 B   0  0  0  0  0  0  0  0  0  0  0  0
    5.8640    5.1590  -13.3610 C   0  0  0  0  0  0  0  0  0  0  0  0
    4.7150    5.6950  -12.8310 C   0  0  0  0  0  0  0  0  0  0  0  0
    3.5010    5.0320  -12.8170 C   0  0  0  0  0  0  0  0  0  0  0  0
    3.4830    3.7720  -13.3750 C   0  0  0  0  0  0  0  0  0  0  0  0
    4.6260    3.1940  -13.9230 C   0  0  0  0  0  0  0  0  0  0  0  0
    5.8130    3.8950  -13.9120 C   0  0  0  0  0  0  0  0  0  0  0  0
    2.3000    5.6290  -12.2470 C   0  0  0  0  0  0  0  0  0  0  0  0
    1.1870    5.7040  -12.8640 N   0  0  0  0  0  0  0  0  0  0  0  0
    0.0210    6.2720  -12.3430 N   0  0  0  0  0  0  0  0  0  0  0  0
   -0.4670    7.5240  -12.8100 C   0  0  0  0  0  0  0  0  0  0  0  0
    0.2970    8.6170  -12.7250 N   0  0  0  0  0  4  0  0  0  0  0  0
   -0.1100    9.8440  -13.1520 C   0  0  0  0  0  0  0  0  0  0  0  0
   -1.3540    9.8950  -13.6760 N   0  0  0  0  0  0  0  0  0  0  0  0
   -2.1690    8.8330  -13.7890 C   0  0  0  0  0  0  0  0  0  0  0  0
   -1.6830    7.6500  -13.3380 N   0  0  0  0  0  0  0  0  0  0  0  0
   -3.4600    8.9130  -14.3390 N   0  0  0  0  0  0  0  0  0  0  0  0
   -3.9270    7.9830  -15.3310 C   0  0  0  0  0  0  0  0  0  0  0  0
   -5.4040    7.7260  -15.0030 C   0  0  0  0  0  0  0  0  0  0  0  0
   -5.6390    7.9290  -13.6450 O   0  0  0  0  0  0  0  0  0  0  0  0
   -5.5470    9.2390  -13.2480 C   0  0  0  0  0  0  0  0  0  0  0  0
   -4.3590    9.9470  -13.9140 C   0  0  0  0  0  0  0  0  0  0  0  0
    0.7160   10.9850  -13.0520 N   0  0  0  0  0  0  0  0  0  0  0  0
    0.2810   12.1460  -12.3270 C   0  0  0  0  0  0  0  0  0  0  0  0
    1.3680   12.4640  -11.3060 C   0  0  0  0  0  0  0  0  0  0  0  0
    2.5290   12.7060  -12.0360 O   0  0  0  0  0  0  0  0  0  0  0  0
    3.0090   11.5650  -12.6530 C   0  0  0  0  0  0  0  0  0  0  0  0
    2.0130   11.0170  -13.6710 C   0  0  0  0  0  0  0  0  0  0  0  0
    4.7240    6.6930  -12.3890 H   0  0  0  0  0  0  0  0  0  0  0  0
    2.5630    3.1900  -13.4010 H   0  0  0  0  0  0  0  0  0  0  0  0
    4.6170    2.2050  -14.3620 H   0  0  0  0  0  0  0  0  0  0  0  0
    6.6830    3.4310  -14.3410 H   0  0  0  0  0  0  0  0  0  0  0  0
    2.3620    6.0310  -11.2460 H   0  0  0  0  0  0  0  0  0  0  0  0
   -0.4860    5.7530  -11.5960 H   0  0  0  0  0  0  0  0  0  0  0  0
   -3.3570    7.0330  -15.3370 H   0  0  0  0  0  0  0  0  0  0  0  0
   -3.9150    8.4970  -16.3070 H   0  0  0  0  0  0  0  0  0  0  0  0
   -5.5810    6.6580  -15.2020 H   0  0  0  0  0  0  0  0  0  0  0  0
   -6.0680    8.3480  -15.6140 H   0  0  0  0  0  0  0  0  0  0  0  0
   -6.4660    9.8200  -13.3480 H   0  0  0  0  0  0  0  0  0  0  0  0
   -5.2910    9.2340  -12.1480 H   0  0  0  0  0  0  0  0  0  0  0  0
   -3.8470   10.6060  -13.2070 H   0  0  0  0  0  0  0  0  0  0  0  0
   -4.7620   10.5260  -14.8000 H   0  0  0  0  0  0  0  0  0  0  0  0
   -0.7050   12.0260  -11.8510 H   0  0  0  0  0  0  0  0  0  0  0  0
    0.2930   13.0060  -13.0510 H   0  0  0  0  0  0  0  0  0  0  0  0
    1.5310   11.5420  -10.7250 H   0  0  0  0  0  0  0  0  0  0  0  0
    1.1290   13.3400  -10.7010 H   0  0  0  0  0  0  0  0  0  0  0  0
    3.2050   10.8190  -11.8430 H   0  0  0  0  0  0  0  0  0  0  0  0
    3.9540   11.8360  -13.1630 H   0  0  0  0  0  0  0  0  0  0  0  0
    1.9940   11.7460  -14.5080 H   0  0  0  0  0  0  0  0  0  0  0  0
    2.3660   10.0310  -14.0110 H   0  0  0  0  0  0  0  0  0  0  0  0
  2  1  1  0  0  0  0
  2  3  1  0  0  0  0
  3  4  2  0  0  0  0
  3 29  1  0  0  0  0
  4  8  1  0  0  0  0
  5  4  1  0  0  0  0
  6  7  1  0  0  0  0
  6  5  2  0  0  0  0
  7  2  2  0  0  0  0
  8 33  1  0  0  0  0
  9 10  1  0  0  0  0
  9  8  2  0  0  0  0
 10 34  1  0  0  0  0
 11 12  2  0  0  0  0
 11 10  1  0  0  0  0
 13 23  1  0  0  0  0
 13 12  2  0  0  0  0
 14 13  1  0  0  0  0
 15 14  2  0  0  0  0
 15 16  1  0  0  0  0
 16 11  1  0  0  0  0
 17 22  1  0  0  0  0
 17 15  1  0  0  0  0
 18 19  1  0  0  0  0
 18 17  1  0  0  0  0
 19 20  1  0  0  0  0
 20 21  1  0  0  0  0
 21 40  1  0  0  0  0
 22 21  1  0  0  0  0
 22 41  1  0  0  0  0
 23 24  1  0  0  0  0
 24 43  1  0  0  0  0
 24 25  1  0  0  0  0
 25 45  1  0  0  0  0
 25 46  1  0  0  0  0
 26 25  1  0  0  0  0
 27 26  1  0  0  0  0
 27 47  1  0  0  0  0
 28 23  1  0  0  0  0
 28 27  1  0  0  0  0
 30  5  1  0  0  0  0
 31  6  1  0  0  0  0
 32  7  1  0  0  0  0
 35 18  1  0  0  0  0
 36 18  1  0  0  0  0
 37 19  1  0  0  0  0
 38 19  1  0  0  0  0
 39 21  1  0  0  0  0
 42 22  1  0  0  0  0
 44 24  1  0  0  0  0
 48 27  1  0  0  0  0
 49 28  1  0  0  0  0
 50 28  1  0  0  0  0
M  END
>  <Pose>
1

>  <Score>
-5.51

$$$$
