
 OpenBabel03232203513D

 61 64  0  0  1  0  0  0  0  0999 V2000
    5.4920    5.7910  -13.1690 B   0  0  0  0  0  0  0  0  0  0  0  0
    4.3140    7.0480  -13.9920 C   0  0  0  0  0  0  0  0  0  0  0  0
    3.3850    7.7760  -13.3130 C   0  0  0  0  0  0  0  0  0  0  0  0
    2.5140    8.6950  -13.8720 C   0  0  0  0  0  0  0  0  0  0  0  0
    2.5950    8.8920  -15.2480 C   0  0  0  0  0  0  0  0  0  0  0  0
    3.5270    8.1710  -15.9690 C   0  0  0  0  0  0  0  0  0  0  0  0
    4.3840    7.2580  -15.3790 C   0  0  0  0  0  0  0  0  0  0  0  0
    1.5600    9.3760  -12.9910 C   0  0  1  0  0  0  0  0  0  0  0  0
    1.7330   10.7790  -13.0440 N   0  0  0  0  0  0  0  0  0  0  0  0
    0.5860   11.3810  -13.6220 C   0  0  0  0  0  0  0  0  0  0  0  0
    0.4710   12.6160  -13.8940 O   0  0  0  0  0  0  0  0  0  0  0  0
   -0.4130   10.3560  -13.8360 C   0  0  0  0  0  0  0  0  0  0  0  0
   -1.5350   10.6220  -14.3450 O   0  0  0  0  0  0  0  0  0  0  0  0
    0.1500    9.1020  -13.3760 C   0  0  0  0  0  0  0  0  0  0  0  0
   -0.4890    7.9540  -13.3720 C   0  0  0  0  0  0  0  0  0  0  0  0
    0.1770    6.8180  -12.9730 O   0  0  0  0  0  0  0  0  0  0  0  0
   -1.8720    7.8670  -13.7690 C   0  0  0  0  0  0  0  0  0  0  0  0
   -2.8190    8.8810  -13.5430 C   0  0  0  0  0  0  0  0  0  0  0  0
   -3.9940    8.5070  -14.0640 N   0  0  0  0  0  0  0  0  0  0  0  0
   -3.8180    7.3120  -14.5990 N   0  0  0  0  0  0  0  0  0  0  0  0
   -2.5530    6.8920  -14.4450 C   0  0  0  0  0  0  0  0  0  0  0  0
   -5.2090    9.2440  -14.0650 C   0  0  0  0  0  0  0  0  0  0  0  0
   -5.6130    9.8670  -12.8920 C   0  0  0  0  0  0  0  0  0  0  0  0
   -6.7760   10.6080  -12.8240 C   0  0  0  0  0  0  0  0  0  0  0  0
   -7.5970   10.7610  -13.9430 C   0  0  0  0  0  0  0  0  0  0  0  0
   -7.1940   10.1400  -15.1110 C   0  0  0  0  0  0  0  0  0  0  0  0
   -6.0340    9.4090  -15.1530 C   0  0  0  0  0  0  0  0  0  0  0  0
   -2.5160   10.1570  -12.8330 C   0  0  0  0  0  0  0  0  0  0  0  0
    2.9080   11.5540  -12.5570 C   0  0  0  0  0  0  0  0  0  0  0  0
    2.5000   12.9800  -12.2940 C   0  0  0  0  0  0  0  0  0  0  0  0
    2.7470   13.4220  -10.8860 C   0  0  0  0  0  0  0  0  0  0  0  0
    2.5610   14.8100  -10.6190 N   0  0  0  0  0  4  0  0  0  0  0  0
    3.3050   15.7180  -11.4280 C   0  0  0  0  0  0  0  0  0  0  0  0
    1.1380   15.1640  -10.7460 C   0  0  0  0  0  0  0  0  0  0  0  0
    3.3460    7.5910  -12.2220 H   0  0  0  0  0  0  0  0  0  0  0  0
    1.9320    9.5950  -15.7190 H   0  0  0  0  0  0  0  0  0  0  0  0
    3.5870    8.3310  -17.0490 H   0  0  0  0  0  0  0  0  0  0  0  0
    5.1150    6.6890  -15.9430 H   0  0  0  0  0  0  0  0  0  0  0  0
    1.7440    9.0390  -11.9390 H   0  0  0  0  0  0  0  0  0  0  0  0
   -2.1330    5.9510  -14.8040 H   0  0  0  0  0  0  0  0  0  0  0  0
   -4.9480    9.7330  -12.0220 H   0  0  0  0  0  0  0  0  0  0  0  0
   -7.0620   11.0850  -11.8950 H   0  0  0  0  0  0  0  0  0  0  0  0
   -8.5130   11.3510  -13.8610 H   0  0  0  0  0  0  0  0  0  0  0  0
   -7.8460   10.2680  -15.9770 H   0  0  0  0  0  0  0  0  0  0  0  0
   -5.7560    8.9440  -16.0880 H   0  0  0  0  0  0  0  0  0  0  0  0
   -1.4970   10.5250  -13.1070 H   0  0  0  0  0  0  0  0  0  0  0  0
   -2.6540   10.0650  -11.7400 H   0  0  0  0  0  0  0  0  0  0  0  0
   -3.2170   10.9550  -13.1790 H   0  0  0  0  0  0  0  0  0  0  0  0
    3.3600   11.0470  -11.6850 H   0  0  0  0  0  0  0  0  0  0  0  0
    3.6440   11.5960  -13.4110 H   0  0  0  0  0  0  0  0  0  0  0  0
    3.2230   13.5900  -12.9180 H   0  0  0  0  0  0  0  0  0  0  0  0
    1.5190   13.2300  -12.7010 H   0  0  0  0  0  0  0  0  0  0  0  0
    3.8050   13.1640  -10.5640 H   0  0  0  0  0  0  0  0  0  0  0  0
    2.0950   12.8230  -10.1840 H   0  0  0  0  0  0  0  0  0  0  0  0
    2.7870   15.0080   -9.5970 H   0  0  0  0  0  0  0  0  0  0  0  0
    2.6440   16.4720  -11.9360 H   0  0  0  0  0  0  0  0  0  0  0  0
    4.0250   15.2690  -12.1380 H   0  0  0  0  0  0  0  0  0  0  0  0
    3.9460   16.3490  -10.7440 H   0  0  0  0  0  0  0  0  0  0  0  0
    0.7360   15.5730   -9.8050 H   0  0  0  0  0  0  0  0  0  0  0  0
    0.5920   14.2260  -10.9950 H   0  0  0  0  0  0  0  0  0  0  0  0
    0.9910   15.8500  -11.6100 H   0  0  0  0  0  0  0  0  0  0  0  0
  2  3  1  0  0  0  0
  2  1  1  0  0  0  0
  3 35  1  0  0  0  0
  4  3  2  0  0  0  0
  4  8  1  0  0  0  0
  5  4  1  0  0  0  0
  6  7  1  0  0  0  0
  6  5  2  0  0  0  0
  7  2  2  0  0  0  0
  8 39  1  1  0  0  0
  9  8  1  0  0  0  0
  9 29  1  0  0  0  0
 10  9  1  0  0  0  0
 11 10  2  0  0  0  0
 12 10  1  0  0  0  0
 12 14  1  0  0  0  0
 13 12  2  0  0  0  0
 14 15  2  0  0  0  0
 14  8  1  0  0  0  0
 15 16  1  0  0  0  0
 17 18  2  0  0  0  0
 17 15  1  0  0  0  0
 18 28  1  0  0  0  0
 19 18  1  0  0  0  0
 20 21  2  0  0  0  0
 20 19  1  0  0  0  0
 21 17  1  0  0  0  0
 22 19  1  0  0  0  0
 22 23  1  0  0  0  0
 23 24  2  0  0  0  0
 23 41  1  0  0  0  0
 24 42  1  0  0  0  0
 25 43  1  0  0  0  0
 25 24  1  0  0  0  0
 26 25  2  0  0  0  0
 27 26  1  0  0  0  0
 27 22  2  0  0  0  0
 28 47  1  0  0  0  0
 29 30  1  0  0  0  0
 29 49  1  0  0  0  0
 30 31  1  0  0  0  0
 31 32  1  0  0  0  0
 31 53  1  0  0  0  0
 31 54  1  0  0  0  0
 32 55  1  0  0  0  0
 33 58  1  0  0  0  0
 33 32  1  0  0  0  0
 34 32  1  0  0  0  0
 34 59  1  0  0  0  0
 36  5  1  0  0  0  0
 37  6  1  0  0  0  0
 38  7  1  0  0  0  0
 40 21  1  0  0  0  0
 44 26  1  0  0  0  0
 45 27  1  0  0  0  0
 46 28  1  0  0  0  0
 48 28  1  0  0  0  0
 50 29  1  0  0  0  0
 51 30  1  0  0  0  0
 52 30  1  0  0  0  0
 56 33  1  0  0  0  0
 57 33  1  0  0  0  0
 60 34  1  0  0  0  0
 61 34  1  0  0  0  0
M  END
>  <Pose>
1

>  <Score>
-4.90

$$$$
