
 OpenBabel03232203513D

 56 59  0  0  1  0  0  0  0  0999 V2000
    0.1950   13.9340  -12.7140 B   0  0  0  0  0  0  0  0  0  0  0  0
    1.6930   12.7490  -12.7160 C   0  0  0  0  0  0  0  0  0  0  0  0
    1.5550   11.4160  -13.0910 C   0  0  0  0  0  0  0  0  0  0  0  0
    2.6170   10.5360  -13.1030 C   0  0  0  0  0  0  0  0  0  0  0  0
    3.8470   11.0480  -12.7160 C   0  0  0  0  0  0  0  0  0  0  0  0
    4.0050   12.3650  -12.3400 C   0  0  0  0  0  0  0  0  0  0  0  0
    2.9190   13.2030  -12.3450 C   0  0  0  0  0  0  0  0  0  0  0  0
    2.4670    9.1090  -13.5060 C   0  0  2  0  0  0  0  0  0  0  0  0
    3.2360    8.7750  -14.6670 N   0  0  0  0  0  0  0  0  0  0  0  0
    2.3950    9.0150  -15.7850 C   0  0  0  0  0  0  0  0  0  0  0  0
    2.7770    9.1680  -16.9720 O   0  0  0  0  0  0  0  0  0  0  0  0
    0.9840    9.0540  -15.3350 C   0  0  0  0  0  0  0  0  0  0  0  0
   -0.0320    9.2380  -16.0260 O   0  0  0  0  0  0  0  0  0  0  0  0
    1.0400    8.8300  -13.9020 C   0  0  0  0  0  0  0  0  0  0  0  0
    0.0760    8.4190  -13.1090 C   0  0  0  0  0  0  0  0  0  0  0  0
    0.3340    8.1960  -11.7730 O   0  0  0  0  0  0  0  0  0  0  0  0
   -1.2620    8.1970  -13.5950 C   0  0  0  0  0  0  0  0  0  0  0  0
   -2.3220    9.0490  -13.4780 C   0  0  0  0  0  0  0  0  0  0  0  0
   -3.5460    8.7220  -14.0310 C   0  0  0  0  0  0  0  0  0  0  0  0
   -3.7830    7.5530  -14.7180 C   0  0  0  0  0  0  0  0  0  0  0  0
   -2.7110    6.6930  -14.8340 C   0  0  0  0  0  0  0  0  0  0  0  0
   -1.4870    6.9980  -14.2920 C   0  0  0  0  0  0  0  0  0  0  0  0
   -5.1120    7.2250  -15.3040 C   0  0  0  0  0  0  0  0  0  0  0  0
    4.6270    8.2830  -14.7320 C   0  0  0  0  0  0  0  0  0  0  0  0
    4.5780    6.7880  -14.5840 C   0  0  0  0  0  0  0  0  0  0  0  0
    4.5790    6.3120  -13.2480 N   0  0  0  0  0  4  0  0  0  0  0  0
    3.5100    5.4230  -12.8950 C   0  0  0  0  0  0  0  0  0  0  0  0
    3.8250    3.9660  -13.0960 C   0  0  0  0  0  0  0  0  0  0  0  0
    5.0970    3.6130  -12.7020 O   0  0  0  0  0  0  0  0  0  0  0  0
    6.0650    4.3580  -13.3340 C   0  0  0  0  0  0  0  0  0  0  0  0
    5.8830    5.7940  -12.9210 C   0  0  0  0  0  0  0  0  0  0  0  0
    0.5880   11.0870  -13.3770 H   0  0  0  0  0  0  0  0  0  0  0  0
    4.7080   10.4050  -12.7080 H   0  0  0  0  0  0  0  0  0  0  0  0
    4.9780   12.7320  -12.0440 H   0  0  0  0  0  0  0  0  0  0  0  0
    3.0420   14.2470  -12.0470 H   0  0  0  0  0  0  0  0  0  0  0  0
    2.7900    8.4800  -12.6770 H   0  0  0  0  0  0  0  0  0  0  0  0
   -2.1740    9.9650  -12.9160 H   0  0  0  0  0  0  0  0  0  0  0  0
   -4.3700    9.4170  -13.9240 H   0  0  0  0  0  0  0  0  0  0  0  0
   -2.8900    5.7590  -15.3770 H   0  0  0  0  0  0  0  0  0  0  0  0
   -0.6850    6.2760  -14.4200 H   0  0  0  0  0  0  0  0  0  0  0  0
   -5.6610    8.1510  -15.6250 H   0  0  0  0  0  0  0  0  0  0  0  0
   -4.9540    6.6580  -16.2680 H   0  0  0  0  0  0  0  0  0  0  0  0
   -5.7240    6.5910  -14.6630 H   0  0  0  0  0  0  0  0  0  0  0  0
    5.0340    8.5020  -15.7450 H   0  0  0  0  0  0  0  0  0  0  0  0
    5.1490    8.8010  -13.9260 H   0  0  0  0  0  0  0  0  0  0  0  0
    5.4400    6.3890  -15.1960 H   0  0  0  0  0  0  0  0  0  0  0  0
    3.6710    6.4410  -15.1360 H   0  0  0  0  0  0  0  0  0  0  0  0
    4.4720    7.1670  -12.6240 H   0  0  0  0  0  0  0  0  0  0  0  0
    2.5820    5.6320  -13.4650 H   0  0  0  0  0  0  0  0  0  0  0  0
    3.2350    5.5420  -11.8240 H   0  0  0  0  0  0  0  0  0  0  0  0
    3.1130    3.3640  -12.4710 H   0  0  0  0  0  0  0  0  0  0  0  0
    3.6680    3.6180  -14.1300 H   0  0  0  0  0  0  0  0  0  0  0  0
    6.0850    4.2230  -14.4320 H   0  0  0  0  0  0  0  0  0  0  0  0
    7.0550    4.0310  -12.9560 H   0  0  0  0  0  0  0  0  0  0  0  0
    6.6250    6.4710  -13.4110 H   0  0  0  0  0  0  0  0  0  0  0  0
    6.0780    5.8620  -11.8300 H   0  0  0  0  0  0  0  0  0  0  0  0
  2  1  1  0  0  0  0
  2  7  1  0  0  0  0
  3  2  2  0  0  0  0
  4  3  1  0  0  0  0
  4  5  2  0  0  0  0
  5 33  1  0  0  0  0
  5  6  1  0  0  0  0
  6 34  1  0  0  0  0
  7  6  2  0  0  0  0
  7 35  1  0  0  0  0
  8  4  1  0  0  0  0
  8 36  1  1  0  0  0
  9  8  1  0  0  0  0
 10 12  1  0  0  0  0
 10  9  1  0  0  0  0
 11 10  2  0  0  0  0
 12 14  1  0  0  0  0
 13 12  2  0  0  0  0
 14  8  1  0  0  0  0
 14 15  2  0  0  0  0
 15 16  1  0  0  0  0
 17 18  1  0  0  0  0
 17 15  1  0  0  0  0
 18 37  1  0  0  0  0
 19 38  1  0  0  0  0
 19 18  2  0  0  0  0
 20 19  1  0  0  0  0
 21 20  2  0  0  0  0
 21 22  1  0  0  0  0
 22 17  2  0  0  0  0
 23 20  1  0  0  0  0
 23 43  1  0  0  0  0
 24  9  1  0  0  0  0
 24 25  1  0  0  0  0
 24 45  1  0  0  0  0
 25 26  1  0  0  0  0
 26 31  1  0  0  0  0
 26 27  1  0  0  0  0
 26 48  1  0  0  0  0
 27 50  1  0  0  0  0
 28 27  1  0  0  0  0
 28 29  1  0  0  0  0
 28 51  1  0  0  0  0
 30 54  1  0  0  0  0
 30 31  1  0  0  0  0
 30 29  1  0  0  0  0
 31 56  1  0  0  0  0
 32  3  1  0  0  0  0
 39 21  1  0  0  0  0
 40 22  1  0  0  0  0
 41 23  1  0  0  0  0
 42 23  1  0  0  0  0
 44 24  1  0  0  0  0
 46 25  1  0  0  0  0
 47 25  1  0  0  0  0
 49 27  1  0  0  0  0
 52 28  1  0  0  0  0
 53 30  1  0  0  0  0
 55 31  1  0  0  0  0
M  END
>  <Pose>
1

>  <Score>
-5.65

$$$$
