
 OpenBabel03232203513D

 62 66  0  0  1  0  0  0  0  0999 V2000
   -4.4610    9.5530  -13.6010 B   0  0  0  0  0  0  0  0  0  0  0  0
   -2.9740   10.5150  -14.3330 C   0  0  0  0  0  0  0  0  0  0  0  0
   -1.8530   10.7530  -13.5830 C   0  0  0  0  0  0  0  0  0  0  0  0
   -0.7320   11.4550  -14.0710 C   0  0  0  0  0  0  0  0  0  0  0  0
   -0.8790   11.8750  -15.3750 C   0  0  0  0  0  0  0  0  0  0  0  0
   -1.9980   11.6480  -16.1470 C   0  0  0  0  0  0  0  0  0  0  0  0
   -3.0670   10.9570  -15.6250 C   0  0  0  0  0  0  0  0  0  0  0  0
    0.4020   11.6440  -13.2180 C   0  0  2  0  0  0  0  0  0  0  0  0
    1.0750   12.8950  -13.1620 N   0  0  0  0  0  0  0  0  0  0  0  0
    2.2130   12.6270  -12.2770 C   0  0  0  0  0  0  0  0  0  0  0  0
    2.7960   13.4560  -11.5600 O   0  0  0  0  0  0  0  0  0  0  0  0
    2.5120   11.1920  -12.4160 C   0  0  0  0  0  0  0  0  0  0  0  0
    3.4100   10.5310  -11.8480 O   0  0  0  0  0  0  0  0  0  0  0  0
    1.5330   10.6830  -13.3740 C   0  0  0  0  0  0  0  0  0  0  0  0
    1.6790    9.6630  -14.1800 C   0  0  0  0  0  0  0  0  0  0  0  0
    0.6170    9.3920  -15.0700 O   0  0  0  0  0  0  0  0  0  0  0  0
    2.8620    8.8160  -14.1820 C   0  0  0  0  0  0  0  0  0  0  0  0
    3.1160    7.6310  -13.6080 N   0  0  0  0  0  0  0  0  0  0  0  0
    4.3750    7.2680  -13.8630 C   0  0  0  0  0  0  0  0  0  0  0  0
    4.9320    8.2490  -14.6210 N   0  0  0  0  0  0  0  0  0  0  0  0
    4.0350    9.2190  -14.8400 C   0  0  0  0  0  0  0  0  0  0  0  0
    4.2390   10.4710  -15.6220 C   0  0  0  0  0  0  0  0  0  0  0  0
    4.9000    6.0650  -13.3950 C   0  0  0  0  0  0  0  0  0  0  0  0
    4.0590    5.2570  -12.6550 C   0  0  0  0  0  0  0  0  0  0  0  0
    2.7600    5.6620  -12.4090 C   0  0  0  0  0  0  0  0  0  0  0  0
    2.2660    6.8540  -12.8800 C   0  0  0  0  0  0  0  0  0  0  0  0
    6.3070    5.7140  -13.7080 C   0  0  0  0  0  0  0  0  0  0  0  0
    0.8240   14.2140  -13.7150 C   0  0  0  0  0  0  0  0  0  0  0  0
   -0.5780   14.7010  -13.5870 C   0  0  0  0  0  0  0  0  0  0  0  0
   -0.8490   15.3100  -12.2990 N   0  0  0  0  0  4  0  0  0  0  0  0
    0.2360   16.1700  -11.8820 C   0  0  0  0  0  0  0  0  0  0  0  0
    0.2310   17.4500  -12.7230 C   0  0  0  0  0  0  0  0  0  0  0  0
   -0.9530   18.1180  -12.3910 O   0  0  0  0  0  0  0  0  0  0  0  0
   -1.9920   17.3570  -12.9650 C   0  0  0  0  0  0  0  0  0  0  0  0
   -2.1200   16.0080  -12.2980 C   0  0  0  0  0  0  0  0  0  0  0  0
   -1.8420   10.3730  -12.5560 H   0  0  0  0  0  0  0  0  0  0  0  0
   -0.0780   12.3980  -15.8290 H   0  0  0  0  0  0  0  0  0  0  0  0
   -2.0750   11.9950  -17.1660 H   0  0  0  0  0  0  0  0  0  0  0  0
   -3.9640   10.7510  -16.1830 H   0  0  0  0  0  0  0  0  0  0  0  0
    0.0610   11.4550  -12.1420 H   0  0  0  0  0  0  0  0  0  0  0  0
    4.5670   11.2660  -14.9230 H   0  0  0  0  0  0  0  0  0  0  0  0
    3.2710   10.7570  -16.0510 H   0  0  0  0  0  0  0  0  0  0  0  0
    5.0090   10.3010  -16.4170 H   0  0  0  0  0  0  0  0  0  0  0  0
    4.4420    4.3040  -12.2730 H   0  0  0  0  0  0  0  0  0  0  0  0
    2.0970    5.0360  -11.8310 H   0  0  0  0  0  0  0  0  0  0  0  0
    1.2570    7.1820  -12.6970 H   0  0  0  0  0  0  0  0  0  0  0  0
    6.5910    4.7990  -13.1480 H   0  0  0  0  0  0  0  0  0  0  0  0
    6.9740    6.5570  -13.3970 H   0  0  0  0  0  0  0  0  0  0  0  0
    6.4760    5.5090  -14.7690 H   0  0  0  0  0  0  0  0  0  0  0  0
    1.4760   14.9300  -13.1630 H   0  0  0  0  0  0  0  0  0  0  0  0
    1.1960   14.2600  -14.7720 H   0  0  0  0  0  0  0  0  0  0  0  0
   -0.6740   15.5310  -14.3600 H   0  0  0  0  0  0  0  0  0  0  0  0
   -1.3800   14.0190  -13.8000 H   0  0  0  0  0  0  0  0  0  0  0  0
   -0.9240   14.5540  -11.5750 H   0  0  0  0  0  0  0  0  0  0  0  0
    1.1770   15.6470  -12.1370 H   0  0  0  0  0  0  0  0  0  0  0  0
    0.2360   16.3740  -10.8110 H   0  0  0  0  0  0  0  0  0  0  0  0
    1.1310   18.0410  -12.5340 H   0  0  0  0  0  0  0  0  0  0  0  0
    0.1330   17.1560  -13.7810 H   0  0  0  0  0  0  0  0  0  0  0  0
   -1.6790   17.1610  -14.0200 H   0  0  0  0  0  0  0  0  0  0  0  0
   -2.9510   17.8730  -12.9260 H   0  0  0  0  0  0  0  0  0  0  0  0
   -2.8180   15.4090  -12.9190 H   0  0  0  0  0  0  0  0  0  0  0  0
   -2.5620   16.0680  -11.2850 H   0  0  0  0  0  0  0  0  0  0  0  0
  2  1  1  0  0  0  0
  2  3  1  0  0  0  0
  3 36  1  0  0  0  0
  4  3  2  0  0  0  0
  4  8  1  0  0  0  0
  5  4  1  0  0  0  0
  6  7  1  0  0  0  0
  6  5  2  0  0  0  0
  7  2  2  0  0  0  0
  8  9  1  0  0  0  0
  8 40  1  1  0  0  0
  9 10  1  0  0  0  0
 10 11  2  0  0  0  0
 12 10  1  0  0  0  0
 12 13  2  0  0  0  0
 14  8  1  0  0  0  0
 14 12  1  0  0  0  0
 15 14  2  0  0  0  0
 16 15  1  0  0  0  0
 17 15  1  0  0  0  0
 17 18  1  0  0  0  0
 18 26  1  0  0  0  0
 19 18  1  0  0  0  0
 19 23  1  0  0  0  0
 20 19  2  0  0  0  0
 21 20  1  0  0  0  0
 21 17  2  0  0  0  0
 22 41  1  0  0  0  0
 22 21  1  0  0  0  0
 23 24  2  0  0  0  0
 24 25  1  0  0  0  0
 24 44  1  0  0  0  0
 25 45  1  0  0  0  0
 26 46  1  0  0  0  0
 26 25  2  0  0  0  0
 27 48  1  0  0  0  0
 27 23  1  0  0  0  0
 27 47  1  0  0  0  0
 28 29  1  0  0  0  0
 28 50  1  0  0  0  0
 28  9  1  0  0  0  0
 29 30  1  0  0  0  0
 30 35  1  0  0  0  0
 30 31  1  0  0  0  0
 30 54  1  0  0  0  0
 31 56  1  0  0  0  0
 32 57  1  0  0  0  0
 32 33  1  0  0  0  0
 32 31  1  0  0  0  0
 34 60  1  0  0  0  0
 34 33  1  0  0  0  0
 34 35  1  0  0  0  0
 35 62  1  0  0  0  0
 37  5  1  0  0  0  0
 38  6  1  0  0  0  0
 39  7  1  0  0  0  0
 42 22  1  0  0  0  0
 43 22  1  0  0  0  0
 49 27  1  0  0  0  0
 51 28  1  0  0  0  0
 52 29  1  0  0  0  0
 53 29  1  0  0  0  0
 55 31  1  0  0  0  0
 58 32  1  0  0  0  0
 59 34  1  0  0  0  0
 61 35  1  0  0  0  0
M  END
>  <Pose>
1

>  <Score>
-3.24

$$$$
