
 OpenBabel03232203513D

 53 56  0  0  1  0  0  0  0  0999 V2000
    1.7820   15.0200  -10.6890 B   0  0  0  0  0  0  0  0  0  0  0  0
    2.3550   13.5040  -11.7150 C   0  0  0  0  0  0  0  0  0  0  0  0
    1.5220   12.9030  -12.6450 C   0  0  0  0  0  0  0  0  0  0  0  0
    1.9020   11.8130  -13.3960 C   0  0  0  0  0  0  0  0  0  0  0  0
    3.1750   11.3150  -13.1950 C   0  0  0  0  0  0  0  0  0  0  0  0
    4.0280   11.9080  -12.2610 C   0  0  0  0  0  0  0  0  0  0  0  0
    3.6250   13.0020  -11.5180 C   0  0  0  0  0  0  0  0  0  0  0  0
    0.9610   11.2070  -14.3850 C   0  0  2  0  0  0  0  0  0  0  0  0
   -0.3230   11.8930  -14.3790 N   0  0  0  0  0  0  0  0  0  0  0  0
   -0.9370   11.4280  -13.1540 C   0  0  0  0  0  0  0  0  0  0  0  0
   -1.8190   12.0180  -12.4930 O   0  0  0  0  0  0  0  0  0  0  0  0
   -0.3570   10.1390  -12.8000 C   0  0  0  0  0  0  0  0  0  0  0  0
   -0.5780    9.3720  -11.8280 O   0  0  0  0  0  0  0  0  0  0  0  0
    0.6210    9.8410  -13.8450 C   0  0  0  0  0  0  0  0  0  0  0  0
    1.1120    8.6940  -14.2180 C   0  0  0  0  0  0  0  0  0  0  0  0
    2.0820    8.6890  -15.2420 O   0  0  0  0  0  0  0  0  0  0  0  0
    0.6670    7.4600  -13.5960 C   0  0  0  0  0  0  0  0  0  0  0  0
   -0.2330    6.6730  -14.1230 O   0  0  0  0  0  0  0  0  0  0  0  0
   -0.4550    5.6340  -13.3650 C   0  0  0  0  0  0  0  0  0  0  0  0
    0.3440    5.7320  -12.2660 C   0  0  0  0  0  0  0  0  0  0  0  0
    1.0750    6.9170  -12.4090 C   0  0  0  0  0  0  0  0  0  0  0  0
   -0.9090   12.8280  -15.3030 C   0  0  0  0  0  0  0  0  0  0  0  0
   -0.3890   14.2400  -15.1560 C   0  0  0  0  0  0  0  0  0  0  0  0
   -1.4420   15.0980  -14.5740 C   0  0  0  0  0  0  0  0  0  0  0  0
   -1.0220   16.4380  -14.2310 N   0  0  0  0  0  4  0  0  0  0  0  0
   -2.1370   17.3230  -13.9910 C   0  0  0  0  0  0  0  0  0  0  0  0
   -2.5190   17.4760  -12.5620 C   0  0  0  0  0  0  0  0  0  0  0  0
   -1.4690   17.5850  -11.6740 O   0  0  0  0  0  0  0  0  0  0  0  0
   -0.5010   16.6030  -11.8320 C   0  0  0  0  0  0  0  0  0  0  0  0
    0.0050   16.5280  -13.2490 C   0  0  0  0  0  0  0  0  0  0  0  0
    0.5210   13.3030  -12.7970 H   0  0  0  0  0  0  0  0  0  0  0  0
    3.4850   10.4620  -13.7770 H   0  0  0  0  0  0  0  0  0  0  0  0
    5.0140   11.5100  -12.1160 H   0  0  0  0  0  0  0  0  0  0  0  0
    4.2650   13.4810  -10.7880 H   0  0  0  0  0  0  0  0  0  0  0  0
    1.4040   11.0590  -15.3620 H   0  0  0  0  0  0  0  0  0  0  0  0
   -1.1680    4.8420  -13.6060 H   0  0  0  0  0  0  0  0  0  0  0  0
    0.4040    5.0400  -11.4500 H   0  0  0  0  0  0  0  0  0  0  0  0
    1.7890    7.2690  -11.6840 H   0  0  0  0  0  0  0  0  0  0  0  0
   -0.6640   12.5060  -16.3590 H   0  0  0  0  0  0  0  0  0  0  0  0
   -2.0250   12.7990  -15.2790 H   0  0  0  0  0  0  0  0  0  0  0  0
   -0.1370   14.6300  -16.1690 H   0  0  0  0  0  0  0  0  0  0  0  0
    0.5190   14.1340  -14.5200 H   0  0  0  0  0  0  0  0  0  0  0  0
   -1.8620   14.6810  -13.6220 H   0  0  0  0  0  0  0  0  0  0  0  0
   -2.2920   15.1530  -15.2810 H   0  0  0  0  0  0  0  0  0  0  0  0
   -0.5870   16.8070  -15.1360 H   0  0  0  0  0  0  0  0  0  0  0  0
   -1.9500   18.3350  -14.4180 H   0  0  0  0  0  0  0  0  0  0  0  0
   -3.0120   16.9200  -14.5460 H   0  0  0  0  0  0  0  0  0  0  0  0
   -3.0980   18.4440  -12.4750 H   0  0  0  0  0  0  0  0  0  0  0  0
   -3.2720   16.7040  -12.2210 H   0  0  0  0  0  0  0  0  0  0  0  0
    0.3720   16.9190  -11.2030 H   0  0  0  0  0  0  0  0  0  0  0  0
   -0.7950   15.6120  -11.4800 H   0  0  0  0  0  0  0  0  0  0  0  0
    0.5830   17.4900  -13.4040 H   0  0  0  0  0  0  0  0  0  0  0  0
    0.7440   15.7380  -13.3470 H   0  0  0  0  0  0  0  0  0  0  0  0
  2  7  1  0  0  0  0
  2  1  1  0  0  0  0
  3  2  2  0  0  0  0
  4  5  2  0  0  0  0
  4  3  1  0  0  0  0
  5  6  1  0  0  0  0
  6 33  1  0  0  0  0
  6  7  2  0  0  0  0
  7 34  1  0  0  0  0
  8 35  1  6  0  0  0
  8  9  1  0  0  0  0
  8 14  1  0  0  0  0
  8  4  1  0  0  0  0
  9 10  1  0  0  0  0
 10 12  1  0  0  0  0
 10 11  2  0  0  0  0
 12 13  2  0  0  0  0
 14 12  1  0  0  0  0
 15 14  2  0  0  0  0
 15 17  1  0  0  0  0
 16 15  1  0  0  0  0
 17 21  2  0  0  0  0
 18 17  1  0  0  0  0
 18 19  1  0  0  0  0
 19 20  2  0  0  0  0
 20 37  1  0  0  0  0
 21 20  1  0  0  0  0
 21 38  1  0  0  0  0
 22 40  1  0  0  0  0
 22 23  1  0  0  0  0
 22  9  1  0  0  0  0
 23 24  1  0  0  0  0
 23 42  1  0  0  0  0
 24 25  1  0  0  0  0
 24 43  1  0  0  0  0
 25 26  1  0  0  0  0
 25 30  1  0  0  0  0
 26 27  1  0  0  0  0
 27 48  1  0  0  0  0
 27 49  1  0  0  0  0
 27 28  1  0  0  0  0
 29 28  1  0  0  0  0
 29 51  1  0  0  0  0
 29 50  1  0  0  0  0
 30 29  1  0  0  0  0
 31  3  1  0  0  0  0
 32  5  1  0  0  0  0
 36 19  1  0  0  0  0
 39 22  1  0  0  0  0
 41 23  1  0  0  0  0
 44 24  1  0  0  0  0
 45 25  1  0  0  0  0
 46 26  1  0  0  0  0
 47 26  1  0  0  0  0
 52 30  1  0  0  0  0
 53 30  1  0  0  0  0
M  END
>  <Pose>
1

>  <Score>
-3.39

$$$$
