
 OpenBabel03232203513D

 58 61  0  0  1  0  0  0  0  0999 V2000
    2.2410    9.6380  -13.6750 B   0  0  0  0  0  0  0  0  0  0  0  0
    1.0190   11.1000  -13.3990 C   0  0  0  0  0  0  0  0  0  0  0  0
    1.4910   12.3640  -13.1930 C   0  0  0  0  0  0  0  0  0  0  0  0
    0.6610   13.4680  -12.9850 C   0  0  0  0  0  0  0  0  0  0  0  0
   -0.6890   13.1970  -13.0000 C   0  0  0  0  0  0  0  0  0  0  0  0
   -1.1820   11.9120  -13.2090 C   0  0  0  0  0  0  0  0  0  0  0  0
   -0.3240   10.8680  -13.4070 C   0  0  0  0  0  0  0  0  0  0  0  0
    1.2210   14.8270  -12.7690 C   0  0  2  0  0  0  0  0  0  0  0  0
    2.0910   14.9150  -11.6140 N   0  0  0  0  0  0  0  0  0  0  0  0
    1.2180   15.1280  -10.4830 C   0  0  0  0  0  0  0  0  0  0  0  0
    1.4970   14.8680   -9.2880 O   0  0  0  0  0  0  0  0  0  0  0  0
   -0.0260   15.6960  -11.0140 C   0  0  0  0  0  0  0  0  0  0  0  0
   -1.0610   16.0360  -10.3860 O   0  0  0  0  0  0  0  0  0  0  0  0
    0.1200   15.8140  -12.4600 C   0  0  0  0  0  0  0  0  0  0  0  0
   -0.5650   16.5910  -13.2820 C   0  0  0  0  0  0  0  0  0  0  0  0
   -0.2960   16.5500  -14.6270 O   0  0  0  0  0  0  0  0  0  0  0  0
   -1.6110   17.5030  -12.7830 C   0  0  0  0  0  0  0  0  0  0  0  0
   -1.5160   18.2570  -11.7220 O   0  0  0  0  0  0  0  0  0  0  0  0
   -2.5700   18.9680  -11.4950 C   0  0  0  0  0  0  0  0  0  0  0  0
   -3.4680   18.6730  -12.4920 C   0  0  0  0  0  0  0  0  0  0  0  0
   -2.8580   17.7440  -13.3080 C   0  0  0  0  0  0  0  0  0  0  0  0
   -4.6910   19.3080  -12.4760 C   0  0  0  0  0  0  0  0  0  0  0  0
   -5.0240   20.2190  -11.4940 C   0  0  0  0  0  0  0  0  0  0  0  0
   -4.0790   20.4890  -10.4990 C   0  0  0  0  0  0  0  0  0  0  0  0
   -2.8520   19.8760  -10.4820 C   0  0  0  0  0  0  0  0  0  0  0  0
   -1.9530   20.1700   -9.4900 O   0  0  0  0  0  0  0  0  0  0  0  0
   -2.0540   19.8320   -8.1430 C   0  0  0  0  0  0  0  0  0  0  0  0
    3.5270   14.7960  -11.5580 C   0  0  0  0  0  0  0  0  0  0  0  0
    4.1940   15.6090  -12.6410 C   0  0  0  0  0  0  0  0  0  0  0  0
    4.9020   16.8270  -12.1710 C   0  0  0  0  0  0  0  0  0  0  0  0
    4.4170   18.0580  -12.7130 N   0  0  0  0  0  4  0  0  0  0  0  0
    3.7830   17.8350  -14.0160 C   0  0  0  0  0  0  0  0  0  0  0  0
    5.4380   19.0510  -12.8430 C   0  0  0  0  0  0  0  0  0  0  0  0
    2.5520   12.5740  -13.1820 H   0  0  0  0  0  0  0  0  0  0  0  0
   -1.4140   13.9530  -12.8550 H   0  0  0  0  0  0  0  0  0  0  0  0
   -2.2430   11.6970  -13.2200 H   0  0  0  0  0  0  0  0  0  0  0  0
   -0.6530    9.8430  -13.5740 H   0  0  0  0  0  0  0  0  0  0  0  0
    1.7580   15.0860  -13.7040 H   0  0  0  0  0  0  0  0  0  0  0  0
   -3.2760   17.2910  -14.1890 H   0  0  0  0  0  0  0  0  0  0  0  0
   -5.3900   19.0700  -13.2630 H   0  0  0  0  0  0  0  0  0  0  0  0
   -5.9880   20.7060  -11.4990 H   0  0  0  0  0  0  0  0  0  0  0  0
   -4.3980   21.2210   -9.7440 H   0  0  0  0  0  0  0  0  0  0  0  0
   -3.0850   19.8400   -7.7400 H   0  0  0  0  0  0  0  0  0  0  0  0
   -1.4020   20.4570   -7.4870 H   0  0  0  0  0  0  0  0  0  0  0  0
   -1.6990   18.7830   -8.0270 H   0  0  0  0  0  0  0  0  0  0  0  0
    3.8890   15.1460  -10.5710 H   0  0  0  0  0  0  0  0  0  0  0  0
    3.7790   13.7290  -11.7410 H   0  0  0  0  0  0  0  0  0  0  0  0
    4.9330   14.9520  -13.1950 H   0  0  0  0  0  0  0  0  0  0  0  0
    3.4330   15.8480  -13.4400 H   0  0  0  0  0  0  0  0  0  0  0  0
    5.9850   16.6840  -12.4130 H   0  0  0  0  0  0  0  0  0  0  0  0
    4.8250   16.8740  -11.0550 H   0  0  0  0  0  0  0  0  0  0  0  0
    3.6440   18.4810  -12.1240 H   0  0  0  0  0  0  0  0  0  0  0  0
    3.1350   18.7020  -14.2350 H   0  0  0  0  0  0  0  0  0  0  0  0
    4.5220   17.6290  -14.8080 H   0  0  0  0  0  0  0  0  0  0  0  0
    3.1430   16.9100  -13.9610 H   0  0  0  0  0  0  0  0  0  0  0  0
    5.8510   19.2830  -11.8420 H   0  0  0  0  0  0  0  0  0  0  0  0
    6.2640   18.7020  -13.4950 H   0  0  0  0  0  0  0  0  0  0  0  0
    4.9870   19.9620  -13.3170 H   0  0  0  0  0  0  0  0  0  0  0  0
  1  2  1  0  0  0  0
  2  3  1  0  0  0  0
  3 34  1  0  0  0  0
  3  4  2  0  0  0  0
  4  8  1  0  0  0  0
  5  4  1  0  0  0  0
  5 35  1  0  0  0  0
  6  5  2  0  0  0  0
  7  2  2  0  0  0  0
  7  6  1  0  0  0  0
  8 38  1  6  0  0  0
  8 14  1  0  0  0  0
  8  9  1  0  0  0  0
  9 28  1  0  0  0  0
  9 10  1  0  0  0  0
 10 11  2  0  0  0  0
 12 10  1  0  0  0  0
 12 13  2  0  0  0  0
 14 12  1  0  0  0  0
 15 17  1  0  0  0  0
 15 14  2  0  0  0  0
 16 15  1  0  0  0  0
 17 18  1  0  0  0  0
 18 19  1  0  0  0  0
 19 25  1  0  0  0  0
 20 22  1  0  0  0  0
 20 19  2  0  0  0  0
 21 17  2  0  0  0  0
 21 20  1  0  0  0  0
 22 23  2  0  0  0  0
 23 24  1  0  0  0  0
 24 25  2  0  0  0  0
 24 42  1  0  0  0  0
 25 26  1  0  0  0  0
 26 27  1  0  0  0  0
 27 45  1  0  0  0  0
 27 43  1  0  0  0  0
 27 44  1  0  0  0  0
 28 46  1  0  0  0  0
 29 30  1  0  0  0  0
 29 28  1  0  0  0  0
 30 51  1  0  0  0  0
 31 30  1  0  0  0  0
 31 52  1  0  0  0  0
 32 55  1  0  0  0  0
 32 31  1  0  0  0  0
 33 31  1  0  0  0  0
 33 56  1  0  0  0  0
 36  6  1  0  0  0  0
 37  7  1  0  0  0  0
 39 21  1  0  0  0  0
 40 22  1  0  0  0  0
 41 23  1  0  0  0  0
 47 28  1  0  0  0  0
 48 29  1  0  0  0  0
 49 29  1  0  0  0  0
 50 30  1  0  0  0  0
 53 32  1  0  0  0  0
 54 32  1  0  0  0  0
 57 33  1  0  0  0  0
 58 33  1  0  0  0  0
M  END
>  <Pose>
1

>  <Score>
-3.45

$$$$
