
 OpenBabel03232203513D

 38 41  0  0  1  0  0  0  0  0999 V2000
    3.5220    9.1810  -14.4880 B   0  0  0  0  0  0  0  0  0  0  0  0
    1.7570    9.7470  -14.0440 C   0  0  0  0  0  0  0  0  0  0  0  0
    1.3740   11.0620  -14.1630 C   0  0  0  0  0  0  0  0  0  0  0  0
    0.0830   11.5120  -13.8440 C   0  0  0  0  0  0  0  0  0  0  0  0
   -0.7930   10.5620  -13.4000 C   0  0  0  0  0  0  0  0  0  0  0  0
   -0.3940    9.2280  -13.2830 C   0  0  0  0  0  0  0  0  0  0  0  0
    0.8630    8.8200  -13.5990 C   0  0  0  0  0  0  0  0  0  0  0  0
   -0.2240   12.8780  -13.9960 N   0  0  0  0  0  0  0  0  0  0  0  0
   -0.2600   13.8220  -12.9590 C   0  0  0  0  0  0  0  0  0  0  0  0
   -0.7930   13.6620  -11.8510 O   0  0  0  0  0  0  0  0  0  0  0  0
    0.3930   15.1620  -13.1650 C   0  0  2  0  0  0  0  0  0  0  0  0
    0.0090   16.1930  -12.1360 C   0  0  0  0  0  0  0  0  0  0  0  0
   -1.0260   16.7380  -13.0260 N   0  0  2  0  0  0  0  0  0  0  0  0
   -0.3340   16.0700  -14.1130 C   0  0  0  0  0  0  0  0  0  0  0  0
   -2.1700   17.5560  -12.8180 C   0  0  1  0  0  0  0  0  0  0  0  0
   -3.2340   17.5380  -13.6620 N   0  0  0  0  0  0  0  0  0  0  0  0
   -4.3220   18.3330  -13.4400 C   0  0  0  0  0  0  0  0  0  0  0  0
   -4.3750   19.1540  -12.3860 N   0  0  0  0  0  0  0  0  0  0  0  0
   -3.3660   19.2230  -11.5170 C   0  0  0  0  0  0  0  0  0  0  0  0
   -3.1800   19.9540  -10.4000 N   0  0  0  0  0  0  0  0  0  0  0  0
   -1.9960   19.6220   -9.9310 N   0  0  0  0  0  0  0  0  0  0  0  0
   -1.4230   18.7020  -10.7160 N   0  0  0  0  0  0  0  0  0  0  0  0
   -2.2680   18.4180  -11.7440 C   0  0  0  0  0  0  0  0  0  0  0  0
   -4.0870   20.9280   -9.7990 C   0  0  0  0  0  0  0  0  0  0  0  0
    2.1030   11.7800  -14.5190 H   0  0  0  0  0  0  0  0  0  0  0  0
   -1.8190   10.8240  -13.1300 H   0  0  0  0  0  0  0  0  0  0  0  0
   -1.1400    8.5080  -12.9210 H   0  0  0  0  0  0  0  0  0  0  0  0
    1.1500    7.7740  -13.4990 H   0  0  0  0  0  0  0  0  0  0  0  0
   -0.4480   13.2070  -15.0060 H   0  0  0  0  0  0  0  0  0  0  0  0
    1.4900   15.1020  -13.2760 H   0  0  0  0  0  0  0  0  0  0  0  0
   -0.4990   15.8040  -11.2290 H   0  0  0  0  0  0  0  0  0  0  0  0
    0.7540   16.9680  -11.9320 H   0  0  0  0  0  0  0  0  0  0  0  0
   -0.9960   15.5120  -14.8090 H   0  0  0  0  0  0  0  0  0  0  0  0
    0.3010   16.7900  -14.6480 H   0  0  0  0  0  0  0  0  0  0  0  0
   -5.1290   18.2660  -14.1520 H   0  0  0  0  0  0  0  0  0  0  0  0
   -3.9550   20.9850   -8.7070 H   0  0  0  0  0  0  0  0  0  0  0  0
   -5.1610   20.6130   -9.9540 H   0  0  0  0  0  0  0  0  0  0  0  0
   -3.9960   21.9180  -10.2500 H   0  0  0  0  0  0  0  0  0  0  0  0
  1  2  1  0  0  0  0
  2  7  1  0  0  0  0
  3  2  2  0  0  0  0
  3  4  1  0  0  0  0
  4  5  2  0  0  0  0
  5  6  1  0  0  0  0
  5 26  1  0  0  0  0
  6 27  1  0  0  0  0
  7 28  1  0  0  0  0
  7  6  2  0  0  0  0
  8  4  1  0  0  0  0
  8  9  1  0  0  0  0
  9 10  2  0  0  0  0
 11 30  1  6  0  0  0
 11  9  1  0  0  0  0
 11 12  1  0  0  0  0
 12 32  1  0  0  0  0
 12 31  1  0  0  0  0
 13 14  1  6  0  0  0
 13 15  1  0  0  0  0
 13 12  1  0  0  0  0
 14 11  1  0  0  0  0
 15 16  1  1  0  0  0
 15 23  1  0  0  0  0
 16 17  2  0  0  0  0
 17 18  1  0  0  0  0
 18 19  1  0  0  0  0
 19 20  1  0  0  0  0
 20 21  1  0  0  0  0
 20 24  1  0  0  0  0
 22 21  2  0  0  0  0
 23 19  2  0  0  0  0
 23 22  1  0  0  0  0
 24 36  1  0  0  0  0
 25  3  1  0  0  0  0
 29  8  1  0  0  0  0
 33 14  1  0  0  0  0
 34 14  1  0  0  0  0
 35 17  1  0  0  0  0
 37 24  1  0  0  0  0
 38 24  1  0  0  0  0
M  END
>  <Pose>
1

>  <Score>
-7.88

$$$$
