
 OpenBabel03232203513D

 25 28  0  0  1  0  0  0  0  0999 V2000
    1.0790   11.3240  -13.5110 B   0  0  0  0  0  0  0  0  0  0  0  0
    1.0700   13.1110  -12.8460 C   0  0  0  0  0  0  0  0  0  0  0  0
    0.2500   14.0860  -13.3910 C   0  0  0  0  0  0  0  0  0  0  0  0
    0.1880   15.3860  -12.9680 C   0  0  0  0  0  0  0  0  0  0  0  0
    1.0520   15.6850  -11.8930 C   0  0  0  0  0  0  0  0  0  0  0  0
    1.8780   14.7440  -11.3290 C   0  0  0  0  0  0  0  0  0  0  0  0
    1.8900   13.4520  -11.8020 C   0  0  0  0  0  0  0  0  0  0  0  0
   -0.6300   16.4080  -13.4930 N   0  0  0  0  0  0  0  0  0  0  0  0
   -1.3920   17.3100  -12.7130 C   0  0  1  0  0  0  0  0  0  0  0  0
   -1.0000   17.9550  -11.6190 N   0  0  0  0  0  0  0  0  0  0  0  0
   -1.7590   18.8060  -10.9070 C   0  0  0  0  0  0  0  0  0  0  0  0
   -1.6040   19.5570   -9.8030 N   0  0  0  0  0  0  0  0  0  0  0  0
   -2.6830   20.2200   -9.5300 O   0  0  0  0  0  0  0  0  0  0  0  0
   -3.5550   19.9270  -10.4280 N   0  0  0  0  0  0  0  0  0  0  0  0
   -3.0600   19.0540  -11.3210 C   0  0  0  0  0  0  0  0  0  0  0  0
   -3.5010   18.4270  -12.4210 N   0  0  0  0  0  0  0  0  0  0  0  0
   -4.6930   18.5000  -13.0080 N   0  0  0  0  0  0  0  0  0  0  0  0
   -4.6570   17.6930  -14.0790 N   0  0  0  0  0  0  0  0  0  0  0  0
   -3.4460   17.1350  -14.1330 N   0  0  0  0  0  0  0  0  0  0  0  0
   -2.7160   17.5820  -13.1080 C   0  0  0  0  0  0  0  0  0  0  0  0
   -0.3670   13.7610  -14.1990 H   0  0  0  0  0  0  0  0  0  0  0  0
    1.0670   16.6840  -11.4990 H   0  0  0  0  0  0  0  0  0  0  0  0
    2.5380   14.9920  -10.5010 H   0  0  0  0  0  0  0  0  0  0  0  0
    2.5360   12.7100  -11.3640 H   0  0  0  0  0  0  0  0  0  0  0  0
   -0.6560   16.4790  -14.5500 H   0  0  0  0  0  0  0  0  0  0  0  0
  1  2  1  0  0  0  0
  2  7  1  0  0  0  0
  3  4  1  0  0  0  0
  3  2  2  0  0  0  0
  4  5  2  0  0  0  0
  5 22  1  0  0  0  0
  5  6  1  0  0  0  0
  6 23  1  0  0  0  0
  7 24  1  0  0  0  0
  7  6  2  0  0  0  0
  8  4  1  0  0  0  0
  9  8  1  6  0  0  0
  9 10  1  0  0  0  0
 10 11  2  0  0  0  0
 11 12  1  0  0  0  0
 12 13  1  0  0  0  0
 14 13  1  0  0  0  0
 15 11  1  0  0  0  0
 15 14  2  0  0  0  0
 16 15  1  0  0  0  0
 17 16  1  0  0  0  0
 18 17  2  0  0  0  0
 19 18  1  0  0  0  0
 19 20  2  0  0  0  0
 20  9  1  0  0  0  0
 20 16  1  0  0  0  0
 21  3  1  0  0  0  0
 25  8  1  0  0  0  0
M  END
>  <Pose>
1

>  <Score>
-6.67

$$$$
