
 OpenBabel03232203513D

 33 36  0  0  1  0  0  0  0  0999 V2000
   -5.4460    8.9960  -14.7210 B   0  0  0  0  0  0  0  0  0  0  0  0
   -3.8180    8.0210  -14.5090 C   0  0  0  0  0  0  0  0  0  0  0  0
   -2.7260    8.6330  -13.9810 C   0  0  0  0  0  0  0  0  0  0  0  0
   -1.4980    8.0210  -13.7830 C   0  0  0  0  0  0  0  0  0  0  0  0
   -1.4110    6.7000  -14.1580 C   0  0  0  0  0  0  0  0  0  0  0  0
   -2.5150    6.0410  -14.7050 C   0  0  0  0  0  0  0  0  0  0  0  0
   -3.7160    6.6950  -14.8820 C   0  0  0  0  0  0  0  0  0  0  0  0
   -0.3710    8.7290  -13.2160 N   0  0  0  0  0  0  0  0  0  0  0  0
    0.6220    8.1900  -12.3560 C   0  0  0  0  0  0  0  0  0  0  0  0
    0.4490    7.1780  -11.5810 O   0  0  0  0  0  0  0  0  0  0  0  0
    1.8570    8.9730  -12.5030 C   0  0  1  0  0  0  0  0  0  0  0  0
    2.7160    8.3100  -13.5350 C   0  0  1  0  0  0  0  0  0  0  0  0
    1.9560    8.5980  -14.6970 O   0  0  0  0  0  0  0  0  0  0  0  0
    2.0410   10.0110  -14.5920 C   0  0  1  0  0  0  0  0  0  0  0  0
    1.4170   10.2160  -13.2240 C   0  0  1  0  0  0  0  0  0  0  0  0
   -0.0440   10.0940  -13.4070 C   0  0  0  0  0  0  0  0  0  0  0  0
   -0.8320   11.0360  -13.6820 O   0  0  0  0  0  0  0  0  0  0  0  0
    3.5120   10.1720  -14.5270 C   0  0  0  0  0  0  0  0  0  0  0  0
    3.9450    9.0790  -13.8720 C   0  0  0  0  0  0  0  0  0  0  0  0
    2.9510    6.8610  -13.3320 C   0  0  0  0  0  0  0  0  0  0  0  0
    4.2940    6.5840  -13.5930 O   0  0  0  0  0  0  0  0  0  0  0  0
   -2.8080    9.6850  -13.6870 H   0  0  0  0  0  0  0  0  0  0  0  0
   -0.4940    6.1540  -14.0380 H   0  0  0  0  0  0  0  0  0  0  0  0
   -2.4790    5.0050  -15.0080 H   0  0  0  0  0  0  0  0  0  0  0  0
   -4.5940    6.2380  -15.2960 H   0  0  0  0  0  0  0  0  0  0  0  0
    2.3820    9.1760  -11.5520 H   0  0  0  0  0  0  0  0  0  0  0  0
    1.5490   10.5270  -15.3960 H   0  0  0  0  0  0  0  0  0  0  0  0
    1.7260   11.1520  -12.7380 H   0  0  0  0  0  0  0  0  0  0  0  0
    4.1340   10.9720  -14.9070 H   0  0  0  0  0  0  0  0  0  0  0  0
    4.9840    8.8430  -13.6540 H   0  0  0  0  0  0  0  0  0  0  0  0
    2.7710    6.5340  -12.2880 H   0  0  0  0  0  0  0  0  0  0  0  0
    2.3350    6.2420  -13.9890 H   0  0  0  0  0  0  0  0  0  0  0  0
    4.4650    6.6050  -14.5680 H   0  0  0  0  0  0  0  0  0  0  0  0
  1  2  1  0  0  0  0
  2  3  1  0  0  0  0
  3  4  2  0  0  0  0
  3 22  1  0  0  0  0
  4  8  1  0  0  0  0
  5 23  1  0  0  0  0
  5  4  1  0  0  0  0
  6  5  2  0  0  0  0
  7  6  1  0  0  0  0
  7  2  2  0  0  0  0
  8  9  1  0  0  0  0
  9 10  2  0  0  0  0
 11  9  1  0  0  0  0
 11 26  1  1  0  0  0
 12 20  1  1  0  0  0
 12 11  1  0  0  0  0
 13 14  1  0  0  0  0
 13 12  1  0  0  0  0
 14 27  1  6  0  0  0
 14 18  1  0  0  0  0
 14 15  1  0  0  0  0
 15 28  1  1  0  0  0
 15 11  1  0  0  0  0
 16 15  1  0  0  0  0
 16  8  1  0  0  0  0
 17 16  2  0  0  0  0
 18 19  2  0  0  0  0
 19 30  1  0  0  0  0
 19 12  1  0  0  0  0
 20 31  1  0  0  0  0
 21 20  1  0  0  0  0
 24  6  1  0  0  0  0
 25  7  1  0  0  0  0
 29 18  1  0  0  0  0
 32 20  1  0  0  0  0
 33 21  1  0  0  0  0
M  END
>  <Pose>
1

>  <Score>
-5.05

$$$$
