
 OpenBabel03232203513D

 52 55  0  0  1  0  0  0  0  0999 V2000
    8.2090    1.9380  -12.5340 B   0  0  0  0  0  0  0  0  0  0  0  0
    6.4530    2.5770  -12.8060 C   0  0  0  0  0  0  0  0  0  0  0  0
    6.2660    3.8870  -13.2340 C   0  0  0  0  0  0  0  0  0  0  0  0
    5.0120    4.4260  -13.4550 C   0  0  0  0  0  0  0  0  0  0  0  0
    3.9470    3.5820  -13.2260 C   0  0  0  0  0  0  0  0  0  0  0  0
    4.0610    2.2730  -12.8030 C   0  0  0  0  0  0  0  0  0  0  0  0
    5.3300    1.7790  -12.5950 C   0  0  0  0  0  0  0  0  0  0  0  0
    4.8880    5.7630  -13.8960 N   0  0  0  0  0  0  0  0  0  0  0  0
    3.7360    6.2990  -14.6050 C   0  0  0  0  0  0  0  0  0  0  0  0
    3.5780    7.5790  -13.7570 C   0  0  1  0  0  0  0  0  0  0  0  0
    4.9820    8.1430  -14.0050 C   0  0  0  0  0  0  0  0  0  0  0  0
    5.7540    6.8880  -13.7890 C   0  0  0  0  0  0  0  0  0  0  0  0
    6.9820    6.8290  -13.5500 O   0  0  0  0  0  0  0  0  0  0  0  0
    2.5070    8.4290  -14.2370 C   0  0  0  0  0  0  0  0  0  0  0  0
    2.5960    8.9010  -15.3980 O   0  0  0  0  0  0  0  0  0  0  0  0
    1.4010    8.7060  -13.4040 N   0  0  0  0  0  0  0  0  0  0  0  0
    1.0570    7.9030  -12.2390 C   0  0  0  0  0  0  0  0  0  0  0  0
   -0.4450    8.0000  -12.0020 C   0  0  0  0  0  0  0  0  0  0  0  0
   -1.1880    8.2660  -13.2180 N   0  0  0  0  0  0  0  0  0  0  0  0
   -0.8950    9.5820  -13.6670 C   0  0  0  0  0  0  0  0  0  0  0  0
    0.5670    9.8640  -13.7480 C   0  0  0  0  0  0  0  0  0  0  0  0
   -1.0770    7.2150  -14.1650 C   0  0  0  0  0  0  0  0  0  0  0  0
   -2.3370    6.4050  -14.3360 C   0  0  0  0  0  0  0  0  0  0  0  0
   -3.3550    7.0610  -15.1050 N   0  0  0  0  0  0  0  0  0  0  0  0
   -3.7270    6.8240  -16.3640 C   0  0  0  0  0  0  0  0  0  0  0  0
   -4.7190    7.6730  -16.7080 N   0  0  0  0  0  0  0  0  0  0  0  0
   -4.9800    8.4580  -15.6560 C   0  0  0  0  0  0  0  0  0  0  0  0
   -4.1190    8.0670  -14.6580 C   0  0  0  0  0  0  0  0  0  0  0  0
    7.1200    4.5200  -13.4030 H   0  0  0  0  0  0  0  0  0  0  0  0
    2.9530    3.9660  -13.3870 H   0  0  0  0  0  0  0  0  0  0  0  0
    3.2150    1.6230  -12.6290 H   0  0  0  0  0  0  0  0  0  0  0  0
    5.4770    0.7540  -12.2630 H   0  0  0  0  0  0  0  0  0  0  0  0
    2.8400    5.6600  -14.5060 H   0  0  0  0  0  0  0  0  0  0  0  0
    4.0150    6.5430  -15.6360 H   0  0  0  0  0  0  0  0  0  0  0  0
    3.5100    7.2250  -12.7260 H   0  0  0  0  0  0  0  0  0  0  0  0
    5.0560    8.5240  -15.0390 H   0  0  0  0  0  0  0  0  0  0  0  0
    5.2320    8.9170  -13.2600 H   0  0  0  0  0  0  0  0  0  0  0  0
    1.6240    8.3220  -11.3840 H   0  0  0  0  0  0  0  0  0  0  0  0
    1.3030    6.8470  -12.3240 H   0  0  0  0  0  0  0  0  0  0  0  0
   -0.6190    8.8170  -11.3020 H   0  0  0  0  0  0  0  0  0  0  0  0
   -0.8490    7.0750  -11.5370 H   0  0  0  0  0  0  0  0  0  0  0  0
   -1.3860    9.7720  -14.6530 H   0  0  0  0  0  0  0  0  0  0  0  0
   -1.3760   10.2850  -12.9300 H   0  0  0  0  0  0  0  0  0  0  0  0
    0.8150   10.2290  -14.7690 H   0  0  0  0  0  0  0  0  0  0  0  0
    0.8150   10.6900  -13.0180 H   0  0  0  0  0  0  0  0  0  0  0  0
   -0.8140    7.5830  -15.1880 H   0  0  0  0  0  0  0  0  0  0  0  0
   -0.2450    6.5060  -13.8760 H   0  0  0  0  0  0  0  0  0  0  0  0
   -2.0810    5.3940  -14.7510 H   0  0  0  0  0  0  0  0  0  0  0  0
   -2.7070    6.1820  -13.2920 H   0  0  0  0  0  0  0  0  0  0  0  0
   -3.3330    6.0850  -17.0340 H   0  0  0  0  0  0  0  0  0  0  0  0
   -5.7370    9.2510  -15.6290 H   0  0  0  0  0  0  0  0  0  0  0  0
   -4.1120    8.5440  -13.6750 H   0  0  0  0  0  0  0  0  0  0  0  0
  2  7  1  0  0  0  0
  2  1  1  0  0  0  0
  3  2  2  0  0  0  0
  4  3  1  0  0  0  0
  4  5  2  0  0  0  0
  5  6  1  0  0  0  0
  6 31  1  0  0  0  0
  6  7  2  0  0  0  0
  7 32  1  0  0  0  0
  8 12  1  0  0  0  0
  8  4  1  0  0  0  0
  9 33  1  0  0  0  0
  9  8  1  0  0  0  0
  9 10  1  0  0  0  0
 10 35  1  1  0  0  0
 11 12  1  0  0  0  0
 11 10  1  0  0  0  0
 11 37  1  0  0  0  0
 12 13  2  0  0  0  0
 14 10  1  0  0  0  0
 14 16  1  0  0  0  0
 15 14  2  0  0  0  0
 16 17  1  0  0  0  0
 17 18  1  0  0  0  0
 17 38  1  0  0  0  0
 18 41  1  0  0  0  0
 18 40  1  0  0  0  0
 19 18  1  0  0  0  0
 20 19  1  0  0  0  0
 20 43  1  0  0  0  0
 21 20  1  0  0  0  0
 21 16  1  0  0  0  0
 21 45  1  0  0  0  0
 22 47  1  0  0  0  0
 22 19  1  0  0  0  0
 23 22  1  0  0  0  0
 23 49  1  0  0  0  0
 24 28  1  0  0  0  0
 24 23  1  0  0  0  0
 25 24  1  0  0  0  0
 26 25  2  0  0  0  0
 26 27  1  0  0  0  0
 27 51  1  0  0  0  0
 27 28  2  0  0  0  0
 28 52  1  0  0  0  0
 29  3  1  0  0  0  0
 30  5  1  0  0  0  0
 34  9  1  0  0  0  0
 36 11  1  0  0  0  0
 39 17  1  0  0  0  0
 42 20  1  0  0  0  0
 44 21  1  0  0  0  0
 46 22  1  0  0  0  0
 48 23  1  0  0  0  0
 50 25  1  0  0  0  0
M  END
>  <Pose>
1

>  <Score>
-6.17

$$$$
