
 OpenBabel03232203513D

 58 61  0  0  1  0  0  0  0  0999 V2000
   -7.6430   10.9900  -14.0280 B   0  0  0  0  0  0  0  0  0  0  0  0
   -5.8010   10.5780  -13.8340 C   0  0  0  0  0  0  0  0  0  0  0  0
   -4.9930   11.4540  -13.1490 C   0  0  0  0  0  0  0  0  0  0  0  0
   -3.6610   11.1680  -13.0010 C   0  0  0  0  0  0  0  0  0  0  0  0
   -3.0930   10.0030  -13.5280 C   0  0  0  0  0  0  0  0  0  0  0  0
   -3.9570    9.1660  -14.2040 C   0  0  0  0  0  0  0  0  0  0  0  0
   -5.3060    9.4200  -14.3740 C   0  0  0  0  0  0  0  0  0  0  0  0
   -1.6800    9.7200  -13.3520 C   0  0  0  0  0  0  0  0  0  0  0  0
   -0.8490   10.5910  -13.6810 O   0  0  0  0  0  0  0  0  0  0  0  0
   -1.2570    8.4450  -12.8030 C   0  0  2  0  0  0  0  0  0  0  0  0
    0.1750    8.3930  -12.3290 C   0  0  1  0  0  0  0  0  0  0  0  0
    0.3920    6.9730  -12.1720 N   0  0  0  0  0  0  0  0  0  0  0  0
   -0.3710    6.3370  -13.1920 C   0  0  0  0  0  0  0  0  0  0  0  0
   -0.3370    5.1010  -13.4840 O   0  0  0  0  0  0  0  0  0  0  0  0
   -1.2030    7.3610  -13.8520 C   0  0  0  0  0  0  0  0  0  0  0  0
   -1.7120    7.3070  -14.9830 O   0  0  0  0  0  0  0  0  0  0  0  0
    1.1950    6.2600  -11.2100 C   0  0  0  0  0  0  0  0  0  0  0  0
    2.3080    5.4690  -11.8280 C   0  0  0  0  0  0  0  0  0  0  0  0
    2.6860    5.8630  -13.1300 N   0  0  0  0  0  4  0  0  0  0  0  0
    2.7860    4.6580  -13.9590 C   0  0  0  0  0  0  0  0  0  0  0  0
    3.9600    3.8090  -13.5970 C   0  0  0  0  0  0  0  0  0  0  0  0
    4.8920    4.4250  -12.7990 O   0  0  0  0  0  0  0  0  0  0  0  0
    5.1410    5.7080  -13.2210 C   0  0  0  0  0  0  0  0  0  0  0  0
    3.9100    6.5720  -13.2540 C   0  0  0  0  0  0  0  0  0  0  0  0
    1.1260    9.0520  -13.2100 C   0  0  0  0  0  0  0  0  0  0  0  0
    1.8530   10.1820  -12.8080 C   0  0  0  0  0  0  0  0  0  0  0  0
    2.7570   10.7990  -13.6470 C   0  0  0  0  0  0  0  0  0  0  0  0
    2.9830   10.3230  -14.9260 C   0  0  0  0  0  0  0  0  0  0  0  0
    2.2800    9.2120  -15.3410 C   0  0  0  0  0  0  0  0  0  0  0  0
    1.3750    8.6040  -14.4860 C   0  0  0  0  0  0  0  0  0  0  0  0
    3.8870   10.9260  -15.7910 O   0  0  0  0  0  0  0  0  0  0  0  0
    3.4770   11.9150  -13.2570 O   0  0  0  0  0  0  0  0  0  0  0  0
    3.1100   12.7410  -12.1820 C   0  0  0  0  0  0  0  0  0  0  0  0
   -5.4330   12.3470  -12.7460 H   0  0  0  0  0  0  0  0  0  0  0  0
   -2.9830   11.8220  -12.4720 H   0  0  0  0  0  0  0  0  0  0  0  0
   -3.5990    8.2430  -14.6380 H   0  0  0  0  0  0  0  0  0  0  0  0
   -5.9610    8.7600  -14.9000 H   0  0  0  0  0  0  0  0  0  0  0  0
   -1.9220    8.0500  -12.0050 H   0  0  0  0  0  0  0  0  0  0  0  0
    0.1890    8.9280  -11.3540 H   0  0  0  0  0  0  0  0  0  0  0  0
    0.5080    5.5190  -10.7180 H   0  0  0  0  0  0  0  0  0  0  0  0
    1.6050    6.8850  -10.4170 H   0  0  0  0  0  0  0  0  0  0  0  0
    2.0520    4.3700  -11.8610 H   0  0  0  0  0  0  0  0  0  0  0  0
    3.1790    5.5350  -11.1450 H   0  0  0  0  0  0  0  0  0  0  0  0
    1.9270    6.4390  -13.5900 H   0  0  0  0  0  0  0  0  0  0  0  0
    1.8300    4.1030  -13.9890 H   0  0  0  0  0  0  0  0  0  0  0  0
    2.9600    5.0330  -15.0040 H   0  0  0  0  0  0  0  0  0  0  0  0
    3.5820    2.9180  -13.0360 H   0  0  0  0  0  0  0  0  0  0  0  0
    4.5110    3.4420  -14.5100 H   0  0  0  0  0  0  0  0  0  0  0  0
    5.9440    6.1520  -12.5630 H   0  0  0  0  0  0  0  0  0  0  0  0
    5.6360    5.6300  -14.2280 H   0  0  0  0  0  0  0  0  0  0  0  0
    4.0560    7.3930  -12.5280 H   0  0  0  0  0  0  0  0  0  0  0  0
    3.9050    7.0750  -14.2670 H   0  0  0  0  0  0  0  0  0  0  0  0
    1.6760   10.5580  -11.8010 H   0  0  0  0  0  0  0  0  0  0  0  0
    2.4650    8.8500  -16.3430 H   0  0  0  0  0  0  0  0  0  0  0  0
    0.8600    7.7520  -14.8510 H   0  0  0  0  0  0  0  0  0  0  0  0
    2.0300   13.0410  -12.2340 H   0  0  0  0  0  0  0  0  0  0  0  0
    3.6810   13.6900  -12.2650 H   0  0  0  0  0  0  0  0  0  0  0  0
    3.3160   12.3130  -11.1930 H   0  0  0  0  0  0  0  0  0  0  0  0
  1  2  1  0  0  0  0
  2  3  1  0  0  0  0
  3  4  2  0  0  0  0
  3 34  1  0  0  0  0
  4 35  1  0  0  0  0
  5  8  1  0  0  0  0
  5  4  1  0  0  0  0
  6  5  2  0  0  0  0
  7  6  1  0  0  0  0
  7  2  2  0  0  0  0
  8 10  1  0  0  0  0
  9  8  2  0  0  0  0
 10 11  1  0  0  0  0
 10 38  1  1  0  0  0
 11 12  1  0  0  0  0
 11 39  1  1  0  0  0
 12 17  1  0  0  0  0
 13 12  1  0  0  0  0
 14 13  2  0  0  0  0
 15 13  1  0  0  0  0
 15 10  1  0  0  0  0
 16 15  2  0  0  0  0
 17 40  1  0  0  0  0
 17 41  1  0  0  0  0
 18 17  1  0  0  0  0
 18 43  1  0  0  0  0
 19 18  1  0  0  0  0
 20 21  1  0  0  0  0
 20 19  1  0  0  0  0
 21 47  1  0  0  0  0
 21 22  1  0  0  0  0
 23 22  1  0  0  0  0
 23 49  1  0  0  0  0
 24 23  1  0  0  0  0
 24 19  1  0  0  0  0
 24 51  1  0  0  0  0
 25 26  1  0  0  0  0
 25 11  1  0  0  0  0
 26 53  1  0  0  0  0
 27 32  1  0  0  0  0
 27 26  2  0  0  0  0
 28 27  1  0  0  0  0
 29 28  2  0  0  0  0
 29 30  1  0  0  0  0
 30 25  2  0  0  0  0
 31 28  1  0  0  0  0
 32 33  1  0  0  0  0
 33 58  1  0  0  0  0
 36  6  1  0  0  0  0
 37  7  1  0  0  0  0
 42 18  1  0  0  0  0
 44 19  1  0  0  0  0
 45 20  1  0  0  0  0
 46 20  1  0  0  0  0
 48 21  1  0  0  0  0
 50 23  1  0  0  0  0
 52 24  1  0  0  0  0
 54 29  1  0  0  0  0
 55 30  1  0  0  0  0
 56 33  1  0  0  0  0
 57 33  1  0  0  0  0
M  END
>  <Pose>
1

>  <Score>
-5.09

$$$$
