
 OpenBabel03232203513D

 48 51  0  0  1  0  0  0  0  0999 V2000
   -4.7890    7.4300  -15.5550 B   0  0  0  0  0  0  0  0  0  0  0  0
   -3.1430    7.6160  -14.6240 C   0  0  0  0  0  0  0  0  0  0  0  0
   -2.8090    8.7370  -13.8920 C   0  0  0  0  0  0  0  0  0  0  0  0
   -1.6040    8.8400  -13.2270 C   0  0  0  0  0  0  0  0  0  0  0  0
   -0.6680    7.8280  -13.2590 C   0  0  0  0  0  0  0  0  0  0  0  0
   -1.0010    6.7100  -13.9880 C   0  0  0  0  0  0  0  0  0  0  0  0
   -2.1980    6.5960  -14.6540 C   0  0  0  0  0  0  0  0  0  0  0  0
    0.6150    7.9380  -12.5510 C   0  0  0  0  0  0  0  0  0  0  0  0
    1.2170    6.8360  -12.3180 O   0  0  0  0  0  0  0  0  0  0  0  0
    1.1690    9.1550  -12.1450 N   0  0  0  0  0  0  0  0  0  0  0  0
    2.1560    9.8250  -12.9520 C   0  0  2  0  0  0  0  0  0  0  0  0
    2.8280   10.9590  -12.2170 C   0  0  0  0  0  0  0  0  0  0  0  0
    2.0490   12.1260  -12.5710 N   0  0  0  0  0  0  0  0  0  0  0  0
    1.2680   11.8570  -13.7670 C   0  0  1  0  0  0  0  0  0  0  0  0
    1.4560   10.4270  -14.1380 C   0  0  0  0  0  0  0  0  0  0  0  0
   -0.1310   12.2010  -13.4280 C   0  0  0  0  0  0  0  0  0  0  0  0
   -1.0460   11.3900  -13.6970 O   0  0  0  0  0  0  0  0  0  0  0  0
   -0.3800   13.4480  -12.8050 N   0  0  0  0  0  0  0  0  0  0  0  0
    0.6370   14.2290  -12.1390 C   0  0  1  0  0  0  0  0  0  0  0  0
    1.8890   13.4280  -12.0230 C   0  0  0  0  0  0  0  0  0  0  0  0
    2.8980   13.9150  -11.3960 O   0  0  0  0  0  0  0  0  0  0  0  0
    0.8600   15.5480  -12.8370 C   0  0  0  0  0  0  0  0  0  0  0  0
   -0.3490   16.4160  -12.7610 C   0  0  0  0  0  0  0  0  0  0  0  0
   -0.6160   17.1600  -11.6110 C   0  0  0  0  0  0  0  0  0  0  0  0
   -1.7480   17.9450  -11.5970 C   0  0  0  0  0  0  0  0  0  0  0  0
   -2.6230   18.0260  -12.6660 C   0  0  0  0  0  0  0  0  0  0  0  0
   -2.3180   17.2750  -13.7760 C   0  0  0  0  0  0  0  0  0  0  0  0
   -1.2020   16.4710  -13.8490 C   0  0  0  0  0  0  0  0  0  0  0  0
   -3.5570    9.5360  -13.8720 H   0  0  0  0  0  0  0  0  0  0  0  0
   -1.4220    9.7360  -12.6850 H   0  0  0  0  0  0  0  0  0  0  0  0
   -0.3020    5.8930  -14.0420 H   0  0  0  0  0  0  0  0  0  0  0  0
   -2.4560    5.7020  -15.2340 H   0  0  0  0  0  0  0  0  0  0  0  0
    0.8780    9.5950  -11.2560 H   0  0  0  0  0  0  0  0  0  0  0  0
    2.9410    9.1090  -13.2250 H   0  0  0  0  0  0  0  0  0  0  0  0
    2.8050   10.7220  -11.1490 H   0  0  0  0  0  0  0  0  0  0  0  0
    3.8700   11.1260  -12.5150 H   0  0  0  0  0  0  0  0  0  0  0  0
    1.6480   12.4960  -14.5910 H   0  0  0  0  0  0  0  0  0  0  0  0
    0.5120    9.9290  -14.3920 H   0  0  0  0  0  0  0  0  0  0  0  0
    2.1320   10.3430  -15.0120 H   0  0  0  0  0  0  0  0  0  0  0  0
   -1.3730   13.7970  -12.8470 H   0  0  0  0  0  0  0  0  0  0  0  0
    0.2920   14.4000  -11.0980 H   0  0  0  0  0  0  0  0  0  0  0  0
    1.1460   15.4010  -13.8940 H   0  0  0  0  0  0  0  0  0  0  0  0
    1.6650   16.0690  -12.2810 H   0  0  0  0  0  0  0  0  0  0  0  0
    0.0750   17.0860  -10.7860 H   0  0  0  0  0  0  0  0  0  0  0  0
   -1.9740   18.5380  -10.7000 H   0  0  0  0  0  0  0  0  0  0  0  0
   -3.4980   18.6610  -12.5980 H   0  0  0  0  0  0  0  0  0  0  0  0
   -3.0020   17.3300  -14.6300 H   0  0  0  0  0  0  0  0  0  0  0  0
   -0.9700   15.8860  -14.7240 H   0  0  0  0  0  0  0  0  0  0  0  0
  1  2  1  0  0  0  0
  2  3  1  0  0  0  0
  3 29  1  0  0  0  0
  3  4  2  0  0  0  0
  4 30  1  0  0  0  0
  5  4  1  0  0  0  0
  5  8  1  0  0  0  0
  6  5  2  0  0  0  0
  7  2  2  0  0  0  0
  7  6  1  0  0  0  0
  8  9  2  0  0  0  0
  8 10  1  0  0  0  0
 10 33  1  0  0  0  0
 11 34  1  6  0  0  0
 11 12  1  0  0  0  0
 11 10  1  0  0  0  0
 12 35  1  0  0  0  0
 13 12  1  0  0  0  0
 13 20  1  0  0  0  0
 14 37  1  6  0  0  0
 14 16  1  0  0  0  0
 14 13  1  0  0  0  0
 15 14  1  0  0  0  0
 15 11  1  0  0  0  0
 16 18  1  0  0  0  0
 17 16  2  0  0  0  0
 18 19  1  0  0  0  0
 19 20  1  0  0  0  0
 19 41  1  1  0  0  0
 20 21  2  0  0  0  0
 22 23  1  0  0  0  0
 22 43  1  0  0  0  0
 22 19  1  0  0  0  0
 23 24  1  0  0  0  0
 24 25  2  0  0  0  0
 24 44  1  0  0  0  0
 25 45  1  0  0  0  0
 26 46  1  0  0  0  0
 26 25  1  0  0  0  0
 27 26  2  0  0  0  0
 28 27  1  0  0  0  0
 28 23  2  0  0  0  0
 31  6  1  0  0  0  0
 32  7  1  0  0  0  0
 36 12  1  0  0  0  0
 38 15  1  0  0  0  0
 39 15  1  0  0  0  0
 40 18  1  0  0  0  0
 42 22  1  0  0  0  0
 47 27  1  0  0  0  0
 48 28  1  0  0  0  0
M  END
>  <Pose>
1

>  <Score>
-6.97

$$$$
