
 OpenBabel03232203513D

 35 38  0  0  1  0  0  0  0  0999 V2000
    3.1980   12.6390  -11.8120 B   0  0  0  0  0  0  0  0  0  0  0  0
    1.7660   13.8740  -12.0920 C   0  0  0  0  0  0  0  0  0  0  0  0
    1.8140   15.1090  -11.5130 C   0  0  0  0  0  0  0  0  0  0  0  0
    0.7910   16.0140  -11.7060 C   0  0  0  0  0  0  0  0  0  0  0  0
   -0.3120   15.6930  -12.4920 C   0  0  0  0  0  0  0  0  0  0  0  0
   -0.3430   14.4430  -13.0680 C   0  0  0  0  0  0  0  0  0  0  0  0
    0.6680   13.5360  -12.8820 C   0  0  0  0  0  0  0  0  0  0  0  0
   -1.3510   16.6770  -12.6750 C   0  0  0  0  0  0  0  0  0  0  0  0
   -1.6460   17.0110  -13.8690 O   0  0  0  0  0  0  0  0  0  0  0  0
   -2.0080   17.2440  -11.5630 N   0  0  0  0  0  0  0  0  0  0  0  0
   -2.5950   18.5340  -11.6280 N   0  0  0  0  0  0  0  0  0  0  0  0
   -3.5940   19.0200  -12.5180 C   0  0  0  0  0  0  0  0  0  0  0  0
   -3.9840   18.3340  -13.5230 O   0  0  0  0  0  0  0  0  0  0  0  0
   -4.0610   20.3660  -12.0940 C   0  0  2  0  0  0  0  0  0  0  0  0
   -3.3460   20.5430  -10.7680 C   0  0  1  0  0  0  0  0  0  0  0  0
   -4.4500   20.1690   -9.8020 C   0  0  1  0  0  0  0  0  0  0  0  0
   -5.5440   21.0830  -10.3930 C   0  0  0  0  0  0  0  0  0  0  0  0
   -5.5230   20.3540  -11.7500 C   0  0  2  0  0  0  0  0  0  0  0  0
   -5.8140   18.9680  -11.2360 C   0  0  0  0  0  0  0  0  0  0  0  0
   -5.0520   18.8530  -10.1550 C   0  0  0  0  0  0  0  0  0  0  0  0
   -2.2320   19.5790  -10.7480 C   0  0  0  0  0  0  0  0  0  0  0  0
   -1.1840   19.6880  -10.0750 O   0  0  0  0  0  0  0  0  0  0  0  0
    2.6440   15.3890  -10.9050 H   0  0  0  0  0  0  0  0  0  0  0  0
    0.8680   16.9810  -11.2220 H   0  0  0  0  0  0  0  0  0  0  0  0
   -1.2040   14.1710  -13.6920 H   0  0  0  0  0  0  0  0  0  0  0  0
    0.6620   12.5470  -13.3250 H   0  0  0  0  0  0  0  0  0  0  0  0
   -2.0650   16.7190  -10.6710 H   0  0  0  0  0  0  0  0  0  0  0  0
   -3.7950   21.1440  -12.8340 H   0  0  0  0  0  0  0  0  0  0  0  0
   -3.0570   21.5800  -10.6310 H   0  0  0  0  0  0  0  0  0  0  0  0
   -4.2550   20.3500   -8.7720 H   0  0  0  0  0  0  0  0  0  0  0  0
   -6.4920   20.9420   -9.8630 H   0  0  0  0  0  0  0  0  0  0  0  0
   -5.1910   22.1080  -10.4650 H   0  0  0  0  0  0  0  0  0  0  0  0
   -6.2090   20.7360  -12.4610 H   0  0  0  0  0  0  0  0  0  0  0  0
   -6.5040   18.3020  -11.7140 H   0  0  0  0  0  0  0  0  0  0  0  0
   -4.9000   17.9290   -9.6210 H   0  0  0  0  0  0  0  0  0  0  0  0
  2  1  1  0  0  0  0
  2  3  1  0  0  0  0
  3 23  1  0  0  0  0
  4  3  2  0  0  0  0
  4 24  1  0  0  0  0
  5  4  1  0  0  0  0
  6  7  1  0  0  0  0
  6  5  2  0  0  0  0
  7  2  2  0  0  0  0
  8  5  1  0  0  0  0
  8 10  1  0  0  0  0
  9  8  2  0  0  0  0
 10 27  1  0  0  0  0
 11 10  1  0  0  0  0
 11 21  1  0  0  0  0
 12 14  1  0  0  0  0
 12 11  1  0  0  0  0
 13 12  2  0  0  0  0
 14 28  1  6  0  0  0
 14 18  1  0  0  0  0
 14 15  1  0  0  0  0
 15 21  1  0  0  0  0
 15 29  1  1  0  0  0
 15 16  1  0  0  0  0
 16 30  1  1  0  0  0
 17 31  1  0  0  0  0
 17 16  1  0  0  0  0
 18 33  1  6  0  0  0
 18 19  1  0  0  0  0
 18 17  1  0  0  0  0
 19 20  2  0  0  0  0
 20 16  1  0  0  0  0
 20 35  1  0  0  0  0
 21 22  2  0  0  0  0
 25  6  1  0  0  0  0
 26  7  1  0  0  0  0
 32 17  1  0  0  0  0
 34 19  1  0  0  0  0
M  END
>  <Pose>
1

>  <Score>
-5.31

$$$$
