
 OpenBabel03232203513D

 49 52  0  0  1  0  0  0  0  0999 V2000
    1.4810   17.2250  -10.2790 B   0  0  0  0  0  0  0  0  0  0  0  0
    1.5420   15.5300  -11.1480 C   0  0  0  0  0  0  0  0  0  0  0  0
    2.2590   14.4590  -10.6600 C   0  0  0  0  0  0  0  0  0  0  0  0
    2.2930   13.2400  -11.3020 C   0  0  0  0  0  0  0  0  0  0  0  0
    1.5880   13.0380  -12.4950 C   0  0  0  0  0  0  0  0  0  0  0  0
    0.8760   14.1190  -12.9690 C   0  0  0  0  0  0  0  0  0  0  0  0
    0.8420   15.3520  -12.3220 C   0  0  0  0  0  0  0  0  0  0  0  0
    1.6180   11.7320  -13.1320 C   0  0  0  0  0  0  0  0  0  0  0  0
    0.5000   11.1300  -13.4460 C   0  0  0  0  0  0  0  0  0  0  0  0
    0.3110    9.7930  -14.0950 C   0  0  2  0  0  0  0  0  0  0  0  0
   -0.8500    9.2960  -13.3650 N   0  0  0  0  0  0  0  0  0  0  0  0
   -1.7000   10.4510  -13.2200 C   0  0  0  0  0  0  0  0  0  0  0  0
   -2.9330   10.4020  -13.0780 O   0  0  0  0  0  0  0  0  0  0  0  0
   -0.8480   11.6490  -13.2700 C   0  0  0  0  0  0  0  0  0  0  0  0
   -1.2000   12.8550  -13.1850 O   0  0  0  0  0  0  0  0  0  0  0  0
   -1.0820    7.9550  -12.9140 C   0  0  0  0  0  0  0  0  0  0  0  0
   -0.6030    6.9220  -13.9220 C   0  0  0  0  0  0  0  0  0  0  0  0
   -1.7640    5.9630  -14.1870 C   0  0  0  0  0  0  0  0  0  0  0  0
   -2.7710    6.5650  -15.0390 N   0  0  0  0  0  0  0  0  0  0  0  0
   -3.0690    6.2390  -16.3180 C   0  0  0  0  0  0  0  0  0  0  0  0
   -4.0630    7.0330  -16.7500 N   0  0  0  0  0  0  0  0  0  0  0  0
   -4.4210    7.8770  -15.7710 C   0  0  0  0  0  0  0  0  0  0  0  0
   -3.5990    7.5670  -14.7070 C   0  0  0  0  0  0  0  0  0  0  0  0
    1.5150    8.9450  -13.9150 C   0  0  0  0  0  0  0  0  0  0  0  0
    1.4430    7.9290  -13.0410 N   0  0  0  0  0  0  0  0  0  0  0  0
    2.4580    7.0940  -12.8040 C   0  0  0  0  0  0  0  0  0  0  0  0
    3.6320    7.2900  -13.4930 C   0  0  0  0  0  0  0  0  0  0  0  0
    3.7500    8.3180  -14.3980 C   0  0  0  0  0  0  0  0  0  0  0  0
    2.6780    9.1480  -14.6050 C   0  0  0  0  0  0  0  0  0  0  0  0
    2.8360   11.0880  -13.4230 O   0  0  0  0  0  0  0  0  0  0  0  0
    2.8040   14.6180   -9.7350 H   0  0  0  0  0  0  0  0  0  0  0  0
    2.8590   12.3980  -10.9150 H   0  0  0  0  0  0  0  0  0  0  0  0
    0.3000   14.0070  -13.8780 H   0  0  0  0  0  0  0  0  0  0  0  0
    0.2560   16.1770  -12.7480 H   0  0  0  0  0  0  0  0  0  0  0  0
    0.0950    9.9000  -15.1700 H   0  0  0  0  0  0  0  0  0  0  0  0
   -2.1930    7.8030  -12.8590 H   0  0  0  0  0  0  0  0  0  0  0  0
   -0.6650    7.6970  -11.9430 H   0  0  0  0  0  0  0  0  0  0  0  0
   -0.3300    7.3610  -14.8870 H   0  0  0  0  0  0  0  0  0  0  0  0
    0.2110    6.3090  -13.4980 H   0  0  0  0  0  0  0  0  0  0  0  0
   -1.3260    5.0580  -14.6660 H   0  0  0  0  0  0  0  0  0  0  0  0
   -2.2050    5.6140  -13.2140 H   0  0  0  0  0  0  0  0  0  0  0  0
   -2.6020    5.4700  -16.9170 H   0  0  0  0  0  0  0  0  0  0  0  0
   -4.5100    7.0130  -17.7100 H   0  0  0  0  0  0  0  0  0  0  0  0
   -5.1810    8.6450  -15.7740 H   0  0  0  0  0  0  0  0  0  0  0  0
   -3.6110    8.0600  -13.7320 H   0  0  0  0  0  0  0  0  0  0  0  0
    2.3890    6.2670  -12.0880 H   0  0  0  0  0  0  0  0  0  0  0  0
    4.4720    6.6120  -13.3070 H   0  0  0  0  0  0  0  0  0  0  0  0
    4.6680    8.4810  -14.9450 H   0  0  0  0  0  0  0  0  0  0  0  0
    2.7060    9.9750  -15.3140 H   0  0  0  0  0  0  0  0  0  0  0  0
  2  3  1  0  0  0  0
  2  1  1  0  0  0  0
  3 31  1  0  0  0  0
  4 32  1  0  0  0  0
  4  3  2  0  0  0  0
  5  4  1  0  0  0  0
  6  5  2  0  0  0  0
  6  7  1  0  0  0  0
  7  2  2  0  0  0  0
  8  5  1  0  0  0  0
  9 14  1  0  0  0  0
  9  8  2  0  0  0  0
 10 35  1  6  0  0  0
 10 24  1  0  0  0  0
 10  9  1  0  0  0  0
 10 11  1  0  0  0  0
 11 12  1  0  0  0  0
 11 16  1  0  0  0  0
 12 13  2  0  0  0  0
 14 12  1  0  0  0  0
 14 15  2  0  0  0  0
 16 36  1  0  0  0  0
 16 37  1  0  0  0  0
 17 39  1  0  0  0  0
 17 16  1  0  0  0  0
 18 17  1  0  0  0  0
 18 41  1  0  0  0  0
 19 23  1  0  0  0  0
 19 18  1  0  0  0  0
 20 19  1  0  0  0  0
 21 20  1  0  0  0  0
 21 22  1  0  0  0  0
 22 23  2  0  0  0  0
 23 45  1  0  0  0  0
 24 25  1  0  0  0  0
 25 26  2  0  0  0  0
 26 46  1  0  0  0  0
 27 47  1  0  0  0  0
 27 26  1  0  0  0  0
 28 27  2  0  0  0  0
 29 28  1  0  0  0  0
 29 24  2  0  0  0  0
 30  8  1  0  0  0  0
 33  6  1  0  0  0  0
 34  7  1  0  0  0  0
 38 17  1  0  0  0  0
 40 18  1  0  0  0  0
 42 20  1  0  0  0  0
 43 21  1  0  0  0  0
 44 22  1  0  0  0  0
 48 28  1  0  0  0  0
 49 29  1  0  0  0  0
M  END
>  <Pose>
1

>  <Score>
-5.00

$$$$
