
 OpenBabel03232203513D

 55 58  0  0  1  0  0  0  0  0999 V2000
  -10.5220   12.2950  -16.0890 B   0  0  0  0  0  0  0  0  0  0  0  0
   -8.8510   11.6400  -15.3980 C   0  0  0  0  0  0  0  0  0  0  0  0
   -8.1270   10.7750  -16.1870 C   0  0  0  0  0  0  0  0  0  0  0  0
   -6.9370   10.2950  -15.7180 C   0  0  0  0  0  0  0  0  0  0  0  0
   -6.4590   10.6720  -14.4640 C   0  0  0  0  0  0  0  0  0  0  0  0
   -7.1810   11.5240  -13.6950 C   0  0  0  0  0  0  0  0  0  0  0  0
   -8.3850   12.0160  -14.1560 C   0  0  0  0  0  0  0  0  0  0  0  0
   -5.2070   10.0570  -14.0560 C   0  0  0  0  0  0  0  0  0  0  0  0
   -4.1730   10.7840  -13.7240 C   0  0  0  0  0  0  0  0  0  0  0  0
   -2.8210   10.2920  -13.2760 C   0  0  2  0  0  0  0  0  0  0  0  0
   -1.9310   11.2870  -13.7670 N   0  0  0  0  0  0  0  0  0  0  0  0
   -2.6630   12.5360  -13.7950 C   0  0  0  0  0  0  0  0  0  0  0  0
   -2.1890   13.6970  -13.8320 O   0  0  0  0  0  0  0  0  0  0  0  0
   -4.0880   12.2260  -13.7690 C   0  0  0  0  0  0  0  0  0  0  0  0
   -5.0320   13.0870  -13.7870 O   0  0  0  0  0  0  0  0  0  0  0  0
   -0.5340   11.2740  -14.1590 C   0  0  0  0  0  0  0  0  0  0  0  0
    0.3910   10.5660  -13.2230 C   0  0  0  0  0  0  0  0  0  0  0  0
    1.6830   10.2690  -13.8210 N   0  0  0  0  0  4  0  0  0  0  0  0
    1.7430    8.8710  -14.2580 C   0  0  0  0  0  0  0  0  0  0  0  0
    3.0800    8.7490  -15.0030 C   0  0  0  0  0  0  0  0  0  0  0  0
    4.1540    9.0420  -14.1990 O   0  0  0  0  0  0  0  0  0  0  0  0
    4.0600   10.2630  -13.5480 C   0  0  0  0  0  0  0  0  0  0  0  0
    2.7340   10.4330  -12.8480 C   0  0  0  0  0  0  0  0  0  0  0  0
   -2.5950    8.9110  -13.6820 C   0  0  0  0  0  0  0  0  0  0  0  0
   -3.3360    8.2090  -14.5940 C   0  0  0  0  0  0  0  0  0  0  0  0
   -3.0520    6.9110  -14.9280 C   0  0  0  0  0  0  0  0  0  0  0  0
   -1.9920    6.2790  -14.3360 C   0  0  0  0  0  0  0  0  0  0  0  0
   -1.2010    6.9400  -13.4010 C   0  0  0  0  0  0  0  0  0  0  0  0
   -1.5130    8.2380  -13.0900 C   0  0  0  0  0  0  0  0  0  0  0  0
   -3.8580    6.2490  -15.8760 N   0  0  0  0  0  0  0  0  0  0  0  0
   -4.5640    6.8730  -16.7100 O   0  0  0  0  0  0  0  0  0  0  0  0
   -3.8660    4.8730  -15.8830 O   0  0  0  0  0  0  0  0  0  0  0  0
   -5.0760    8.6510  -14.0080 O   0  0  0  0  0  0  0  0  0  0  0  0
   -8.4690   10.4550  -17.1760 H   0  0  0  0  0  0  0  0  0  0  0  0
   -6.3490    9.6010  -16.3450 H   0  0  0  0  0  0  0  0  0  0  0  0
   -6.8200   11.7990  -12.6930 H   0  0  0  0  0  0  0  0  0  0  0  0
   -8.9640   12.7030  -13.5350 H   0  0  0  0  0  0  0  0  0  0  0  0
   -2.8160   10.3790  -12.1590 H   0  0  0  0  0  0  0  0  0  0  0  0
   -0.2060   12.3380  -14.2060 H   0  0  0  0  0  0  0  0  0  0  0  0
   -0.4000   10.8330  -15.1690 H   0  0  0  0  0  0  0  0  0  0  0  0
    0.0180    9.6890  -12.7150 H   0  0  0  0  0  0  0  0  0  0  0  0
    0.5740   11.3250  -12.3800 H   0  0  0  0  0  0  0  0  0  0  0  0
    1.9030   10.8290  -14.6480 H   0  0  0  0  0  0  0  0  0  0  0  0
    0.9570    8.6400  -15.0020 H   0  0  0  0  0  0  0  0  0  0  0  0
    1.7890    8.1690  -13.4220 H   0  0  0  0  0  0  0  0  0  0  0  0
    3.2150    7.7520  -15.4250 H   0  0  0  0  0  0  0  0  0  0  0  0
    3.0030    9.4750  -15.8570 H   0  0  0  0  0  0  0  0  0  0  0  0
    4.8400   10.2340  -12.7310 H   0  0  0  0  0  0  0  0  0  0  0  0
    4.2860   11.1290  -14.1850 H   0  0  0  0  0  0  0  0  0  0  0  0
    2.6730   11.4590  -12.4460 H   0  0  0  0  0  0  0  0  0  0  0  0
    2.6330    9.6790  -12.0330 H   0  0  0  0  0  0  0  0  0  0  0  0
   -4.1740    8.6960  -15.0560 H   0  0  0  0  0  0  0  0  0  0  0  0
   -1.7140    5.2580  -14.5560 H   0  0  0  0  0  0  0  0  0  0  0  0
   -0.3550    6.4340  -12.9290 H   0  0  0  0  0  0  0  0  0  0  0  0
   -0.8870    8.7580  -12.3500 H   0  0  0  0  0  0  0  0  0  0  0  0
  1  2  1  0  0  0  0
  2  7  1  0  0  0  0
  3  4  1  0  0  0  0
  3  2  2  0  0  0  0
  4  5  2  0  0  0  0
  5  8  1  0  0  0  0
  5  6  1  0  0  0  0
  6 36  1  0  0  0  0
  7  6  2  0  0  0  0
  7 37  1  0  0  0  0
  8 33  1  0  0  0  0
  8  9  2  0  0  0  0
  9 10  1  0  0  0  0
 10 38  1  1  0  0  0
 11 10  1  0  0  0  0
 12 14  1  0  0  0  0
 12 11  1  0  0  0  0
 13 12  2  0  0  0  0
 14  9  1  0  0  0  0
 15 14  2  0  0  0  0
 16 11  1  0  0  0  0
 16 17  1  0  0  0  0
 17 41  1  0  0  0  0
 17 42  1  0  0  0  0
 18 17  1  0  0  0  0
 18 23  1  0  0  0  0
 19 18  1  0  0  0  0
 19 45  1  0  0  0  0
 20 19  1  0  0  0  0
 20 21  1  0  0  0  0
 21 22  1  0  0  0  0
 22 23  1  0  0  0  0
 22 48  1  0  0  0  0
 23 50  1  0  0  0  0
 23 51  1  0  0  0  0
 24 10  1  0  0  0  0
 24 29  1  0  0  0  0
 25 24  2  0  0  0  0
 26 25  1  0  0  0  0
 26 27  2  0  0  0  0
 27 28  1  0  0  0  0
 28 29  2  0  0  0  0
 28 54  1  0  0  0  0
 29 55  1  0  0  0  0
 30 26  1  0  0  0  0
 31 30  2  0  0  0  0
 32 30  2  0  0  0  0
 34  3  1  0  0  0  0
 35  4  1  0  0  0  0
 39 16  1  0  0  0  0
 40 16  1  0  0  0  0
 43 18  1  0  0  0  0
 44 19  1  0  0  0  0
 46 20  1  0  0  0  0
 47 20  1  0  0  0  0
 49 22  1  0  0  0  0
 52 25  1  0  0  0  0
 53 27  1  0  0  0  0
M  END
>  <Pose>
1

>  <Score>
-3.54

$$$$
