
 OpenBabel03232203513D

 59 62  0  0  1  0  0  0  0  0999 V2000
    8.7500    6.7140  -13.6210 B   0  0  0  0  0  0  0  0  0  0  0  0
    7.0690    7.5630  -13.9530 C   0  0  0  0  0  0  0  0  0  0  0  0
    5.9100    6.9970  -13.4670 C   0  0  0  0  0  0  0  0  0  0  0  0
    4.6890    7.5950  -13.6940 C   0  0  0  0  0  0  0  0  0  0  0  0
    4.5490    8.7890  -14.4140 C   0  0  0  0  0  0  0  0  0  0  0  0
    5.7160    9.3390  -14.8910 C   0  0  0  0  0  0  0  0  0  0  0  0
    6.9590    8.7340  -14.6630 C   0  0  0  0  0  0  0  0  0  0  0  0
    3.2290    9.3520  -14.6510 C   0  0  0  0  0  0  0  0  0  0  0  0
    2.7100   10.3280  -13.9390 C   0  0  0  0  0  0  0  0  0  0  0  0
    1.3530   10.9490  -14.1460 C   0  0  2  0  0  0  0  0  0  0  0  0
    1.2570   12.0100  -13.2060 N   0  0  0  0  0  0  0  0  0  0  0  0
    2.3960   12.0260  -12.3200 C   0  0  0  0  0  0  0  0  0  0  0  0
    2.6120   12.7640  -11.3490 O   0  0  0  0  0  0  0  0  0  0  0  0
    3.3110   10.9590  -12.7870 C   0  0  0  0  0  0  0  0  0  0  0  0
    4.4260   10.6690  -12.2450 O   0  0  0  0  0  0  0  0  0  0  0  0
    0.2040   12.9810  -13.0690 C   0  0  0  0  0  0  0  0  0  0  0  0
    0.6290   14.4040  -13.1880 C   0  0  0  0  0  0  0  0  0  0  0  0
   -0.1820   15.3490  -12.4810 N   0  0  0  0  0  4  0  0  0  0  0  0
   -0.9300   16.2440  -13.3400 C   0  0  0  0  0  0  0  0  0  0  0  0
   -1.8700   17.0330  -12.4520 C   0  0  0  0  0  0  0  0  0  0  0  0
   -1.0420   17.8690  -11.6650 O   0  0  0  0  0  0  0  0  0  0  0  0
   -0.3600   17.0140  -10.7940 C   0  0  0  0  0  0  0  0  0  0  0  0
    0.6400   16.2210  -11.6190 C   0  0  0  0  0  0  0  0  0  0  0  0
    0.3880    9.8490  -13.8350 C   0  0  0  0  0  0  0  0  0  0  0  0
   -0.8870   10.1870  -13.5050 C   0  0  0  0  0  0  0  0  0  0  0  0
   -1.8170    9.2130  -13.2030 C   0  0  0  0  0  0  0  0  0  0  0  0
   -1.4580    7.8930  -13.2350 C   0  0  0  0  0  0  0  0  0  0  0  0
   -0.1720    7.5550  -13.5700 C   0  0  0  0  0  0  0  0  0  0  0  0
    0.7660    8.5280  -13.8740 C   0  0  0  0  0  0  0  0  0  0  0  0
   -2.4350    6.8500  -12.9140 C   0  0  0  0  0  0  0  0  0  0  0  0
   -2.8640    6.7460  -11.7360 O   0  0  0  0  0  0  0  0  0  0  0  0
   -2.9160    5.9660  -13.8390 O   0  0  0  0  0  0  0  0  0  0  0  0
   -3.1220    6.3050  -15.1930 C   0  0  0  0  0  0  0  0  0  0  0  0
    2.4130    8.8570  -15.6950 O   0  0  0  0  0  0  0  0  0  0  0  0
    5.9940    6.0630  -12.9010 H   0  0  0  0  0  0  0  0  0  0  0  0
    3.7980    7.1370  -13.3090 H   0  0  0  0  0  0  0  0  0  0  0  0
    5.6690   10.2600  -15.4830 H   0  0  0  0  0  0  0  0  0  0  0  0
    7.8590    9.1900  -15.0500 H   0  0  0  0  0  0  0  0  0  0  0  0
    1.3220   11.2310  -15.2080 H   0  0  0  0  0  0  0  0  0  0  0  0
   -0.6300   12.7860  -13.8060 H   0  0  0  0  0  0  0  0  0  0  0  0
   -0.3010   12.8830  -12.0660 H   0  0  0  0  0  0  0  0  0  0  0  0
    0.5420   14.6790  -14.2810 H   0  0  0  0  0  0  0  0  0  0  0  0
    1.7010   14.5620  -12.9550 H   0  0  0  0  0  0  0  0  0  0  0  0
   -0.8250   14.8780  -11.7900 H   0  0  0  0  0  0  0  0  0  0  0  0
   -1.4690   15.7240  -14.1570 H   0  0  0  0  0  0  0  0  0  0  0  0
   -0.2140   16.9840  -13.7770 H   0  0  0  0  0  0  0  0  0  0  0  0
   -2.5330   17.6720  -13.0740 H   0  0  0  0  0  0  0  0  0  0  0  0
   -2.4570   16.3450  -11.7820 H   0  0  0  0  0  0  0  0  0  0  0  0
   -1.1120   16.2630  -10.4240 H   0  0  0  0  0  0  0  0  0  0  0  0
    0.1320   17.5700   -9.9740 H   0  0  0  0  0  0  0  0  0  0  0  0
    1.2210   16.8830  -12.3110 H   0  0  0  0  0  0  0  0  0  0  0  0
    1.3190   15.6230  -10.9770 H   0  0  0  0  0  0  0  0  0  0  0  0
   -1.2080   11.2040  -13.4670 H   0  0  0  0  0  0  0  0  0  0  0  0
   -2.8130    9.4920  -12.9440 H   0  0  0  0  0  0  0  0  0  0  0  0
    0.0880    6.4890  -13.5880 H   0  0  0  0  0  0  0  0  0  0  0  0
    1.7620    8.2630  -14.1320 H   0  0  0  0  0  0  0  0  0  0  0  0
   -4.1670    6.5120  -15.4330 H   0  0  0  0  0  0  0  0  0  0  0  0
   -2.5030    7.1920  -15.4780 H   0  0  0  0  0  0  0  0  0  0  0  0
   -2.7910    5.4590  -15.8570 H   0  0  0  0  0  0  0  0  0  0  0  0
  2  1  1  0  0  0  0
  2  3  1  0  0  0  0
  3 35  1  0  0  0  0
  4  3  2  0  0  0  0
  4 36  1  0  0  0  0
  5  4  1  0  0  0  0
  6  7  1  0  0  0  0
  6  5  2  0  0  0  0
  7  2  2  0  0  0  0
  8  5  1  0  0  0  0
  8  9  2  0  0  0  0
  9 14  1  0  0  0  0
 10 39  1  6  0  0  0
 10  9  1  0  0  0  0
 10 24  1  0  0  0  0
 10 11  1  0  0  0  0
 11 16  1  0  0  0  0
 11 12  1  0  0  0  0
 12 13  2  0  0  0  0
 14 12  1  0  0  0  0
 14 15  2  0  0  0  0
 16 41  1  0  0  0  0
 17 16  1  0  0  0  0
 17 43  1  0  0  0  0
 17 18  1  0  0  0  0
 18 44  1  0  0  0  0
 18 23  1  0  0  0  0
 19 18  1  0  0  0  0
 19 20  1  0  0  0  0
 20 48  1  0  0  0  0
 20 21  1  0  0  0  0
 21 22  1  0  0  0  0
 22 49  1  0  0  0  0
 22 50  1  0  0  0  0
 23 52  1  0  0  0  0
 23 22  1  0  0  0  0
 24 25  1  0  0  0  0
 25 53  1  0  0  0  0
 25 26  2  0  0  0  0
 26 54  1  0  0  0  0
 27 26  1  0  0  0  0
 27 30  1  0  0  0  0
 28 27  2  0  0  0  0
 29 24  2  0  0  0  0
 29 28  1  0  0  0  0
 30 31  2  0  0  0  0
 32 30  1  0  0  0  0
 33 32  1  0  0  0  0
 34  8  1  0  0  0  0
 37  6  1  0  0  0  0
 38  7  1  0  0  0  0
 40 16  1  0  0  0  0
 42 17  1  0  0  0  0
 45 19  1  0  0  0  0
 46 19  1  0  0  0  0
 47 20  1  0  0  0  0
 51 23  1  0  0  0  0
 55 28  1  0  0  0  0
 56 29  1  0  0  0  0
 57 33  1  0  0  0  0
 58 33  1  0  0  0  0
 59 33  1  0  0  0  0
M  END
>  <Pose>
1

>  <Score>
-4.66

$$$$
