
 OpenBabel03232203513D

 48 51  0  0  1  0  0  0  0  0999 V2000
   -3.9340   20.4080  -11.1800 B   0  0  0  0  0  0  0  0  0  0  0  0
   -2.9700   18.8980  -11.8550 C   0  0  0  0  0  0  0  0  0  0  0  0
   -1.8900   18.4180  -11.1500 C   0  0  0  0  0  0  0  0  0  0  0  0
   -1.2050   17.3380  -11.6380 C   0  0  0  0  0  0  0  0  0  0  0  0
   -1.5930   16.7470  -12.8150 C   0  0  0  0  0  0  0  0  0  0  0  0
   -2.6760   17.2530  -13.4920 C   0  0  0  0  0  0  0  0  0  0  0  0
   -3.4010   18.3440  -13.0380 C   0  0  0  0  0  0  0  0  0  0  0  0
   -0.8320   15.5580  -13.3540 C   0  0  1  0  0  0  0  0  0  0  0  0
    0.1470   16.0510  -14.1940 O   0  0  0  0  0  0  0  0  0  0  0  0
   -0.3120   14.7100  -12.2330 C   0  0  0  0  0  0  0  0  0  0  0  0
    0.3830   13.5380  -12.6800 N   0  0  0  0  0  0  0  0  0  0  0  0
    1.6770   13.3020  -12.3550 C   0  0  0  0  0  0  0  0  0  0  0  0
    2.0120   12.0980  -12.9540 C   0  0  0  0  0  0  0  0  0  0  0  0
    3.2920   11.6040  -12.7800 C   0  0  0  0  0  0  0  0  0  0  0  0
    4.2510   12.2860  -12.0200 C   0  0  0  0  0  0  0  0  0  0  0  0
    3.8670   13.4880  -11.4410 C   0  0  0  0  0  0  0  0  0  0  0  0
    2.6030   14.0010  -11.5970 C   0  0  0  0  0  0  0  0  0  0  0  0
    0.9380   11.6030  -13.6380 N   0  0  0  0  0  0  0  0  0  0  0  0
   -0.0490   12.5180  -13.4450 C   0  0  1  0  0  0  0  0  0  0  0  0
   -1.2340   12.3940  -13.9430 N   0  0  0  0  0  0  0  0  0  0  0  0
    0.9550   10.3790  -14.3820 C   0  0  0  0  0  0  0  0  0  0  0  0
    0.7910    9.1530  -13.5270 C   0  0  0  0  0  0  0  0  0  0  0  0
   -0.2860    8.3150  -13.7580 C   0  0  0  0  0  0  0  0  0  0  0  0
   -0.5050    7.1700  -13.0170 C   0  0  0  0  0  0  0  0  0  0  0  0
    0.3960    6.8770  -12.0230 C   0  0  0  0  0  0  0  0  0  0  0  0
    1.4700    7.6900  -11.7740 C   0  0  0  0  0  0  0  0  0  0  0  0
    1.6590    8.8180  -12.5260 C   0  0  0  0  0  0  0  0  0  0  0  0
   -1.5850   18.9040  -10.2000 H   0  0  0  0  0  0  0  0  0  0  0  0
   -0.3520   16.9490  -11.0930 H   0  0  0  0  0  0  0  0  0  0  0  0
   -3.0000   16.7920  -14.4420 H   0  0  0  0  0  0  0  0  0  0  0  0
   -4.2620   18.7380  -13.5880 H   0  0  0  0  0  0  0  0  0  0  0  0
   -1.5500   14.9960  -14.0080 H   0  0  0  0  0  0  0  0  0  0  0  0
    0.0690   15.7370  -15.1160 H   0  0  0  0  0  0  0  0  0  0  0  0
    0.4570   15.3430  -11.6990 H   0  0  0  0  0  0  0  0  0  0  0  0
   -1.0680   14.4760  -11.4740 H   0  0  0  0  0  0  0  0  0  0  0  0
    3.5410   10.6600  -13.2410 H   0  0  0  0  0  0  0  0  0  0  0  0
    5.2250   11.8660  -11.9150 H   0  0  0  0  0  0  0  0  0  0  0  0
    4.5980   14.0290  -10.8490 H   0  0  0  0  0  0  0  0  0  0  0  0
    2.3420   14.9380  -11.1320 H   0  0  0  0  0  0  0  0  0  0  0  0
   -1.9540   13.1530  -13.7480 H   0  0  0  0  0  0  0  0  0  0  0  0
   -1.5770   11.6220  -14.5190 H   0  0  0  0  0  0  0  0  0  0  0  0
    1.9150   10.2520  -14.9340 H   0  0  0  0  0  0  0  0  0  0  0  0
    0.1140   10.3870  -15.1050 H   0  0  0  0  0  0  0  0  0  0  0  0
   -1.0320    8.5220  -14.5430 H   0  0  0  0  0  0  0  0  0  0  0  0
   -1.3640    6.5140  -13.2140 H   0  0  0  0  0  0  0  0  0  0  0  0
    0.2700    5.9850  -11.4110 H   0  0  0  0  0  0  0  0  0  0  0  0
    2.1680    7.4130  -10.9630 H   0  0  0  0  0  0  0  0  0  0  0  0
    2.4970    9.4370  -12.3140 H   0  0  0  0  0  0  0  0  0  0  0  0
  2  1  1  0  0  0  0
  2  3  1  0  0  0  0
  3 28  1  0  0  0  0
  4  3  2  0  0  0  0
  4 29  1  0  0  0  0
  5  4  1  0  0  0  0
  6  7  1  0  0  0  0
  6  5  2  0  0  0  0
  7  2  2  0  0  0  0
  8 32  1  6  0  0  0
  8  5  1  0  0  0  0
  8 10  1  0  0  0  0
  9  8  1  0  0  0  0
 10 34  1  0  0  0  0
 10 35  1  0  0  0  0
 11 12  1  0  0  0  0
 11 10  1  0  0  0  0
 12 17  1  0  0  0  0
 13 14  1  0  0  0  0
 13 12  2  0  0  0  0
 14 15  2  0  0  0  0
 15 37  1  0  0  0  0
 15 16  1  0  0  0  0
 16 38  1  0  0  0  0
 17 16  2  0  0  0  0
 17 39  1  0  0  0  0
 18 19  1  0  0  0  0
 18 13  1  0  0  0  0
 19 20  1  1  0  0  0
 19 11  1  0  0  0  0
 20 40  1  0  0  0  0
 21 18  1  0  0  0  0
 21 22  1  0  0  0  0
 22 27  1  0  0  0  0
 23 22  2  0  0  0  0
 23 24  1  0  0  0  0
 24 25  2  0  0  0  0
 25 26  1  0  0  0  0
 25 46  1  0  0  0  0
 26 47  1  0  0  0  0
 27 48  1  0  0  0  0
 27 26  2  0  0  0  0
 30  6  1  0  0  0  0
 31  7  1  0  0  0  0
 33  9  1  0  0  0  0
 36 14  1  0  0  0  0
 41 20  1  0  0  0  0
 42 21  1  0  0  0  0
 43 21  1  0  0  0  0
 44 23  1  0  0  0  0
 45 24  1  0  0  0  0
M  END
>  <Pose>
1

>  <Score>
-6.78

$$$$
