
 OpenBabel03232203513D

 55 58  0  0  0  0  0  0  0  0999 V2000
   -0.9560    6.4400  -13.8240 B   0  0  0  0  0  0  0  0  0  0  0  0
   -0.9400    8.3460  -13.5770 C   0  0  0  0  0  0  0  0  0  0  0  0
   -2.1170    9.0380  -13.3760 C   0  0  0  0  0  0  0  0  0  0  0  0
   -2.1100   10.4130  -13.1990 C   0  0  0  0  0  0  0  0  0  0  0  0
   -0.9250   11.1050  -13.2240 C   0  0  0  0  0  0  0  0  0  0  0  0
    0.2600   10.4280  -13.4230 C   0  0  0  0  0  0  0  0  0  0  0  0
    0.2360    9.0590  -13.5970 C   0  0  0  0  0  0  0  0  0  0  0  0
   -0.9700   12.5690  -13.0460 C   0  0  0  0  0  0  0  0  0  0  0  0
    0.2670   13.2350  -13.2860 N   0  0  0  0  0  0  0  0  0  0  0  0
    0.5070   13.6380  -14.6060 C   0  0  0  0  0  0  0  0  0  0  0  0
    0.5380   15.1550  -14.7590 C   0  0  0  0  0  0  0  0  0  0  0  0
    0.1820   15.7100  -13.5000 N   0  0  0  0  0  0  0  0  0  0  0  0
    1.0460   15.3910  -12.3900 C   0  0  0  0  0  0  0  0  0  0  0  0
    0.8900   13.8770  -12.2030 C   0  0  0  0  0  0  0  0  0  0  0  0
   -0.9520   16.5160  -13.2970 C   0  0  0  0  0  0  0  0  0  0  0  0
   -1.9920   16.7100  -14.1240 N   0  0  0  0  0  0  0  0  0  0  0  0
   -2.8470   17.6000  -13.5650 C   0  0  0  0  0  0  0  0  0  0  0  0
   -2.3410   17.9860  -12.3440 C   0  0  0  0  0  0  0  0  0  0  0  0
   -1.1960   17.3160  -12.2050 N   0  0  0  0  0  0  0  0  0  0  0  0
   -3.0200   18.8750  -11.5950 N   0  0  0  0  0  0  0  0  0  0  0  0
   -4.1830   19.4000  -12.0040 C   0  0  0  0  0  0  0  0  0  0  0  0
   -4.7960   20.2400  -11.2690 O   0  0  0  0  0  0  0  0  0  0  0  0
   -4.6940   19.0370  -13.1930 N   0  0  0  0  0  0  0  0  0  0  0  0
   -4.0430   18.1540  -13.9620 C   0  0  0  0  0  0  0  0  0  0  0  0
   -4.5220   17.8170  -15.0730 O   0  0  0  0  0  0  0  0  0  0  0  0
   -2.4480   19.2670  -10.3030 C   0  0  0  0  0  0  0  0  0  0  0  0
   -2.2590   16.0810  -15.3900 C   0  0  0  0  0  0  0  0  0  0  0  0
   -2.7780   14.6700  -15.2270 C   0  0  0  0  0  0  0  0  0  0  0  0
   -4.1530   14.5670  -15.2860 O   0  0  0  0  0  0  0  0  0  0  0  0
   -4.4190   13.3700  -15.9900 C   0  0  0  0  0  0  0  0  0  0  0  0
   -3.0350    8.4840  -13.3610 H   0  0  0  0  0  0  0  0  0  0  0  0
   -3.0750   10.8810  -13.0460 H   0  0  0  0  0  0  0  0  0  0  0  0
    1.2270   10.9550  -13.4440 H   0  0  0  0  0  0  0  0  0  0  0  0
    1.1860    8.5460  -13.7550 H   0  0  0  0  0  0  0  0  0  0  0  0
   -1.4120   12.8420  -12.0710 H   0  0  0  0  0  0  0  0  0  0  0  0
   -1.6900   12.9520  -13.8310 H   0  0  0  0  0  0  0  0  0  0  0  0
   -0.3880   13.3230  -15.2320 H   0  0  0  0  0  0  0  0  0  0  0  0
    1.3800   13.1600  -15.1170 H   0  0  0  0  0  0  0  0  0  0  0  0
    1.6170   15.3930  -15.0290 H   0  0  0  0  0  0  0  0  0  0  0  0
   -0.0330   15.4930  -15.6340 H   0  0  0  0  0  0  0  0  0  0  0  0
    0.7490   15.9430  -11.4960 H   0  0  0  0  0  0  0  0  0  0  0  0
    2.1290   15.5960  -12.6270 H   0  0  0  0  0  0  0  0  0  0  0  0
    0.2450   13.7560  -11.3030 H   0  0  0  0  0  0  0  0  0  0  0  0
    1.8670   13.4380  -11.9160 H   0  0  0  0  0  0  0  0  0  0  0  0
   -5.6150   19.4490  -13.5220 H   0  0  0  0  0  0  0  0  0  0  0  0
   -1.6690   20.0350  -10.5170 H   0  0  0  0  0  0  0  0  0  0  0  0
   -3.1960   19.6170   -9.5960 H   0  0  0  0  0  0  0  0  0  0  0  0
   -1.9020   18.3730   -9.9160 H   0  0  0  0  0  0  0  0  0  0  0  0
   -2.9870   16.6290  -16.0210 H   0  0  0  0  0  0  0  0  0  0  0  0
   -1.3160   16.0320  -16.0150 H   0  0  0  0  0  0  0  0  0  0  0  0
   -2.3610   14.2290  -14.2860 H   0  0  0  0  0  0  0  0  0  0  0  0
   -2.3740   14.0370  -16.0360 H   0  0  0  0  0  0  0  0  0  0  0  0
   -3.9620   12.5260  -15.4040 H   0  0  0  0  0  0  0  0  0  0  0  0
   -3.9260   13.3420  -16.9690 H   0  0  0  0  0  0  0  0  0  0  0  0
   -5.5160   13.2420  -16.0610 H   0  0  0  0  0  0  0  0  0  0  0  0
  1  2  1  0  0  0  0
  2  3  1  0  0  0  0
  3 31  1  0  0  0  0
  3  4  2  0  0  0  0
  4 32  1  0  0  0  0
  5  4  1  0  0  0  0
  5  8  1  0  0  0  0
  6  5  2  0  0  0  0
  7  2  2  0  0  0  0
  7  6  1  0  0  0  0
  8 35  1  0  0  0  0
  9  8  1  0  0  0  0
  9 14  1  0  0  0  0
 10  9  1  0  0  0  0
 11 10  1  0  0  0  0
 11 12  1  0  0  0  0
 12 15  1  0  0  0  0
 12 13  1  0  0  0  0
 13 14  1  0  0  0  0
 13 41  1  0  0  0  0
 14 44  1  0  0  0  0
 14 43  1  0  0  0  0
 15 19  2  0  0  0  0
 16 17  1  0  0  0  0
 16 15  1  0  0  0  0
 17 18  2  0  0  0  0
 18 19  1  0  0  0  0
 18 20  1  0  0  0  0
 20 26  1  0  0  0  0
 21 20  1  0  0  0  0
 21 22  2  0  0  0  0
 23 21  1  0  0  0  0
 24 17  1  0  0  0  0
 24 23  1  0  0  0  0
 25 24  2  0  0  0  0
 26 48  1  0  0  0  0
 26 47  1  0  0  0  0
 27 28  1  0  0  0  0
 27 16  1  0  0  0  0
 28 51  1  0  0  0  0
 29 28  1  0  0  0  0
 30 53  1  0  0  0  0
 30 29  1  0  0  0  0
 33  6  1  0  0  0  0
 34  7  1  0  0  0  0
 36  8  1  0  0  0  0
 37 10  1  0  0  0  0
 38 10  1  0  0  0  0
 39 11  1  0  0  0  0
 40 11  1  0  0  0  0
 42 13  1  0  0  0  0
 45 23  1  0  0  0  0
 46 26  1  0  0  0  0
 49 27  1  0  0  0  0
 50 27  1  0  0  0  0
 52 28  1  0  0  0  0
 54 30  1  0  0  0  0
 55 30  1  0  0  0  0
M  END
>  <Pose>
1

>  <Score>
-5.62

$$$$
