
 OpenBabel03232203513D

 42 45  0  0  0  0  0  0  0  0999 V2000
   -1.9070    5.4890  -14.0650 B   0  0  0  0  0  0  0  0  0  0  0  0
   -1.5020    7.3370  -13.8140 C   0  0  0  0  0  0  0  0  0  0  0  0
   -2.5110    8.2850  -13.7420 C   0  0  0  0  0  0  0  0  0  0  0  0
   -2.2400    9.6300  -13.5610 C   0  0  0  0  0  0  0  0  0  0  0  0
   -0.9400   10.0740  -13.4440 C   0  0  0  0  0  0  0  0  0  0  0  0
    0.0560    9.1240  -13.5170 C   0  0  0  0  0  0  0  0  0  0  0  0
   -0.2010    7.7800  -13.6970 C   0  0  0  0  0  0  0  0  0  0  0  0
   -0.6300   11.4870  -13.2530 C   0  0  0  0  0  0  0  0  0  0  0  0
   -0.4370   12.2990  -14.2160 N   0  0  0  0  0  0  0  0  0  0  0  0
   -0.1420   13.6390  -14.0910 N   0  0  0  0  0  0  0  0  0  0  0  0
   -1.1830   14.5940  -14.1840 C   0  0  0  0  0  0  0  0  0  0  0  0
   -2.3730   14.2050  -14.1530 O   0  0  0  0  0  0  0  0  0  0  0  0
   -0.8820   16.0430  -14.3180 C   0  0  0  0  0  0  0  0  0  0  0  0
   -0.9510   16.7160  -13.0350 N   0  0  0  0  0  0  0  0  0  0  0  0
   -1.9080   17.6700  -12.8230 N   0  0  0  0  0  0  0  0  0  0  0  0
   -1.7620   18.1590  -11.5840 C   0  0  0  0  0  0  0  0  0  0  0  0
   -0.7270   17.5050  -11.0590 N   0  0  0  0  0  0  0  0  0  0  0  0
   -0.2100   16.5930  -11.9660 C   0  0  0  0  0  0  0  0  0  0  0  0
    0.9210   15.7450  -11.6520 C   0  0  0  0  0  0  0  0  0  0  0  0
    1.8380   15.3540  -12.6230 N   0  0  0  0  0  0  0  0  0  0  0  0
    2.7430   14.6290  -12.0920 O   0  0  0  0  0  0  0  0  0  0  0  0
    2.5200   14.4950  -10.8450 N   0  0  0  0  0  0  0  0  0  0  0  0
    1.3810   15.1830  -10.5310 C   0  0  0  0  0  0  0  0  0  0  0  0
    0.9090   15.2150   -9.2140 N   0  0  0  0  0  0  0  0  0  0  0  0
   -2.5620   19.1920  -10.9370 C   0  0  0  0  0  0  0  0  0  0  0  0
   -2.2110   19.9530   -9.8960 N   0  0  0  0  0  0  0  0  0  0  0  0
   -3.2060   20.7710   -9.6000 O   0  0  0  0  0  0  0  0  0  0  0  0
   -4.2070   20.5780  -10.4110 N   0  0  0  0  0  0  0  0  0  0  0  0
   -3.8340   19.5830  -11.2730 C   0  0  0  0  0  0  0  0  0  0  0  0
   -4.6640   19.0870  -12.3110 N   0  0  0  0  0  0  0  0  0  0  0  0
   -3.5240    7.9580  -13.8300 H   0  0  0  0  0  0  0  0  0  0  0  0
   -3.0460   10.3720  -13.5060 H   0  0  0  0  0  0  0  0  0  0  0  0
    1.0840    9.4980  -13.4220 H   0  0  0  0  0  0  0  0  0  0  0  0
    0.6260    7.0560  -13.7500 H   0  0  0  0  0  0  0  0  0  0  0  0
   -0.5610   11.8610  -12.2430 H   0  0  0  0  0  0  0  0  0  0  0  0
    0.8660   13.9420  -13.9240 H   0  0  0  0  0  0  0  0  0  0  0  0
   -0.0820   16.3270  -14.9760 H   0  0  0  0  0  0  0  0  0  0  0  0
   -1.8050   16.4590  -14.9000 H   0  0  0  0  0  0  0  0  0  0  0  0
    1.5950   15.2770   -8.4260 H   0  0  0  0  0  0  0  0  0  0  0  0
   -0.0980   15.1900   -8.9490 H   0  0  0  0  0  0  0  0  0  0  0  0
   -5.3370   19.7400  -12.8010 H   0  0  0  0  0  0  0  0  0  0  0  0
   -4.6590   18.1000  -12.6340 H   0  0  0  0  0  0  0  0  0  0  0  0
  1  2  1  0  0  0  0
  2  3  2  0  0  0  0
  2  7  1  0  0  0  0
  3  4  1  0  0  0  0
  4 32  1  0  0  0  0
  4  5  2  0  0  0  0
  5  8  1  0  0  0  0
  6  5  1  0  0  0  0
  6 33  1  0  0  0  0
  7  6  2  0  0  0  0
  8 35  1  0  0  0  0
  9 10  1  0  0  0  0
  9  8  2  0  0  0  0
 10 36  1  0  0  0  0
 11 12  2  0  0  0  0
 11 10  1  0  0  0  0
 13 11  1  0  0  0  0
 13 14  1  0  0  0  0
 14 15  1  0  0  0  0
 14 18  1  0  0  0  0
 15 16  2  0  0  0  0
 16 17  1  0  0  0  0
 16 25  1  0  0  0  0
 18 19  1  0  0  0  0
 18 17  2  0  0  0  0
 19 23  1  0  0  0  0
 20 21  1  0  0  0  0
 20 19  2  0  0  0  0
 21 22  1  0  0  0  0
 22 23  2  0  0  0  0
 23 24  1  0  0  0  0
 24 40  1  0  0  0  0
 24 39  1  0  0  0  0
 25 26  2  0  0  0  0
 26 27  1  0  0  0  0
 28 27  1  0  0  0  0
 29 25  1  0  0  0  0
 29 28  2  0  0  0  0
 30 29  1  0  0  0  0
 31  3  1  0  0  0  0
 34  7  1  0  0  0  0
 37 13  1  0  0  0  0
 38 13  1  0  0  0  0
 41 30  1  0  0  0  0
 42 30  1  0  0  0  0
M  END
>  <Pose>
1

>  <Score>
-8.89

$$$$
