
 OpenBabel03232203513D

 50 54  0  0  1  0  0  0  0  0999 V2000
  -10.6870   12.4850  -16.0340 B   0  0  0  0  0  0  0  0  0  0  0  0
   -9.0420   11.6340  -15.6200 C   0  0  0  0  0  0  0  0  0  0  0  0
   -8.4370   11.8410  -14.3960 C   0  0  0  0  0  0  0  0  0  0  0  0
   -7.2300   11.2140  -14.0950 C   0  0  0  0  0  0  0  0  0  0  0  0
   -6.6040   10.3780  -14.9920 C   0  0  0  0  0  0  0  0  0  0  0  0
   -7.2140   10.1770  -16.2100 C   0  0  0  0  0  0  0  0  0  0  0  0
   -8.4240   10.7980  -16.5290 C   0  0  0  0  0  0  0  0  0  0  0  0
   -5.3390    9.7220  -14.6780 C   0  0  0  0  0  0  0  0  0  0  0  0
   -4.2300   10.3050  -14.1760 N   0  0  0  0  0  0  0  0  0  0  0  0
   -3.2510    9.3810  -14.0130 C   0  0  1  0  0  0  0  0  0  0  0  0
   -3.7270    8.1890  -14.4130 N   0  0  0  0  0  0  0  0  0  0  0  0
   -5.0010    8.3920  -14.8190 C   0  0  0  0  0  0  0  0  0  0  0  0
   -2.7230    7.3090  -14.2340 C   0  0  0  0  0  0  0  0  0  0  0  0
   -1.6160    7.9500  -13.7210 C   0  0  0  0  0  0  0  0  0  0  0  0
   -0.4340    7.2750  -13.4390 C   0  0  0  0  0  0  0  0  0  0  0  0
   -0.3520    5.9220  -13.6750 C   0  0  0  0  0  0  0  0  0  0  0  0
   -1.4640    5.2890  -14.1880 C   0  0  0  0  0  0  0  0  0  0  0  0
   -2.6470    5.9340  -14.4760 C   0  0  0  0  0  0  0  0  0  0  0  0
   -1.9820    9.2530  -13.5940 N   0  0  0  0  0  0  0  0  0  0  0  0
   -1.0840   10.2670  -13.0810 C   0  0  0  0  0  0  0  0  0  0  0  0
   -0.0640   10.6860  -14.1180 C   0  0  0  0  0  0  0  0  0  0  0  0
    1.2070   10.0800  -13.8410 N   0  0  0  0  0  4  0  0  0  0  0  0
    1.9000   10.8140  -12.8020 C   0  0  0  0  0  0  0  0  0  0  0  0
    3.3550   11.0500  -13.1270 C   0  0  0  0  0  0  0  0  0  0  0  0
    3.9410    9.8330  -13.4790 O   0  0  0  0  0  0  0  0  0  0  0  0
    3.3210    9.2480  -14.5630 C   0  0  0  0  0  0  0  0  0  0  0  0
    2.0780    9.9910  -14.9750 C   0  0  0  0  0  0  0  0  0  0  0  0
   -8.9240   12.4990  -13.6820 H   0  0  0  0  0  0  0  0  0  0  0  0
   -6.7930   11.4010  -13.1360 H   0  0  0  0  0  0  0  0  0  0  0  0
   -6.7720    9.5330  -16.9530 H   0  0  0  0  0  0  0  0  0  0  0  0
   -8.8950   10.6270  -17.4980 H   0  0  0  0  0  0  0  0  0  0  0  0
   -4.1190   11.3120  -13.9390 H   0  0  0  0  0  0  0  0  0  0  0  0
   -5.6680    7.6320  -15.2020 H   0  0  0  0  0  0  0  0  0  0  0  0
    0.3910    7.8330  -13.0410 H   0  0  0  0  0  0  0  0  0  0  0  0
    0.5680    5.3530  -13.4640 H   0  0  0  0  0  0  0  0  0  0  0  0
   -1.4090    4.2310  -14.3750 H   0  0  0  0  0  0  0  0  0  0  0  0
   -3.5150    5.4620  -14.8720 H   0  0  0  0  0  0  0  0  0  0  0  0
   -1.6690   11.1740  -12.7960 H   0  0  0  0  0  0  0  0  0  0  0  0
   -0.5950    9.8900  -12.1620 H   0  0  0  0  0  0  0  0  0  0  0  0
    0.0640   11.7690  -14.1340 H   0  0  0  0  0  0  0  0  0  0  0  0
   -0.4270   10.3300  -15.1010 H   0  0  0  0  0  0  0  0  0  0  0  0
    1.0760    9.1040  -13.4730 H   0  0  0  0  0  0  0  0  0  0  0  0
    1.4060   11.8110  -12.6280 H   0  0  0  0  0  0  0  0  0  0  0  0
    1.8660   10.2870  -11.8240 H   0  0  0  0  0  0  0  0  0  0  0  0
    3.8350   11.4150  -12.1960 H   0  0  0  0  0  0  0  0  0  0  0  0
    3.4560   11.8210  -13.9100 H   0  0  0  0  0  0  0  0  0  0  0  0
    4.0550    9.2990  -15.4160 H   0  0  0  0  0  0  0  0  0  0  0  0
    3.0660    8.1780  -14.3910 H   0  0  0  0  0  0  0  0  0  0  0  0
    1.5680    9.3430  -15.7430 H   0  0  0  0  0  0  0  0  0  0  0  0
    2.3620   10.9620  -15.4020 H   0  0  0  0  0  0  0  0  0  0  0  0
  1  2  1  0  0  0  0
  2  3  1  0  0  0  0
  3  4  2  0  0  0  0
  3 28  1  0  0  0  0
  4 29  1  0  0  0  0
  5  8  1  0  0  0  0
  5  4  1  0  0  0  0
  6  5  2  0  0  0  0
  7  6  1  0  0  0  0
  7  2  2  0  0  0  0
  8  9  1  0  0  0  0
  9 10  1  0  0  0  0
  9 32  1  0  0  0  0
 10 11  1  6  0  0  0
 10 19  1  0  0  0  0
 11 13  1  0  0  0  0
 12  8  2  0  0  0  0
 12 11  1  0  0  0  0
 13 14  1  0  0  0  0
 14 19  1  0  0  0  0
 14 15  2  0  0  0  0
 15 34  1  0  0  0  0
 16 35  1  0  0  0  0
 16 15  1  0  0  0  0
 17 16  2  0  0  0  0
 18 13  2  0  0  0  0
 18 17  1  0  0  0  0
 19 20  1  0  0  0  0
 20 38  1  0  0  0  0
 20 39  1  0  0  0  0
 21 22  1  0  0  0  0
 21 20  1  0  0  0  0
 22 42  1  0  0  0  0
 22 23  1  0  0  0  0
 23 43  1  0  0  0  0
 23 44  1  0  0  0  0
 24 23  1  0  0  0  0
 24 45  1  0  0  0  0
 25 24  1  0  0  0  0
 26 48  1  0  0  0  0
 26 25  1  0  0  0  0
 27 26  1  0  0  0  0
 27 22  1  0  0  0  0
 30  6  1  0  0  0  0
 31  7  1  0  0  0  0
 33 12  1  0  0  0  0
 36 17  1  0  0  0  0
 37 18  1  0  0  0  0
 40 21  1  0  0  0  0
 41 21  1  0  0  0  0
 46 24  1  0  0  0  0
 47 26  1  0  0  0  0
 49 27  1  0  0  0  0
 50 27  1  0  0  0  0
M  END
>  <Pose>
1

>  <Score>
-6.41

$$$$
