
 OpenBabel03232203513D

 41 44  0  0  0  0  0  0  0  0999 V2000
   -9.2900   12.7040  -14.0020 B   0  0  0  0  0  0  0  0  0  0  0  0
   -7.9230   11.3990  -14.1250 C   0  0  0  0  0  0  0  0  0  0  0  0
   -7.1260   11.1380  -13.0300 C   0  0  0  0  0  0  0  0  0  0  0  0
   -6.1440   10.2010  -13.1160 C   0  0  0  0  0  0  0  0  0  0  0  0
   -5.9010    9.4770  -14.2850 C   0  0  0  0  0  0  0  0  0  0  0  0
   -6.7260    9.7860  -15.3360 C   0  0  0  0  0  0  0  0  0  0  0  0
   -7.7320   10.7200  -15.3080 C   0  0  0  0  0  0  0  0  0  0  0  0
   -4.7280    8.6250  -14.3160 C   0  0  0  0  0  0  0  0  0  0  0  0
   -3.4260    8.7640  -14.1030 N   0  0  0  0  0  0  0  0  0  0  0  0
   -2.7840    7.5820  -14.2750 C   0  0  0  0  0  0  0  0  0  0  0  0
   -3.7300    6.6860  -14.6130 N   0  0  0  0  0  0  0  0  0  0  0  0
   -4.8800    7.2760  -14.6470 N   0  0  0  0  0  0  0  0  0  0  0  0
   -1.4660    7.6930  -14.0710 N   0  0  0  0  0  0  0  0  0  0  0  0
   -1.2640    8.9810  -13.7700 C   0  0  0  0  0  0  0  0  0  0  0  0
   -2.4760    9.6860  -13.7870 C   0  0  0  0  0  0  0  0  0  0  0  0
   -2.5120   10.9880  -13.5550 N   0  0  0  0  0  0  0  0  0  0  0  0
   -1.3260   11.6160  -13.2880 C   0  0  0  0  0  0  0  0  0  0  0  0
   -1.3170   12.8480  -13.0590 O   0  0  0  0  0  0  0  0  0  0  0  0
   -0.1540   10.9690  -13.2560 N   0  0  0  0  0  0  0  0  0  0  0  0
   -0.0940    9.6480  -13.4960 C   0  0  0  0  0  0  0  0  0  0  0  0
    0.9880    9.0070  -13.4770 O   0  0  0  0  0  0  0  0  0  0  0  0
   -3.6560   11.8560  -13.6620 C   0  0  0  0  0  0  0  0  0  0  0  0
   -0.4710    6.6480  -14.1520 C   0  0  0  0  0  0  0  0  0  0  0  0
   -0.3880    5.8230  -12.8860 C   0  0  0  0  0  0  0  0  0  0  0  0
    0.2770    6.4980  -11.8700 O   0  0  0  0  0  0  0  0  0  0  0  0
    1.6360    6.2140  -12.0010 C   0  0  0  0  0  0  0  0  0  0  0  0
   -7.2710   11.6700  -12.0960 H   0  0  0  0  0  0  0  0  0  0  0  0
   -5.5240   10.0090  -12.2370 H   0  0  0  0  0  0  0  0  0  0  0  0
   -6.5410    9.2660  -16.2950 H   0  0  0  0  0  0  0  0  0  0  0  0
   -8.3340   10.9040  -16.1670 H   0  0  0  0  0  0  0  0  0  0  0  0
    0.7480   11.4450  -13.0500 H   0  0  0  0  0  0  0  0  0  0  0  0
   -4.2680   11.6520  -14.5550 H   0  0  0  0  0  0  0  0  0  0  0  0
   -4.1880   12.0490  -12.7210 H   0  0  0  0  0  0  0  0  0  0  0  0
   -3.2700   12.9230  -13.9220 H   0  0  0  0  0  0  0  0  0  0  0  0
    0.5120    7.0450  -14.3690 H   0  0  0  0  0  0  0  0  0  0  0  0
   -0.8010    5.9880  -14.9880 H   0  0  0  0  0  0  0  0  0  0  0  0
    0.1890    4.8890  -13.1070 H   0  0  0  0  0  0  0  0  0  0  0  0
   -1.3960    5.5260  -12.5960 H   0  0  0  0  0  0  0  0  0  0  0  0
    2.0010    6.5600  -13.0010 H   0  0  0  0  0  0  0  0  0  0  0  0
    1.8650    5.1380  -11.8560 H   0  0  0  0  0  0  0  0  0  0  0  0
    2.2300    6.7680  -11.2230 H   0  0  0  0  0  0  0  0  0  0  0  0
  2  1  1  0  0  0  0
  2  3  1  0  0  0  0
  3 27  1  0  0  0  0
  4  3  2  0  0  0  0
  4 28  1  0  0  0  0
  5  4  1  0  0  0  0
  6  7  1  0  0  0  0
  6  5  2  0  0  0  0
  7  2  2  0  0  0  0
  8  5  1  0  0  0  0
  8  9  1  0  0  0  0
  9 15  1  0  0  0  0
 10  9  1  0  0  0  0
 10 13  1  0  0  0  0
 11 10  2  0  0  0  0
 12 11  1  0  0  0  0
 12  8  2  0  0  0  0
 13 14  1  0  0  0  0
 14 20  1  0  0  0  0
 15 14  2  0  0  0  0
 15 16  1  0  0  0  0
 16 17  1  0  0  0  0
 17 19  1  0  0  0  0
 17 18  2  0  0  0  0
 19 31  1  0  0  0  0
 20 21  2  0  0  0  0
 20 19  1  0  0  0  0
 22 16  1  0  0  0  0
 22 33  1  0  0  0  0
 23 13  1  0  0  0  0
 23 24  1  0  0  0  0
 24 38  1  0  0  0  0
 24 25  1  0  0  0  0
 26 25  1  0  0  0  0
 26 40  1  0  0  0  0
 26 41  1  0  0  0  0
 29  6  1  0  0  0  0
 30  7  1  0  0  0  0
 32 22  1  0  0  0  0
 34 22  1  0  0  0  0
 35 23  1  0  0  0  0
 36 23  1  0  0  0  0
 37 24  1  0  0  0  0
 39 26  1  0  0  0  0
M  END
>  <Pose>
1

>  <Score>
-6.45

$$$$
