
 OpenBabel03232203513D

 60 63  0  0  1  0  0  0  0  0999 V2000
   -6.6560   30.2060   -0.7960 B   0  0  0  0  0  0  0  0  0  0  0  0
   -5.8990   28.8970   -1.9590 C   0  0  0  0  0  0  0  0  0  0  0  0
   -4.5830   28.9990   -2.3470 C   0  0  0  0  0  0  0  0  0  0  0  0
   -4.0250   28.0410   -3.1980 C   0  0  0  0  0  0  0  0  0  0  0  0
   -4.7670   26.9840   -3.6650 C   0  0  0  0  0  0  0  0  0  0  0  0
   -6.0810   26.9090   -3.2600 C   0  0  0  0  0  0  0  0  0  0  0  0
   -6.6500   27.8470   -2.4180 C   0  0  0  0  0  0  0  0  0  0  0  0
   -4.1680   25.9870   -4.5400 C   0  0  2  0  0  0  0  0  0  0  0  0
   -3.0970   26.5550   -5.3330 N   0  0  0  0  0  0  0  0  0  0  0  0
   -3.7230   27.2640   -6.4040 C   0  0  0  0  0  0  0  0  0  0  0  0
   -3.2480   28.2350   -7.0450 O   0  0  0  0  0  0  0  0  0  0  0  0
   -5.0210   26.6270   -6.5980 C   0  0  0  0  0  0  0  0  0  0  0  0
   -5.9280   26.9010   -7.4230 O   0  0  0  0  0  0  0  0  0  0  0  0
   -5.1250   25.5470   -5.6220 C   0  0  0  0  0  0  0  0  0  0  0  0
   -5.9020   24.4940   -5.6870 C   0  0  0  0  0  0  0  0  0  0  0  0
   -5.8550   23.6230   -4.5840 O   0  0  0  0  0  0  0  0  0  0  0  0
   -6.7710   24.2050   -6.8230 C   0  0  0  0  0  0  0  0  0  0  0  0
   -7.8510   24.9770   -7.1860 C   0  0  0  0  0  0  0  0  0  0  0  0
   -8.6920   24.6980   -8.2480 C   0  0  0  0  0  0  0  0  0  0  0  0
   -8.4450   23.5830   -8.9960 C   0  0  0  0  0  0  0  0  0  0  0  0
   -7.3630   22.7720   -8.6660 C   0  0  0  0  0  0  0  0  0  0  0  0
   -6.5460   23.0820   -7.5990 C   0  0  0  0  0  0  0  0  0  0  0  0
   -9.7240   25.5820   -8.4670 O   0  0  0  0  0  0  0  0  0  0  0  0
  -10.9380   25.6550   -7.8010 C   0  0  0  0  0  0  0  0  0  0  0  0
   -1.6470   26.4400   -5.1010 C   0  0  0  0  0  0  0  0  0  0  0  0
   -1.0190   27.8340   -4.9550 C   0  0  0  0  0  0  0  0  0  0  0  0
   -0.8490   28.1480   -3.4960 C   0  0  0  0  0  0  0  0  0  0  0  0
    0.5490   28.0510   -3.1530 N   0  0  0  0  0  4  0  0  0  0  0  0
    0.8790   26.9040   -2.3660 C   0  0  0  0  0  0  0  0  0  0  0  0
    0.3990   26.9990   -0.9580 C   0  0  0  0  0  0  0  0  0  0  0  0
    0.8780   28.1460   -0.3480 O   0  0  0  0  0  0  0  0  0  0  0  0
    0.3830   29.2410   -1.0570 C   0  0  0  0  0  0  0  0  0  0  0  0
    1.0180   29.2230   -2.4350 C   0  0  0  0  0  0  0  0  0  0  0  0
   -4.0200   29.8360   -1.9700 H   0  0  0  0  0  0  0  0  0  0  0  0
   -3.0030   28.1690   -3.4660 H   0  0  0  0  0  0  0  0  0  0  0  0
   -6.6420   26.0660   -3.6430 H   0  0  0  0  0  0  0  0  0  0  0  0
   -7.6800   27.7510   -2.1200 H   0  0  0  0  0  0  0  0  0  0  0  0
   -3.8320   25.1160   -3.9470 H   0  0  0  0  0  0  0  0  0  0  0  0
   -8.0460   25.8680   -6.6130 H   0  0  0  0  0  0  0  0  0  0  0  0
   -9.0920   23.3430   -9.8330 H   0  0  0  0  0  0  0  0  0  0  0  0
   -7.2200   21.8970   -9.3010 H   0  0  0  0  0  0  0  0  0  0  0  0
   -5.7050   22.4040   -7.3830 H   0  0  0  0  0  0  0  0  0  0  0  0
  -11.8050   25.8450   -8.4940 H   0  0  0  0  0  0  0  0  0  0  0  0
  -11.1000   24.7580   -7.1980 H   0  0  0  0  0  0  0  0  0  0  0  0
  -10.9220   26.5420   -7.1350 H   0  0  0  0  0  0  0  0  0  0  0  0
   -1.1940   26.0060   -5.9910 H   0  0  0  0  0  0  0  0  0  0  0  0
   -1.5450   25.8660   -4.1760 H   0  0  0  0  0  0  0  0  0  0  0  0
   -0.0410   27.8830   -5.4280 H   0  0  0  0  0  0  0  0  0  0  0  0
   -1.6770   28.5980   -5.4210 H   0  0  0  0  0  0  0  0  0  0  0  0
   -1.2430   29.1820   -3.3540 H   0  0  0  0  0  0  0  0  0  0  0  0
   -1.4310   27.4500   -2.8980 H   0  0  0  0  0  0  0  0  0  0  0  0
    1.1000   28.0150   -4.0410 H   0  0  0  0  0  0  0  0  0  0  0  0
    0.4630   25.9950   -2.8560 H   0  0  0  0  0  0  0  0  0  0  0  0
    1.9910   26.7850   -2.3770 H   0  0  0  0  0  0  0  0  0  0  0  0
   -0.7180   27.0660   -0.9380 H   0  0  0  0  0  0  0  0  0  0  0  0
    0.7050   26.0750   -0.4160 H   0  0  0  0  0  0  0  0  0  0  0  0
    0.6080   30.2070   -0.5670 H   0  0  0  0  0  0  0  0  0  0  0  0
   -0.7200   29.1920   -1.1860 H   0  0  0  0  0  0  0  0  0  0  0  0
    2.1070   29.1040   -2.2750 H   0  0  0  0  0  0  0  0  0  0  0  0
    0.8120   30.1570   -2.9770 H   0  0  0  0  0  0  0  0  0  0  0  0
  2  1  1  0  0  0  0
  3 34  1  0  0  0  0
  3  2  1  0  0  0  0
  4  3  2  0  0  0  0
  5  6  2  0  0  0  0
  5  4  1  0  0  0  0
  6  7  1  0  0  0  0
  7 37  1  0  0  0  0
  7  2  2  0  0  0  0
  8 38  1  1  0  0  0
  8  5  1  0  0  0  0
  9 25  1  0  0  0  0
  9  8  1  0  0  0  0
 10  9  1  0  0  0  0
 11 10  2  0  0  0  0
 12 10  1  0  0  0  0
 12 14  1  0  0  0  0
 13 12  2  0  0  0  0
 14  8  1  0  0  0  0
 15 14  2  0  0  0  0
 15 16  1  0  0  0  0
 17 15  1  0  0  0  0
 18 17  1  0  0  0  0
 18 39  1  0  0  0  0
 19 18  2  0  0  0  0
 20 21  2  0  0  0  0
 20 19  1  0  0  0  0
 21 22  1  0  0  0  0
 22 42  1  0  0  0  0
 22 17  2  0  0  0  0
 23 19  1  0  0  0  0
 23 24  1  0  0  0  0
 24 44  1  0  0  0  0
 24 45  1  0  0  0  0
 25 26  1  0  0  0  0
 25 47  1  0  0  0  0
 26 27  1  0  0  0  0
 27 50  1  0  0  0  0
 27 28  1  0  0  0  0
 27 51  1  0  0  0  0
 28 33  1  0  0  0  0
 28 29  1  0  0  0  0
 29 30  1  0  0  0  0
 30 55  1  0  0  0  0
 30 56  1  0  0  0  0
 30 31  1  0  0  0  0
 32 57  1  0  0  0  0
 32 31  1  0  0  0  0
 33 59  1  0  0  0  0
 33 32  1  0  0  0  0
 35  4  1  0  0  0  0
 36  6  1  0  0  0  0
 40 20  1  0  0  0  0
 41 21  1  0  0  0  0
 43 24  1  0  0  0  0
 46 25  1  0  0  0  0
 48 26  1  0  0  0  0
 49 26  1  0  0  0  0
 52 28  1  0  0  0  0
 53 29  1  0  0  0  0
 54 29  1  0  0  0  0
 58 32  1  0  0  0  0
 60 33  1  0  0  0  0
M  END
>  <Pose>
1

>  <Score>
-2.69

$$$$
