
 OpenBabel03232203513D

 57 60  0  0  1  0  0  0  0  0999 V2000
    5.8250    3.1810  -13.7420 B   0  0  0  0  0  0  0  0  0  0  0  0
    4.7260    4.7190  -13.3930 C   0  0  0  0  0  0  0  0  0  0  0  0
    3.4800    4.5790  -12.8080 C   0  0  0  0  0  0  0  0  0  0  0  0
    2.6950    5.7030  -12.5620 C   0  0  0  0  0  0  0  0  0  0  0  0
    3.1120    6.9730  -12.8810 C   0  0  0  0  0  0  0  0  0  0  0  0
    4.3560    7.0900  -13.4620 C   0  0  0  0  0  0  0  0  0  0  0  0
    5.1390    5.9880  -13.7100 C   0  0  0  0  0  0  0  0  0  0  0  0
    2.2570    8.1530  -12.6230 C   0  0  1  0  0  0  0  0  0  0  0  0
    2.7470    9.3270  -13.3690 N   0  0  0  0  0  0  0  0  0  0  0  0
    2.3720    9.0720  -14.7180 C   0  0  0  0  0  0  0  0  0  0  0  0
    2.9580    9.5650  -15.7250 O   0  0  0  0  0  0  0  0  0  0  0  0
    1.2240    8.1710  -14.7260 C   0  0  0  0  0  0  0  0  0  0  0  0
    0.6200    7.7330  -15.7260 O   0  0  0  0  0  0  0  0  0  0  0  0
    0.9450    7.9040  -13.3270 C   0  0  0  0  0  0  0  0  0  0  0  0
   -0.1930    7.5620  -12.7790 C   0  0  0  0  0  0  0  0  0  0  0  0
   -0.3030    7.3920  -11.4060 O   0  0  0  0  0  0  0  0  0  0  0  0
   -1.3870    7.3410  -13.5730 C   0  0  0  0  0  0  0  0  0  0  0  0
   -2.4430    8.1360  -13.8420 N   0  0  0  0  0  0  0  0  0  0  0  0
   -3.3430    7.4930  -14.6010 C   0  0  0  0  0  0  0  0  0  0  0  0
   -2.8370    6.2590  -14.8150 N   0  0  0  0  0  0  0  0  0  0  0  0
   -1.6680    6.1190  -14.2210 C   0  0  0  0  0  0  0  0  0  0  0  0
   -0.7500    4.9350  -14.1880 C   0  0  0  0  0  0  0  0  0  0  0  0
   -4.5260    8.0850  -15.0440 C   0  0  0  0  0  0  0  0  0  0  0  0
   -4.8120    9.3870  -14.7050 C   0  0  0  0  0  0  0  0  0  0  0  0
   -3.8770   10.0320  -13.9280 C   0  0  0  0  0  0  0  0  0  0  0  0
   -2.7200    9.4220  -13.5050 C   0  0  0  0  0  0  0  0  0  0  0  0
    3.4580   10.4510  -12.8200 C   0  0  0  0  0  0  0  0  0  0  0  0
    2.9080   11.8130  -12.9920 C   0  0  0  0  0  0  0  0  0  0  0  0
    2.6790   12.6860  -11.8230 C   0  0  0  0  0  0  0  0  0  0  0  0
    2.4670   14.0820  -12.0570 N   0  0  0  0  0  4  0  0  0  0  0  0
    1.0670   14.2240  -12.5480 C   0  0  0  0  0  0  0  0  0  0  0  0
    2.4730   14.8000  -10.7980 C   0  0  0  0  0  0  0  0  0  0  0  0
    3.1300    3.5730  -12.5460 H   0  0  0  0  0  0  0  0  0  0  0  0
    1.7300    5.5660  -12.1040 H   0  0  0  0  0  0  0  0  0  0  0  0
    4.6860    8.0840  -13.7260 H   0  0  0  0  0  0  0  0  0  0  0  0
    6.0990    6.1220  -14.1640 H   0  0  0  0  0  0  0  0  0  0  0  0
    2.1120    8.3690  -11.5620 H   0  0  0  0  0  0  0  0  0  0  0  0
   -0.2650    4.8280  -13.2120 H   0  0  0  0  0  0  0  0  0  0  0  0
    0.0250    5.0290  -15.0060 H   0  0  0  0  0  0  0  0  0  0  0  0
   -1.3220    4.0100  -14.4040 H   0  0  0  0  0  0  0  0  0  0  0  0
   -5.2290    7.5350  -15.6540 H   0  0  0  0  0  0  0  0  0  0  0  0
   -5.7280    9.8690  -15.0390 H   0  0  0  0  0  0  0  0  0  0  0  0
   -4.1050   11.0660  -13.6610 H   0  0  0  0  0  0  0  0  0  0  0  0
   -1.9980    9.9320  -12.8980 H   0  0  0  0  0  0  0  0  0  0  0  0
    4.5390   10.4380  -13.1480 H   0  0  0  0  0  0  0  0  0  0  0  0
    3.4970   10.2580  -11.6940 H   0  0  0  0  0  0  0  0  0  0  0  0
    2.0230   11.8190  -13.6970 H   0  0  0  0  0  0  0  0  0  0  0  0
    3.6980   12.3670  -13.6260 H   0  0  0  0  0  0  0  0  0  0  0  0
    3.4830   12.5450  -11.0350 H   0  0  0  0  0  0  0  0  0  0  0  0
    1.7630   12.2940  -11.2730 H   0  0  0  0  0  0  0  0  0  0  0  0
    3.0880   14.5390  -12.7240 H   0  0  0  0  0  0  0  0  0  0  0  0
    0.8310   15.2790  -12.7370 H   0  0  0  0  0  0  0  0  0  0  0  0
    0.9360   13.6010  -13.4560 H   0  0  0  0  0  0  0  0  0  0  0  0
    0.4430   13.8850  -11.6950 H   0  0  0  0  0  0  0  0  0  0  0  0
    3.0840   14.2740  -10.0300 H   0  0  0  0  0  0  0  0  0  0  0  0
    2.9640   15.7780  -10.9700 H   0  0  0  0  0  0  0  0  0  0  0  0
    1.4590   15.0290  -10.4220 H   0  0  0  0  0  0  0  0  0  0  0  0
  1  2  1  0  0  0  0
  2  3  1  0  0  0  0
  3  4  2  0  0  0  0
  3 33  1  0  0  0  0
  4 34  1  0  0  0  0
  5  8  1  0  0  0  0
  5  4  1  0  0  0  0
  6  5  2  0  0  0  0
  7  6  1  0  0  0  0
  7  2  2  0  0  0  0
  8 37  1  1  0  0  0
  9 27  1  0  0  0  0
  9  8  1  0  0  0  0
 10  9  1  0  0  0  0
 11 10  2  0  0  0  0
 12 10  1  0  0  0  0
 12 14  1  0  0  0  0
 13 12  2  0  0  0  0
 14 15  2  0  0  0  0
 14  8  1  0  0  0  0
 15 16  1  0  0  0  0
 17 15  1  0  0  0  0
 18 17  1  0  0  0  0
 18 26  1  0  0  0  0
 19 18  1  0  0  0  0
 20 19  2  0  0  0  0
 20 21  1  0  0  0  0
 21 22  1  0  0  0  0
 21 17  2  0  0  0  0
 22 38  1  0  0  0  0
 23 24  2  0  0  0  0
 23 19  1  0  0  0  0
 24 25  1  0  0  0  0
 25 43  1  0  0  0  0
 25 26  2  0  0  0  0
 26 44  1  0  0  0  0
 27 46  1  0  0  0  0
 28 27  1  0  0  0  0
 28 29  1  0  0  0  0
 29 50  1  0  0  0  0
 29 49  1  0  0  0  0
 30 29  1  0  0  0  0
 30 32  1  0  0  0  0
 31 30  1  0  0  0  0
 31 54  1  0  0  0  0
 32 57  1  0  0  0  0
 32 55  1  0  0  0  0
 35  6  1  0  0  0  0
 36  7  1  0  0  0  0
 39 22  1  0  0  0  0
 40 22  1  0  0  0  0
 41 23  1  0  0  0  0
 42 24  1  0  0  0  0
 45 27  1  0  0  0  0
 47 28  1  0  0  0  0
 48 28  1  0  0  0  0
 51 30  1  0  0  0  0
 52 31  1  0  0  0  0
 53 31  1  0  0  0  0
 56 32  1  0  0  0  0
M  END
>  <Pose>
1

>  <Score>
-6.10

$$$$
