
 OpenBabel03232203513D

 62 66  0  0  1  0  0  0  0  0999 V2000
    6.0570   16.7160  -11.0690 B   0  0  0  0  0  0  0  0  0  0  0  0
    4.3760   15.9230  -11.5020 C   0  0  0  0  0  0  0  0  0  0  0  0
    3.6540   16.2980  -12.6200 C   0  0  0  0  0  0  0  0  0  0  0  0
    2.4390   15.7250  -12.9340 C   0  0  0  0  0  0  0  0  0  0  0  0
    1.9100   14.7540  -12.1330 C   0  0  0  0  0  0  0  0  0  0  0  0
    2.6200   14.3810  -11.0270 C   0  0  0  0  0  0  0  0  0  0  0  0
    3.8330   14.9400  -10.6980 C   0  0  0  0  0  0  0  0  0  0  0  0
    0.6640   14.1130  -12.4170 C   0  0  2  0  0  0  0  0  0  0  0  0
    0.5190   13.1010  -13.3780 N   0  0  0  0  0  0  0  0  0  0  0  0
   -0.9130   12.8530  -13.3680 C   0  0  0  0  0  0  0  0  0  0  0  0
   -1.5270   11.7770  -13.6820 O   0  0  0  0  0  0  0  0  0  0  0  0
   -1.5690   14.0780  -12.9250 C   0  0  0  0  0  0  0  0  0  0  0  0
   -2.8010   14.3470  -12.7550 O   0  0  0  0  0  0  0  0  0  0  0  0
   -0.4790   15.0230  -12.6860 C   0  0  0  0  0  0  0  0  0  0  0  0
   -0.5250   16.3410  -12.6720 C   0  0  0  0  0  0  0  0  0  0  0  0
    0.6160   17.0720  -12.3700 O   0  0  0  0  0  0  0  0  0  0  0  0
   -1.7370   17.0890  -12.9680 C   0  0  0  0  0  0  0  0  0  0  0  0
   -2.3790   17.9680  -12.1800 N   0  0  0  0  0  0  0  0  0  0  0  0
   -3.4490   18.4810  -12.8310 C   0  0  0  0  0  0  0  0  0  0  0  0
   -3.4640   17.9060  -14.0440 N   0  0  0  0  0  0  0  0  0  0  0  0
   -2.4470   17.0570  -14.1700 C   0  0  0  0  0  0  0  0  0  0  0  0
   -2.0600   16.1990  -15.3220 C   0  0  0  0  0  0  0  0  0  0  0  0
   -4.2950   19.4030  -12.2520 C   0  0  0  0  0  0  0  0  0  0  0  0
   -4.0860   19.8450  -10.9670 C   0  0  0  0  0  0  0  0  0  0  0  0
   -3.0030   19.3310  -10.2890 C   0  0  0  0  0  0  0  0  0  0  0  0
   -2.1980   18.4250  -10.9060 C   0  0  0  0  0  0  0  0  0  0  0  0
    1.3200   12.3060  -14.2510 C   0  0  0  0  0  0  0  0  0  0  0  0
    1.2820   10.8600  -14.2710 C   0  0  0  0  0  0  0  0  0  0  0  0
    1.6470   10.1260  -13.0020 C   0  0  0  0  0  0  0  0  0  0  0  0
    1.8920    8.7100  -13.2590 N   0  0  0  0  0  4  0  0  0  0  0  0
    1.0030    8.1290  -14.2210 C   0  0  0  0  0  0  0  0  0  0  0  0
   -0.2760    7.5920  -13.6500 C   0  0  0  0  0  0  0  0  0  0  0  0
   -0.5280    8.0100  -12.3710 O   0  0  0  0  0  0  0  0  0  0  0  0
    0.4900    7.8090  -11.4750 C   0  0  0  0  0  0  0  0  0  0  0  0
    1.8580    7.9280  -12.0600 C   0  0  0  0  0  0  0  0  0  0  0  0
    4.0650   17.0730  -13.2690 H   0  0  0  0  0  0  0  0  0  0  0  0
    1.9210   16.0860  -13.8540 H   0  0  0  0  0  0  0  0  0  0  0  0
    2.2590   13.5950  -10.3380 H   0  0  0  0  0  0  0  0  0  0  0  0
    4.4000   14.6350   -9.8070 H   0  0  0  0  0  0  0  0  0  0  0  0
    0.3530   13.6180  -11.4350 H   0  0  0  0  0  0  0  0  0  0  0  0
   -0.9610   16.2560  -15.4440 H   0  0  0  0  0  0  0  0  0  0  0  0
   -2.5440   16.6100  -16.2170 H   0  0  0  0  0  0  0  0  0  0  0  0
   -2.4090   15.1730  -15.1080 H   0  0  0  0  0  0  0  0  0  0  0  0
   -5.1360   19.7920  -12.7990 H   0  0  0  0  0  0  0  0  0  0  0  0
   -4.7130   20.5570  -10.4790 H   0  0  0  0  0  0  0  0  0  0  0  0
   -2.8230   19.6680   -9.2840 H   0  0  0  0  0  0  0  0  0  0  0  0
   -1.3360   18.0050  -10.3630 H   0  0  0  0  0  0  0  0  0  0  0  0
    2.4070   12.6410  -14.2130 H   0  0  0  0  0  0  0  0  0  0  0  0
    1.0300   12.6500  -15.2950 H   0  0  0  0  0  0  0  0  0  0  0  0
    0.4380   10.3680  -14.8240 H   0  0  0  0  0  0  0  0  0  0  0  0
    2.1350   10.5510  -14.9760 H   0  0  0  0  0  0  0  0  0  0  0  0
    0.8130   10.1350  -12.2650 H   0  0  0  0  0  0  0  0  0  0  0  0
    2.5880   10.5460  -12.6130 H   0  0  0  0  0  0  0  0  0  0  0  0
    2.8590    8.6520  -13.6650 H   0  0  0  0  0  0  0  0  0  0  0  0
    0.8210    8.7500  -15.1220 H   0  0  0  0  0  0  0  0  0  0  0  0
    1.5510    7.2220  -14.6230 H   0  0  0  0  0  0  0  0  0  0  0  0
   -0.3770    6.4760  -13.7590 H   0  0  0  0  0  0  0  0  0  0  0  0
   -1.1150    7.9900  -14.2920 H   0  0  0  0  0  0  0  0  0  0  0  0
    0.3680    6.8470  -10.9030 H   0  0  0  0  0  0  0  0  0  0  0  0
    0.3980    8.6070  -10.6820 H   0  0  0  0  0  0  0  0  0  0  0  0
    2.1970    6.8990  -12.3310 H   0  0  0  0  0  0  0  0  0  0  0  0
    2.6170    8.3200  -11.3550 H   0  0  0  0  0  0  0  0  0  0  0  0
  2  1  1  0  0  0  0
  2  7  1  0  0  0  0
  3  2  2  0  0  0  0
  4  3  1  0  0  0  0
  4  5  2  0  0  0  0
  5  6  1  0  0  0  0
  6  7  2  0  0  0  0
  6 38  1  0  0  0  0
  7 39  1  0  0  0  0
  8  5  1  0  0  0  0
  8 40  1  1  0  0  0
  9 10  1  0  0  0  0
  9  8  1  0  0  0  0
 10 12  1  0  0  0  0
 11 10  2  0  0  0  0
 12 13  2  0  0  0  0
 12 14  1  0  0  0  0
 14 15  2  0  0  0  0
 14  8  1  0  0  0  0
 15 16  1  0  0  0  0
 17 15  1  0  0  0  0
 17 18  1  0  0  0  0
 18 26  1  0  0  0  0
 19 23  1  0  0  0  0
 19 18  1  0  0  0  0
 20 19  2  0  0  0  0
 21 20  1  0  0  0  0
 21 17  2  0  0  0  0
 22 43  1  0  0  0  0
 22 21  1  0  0  0  0
 23 24  2  0  0  0  0
 24 45  1  0  0  0  0
 24 25  1  0  0  0  0
 25 46  1  0  0  0  0
 26 47  1  0  0  0  0
 26 25  2  0  0  0  0
 27 48  1  0  0  0  0
 27  9  1  0  0  0  0
 28 27  1  0  0  0  0
 28 29  1  0  0  0  0
 29 53  1  0  0  0  0
 29 52  1  0  0  0  0
 30 29  1  0  0  0  0
 30 35  1  0  0  0  0
 31 32  1  0  0  0  0
 31 30  1  0  0  0  0
 32 33  1  0  0  0  0
 33 34  1  0  0  0  0
 34 59  1  0  0  0  0
 34 60  1  0  0  0  0
 35 34  1  0  0  0  0
 35 62  1  0  0  0  0
 36  3  1  0  0  0  0
 37  4  1  0  0  0  0
 41 22  1  0  0  0  0
 42 22  1  0  0  0  0
 44 23  1  0  0  0  0
 49 27  1  0  0  0  0
 50 28  1  0  0  0  0
 51 28  1  0  0  0  0
 54 30  1  0  0  0  0
 55 31  1  0  0  0  0
 56 31  1  0  0  0  0
 57 32  1  0  0  0  0
 58 32  1  0  0  0  0
 61 35  1  0  0  0  0
M  END
>  <Pose>
1

>  <Score>
-3.24

$$$$
