
 OpenBabel03232203513D

 44 47  0  0  0  0  0  0  0  0999 V2000
    3.9360    8.6900  -14.7380 B   0  0  0  0  0  0  0  0  0  0  0  0
    3.0030   10.1720  -13.9980 C   0  0  0  0  0  0  0  0  0  0  0  0
    1.7050   10.4680  -14.3280 C   0  0  0  0  0  0  0  0  0  0  0  0
    1.0690   11.5630  -13.7600 C   0  0  0  0  0  0  0  0  0  0  0  0
    1.6780   12.4030  -12.8530 C   0  0  0  0  0  0  0  0  0  0  0  0
    3.0090   12.0680  -12.5390 C   0  0  0  0  0  0  0  0  0  0  0  0
    3.6330   10.9970  -13.0940 C   0  0  0  0  0  0  0  0  0  0  0  0
    1.0850   13.5440  -12.2660 N   0  0  0  0  0  0  0  0  0  0  0  0
    1.6540   14.8230  -12.1930 C   0  0  0  0  0  0  0  0  0  0  0  0
    2.7800   15.0570  -12.6790 O   0  0  0  0  0  0  0  0  0  0  0  0
    0.8980   15.9510  -11.5100 C   0  0  0  0  0  0  0  0  0  0  0  0
   -0.1820   16.3740  -12.3790 N   0  0  0  0  0  0  0  0  0  0  0  0
   -0.3680   15.9300  -13.6220 N   0  0  0  0  0  0  0  0  0  0  0  0
   -1.4310   16.5040  -14.1370 N   0  0  0  0  0  0  0  0  0  0  0  0
   -1.9540   17.3440  -13.2120 C   0  0  0  0  0  0  0  0  0  0  0  0
   -1.1700   17.2510  -12.1310 C   0  0  0  0  0  0  0  0  0  0  0  0
   -1.7340   18.1170  -11.2170 C   0  0  0  0  0  0  0  0  0  0  0  0
   -1.2520   18.2940  -10.0590 O   0  0  0  0  0  0  0  0  0  0  0  0
   -2.8250   18.7260  -11.7060 N   0  0  0  0  0  0  0  0  0  0  0  0
   -2.9710   18.2390  -12.9720 C   0  0  0  0  0  0  0  0  0  0  0  0
   -3.9060   18.5960  -13.7380 O   0  0  0  0  0  0  0  0  0  0  0  0
   -3.6810   19.6870  -11.0720 C   0  0  0  0  0  0  0  0  0  0  0  0
   -3.2350   20.4400  -10.0070 C   0  0  0  0  0  0  0  0  0  0  0  0
   -4.0490   21.3750   -9.3990 C   0  0  0  0  0  0  0  0  0  0  0  0
   -5.3470   21.6020   -9.8200 C   0  0  0  0  0  0  0  0  0  0  0  0
   -5.7960   20.8500  -10.8850 C   0  0  0  0  0  0  0  0  0  0  0  0
   -4.9740   19.9140  -11.4930 C   0  0  0  0  0  0  0  0  0  0  0  0
   -6.1960   22.6210   -9.1450 C   0  0  0  0  0  0  0  0  0  0  0  0
    1.1920    9.8380  -15.0300 H   0  0  0  0  0  0  0  0  0  0  0  0
    0.0220   11.7740  -14.0330 H   0  0  0  0  0  0  0  0  0  0  0  0
    3.5050   12.7340  -11.8130 H   0  0  0  0  0  0  0  0  0  0  0  0
    4.6680   10.7750  -12.8220 H   0  0  0  0  0  0  0  0  0  0  0  0
    0.1130   13.3950  -11.8460 H   0  0  0  0  0  0  0  0  0  0  0  0
    1.5710   16.7970  -11.3410 H   0  0  0  0  0  0  0  0  0  0  0  0
    0.4640   15.5300  -10.5690 H   0  0  0  0  0  0  0  0  0  0  0  0
    0.2590   15.2350  -14.0770 H   0  0  0  0  0  0  0  0  0  0  0  0
   -1.8480   16.3740  -15.0920 H   0  0  0  0  0  0  0  0  0  0  0  0
   -2.2190   20.2730   -9.6650 H   0  0  0  0  0  0  0  0  0  0  0  0
   -3.7040   21.9800   -8.5520 H   0  0  0  0  0  0  0  0  0  0  0  0
   -6.8200   21.0120  -11.2380 H   0  0  0  0  0  0  0  0  0  0  0  0
   -5.3260   19.3200  -12.3310 H   0  0  0  0  0  0  0  0  0  0  0  0
   -6.3160   22.4150   -8.0570 H   0  0  0  0  0  0  0  0  0  0  0  0
   -7.2200   22.5290   -9.5800 H   0  0  0  0  0  0  0  0  0  0  0  0
   -5.8480   23.6490   -9.3280 H   0  0  0  0  0  0  0  0  0  0  0  0
  1  2  1  0  0  0  0
  2  7  1  0  0  0  0
  3  2  2  0  0  0  0
  3  4  1  0  0  0  0
  4  5  2  0  0  0  0
  5  6  1  0  0  0  0
  5  8  1  0  0  0  0
  6 31  1  0  0  0  0
  7 32  1  0  0  0  0
  7  6  2  0  0  0  0
  8  9  1  0  0  0  0
  8 33  1  0  0  0  0
  9 11  1  0  0  0  0
 10  9  2  0  0  0  0
 11 34  1  0  0  0  0
 11 35  1  0  0  0  0
 12 16  1  0  0  0  0
 12 11  1  0  0  0  0
 13 12  1  0  0  0  0
 14 13  1  0  0  0  0
 14 15  1  0  0  0  0
 15 20  1  0  0  0  0
 15 16  2  0  0  0  0
 16 17  1  0  0  0  0
 17 18  2  0  0  0  0
 19 17  1  0  0  0  0
 19 22  1  0  0  0  0
 20 19  1  0  0  0  0
 21 20  2  0  0  0  0
 22 23  1  0  0  0  0
 23 38  1  0  0  0  0
 23 24  2  0  0  0  0
 24 39  1  0  0  0  0
 25 24  1  0  0  0  0
 25 28  1  0  0  0  0
 26 25  2  0  0  0  0
 27 22  2  0  0  0  0
 27 26  1  0  0  0  0
 28 42  1  0  0  0  0
 29  3  1  0  0  0  0
 30  4  1  0  0  0  0
 36 13  1  0  0  0  0
 37 14  1  0  0  0  0
 40 26  1  0  0  0  0
 41 27  1  0  0  0  0
 43 28  1  0  0  0  0
 44 28  1  0  0  0  0
M  END
>  <Pose>
1

>  <Score>
-7.64

$$$$
