
 OpenBabel03232203513D

 44 47  0  0  0  0  0  0  0  0999 V2000
   -6.5600   22.5280   -8.9380 B   0  0  0  0  0  0  0  0  0  0  0  0
   -5.4370   21.3250   -9.9270 C   0  0  0  0  0  0  0  0  0  0  0  0
   -5.8330   20.8250  -11.1490 C   0  0  0  0  0  0  0  0  0  0  0  0
   -5.0260   19.9590  -11.8620 C   0  0  0  0  0  0  0  0  0  0  0  0
   -3.7910   19.5580  -11.3810 C   0  0  0  0  0  0  0  0  0  0  0  0
   -3.4140   20.0710  -10.1570 C   0  0  0  0  0  0  0  0  0  0  0  0
   -4.2100   20.9340   -9.4390 C   0  0  0  0  0  0  0  0  0  0  0  0
   -2.9760   18.6640  -12.1350 N   0  0  0  0  0  0  0  0  0  0  0  0
   -1.8830   18.0040  -11.7160 C   0  0  0  0  0  0  0  0  0  0  0  0
   -1.4140   18.0950  -10.5400 O   0  0  0  0  0  0  0  0  0  0  0  0
   -1.3490   17.2200  -12.7380 C   0  0  0  0  0  0  0  0  0  0  0  0
   -2.1430   17.4180  -13.7870 C   0  0  0  0  0  0  0  0  0  0  0  0
   -1.6100   16.6550  -14.7580 N   0  0  0  0  0  0  0  0  0  0  0  0
   -0.5390   16.0210  -14.3100 N   0  0  0  0  0  0  0  0  0  0  0  0
   -0.3690   16.3650  -13.0570 N   0  0  0  0  0  0  0  0  0  0  0  0
    0.6710   15.9230  -12.1630 C   0  0  0  0  0  0  0  0  0  0  0  0
    0.5980   14.4460  -11.9070 C   0  0  0  0  0  0  0  0  0  0  0  0
   -0.5600   14.0140  -11.6900 O   0  0  0  0  0  0  0  0  0  0  0  0
    1.7280   13.6240  -11.9100 N   0  0  0  0  0  0  0  0  0  0  0  0
    1.9670   12.5130  -12.7270 C   0  0  0  0  0  0  0  0  0  0  0  0
    3.3010   12.1030  -12.8780 C   0  0  0  0  0  0  0  0  0  0  0  0
    3.5810   11.0180  -13.6700 C   0  0  0  0  0  0  0  0  0  0  0  0
    2.6060   10.3020  -14.3320 C   0  0  0  0  0  0  0  0  0  0  0  0
    1.3080   10.6950  -14.1910 C   0  0  0  0  0  0  0  0  0  0  0  0
    1.0150   11.7850  -13.3970 C   0  0  0  0  0  0  0  0  0  0  0  0
    4.4060   12.8130  -12.2040 C   0  0  0  0  0  0  0  0  0  0  0  0
   -3.1410   18.3010  -13.4270 C   0  0  0  0  0  0  0  0  0  0  0  0
   -4.0700   18.7250  -14.1490 O   0  0  0  0  0  0  0  0  0  0  0  0
   -6.7940   21.1130  -11.5640 H   0  0  0  0  0  0  0  0  0  0  0  0
   -5.3320   19.5580  -12.8310 H   0  0  0  0  0  0  0  0  0  0  0  0
   -2.4600   19.7770   -9.7580 H   0  0  0  0  0  0  0  0  0  0  0  0
   -3.9230   21.3460   -8.4700 H   0  0  0  0  0  0  0  0  0  0  0  0
   -2.0390   16.6140  -15.7180 H   0  0  0  0  0  0  0  0  0  0  0  0
    0.0300   15.3730  -14.9020 H   0  0  0  0  0  0  0  0  0  0  0  0
    1.6840   16.0830  -12.6240 H   0  0  0  0  0  0  0  0  0  0  0  0
    0.5670   16.4990  -11.2170 H   0  0  0  0  0  0  0  0  0  0  0  0
    2.4800   13.9030  -11.1930 H   0  0  0  0  0  0  0  0  0  0  0  0
    4.6120   10.6640  -13.8130 H   0  0  0  0  0  0  0  0  0  0  0  0
    2.8430    9.4390  -14.9600 H   0  0  0  0  0  0  0  0  0  0  0  0
    0.5210   10.1390  -14.7100 H   0  0  0  0  0  0  0  0  0  0  0  0
   -0.0180   12.0480  -13.3230 H   0  0  0  0  0  0  0  0  0  0  0  0
    5.3750   12.4790  -12.6220 H   0  0  0  0  0  0  0  0  0  0  0  0
    4.3480   13.9100  -12.4130 H   0  0  0  0  0  0  0  0  0  0  0  0
    4.4430   12.6470  -11.1150 H   0  0  0  0  0  0  0  0  0  0  0  0
  2  7  1  0  0  0  0
  2  1  1  0  0  0  0
  3  2  2  0  0  0  0
  4  5  2  0  0  0  0
  4  3  1  0  0  0  0
  5  6  1  0  0  0  0
  6 31  1  0  0  0  0
  6  7  2  0  0  0  0
  7 32  1  0  0  0  0
  8  9  1  0  0  0  0
  8  5  1  0  0  0  0
  9 10  2  0  0  0  0
 11  9  1  0  0  0  0
 12 27  1  0  0  0  0
 12 11  2  0  0  0  0
 13 14  1  0  0  0  0
 13 12  1  0  0  0  0
 14 15  1  0  0  0  0
 15 11  1  0  0  0  0
 15 16  1  0  0  0  0
 16 17  1  0  0  0  0
 16 36  1  0  0  0  0
 17 18  2  0  0  0  0
 19 17  1  0  0  0  0
 19 37  1  0  0  0  0
 20 19  1  0  0  0  0
 21 20  1  0  0  0  0
 21 26  1  0  0  0  0
 22 21  2  0  0  0  0
 23 24  2  0  0  0  0
 23 22  1  0  0  0  0
 24 25  1  0  0  0  0
 25 41  1  0  0  0  0
 25 20  2  0  0  0  0
 26 44  1  0  0  0  0
 27  8  1  0  0  0  0
 28 27  2  0  0  0  0
 29  3  1  0  0  0  0
 30  4  1  0  0  0  0
 33 13  1  0  0  0  0
 34 14  1  0  0  0  0
 35 16  1  0  0  0  0
 38 22  1  0  0  0  0
 39 23  1  0  0  0  0
 40 24  1  0  0  0  0
 42 26  1  0  0  0  0
 43 26  1  0  0  0  0
M  END
>  <Pose>
1

>  <Score>
-7.07

$$$$
