
 OpenBabel03232203513D

 49 52  0  0  0  0  0  0  0  0999 V2000
    5.1000    3.9690  -13.0220 B   0  0  0  0  0  0  0  0  0  0  0  0
    4.1280    5.6310  -13.1290 C   0  0  0  0  0  0  0  0  0  0  0  0
    4.6720    6.7340  -13.7400 C   0  0  0  0  0  0  0  0  0  0  0  0
    3.9640    7.9440  -13.8140 C   0  0  0  0  0  0  0  0  0  0  0  0
    2.7050    8.0500  -13.2750 C   0  0  0  0  0  0  0  0  0  0  0  0
    2.1800    6.9290  -12.6690 C   0  0  0  0  0  0  0  0  0  0  0  0
    2.8660    5.7400  -12.5900 C   0  0  0  0  0  0  0  0  0  0  0  0
    1.9780    9.2800  -13.3450 N   0  0  0  0  0  0  0  0  0  0  0  0
    2.2910   10.4890  -12.8730 C   0  0  0  0  0  0  0  0  0  0  0  0
    3.3640   10.7510  -12.2330 O   0  0  0  0  0  0  0  0  0  0  0  0
    1.3360   11.4440  -13.1370 C   0  0  0  0  0  0  0  0  0  0  0  0
    0.3830   10.7740  -13.8140 C   0  0  0  0  0  0  0  0  0  0  0  0
   -0.5720   11.6950  -14.0890 N   0  0  0  0  0  0  0  0  0  0  0  0
   -0.2200   12.8730  -13.6040 N   0  0  0  0  0  0  0  0  0  0  0  0
    0.9510   12.7240  -13.0200 N   0  0  0  0  0  0  0  0  0  0  0  0
    1.6790   13.7760  -12.3710 C   0  0  0  0  0  0  0  0  0  0  0  0
    1.0570   15.0910  -12.5000 C   0  0  0  0  0  0  0  0  0  0  0  0
    1.5350   16.0000  -13.2400 O   0  0  0  0  0  0  0  0  0  0  0  0
   -0.1190   15.3480  -11.7610 N   0  0  0  0  0  0  0  0  0  0  0  0
   -1.0140   16.3470  -12.2200 C   0  0  0  0  0  0  0  0  0  0  0  0
   -1.1900   17.4350  -11.4020 C   0  0  0  0  0  0  0  0  0  0  0  0
   -2.0800   18.4520  -11.7690 C   0  0  0  0  0  0  0  0  0  0  0  0
   -2.7750   18.3570  -12.9460 C   0  0  0  0  0  0  0  0  0  0  0  0
   -2.6070   17.2590  -13.7860 C   0  0  0  0  0  0  0  0  0  0  0  0
   -1.7180   16.2700  -13.3940 C   0  0  0  0  0  0  0  0  0  0  0  0
   -3.3440   17.2290  -14.9520 O   0  0  0  0  0  0  0  0  0  0  0  0
   -2.8570   17.1040  -16.2510 C   0  0  0  0  0  0  0  0  0  0  0  0
   -2.1750   19.4940  -10.8780 O   0  0  0  0  0  0  0  0  0  0  0  0
   -3.3560   20.1100  -10.5160 C   0  0  0  0  0  0  0  0  0  0  0  0
    0.7610    9.4590  -13.9470 C   0  0  0  0  0  0  0  0  0  0  0  0
    0.1460    8.5220  -14.5110 O   0  0  0  0  0  0  0  0  0  0  0  0
    5.6580    6.6570  -14.1660 H   0  0  0  0  0  0  0  0  0  0  0  0
    4.4160    8.7990  -14.2970 H   0  0  0  0  0  0  0  0  0  0  0  0
    1.1790    7.0390  -12.2470 H   0  0  0  0  0  0  0  0  0  0  0  0
    2.4400    4.8630  -12.1100 H   0  0  0  0  0  0  0  0  0  0  0  0
   -1.4540   11.4770  -14.6090 H   0  0  0  0  0  0  0  0  0  0  0  0
   -0.8180   13.7370  -13.7010 H   0  0  0  0  0  0  0  0  0  0  0  0
    1.8360   13.5650  -11.2800 H   0  0  0  0  0  0  0  0  0  0  0  0
    2.7300   13.8660  -12.7740 H   0  0  0  0  0  0  0  0  0  0  0  0
   -0.3300   14.8000  -10.8700 H   0  0  0  0  0  0  0  0  0  0  0  0
   -0.6300   17.5050  -10.4600 H   0  0  0  0  0  0  0  0  0  0  0  0
   -3.4560   19.1550  -13.2090 H   0  0  0  0  0  0  0  0  0  0  0  0
   -1.5810   15.4150  -14.0470 H   0  0  0  0  0  0  0  0  0  0  0  0
   -3.5160   17.6570  -16.9590 H   0  0  0  0  0  0  0  0  0  0  0  0
   -2.9050   16.0330  -16.6090 H   0  0  0  0  0  0  0  0  0  0  0  0
   -1.8230   17.4710  -16.3910 H   0  0  0  0  0  0  0  0  0  0  0  0
   -3.3370   20.3590   -9.4270 H   0  0  0  0  0  0  0  0  0  0  0  0
   -4.2460   19.5170  -10.7120 H   0  0  0  0  0  0  0  0  0  0  0  0
   -3.3970   21.1070  -11.0490 H   0  0  0  0  0  0  0  0  0  0  0  0
  2  1  1  0  0  0  0
  2  7  1  0  0  0  0
  3  2  2  0  0  0  0
  4  3  1  0  0  0  0
  4  5  2  0  0  0  0
  5  6  1  0  0  0  0
  6  7  2  0  0  0  0
  6 34  1  0  0  0  0
  7 35  1  0  0  0  0
  8  5  1  0  0  0  0
  8  9  1  0  0  0  0
  9 10  2  0  0  0  0
 11 15  1  0  0  0  0
 11  9  1  0  0  0  0
 12 11  2  0  0  0  0
 13 12  1  0  0  0  0
 13 14  1  0  0  0  0
 14 15  1  0  0  0  0
 15 16  1  0  0  0  0
 16 38  1  0  0  0  0
 17 16  1  0  0  0  0
 17 19  1  0  0  0  0
 18 17  2  0  0  0  0
 19 40  1  0  0  0  0
 20 19  1  0  0  0  0
 20 21  1  0  0  0  0
 21 41  1  0  0  0  0
 22 21  2  0  0  0  0
 22 28  1  0  0  0  0
 23 22  1  0  0  0  0
 24 25  1  0  0  0  0
 24 23  2  0  0  0  0
 25 20  2  0  0  0  0
 26 24  1  0  0  0  0
 27 26  1  0  0  0  0
 28 29  1  0  0  0  0
 29 47  1  0  0  0  0
 30 12  1  0  0  0  0
 30  8  1  0  0  0  0
 31 30  2  0  0  0  0
 32  3  1  0  0  0  0
 33  4  1  0  0  0  0
 36 13  1  0  0  0  0
 37 14  1  0  0  0  0
 39 16  1  0  0  0  0
 42 23  1  0  0  0  0
 43 25  1  0  0  0  0
 44 27  1  0  0  0  0
 45 27  1  0  0  0  0
 46 27  1  0  0  0  0
 48 29  1  0  0  0  0
 49 29  1  0  0  0  0
M  END
>  <Pose>
1

>  <Score>
-7.21

$$$$
