
 OpenBabel03232203513D

 50 53  0  0  0  0  0  0  0  0999 V2000
    5.9650    5.6500  -13.3610 B   0  0  0  0  0  0  0  0  0  0  0  0
    4.3810    6.7010  -13.4070 C   0  0  0  0  0  0  0  0  0  0  0  0
    3.2540    6.3990  -12.6730 C   0  0  0  0  0  0  0  0  0  0  0  0
    2.1360    7.1710  -12.7270 C   0  0  0  0  0  0  0  0  0  0  0  0
    2.0830    8.3020  -13.5280 C   0  0  0  0  0  0  0  0  0  0  0  0
    3.1980    8.6140  -14.2630 C   0  0  0  0  0  0  0  0  0  0  0  0
    4.3160    7.8270  -14.1980 C   0  0  0  0  0  0  0  0  0  0  0  0
    0.8940    9.0870  -13.5600 N   0  0  0  0  0  0  0  0  0  0  0  0
   -0.3350    8.5790  -13.8310 C   0  0  0  0  0  0  0  0  0  0  0  0
   -0.6040    7.3650  -14.0890 O   0  0  0  0  0  0  0  0  0  0  0  0
   -1.2760    9.5940  -13.7850 C   0  0  0  0  0  0  0  0  0  0  0  0
   -0.5960   10.6980  -13.4860 C   0  0  0  0  0  0  0  0  0  0  0  0
   -1.4970   11.7100  -13.4360 N   0  0  0  0  0  0  0  0  0  0  0  0
   -2.6920   11.1920  -13.7030 N   0  0  0  0  0  0  0  0  0  0  0  0
   -2.5950    9.8950  -13.9230 N   0  0  0  0  0  0  0  0  0  0  0  0
   -3.6410    8.9330  -14.2490 C   0  0  0  0  0  0  0  0  0  0  0  0
   -4.9250    9.3540  -13.5750 C   0  0  0  0  0  0  0  0  0  0  0  0
   -4.7370    9.7970  -12.4150 O   0  0  0  0  0  0  0  0  0  0  0  0
   -6.1380    9.2270  -14.2490 N   0  0  0  0  0  0  0  0  0  0  0  0
   -7.1130   10.2330  -14.4570 C   0  0  0  0  0  0  0  0  0  0  0  0
   -7.4900   11.1750  -13.5300 C   0  0  0  0  0  0  0  0  0  0  0  0
   -8.4660   12.1410  -13.8130 C   0  0  0  0  0  0  0  0  0  0  0  0
   -9.0910   12.1880  -15.0360 C   0  0  0  0  0  0  0  0  0  0  0  0
   -8.7220   11.2520  -15.9710 C   0  0  0  0  0  0  0  0  0  0  0  0
   -7.7600   10.3010  -15.6900 C   0  0  0  0  0  0  0  0  0  0  0  0
  -10.1010   13.2110  -15.2870 C   0  0  0  0  0  0  0  0  0  0  0  0
   -9.9880   14.3130  -14.6930 O   0  0  0  0  0  0  0  0  0  0  0  0
  -11.1690   13.0540  -16.1260 O   0  0  0  0  0  0  0  0  0  0  0  0
  -11.3240   13.6390  -17.3870 C   0  0  0  0  0  0  0  0  0  0  0  0
  -12.4670   14.6560  -17.2580 C   0  0  0  0  0  0  0  0  0  0  0  0
    0.7380   10.4010  -13.3460 C   0  0  0  0  0  0  0  0  0  0  0  0
    1.6640   11.1950  -13.0670 O   0  0  0  0  0  0  0  0  0  0  0  0
    3.2950    5.5150  -12.0460 H   0  0  0  0  0  0  0  0  0  0  0  0
    1.2550    6.8950  -12.1260 H   0  0  0  0  0  0  0  0  0  0  0  0
    3.1920    9.4900  -14.8980 H   0  0  0  0  0  0  0  0  0  0  0  0
    5.2150    8.0660  -14.7800 H   0  0  0  0  0  0  0  0  0  0  0  0
   -1.2780   12.7040  -13.2240 H   0  0  0  0  0  0  0  0  0  0  0  0
   -3.5710   11.7370  -13.7330 H   0  0  0  0  0  0  0  0  0  0  0  0
   -3.7760    8.8280  -15.3410 H   0  0  0  0  0  0  0  0  0  0  0  0
   -3.2940    7.9500  -13.8650 H   0  0  0  0  0  0  0  0  0  0  0  0
   -6.3440    8.2570  -14.6490 H   0  0  0  0  0  0  0  0  0  0  0  0
   -7.0210   11.1620  -12.5690 H   0  0  0  0  0  0  0  0  0  0  0  0
   -8.7390   12.8730  -13.0500 H   0  0  0  0  0  0  0  0  0  0  0  0
   -9.2230   11.3000  -16.9390 H   0  0  0  0  0  0  0  0  0  0  0  0
   -7.4900    9.5680  -16.4620 H   0  0  0  0  0  0  0  0  0  0  0  0
  -10.4380   14.2060  -17.7320 H   0  0  0  0  0  0  0  0  0  0  0  0
  -11.5920   12.9250  -18.1890 H   0  0  0  0  0  0  0  0  0  0  0  0
  -12.0890   15.5240  -16.6440 H   0  0  0  0  0  0  0  0  0  0  0  0
  -13.3180   14.2300  -16.7010 H   0  0  0  0  0  0  0  0  0  0  0  0
  -12.8240   15.0010  -18.2300 H   0  0  0  0  0  0  0  0  0  0  0  0
  2  1  1  0  0  0  0
  2  3  1  0  0  0  0
  3 33  1  0  0  0  0
  4  3  2  0  0  0  0
  4 34  1  0  0  0  0
  5  4  1  0  0  0  0
  6  7  1  0  0  0  0
  6  5  2  0  0  0  0
  7  2  2  0  0  0  0
  8  5  1  0  0  0  0
  8 31  1  0  0  0  0
  9 11  1  0  0  0  0
  9  8  1  0  0  0  0
 10  9  2  0  0  0  0
 11 12  2  0  0  0  0
 12 13  1  0  0  0  0
 12 31  1  0  0  0  0
 13 37  1  0  0  0  0
 14 13  1  0  0  0  0
 15 11  1  0  0  0  0
 15 14  1  0  0  0  0
 16 15  1  0  0  0  0
 16 40  1  0  0  0  0
 16 17  1  0  0  0  0
 17 18  2  0  0  0  0
 19 17  1  0  0  0  0
 20 19  1  0  0  0  0
 20 21  1  0  0  0  0
 21 42  1  0  0  0  0
 22 21  2  0  0  0  0
 22 43  1  0  0  0  0
 23 22  1  0  0  0  0
 24 25  1  0  0  0  0
 24 23  2  0  0  0  0
 25 20  2  0  0  0  0
 26 23  1  0  0  0  0
 26 27  2  0  0  0  0
 28 26  1  0  0  0  0
 29 30  1  0  0  0  0
 29 28  1  0  0  0  0
 30 49  1  0  0  0  0
 30 48  1  0  0  0  0
 31 32  2  0  0  0  0
 35  6  1  0  0  0  0
 36  7  1  0  0  0  0
 38 14  1  0  0  0  0
 39 16  1  0  0  0  0
 41 19  1  0  0  0  0
 44 24  1  0  0  0  0
 45 25  1  0  0  0  0
 46 29  1  0  0  0  0
 47 29  1  0  0  0  0
 50 30  1  0  0  0  0
M  END
>  <Pose>
1

>  <Score>
-7.32

$$$$
