
 OpenBabel03232203513D

 41 44  0  0  1  0  0  0  0  0999 V2000
   -1.1380   17.7930  -11.7480 B   0  0  0  0  0  0  0  0  0  0  0  0
   -0.2900   16.1080  -12.1470 C   0  0  0  0  0  0  0  0  0  0  0  0
   -0.8100   15.3050  -13.1290 C   0  0  0  0  0  0  0  0  0  0  0  0
   -0.2000   14.1210  -13.3960 C   0  0  0  0  0  0  0  0  0  0  0  0
    0.9390   13.6590  -12.7250 C   0  0  0  0  0  0  0  0  0  0  0  0
    1.4380   14.4790  -11.7490 C   0  0  0  0  0  0  0  0  0  0  0  0
    0.8330   15.6880  -11.4610 C   0  0  0  0  0  0  0  0  0  0  0  0
    1.5090   12.4130  -13.0670 N   0  0  0  0  0  0  0  0  0  0  0  0
    2.8850   11.9970  -12.9630 C   0  0  0  0  0  0  0  0  0  0  0  0
    3.7490   12.4700  -12.1720 O   0  0  0  0  0  0  0  0  0  0  0  0
    3.0830   10.9160  -13.9560 C   0  0  1  0  0  0  0  0  0  0  0  0
    4.0210    9.8900  -13.5460 N   0  0  0  0  0  0  0  0  0  0  0  0
    3.3690    8.7580  -14.1240 N   0  0  0  0  0  0  0  0  0  0  0  0
    1.9630    8.8890  -13.9160 C   0  0  0  0  0  0  0  0  0  0  0  0
    1.7610   10.1970  -13.8090 C   0  0  0  0  0  0  0  0  0  0  0  0
    0.8090   11.2810  -13.5980 C   0  0  0  0  0  0  0  0  0  0  0  0
   -0.4160   11.1470  -13.8700 O   0  0  0  0  0  0  0  0  0  0  0  0
    0.9580    7.8340  -13.8420 C   0  0  0  0  0  0  0  0  0  0  0  0
   -0.2280    8.0250  -14.2000 O   0  0  0  0  0  0  0  0  0  0  0  0
    1.2550    6.5630  -13.3730 O   0  0  0  0  0  0  0  0  0  0  0  0
    2.1590    6.3560  -12.2970 C   0  0  0  0  0  0  0  0  0  0  0  0
    3.2690    5.4530  -12.7500 C   0  0  0  0  0  0  0  0  0  0  0  0
    4.4960    5.9860  -13.1420 C   0  0  0  0  0  0  0  0  0  0  0  0
    5.5350    5.1980  -13.5570 C   0  0  0  0  0  0  0  0  0  0  0  0
    5.3620    3.8170  -13.5900 C   0  0  0  0  0  0  0  0  0  0  0  0
    4.1480    3.2940  -13.2030 C   0  0  0  0  0  0  0  0  0  0  0  0
    3.0950    4.1080  -12.7800 C   0  0  0  0  0  0  0  0  0  0  0  0
   -1.6960   15.6330  -13.6740 H   0  0  0  0  0  0  0  0  0  0  0  0
   -0.6060   13.4860  -14.1700 H   0  0  0  0  0  0  0  0  0  0  0  0
    2.3170   14.1920  -11.1860 H   0  0  0  0  0  0  0  0  0  0  0  0
    1.2210   16.3410  -10.6930 H   0  0  0  0  0  0  0  0  0  0  0  0
    3.2490   11.2690  -14.9750 H   0  0  0  0  0  0  0  0  0  0  0  0
    3.8690    9.7800  -12.5040 H   0  0  0  0  0  0  0  0  0  0  0  0
    3.8300    7.9670  -14.6150 H   0  0  0  0  0  0  0  0  0  0  0  0
    2.5460    7.2860  -11.8800 H   0  0  0  0  0  0  0  0  0  0  0  0
    1.6180    5.8110  -11.5000 H   0  0  0  0  0  0  0  0  0  0  0  0
    4.6400    7.0440  -13.1190 H   0  0  0  0  0  0  0  0  0  0  0  0
    6.4870    5.6040  -13.8630 H   0  0  0  0  0  0  0  0  0  0  0  0
    6.1680    3.1610  -13.9170 H   0  0  0  0  0  0  0  0  0  0  0  0
    3.9560    2.2410  -13.2070 H   0  0  0  0  0  0  0  0  0  0  0  0
    2.1580    3.6660  -12.4820 H   0  0  0  0  0  0  0  0  0  0  0  0
  2  1  1  0  0  0  0
  2  7  1  0  0  0  0
  3  2  2  0  0  0  0
  4  3  1  0  0  0  0
  4  5  2  0  0  0  0
  5  6  1  0  0  0  0
  6  7  2  0  0  0  0
  6 30  1  0  0  0  0
  7 31  1  0  0  0  0
  8  9  1  0  0  0  0
  8  5  1  0  0  0  0
  9 10  2  0  0  0  0
 11 32  1  6  0  0  0
 11 15  1  0  0  0  0
 11 12  1  0  0  0  0
 11  9  1  0  0  0  0
 12 33  1  0  0  0  0
 13 14  1  0  0  0  0
 13 12  1  0  0  0  0
 14 18  1  0  0  0  0
 14 15  2  0  0  0  0
 15 16  1  0  0  0  0
 16  8  1  0  0  0  0
 17 16  2  0  0  0  0
 18 20  1  0  0  0  0
 19 18  2  0  0  0  0
 20 21  1  0  0  0  0
 21 35  1  0  0  0  0
 21 36  1  0  0  0  0
 22 21  1  0  0  0  0
 23 37  1  0  0  0  0
 23 22  2  0  0  0  0
 24 23  1  0  0  0  0
 25 24  2  0  0  0  0
 25 26  1  0  0  0  0
 26 27  2  0  0  0  0
 27 22  1  0  0  0  0
 27 41  1  0  0  0  0
 28  3  1  0  0  0  0
 29  4  1  0  0  0  0
 34 13  1  0  0  0  0
 38 24  1  0  0  0  0
 39 25  1  0  0  0  0
 40 26  1  0  0  0  0
M  END
>  <Pose>
1

>  <Score>
-6.31

$$$$
