
 OpenBabel03232203513D

 56 59  0  0  1  0  0  0  0  0999 V2000
    9.6860    4.1200  -11.2310 B   0  0  0  0  0  0  0  0  0  0  0  0
    8.4100    5.2450  -12.0780 C   0  0  0  0  0  0  0  0  0  0  0  0
    7.2870    4.6810  -12.6200 C   0  0  0  0  0  0  0  0  0  0  0  0
    6.3590    5.4930  -13.2350 C   0  0  0  0  0  0  0  0  0  0  0  0
    6.5190    6.8610  -13.3250 C   0  0  0  0  0  0  0  0  0  0  0  0
    7.6900    7.4120  -12.7560 C   0  0  0  0  0  0  0  0  0  0  0  0
    8.6000    6.6100  -12.1530 C   0  0  0  0  0  0  0  0  0  0  0  0
    5.6700    7.6810  -13.8950 O   0  0  0  0  0  0  0  0  0  0  0  0
    4.6520    8.0250  -14.6550 C   0  0  0  0  0  0  0  0  0  0  0  0
    4.0450    9.3600  -14.3590 C   0  0  1  0  0  0  0  0  0  0  0  0
    3.4930    9.8450  -15.5530 O   0  0  0  0  0  0  0  0  0  0  0  0
    3.0720    9.4250  -13.2180 C   0  0  0  0  0  0  0  0  0  0  0  0
    2.1220   10.5140  -13.2700 N   0  0  0  0  0  0  0  0  0  0  0  0
    2.3670   11.8000  -12.9300 C   0  0  0  0  0  0  0  0  0  0  0  0
    1.1970   12.5130  -13.0560 C   0  0  0  0  0  0  0  0  0  0  0  0
    0.3000   11.6400  -13.4670 N   0  0  0  0  0  0  0  0  0  0  0  0
    0.8310   10.3860  -13.6170 C   0  0  0  0  0  0  0  0  0  0  0  0
    0.0880    9.2600  -14.1210 N   0  0  0  0  0  0  0  0  0  0  0  0
   -1.1210    8.9490  -13.3260 C   0  0  0  0  0  0  0  0  0  0  0  0
   -2.0580    8.0120  -13.9730 C   0  0  0  0  0  0  0  0  0  0  0  0
   -1.4060    7.0030  -14.7690 N   0  0  0  0  0  0  0  0  0  0  0  0
   -0.7410    7.7000  -15.8250 C   0  0  0  0  0  0  0  0  0  0  0  0
    0.4230    8.5390  -15.2970 C   0  0  0  0  0  0  0  0  0  0  0  0
   -0.5840    6.1350  -13.9930 C   0  0  0  0  0  0  0  0  0  0  0  0
    1.0840   13.8480  -12.7910 N   0  0  0  0  0  0  0  0  0  0  0  0
    2.1830   14.4870  -12.3870 C   0  0  0  0  0  0  0  0  0  0  0  0
    2.0970   15.7200  -12.1370 O   0  0  0  0  0  0  0  0  0  0  0  0
    3.3370   13.8200  -12.2570 N   0  0  0  0  0  0  0  0  0  0  0  0
    3.4790   12.4980  -12.5110 C   0  0  0  0  0  0  0  0  0  0  0  0
    4.5610   11.9070  -12.3830 O   0  0  0  0  0  0  0  0  0  0  0  0
   -0.2090   14.5160  -12.9470 C   0  0  0  0  0  0  0  0  0  0  0  0
    7.1280    3.6050  -12.5610 H   0  0  0  0  0  0  0  0  0  0  0  0
    5.5030    4.9970  -13.6520 H   0  0  0  0  0  0  0  0  0  0  0  0
    7.8260    8.4790  -12.8220 H   0  0  0  0  0  0  0  0  0  0  0  0
    9.4980    7.0630  -11.7140 H   0  0  0  0  0  0  0  0  0  0  0  0
    4.8880    7.9850  -15.7920 H   0  0  0  0  0  0  0  0  0  0  0  0
    3.7570    7.2870  -14.5760 H   0  0  0  0  0  0  0  0  0  0  0  0
    4.8960   10.0480  -14.0420 H   0  0  0  0  0  0  0  0  0  0  0  0
    4.2450   10.0740  -16.1890 H   0  0  0  0  0  0  0  0  0  0  0  0
    3.5610    9.2890  -12.2380 H   0  0  0  0  0  0  0  0  0  0  0  0
    2.4770    8.4570  -13.3170 H   0  0  0  0  0  0  0  0  0  0  0  0
   -0.7990    8.6440  -12.3030 H   0  0  0  0  0  0  0  0  0  0  0  0
   -1.6610    9.9280  -13.1710 H   0  0  0  0  0  0  0  0  0  0  0  0
   -2.7230    7.5930  -13.2070 H   0  0  0  0  0  0  0  0  0  0  0  0
   -2.7020    8.5910  -14.7000 H   0  0  0  0  0  0  0  0  0  0  0  0
   -0.3290    6.9630  -16.5610 H   0  0  0  0  0  0  0  0  0  0  0  0
   -1.4560    8.3230  -16.3600 H   0  0  0  0  0  0  0  0  0  0  0  0
    0.5480    9.3150  -16.1170 H   0  0  0  0  0  0  0  0  0  0  0  0
    1.2540    7.8290  -15.2420 H   0  0  0  0  0  0  0  0  0  0  0  0
   -1.1130    5.1450  -13.8850 H   0  0  0  0  0  0  0  0  0  0  0  0
    0.4230    5.9460  -14.4040 H   0  0  0  0  0  0  0  0  0  0  0  0
   -0.4280    6.4750  -12.9370 H   0  0  0  0  0  0  0  0  0  0  0  0
    4.1720   14.3530  -11.9390 H   0  0  0  0  0  0  0  0  0  0  0  0
   -0.2500   15.4580  -12.3950 H   0  0  0  0  0  0  0  0  0  0  0  0
   -0.9660   13.8480  -12.4820 H   0  0  0  0  0  0  0  0  0  0  0  0
   -0.4300   14.6980  -14.0110 H   0  0  0  0  0  0  0  0  0  0  0  0
  2  1  1  0  0  0  0
  3 32  1  0  0  0  0
  3  2  2  0  0  0  0
  4  3  1  0  0  0  0
  5  4  2  0  0  0  0
  5  6  1  0  0  0  0
  6  7  2  0  0  0  0
  7  2  1  0  0  0  0
  7 35  1  0  0  0  0
  8  5  1  0  0  0  0
  9 37  1  0  0  0  0
  9 10  1  0  0  0  0
  9  8  1  0  0  0  0
 10 38  1  1  0  0  0
 10 12  1  0  0  0  0
 11 10  1  0  0  0  0
 12 40  1  0  0  0  0
 13 12  1  0  0  0  0
 13 14  1  0  0  0  0
 14 29  1  0  0  0  0
 15 14  2  0  0  0  0
 15 25  1  0  0  0  0
 16 15  1  0  0  0  0
 17 16  2  0  0  0  0
 17 13  1  0  0  0  0
 18 17  1  0  0  0  0
 18 19  1  0  0  0  0
 19 43  1  0  0  0  0
 19 42  1  0  0  0  0
 20 19  1  0  0  0  0
 20 44  1  0  0  0  0
 21 24  1  0  0  0  0
 21 20  1  0  0  0  0
 22 23  1  0  0  0  0
 22 21  1  0  0  0  0
 23 49  1  0  0  0  0
 23 18  1  0  0  0  0
 24 50  1  0  0  0  0
 24 52  1  0  0  0  0
 25 26  1  0  0  0  0
 26 28  1  0  0  0  0
 26 27  2  0  0  0  0
 28 53  1  0  0  0  0
 29 30  2  0  0  0  0
 29 28  1  0  0  0  0
 31 25  1  0  0  0  0
 31 55  1  0  0  0  0
 31 54  1  0  0  0  0
 33  4  1  0  0  0  0
 34  6  1  0  0  0  0
 36  9  1  0  0  0  0
 39 11  1  0  0  0  0
 41 12  1  0  0  0  0
 45 20  1  0  0  0  0
 46 22  1  0  0  0  0
 47 22  1  0  0  0  0
 48 23  1  0  0  0  0
 51 24  1  0  0  0  0
 56 31  1  0  0  0  0
M  END
>  <Pose>
1

>  <Score>
-6.22

$$$$
