
 OpenBabel03232203513D

 49 52  0  0  0  0  0  0  0  0999 V2000
    2.8310   10.2200  -14.6150 B   0  0  0  0  0  0  0  0  0  0  0  0
    3.1790    8.4430  -14.0060 C   0  0  0  0  0  0  0  0  0  0  0  0
    4.4300    7.8890  -14.1520 C   0  0  0  0  0  0  0  0  0  0  0  0
    4.6960    6.6140  -13.7190 C   0  0  0  0  0  0  0  0  0  0  0  0
    3.6800    5.9100  -13.1370 C   0  0  0  0  0  0  0  0  0  0  0  0
    2.4140    6.4750  -12.9910 C   0  0  0  0  0  0  0  0  0  0  0  0
    2.1210    7.7540  -13.4170 C   0  0  0  0  0  0  0  0  0  0  0  0
    0.7890    8.3880  -13.2530 C   0  0  0  0  0  0  0  0  0  0  0  0
   -0.2060    7.6890  -14.0430 N   0  0  0  0  0  0  0  0  0  0  0  0
    0.4450    7.1000  -15.2430 C   0  0  0  0  0  0  0  0  0  0  0  0
   -0.7380    6.6100  -16.0720 C   0  0  0  0  0  0  0  0  0  0  0  0
   -1.9700    6.6120  -15.3740 N   0  0  0  0  0  0  0  0  0  0  0  0
   -1.8850    5.9930  -14.0770 C   0  0  0  0  0  0  0  0  0  0  0  0
   -0.6830    6.4990  -13.3360 C   0  0  0  0  0  0  0  0  0  0  0  0
   -2.7800    7.7680  -15.4550 C   0  0  0  0  0  0  0  0  0  0  0  0
   -4.1420    7.5720  -15.9160 C   0  0  0  0  0  0  0  0  0  0  0  0
   -4.5080    6.4810  -16.4020 O   0  0  0  0  0  0  0  0  0  0  0  0
   -5.0970    8.6110  -15.8270 N   0  0  0  0  0  0  0  0  0  0  0  0
   -5.9160    8.8220  -14.6390 C   0  0  0  0  0  0  0  0  0  0  0  0
   -6.5630   10.1220  -14.3970 C   0  0  0  0  0  0  0  0  0  0  0  0
   -5.3240    9.7930  -13.6210 C   0  0  0  0  0  0  0  0  0  0  0  0
    3.9270    4.6210  -12.6930 O   0  0  0  0  0  0  0  0  0  0  0  0
    5.0770    3.8890  -13.0320 C   0  0  0  0  0  0  0  0  0  0  0  0
    6.2530    4.7870  -13.2460 C   0  0  0  0  0  0  0  0  0  0  0  0
    5.9440    6.0190  -13.8460 O   0  0  0  0  0  0  0  0  0  0  0  0
    5.2560    8.4340  -14.6130 H   0  0  0  0  0  0  0  0  0  0  0  0
    1.6880    5.8620  -12.5180 H   0  0  0  0  0  0  0  0  0  0  0  0
    0.7940    9.4600  -13.4800 H   0  0  0  0  0  0  0  0  0  0  0  0
    0.4980    8.2640  -12.1800 H   0  0  0  0  0  0  0  0  0  0  0  0
    1.0730    7.8190  -15.7630 H   0  0  0  0  0  0  0  0  0  0  0  0
    1.0590    6.2570  -14.8690 H   0  0  0  0  0  0  0  0  0  0  0  0
   -0.4960    5.5360  -16.3310 H   0  0  0  0  0  0  0  0  0  0  0  0
   -0.7780    7.1230  -17.0540 H   0  0  0  0  0  0  0  0  0  0  0  0
   -1.8740    4.8810  -14.1930 H   0  0  0  0  0  0  0  0  0  0  0  0
   -2.8340    6.1880  -13.4960 H   0  0  0  0  0  0  0  0  0  0  0  0
   -0.7870    6.6140  -12.2630 H   0  0  0  0  0  0  0  0  0  0  0  0
    0.1060    5.6900  -13.4560 H   0  0  0  0  0  0  0  0  0  0  0  0
   -2.7950    8.3080  -14.4790 H   0  0  0  0  0  0  0  0  0  0  0  0
   -2.2860    8.5000  -16.1570 H   0  0  0  0  0  0  0  0  0  0  0  0
   -5.2700    9.2950  -16.6190 H   0  0  0  0  0  0  0  0  0  0  0  0
   -6.3850    7.9060  -14.2710 H   0  0  0  0  0  0  0  0  0  0  0  0
   -6.4690   10.9820  -15.1020 H   0  0  0  0  0  0  0  0  0  0  0  0
   -7.5060   10.1390  -13.8150 H   0  0  0  0  0  0  0  0  0  0  0  0
   -4.3950   10.3200  -13.9090 H   0  0  0  0  0  0  0  0  0  0  0  0
   -5.4220    9.4330  -12.5770 H   0  0  0  0  0  0  0  0  0  0  0  0
    4.8430    3.2510  -13.8990 H   0  0  0  0  0  0  0  0  0  0  0  0
    5.3150    3.2450  -12.1390 H   0  0  0  0  0  0  0  0  0  0  0  0
    6.7490    4.9840  -12.2550 H   0  0  0  0  0  0  0  0  0  0  0  0
    6.9570    4.2650  -13.9360 H   0  0  0  0  0  0  0  0  0  0  0  0
  1  2  1  0  0  0  0
  2  7  1  0  0  0  0
  3  2  2  0  0  0  0
  3  4  1  0  0  0  0
  4  5  2  0  0  0  0
  5  6  1  0  0  0  0
  5 22  1  0  0  0  0
  6 27  1  0  0  0  0
  7  8  1  0  0  0  0
  7  6  2  0  0  0  0
  8 29  1  0  0  0  0
  9 14  1  0  0  0  0
  9  8  1  0  0  0  0
 10 31  1  0  0  0  0
 10  9  1  0  0  0  0
 11 12  1  0  0  0  0
 11 10  1  0  0  0  0
 12 13  1  0  0  0  0
 13 35  1  0  0  0  0
 13 14  1  0  0  0  0
 14 36  1  0  0  0  0
 15 12  1  0  0  0  0
 15 38  1  0  0  0  0
 16 18  1  0  0  0  0
 16 15  1  0  0  0  0
 17 16  2  0  0  0  0
 18 19  1  0  0  0  0
 19 20  1  0  0  0  0
 19 41  1  0  0  0  0
 19 21  1  0  0  0  0
 20 43  1  0  0  0  0
 20 21  1  0  0  0  0
 21 45  1  0  0  0  0
 23 22  1  0  0  0  0
 23 47  1  0  0  0  0
 24 23  1  0  0  0  0
 24 48  1  0  0  0  0
 25  4  1  0  0  0  0
 25 24  1  0  0  0  0
 26  3  1  0  0  0  0
 28  8  1  0  0  0  0
 30 10  1  0  0  0  0
 32 11  1  0  0  0  0
 33 11  1  0  0  0  0
 34 13  1  0  0  0  0
 37 14  1  0  0  0  0
 39 15  1  0  0  0  0
 40 18  1  0  0  0  0
 42 20  1  0  0  0  0
 44 21  1  0  0  0  0
 46 23  1  0  0  0  0
 49 24  1  0  0  0  0
M  END
>  <Pose>
1

>  <Score>
-5.34

$$$$
