
 OpenBabel03232203513D

 53 57  0  0  1  0  0  0  0  0999 V2000
    3.5860   10.1420  -13.7660 B   0  0  0  0  0  0  0  0  0  0  0  0
    1.7220    9.7900  -13.6970 C   0  0  0  0  0  0  0  0  0  0  0  0
    1.2170    8.5270  -13.8970 C   0  0  0  0  0  0  0  0  0  0  0  0
   -0.1160    8.2630  -13.8490 C   0  0  0  0  0  0  0  0  0  0  0  0
   -1.0000    9.2880  -13.5940 C   0  0  0  0  0  0  0  0  0  0  0  0
   -0.5090   10.5820  -13.3880 C   0  0  0  0  0  0  0  0  0  0  0  0
    0.8470   10.8540  -13.4360 C   0  0  0  0  0  0  0  0  0  0  0  0
    1.4080   12.1390  -13.2380 N   0  0  0  0  0  0  0  0  0  0  0  0
    2.5770   12.4150  -12.5000 C   0  0  0  0  0  0  0  0  0  0  0  0
    3.6830   11.8710  -12.6610 O   0  0  0  0  0  0  0  0  0  0  0  0
    2.4850   13.4630  -11.4140 C   0  0  0  0  0  0  0  0  0  0  0  0
    1.5180   14.4840  -11.7430 N   0  0  0  0  0  0  0  0  0  0  0  0
    2.0050   15.5910  -12.4160 C   0  0  0  0  0  0  0  0  0  0  0  0
    1.3730   16.9180  -12.2450 C   0  0  0  0  0  0  0  0  0  0  0  0
    0.0540   16.7400  -11.7070 N   0  0  0  0  0  0  0  0  0  0  0  0
    0.0160   15.9770  -10.4850 C   0  0  0  0  0  0  0  0  0  0  0  0
    0.4370   14.5750  -10.8400 C   0  0  0  0  0  0  0  0  0  0  0  0
   -1.1450   17.2250  -12.2530 C   0  0  1  0  0  0  0  0  0  0  0  0
   -1.6640   16.8020  -13.4330 N   0  0  0  0  0  0  0  0  0  0  0  0
   -2.8170   17.2840  -13.9300 C   0  0  0  0  0  0  0  0  0  0  0  0
   -3.5190   18.2220  -13.2690 N   0  0  0  0  0  0  0  0  0  0  0  0
   -3.0790   18.7020  -12.0880 C   0  0  0  0  0  0  0  0  0  0  0  0
   -3.5670   19.6270  -11.2220 N   0  0  0  0  0  0  0  0  0  0  0  0
   -2.7050   19.6860  -10.2230 N   0  0  0  0  0  0  0  0  0  0  0  0
   -1.6820   18.8460  -10.3990 C   0  0  0  0  0  0  0  0  0  0  0  0
   -1.9020   18.2000  -11.5950 C   0  0  0  0  0  0  0  0  0  0  0  0
   -4.8050   20.3900  -11.3920 C   0  0  0  0  0  0  0  0  0  0  0  0
   -2.3400    8.9980  -13.5510 O   0  0  0  0  0  0  0  0  0  0  0  0
   -2.9330    7.8980  -14.1990 C   0  0  0  0  0  0  0  0  0  0  0  0
   -1.9390    6.9020  -14.7030 C   0  0  0  0  0  0  0  0  0  0  0  0
   -0.6690    7.0040  -14.0450 O   0  0  0  0  0  0  0  0  0  0  0  0
    1.9050    7.7140  -14.0960 H   0  0  0  0  0  0  0  0  0  0  0  0
   -1.2230   11.3510  -13.1930 H   0  0  0  0  0  0  0  0  0  0  0  0
    0.9050   12.9680  -13.6860 H   0  0  0  0  0  0  0  0  0  0  0  0
    2.1490   12.9180  -10.5120 H   0  0  0  0  0  0  0  0  0  0  0  0
    3.4960   13.8690  -11.2200 H   0  0  0  0  0  0  0  0  0  0  0  0
    3.1040   15.7140  -12.1730 H   0  0  0  0  0  0  0  0  0  0  0  0
    2.0360   15.3620  -13.5250 H   0  0  0  0  0  0  0  0  0  0  0  0
    1.9510   17.5790  -11.5520 H   0  0  0  0  0  0  0  0  0  0  0  0
    1.3780   17.4610  -13.2120 H   0  0  0  0  0  0  0  0  0  0  0  0
   -0.9640   15.9880  -10.0050 H   0  0  0  0  0  0  0  0  0  0  0  0
    0.7810   16.3580   -9.7560 H   0  0  0  0  0  0  0  0  0  0  0  0
   -0.4290   14.0040  -11.2370 H   0  0  0  0  0  0  0  0  0  0  0  0
    0.7260   14.0770   -9.8890 H   0  0  0  0  0  0  0  0  0  0  0  0
   -3.1360   16.8710  -14.8830 H   0  0  0  0  0  0  0  0  0  0  0  0
   -0.8180   18.6490   -9.7810 H   0  0  0  0  0  0  0  0  0  0  0  0
   -5.4070   20.4210  -10.4650 H   0  0  0  0  0  0  0  0  0  0  0  0
   -4.5980   21.4470  -11.6740 H   0  0  0  0  0  0  0  0  0  0  0  0
   -5.3670   19.9430  -12.2400 H   0  0  0  0  0  0  0  0  0  0  0  0
   -3.6800    7.4310  -13.5010 H   0  0  0  0  0  0  0  0  0  0  0  0
   -3.5170    8.2970  -15.0770 H   0  0  0  0  0  0  0  0  0  0  0  0
   -1.7300    7.1200  -15.7880 H   0  0  0  0  0  0  0  0  0  0  0  0
   -2.3120    5.8710  -14.6670 H   0  0  0  0  0  0  0  0  0  0  0  0
  1  2  1  0  0  0  0
  2  7  1  0  0  0  0
  3  4  1  0  0  0  0
  3  2  2  0  0  0  0
  4  5  2  0  0  0  0
  5 28  1  0  0  0  0
  5  6  1  0  0  0  0
  6 33  1  0  0  0  0
  7  6  2  0  0  0  0
  7  8  1  0  0  0  0
  8  9  1  0  0  0  0
  9 11  1  0  0  0  0
 10  9  2  0  0  0  0
 11 36  1  0  0  0  0
 11 35  1  0  0  0  0
 12 11  1  0  0  0  0
 12 17  1  0  0  0  0
 13 14  1  0  0  0  0
 13 37  1  0  0  0  0
 13 12  1  0  0  0  0
 14 15  1  0  0  0  0
 14 39  1  0  0  0  0
 15 16  1  0  0  0  0
 16 41  1  0  0  0  0
 16 42  1  0  0  0  0
 17 16  1  0  0  0  0
 17 44  1  0  0  0  0
 18 15  1  1  0  0  0
 18 26  1  0  0  0  0
 19 18  1  0  0  0  0
 20 19  2  0  0  0  0
 20 21  1  0  0  0  0
 21 22  1  0  0  0  0
 22 26  2  0  0  0  0
 22 23  1  0  0  0  0
 23 24  1  0  0  0  0
 25 24  2  0  0  0  0
 25 46  1  0  0  0  0
 26 25  1  0  0  0  0
 27 23  1  0  0  0  0
 27 47  1  0  0  0  0
 29 28  1  0  0  0  0
 29 50  1  0  0  0  0
 30 53  1  0  0  0  0
 30 29  1  0  0  0  0
 30 31  1  0  0  0  0
 31  4  1  0  0  0  0
 32  3  1  0  0  0  0
 34  8  1  0  0  0  0
 38 13  1  0  0  0  0
 40 14  1  0  0  0  0
 43 17  1  0  0  0  0
 45 20  1  0  0  0  0
 48 27  1  0  0  0  0
 49 27  1  0  0  0  0
 51 29  1  0  0  0  0
 52 30  1  0  0  0  0
M  END
>  <Pose>
1

>  <Score>
-6.31

$$$$
