
 OpenBabel03232203513D

 36 39  0  0  1  0  0  0  0  0999 V2000
    3.9590   11.8550   -9.4760 B   0  0  0  0  0  0  0  0  0  0  0  0
    3.5910   11.3600  -11.3020 C   0  0  0  0  0  0  0  0  0  0  0  0
    2.9950   10.1640  -11.6040 C   0  0  0  0  0  0  0  0  0  0  0  0
    2.7410    9.8320  -12.9180 C   0  0  0  0  0  0  0  0  0  0  0  0
    3.1040   10.7320  -13.8830 C   0  0  0  0  0  0  0  0  0  0  0  0
    3.7170   11.9630  -13.5700 C   0  0  0  0  0  0  0  0  0  0  0  0
    3.9610   12.2760  -12.2600 C   0  0  0  0  0  0  0  0  0  0  0  0
    2.7790   10.2500  -15.1830 N   0  0  0  0  0  0  0  0  0  0  0  0
    2.1850    8.9890  -15.0380 C   0  0  0  0  0  0  0  0  0  0  0  0
    1.7690    8.2640  -15.9930 O   0  0  0  0  0  0  0  0  0  0  0  0
    2.1280    8.6500  -13.5730 C   0  0  2  0  0  0  0  0  0  0  0  0
    0.7140    8.4890  -13.2550 C   0  0  0  0  0  0  0  0  0  0  0  0
    0.2150    7.2940  -12.8410 C   0  0  0  0  0  0  0  0  0  0  0  0
   -1.1210    7.4810  -12.6300 N   0  0  0  0  0  0  0  0  0  0  0  0
   -1.4540    8.7270  -12.8970 N   0  0  0  0  0  0  0  0  0  0  0  0
   -0.3620    9.3820  -13.2840 C   0  0  0  0  0  0  0  0  0  0  0  0
   -0.2120   10.8130  -13.6940 C   0  0  0  0  0  0  0  0  0  0  0  0
    1.0100    6.1520  -12.6900 O   0  0  0  0  0  0  0  0  0  0  0  0
    2.3580    6.3090  -12.9950 C   0  0  0  0  0  0  0  0  0  0  0  0
    2.8950    7.4310  -13.3980 C   0  0  0  0  0  0  0  0  0  0  0  0
    4.3420    7.4140  -13.6740 C   0  0  0  0  0  0  0  0  0  0  0  0
    5.4910    7.4220  -13.8840 N   0  0  0  0  0  0  0  0  0  0  0  0
    3.2350    5.1560  -12.8570 N   0  0  0  0  0  0  0  0  0  0  0  0
    3.0190   10.9410  -16.4590 C   0  0  0  0  0  0  0  0  0  0  0  0
    2.7160    9.4660  -10.8310 H   0  0  0  0  0  0  0  0  0  0  0  0
    4.0020   12.6720  -14.3360 H   0  0  0  0  0  0  0  0  0  0  0  0
    4.4380   13.2300  -11.9870 H   0  0  0  0  0  0  0  0  0  0  0  0
   -2.4020    9.1790  -12.8330 H   0  0  0  0  0  0  0  0  0  0  0  0
   -1.2350   11.2650  -13.6150 H   0  0  0  0  0  0  0  0  0  0  0  0
    0.4090   11.3850  -12.9620 H   0  0  0  0  0  0  0  0  0  0  0  0
    0.1010   10.9300  -14.7310 H   0  0  0  0  0  0  0  0  0  0  0  0
    3.6510    5.0370  -11.9120 H   0  0  0  0  0  0  0  0  0  0  0  0
    3.4350    4.5090  -13.6170 H   0  0  0  0  0  0  0  0  0  0  0  0
    3.6870   10.2950  -17.0620 H   0  0  0  0  0  0  0  0  0  0  0  0
    2.0290   10.9450  -16.9710 H   0  0  0  0  0  0  0  0  0  0  0  0
    3.3930   11.9520  -16.3040 H   0  0  0  0  0  0  0  0  0  0  0  0
  2  1  1  0  0  0  0
  3  2  1  0  0  0  0
  3 25  1  0  0  0  0
  4  3  2  0  0  0  0
  5  6  2  0  0  0  0
  5  4  1  0  0  0  0
  6  7  1  0  0  0  0
  7 27  1  0  0  0  0
  7  2  2  0  0  0  0
  8  9  1  0  0  0  0
  8  5  1  0  0  0  0
 10  9  2  0  0  0  0
 11  9  1  6  0  0  0
 11 20  1  0  0  0  0
 11 12  1  0  0  0  0
 11  4  1  0  0  0  0
 12 13  1  0  0  0  0
 13 18  1  0  0  0  0
 13 14  2  0  0  0  0
 15 28  1  0  0  0  0
 15 14  1  0  0  0  0
 16 12  2  0  0  0  0
 16 15  1  0  0  0  0
 17 29  1  0  0  0  0
 17 16  1  0  0  0  0
 17 30  1  0  0  0  0
 19 23  1  0  0  0  0
 19 18  1  0  0  0  0
 20 19  2  0  0  0  0
 21 20  1  0  0  0  0
 22 21  3  0  0  0  0
 23 32  1  0  0  0  0
 24 36  1  0  0  0  0
 24  8  1  0  0  0  0
 26  6  1  0  0  0  0
 31 17  1  0  0  0  0
 33 23  1  0  0  0  0
 34 24  1  0  0  0  0
 35 24  1  0  0  0  0
M  END
>  <Pose>
1

>  <Score>
-3.29

$$$$
