
 OpenBabel03232203513D

 46 49  0  0  0  0  0  0  0  0999 V2000
   -0.9010   19.6560   -8.4190 B   0  0  0  0  0  0  0  0  0  0  0  0
   -2.0910   19.5120   -9.9110 C   0  0  0  0  0  0  0  0  0  0  0  0
   -1.8960   18.5280  -10.8800 C   0  0  0  0  0  0  0  0  0  0  0  0
   -2.7170   18.3780  -11.9770 C   0  0  0  0  0  0  0  0  0  0  0  0
   -3.7700   19.2550  -12.0900 C   0  0  0  0  0  0  0  0  0  0  0  0
   -3.9960   20.2560  -11.1340 C   0  0  0  0  0  0  0  0  0  0  0  0
   -3.1530   20.3670  -10.0590 C   0  0  0  0  0  0  0  0  0  0  0  0
   -4.4740   18.9270  -13.2790 N   0  0  0  0  0  0  0  0  0  0  0  0
   -3.8620   17.8280  -13.9290 C   0  0  0  0  0  0  0  0  0  0  0  0
   -4.1990   17.2600  -14.9950 O   0  0  0  0  0  0  0  0  0  0  0  0
   -2.7050   17.4410  -13.1050 C   0  0  0  0  0  0  0  0  0  0  0  0
   -1.8680   16.4590  -13.3610 C   0  0  0  0  0  0  0  0  0  0  0  0
   -0.7710   16.1020  -12.5650 N   0  0  0  0  0  0  0  0  0  0  0  0
    0.3890   15.5270  -13.0500 N   0  0  0  0  0  0  0  0  0  0  0  0
    0.7590   14.1760  -12.8150 C   0  0  0  0  0  0  0  0  0  0  0  0
    1.9080   13.9670  -12.3940 O   0  0  0  0  0  0  0  0  0  0  0  0
   -0.1550   13.0340  -13.0420 C   0  0  0  0  0  0  0  0  0  0  0  0
    0.5260   11.8560  -13.3160 N   0  0  0  0  0  0  0  0  0  0  0  0
    0.1070   10.6060  -13.5090 C   0  0  0  0  0  0  0  0  0  0  0  0
    1.2120    9.7850  -13.6890 C   0  0  0  0  0  0  0  0  0  0  0  0
    2.2990   10.5750  -13.6010 N   0  0  0  0  0  0  0  0  0  0  0  0
    1.8940   11.8050  -13.3800 C   0  0  0  0  0  0  0  0  0  0  0  0
    1.0390    8.4340  -13.9170 C   0  0  0  0  0  0  0  0  0  0  0  0
    2.0600    7.7150  -14.0740 O   0  0  0  0  0  0  0  0  0  0  0  0
   -0.2020    7.9740  -13.9550 N   0  0  0  0  0  0  0  0  0  0  0  0
   -1.2650    8.7790  -13.7820 C   0  0  0  0  0  0  0  0  0  0  0  0
   -2.4240    8.3030  -13.8270 O   0  0  0  0  0  0  0  0  0  0  0  0
   -1.1490   10.1180  -13.5530 N   0  0  0  0  0  0  0  0  0  0  0  0
   -2.3050   10.9560  -13.4090 C   0  0  0  0  0  0  0  0  0  0  0  0
   -0.4430    6.5410  -14.1930 C   0  0  0  0  0  0  0  0  0  0  0  0
   -1.0680   17.8480  -10.7650 H   0  0  0  0  0  0  0  0  0  0  0  0
   -4.8310   20.9230  -11.2560 H   0  0  0  0  0  0  0  0  0  0  0  0
   -3.3460   21.1560   -9.3200 H   0  0  0  0  0  0  0  0  0  0  0  0
   -5.3270   19.4170  -13.6370 H   0  0  0  0  0  0  0  0  0  0  0  0
   -2.0360   15.8760  -14.2550 H   0  0  0  0  0  0  0  0  0  0  0  0
   -0.8650   16.2970  -11.5310 H   0  0  0  0  0  0  0  0  0  0  0  0
    1.0450   16.1050  -13.6210 H   0  0  0  0  0  0  0  0  0  0  0  0
   -0.9030   13.0700  -12.2610 H   0  0  0  0  0  0  0  0  0  0  0  0
   -0.7430   13.3320  -13.9790 H   0  0  0  0  0  0  0  0  0  0  0  0
    2.5650   12.6430  -13.2700 H   0  0  0  0  0  0  0  0  0  0  0  0
   -3.1970   10.2360  -13.4280 H   0  0  0  0  0  0  0  0  0  0  0  0
   -2.4530   11.4520  -12.4620 H   0  0  0  0  0  0  0  0  0  0  0  0
   -2.5320   11.5440  -14.3290 H   0  0  0  0  0  0  0  0  0  0  0  0
    0.2200    5.9650  -13.5170 H   0  0  0  0  0  0  0  0  0  0  0  0
   -0.1570    6.2600  -15.2300 H   0  0  0  0  0  0  0  0  0  0  0  0
   -1.5050    6.2780  -14.0150 H   0  0  0  0  0  0  0  0  0  0  0  0
  2  1  1  0  0  0  0
  3 31  1  0  0  0  0
  3  2  2  0  0  0  0
  4  3  1  0  0  0  0
  5  4  2  0  0  0  0
  5  6  1  0  0  0  0
  6  7  2  0  0  0  0
  7  2  1  0  0  0  0
  7 33  1  0  0  0  0
  8  5  1  0  0  0  0
  9  8  1  0  0  0  0
  9 11  1  0  0  0  0
 10  9  2  0  0  0  0
 11  4  1  0  0  0  0
 12 11  2  0  0  0  0
 12 13  1  0  0  0  0
 13 36  1  0  0  0  0
 14 15  1  0  0  0  0
 14 13  1  0  0  0  0
 15 16  2  0  0  0  0
 17 15  1  0  0  0  0
 17 38  1  0  0  0  0
 18 17  1  0  0  0  0
 19 18  1  0  0  0  0
 20 21  1  0  0  0  0
 20 19  2  0  0  0  0
 21 22  2  0  0  0  0
 22 18  1  0  0  0  0
 22 40  1  0  0  0  0
 23 20  1  0  0  0  0
 24 23  2  0  0  0  0
 25 23  1  0  0  0  0
 25 26  1  0  0  0  0
 26 28  1  0  0  0  0
 27 26  2  0  0  0  0
 28 19  1  0  0  0  0
 28 29  1  0  0  0  0
 29 42  1  0  0  0  0
 30 46  1  0  0  0  0
 30 25  1  0  0  0  0
 30 44  1  0  0  0  0
 32  6  1  0  0  0  0
 34  8  1  0  0  0  0
 35 12  1  0  0  0  0
 37 14  1  0  0  0  0
 39 17  1  0  0  0  0
 41 29  1  0  0  0  0
 43 29  1  0  0  0  0
 45 30  1  0  0  0  0
M  END
>  <Pose>
1

>  <Score>
-7.66

$$$$
