
 OpenBabel03232203513D

 49 52  0  0  1  0  0  0  0  0999 V2000
    5.7820    7.5960  -13.9700 B   0  0  0  0  0  0  0  0  0  0  0  0
    4.2690    8.7720  -13.8570 C   0  0  0  0  0  0  0  0  0  0  0  0
    2.9750    8.2890  -13.8020 C   0  0  0  0  0  0  0  0  0  0  0  0
    1.8810    9.1260  -13.7200 C   0  0  0  0  0  0  0  0  0  0  0  0
    2.1460   10.4800  -13.6970 C   0  0  0  0  0  0  0  0  0  0  0  0
    3.4470   10.9700  -13.7530 C   0  0  0  0  0  0  0  0  0  0  0  0
    4.5080   10.1220  -13.8320 C   0  0  0  0  0  0  0  0  0  0  0  0
    0.9010   11.1920  -13.6190 N   0  0  0  0  0  0  0  0  0  0  0  0
   -0.1660   10.2600  -13.5930 C   0  0  0  0  0  0  0  0  0  0  0  0
   -1.3760   10.5770  -13.5360 O   0  0  0  0  0  0  0  0  0  0  0  0
    0.4190    8.9030  -13.6450 C   0  0  1  0  0  0  0  0  0  0  0  0
   -0.0860    8.1650  -14.7710 N   0  0  0  0  0  0  0  0  0  0  0  0
   -1.3760    7.6850  -14.3220 C   0  0  2  0  0  0  0  0  0  0  0  0
   -1.1150    7.2330  -12.9100 C   0  0  2  0  0  0  0  0  0  0  0  0
   -0.0050    8.1430  -12.4390 C   0  0  1  0  0  0  0  0  0  0  0  0
    1.0090    7.2520  -11.8590 C   0  0  0  0  0  0  0  0  0  0  0  0
    2.0470    7.5960  -11.2380 O   0  0  0  0  0  0  0  0  0  0  0  0
    0.6460    5.8740  -12.1050 N   0  0  0  0  0  0  0  0  0  0  0  0
   -0.5720    5.8590  -12.8320 C   0  0  0  0  0  0  0  0  0  0  0  0
   -1.0860    4.8260  -13.3220 O   0  0  0  0  0  0  0  0  0  0  0  0
    1.3770    4.7030  -11.6910 C   0  0  0  0  0  0  0  0  0  0  0  0
    0.6270    3.4300  -12.0010 C   0  0  0  0  0  0  0  0  0  0  0  0
    2.7320    4.6880  -12.4060 C   0  0  0  0  0  0  0  0  0  0  0  0
    1.6270    4.7220  -10.1990 C   0  0  0  0  0  0  0  0  0  0  0  0
   -1.8720    6.5890  -15.2260 C   0  0  0  0  0  0  0  0  0  0  0  0
   -3.3430    6.5270  -15.2240 C   0  0  0  0  0  0  0  0  0  0  0  0
   -3.9290    6.0750  -14.2030 O   0  0  0  0  0  0  0  0  0  0  0  0
   -4.1690    6.9440  -16.2990 N   0  0  0  0  0  0  0  0  0  0  0  0
    2.8650    7.2200  -13.8270 H   0  0  0  0  0  0  0  0  0  0  0  0
    3.6440   12.0360  -13.7340 H   0  0  0  0  0  0  0  0  0  0  0  0
    5.5190   10.5400  -13.8750 H   0  0  0  0  0  0  0  0  0  0  0  0
    0.8420   12.2330  -13.5880 H   0  0  0  0  0  0  0  0  0  0  0  0
    0.5260    7.3500  -14.9390 H   0  0  0  0  0  0  0  0  0  0  0  0
   -2.1510    8.4890  -14.3450 H   0  0  0  0  0  0  0  0  0  0  0  0
   -1.9760    7.3470  -12.2360 H   0  0  0  0  0  0  0  0  0  0  0  0
   -0.3730    8.8610  -11.6720 H   0  0  0  0  0  0  0  0  0  0  0  0
   -0.3390    3.4570  -11.4590 H   0  0  0  0  0  0  0  0  0  0  0  0
    1.1720    2.5480  -11.5820 H   0  0  0  0  0  0  0  0  0  0  0  0
    0.5220    3.2670  -13.0950 H   0  0  0  0  0  0  0  0  0  0  0  0
    2.5040    4.7470  -13.4890 H   0  0  0  0  0  0  0  0  0  0  0  0
    3.2900    3.7750  -12.1750 H   0  0  0  0  0  0  0  0  0  0  0  0
    3.2490    5.6240  -12.0870 H   0  0  0  0  0  0  0  0  0  0  0  0
    1.7030    3.6750   -9.8480 H   0  0  0  0  0  0  0  0  0  0  0  0
    2.5550    5.2430   -9.9200 H   0  0  0  0  0  0  0  0  0  0  0  0
    0.7770    5.2360   -9.7190 H   0  0  0  0  0  0  0  0  0  0  0  0
   -1.5800    6.9140  -16.2680 H   0  0  0  0  0  0  0  0  0  0  0  0
   -1.3710    5.6240  -15.0810 H   0  0  0  0  0  0  0  0  0  0  0  0
   -4.9460    7.6170  -16.2270 H   0  0  0  0  0  0  0  0  0  0  0  0
   -3.9650    6.5270  -17.2450 H   0  0  0  0  0  0  0  0  0  0  0  0
  1  2  1  0  0  0  0
  2  7  2  0  0  0  0
  2  3  1  0  0  0  0
  3  4  2  0  0  0  0
  4  5  1  0  0  0  0
  5  8  1  0  0  0  0
  6 30  1  0  0  0  0
  6  5  2  0  0  0  0
  7  6  1  0  0  0  0
  8  9  1  0  0  0  0
  8 32  1  0  0  0  0
  9 10  2  0  0  0  0
 11  4  1  6  0  0  0
 11  9  1  0  0  0  0
 11 15  1  0  0  0  0
 12 13  1  0  0  0  0
 12 11  1  0  0  0  0
 13 34  1  1  0  0  0
 13 14  1  0  0  0  0
 14 19  1  0  0  0  0
 14 15  1  0  0  0  0
 14 35  1  1  0  0  0
 15 16  1  0  0  0  0
 15 36  1  1  0  0  0
 16 17  2  0  0  0  0
 18 16  1  0  0  0  0
 18 21  1  0  0  0  0
 19 18  1  0  0  0  0
 20 19  2  0  0  0  0
 21 24  1  0  0  0  0
 22 21  1  0  0  0  0
 22 38  1  0  0  0  0
 22 37  1  0  0  0  0
 23 41  1  0  0  0  0
 23 42  1  0  0  0  0
 23 21  1  0  0  0  0
 24 44  1  0  0  0  0
 24 43  1  0  0  0  0
 24 45  1  0  0  0  0
 25 26  1  0  0  0  0
 25 47  1  0  0  0  0
 25 13  1  0  0  0  0
 26 27  2  0  0  0  0
 28 48  1  0  0  0  0
 28 26  1  0  0  0  0
 29  3  1  0  0  0  0
 31  7  1  0  0  0  0
 33 12  1  0  0  0  0
 39 22  1  0  0  0  0
 40 23  1  0  0  0  0
 46 25  1  0  0  0  0
 49 28  1  0  0  0  0
M  END
>  <Pose>
1

>  <Score>
-4.18

$$$$
