
 OpenBabel03232203513D

 49 52  0  0  1  0  0  0  0  0999 V2000
   -3.3320    6.6840  -15.6680 B   0  0  0  0  0  0  0  0  0  0  0  0
   -2.0180    6.4100  -14.3120 C   0  0  0  0  0  0  0  0  0  0  0  0
   -0.9500    7.2610  -14.1880 C   0  0  0  0  0  0  0  0  0  0  0  0
    0.0250    7.0680  -13.1920 C   0  0  0  0  0  0  0  0  0  0  0  0
   -0.0580    6.0250  -12.3130 C   0  0  0  0  0  0  0  0  0  0  0  0
   -1.1510    5.1550  -12.4400 C   0  0  0  0  0  0  0  0  0  0  0  0
   -2.0920    5.3620  -13.4210 C   0  0  0  0  0  0  0  0  0  0  0  0
    1.0340    6.0380  -11.4050 N   0  0  0  0  0  0  0  0  0  0  0  0
    1.8430    7.1490  -11.7340 C   0  0  0  0  0  0  0  0  0  0  0  0
    2.9080    7.4270  -11.0890 O   0  0  0  0  0  0  0  0  0  0  0  0
    1.2460    7.8380  -12.8660 C   0  0  2  0  0  0  0  0  0  0  0  0
    0.9550    9.2350  -12.6060 N   0  0  0  0  0  0  0  0  0  0  0  0
    2.1540    9.9620  -12.9820 C   0  0  1  0  0  0  0  0  0  0  0  0
    2.5570    9.2660  -14.2500 C   0  0  2  0  0  0  0  0  0  0  0  0
    2.2170    7.8320  -14.0280 C   0  0  1  0  0  0  0  0  0  0  0  0
    3.4890    7.1630  -13.7100 C   0  0  0  0  0  0  0  0  0  0  0  0
    3.6780    6.0200  -13.1800 O   0  0  0  0  0  0  0  0  0  0  0  0
    4.5730    8.0010  -14.0890 N   0  0  0  0  0  0  0  0  0  0  0  0
    4.0220    9.2520  -14.4490 C   0  0  0  0  0  0  0  0  0  0  0  0
    4.6620   10.2550  -14.8900 O   0  0  0  0  0  0  0  0  0  0  0  0
    5.9790    7.6480  -14.1070 C   0  0  0  0  0  0  0  0  0  0  0  0
    6.3720    6.8090  -12.9340 C   0  0  0  0  0  0  0  0  0  0  0  0
    7.8920    6.9460  -12.7820 C   0  0  0  0  0  0  0  0  0  0  0  0
    8.5920    6.4250  -14.0070 C   0  0  0  0  0  0  0  0  0  0  0  0
    1.8130   11.4060  -13.1790 C   0  0  2  0  0  0  0  0  0  0  0  0
    1.5960   11.6110  -14.5470 O   0  0  0  0  0  0  0  0  0  0  0  0
    2.9790   12.2750  -12.7780 C   0  0  0  0  0  0  0  0  0  0  0  0
   -0.8250    8.1180  -14.8620 H   0  0  0  0  0  0  0  0  0  0  0  0
   -1.2210    4.3210  -11.7400 H   0  0  0  0  0  0  0  0  0  0  0  0
   -2.9420    4.6940  -13.5290 H   0  0  0  0  0  0  0  0  0  0  0  0
    1.1650    5.3230  -10.6440 H   0  0  0  0  0  0  0  0  0  0  0  0
    0.6640    9.4100  -11.6280 H   0  0  0  0  0  0  0  0  0  0  0  0
    2.9700    9.8340  -12.2530 H   0  0  0  0  0  0  0  0  0  0  0  0
    2.0280    9.6600  -15.1410 H   0  0  0  0  0  0  0  0  0  0  0  0
    1.7500    7.4020  -14.9490 H   0  0  0  0  0  0  0  0  0  0  0  0
    6.2660    7.1050  -15.0270 H   0  0  0  0  0  0  0  0  0  0  0  0
    6.5750    8.5890  -14.0920 H   0  0  0  0  0  0  0  0  0  0  0  0
    6.2040    5.7260  -13.1620 H   0  0  0  0  0  0  0  0  0  0  0  0
    5.8530    7.0280  -12.0040 H   0  0  0  0  0  0  0  0  0  0  0  0
    8.0760    8.0500  -12.7110 H   0  0  0  0  0  0  0  0  0  0  0  0
    8.2420    6.4850  -11.8460 H   0  0  0  0  0  0  0  0  0  0  0  0
    8.0690    5.5850  -14.4870 H   0  0  0  0  0  0  0  0  0  0  0  0
    8.6820    7.2310  -14.7840 H   0  0  0  0  0  0  0  0  0  0  0  0
    9.6330    6.1620  -13.7330 H   0  0  0  0  0  0  0  0  0  0  0  0
    0.9190   11.6790  -12.5800 H   0  0  0  0  0  0  0  0  0  0  0  0
    2.4510   11.7880  -15.0180 H   0  0  0  0  0  0  0  0  0  0  0  0
    2.9590   12.4370  -11.6820 H   0  0  0  0  0  0  0  0  0  0  0  0
    3.9000   11.7830  -13.1170 H   0  0  0  0  0  0  0  0  0  0  0  0
    2.8170   13.2770  -13.2540 H   0  0  0  0  0  0  0  0  0  0  0  0
  1  2  1  0  0  0  0
  2  3  2  0  0  0  0
  2  7  1  0  0  0  0
  3  4  1  0  0  0  0
  4  5  2  0  0  0  0
  5  8  1  0  0  0  0
  6  5  1  0  0  0  0
  6 29  1  0  0  0  0
  7  6  2  0  0  0  0
  8 31  1  0  0  0  0
  9  8  1  0  0  0  0
  9 10  2  0  0  0  0
 11  4  1  6  0  0  0
 11 12  1  0  0  0  0
 11  9  1  0  0  0  0
 12 32  1  0  0  0  0
 13 12  1  0  0  0  0
 13 33  1  1  0  0  0
 14 34  1  6  0  0  0
 14 15  1  0  0  0  0
 14 13  1  0  0  0  0
 15 35  1  6  0  0  0
 15 16  1  0  0  0  0
 15 11  1  0  0  0  0
 16 17  2  0  0  0  0
 18 16  1  0  0  0  0
 19 14  1  0  0  0  0
 19 18  1  0  0  0  0
 20 19  2  0  0  0  0
 21 37  1  0  0  0  0
 21 18  1  0  0  0  0
 21 22  1  0  0  0  0
 22 23  1  0  0  0  0
 22 39  1  0  0  0  0
 23 40  1  0  0  0  0
 23 41  1  0  0  0  0
 24 44  1  0  0  0  0
 24 23  1  0  0  0  0
 25 13  1  0  0  0  0
 25 27  1  0  0  0  0
 25 45  1  1  0  0  0
 26 25  1  0  0  0  0
 27 47  1  0  0  0  0
 28  3  1  0  0  0  0
 30  7  1  0  0  0  0
 36 21  1  0  0  0  0
 38 22  1  0  0  0  0
 42 24  1  0  0  0  0
 43 24  1  0  0  0  0
 46 26  1  0  0  0  0
 48 27  1  0  0  0  0
 49 27  1  0  0  0  0
M  END
>  <Pose>
1

>  <Score>
-4.74

$$$$
