
 OpenBabel03232203513D

 39 42  0  0  1  0  0  0  0  0999 V2000
    1.6460   15.1380  -11.2540 B   0  0  0  0  0  0  0  0  0  0  0  0
    2.0090   13.5150  -12.1840 C   0  0  0  0  0  0  0  0  0  0  0  0
    0.9560   12.7240  -12.5410 C   0  0  0  0  0  0  0  0  0  0  0  0
    1.1910   11.5390  -13.2170 C   0  0  0  0  0  0  0  0  0  0  0  0
    2.4890   11.1560  -13.5310 C   0  0  0  0  0  0  0  0  0  0  0  0
    3.5640   11.9450  -13.1770 C   0  0  0  0  0  0  0  0  0  0  0  0
    3.2830   13.1140  -12.5060 C   0  0  0  0  0  0  0  0  0  0  0  0
    2.8480    9.9730  -14.2170 N   0  0  0  0  0  0  0  0  0  0  0  0
    4.0150    9.8790  -14.8660 N   0  0  0  0  0  0  0  0  0  0  0  0
    4.0410    8.6810  -15.3840 N   0  0  0  0  0  0  0  0  0  0  0  0
    2.9340    8.0220  -15.0820 N   0  0  0  0  0  0  0  0  0  0  0  0
    2.1570    8.8510  -14.3270 C   0  0  0  0  0  0  0  0  0  0  0  0
    0.8140    8.4190  -13.8060 C   0  0  2  0  0  0  0  0  0  0  0  0
   -0.1640    9.4940  -13.9440 N   0  0  0  0  0  0  0  0  0  0  0  0
   -0.0710   10.8450  -13.5050 C   0  0  0  0  0  0  0  0  0  0  0  0
   -1.1420   11.4950  -13.3500 O   0  0  0  0  0  0  0  0  0  0  0  0
    0.9920    8.2010  -12.3280 C   0  0  0  0  0  0  0  0  0  0  0  0
   -0.0980    7.3180  -11.8130 C   0  0  0  0  0  0  0  0  0  0  0  0
    0.0350    6.1040  -12.4330 O   0  0  0  0  0  0  0  0  0  0  0  0
   -0.1910    6.1020  -13.7830 C   0  0  0  0  0  0  0  0  0  0  0  0
    0.3570    7.2220  -14.5570 C   0  0  0  0  0  0  0  0  0  0  0  0
    0.1140    7.0750  -10.3130 C   0  0  0  0  0  0  0  0  0  0  0  0
   -1.4710    7.9170  -11.9520 C   0  0  0  0  0  0  0  0  0  0  0  0
   -0.0780   12.9670  -12.3250 H   0  0  0  0  0  0  0  0  0  0  0  0
    4.5590   11.6140  -13.4380 H   0  0  0  0  0  0  0  0  0  0  0  0
    4.1120   13.7390  -12.2230 H   0  0  0  0  0  0  0  0  0  0  0  0
   -1.0780    9.2560  -14.4360 H   0  0  0  0  0  0  0  0  0  0  0  0
    0.9230    9.1920  -11.8240 H   0  0  0  0  0  0  0  0  0  0  0  0
    1.9600    7.7060  -12.1030 H   0  0  0  0  0  0  0  0  0  0  0  0
   -1.3110    6.0110  -13.9190 H   0  0  0  0  0  0  0  0  0  0  0  0
    0.1920    5.1090  -14.1690 H   0  0  0  0  0  0  0  0  0  0  0  0
    1.1900    6.8360  -15.2170 H   0  0  0  0  0  0  0  0  0  0  0  0
   -0.4230    7.5500  -15.3070 H   0  0  0  0  0  0  0  0  0  0  0  0
    1.1850    7.0250  -10.0580 H   0  0  0  0  0  0  0  0  0  0  0  0
   -0.4910    6.2440   -9.9490 H   0  0  0  0  0  0  0  0  0  0  0  0
   -0.2830    8.0060   -9.8140 H   0  0  0  0  0  0  0  0  0  0  0  0
   -2.1230    7.4720  -11.1430 H   0  0  0  0  0  0  0  0  0  0  0  0
   -1.9760    7.6470  -12.9000 H   0  0  0  0  0  0  0  0  0  0  0  0
   -1.4690    8.9990  -11.7610 H   0  0  0  0  0  0  0  0  0  0  0  0
  2  1  1  0  0  0  0
  3 24  1  0  0  0  0
  3  2  2  0  0  0  0
  4  3  1  0  0  0  0
  5  4  2  0  0  0  0
  5  6  1  0  0  0  0
  6  7  2  0  0  0  0
  7 26  1  0  0  0  0
  7  2  1  0  0  0  0
  8  5  1  0  0  0  0
  9  8  1  0  0  0  0
 10 11  1  0  0  0  0
 10  9  2  0  0  0  0
 11 12  2  0  0  0  0
 12  8  1  0  0  0  0
 13 12  1  6  0  0  0
 13 17  1  0  0  0  0
 14 13  1  0  0  0  0
 14 15  1  0  0  0  0
 15 16  2  0  0  0  0
 15  4  1  0  0  0  0
 17 29  1  0  0  0  0
 17 28  1  0  0  0  0
 17 18  1  0  0  0  0
 18 22  1  0  0  0  0
 19 18  1  0  0  0  0
 20 19  1  0  0  0  0
 21 13  1  0  0  0  0
 21 20  1  0  0  0  0
 22 34  1  0  0  0  0
 22 35  1  0  0  0  0
 22 36  1  0  0  0  0
 23 18  1  0  0  0  0
 23 39  1  0  0  0  0
 23 37  1  0  0  0  0
 25  6  1  0  0  0  0
 27 14  1  0  0  0  0
 30 20  1  0  0  0  0
 31 20  1  0  0  0  0
 32 21  1  0  0  0  0
 33 21  1  0  0  0  0
 38 23  1  0  0  0  0
M  END
>  <Pose>
1

>  <Score>
-4.54

$$$$
