
 OpenBabel03232203513D

 33 36  0  0  1  0  0  0  0  0999 V2000
    5.4570    5.5440  -13.0800 B   0  0  0  0  0  0  0  0  0  0  0  0
    3.6750    6.1650  -12.8640 C   0  0  0  0  0  0  0  0  0  0  0  0
    3.3480    7.4100  -13.3260 C   0  0  0  0  0  0  0  0  0  0  0  0
    2.0360    7.8660  -13.1660 C   0  0  0  0  0  0  0  0  0  0  0  0
    1.1300    7.0600  -12.5600 C   0  0  0  0  0  0  0  0  0  0  0  0
    1.4720    5.7770  -12.0850 C   0  0  0  0  0  0  0  0  0  0  0  0
    2.7620    5.3320  -12.2430 C   0  0  0  0  0  0  0  0  0  0  0  0
   -0.1800    7.4650  -12.3780 O   0  0  0  0  0  0  0  0  0  0  0  0
   -0.5520    8.7130  -12.8290 C   0  0  0  0  0  0  0  0  0  0  0  0
    0.2670    9.5470  -13.4240 C   0  0  0  0  0  0  0  0  0  0  0  0
    1.6640    9.2090  -13.6590 C   0  0  1  0  0  0  0  0  0  0  0  0
    2.5980   10.2470  -13.1610 C   0  0  0  0  0  0  0  0  0  0  0  0
    3.2760   10.7700  -14.2280 C   0  0  0  0  0  0  0  0  0  0  0  0
    4.1350   11.7250  -13.7660 N   0  0  0  0  0  0  0  0  0  0  0  0
    3.9740   11.7710  -12.4550 N   0  0  0  0  0  0  0  0  0  0  0  0
    3.0510   10.8920  -12.0450 C   0  0  0  0  0  0  0  0  0  0  0  0
    2.6440   10.7030  -10.6190 C   0  0  0  0  0  0  0  0  0  0  0  0
    2.8720   10.1620  -15.4360 N   0  0  0  0  0  0  0  0  0  0  0  0
    1.8920    9.2070  -15.1210 C   0  0  0  0  0  0  0  0  0  0  0  0
    1.2810    8.4510  -15.9230 O   0  0  0  0  0  0  0  0  0  0  0  0
   -0.1990   10.8390  -13.8690 C   0  0  0  0  0  0  0  0  0  0  0  0
   -0.5610   11.8740  -14.2410 N   0  0  0  0  0  0  0  0  0  0  0  0
   -1.9160    9.1190  -12.6330 N   0  0  0  0  0  0  0  0  0  0  0  0
    4.0330    8.0850  -13.8140 H   0  0  0  0  0  0  0  0  0  0  0  0
    0.7250    5.1530  -11.6030 H   0  0  0  0  0  0  0  0  0  0  0  0
    3.0950    4.3610  -11.9050 H   0  0  0  0  0  0  0  0  0  0  0  0
    4.5300   12.4370  -11.8550 H   0  0  0  0  0  0  0  0  0  0  0  0
    1.9170    9.8910  -10.5340 H   0  0  0  0  0  0  0  0  0  0  0  0
    2.2450   11.6740  -10.2330 H   0  0  0  0  0  0  0  0  0  0  0  0
    3.5240   10.4640   -9.9710 H   0  0  0  0  0  0  0  0  0  0  0  0
    3.2600   10.4030  -16.4080 H   0  0  0  0  0  0  0  0  0  0  0  0
   -2.1260   10.1060  -12.3660 H   0  0  0  0  0  0  0  0  0  0  0  0
   -2.7180    8.4600  -12.7470 H   0  0  0  0  0  0  0  0  0  0  0  0
  1  2  1  0  0  0  0
  2  7  1  0  0  0  0
  3  4  1  0  0  0  0
  3  2  2  0  0  0  0
  4  5  2  0  0  0  0
  5  8  1  0  0  0  0
  5  6  1  0  0  0  0
  6 25  1  0  0  0  0
  7  6  2  0  0  0  0
  7 26  1  0  0  0  0
  9 23  1  0  0  0  0
  9  8  1  0  0  0  0
 10  9  2  0  0  0  0
 11 19  1  6  0  0  0
 11 10  1  0  0  0  0
 11  4  1  0  0  0  0
 11 12  1  0  0  0  0
 12 16  2  0  0  0  0
 13 14  2  0  0  0  0
 13 12  1  0  0  0  0
 14 15  1  0  0  0  0
 15 16  1  0  0  0  0
 15 27  1  0  0  0  0
 16 17  1  0  0  0  0
 17 28  1  0  0  0  0
 17 29  1  0  0  0  0
 17 30  1  0  0  0  0
 18 19  1  0  0  0  0
 18 13  1  0  0  0  0
 20 19  2  0  0  0  0
 21 10  1  0  0  0  0
 22 21  3  0  0  0  0
 23 32  1  0  0  0  0
 24  3  1  0  0  0  0
 31 18  1  0  0  0  0
 33 23  1  0  0  0  0
M  END
>  <Pose>
1

>  <Score>
-5.06

$$$$
