
 OpenBabel03232203513D

 51 54  0  0  0  0  0  0  0  0999 V2000
    1.4450   10.5520   -9.1470 B   0  0  0  0  0  0  0  0  0  0  0  0
    0.4060    9.6840  -10.4920 C   0  0  0  0  0  0  0  0  0  0  0  0
    1.0150    8.8850  -11.4550 C   0  0  0  0  0  0  0  0  0  0  0  0
    0.2600    8.2520  -12.4330 C   0  0  0  0  0  0  0  0  0  0  0  0
   -1.1080    8.4120  -12.4580 C   0  0  0  0  0  0  0  0  0  0  0  0
   -1.8480    7.7910  -13.4110 N   0  0  0  0  0  0  0  0  0  0  0  0
   -1.2830    7.0110  -14.3500 C   0  0  0  0  0  0  0  0  0  0  0  0
    0.0470    6.8680  -14.3100 N   0  0  0  0  0  0  0  0  0  0  0  0
    0.8420    7.4530  -13.3960 C   0  0  0  0  0  0  0  0  0  0  0  0
    2.2780    7.2320  -13.4410 C   0  0  0  0  0  0  0  0  0  0  0  0
    3.1000    8.0930  -14.1550 C   0  0  0  0  0  0  0  0  0  0  0  0
    4.4660    7.9230  -14.2100 C   0  0  0  0  0  0  0  0  0  0  0  0
    5.0800    6.8800  -13.5480 C   0  0  0  0  0  0  0  0  0  0  0  0
    4.2560    6.0190  -12.8330 C   0  0  0  0  0  0  0  0  0  0  0  0
    2.8910    6.1950  -12.7850 C   0  0  0  0  0  0  0  0  0  0  0  0
    2.3430    9.4380  -15.0130 Cl  0  0  0  0  0  0  0  0  0  0  0  0
   -2.0980    6.3690  -15.3390 N   0  0  0  0  0  4  0  0  0  0  0  0
   -2.1040    7.1430  -16.5500 C   0  0  0  0  0  0  0  0  0  0  0  0
   -2.9440    8.3740  -16.4920 C   0  0  0  0  0  0  0  0  0  0  0  0
   -3.8290    8.3870  -15.3490 N   0  0  0  0  0  0  0  0  0  0  0  0
   -4.4180    7.1220  -14.9680 C   0  0  0  0  0  0  0  0  0  0  0  0
   -3.4030    6.0270  -14.8630 C   0  0  0  0  0  0  0  0  0  0  0  0
   -4.0630    9.6150  -14.6840 C   0  0  0  0  0  0  0  0  0  0  0  0
   -3.1170   10.3770  -14.3890 O   0  0  0  0  0  0  0  0  0  0  0  0
   -5.4840    9.9380  -14.3620 C   0  0  0  0  0  0  0  0  0  0  0  0
   -6.1420   10.6940  -15.4760 C   0  0  0  0  0  0  0  0  0  0  0  0
   -7.5990   10.8150  -15.3160 C   0  0  0  0  0  0  0  0  0  0  0  0
   -8.2440   10.0290  -14.5910 O   0  0  0  0  0  0  0  0  0  0  0  0
   -8.2710   11.8210  -15.9800 O   0  0  0  0  0  0  0  0  0  0  0  0
   -1.6930    9.2150  -11.4870 C   0  0  0  0  0  0  0  0  0  0  0  0
   -0.9630    9.8510  -10.5070 C   0  0  0  0  0  0  0  0  0  0  0  0
    2.0720    8.7550  -11.4370 H   0  0  0  0  0  0  0  0  0  0  0  0
    5.1050    8.5940  -14.7670 H   0  0  0  0  0  0  0  0  0  0  0  0
    6.1550    6.7390  -13.5850 H   0  0  0  0  0  0  0  0  0  0  0  0
    4.7150    5.1940  -12.3090 H   0  0  0  0  0  0  0  0  0  0  0  0
    2.3150    5.4940  -12.2080 H   0  0  0  0  0  0  0  0  0  0  0  0
   -1.5700    5.4760  -15.5740 H   0  0  0  0  0  0  0  0  0  0  0  0
   -1.0570    7.3940  -16.8030 H   0  0  0  0  0  0  0  0  0  0  0  0
   -2.4810    6.4660  -17.3590 H   0  0  0  0  0  0  0  0  0  0  0  0
   -3.6120    8.4110  -17.3980 H   0  0  0  0  0  0  0  0  0  0  0  0
   -2.2840    9.2630  -16.5240 H   0  0  0  0  0  0  0  0  0  0  0  0
   -5.0170    7.2030  -14.0370 H   0  0  0  0  0  0  0  0  0  0  0  0
   -5.1050    6.8540  -15.8240 H   0  0  0  0  0  0  0  0  0  0  0  0
   -3.7360    5.1250  -15.4440 H   0  0  0  0  0  0  0  0  0  0  0  0
   -3.3010    5.7010  -13.8010 H   0  0  0  0  0  0  0  0  0  0  0  0
   -6.0310    8.9810  -14.2310 H   0  0  0  0  0  0  0  0  0  0  0  0
   -5.5710   10.4870  -13.4030 H   0  0  0  0  0  0  0  0  0  0  0  0
   -5.9590   10.1240  -16.4210 H   0  0  0  0  0  0  0  0  0  0  0  0
   -5.6630   11.6860  -15.6030 H   0  0  0  0  0  0  0  0  0  0  0  0
   -2.7520    9.3420  -11.5040 H   0  0  0  0  0  0  0  0  0  0  0  0
   -1.4000   10.4810   -9.7420 H   0  0  0  0  0  0  0  0  0  0  0  0
  2  1  1  0  0  0  0
  3 32  1  0  0  0  0
  3  2  2  0  0  0  0
  4  3  1  0  0  0  0
  5  4  2  0  0  0  0
  5 30  1  0  0  0  0
  6  5  1  0  0  0  0
  7  8  1  0  0  0  0
  7  6  2  0  0  0  0
  8  9  2  0  0  0  0
  9  4  1  0  0  0  0
 10  9  1  0  0  0  0
 10 15  1  0  0  0  0
 11 10  2  0  0  0  0
 12 11  1  0  0  0  0
 12 13  2  0  0  0  0
 13 14  1  0  0  0  0
 14 15  2  0  0  0  0
 14 35  1  0  0  0  0
 15 36  1  0  0  0  0
 16 11  1  0  0  0  0
 17 22  1  0  0  0  0
 17  7  1  0  0  0  0
 18 19  1  0  0  0  0
 18 17  1  0  0  0  0
 19 20  1  0  0  0  0
 20 21  1  0  0  0  0
 20 23  1  0  0  0  0
 21 22  1  0  0  0  0
 21 42  1  0  0  0  0
 22 45  1  0  0  0  0
 23 24  2  0  0  0  0
 23 25  1  0  0  0  0
 25 46  1  0  0  0  0
 25 47  1  0  0  0  0
 26 27  1  0  0  0  0
 26 25  1  0  0  0  0
 27 28  1  0  0  0  0
 29 27  2  0  0  0  0
 30 31  2  0  0  0  0
 31  2  1  0  0  0  0
 31 51  1  0  0  0  0
 33 12  1  0  0  0  0
 34 13  1  0  0  0  0
 37 17  1  0  0  0  0
 38 18  1  0  0  0  0
 39 18  1  0  0  0  0
 40 19  1  0  0  0  0
 41 19  1  0  0  0  0
 43 21  1  0  0  0  0
 44 22  1  0  0  0  0
 48 26  1  0  0  0  0
 49 26  1  0  0  0  0
 50 30  1  0  0  0  0
M  END
>  <Pose>
1

>  <Score>
-2.10

$$$$
