
 OpenBabel03232203513D

 41 44  0  0  0  0  0  0  0  0999 V2000
   -6.2170   23.1270   -8.1370 B   0  0  0  0  0  0  0  0  0  0  0  0
   -5.9260   21.9330   -9.5890 C   0  0  0  0  0  0  0  0  0  0  0  0
   -4.7610   21.2010   -9.6950 C   0  0  0  0  0  0  0  0  0  0  0  0
   -4.5350   20.3310  -10.7420 C   0  0  0  0  0  0  0  0  0  0  0  0
   -5.5180   20.2020  -11.7050 C   0  0  0  0  0  0  0  0  0  0  0  0
   -5.0410   19.3070  -12.5890 N   0  0  0  0  0  0  0  0  0  0  0  0
   -3.8090   18.8710  -12.2240 C   0  0  0  0  0  0  0  0  0  0  0  0
   -3.4710   19.5110  -11.0510 C   0  0  0  0  0  0  0  0  0  0  0  0
   -2.2770   19.2350  -10.4910 N   0  0  0  0  0  0  0  0  0  0  0  0
   -1.4150   18.3580  -11.0410 C   0  0  0  0  0  0  0  0  0  0  0  0
   -1.7180   17.7210  -12.1800 N   0  0  0  0  0  0  0  0  0  0  0  0
   -2.9010   17.9820  -12.7540 C   0  0  0  0  0  0  0  0  0  0  0  0
   -3.2020   17.3940  -13.8230 O   0  0  0  0  0  0  0  0  0  0  0  0
   -0.7790   16.7620  -12.7880 C   0  0  0  0  0  0  0  0  0  0  0  0
    0.1360   16.2130  -11.7630 C   0  0  0  0  0  0  0  0  0  0  0  0
    0.8340   15.0250  -12.0980 N   0  0  0  0  0  0  0  0  0  0  0  0
    0.4750   13.8730  -11.3460 C   0  0  0  0  0  0  0  0  0  0  0  0
    1.3900   13.6050  -10.1850 C   0  0  0  0  0  0  0  0  0  0  0  0
    2.7720   13.9160  -10.4840 N   0  0  0  0  0  0  0  0  0  0  0  0
    2.9910   14.0160  -11.9170 C   0  0  0  0  0  0  0  0  0  0  0  0
    2.2100   15.2190  -12.3850 C   0  0  0  0  0  0  0  0  0  0  0  0
   -6.6800   20.9420  -11.5870 C   0  0  0  0  0  0  0  0  0  0  0  0
   -6.9150   21.8150  -10.5440 C   0  0  0  0  0  0  0  0  0  0  0  0
   -3.9840   21.2950   -8.9460 H   0  0  0  0  0  0  0  0  0  0  0  0
   -5.5280   18.9770  -13.4420 H   0  0  0  0  0  0  0  0  0  0  0  0
   -0.4540   18.1470  -10.5740 H   0  0  0  0  0  0  0  0  0  0  0  0
   -0.2270   17.3580  -13.5500 H   0  0  0  0  0  0  0  0  0  0  0  0
   -1.3910   16.0420  -13.3220 H   0  0  0  0  0  0  0  0  0  0  0  0
    0.8670   16.9870  -11.4550 H   0  0  0  0  0  0  0  0  0  0  0  0
   -0.4730   15.9920  -10.8380 H   0  0  0  0  0  0  0  0  0  0  0  0
   -0.5720   13.9290  -10.9920 H   0  0  0  0  0  0  0  0  0  0  0  0
    0.5430   12.9880  -12.0150 H   0  0  0  0  0  0  0  0  0  0  0  0
    1.3430   12.5540   -9.8390 H   0  0  0  0  0  0  0  0  0  0  0  0
    1.0900   14.2420   -9.3300 H   0  0  0  0  0  0  0  0  0  0  0  0
    3.0990   14.7800   -9.9950 H   0  0  0  0  0  0  0  0  0  0  0  0
    2.5820   13.1100  -12.3860 H   0  0  0  0  0  0  0  0  0  0  0  0
    4.0850   14.1380  -12.0500 H   0  0  0  0  0  0  0  0  0  0  0  0
    2.3020   15.2860  -13.5060 H   0  0  0  0  0  0  0  0  0  0  0  0
    2.6420   16.1400  -11.9430 H   0  0  0  0  0  0  0  0  0  0  0  0
   -7.4540   20.8400  -12.3470 H   0  0  0  0  0  0  0  0  0  0  0  0
   -7.8350   22.3970  -10.4530 H   0  0  0  0  0  0  0  0  0  0  0  0
  2  1  1  0  0  0  0
  3  2  1  0  0  0  0
  3 24  1  0  0  0  0
  4  3  2  0  0  0  0
  5 22  2  0  0  0  0
  5  4  1  0  0  0  0
  6  7  1  0  0  0  0
  6  5  1  0  0  0  0
  7  8  2  0  0  0  0
  8  4  1  0  0  0  0
  8  9  1  0  0  0  0
 10 26  1  0  0  0  0
 10  9  2  0  0  0  0
 11 10  1  0  0  0  0
 12  7  1  0  0  0  0
 12 11  1  0  0  0  0
 13 12  2  0  0  0  0
 14 11  1  0  0  0  0
 14 15  1  0  0  0  0
 15 29  1  0  0  0  0
 15 30  1  0  0  0  0
 16 15  1  0  0  0  0
 16 17  1  0  0  0  0
 17 31  1  0  0  0  0
 17 18  1  0  0  0  0
 18 33  1  0  0  0  0
 18 34  1  0  0  0  0
 19 18  1  0  0  0  0
 19 35  1  0  0  0  0
 20 19  1  0  0  0  0
 21 16  1  0  0  0  0
 21 39  1  0  0  0  0
 21 20  1  0  0  0  0
 22 23  1  0  0  0  0
 23 41  1  0  0  0  0
 23  2  2  0  0  0  0
 25  6  1  0  0  0  0
 27 14  1  0  0  0  0
 28 14  1  0  0  0  0
 32 17  1  0  0  0  0
 36 20  1  0  0  0  0
 37 20  1  0  0  0  0
 38 21  1  0  0  0  0
 40 22  1  0  0  0  0
M  END
>  <Pose>
1

>  <Score>
-6.53

$$$$
