
 OpenBabel03232203513D

 37 40  0  0  0  0  0  0  0  0999 V2000
    4.5110    5.4370  -13.1600 B   0  0  0  0  0  0  0  0  0  0  0  0
    3.2340    6.8420  -13.3050 C   0  0  0  0  0  0  0  0  0  0  0  0
    3.6730    8.1130  -13.6120 C   0  0  0  0  0  0  0  0  0  0  0  0
    2.7580    9.1680  -13.7250 C   0  0  0  0  0  0  0  0  0  0  0  0
    1.4420    8.9000  -13.5250 C   0  0  0  0  0  0  0  0  0  0  0  0
    0.9570    7.6490  -13.2170 C   0  0  0  0  0  0  0  0  0  0  0  0
    1.8710    6.6320  -13.1110 C   0  0  0  0  0  0  0  0  0  0  0  0
   -0.3950    7.5200  -13.0410 C   0  0  0  0  0  0  0  0  0  0  0  0
   -0.8460    6.3970  -12.7640 O   0  0  0  0  0  0  0  0  0  0  0  0
   -1.2710    8.5880  -13.1620 C   0  0  0  0  0  0  0  0  0  0  0  0
   -0.7210    9.8140  -13.4720 C   0  0  0  0  0  0  0  0  0  0  0  0
    0.6320    9.9530  -13.6490 N   0  0  0  0  0  0  0  0  0  0  0  0
    1.4570   11.0950  -13.9720 C   0  0  0  0  0  0  0  0  0  0  0  0
    2.8780   10.6040  -14.0290 C   0  0  0  0  0  0  0  0  0  0  0  0
   -2.7100    8.4340  -12.9720 C   0  0  0  0  0  0  0  0  0  0  0  0
   -3.1470    8.1310  -11.8390 O   0  0  0  0  0  0  0  0  0  0  0  0
   -3.6190    8.6260  -14.0650 N   0  0  0  0  0  0  0  0  0  0  0  0
   -4.4260    9.8210  -14.1880 C   0  0  0  0  0  0  0  0  0  0  0  0
   -5.8760    9.3410  -14.3280 C   0  0  0  0  0  0  0  0  0  0  0  0
   -5.9560    8.4300  -15.3540 O   0  0  0  0  0  0  0  0  0  0  0  0
   -5.2560    7.2630  -15.1300 C   0  0  0  0  0  0  0  0  0  0  0  0
   -3.7670    7.6200  -15.0980 C   0  0  0  0  0  0  0  0  0  0  0  0
    4.7150    8.3460  -13.7740 H   0  0  0  0  0  0  0  0  0  0  0  0
    1.5160    5.6510  -12.8730 H   0  0  0  0  0  0  0  0  0  0  0  0
   -1.3190   10.7020  -13.5850 H   0  0  0  0  0  0  0  0  0  0  0  0
    1.3640   11.8670  -13.1560 H   0  0  0  0  0  0  0  0  0  0  0  0
    1.1470   11.5740  -14.9250 H   0  0  0  0  0  0  0  0  0  0  0  0
    3.3220   10.7900  -15.0350 H   0  0  0  0  0  0  0  0  0  0  0  0
    3.5130   11.0900  -13.2340 H   0  0  0  0  0  0  0  0  0  0  0  0
   -4.1940   10.2980  -15.1850 H   0  0  0  0  0  0  0  0  0  0  0  0
   -4.3130   10.5160  -13.3490 H   0  0  0  0  0  0  0  0  0  0  0  0
   -6.5510   10.1780  -14.5320 H   0  0  0  0  0  0  0  0  0  0  0  0
   -6.1990    8.8640  -13.3950 H   0  0  0  0  0  0  0  0  0  0  0  0
   -5.3990    6.6090  -16.0140 H   0  0  0  0  0  0  0  0  0  0  0  0
   -5.5380    6.7550  -14.1740 H   0  0  0  0  0  0  0  0  0  0  0  0
   -3.5880    8.1570  -16.0750 H   0  0  0  0  0  0  0  0  0  0  0  0
   -3.1320    6.7470  -14.9650 H   0  0  0  0  0  0  0  0  0  0  0  0
  2  1  1  0  0  0  0
  2  7  1  0  0  0  0
  3  2  2  0  0  0  0
  4  3  1  0  0  0  0
  4  5  2  0  0  0  0
  5  6  1  0  0  0  0
  6  7  2  0  0  0  0
  6  8  1  0  0  0  0
  7 24  1  0  0  0  0
  8  9  2  0  0  0  0
 10  8  1  0  0  0  0
 10 15  1  0  0  0  0
 11 10  2  0  0  0  0
 12  5  1  0  0  0  0
 12 11  1  0  0  0  0
 13 12  1  0  0  0  0
 13 26  1  0  0  0  0
 14 13  1  0  0  0  0
 14  4  1  0  0  0  0
 14 29  1  0  0  0  0
 15 16  2  0  0  0  0
 17 15  1  0  0  0  0
 18 17  1  0  0  0  0
 18 31  1  0  0  0  0
 19 18  1  0  0  0  0
 19 33  1  0  0  0  0
 20 21  1  0  0  0  0
 20 19  1  0  0  0  0
 21 22  1  0  0  0  0
 21 35  1  0  0  0  0
 22 37  1  0  0  0  0
 22 17  1  0  0  0  0
 23  3  1  0  0  0  0
 25 11  1  0  0  0  0
 27 13  1  0  0  0  0
 28 14  1  0  0  0  0
 30 18  1  0  0  0  0
 32 19  1  0  0  0  0
 34 21  1  0  0  0  0
 36 22  1  0  0  0  0
M  END
>  <Pose>
1

>  <Score>
-4.17

$$$$
