
 OpenBabel03232203513D

 55 58  0  0  0  0  0  0  0  0999 V2000
    5.5710   13.4790  -10.9690 B   0  0  0  0  0  0  0  0  0  0  0  0
    4.0310   12.7790  -11.7990 C   0  0  0  0  0  0  0  0  0  0  0  0
    4.1060   11.6960  -12.6590 C   0  0  0  0  0  0  0  0  0  0  0  0
    3.0080   11.1810  -13.2860 C   0  0  0  0  0  0  0  0  0  0  0  0
    2.8840   10.0970  -14.1090 N   0  0  0  0  0  0  0  0  0  0  0  0
    1.5770    9.9650  -14.3970 C   0  0  0  0  0  0  0  0  0  0  0  0
    0.8530   11.0110  -13.7640 C   0  0  0  0  0  0  0  0  0  0  0  0
    1.7940   11.7340  -13.0760 C   0  0  0  0  0  0  0  0  0  0  0  0
    1.6910   12.8260  -12.2110 C   0  0  0  0  0  0  0  0  0  0  0  0
    2.7980   13.3590  -11.5650 C   0  0  0  0  0  0  0  0  0  0  0  0
    2.7260   14.4510  -10.6820 O   0  0  0  0  0  0  0  0  0  0  0  0
   -0.5580   11.3750  -13.9490 C   0  0  0  0  0  0  0  0  0  0  0  0
   -0.8060   12.5590  -14.3040 O   0  0  0  0  0  0  0  0  0  0  0  0
   -1.6160   10.5460  -13.7840 O   0  0  0  0  0  0  0  0  0  0  0  0
   -2.9800   10.7670  -13.8320 C   0  0  0  0  0  0  0  0  0  0  0  0
   -3.8140    9.5280  -14.1320 C   0  0  0  0  0  0  0  0  0  0  0  0
    0.8910    8.9190  -15.1550 C   0  0  0  0  0  0  0  0  0  0  0  0
    0.0270    8.0140  -14.4620 N   0  0  0  0  0  4  0  0  0  0  0  0
    0.1970    7.3510  -13.2930 C   0  0  0  0  0  0  0  0  0  0  0  0
   -0.5310    5.9900  -13.4140 C   0  0  0  0  0  0  0  0  0  0  0  0
   -1.5860    6.3460  -14.4580 C   0  0  0  0  0  0  0  0  0  0  0  0
   -0.7070    7.1530  -15.4040 C   0  0  0  0  0  0  0  0  0  0  0  0
    4.0640    9.4910  -14.7550 C   0  0  0  0  0  0  0  0  0  0  0  0
    4.2140    8.1000  -14.0990 C   0  0  0  0  0  0  0  0  0  0  0  0
    5.4970    7.6670  -13.9310 C   0  0  0  0  0  0  0  0  0  0  0  0
    5.7130    6.4160  -13.3300 C   0  0  0  0  0  0  0  0  0  0  0  0
    4.6940    5.6190  -12.9010 C   0  0  0  0  0  0  0  0  0  0  0  0
    3.4000    6.1060  -13.0900 C   0  0  0  0  0  0  0  0  0  0  0  0
    3.1710    7.3500  -13.6930 C   0  0  0  0  0  0  0  0  0  0  0  0
    5.0670   11.2200  -12.8430 H   0  0  0  0  0  0  0  0  0  0  0  0
    0.7110   13.2720  -12.0150 H   0  0  0  0  0  0  0  0  0  0  0  0
    3.2350   14.4040   -9.7880 H   0  0  0  0  0  0  0  0  0  0  0  0
   -3.3010   11.1040  -12.8010 H   0  0  0  0  0  0  0  0  0  0  0  0
   -3.2610   11.5500  -14.5440 H   0  0  0  0  0  0  0  0  0  0  0  0
   -4.8710    9.7010  -13.8360 H   0  0  0  0  0  0  0  0  0  0  0  0
   -3.8240    9.2760  -15.2100 H   0  0  0  0  0  0  0  0  0  0  0  0
   -3.4350    8.6280  -13.5820 H   0  0  0  0  0  0  0  0  0  0  0  0
    0.2990    9.3700  -15.9620 H   0  0  0  0  0  0  0  0  0  0  0  0
    1.6990    8.2400  -15.6280 H   0  0  0  0  0  0  0  0  0  0  0  0
   -0.8650    8.7590  -14.2580 H   0  0  0  0  0  0  0  0  0  0  0  0
   -0.3970    7.8290  -12.4010 H   0  0  0  0  0  0  0  0  0  0  0  0
    1.1740    7.1380  -12.8730 H   0  0  0  0  0  0  0  0  0  0  0  0
   -0.9360    5.6790  -12.4570 H   0  0  0  0  0  0  0  0  0  0  0  0
    0.1570    5.3090  -13.8860 H   0  0  0  0  0  0  0  0  0  0  0  0
   -2.3280    6.9760  -13.9430 H   0  0  0  0  0  0  0  0  0  0  0  0
   -2.0270    5.4650  -14.9000 H   0  0  0  0  0  0  0  0  0  0  0  0
    0.0050    6.4690  -15.8810 H   0  0  0  0  0  0  0  0  0  0  0  0
   -1.2880    7.7300  -16.1390 H   0  0  0  0  0  0  0  0  0  0  0  0
    4.9930    9.9800  -14.6570 H   0  0  0  0  0  0  0  0  0  0  0  0
    3.7950    9.2570  -15.7920 H   0  0  0  0  0  0  0  0  0  0  0  0
    6.3520    8.2520  -14.2390 H   0  0  0  0  0  0  0  0  0  0  0  0
    6.7240    6.0410  -13.1880 H   0  0  0  0  0  0  0  0  0  0  0  0
    4.8730    4.6530  -12.4340 H   0  0  0  0  0  0  0  0  0  0  0  0
    2.5850    5.5060  -12.7470 H   0  0  0  0  0  0  0  0  0  0  0  0
    2.1700    7.6740  -13.8190 H   0  0  0  0  0  0  0  0  0  0  0  0
  2 10  1  0  0  0  0
  2  1  1  0  0  0  0
  3  2  2  0  0  0  0
  4  8  2  0  0  0  0
  4  3  1  0  0  0  0
  5  4  1  0  0  0  0
  6  5  1  0  0  0  0
  6  7  2  0  0  0  0
  7  8  1  0  0  0  0
  8  9  1  0  0  0  0
  9 31  1  0  0  0  0
  9 10  2  0  0  0  0
 10 11  1  0  0  0  0
 11 32  1  0  0  0  0
 12 14  1  0  0  0  0
 12  7  1  0  0  0  0
 13 12  2  0  0  0  0
 15 14  1  0  0  0  0
 15 33  1  0  0  0  0
 16 35  1  0  0  0  0
 16 15  1  0  0  0  0
 16 37  1  0  0  0  0
 17 18  1  0  0  0  0
 17  6  1  0  0  0  0
 18 40  1  0  0  0  0
 18 19  1  0  0  0  0
 19 42  1  0  0  0  0
 19 41  1  0  0  0  0
 20 19  1  0  0  0  0
 20 43  1  0  0  0  0
 21 45  1  0  0  0  0
 21 20  1  0  0  0  0
 22 18  1  0  0  0  0
 22 21  1  0  0  0  0
 23 49  1  0  0  0  0
 23  5  1  0  0  0  0
 23 24  1  0  0  0  0
 24 25  2  0  0  0  0
 24 29  1  0  0  0  0
 25 26  1  0  0  0  0
 26 52  1  0  0  0  0
 26 27  2  0  0  0  0
 27 53  1  0  0  0  0
 28 27  1  0  0  0  0
 28 54  1  0  0  0  0
 29 28  2  0  0  0  0
 30  3  1  0  0  0  0
 34 15  1  0  0  0  0
 36 16  1  0  0  0  0
 38 17  1  0  0  0  0
 39 17  1  0  0  0  0
 44 20  1  0  0  0  0
 46 21  1  0  0  0  0
 47 22  1  0  0  0  0
 48 22  1  0  0  0  0
 50 23  1  0  0  0  0
 51 25  1  0  0  0  0
 55 29  1  0  0  0  0
M  END
>  <Pose>
1

>  <Score>
-4.61

$$$$
