
 OpenBabel03232203513D

 51 54  0  0  0  0  0  0  0  0999 V2000
    0.4910   17.6800   -9.9760 B   0  0  0  0  0  0  0  0  0  0  0  0
   -1.1420   18.1030  -10.8880 C   0  0  0  0  0  0  0  0  0  0  0  0
   -1.9730   19.0600  -10.3530 C   0  0  0  0  0  0  0  0  0  0  0  0
   -3.1550   19.3840  -10.9730 C   0  0  0  0  0  0  0  0  0  0  0  0
   -4.1680   20.2380  -10.7380 N   0  0  0  0  0  0  0  0  0  0  0  0
   -5.1010   20.1380  -11.7030 C   0  0  0  0  0  0  0  0  0  0  0  0
   -4.6380   19.1960  -12.5440 N   0  0  0  0  0  0  0  0  0  0  0  0
   -3.4490   18.7140  -12.1270 C   0  0  0  0  0  0  0  0  0  0  0  0
   -2.6050   17.7380  -12.6770 C   0  0  0  0  0  0  0  0  0  0  0  0
   -1.4200   17.4130  -12.0570 C   0  0  0  0  0  0  0  0  0  0  0  0
   -0.4910   16.4580  -12.5270 N   0  0  0  0  0  0  0  0  0  0  0  0
   -0.7180   15.4270  -13.4480 C   0  0  0  0  0  0  0  0  0  0  0  0
   -0.7740   15.6780  -14.6780 O   0  0  0  0  0  0  0  0  0  0  0  0
   -0.9030   14.0210  -13.0730 C   0  0  0  0  0  0  0  0  0  0  0  0
    0.1770   13.1360  -13.2580 N   0  0  0  0  0  0  0  0  0  0  0  0
    1.1370   13.0200  -12.2210 C   0  0  0  0  0  0  0  0  0  0  0  0
    2.4530   12.4190  -12.7160 C   0  0  0  0  0  0  0  0  0  0  0  0
    2.1630   11.2040  -13.3490 N   0  0  0  0  0  0  0  0  0  0  0  0
    0.8130   10.8440  -13.5430 C   0  0  0  0  0  0  0  0  0  0  0  0
   -0.1190   11.9380  -13.9690 C   0  0  0  0  0  0  0  0  0  0  0  0
    3.1610   10.6620  -14.1550 C   0  0  0  0  0  0  0  0  0  0  0  0
    3.3140    9.2070  -14.2010 C   0  0  0  0  0  0  0  0  0  0  0  0
    4.4880    8.7910  -14.5460 O   0  0  0  0  0  0  0  0  0  0  0  0
    2.3630    8.2340  -13.9190 N   0  0  0  0  0  0  0  0  0  0  0  0
    2.2330    7.5930  -12.6140 C   0  0  0  0  0  0  0  0  0  0  0  0
    1.0270    7.7860  -11.7930 C   0  0  0  0  0  0  0  0  0  0  0  0
    1.2450    6.4540  -12.4870 C   0  0  0  0  0  0  0  0  0  0  0  0
   -6.3000   20.8710  -11.7970 O   0  0  0  0  0  0  0  0  0  0  0  0
   -1.7280   19.5830   -9.4390 H   0  0  0  0  0  0  0  0  0  0  0  0
   -5.1310   18.8680  -13.4210 H   0  0  0  0  0  0  0  0  0  0  0  0
   -2.9000   17.2570  -13.5790 H   0  0  0  0  0  0  0  0  0  0  0  0
    0.5080   16.5180  -12.1630 H   0  0  0  0  0  0  0  0  0  0  0  0
   -1.1450   14.0360  -11.9650 H   0  0  0  0  0  0  0  0  0  0  0  0
   -1.8060   13.5660  -13.5510 H   0  0  0  0  0  0  0  0  0  0  0  0
    0.7370   12.2170  -11.5180 H   0  0  0  0  0  0  0  0  0  0  0  0
    1.2520   13.9070  -11.6150 H   0  0  0  0  0  0  0  0  0  0  0  0
    3.0430   12.2070  -11.7840 H   0  0  0  0  0  0  0  0  0  0  0  0
    2.9430   13.1300  -13.3660 H   0  0  0  0  0  0  0  0  0  0  0  0
    0.7170    9.9370  -14.1860 H   0  0  0  0  0  0  0  0  0  0  0  0
    0.4220   10.4940  -12.5380 H   0  0  0  0  0  0  0  0  0  0  0  0
   -0.1420   12.0730  -15.0740 H   0  0  0  0  0  0  0  0  0  0  0  0
   -1.1530   11.6200  -13.6830 H   0  0  0  0  0  0  0  0  0  0  0  0
    2.9790   11.0550  -15.2190 H   0  0  0  0  0  0  0  0  0  0  0  0
    4.1720   11.1640  -13.9350 H   0  0  0  0  0  0  0  0  0  0  0  0
    1.6880    7.9290  -14.6510 H   0  0  0  0  0  0  0  0  0  0  0  0
    3.1810    7.4060  -12.0720 H   0  0  0  0  0  0  0  0  0  0  0  0
    1.0980    7.7380  -10.6780 H   0  0  0  0  0  0  0  0  0  0  0  0
    0.1510    8.3400  -12.1260 H   0  0  0  0  0  0  0  0  0  0  0  0
    0.5810    6.1990  -13.3400 H   0  0  0  0  0  0  0  0  0  0  0  0
    1.5190    5.5650  -11.8680 H   0  0  0  0  0  0  0  0  0  0  0  0
   -6.4050   21.4280  -12.6550 H   0  0  0  0  0  0  0  0  0  0  0  0
  2  3  1  0  0  0  0
  2  1  1  0  0  0  0
  3 29  1  0  0  0  0
  4  5  1  0  0  0  0
  4  3  2  0  0  0  0
  6  5  2  0  0  0  0
  7  8  1  0  0  0  0
  7  6  1  0  0  0  0
  8  4  1  0  0  0  0
  9  8  2  0  0  0  0
  9 10  1  0  0  0  0
 10  2  2  0  0  0  0
 11 32  1  0  0  0  0
 11 10  1  0  0  0  0
 12 14  1  0  0  0  0
 12 11  1  0  0  0  0
 13 12  2  0  0  0  0
 14 33  1  0  0  0  0
 15 14  1  0  0  0  0
 15 16  1  0  0  0  0
 16 36  1  0  0  0  0
 16 35  1  0  0  0  0
 17 16  1  0  0  0  0
 17 37  1  0  0  0  0
 18 17  1  0  0  0  0
 19 18  1  0  0  0  0
 19 40  1  0  0  0  0
 20 42  1  0  0  0  0
 20 19  1  0  0  0  0
 20 15  1  0  0  0  0
 21 44  1  0  0  0  0
 21 18  1  0  0  0  0
 22 21  1  0  0  0  0
 22 24  1  0  0  0  0
 23 22  2  0  0  0  0
 24 25  1  0  0  0  0
 25 27  1  0  0  0  0
 25 46  1  0  0  0  0
 25 26  1  0  0  0  0
 26 47  1  0  0  0  0
 27 50  1  0  0  0  0
 27 26  1  0  0  0  0
 28  6  1  0  0  0  0
 30  7  1  0  0  0  0
 31  9  1  0  0  0  0
 34 14  1  0  0  0  0
 38 17  1  0  0  0  0
 39 19  1  0  0  0  0
 41 20  1  0  0  0  0
 43 21  1  0  0  0  0
 45 24  1  0  0  0  0
 48 26  1  0  0  0  0
 49 27  1  0  0  0  0
 51 28  1  0  0  0  0
M  END
>  <Pose>
1

>  <Score>
-6.88

$$$$
