
 OpenBabel03232203513D

 43 46  0  0  1  0  0  0  0  0999 V2000
   -1.6250    6.0710  -14.3280 B   0  0  0  0  0  0  0  0  0  0  0  0
   -0.4780    7.5870  -14.0900 C   0  0  0  0  0  0  0  0  0  0  0  0
    0.5710    7.8360  -14.9720 C   0  0  0  0  0  0  0  0  0  0  0  0
    1.3510    8.9440  -14.7340 C   0  0  0  0  0  0  0  0  0  0  0  0
    2.4160    9.4650  -15.3680 N   0  0  0  0  0  0  0  0  0  0  0  0
    2.8200   10.5630  -14.7360 N   0  0  0  0  0  0  0  0  0  0  0  0
    2.0490   10.8170  -13.6690 C   0  0  0  0  0  0  0  0  0  0  0  0
    1.1040    9.7710  -13.6720 C   0  0  0  0  0  0  0  0  0  0  0  0
    0.0780    9.5360  -12.8010 C   0  0  0  0  0  0  0  0  0  0  0  0
   -0.7140    8.4360  -13.0180 C   0  0  0  0  0  0  0  0  0  0  0  0
    2.1120   11.8560  -12.7230 N   0  0  0  0  0  0  0  0  0  0  0  0
    1.0940   12.9290  -12.6810 C   0  0  0  0  0  0  0  0  0  0  0  0
    1.9180   14.1670  -12.3680 C   0  0  2  0  0  0  0  0  0  0  0  0
    3.0250   13.6200  -11.4910 C   0  0  0  0  0  0  0  0  0  0  0  0
    3.0560   12.1490  -11.6960 C   0  0  0  0  0  0  0  0  0  0  0  0
    3.7570   11.3210  -11.0990 O   0  0  0  0  0  0  0  0  0  0  0  0
    0.9970   15.0890  -11.6840 C   0  0  0  0  0  0  0  0  0  0  0  0
    1.3840   15.8070  -10.7330 O   0  0  0  0  0  0  0  0  0  0  0  0
   -0.3490   15.1470  -12.1360 N   0  0  0  0  0  0  0  0  0  0  0  0
   -0.8050   16.1800  -13.0400 C   0  0  0  0  0  0  0  0  0  0  0  0
   -1.3240   17.4020  -12.3140 C   0  0  0  0  0  0  0  0  0  0  0  0
   -2.6700   17.7680  -12.7990 C   0  0  0  0  0  0  0  0  0  0  0  0
   -3.5630   18.4590  -12.0730 N   0  0  0  0  0  0  0  0  0  0  0  0
   -4.6820   18.6400  -12.7750 C   0  0  0  0  0  0  0  0  0  0  0  0
   -4.5060   18.0510  -13.9890 N   0  0  0  0  0  0  0  0  0  0  0  0
   -3.2780   17.5240  -13.9910 C   0  0  0  0  0  0  0  0  0  0  0  0
    0.7040    7.1420  -15.7820 H   0  0  0  0  0  0  0  0  0  0  0  0
    3.6310   11.1260  -15.0580 H   0  0  0  0  0  0  0  0  0  0  0  0
   -0.0820   10.2230  -11.9710 H   0  0  0  0  0  0  0  0  0  0  0  0
   -1.5330    8.2230  -12.3500 H   0  0  0  0  0  0  0  0  0  0  0  0
    0.6050   13.0020  -13.6460 H   0  0  0  0  0  0  0  0  0  0  0  0
    0.3760   12.6670  -11.8970 H   0  0  0  0  0  0  0  0  0  0  0  0
    2.3010   14.6440  -13.2760 H   0  0  0  0  0  0  0  0  0  0  0  0
    3.9920   13.9890  -11.9510 H   0  0  0  0  0  0  0  0  0  0  0  0
    3.0070   13.9460  -10.4580 H   0  0  0  0  0  0  0  0  0  0  0  0
   -1.0110   14.4220  -11.7950 H   0  0  0  0  0  0  0  0  0  0  0  0
    0.0360   16.4990  -13.6710 H   0  0  0  0  0  0  0  0  0  0  0  0
   -1.6030   15.7950  -13.7120 H   0  0  0  0  0  0  0  0  0  0  0  0
   -1.4100   17.1270  -11.2450 H   0  0  0  0  0  0  0  0  0  0  0  0
   -0.6000   18.2490  -12.3340 H   0  0  0  0  0  0  0  0  0  0  0  0
   -5.5620   19.1610  -12.4410 H   0  0  0  0  0  0  0  0  0  0  0  0
   -5.2470   18.0540  -14.7260 H   0  0  0  0  0  0  0  0  0  0  0  0
   -2.8600   16.9940  -14.8290 H   0  0  0  0  0  0  0  0  0  0  0  0
  1  2  1  0  0  0  0
  2 10  1  0  0  0  0
  3  4  1  0  0  0  0
  3  2  2  0  0  0  0
  4  8  1  0  0  0  0
  5  6  1  0  0  0  0
  5  4  2  0  0  0  0
  6  7  1  0  0  0  0
  7 11  1  0  0  0  0
  8  7  2  0  0  0  0
  8  9  1  0  0  0  0
  9 29  1  0  0  0  0
 10  9  2  0  0  0  0
 10 30  1  0  0  0  0
 11 12  1  0  0  0  0
 11 15  1  0  0  0  0
 12 13  1  0  0  0  0
 12 32  1  0  0  0  0
 13 33  1  6  0  0  0
 13 17  1  0  0  0  0
 13 14  1  0  0  0  0
 14 35  1  0  0  0  0
 15 14  1  0  0  0  0
 15 16  2  0  0  0  0
 17 18  2  0  0  0  0
 19 36  1  0  0  0  0
 19 17  1  0  0  0  0
 20 21  1  0  0  0  0
 20 19  1  0  0  0  0
 21 39  1  0  0  0  0
 22 21  1  0  0  0  0
 22 23  1  0  0  0  0
 24 41  1  0  0  0  0
 24 23  2  0  0  0  0
 25 24  1  0  0  0  0
 26 25  1  0  0  0  0
 26 22  2  0  0  0  0
 27  3  1  0  0  0  0
 28  6  1  0  0  0  0
 31 12  1  0  0  0  0
 34 14  1  0  0  0  0
 37 20  1  0  0  0  0
 38 20  1  0  0  0  0
 40 21  1  0  0  0  0
 42 25  1  0  0  0  0
 43 26  1  0  0  0  0
M  END
>  <Pose>
1

>  <Score>
-7.31

$$$$
