
 OpenBabel03232203513D

 47 50  0  0  0  0  0  0  0  0999 V2000
   -5.6250   21.0610  -10.1190 B   0  0  0  0  0  0  0  0  0  0  0  0
   -4.3540   20.0220  -11.0950 C   0  0  0  0  0  0  0  0  0  0  0  0
   -3.1360   19.5560  -10.6590 C   0  0  0  0  0  0  0  0  0  0  0  0
   -2.5740   18.8740  -11.6520 N   0  0  0  0  0  0  0  0  0  0  0  0
   -3.4120   18.9080  -12.6850 N   0  0  0  0  0  0  0  0  0  0  0  0
   -4.5230   19.6020  -12.3940 C   0  0  0  0  0  0  0  0  0  0  0  0
   -1.2640   18.1960  -11.6440 C   0  0  0  0  0  0  0  0  0  0  0  0
   -1.4440   16.9110  -12.3720 C   0  0  0  0  0  0  0  0  0  0  0  0
   -2.2900   16.8920  -13.3230 O   0  0  0  0  0  0  0  0  0  0  0  0
   -0.7190   15.7910  -12.0270 N   0  0  0  0  0  0  0  0  0  0  0  0
   -0.5990   14.5220  -12.7220 C   0  0  0  0  0  0  0  0  0  0  0  0
    0.7220   13.8810  -12.5510 C   0  0  0  0  0  0  0  0  0  0  0  0
    1.7680   14.5050  -11.9200 C   0  0  0  0  0  0  0  0  0  0  0  0
    2.9810   13.8660  -11.7380 C   0  0  0  0  0  0  0  0  0  0  0  0
    3.1760   12.5770  -12.1830 C   0  0  0  0  0  0  0  0  0  0  0  0
    2.1100   11.9240  -12.8310 C   0  0  0  0  0  0  0  0  0  0  0  0
    0.9100   12.5580  -13.0120 C   0  0  0  0  0  0  0  0  0  0  0  0
   -0.1880   11.8710  -13.6960 C   0  0  0  0  0  0  0  0  0  0  0  0
   -0.1480   10.3950  -13.7450 C   0  0  0  0  0  0  0  0  0  0  0  0
    1.1980    9.8440  -13.8410 N   0  0  0  0  0  0  0  0  0  0  0  0
    2.2870   10.5370  -13.2470 C   0  0  0  0  0  0  0  0  0  0  0  0
    3.3910    9.9320  -13.0920 O   0  0  0  0  0  0  0  0  0  0  0  0
    1.3380    8.5850  -14.5370 C   0  0  0  0  0  0  0  0  0  0  0  0
    4.3750   11.9070  -12.0200 O   0  0  0  0  0  0  0  0  0  0  0  0
    5.5340   12.2960  -12.7290 C   0  0  0  0  0  0  0  0  0  0  0  0
    3.8030   14.7630  -11.0840 O   0  0  0  0  0  0  0  0  0  0  0  0
    3.1930   16.0270  -11.0080 C   0  0  0  0  0  0  0  0  0  0  0  0
    1.8340   15.8080  -11.3740 O   0  0  0  0  0  0  0  0  0  0  0  0
   -2.7400   19.7430   -9.6580 H   0  0  0  0  0  0  0  0  0  0  0  0
   -5.3880   19.8170  -13.0000 H   0  0  0  0  0  0  0  0  0  0  0  0
   -0.9980   18.0090  -10.5740 H   0  0  0  0  0  0  0  0  0  0  0  0
   -0.4830   18.8020  -12.0980 H   0  0  0  0  0  0  0  0  0  0  0  0
   -0.1560   15.8210  -11.1190 H   0  0  0  0  0  0  0  0  0  0  0  0
   -0.6470   14.8580  -13.8130 H   0  0  0  0  0  0  0  0  0  0  0  0
   -1.4440   13.8460  -12.5700 H   0  0  0  0  0  0  0  0  0  0  0  0
   -0.4120   12.2870  -14.7020 H   0  0  0  0  0  0  0  0  0  0  0  0
   -1.1250   12.1260  -13.1030 H   0  0  0  0  0  0  0  0  0  0  0  0
   -0.5950    9.9600  -12.8020 H   0  0  0  0  0  0  0  0  0  0  0  0
   -0.7940   10.0430  -14.5940 H   0  0  0  0  0  0  0  0  0  0  0  0
    0.4320    7.9630  -14.3390 H   0  0  0  0  0  0  0  0  0  0  0  0
    1.3710    8.8040  -15.6200 H   0  0  0  0  0  0  0  0  0  0  0  0
    2.2690    8.0460  -14.2760 H   0  0  0  0  0  0  0  0  0  0  0  0
    5.1850   12.6960  -13.7220 H   0  0  0  0  0  0  0  0  0  0  0  0
    6.2120   11.4430  -12.9290 H   0  0  0  0  0  0  0  0  0  0  0  0
    6.1110   13.0910  -12.1850 H   0  0  0  0  0  0  0  0  0  0  0  0
    3.6130   16.7580  -11.7350 H   0  0  0  0  0  0  0  0  0  0  0  0
    3.1710   16.4070   -9.9630 H   0  0  0  0  0  0  0  0  0  0  0  0
  2  3  2  0  0  0  0
  2  1  1  0  0  0  0
  3 29  1  0  0  0  0
  4  7  1  0  0  0  0
  4  3  1  0  0  0  0
  5  6  2  0  0  0  0
  5  4  1  0  0  0  0
  6  2  1  0  0  0  0
  7 31  1  0  0  0  0
  8 10  1  0  0  0  0
  8  7  1  0  0  0  0
  9  8  2  0  0  0  0
 10 33  1  0  0  0  0
 11 35  1  0  0  0  0
 11 12  1  0  0  0  0
 11 10  1  0  0  0  0
 12 13  1  0  0  0  0
 13 14  2  0  0  0  0
 13 28  1  0  0  0  0
 14 26  1  0  0  0  0
 15 24  1  0  0  0  0
 15 14  1  0  0  0  0
 16 15  2  0  0  0  0
 17 16  1  0  0  0  0
 17 12  2  0  0  0  0
 18 37  1  0  0  0  0
 18 17  1  0  0  0  0
 19 18  1  0  0  0  0
 19 38  1  0  0  0  0
 20 19  1  0  0  0  0
 20 21  1  0  0  0  0
 21 22  2  0  0  0  0
 21 16  1  0  0  0  0
 23 40  1  0  0  0  0
 23 42  1  0  0  0  0
 23 20  1  0  0  0  0
 25 45  1  0  0  0  0
 25 24  1  0  0  0  0
 26 27  1  0  0  0  0
 27 47  1  0  0  0  0
 28 27  1  0  0  0  0
 30  6  1  0  0  0  0
 32  7  1  0  0  0  0
 34 11  1  0  0  0  0
 36 18  1  0  0  0  0
 39 19  1  0  0  0  0
 41 23  1  0  0  0  0
 43 25  1  0  0  0  0
 44 25  1  0  0  0  0
 46 27  1  0  0  0  0
M  END
>  <Pose>
1

>  <Score>
-5.50

$$$$
