
 OpenBabel03232203513D

 41 44  0  0  0  0  0  0  0  0999 V2000
    2.3660   15.8800   -9.8000 B   0  0  0  0  0  0  0  0  0  0  0  0
    2.1040   14.4730  -11.0660 C   0  0  0  0  0  0  0  0  0  0  0  0
    0.9760   14.3910  -11.8390 C   0  0  0  0  0  0  0  0  0  0  0  0
    0.8180   13.4000  -12.7240 N   0  0  0  0  0  0  0  0  0  0  0  0
    1.7360   12.4170  -12.9290 C   0  0  0  0  0  0  0  0  0  0  0  0
    2.8840   12.5080  -12.1320 C   0  0  0  0  0  0  0  0  0  0  0  0
    3.0750   13.5100  -11.2190 C   0  0  0  0  0  0  0  0  0  0  0  0
    1.5270   11.4010  -13.8900 N   0  0  0  0  0  0  0  0  0  0  0  0
    0.4310   10.5250  -13.7070 C   0  0  0  0  0  0  0  0  0  0  0  0
    0.4360    9.2360  -13.5310 C   0  0  0  0  0  0  0  0  0  0  0  0
   -0.9640    8.8290  -13.3940 C   0  0  0  0  0  0  0  0  0  0  0  0
   -1.3360    7.6290  -13.2060 O   0  0  0  0  0  0  0  0  0  0  0  0
   -1.8420    9.9580  -13.4980 N   0  0  0  0  0  0  0  0  0  0  0  0
   -0.9530   11.0560  -13.7010 C   0  0  0  0  0  0  0  0  0  0  0  0
   -1.2880   12.2610  -13.8490 O   0  0  0  0  0  0  0  0  0  0  0  0
   -3.2580    9.9660  -13.4080 C   0  0  0  0  0  0  0  0  0  0  0  0
   -4.0800    9.4860  -14.3950 C   0  0  0  0  0  0  0  0  0  0  0  0
   -5.4850    9.4940  -14.2630 C   0  0  0  0  0  0  0  0  0  0  0  0
   -6.0750    9.9900  -13.1230 C   0  0  0  0  0  0  0  0  0  0  0  0
   -5.2570   10.4710  -12.1330 C   0  0  0  0  0  0  0  0  0  0  0  0
   -3.8690   10.4560  -12.2810 C   0  0  0  0  0  0  0  0  0  0  0  0
    1.5530    8.3460  -13.4830 N   0  0  0  0  0  0  0  0  0  0  0  0
    1.5860    7.3590  -12.5690 C   0  0  0  0  0  0  0  0  0  0  0  0
    2.6730    6.4720  -12.4900 C   0  0  0  0  0  0  0  0  0  0  0  0
    3.7370    6.6070  -13.3630 C   0  0  0  0  0  0  0  0  0  0  0  0
    3.6790    7.6250  -14.2900 C   0  0  0  0  0  0  0  0  0  0  0  0
    2.6000    8.4680  -14.3350 C   0  0  0  0  0  0  0  0  0  0  0  0
    0.2130   15.1410  -11.7180 H   0  0  0  0  0  0  0  0  0  0  0  0
    3.6290   11.7300  -12.2770 H   0  0  0  0  0  0  0  0  0  0  0  0
    3.9690   13.5830  -10.5970 H   0  0  0  0  0  0  0  0  0  0  0  0
    2.1480   11.3010  -14.6920 H   0  0  0  0  0  0  0  0  0  0  0  0
   -3.6420    9.0940  -15.2990 H   0  0  0  0  0  0  0  0  0  0  0  0
   -6.0950    9.1030  -15.0740 H   0  0  0  0  0  0  0  0  0  0  0  0
   -7.1610    9.9910  -13.0330 H   0  0  0  0  0  0  0  0  0  0  0  0
   -5.7130   10.8670  -11.2340 H   0  0  0  0  0  0  0  0  0  0  0  0
   -3.2910   10.8460  -11.4590 H   0  0  0  0  0  0  0  0  0  0  0  0
    0.7410    7.2710  -11.8950 H   0  0  0  0  0  0  0  0  0  0  0  0
    2.6540    5.6850  -11.7330 H   0  0  0  0  0  0  0  0  0  0  0  0
    4.5910    5.9240  -13.3130 H   0  0  0  0  0  0  0  0  0  0  0  0
    4.5020    7.7410  -14.9730 H   0  0  0  0  0  0  0  0  0  0  0  0
    2.5450    9.2850  -15.0730 H   0  0  0  0  0  0  0  0  0  0  0  0
  2  1  1  0  0  0  0
  3 28  1  0  0  0  0
  3  2  2  0  0  0  0
  4  3  1  0  0  0  0
  5  4  2  0  0  0  0
  5  6  1  0  0  0  0
  6  7  2  0  0  0  0
  7  2  1  0  0  0  0
  7 30  1  0  0  0  0
  8  9  1  0  0  0  0
  8  5  1  0  0  0  0
  9 14  1  0  0  0  0
  9 10  2  0  0  0  0
 10 22  1  0  0  0  0
 10 11  1  0  0  0  0
 11 12  2  0  0  0  0
 13 16  1  0  0  0  0
 13 11  1  0  0  0  0
 14 13  1  0  0  0  0
 15 14  2  0  0  0  0
 16 21  1  0  0  0  0
 17 18  1  0  0  0  0
 17 16  2  0  0  0  0
 18 19  2  0  0  0  0
 19 34  1  0  0  0  0
 19 20  1  0  0  0  0
 20 35  1  0  0  0  0
 21 20  2  0  0  0  0
 21 36  1  0  0  0  0
 22 23  1  0  0  0  0
 23 24  1  0  0  0  0
 23 37  1  0  0  0  0
 24 38  1  0  0  0  0
 25 39  1  0  0  0  0
 25 24  2  0  0  0  0
 26 25  1  0  0  0  0
 27 26  2  0  0  0  0
 27 22  1  0  0  0  0
 29  6  1  0  0  0  0
 31  8  1  0  0  0  0
 32 17  1  0  0  0  0
 33 18  1  0  0  0  0
 40 26  1  0  0  0  0
 41 27  1  0  0  0  0
M  END
>  <Pose>
1

>  <Score>
-4.67

$$$$
