
 OpenBabel03232203513D

 48 43  0  0  1  0  0  0  0  0999 V2000
   -2.1000    5.7190  -13.6250 B   0  0  0  0  0  0  0  0  0  0  0  0
   -0.5190    6.6360  -13.1470 C   0  0  0  0  0  0  0  0  0  0  0  0
    0.6130    5.9180  -12.7960 C   0  0  0  0  0  0  0  0  0  0  0  0
    1.7100    6.6130  -12.4640 N   0  0  0  0  0  0  0  0  0  0  0  0
    1.7740    7.9540  -12.4540 C   0  0  0  0  0  0  0  0  0  0  0  0
    0.6480    8.6570  -12.8020 C   0  0  0  0  0  0  0  0  0  0  0  0
   -0.5260    8.0140  -13.1580 C   0  0  1  0  0  0  0  0  0  0  0  0
    0.6770   10.1110  -12.8030 C   0  0  0  0  0  0  0  0  0  0  0  0
    1.7500   10.7320  -12.5550 O   0  0  0  0  0  0  0  0  0  0  0  0
   -0.4580   10.8550  -13.0710 O   0  0  0  0  0  0  0  0  0  0  0  0
    0.3420    6.2240  -14.1580 N   0  0  0  0  0  0  0  0  0  0  0  0
    1.1150    6.1210  -12.9310 C   0  0  0  0  0  0  0  0  0  0  0  0
    0.5680    7.0120  -11.8380 C   0  0  0  0  0  0  0  0  0  0  0  0
    1.2170    8.3830  -11.9120 C   0  0  0  0  0  0  0  0  0  0  0  0
    0.6560    9.1810  -13.0680 C   0  0  0  0  0  0  0  0  0  0  0  0
   -0.5630    8.5270  -13.5690 C   0  0  0  0  0  0  0  0  0  0  0  0
   -0.6770    7.2400  -14.0390 C   0  0  1  0  0  0  0  0  0  0  0  0
   -1.8650    6.7990  -14.4600 N   0  0  0  0  0  0  0  0  0  0  0  0
   -2.9570    7.5670  -14.4430 C   0  0  0  0  0  0  0  0  0  0  0  0
   -2.8670    8.8550  -13.9790 C   0  0  0  0  0  0  0  0  0  0  0  0
   -1.6520    9.3380  -13.5370 C   0  0  0  0  0  0  0  0  0  0  0  0
   -1.5790   10.6900  -13.0560 N   0  0  0  0  0  0  0  0  0  0  0  0
   -3.9730    9.6990  -13.9390 C   0  0  0  0  0  0  0  0  0  0  0  0
   -5.1740    9.2050  -14.3810 C   0  0  0  0  0  0  0  0  0  0  0  0
   -5.2640    7.9160  -14.8460 C   0  0  0  0  0  0  0  0  0  0  0  0
   -4.1500    7.0780  -14.8810 C   0  0  0  0  0  0  0  0  0  0  0  0
   -0.3360    4.9490  -14.3620 C   0  0  0  0  0  0  0  0  0  0  0  0
    0.5730    4.8410  -12.8030 H   0  0  0  0  0  0  0  0  0  0  0  0
    2.6890    8.4410  -12.1760 H   0  0  0  0  0  0  0  0  0  0  0  0
   -1.4160    8.5330  -13.4330 H   0  0  0  0  0  0  0  0  0  0  0  0
    0.9700    6.4320  -14.9680 H   0  0  0  0  0  0  0  0  0  0  0  0
    2.1790    6.3610  -13.0730 H   0  0  0  0  0  0  0  0  0  0  0  0
    1.0880    5.0760  -12.5250 H   0  0  0  0  0  0  0  0  0  0  0  0
    0.8630    6.5820  -10.8570 H   0  0  0  0  0  0  0  0  0  0  0  0
   -0.5250    7.0690  -11.9740 H   0  0  0  0  0  0  0  0  0  0  0  0
    1.0600    8.8930  -10.9600 H   0  0  0  0  0  0  0  0  0  0  0  0
    2.2940    8.2340  -12.0840 H   0  0  0  0  0  0  0  0  0  0  0  0
    0.4610   10.2190  -12.7290 H   0  0  0  0  0  0  0  0  0  0  0  0
    1.4220    9.2860  -13.8900 H   0  0  0  0  0  0  0  0  0  0  0  0
   -0.9260   10.9270  -12.2930 H   0  0  0  0  0  0  0  0  0  0  0  0
   -2.1800   11.4410  -13.4650 H   0  0  0  0  0  0  0  0  0  0  0  0
   -3.8690   10.7060  -13.5680 H   0  0  0  0  0  0  0  0  0  0  0  0
   -6.0640    9.8260  -14.3690 H   0  0  0  0  0  0  0  0  0  0  0  0
   -6.2010    7.5230  -15.1940 H   0  0  0  0  0  0  0  0  0  0  0  0
   -4.1960    6.0610  -15.2430 H   0  0  0  0  0  0  0  0  0  0  0  0
    0.3850    4.1510  -14.1180 H   0  0  0  0  0  0  0  0  0  0  0  0
   -0.7580    4.8840  -15.3760 H   0  0  0  0  0  0  0  0  0  0  0  0
   -1.1610    4.8840  -13.6090 H   0  0  0  0  0  0  0  0  0  0  0  0
  3 33  1  0  0  0  0
  4 13  1  0  0  0  0
  5 37  1  0  0  0  0
  5 14  1  0  0  0  0
  6 14  1  0  0  0  0
  7 16  1  6  0  0  0
  7  2  1  0  0  0  0
  8  9  2  0  0  0  0
 10 22  1  0  0  0  0
 10 40  1  0  0  0  0
 11 17  1  0  0  0  0
 12  3  1  0  0  0  0
 12  4  1  0  0  0  0
 13 34  1  0  0  0  0
 14 36  1  0  0  0  0
 15  8  1  0  0  0  0
 15  6  1  0  0  0  0
 17 18  1  6  0  0  0
 17  7  1  0  0  0  0
 17  2  1  0  0  0  0
 18 19  1  0  0  0  0
 18  1  1  0  0  0  0
 19 20  1  0  0  0  0
 20 23  2  0  0  0  0
 20 21  1  0  0  0  0
 21 30  1  0  0  0  0
 21 22  1  0  0  0  0
 23 42  1  0  0  0  0
 24 43  1  0  0  0  0
 24 23  1  0  0  0  0
 25 24  2  0  0  0  0
 26 25  1  0  0  0  0
 26 19  2  0  0  0  0
 27 11  1  0  0  0  0
 27 46  1  0  0  0  0
 27 48  1  0  0  0  0
 31 11  1  0  0  0  0
 32  4  1  0  0  0  0
 35 13  1  0  0  0  0
 41 22  1  0  0  0  0
 44 25  1  0  0  0  0
 45 26  1  0  0  0  0
 47 27  1  0  0  0  0
M  END
>  <Pose>
1

>  <Score>
-5.49

$$$$
