
 OpenBabel03232203513D

 57 60  0  0  0  0  0  0  0  0999 V2000
   -5.4490   29.0540   -8.8470 B   0  0  0  0  0  0  0  0  0  0  0  0
   -5.3450   27.8540   -7.3770 C   0  0  0  0  0  0  0  0  0  0  0  0
   -6.4520   27.1020   -7.0340 C   0  0  0  0  0  0  0  0  0  0  0  0
   -6.4430   26.1990   -5.9600 C   0  0  0  0  0  0  0  0  0  0  0  0
   -5.2960   26.0540   -5.2210 C   0  0  0  0  0  0  0  0  0  0  0  0
   -4.1850   26.8030   -5.5580 C   0  0  0  0  0  0  0  0  0  0  0  0
   -4.1940   27.6900   -6.6130 C   0  0  0  0  0  0  0  0  0  0  0  0
   -2.5780   26.6270   -4.5540 B   0  0  0  0  0  0  0  0  0  0  0  0
   -7.6410   25.4380   -5.6280 C   0  0  0  0  0  0  0  0  0  0  0  0
   -7.7110   25.0110   -4.4430 O   0  0  0  0  0  0  0  0  0  0  0  0
   -8.6990   25.1790   -6.5990 C   0  0  0  0  0  0  0  0  0  0  0  0
   -8.3890   25.9770   -7.8930 C   0  0  0  0  0  0  0  0  0  0  0  0
   -7.6730   27.1400   -7.6850 O   0  0  0  0  0  0  0  0  0  0  0  0
   -8.8770   23.8080   -7.0640 C   0  0  0  0  0  0  0  0  0  0  0  0
   -7.9230   23.0060   -7.6780 N   0  0  0  0  0  4  0  0  0  0  0  0
   -6.5380   23.3590   -7.6460 C   0  0  0  0  0  0  0  0  0  0  0  0
   -5.7550   22.0340   -7.8330 C   0  0  0  0  0  0  0  0  0  0  0  0
   -5.9330   21.6720   -9.2920 C   0  0  0  0  0  0  0  0  0  0  0  0
   -7.0950   22.4130   -9.9160 C   0  0  0  0  0  0  0  0  0  0  0  0
   -8.2870   22.4790   -8.9860 C   0  0  0  0  0  0  0  0  0  0  0  0
  -10.0030   25.6990   -6.0140 C   0  0  0  0  0  0  0  0  0  0  0  0
  -11.1680   25.1050   -6.6230 N   0  0  0  0  0  4  0  0  0  0  0  0
  -11.6490   26.0190   -7.6500 C   0  0  0  0  0  0  0  0  0  0  0  0
  -11.8580   27.3670   -7.0440 C   0  0  0  0  0  0  0  0  0  0  0  0
  -12.7230   27.3920   -5.8380 C   0  0  0  0  0  0  0  0  0  0  0  0
  -12.6110   26.2070   -4.9430 C   0  0  0  0  0  0  0  0  0  0  0  0
  -12.2970   24.9500   -5.7240 C   0  0  0  0  0  0  0  0  0  0  0  0
   -5.2660   25.3530   -4.3750 H   0  0  0  0  0  0  0  0  0  0  0  0
   -3.3270   28.2790   -6.8820 H   0  0  0  0  0  0  0  0  0  0  0  0
   -9.3350   26.1200   -8.4650 H   0  0  0  0  0  0  0  0  0  0  0  0
   -7.7960   25.2880   -8.5270 H   0  0  0  0  0  0  0  0  0  0  0  0
   -9.7910   23.7680   -7.7480 H   0  0  0  0  0  0  0  0  0  0  0  0
   -9.2850   23.2320   -6.1630 H   0  0  0  0  0  0  0  0  0  0  0  0
   -7.9290   22.1040   -7.0740 H   0  0  0  0  0  0  0  0  0  0  0  0
   -6.2310   23.7690   -6.6780 H   0  0  0  0  0  0  0  0  0  0  0  0
   -6.1750   23.9310   -8.5290 H   0  0  0  0  0  0  0  0  0  0  0  0
   -6.1700   21.2550   -7.1670 H   0  0  0  0  0  0  0  0  0  0  0  0
   -4.6950   22.2430   -7.5860 H   0  0  0  0  0  0  0  0  0  0  0  0
   -5.0120   22.0500   -9.8180 H   0  0  0  0  0  0  0  0  0  0  0  0
   -5.9640   20.5880   -9.4670 H   0  0  0  0  0  0  0  0  0  0  0  0
   -7.4280   21.7630  -10.7800 H   0  0  0  0  0  0  0  0  0  0  0  0
   -6.8290   23.3710  -10.3700 H   0  0  0  0  0  0  0  0  0  0  0  0
   -8.6660   21.4140   -8.9320 H   0  0  0  0  0  0  0  0  0  0  0  0
   -9.0940   23.0170   -9.4830 H   0  0  0  0  0  0  0  0  0  0  0  0
  -10.0030   25.6360   -4.9230 H   0  0  0  0  0  0  0  0  0  0  0  0
  -10.0240   26.7690   -6.2960 H   0  0  0  0  0  0  0  0  0  0  0  0
  -10.9640   24.1640   -7.0030 H   0  0  0  0  0  0  0  0  0  0  0  0
  -10.9660   26.0940   -8.5000 H   0  0  0  0  0  0  0  0  0  0  0  0
  -12.6580   25.6430   -7.9650 H   0  0  0  0  0  0  0  0  0  0  0  0
  -12.3520   28.0000   -7.8400 H   0  0  0  0  0  0  0  0  0  0  0  0
  -10.9200   27.9090   -6.8100 H   0  0  0  0  0  0  0  0  0  0  0  0
  -12.4660   28.2990   -5.2160 H   0  0  0  0  0  0  0  0  0  0  0  0
  -13.7870   27.5840   -6.1560 H   0  0  0  0  0  0  0  0  0  0  0  0
  -13.6430   26.0330   -4.5120 H   0  0  0  0  0  0  0  0  0  0  0  0
  -11.9660   26.3480   -4.0590 H   0  0  0  0  0  0  0  0  0  0  0  0
  -12.2760   24.0660   -5.0950 H   0  0  0  0  0  0  0  0  0  0  0  0
  -13.1910   24.8040   -6.4050 H   0  0  0  0  0  0  0  0  0  0  0  0
  1  2  1  0  0  0  0
  2  3  2  0  0  0  0
  2  7  1  0  0  0  0
  3  4  1  0  0  0  0
  4  9  1  0  0  0  0
  4  5  2  0  0  0  0
  5 28  1  0  0  0  0
  6  5  1  0  0  0  0
  6  8  1  0  0  0  0
  7  6  2  0  0  0  0
  9 10  2  0  0  0  0
 11 21  1  0  0  0  0
 11  9  1  0  0  0  0
 12 13  1  0  0  0  0
 12 11  1  0  0  0  0
 13  3  1  0  0  0  0
 14 11  1  0  0  0  0
 14 33  1  0  0  0  0
 15 16  1  0  0  0  0
 15 34  1  0  0  0  0
 15 14  1  0  0  0  0
 16 35  1  0  0  0  0
 17 16  1  0  0  0  0
 17 38  1  0  0  0  0
 17 37  1  0  0  0  0
 18 17  1  0  0  0  0
 19 18  1  0  0  0  0
 19 20  1  0  0  0  0
 20 43  1  0  0  0  0
 20 15  1  0  0  0  0
 21 45  1  0  0  0  0
 22 21  1  0  0  0  0
 22 27  1  0  0  0  0
 23 24  1  0  0  0  0
 23 22  1  0  0  0  0
 24 51  1  0  0  0  0
 24 25  1  0  0  0  0
 25 52  1  0  0  0  0
 25 26  1  0  0  0  0
 26 54  1  0  0  0  0
 26 55  1  0  0  0  0
 27 56  1  0  0  0  0
 27 26  1  0  0  0  0
 29  7  1  0  0  0  0
 30 12  1  0  0  0  0
 31 12  1  0  0  0  0
 32 14  1  0  0  0  0
 36 16  1  0  0  0  0
 39 18  1  0  0  0  0
 40 18  1  0  0  0  0
 41 19  1  0  0  0  0
 42 19  1  0  0  0  0
 44 20  1  0  0  0  0
 46 21  1  0  0  0  0
 47 22  1  0  0  0  0
 48 23  1  0  0  0  0
 49 23  1  0  0  0  0
 50 24  1  0  0  0  0
 53 25  1  0  0  0  0
 57 27  1  0  0  0  0
M  END
>  <Pose>
1

>  <Score>
-3.29

$$$$
