
 OpenBabel03232203513D

 56 59  0  0  1  0  0  0  0  0999 V2000
   -2.2660   17.0630  -13.9620 B   0  0  0  0  0  0  0  0  0  0  0  0
   -1.9580   17.9030  -12.2830 C   0  0  0  0  0  0  0  0  0  0  0  0
   -2.9080   18.7670  -11.7740 C   0  0  0  0  0  0  0  0  0  0  0  0
   -2.7110   19.3890  -10.5590 C   0  0  0  0  0  0  0  0  0  0  0  0
   -1.5360   19.1080   -9.8920 C   0  0  0  0  0  0  0  0  0  0  0  0
   -0.5920   18.2430  -10.4070 C   0  0  0  0  0  0  0  0  0  0  0  0
   -0.7800   17.6150  -11.6220 C   0  0  0  0  0  0  0  0  0  0  0  0
    0.1660   16.7400  -12.1530 O   0  0  0  0  0  0  0  0  0  0  0  0
   -0.1210   15.3560  -12.1070 C   0  0  0  0  0  0  0  0  0  0  0  0
    0.9650   14.5740  -11.4130 C   0  0  2  0  0  0  0  0  0  0  0  0
    1.4710   15.2150  -10.3120 O   0  0  0  0  0  0  0  0  0  0  0  0
    2.0280   14.1720  -12.3750 C   0  0  0  0  0  0  0  0  0  0  0  0
    2.4310   12.7880  -12.2600 N   0  0  0  0  0  4  0  0  0  0  0  0
    3.5770   12.6090  -13.1350 C   0  0  0  0  0  0  0  0  0  0  0  0
    3.9460   11.1280  -13.3000 C   0  0  0  0  0  0  0  0  0  0  0  0
    2.8190   10.4290  -13.8040 N   0  0  0  0  0  0  0  0  0  0  0  0
    1.6040   11.2530  -13.9730 C   0  0  0  0  0  0  0  0  0  0  0  0
    1.3220   11.9460  -12.6810 C   0  0  0  0  0  0  0  0  0  0  0  0
    2.7920    9.0700  -14.1350 C   0  0  0  0  0  0  0  0  0  0  0  0
    3.5780    8.7660  -15.1550 O   0  0  0  0  0  0  0  0  0  0  0  0
    2.0820    7.9600  -13.5860 C   0  0  0  0  0  0  0  0  0  0  0  0
    2.5950    6.9640  -12.8060 C   0  0  0  0  0  0  0  0  0  0  0  0
    1.8460    5.9090  -12.3030 C   0  0  0  0  0  0  0  0  0  0  0  0
    0.5190    5.8240  -12.5780 C   0  0  0  0  0  0  0  0  0  0  0  0
   -0.0310    6.8150  -13.3640 C   0  0  0  0  0  0  0  0  0  0  0  0
    0.7100    7.8580  -13.8620 C   0  0  0  0  0  0  0  0  0  0  0  0
   -3.6640   20.2550  -10.0490 C   0  0  0  0  0  0  0  0  0  0  0  0
   -4.8390   20.5370  -10.7160 C   0  0  0  0  0  0  0  0  0  0  0  0
   -5.0360   19.9150  -11.9330 C   0  0  0  0  0  0  0  0  0  0  0  0
   -4.0860   19.0510  -12.4410 C   0  0  0  0  0  0  0  0  0  0  0  0
   -1.3740   19.5930   -8.9370 H   0  0  0  0  0  0  0  0  0  0  0  0
    0.3340   18.0240   -9.8770 H   0  0  0  0  0  0  0  0  0  0  0  0
   -1.0680   15.2380  -11.5420 H   0  0  0  0  0  0  0  0  0  0  0  0
   -0.2680   15.0110  -13.1540 H   0  0  0  0  0  0  0  0  0  0  0  0
    0.4770   13.6180  -11.0620 H   0  0  0  0  0  0  0  0  0  0  0  0
    2.2980   14.8400   -9.9590 H   0  0  0  0  0  0  0  0  0  0  0  0
    2.9440   14.7850  -12.1540 H   0  0  0  0  0  0  0  0  0  0  0  0
    1.7020   14.3300  -13.4180 H   0  0  0  0  0  0  0  0  0  0  0  0
    2.7230   12.5140  -11.2980 H   0  0  0  0  0  0  0  0  0  0  0  0
    3.4180   13.1160  -14.0990 H   0  0  0  0  0  0  0  0  0  0  0  0
    4.4450   13.0800  -12.6270 H   0  0  0  0  0  0  0  0  0  0  0  0
    4.7530   11.1230  -14.0570 H   0  0  0  0  0  0  0  0  0  0  0  0
    4.3460   10.7750  -12.3320 H   0  0  0  0  0  0  0  0  0  0  0  0
    1.8550   12.0040  -14.7420 H   0  0  0  0  0  0  0  0  0  0  0  0
    0.7550   10.6390  -14.2650 H   0  0  0  0  0  0  0  0  0  0  0  0
    1.0710   11.1900  -11.9110 H   0  0  0  0  0  0  0  0  0  0  0  0
    0.3970   12.5590  -12.8290 H   0  0  0  0  0  0  0  0  0  0  0  0
    3.6220    6.9490  -12.5390 H   0  0  0  0  0  0  0  0  0  0  0  0
    2.3170    5.1470  -11.6860 H   0  0  0  0  0  0  0  0  0  0  0  0
   -0.0950    5.0170  -12.2040 H   0  0  0  0  0  0  0  0  0  0  0  0
   -1.0890    6.7450  -13.5830 H   0  0  0  0  0  0  0  0  0  0  0  0
    0.1770    8.5760  -14.4660 H   0  0  0  0  0  0  0  0  0  0  0  0
   -3.5110   20.7440   -9.0960 H   0  0  0  0  0  0  0  0  0  0  0  0
   -5.5650   21.2200  -10.2900 H   0  0  0  0  0  0  0  0  0  0  0  0
   -5.9650   20.1410  -12.4520 H   0  0  0  0  0  0  0  0  0  0  0  0
   -4.2430   18.5630  -13.3960 H   0  0  0  0  0  0  0  0  0  0  0  0
  1  2  1  0  0  0  0
  2  3  2  0  0  0  0
  2  7  1  0  0  0  0
  3  4  1  0  0  0  0
  4 27  1  0  0  0  0
  4  5  2  0  0  0  0
  5 31  1  0  0  0  0
  6  5  1  0  0  0  0
  6 32  1  0  0  0  0
  7  6  2  0  0  0  0
  8  9  1  0  0  0  0
  8  7  1  0  0  0  0
  9 33  1  0  0  0  0
  9 10  1  0  0  0  0
 10 35  1  1  0  0  0
 10 11  1  0  0  0  0
 11 36  1  0  0  0  0
 12 13  1  0  0  0  0
 12 37  1  0  0  0  0
 12 10  1  0  0  0  0
 13 39  1  0  0  0  0
 14 41  1  0  0  0  0
 14 13  1  0  0  0  0
 15 14  1  0  0  0  0
 15 43  1  0  0  0  0
 16 15  1  0  0  0  0
 17 16  1  0  0  0  0
 17 18  1  0  0  0  0
 18 13  1  0  0  0  0
 18 46  1  0  0  0  0
 19 16  1  0  0  0  0
 19 21  1  0  0  0  0
 20 19  2  0  0  0  0
 21 22  1  0  0  0  0
 22 48  1  0  0  0  0
 22 23  2  0  0  0  0
 23 49  1  0  0  0  0
 24 23  1  0  0  0  0
 24 50  1  0  0  0  0
 25 24  2  0  0  0  0
 26 21  2  0  0  0  0
 26 25  1  0  0  0  0
 27 53  1  0  0  0  0
 28 54  1  0  0  0  0
 28 27  2  0  0  0  0
 29 28  1  0  0  0  0
 30 29  2  0  0  0  0
 30  3  1  0  0  0  0
 34  9  1  0  0  0  0
 38 12  1  0  0  0  0
 40 14  1  0  0  0  0
 42 15  1  0  0  0  0
 44 17  1  0  0  0  0
 45 17  1  0  0  0  0
 47 18  1  0  0  0  0
 51 25  1  0  0  0  0
 52 26  1  0  0  0  0
 55 29  1  0  0  0  0
 56 30  1  0  0  0  0
M  END
>  <Pose>
1

>  <Score>
-6.46

$$$$
