
 OpenBabel03232203513D

 46 50  0  0  1  0  0  0  0  0999 V2000
    1.1140   17.5120  -11.4540 B   0  0  0  0  0  0  0  0  0  0  0  0
    1.2060   15.6600  -11.9860 C   0  0  0  0  0  0  0  0  0  0  0  0
    0.2120   14.9140  -12.5040 N   0  0  0  0  0  0  0  0  0  0  0  0
    0.6640   13.6730  -12.7460 C   0  0  0  0  0  0  0  0  0  0  0  0
    1.9910   13.6390  -12.3660 C   0  0  0  0  0  0  0  0  0  0  0  0
    2.2860   14.8630  -11.9090 N   0  0  0  0  0  0  0  0  0  0  0  0
    2.6780   12.4880  -12.5160 N   0  0  0  0  0  0  0  0  0  0  0  0
    2.1230   11.3660  -13.0240 C   0  0  0  0  0  0  0  0  0  0  0  0
    2.8050   10.3050  -13.1470 O   0  0  0  0  0  0  0  0  0  0  0  0
    0.8330   11.3640  -13.4050 N   0  0  0  0  0  0  0  0  0  0  0  0
    0.1390   12.5060  -13.2610 C   0  0  0  0  0  0  0  0  0  0  0  0
   -1.0580   12.5160  -13.6130 O   0  0  0  0  0  0  0  0  0  0  0  0
    0.2600   10.1480  -13.9480 C   0  0  0  0  0  0  0  0  0  0  0  0
    4.0700   12.4610  -12.1130 C   0  0  0  0  0  0  0  0  0  0  0  0
   -1.0960   15.4230  -12.7450 C   0  0  0  0  0  0  0  0  0  0  0  0
   -1.2030   16.6900  -13.5120 C   0  0  0  0  0  0  0  0  0  0  0  0
   -2.3220   17.5300  -13.2420 N   0  0  0  0  0  0  0  0  0  0  0  0
   -2.4590   18.3330  -12.1580 C   0  0  0  0  0  0  0  0  0  0  0  0
   -3.6640   18.9880  -12.2260 C   0  0  0  0  0  0  0  0  0  0  0  0
   -4.2320   18.5590  -13.3660 N   0  0  0  0  0  0  0  0  0  0  0  0
   -3.4260   17.6810  -13.9780 C   0  0  0  0  0  0  0  0  0  0  0  0
   -3.7500   16.7550  -15.6380 B   0  0  0  0  0  0  0  0  0  0  0  0
   -4.0890   19.8670  -11.2800 N   0  0  0  0  0  0  0  0  0  0  0  0
   -3.2640   20.0820  -10.2400 C   0  0  0  0  0  0  0  0  0  0  0  0
   -3.6470   20.8960   -9.3550 O   0  0  0  0  0  0  0  0  0  0  0  0
   -2.0730   19.4700  -10.1200 N   0  0  0  0  0  0  0  0  0  0  0  0
   -1.6650   18.6100  -11.0520 C   0  0  1  0  0  0  0  0  0  0  0  0
   -0.5620   18.0030  -10.9990 O   0  0  0  0  0  0  0  0  0  0  0  0
   -1.2220   19.7370   -8.9800 C   0  0  0  0  0  0  0  0  0  0  0  0
   -5.3750   20.5440  -11.3860 C   0  0  0  0  0  0  0  0  0  0  0  0
   -0.8430   10.1730  -13.8780 H   0  0  0  0  0  0  0  0  0  0  0  0
    0.5130   10.0040  -15.0240 H   0  0  0  0  0  0  0  0  0  0  0  0
    0.6710    9.2990  -13.3620 H   0  0  0  0  0  0  0  0  0  0  0  0
    4.2650   11.4580  -11.6470 H   0  0  0  0  0  0  0  0  0  0  0  0
    4.2680   13.2280  -11.3590 H   0  0  0  0  0  0  0  0  0  0  0  0
    4.7180   12.5480  -13.0140 H   0  0  0  0  0  0  0  0  0  0  0  0
   -1.7570   14.6800  -13.2870 H   0  0  0  0  0  0  0  0  0  0  0  0
   -1.5980   15.5070  -11.7370 H   0  0  0  0  0  0  0  0  0  0  0  0
   -1.1750   16.4150  -14.5990 H   0  0  0  0  0  0  0  0  0  0  0  0
   -0.2630   17.3150  -13.3960 H   0  0  0  0  0  0  0  0  0  0  0  0
   -0.4840   18.9260   -8.8130 H   0  0  0  0  0  0  0  0  0  0  0  0
   -0.6160   20.6760   -9.1190 H   0  0  0  0  0  0  0  0  0  0  0  0
   -1.8130   19.7980   -8.0310 H   0  0  0  0  0  0  0  0  0  0  0  0
   -5.5980   20.8530  -12.4290 H   0  0  0  0  0  0  0  0  0  0  0  0
   -6.1910   19.9270  -10.9500 H   0  0  0  0  0  0  0  0  0  0  0  0
   -5.2880   21.4870  -10.8050 H   0  0  0  0  0  0  0  0  0  0  0  0
  1 28  1  0  0  0  0
  2  6  2  0  0  0  0
  2  1  1  0  0  0  0
  3  2  1  0  0  0  0
  4  3  1  0  0  0  0
  4  5  2  0  0  0  0
  5  6  1  0  0  0  0
  7  5  1  0  0  0  0
  7 14  1  0  0  0  0
  8  7  1  0  0  0  0
  9  8  2  0  0  0  0
 10 11  1  0  0  0  0
 10  8  1  0  0  0  0
 11  4  1  0  0  0  0
 12 11  2  0  0  0  0
 13 31  1  0  0  0  0
 13 10  1  0  0  0  0
 13 33  1  0  0  0  0
 14 34  1  0  0  0  0
 14 35  1  0  0  0  0
 15  3  1  0  0  0  0
 15 38  1  0  0  0  0
 16 40  1  0  0  0  0
 16 17  1  0  0  0  0
 16 15  1  0  0  0  0
 17 18  1  0  0  0  0
 19 18  2  0  0  0  0
 19 23  1  0  0  0  0
 20 19  1  0  0  0  0
 21 20  2  0  0  0  0
 21 17  1  0  0  0  0
 22 21  1  0  0  0  0
 23 24  1  0  0  0  0
 24 26  1  0  0  0  0
 24 25  2  0  0  0  0
 26 29  1  0  0  0  0
 27 18  1  1  0  0  0
 27 28  1  0  0  0  0
 27 26  1  0  0  0  0
 29 41  1  0  0  0  0
 29 43  1  0  0  0  0
 30 23  1  0  0  0  0
 30 45  1  0  0  0  0
 30 46  1  0  0  0  0
 32 13  1  0  0  0  0
 36 14  1  0  0  0  0
 37 15  1  0  0  0  0
 39 16  1  0  0  0  0
 42 29  1  0  0  0  0
 44 30  1  0  0  0  0
M  END
>  <Pose>
1

>  <Score>
-6.12

$$$$
