
 OpenBabel03232203513D

 43 46  0  0  0  0  0  0  0  0999 V2000
    1.0790   17.5440  -11.0690 B   0  0  0  0  0  0  0  0  0  0  0  0
    1.0210   15.8110  -11.8560 C   0  0  0  0  0  0  0  0  0  0  0  0
   -0.0170   15.3870  -12.6390 N   0  0  0  0  0  0  0  0  0  0  0  0
    0.3150   14.1300  -12.9950 C   0  0  0  0  0  0  0  0  0  0  0  0
    1.5350   13.7670  -12.4470 C   0  0  0  0  0  0  0  0  0  0  0  0
    1.9430   14.8440  -11.7420 N   0  0  0  0  0  0  0  0  0  0  0  0
    2.1220   12.5730  -12.6340 N   0  0  0  0  0  0  0  0  0  0  0  0
    1.4630   11.6930  -13.4090 C   0  0  0  0  0  0  0  0  0  0  0  0
    1.9790   10.5440  -13.6160 O   0  0  0  0  0  0  0  0  0  0  0  0
    0.2760   12.0040  -13.9620 N   0  0  0  0  0  0  0  0  0  0  0  0
   -0.3220   13.2140  -13.7740 C   0  0  0  0  0  0  0  0  0  0  0  0
   -1.4220   13.4870  -14.2960 O   0  0  0  0  0  0  0  0  0  0  0  0
    3.3960   12.2010  -12.0560 C   0  0  0  0  0  0  0  0  0  0  0  0
   -1.1760   16.1860  -12.9820 C   0  0  0  0  0  0  0  0  0  0  0  0
   -1.8350   16.8380  -11.8020 C   0  0  0  0  0  0  0  0  0  0  0  0
   -1.7330   18.3360  -11.7770 C   0  0  0  0  0  0  0  0  0  0  0  0
   -3.0630   18.9270  -11.8350 N   0  0  0  0  0  0  0  0  0  0  0  0
   -3.6230   19.8220  -10.9900 C   0  0  0  0  0  0  0  0  0  0  0  0
   -4.9000   20.1300  -11.3970 C   0  0  0  0  0  0  0  0  0  0  0  0
   -5.1090   19.4030  -12.5110 N   0  0  0  0  0  0  0  0  0  0  0  0
   -3.9970   18.6810  -12.7680 C   0  0  0  0  0  0  0  0  0  0  0  0
   -3.7300   17.4740  -14.2240 B   0  0  0  0  0  0  0  0  0  0  0  0
   -5.7020   20.9940  -10.7490 N   0  0  0  0  0  0  0  0  0  0  0  0
   -5.1910   21.5750   -9.6350 C   0  0  0  0  0  0  0  0  0  0  0  0
   -5.9440   22.3910   -9.0220 O   0  0  0  0  0  0  0  0  0  0  0  0
   -3.9430   21.3010   -9.2010 N   0  0  0  0  0  0  0  0  0  0  0  0
   -3.1480   20.4330   -9.8590 C   0  0  0  0  0  0  0  0  0  0  0  0
   -1.9830   20.1570   -9.4810 O   0  0  0  0  0  0  0  0  0  0  0  0
   -7.0530   21.2900  -11.2190 C   0  0  0  0  0  0  0  0  0  0  0  0
   -0.2480   11.3340  -14.5640 H   0  0  0  0  0  0  0  0  0  0  0  0
    3.6850   12.8870  -11.2320 H   0  0  0  0  0  0  0  0  0  0  0  0
    3.2690   11.1970  -11.5610 H   0  0  0  0  0  0  0  0  0  0  0  0
    4.2190   12.1940  -12.7980 H   0  0  0  0  0  0  0  0  0  0  0  0
   -1.8880   15.5830  -13.5880 H   0  0  0  0  0  0  0  0  0  0  0  0
   -0.7950   17.0310  -13.6260 H   0  0  0  0  0  0  0  0  0  0  0  0
   -1.4990   16.3910  -10.8400 H   0  0  0  0  0  0  0  0  0  0  0  0
   -2.9400   16.6020  -11.8550 H   0  0  0  0  0  0  0  0  0  0  0  0
   -1.3240   18.6490  -10.7710 H   0  0  0  0  0  0  0  0  0  0  0  0
   -1.1070   18.7240  -12.5780 H   0  0  0  0  0  0  0  0  0  0  0  0
   -3.6040   21.7770   -8.3410 H   0  0  0  0  0  0  0  0  0  0  0  0
   -7.0290   21.8100  -12.2000 H   0  0  0  0  0  0  0  0  0  0  0  0
   -7.6500   20.3670  -11.3450 H   0  0  0  0  0  0  0  0  0  0  0  0
   -7.5020   21.9820  -10.4900 H   0  0  0  0  0  0  0  0  0  0  0  0
  2  6  2  0  0  0  0
  2  1  1  0  0  0  0
  3  2  1  0  0  0  0
  4  3  1  0  0  0  0
  4  5  2  0  0  0  0
  5  6  1  0  0  0  0
  7  5  1  0  0  0  0
  7 13  1  0  0  0  0
  8  7  1  0  0  0  0
  9  8  2  0  0  0  0
 10 11  1  0  0  0  0
 10  8  1  0  0  0  0
 11  4  1  0  0  0  0
 12 11  2  0  0  0  0
 13 32  1  0  0  0  0
 13 31  1  0  0  0  0
 14  3  1  0  0  0  0
 14 15  1  0  0  0  0
 15 16  1  0  0  0  0
 15 36  1  0  0  0  0
 16 38  1  0  0  0  0
 17 16  1  0  0  0  0
 17 18  1  0  0  0  0
 18 27  1  0  0  0  0
 19 18  2  0  0  0  0
 19 23  1  0  0  0  0
 20 19  1  0  0  0  0
 21 20  2  0  0  0  0
 21 17  1  0  0  0  0
 22 21  1  0  0  0  0
 23 24  1  0  0  0  0
 24 26  1  0  0  0  0
 24 25  2  0  0  0  0
 26 40  1  0  0  0  0
 27 28  2  0  0  0  0
 27 26  1  0  0  0  0
 29 23  1  0  0  0  0
 29 43  1  0  0  0  0
 30 10  1  0  0  0  0
 33 13  1  0  0  0  0
 34 14  1  0  0  0  0
 35 14  1  0  0  0  0
 37 15  1  0  0  0  0
 39 16  1  0  0  0  0
 41 29  1  0  0  0  0
 42 29  1  0  0  0  0
M  END
>  <Pose>
1

>  <Score>
-6.76

$$$$
