
 OpenBabel03232203513D

 50 54  0  0  1  0  0  0  0  0999 V2000
   -3.0220   20.1370  -10.3240 B   0  0  0  0  0  0  0  0  0  0  0  0
   -2.3750   18.7940  -11.5300 C   0  0  0  0  0  0  0  0  0  0  0  0
   -1.3050   17.9930  -11.3730 N   0  0  0  0  0  0  0  0  0  0  0  0
   -1.1650   17.1850  -12.4160 N   0  0  0  0  0  0  0  0  0  0  0  0
   -2.1770   17.4940  -13.2470 C   0  0  0  0  0  0  0  0  0  0  0  0
   -2.9280   18.4750  -12.7230 N   0  0  0  0  0  0  0  0  0  0  0  0
   -0.1310   16.1730  -12.6250 C   0  0  2  0  0  0  0  0  0  0  0  0
   -0.7870   14.8360  -12.8830 C   0  0  0  0  0  0  0  0  0  0  0  0
    0.2540   13.8430  -13.3100 C   0  0  2  0  0  0  0  0  0  0  0  0
    1.1710   13.6360  -12.0960 C   0  0  0  0  0  0  0  0  0  0  0  0
    1.7750   14.9640  -11.7160 C   0  0  2  0  0  0  0  0  0  0  0  0
    0.7400   16.0110  -11.3980 C   0  0  0  0  0  0  0  0  0  0  0  0
    2.6520   15.4270  -12.8360 C   0  0  0  0  0  0  0  0  0  0  0  0
    1.7980   15.6120  -14.0710 C   0  0  2  0  0  0  0  0  0  0  0  0
    0.7410   16.6170  -13.7590 C   0  0  0  0  0  0  0  0  0  0  0  0
    1.1240   14.3070  -14.4310 C   0  0  0  0  0  0  0  0  0  0  0  0
   -0.3510   12.5440  -13.6750 C   0  0  0  0  0  0  0  0  0  0  0  0
   -1.5920   12.4080  -13.5240 O   0  0  0  0  0  0  0  0  0  0  0  0
    0.4480   11.4790  -14.1800 N   0  0  0  0  0  0  0  0  0  0  0  0
    0.9730   10.4150  -13.4000 C   0  0  0  0  0  0  0  0  0  0  0  0
    0.2770    9.2890  -13.0600 C   0  0  0  0  0  0  0  0  0  0  0  0
    1.1060    8.5160  -12.3190 N   0  0  0  0  0  0  0  0  0  0  0  0
    2.2650    9.1290  -12.2010 N   0  0  0  0  0  0  0  0  0  0  0  0
    2.2320   10.2990  -12.8470 C   0  0  0  0  0  0  0  0  0  0  0  0
    0.8210    7.2200  -11.7290 C   0  0  0  0  0  0  0  0  0  0  0  0
   -1.0780    8.8780  -13.3650 C   0  0  0  0  0  0  0  0  0  0  0  0
   -1.3090    7.9010  -14.1200 O   0  0  0  0  0  0  0  0  0  0  0  0
   -2.2290    9.5310  -12.8460 N   0  0  0  0  0  0  0  0  0  0  0  0
   -2.3620   17.0220  -14.2000 H   0  0  0  0  0  0  0  0  0  0  0  0
   -1.1640   14.4860  -11.8770 H   0  0  0  0  0  0  0  0  0  0  0  0
   -1.6580   14.8880  -13.5340 H   0  0  0  0  0  0  0  0  0  0  0  0
    1.9850   12.9430  -12.3280 H   0  0  0  0  0  0  0  0  0  0  0  0
    0.6200   13.2570  -11.2270 H   0  0  0  0  0  0  0  0  0  0  0  0
    2.3970   14.8210  -10.8140 H   0  0  0  0  0  0  0  0  0  0  0  0
    0.1620   15.7630  -10.4920 H   0  0  0  0  0  0  0  0  0  0  0  0
    1.2730   16.9550  -11.2030 H   0  0  0  0  0  0  0  0  0  0  0  0
    3.4760   14.6940  -13.0110 H   0  0  0  0  0  0  0  0  0  0  0  0
    3.1380   16.3860  -12.5830 H   0  0  0  0  0  0  0  0  0  0  0  0
    2.3780   15.9510  -14.9400 H   0  0  0  0  0  0  0  0  0  0  0  0
    1.2140   17.5680  -13.4770 H   0  0  0  0  0  0  0  0  0  0  0  0
    0.1330   16.7700  -14.6750 H   0  0  0  0  0  0  0  0  0  0  0  0
    0.4930   14.4640  -15.3310 H   0  0  0  0  0  0  0  0  0  0  0  0
    1.9230   13.5620  -14.5780 H   0  0  0  0  0  0  0  0  0  0  0  0
    0.6530   11.5000  -15.1970 H   0  0  0  0  0  0  0  0  0  0  0  0
    3.0380   11.0360  -12.9340 H   0  0  0  0  0  0  0  0  0  0  0  0
    1.7770    6.7460  -11.4320 H   0  0  0  0  0  0  0  0  0  0  0  0
    0.4400    6.5730  -12.5670 H   0  0  0  0  0  0  0  0  0  0  0  0
    0.1100    7.2850  -10.8810 H   0  0  0  0  0  0  0  0  0  0  0  0
   -2.3870    9.4930  -11.7970 H   0  0  0  0  0  0  0  0  0  0  0  0
   -2.9310   10.0430  -13.4130 H   0  0  0  0  0  0  0  0  0  0  0  0
  2  3  2  0  0  0  0
  2  1  1  0  0  0  0
  4  3  1  0  0  0  0
  5  6  2  0  0  0  0
  5  4  1  0  0  0  0
  6  2  1  0  0  0  0
  7  4  1  1  0  0  0
  7 12  1  0  0  0  0
  8  7  1  0  0  0  0
  8 30  1  0  0  0  0
  9 17  1  6  0  0  0
  9  8  1  0  0  0  0
  9 10  1  0  0  0  0
 10 11  1  0  0  0  0
 10 33  1  0  0  0  0
 11 12  1  0  0  0  0
 11 34  1  1  0  0  0
 12 36  1  0  0  0  0
 12 35  1  0  0  0  0
 13 38  1  0  0  0  0
 13 11  1  0  0  0  0
 14 39  1  6  0  0  0
 14 15  1  0  0  0  0
 14 13  1  0  0  0  0
 15 40  1  0  0  0  0
 15  7  1  0  0  0  0
 16 14  1  0  0  0  0
 16  9  1  0  0  0  0
 17 18  2  0  0  0  0
 19 17  1  0  0  0  0
 19 20  1  0  0  0  0
 20 21  2  0  0  0  0
 20 24  1  0  0  0  0
 21 22  1  0  0  0  0
 22 23  1  0  0  0  0
 22 25  1  0  0  0  0
 24 23  2  0  0  0  0
 25 46  1  0  0  0  0
 25 48  1  0  0  0  0
 26 21  1  0  0  0  0
 26 28  1  0  0  0  0
 27 26  2  0  0  0  0
 28 49  1  0  0  0  0
 29  5  1  0  0  0  0
 31  8  1  0  0  0  0
 32 10  1  0  0  0  0
 37 13  1  0  0  0  0
 41 15  1  0  0  0  0
 42 16  1  0  0  0  0
 43 16  1  0  0  0  0
 44 19  1  0  0  0  0
 45 24  1  0  0  0  0
 47 25  1  0  0  0  0
 50 28  1  0  0  0  0
M  END
>  <Pose>
1

>  <Score>
-5.42

$$$$
