
 OpenBabel03232203513D

 32 35  0  0  1  0  0  0  0  0999 V2000
   -4.4690   19.9410  -10.4070 B   0  0  0  0  0  0  0  0  0  0  0  0
   -3.7130   18.9900  -11.8900 C   0  0  0  0  0  0  0  0  0  0  0  0
   -2.5800   18.2800  -11.9280 N   0  0  0  0  0  0  0  0  0  0  0  0
   -2.4110   17.7760  -13.1490 C   0  0  0  0  0  0  0  0  0  0  0  0
   -3.4700   18.1820  -13.8980 N   0  0  0  0  0  0  0  0  0  0  0  0
   -4.2890   18.9340  -13.1420 C   0  0  0  0  0  0  0  0  0  0  0  0
   -1.2180   16.9370  -13.4680 C   0  0  0  0  0  0  0  0  0  0  0  0
   -0.7770   16.2240  -12.2950 N   0  0  2  0  0  0  0  0  0  0  0  0
   -1.0280   16.6630  -10.9420 C   0  0  0  0  0  0  0  0  0  0  0  0
   -1.6220   18.0390  -10.8670 C   0  0  0  0  0  0  0  0  0  0  0  0
   -0.0580   15.0280  -12.4820 C   0  0  2  0  0  0  0  0  0  0  0  0
   -0.5210   14.1200  -13.3110 C   0  0  0  0  0  0  0  0  0  0  0  0
    0.1870   12.8530  -13.5460 C   0  0  0  0  0  0  0  0  0  0  0  0
   -0.2670   11.9310  -14.3770 C   0  0  0  0  0  0  0  0  0  0  0  0
    1.3940   12.6880  -12.8170 N   0  0  0  0  0  0  0  0  0  0  0  0
    1.8830   13.6900  -11.9150 C   0  0  0  0  0  0  0  0  0  0  0  0
    1.1480   14.8250  -11.7730 N   0  0  0  0  0  0  0  0  0  0  0  0
    1.8160   15.5780  -10.8920 N   0  0  0  0  0  0  0  0  0  0  0  0
    2.9330   14.9630  -10.4790 C   0  0  0  0  0  0  0  0  0  0  0  0
    2.9650   13.7850  -11.1230 N   0  0  0  0  0  0  0  0  0  0  0  0
   -5.2280   19.4100  -13.4530 H   0  0  0  0  0  0  0  0  0  0  0  0
   -1.4610   16.2630  -14.3130 H   0  0  0  0  0  0  0  0  0  0  0  0
   -0.3690   17.6010  -13.7830 H   0  0  0  0  0  0  0  0  0  0  0  0
   -0.0330   16.6970  -10.4220 H   0  0  0  0  0  0  0  0  0  0  0  0
   -1.6290   15.9050  -10.4360 H   0  0  0  0  0  0  0  0  0  0  0  0
   -2.1020   18.1370   -9.8710 H   0  0  0  0  0  0  0  0  0  0  0  0
   -0.8610   18.8440  -10.9210 H   0  0  0  0  0  0  0  0  0  0  0  0
   -1.4520   14.2530  -13.8710 H   0  0  0  0  0  0  0  0  0  0  0  0
   -1.1870   12.0500  -14.9370 H   0  0  0  0  0  0  0  0  0  0  0  0
    0.2550   11.0010  -14.5480 H   0  0  0  0  0  0  0  0  0  0  0  0
    1.9430   11.8100  -12.9390 H   0  0  0  0  0  0  0  0  0  0  0  0
    3.6700   15.3500   -9.7570 H   0  0  0  0  0  0  0  0  0  0  0  0
  2  1  1  0  0  0  0
  3  2  1  0  0  0  0
  3 10  1  0  0  0  0
  4  3  1  0  0  0  0
  5  4  2  0  0  0  0
  5  6  1  0  0  0  0
  6  2  2  0  0  0  0
  7  4  1  0  0  0  0
  8  7  1  6  0  0  0
  8  9  1  0  0  0  0
  9 10  1  0  0  0  0
  9 25  1  0  0  0  0
  9 24  1  0  0  0  0
 10 26  1  0  0  0  0
 11 12  1  1  0  0  0
 11  8  1  0  0  0  0
 11 17  1  0  0  0  0
 13 12  2  0  0  0  0
 13 15  1  0  0  0  0
 14 13  1  0  0  0  0
 15 16  1  0  0  0  0
 16 17  1  0  0  0  0
 16 20  2  0  0  0  0
 17 18  1  0  0  0  0
 18 19  2  0  0  0  0
 19 32  1  0  0  0  0
 20 19  1  0  0  0  0
 21  6  1  0  0  0  0
 22  7  1  0  0  0  0
 23  7  1  0  0  0  0
 27 10  1  0  0  0  0
 28 12  1  0  0  0  0
 29 14  1  0  0  0  0
 30 14  1  0  0  0  0
 31 15  1  0  0  0  0
M  END
>  <Pose>
1

>  <Score>
-5.44

$$$$
