
 OpenBabel03232203513D

 49 52  0  0  1  0  0  0  0  0999 V2000
    1.3650    7.5560  -11.9720 B   0  0  0  0  0  0  0  0  0  0  0  0
    1.9090    9.2820  -12.6280 C   0  0  0  0  0  0  0  0  0  0  0  0
    2.2810   10.2960  -11.8890 O   0  0  0  0  0  0  0  0  0  0  0  0
    2.5920   11.3420  -12.6550 C   0  0  0  0  0  0  0  0  0  0  0  0
    2.3990   10.9480  -13.9600 C   0  0  0  0  0  0  0  0  0  0  0  0
    1.9650    9.6460  -13.9640 C   0  0  0  0  0  0  0  0  0  0  0  0
    3.0450   12.6320  -12.1580 C   0  0  0  0  0  0  0  0  0  0  0  0
    4.2630   12.9040  -12.1640 O   0  0  0  0  0  0  0  0  0  0  0  0
    2.1250   13.5770  -11.6700 N   0  0  0  0  0  0  0  0  0  0  0  0
    0.9980   14.0630  -12.4400 C   0  0  1  0  0  0  0  0  0  0  0  0
   -0.1320   13.1090  -12.2910 C   0  0  0  0  0  0  0  0  0  0  0  0
    0.6810   15.4690  -12.1380 C   0  0  0  0  0  0  0  0  0  0  0  0
    1.1780   15.9330  -11.0530 O   0  0  0  0  0  0  0  0  0  0  0  0
   -0.0980   16.3440  -12.9040 N   0  0  0  0  0  0  0  0  0  0  0  0
   -1.3160   15.9320  -13.5720 C   0  0  0  0  0  0  0  0  0  0  0  0
   -2.4470   16.7280  -12.9970 C   0  0  0  0  0  0  0  0  0  0  0  0
   -2.1740   18.1980  -13.0230 C   0  0  1  0  0  0  0  0  0  0  0  0
   -3.2470   18.8520  -13.7530 N   0  0  0  0  0  0  0  0  0  0  0  0
   -4.4720   18.6810  -12.9930 C   0  0  0  0  0  0  0  0  0  0  0  0
   -4.4490   19.7590  -11.9030 C   0  0  0  0  0  0  0  0  0  0  0  0
   -3.1990   19.5320  -11.1400 C   0  0  0  0  0  0  0  0  0  0  0  0
   -2.8640   19.9430   -9.9020 N   0  0  0  0  0  0  0  0  0  0  0  0
   -1.6270   19.4870   -9.6510 C   0  0  0  0  0  0  0  0  0  0  0  0
   -1.2070   18.8010  -10.7290 N   0  0  0  0  0  0  0  0  0  0  0  0
   -2.1620   18.8080  -11.6750 C   0  0  0  0  0  0  0  0  0  0  0  0
   -0.8570   18.4650  -13.7510 C   0  0  0  0  0  0  0  0  0  0  0  0
    0.2680   17.7360  -13.0910 C   0  0  0  0  0  0  0  0  0  0  0  0
    2.5680   11.5790  -14.8110 H   0  0  0  0  0  0  0  0  0  0  0  0
    1.7160    9.0190  -14.8200 H   0  0  0  0  0  0  0  0  0  0  0  0
    2.2520   13.9540  -10.7090 H   0  0  0  0  0  0  0  0  0  0  0  0
    1.3140   14.0310  -13.5240 H   0  0  0  0  0  0  0  0  0  0  0  0
    0.1890   12.2730  -11.6350 H   0  0  0  0  0  0  0  0  0  0  0  0
   -0.4610   12.6150  -13.2290 H   0  0  0  0  0  0  0  0  0  0  0  0
   -1.0050   13.5560  -11.7610 H   0  0  0  0  0  0  0  0  0  0  0  0
   -1.4740   14.8520  -13.5540 H   0  0  0  0  0  0  0  0  0  0  0  0
   -1.2330   16.1860  -14.6710 H   0  0  0  0  0  0  0  0  0  0  0  0
   -3.3500   16.5030  -13.6370 H   0  0  0  0  0  0  0  0  0  0  0  0
   -2.6890   16.3510  -11.9830 H   0  0  0  0  0  0  0  0  0  0  0  0
   -3.4160   18.3820  -14.6860 H   0  0  0  0  0  0  0  0  0  0  0  0
   -5.3760   18.7270  -13.6040 H   0  0  0  0  0  0  0  0  0  0  0  0
   -4.4620   17.7090  -12.4270 H   0  0  0  0  0  0  0  0  0  0  0  0
   -4.3300   20.7430  -12.4230 H   0  0  0  0  0  0  0  0  0  0  0  0
   -5.3490   19.7190  -11.2820 H   0  0  0  0  0  0  0  0  0  0  0  0
   -3.4210   20.5130   -9.2170 H   0  0  0  0  0  0  0  0  0  0  0  0
   -1.0500   19.6290   -8.7570 H   0  0  0  0  0  0  0  0  0  0  0  0
   -0.6900   19.5650  -13.6900 H   0  0  0  0  0  0  0  0  0  0  0  0
   -1.0110   18.1990  -14.8030 H   0  0  0  0  0  0  0  0  0  0  0  0
    1.1200   17.7160  -13.8330 H   0  0  0  0  0  0  0  0  0  0  0  0
    0.6290   18.2070  -12.1710 H   0  0  0  0  0  0  0  0  0  0  0  0
  2  1  1  0  0  0  0
  2  3  1  0  0  0  0
  4  7  1  0  0  0  0
  4  3  1  0  0  0  0
  5  4  2  0  0  0  0
  6  5  1  0  0  0  0
  6  2  2  0  0  0  0
  7  9  1  0  0  0  0
  8  7  2  0  0  0  0
  9 30  1  0  0  0  0
 10 31  1  6  0  0  0
 10 11  1  0  0  0  0
 10 12  1  0  0  0  0
 10  9  1  0  0  0  0
 11 34  1  0  0  0  0
 11 32  1  0  0  0  0
 12 13  2  0  0  0  0
 14 12  1  0  0  0  0
 15 35  1  0  0  0  0
 15 16  1  0  0  0  0
 15 14  1  0  0  0  0
 16 38  1  0  0  0  0
 17 16  1  0  0  0  0
 17 25  1  1  0  0  0
 18 17  1  0  0  0  0
 18 19  1  0  0  0  0
 19 41  1  0  0  0  0
 19 20  1  0  0  0  0
 20 43  1  0  0  0  0
 20 21  1  0  0  0  0
 21 22  1  0  0  0  0
 22 23  1  0  0  0  0
 22 44  1  0  0  0  0
 23 45  1  0  0  0  0
 24 23  2  0  0  0  0
 25 21  2  0  0  0  0
 25 24  1  0  0  0  0
 26 46  1  0  0  0  0
 26 27  1  0  0  0  0
 26 17  1  0  0  0  0
 27 14  1  0  0  0  0
 27 49  1  0  0  0  0
 28  5  1  0  0  0  0
 29  6  1  0  0  0  0
 33 11  1  0  0  0  0
 36 15  1  0  0  0  0
 37 16  1  0  0  0  0
 39 18  1  0  0  0  0
 40 19  1  0  0  0  0
 42 20  1  0  0  0  0
 47 26  1  0  0  0  0
 48 27  1  0  0  0  0
M  END
>  <Pose>
1

>  <Score>
-6.11

$$$$
