
 OpenBabel03232203513D

 64 67  0  0  1  0  0  0  0  0999 V2000
   -4.0370   18.8590  -12.7940 B   0  0  0  0  0  0  0  0  0  0  0  0
   -2.5240   18.5650  -11.6950 C   0  0  0  0  0  0  0  0  0  0  0  0
   -1.6570   17.5200  -12.0150 C   0  0  0  0  0  0  0  0  0  0  0  0
   -0.5690   17.2510  -11.2880 N   0  0  0  0  0  0  0  0  0  0  0  0
   -0.3490   18.0590  -10.2080 C   0  0  0  0  0  0  0  0  0  0  0  0
    0.6660   17.8470   -9.4890 O   0  0  0  0  0  0  0  0  0  0  0  0
   -1.1650   19.0730   -9.8750 N   0  0  0  0  0  0  0  0  0  0  0  0
   -2.2640   19.3550  -10.5970 C   0  0  0  0  0  0  0  0  0  0  0  0
   -3.0380   20.3170  -10.2830 O   0  0  0  0  0  0  0  0  0  0  0  0
    0.3520   16.2190  -11.5420 C   0  0  1  0  0  0  0  0  0  0  0  0
    0.3790   15.7920  -13.0190 C   0  0  1  0  0  0  0  0  0  0  0  0
    0.9850   14.3820  -12.9840 C   0  0  0  0  0  0  0  0  0  0  0  0
    2.2810   14.3810  -12.2220 C   0  0  2  0  0  0  0  0  0  0  0  0
    2.6400   15.6770  -11.9390 O   0  0  0  0  0  0  0  0  0  0  0  0
    1.7540   16.3630  -11.1120 C   0  0  0  0  0  0  0  0  0  0  0  0
    3.3340   13.8330  -13.1770 C   0  0  0  0  0  0  0  0  0  0  0  0
    3.3260   12.3260  -13.1320 C   0  0  0  0  0  0  0  0  0  0  0  0
    2.0300   11.8350  -12.6340 N   0  0  0  0  0  0  0  0  0  0  0  0
    1.7550   12.1220  -11.2570 C   0  0  0  0  0  0  0  0  0  0  0  0
    2.2890   13.5300  -11.0030 C   0  0  0  0  0  0  0  0  0  0  0  0
    1.1160   11.1720  -13.4520 C   0  0  0  0  0  0  0  0  0  0  0  0
    0.2760   11.8310  -14.1780 O   0  0  0  0  0  0  0  0  0  0  0  0
    1.0380    9.7230  -13.5500 C   0  0  1  0  0  0  0  0  0  0  0  0
   -0.3340    9.2800  -13.6050 N   0  0  0  0  0  0  0  0  0  0  0  0
   -0.8470    8.0070  -13.3900 C   0  0  0  0  0  0  0  0  0  0  0  0
   -1.9170    7.5660  -13.8560 O   0  0  0  0  0  0  0  0  0  0  0  0
   -0.0990    7.0080  -12.5250 C   0  0  0  0  0  0  0  0  0  0  0  0
    1.7850    9.1900  -14.8130 C   0  0  0  0  0  0  0  0  0  0  0  0
    3.0410    8.5310  -14.4130 C   0  0  0  0  0  0  0  0  0  0  0  0
    4.2880    8.7930  -14.7720 N   0  0  0  0  0  0  0  0  0  0  0  0
    5.1680    7.9450  -14.1730 C   0  0  0  0  0  0  0  0  0  0  0  0
    4.4290    7.1190  -13.4070 N   0  0  0  0  0  0  0  0  0  0  0  0
    3.1300    7.4600  -13.5400 C   0  0  0  0  0  0  0  0  0  0  0  0
   -0.8850   15.7150  -13.5610 O   0  0  0  0  0  0  0  0  0  0  0  0
    1.1970   16.7350  -13.8440 C   0  0  0  0  0  0  0  0  0  0  0  0
   -1.8420   16.8830  -12.8720 H   0  0  0  0  0  0  0  0  0  0  0  0
   -0.9230   19.6490   -9.0260 H   0  0  0  0  0  0  0  0  0  0  0  0
   -0.0410   15.2920  -11.0170 H   0  0  0  0  0  0  0  0  0  0  0  0
    1.0830   14.0430  -14.0340 H   0  0  0  0  0  0  0  0  0  0  0  0
    0.2170   13.7540  -12.4960 H   0  0  0  0  0  0  0  0  0  0  0  0
    1.9040   15.9310  -10.0780 H   0  0  0  0  0  0  0  0  0  0  0  0
    2.1600   17.3860  -11.0300 H   0  0  0  0  0  0  0  0  0  0  0  0
    3.1770   14.1420  -14.2140 H   0  0  0  0  0  0  0  0  0  0  0  0
    4.3090   14.2530  -12.8520 H   0  0  0  0  0  0  0  0  0  0  0  0
    4.0810   11.9090  -12.4300 H   0  0  0  0  0  0  0  0  0  0  0  0
    3.4800   11.8840  -14.1260 H   0  0  0  0  0  0  0  0  0  0  0  0
    0.6750   12.0770  -10.9810 H   0  0  0  0  0  0  0  0  0  0  0  0
    2.2820   11.3860  -10.6230 H   0  0  0  0  0  0  0  0  0  0  0  0
    1.7250   13.9120  -10.1480 H   0  0  0  0  0  0  0  0  0  0  0  0
    3.3420   13.4030  -10.6780 H   0  0  0  0  0  0  0  0  0  0  0  0
    1.5490    9.1350  -12.7510 H   0  0  0  0  0  0  0  0  0  0  0  0
   -1.0330   10.0490  -13.8470 H   0  0  0  0  0  0  0  0  0  0  0  0
   -0.7900    6.3540  -11.9920 H   0  0  0  0  0  0  0  0  0  0  0  0
    0.5580    6.3920  -13.1750 H   0  0  0  0  0  0  0  0  0  0  0  0
    0.5460    7.5520  -11.8180 H   0  0  0  0  0  0  0  0  0  0  0  0
    1.1630    8.4980  -15.3670 H   0  0  0  0  0  0  0  0  0  0  0  0
    2.0050   10.0760  -15.4670 H   0  0  0  0  0  0  0  0  0  0  0  0
    6.2480    7.9520  -14.3020 H   0  0  0  0  0  0  0  0  0  0  0  0
    4.8440    6.3530  -12.8230 H   0  0  0  0  0  0  0  0  0  0  0  0
    2.3280    6.9490  -13.0290 H   0  0  0  0  0  0  0  0  0  0  0  0
   -1.4640   15.1790  -12.9600 H   0  0  0  0  0  0  0  0  0  0  0  0
    0.5810   17.2710  -14.6190 H   0  0  0  0  0  0  0  0  0  0  0  0
    1.6760   17.5460  -13.2410 H   0  0  0  0  0  0  0  0  0  0  0  0
    1.9980   16.2240  -14.3800 H   0  0  0  0  0  0  0  0  0  0  0  0
  1  2  1  0  0  0  0
  2  8  1  0  0  0  0
  3  2  2  0  0  0  0
  3  4  1  0  0  0  0
  4  5  1  0  0  0  0
  5  7  1  0  0  0  0
  5  6  2  0  0  0  0
  7 37  1  0  0  0  0
  8  9  2  0  0  0  0
  8  7  1  0  0  0  0
 10  4  1  0  0  0  0
 10 15  1  0  0  0  0
 10 38  1  1  0  0  0
 11 34  1  6  0  0  0
 11 12  1  0  0  0  0
 11 10  1  0  0  0  0
 12 40  1  0  0  0  0
 12 13  1  0  0  0  0
 13 14  1  1  0  0  0
 13 20  1  0  0  0  0
 14 15  1  0  0  0  0
 15 42  1  0  0  0  0
 15 41  1  0  0  0  0
 16 17  1  0  0  0  0
 16 44  1  0  0  0  0
 16 13  1  0  0  0  0
 17 18  1  0  0  0  0
 17 45  1  0  0  0  0
 18 19  1  0  0  0  0
 19 20  1  0  0  0  0
 19 47  1  0  0  0  0
 19 48  1  0  0  0  0
 20 50  1  0  0  0  0
 20 49  1  0  0  0  0
 21 18  1  0  0  0  0
 22 21  2  0  0  0  0
 23 21  1  0  0  0  0
 23 51  1  1  0  0  0
 24 23  1  0  0  0  0
 24 25  1  0  0  0  0
 25 27  1  0  0  0  0
 26 25  2  0  0  0  0
 27 53  1  0  0  0  0
 27 55  1  0  0  0  0
 28 29  1  0  0  0  0
 28 23  1  0  0  0  0
 29 33  2  0  0  0  0
 30 29  1  0  0  0  0
 30 31  2  0  0  0  0
 31 32  1  0  0  0  0
 32 59  1  0  0  0  0
 33 32  1  0  0  0  0
 33 60  1  0  0  0  0
 34 61  1  0  0  0  0
 35 63  1  0  0  0  0
 35 11  1  0  0  0  0
 36  3  1  0  0  0  0
 39 12  1  0  0  0  0
 43 16  1  0  0  0  0
 46 17  1  0  0  0  0
 52 24  1  0  0  0  0
 54 27  1  0  0  0  0
 56 28  1  0  0  0  0
 57 28  1  0  0  0  0
 58 31  1  0  0  0  0
 62 35  1  0  0  0  0
 64 35  1  0  0  0  0
M  END
>  <Pose>
1

>  <Score>
-5.22

$$$$
