
 OpenBabel03232203513D

 56 59  0  0  1  0  0  0  0  0999 V2000
    4.2040    5.9180  -13.0470 B   0  0  0  0  0  0  0  0  0  0  0  0
    2.6420    7.0390  -13.1250 C   0  0  0  0  0  0  0  0  0  0  0  0
    2.4150    7.8290  -14.2390 C   0  0  0  0  0  0  0  0  0  0  0  0
    1.2870    8.6410  -14.3020 C   0  0  0  0  0  0  0  0  0  0  0  0
    0.3760    8.6820  -13.2720 C   0  0  0  0  0  0  0  0  0  0  0  0
    0.6320    7.8840  -12.1790 C   0  0  0  0  0  0  0  0  0  0  0  0
    1.7370    7.0730  -12.0900 C   0  0  0  0  0  0  0  0  0  0  0  0
   -0.8010    9.5220  -13.3230 C   0  0  0  0  0  0  0  0  0  0  0  0
   -1.7960    9.2350  -12.6050 O   0  0  0  0  0  0  0  0  0  0  0  0
   -0.9030   10.7250  -14.1900 C   0  0  0  0  0  0  0  0  0  0  0  0
   -0.4780   11.9110  -13.5080 N   0  0  0  0  0  0  0  0  0  0  0  0
   -1.2480   12.8150  -12.9460 N   0  0  0  0  0  0  0  0  0  0  0  0
   -0.5070   13.7910  -12.4000 C   0  0  0  0  0  0  0  0  0  0  0  0
    0.7770   13.4830  -12.6310 N   0  0  0  0  0  0  0  0  0  0  0  0
    0.7860   12.3060  -13.3240 C   0  0  2  0  0  0  0  0  0  0  0  0
    1.9730   11.5920  -13.7910 C   0  0  0  0  0  0  0  0  0  0  0  0
    2.9190   11.2220  -12.6730 C   0  0  0  0  0  0  0  0  0  0  0  0
    3.6490   12.4280  -12.1270 C   0  0  0  0  0  0  0  0  0  0  0  0
    2.7680   13.3420  -11.3330 C   0  0  0  0  0  0  0  0  0  0  0  0
    1.9340   14.2540  -12.2210 C   0  0  0  0  0  0  0  0  0  0  0  0
   -0.9760   14.9830  -11.6800 C   0  0  0  0  0  0  0  0  0  0  0  0
   -1.0220   16.1460  -12.5120 N   0  0  0  0  0  0  0  0  0  0  0  0
   -1.8160   17.2880  -12.2060 C   0  0  0  0  0  0  0  0  0  0  0  0
   -1.6340   18.0240  -11.0570 C   0  0  0  0  0  0  0  0  0  0  0  0
   -2.4010   19.1250  -10.7750 C   0  0  0  0  0  0  0  0  0  0  0  0
   -3.3710   19.5080  -11.6470 C   0  0  0  0  0  0  0  0  0  0  0  0
   -3.5570   18.7740  -12.7980 C   0  0  0  0  0  0  0  0  0  0  0  0
   -2.7910   17.6650  -13.0920 C   0  0  0  0  0  0  0  0  0  0  0  0
   -4.1560   20.6070  -11.3910 O   0  0  0  0  0  0  0  0  0  0  0  0
   -4.8610   20.7790  -10.1860 C   0  0  0  0  0  0  0  0  0  0  0  0
    3.1300    7.7900  -15.0380 H   0  0  0  0  0  0  0  0  0  0  0  0
    1.1330    9.2460  -15.1780 H   0  0  0  0  0  0  0  0  0  0  0  0
   -0.0840    7.9040  -11.3460 H   0  0  0  0  0  0  0  0  0  0  0  0
    1.8820    6.4740  -11.2130 H   0  0  0  0  0  0  0  0  0  0  0  0
   -0.3940   10.5730  -15.1610 H   0  0  0  0  0  0  0  0  0  0  0  0
   -2.0050   10.8420  -14.4090 H   0  0  0  0  0  0  0  0  0  0  0  0
    1.7030   10.6550  -14.3090 H   0  0  0  0  0  0  0  0  0  0  0  0
    2.5840   12.1830  -14.5330 H   0  0  0  0  0  0  0  0  0  0  0  0
    2.4490   10.6570  -11.8670 H   0  0  0  0  0  0  0  0  0  0  0  0
    3.6980   10.5590  -13.1250 H   0  0  0  0  0  0  0  0  0  0  0  0
    4.2140   12.9540  -12.9000 H   0  0  0  0  0  0  0  0  0  0  0  0
    4.4160   12.0180  -11.4090 H   0  0  0  0  0  0  0  0  0  0  0  0
    2.0870   12.7940  -10.6850 H   0  0  0  0  0  0  0  0  0  0  0  0
    3.4370   13.9780  -10.6910 H   0  0  0  0  0  0  0  0  0  0  0  0
    2.5140   14.6420  -13.0720 H   0  0  0  0  0  0  0  0  0  0  0  0
    1.5970   15.1120  -11.6190 H   0  0  0  0  0  0  0  0  0  0  0  0
   -0.2770   15.1650  -10.8230 H   0  0  0  0  0  0  0  0  0  0  0  0
   -1.9710   14.8190  -11.2340 H   0  0  0  0  0  0  0  0  0  0  0  0
   -0.4650   16.1850  -13.3780 H   0  0  0  0  0  0  0  0  0  0  0  0
   -0.8370   17.6710  -10.3890 H   0  0  0  0  0  0  0  0  0  0  0  0
   -2.2210   19.6680   -9.8670 H   0  0  0  0  0  0  0  0  0  0  0  0
   -4.3290   19.0570  -13.5190 H   0  0  0  0  0  0  0  0  0  0  0  0
   -2.9530   17.0940  -14.0170 H   0  0  0  0  0  0  0  0  0  0  0  0
   -5.6120   21.5730  -10.2830 H   0  0  0  0  0  0  0  0  0  0  0  0
   -5.3680   19.8260   -9.9370 H   0  0  0  0  0  0  0  0  0  0  0  0
   -4.1770   21.0230   -9.3410 H   0  0  0  0  0  0  0  0  0  0  0  0
  2  1  1  0  0  0  0
  2  7  1  0  0  0  0
  3  2  2  0  0  0  0
  4  3  1  0  0  0  0
  4  5  2  0  0  0  0
  5  6  1  0  0  0  0
  6  7  2  0  0  0  0
  6 33  1  0  0  0  0
  7 34  1  0  0  0  0
  8  5  1  0  0  0  0
  8  9  2  0  0  0  0
 10 11  1  0  0  0  0
 10  8  1  0  0  0  0
 11 15  1  0  0  0  0
 11 12  1  0  0  0  0
 12 13  2  0  0  0  0
 13 21  1  0  0  0  0
 14 13  1  0  0  0  0
 14 20  1  0  0  0  0
 15 16  1  6  0  0  0
 15 14  1  0  0  0  0
 16 17  1  0  0  0  0
 17 18  1  0  0  0  0
 17 39  1  0  0  0  0
 18 42  1  0  0  0  0
 18 19  1  0  0  0  0
 19 44  1  0  0  0  0
 19 43  1  0  0  0  0
 20 46  1  0  0  0  0
 20 19  1  0  0  0  0
 21 48  1  0  0  0  0
 21 47  1  0  0  0  0
 22 23  1  0  0  0  0
 22 21  1  0  0  0  0
 23 24  1  0  0  0  0
 24 25  2  0  0  0  0
 24 50  1  0  0  0  0
 25 51  1  0  0  0  0
 26 29  1  0  0  0  0
 26 25  1  0  0  0  0
 27 26  2  0  0  0  0
 28 27  1  0  0  0  0
 28 23  2  0  0  0  0
 29 30  1  0  0  0  0
 30 55  1  0  0  0  0
 30 56  1  0  0  0  0
 31  3  1  0  0  0  0
 32  4  1  0  0  0  0
 35 10  1  0  0  0  0
 36 10  1  0  0  0  0
 37 16  1  0  0  0  0
 38 16  1  0  0  0  0
 40 17  1  0  0  0  0
 41 18  1  0  0  0  0
 45 20  1  0  0  0  0
 49 22  1  0  0  0  0
 52 27  1  0  0  0  0
 53 28  1  0  0  0  0
 54 30  1  0  0  0  0
M  END
>  <Pose>
1

>  <Score>
-7.10

$$$$
