
 OpenBabel03232203513D

 47 49  0  0  1  0  0  0  0  0999 V2000
   -5.5550   21.5390   -9.6840 B   0  0  0  0  0  0  0  0  0  0  0  0
   -4.3010   20.3020  -10.4490 C   0  0  0  0  0  0  0  0  0  0  0  0
   -4.6110   19.6790  -11.6370 C   0  0  0  0  0  0  0  0  0  0  0  0
   -3.6910   18.7870  -12.1870 C   0  0  0  0  0  0  0  0  0  0  0  0
   -2.4820   18.5040  -11.5890 C   0  0  0  0  0  0  0  0  0  0  0  0
   -2.1940   19.1430  -10.3980 C   0  0  0  0  0  0  0  0  0  0  0  0
   -3.0950   20.0300   -9.8400 C   0  0  0  0  0  0  0  0  0  0  0  0
   -1.5520   17.5380  -12.2230 C   0  0  2  0  0  0  0  0  0  0  0  0
   -1.3940   17.7480  -13.6460 N   0  0  0  0  0  0  0  0  0  0  0  0
   -1.4660   18.8520  -14.5800 C   0  0  0  0  0  0  0  0  0  0  0  0
   -0.4640   18.7130  -15.7080 C   0  0  0  0  0  0  0  0  0  0  0  0
   -0.7240   17.4230  -16.4090 C   0  0  0  0  0  0  0  0  0  0  0  0
   -0.7910   16.2910  -15.4610 C   0  0  0  0  0  0  0  0  0  0  0  0
   -1.1050   16.4550  -14.1730 C   0  0  0  0  0  0  0  0  0  0  0  0
   -1.2270   15.4610  -13.1800 N   0  0  0  0  0  4  0  0  0  0  0  0
   -2.0700   16.1300  -12.1670 C   0  0  0  0  0  0  0  0  0  0  0  0
   -0.0520   14.9780  -12.6150 C   0  0  0  0  0  0  0  0  0  0  0  0
    0.5280   13.7850  -12.9690 C   0  0  0  0  0  0  0  0  0  0  0  0
    1.7010   13.3520  -12.3460 C   0  0  0  0  0  0  0  0  0  0  0  0
    2.2990   14.1060  -11.3700 C   0  0  0  0  0  0  0  0  0  0  0  0
    1.7260   15.3060  -11.0100 C   0  0  0  0  0  0  0  0  0  0  0  0
    0.5740   15.7270  -11.6260 C   0  0  0  0  0  0  0  0  0  0  0  0
   -0.0050   12.9640  -13.9420 O   0  0  0  0  0  0  0  0  0  0  0  0
   -0.8010   11.8760  -13.6110 C   0  0  0  0  0  0  0  0  0  0  0  0
   -0.3430   17.5790  -11.5350 O   0  0  0  0  0  0  0  0  0  0  0  0
   -5.5530   19.8560  -12.1790 H   0  0  0  0  0  0  0  0  0  0  0  0
   -3.9090   18.2730  -13.1350 H   0  0  0  0  0  0  0  0  0  0  0  0
   -1.2300   18.9140   -9.9220 H   0  0  0  0  0  0  0  0  0  0  0  0
   -2.8600   20.5270   -8.9070 H   0  0  0  0  0  0  0  0  0  0  0  0
   -2.4790   18.8060  -15.0740 H   0  0  0  0  0  0  0  0  0  0  0  0
   -1.3590   19.8280  -14.0610 H   0  0  0  0  0  0  0  0  0  0  0  0
    0.5730   18.8780  -15.3760 H   0  0  0  0  0  0  0  0  0  0  0  0
   -0.6990   19.5390  -16.4310 H   0  0  0  0  0  0  0  0  0  0  0  0
   -0.0190   17.2360  -17.2460 H   0  0  0  0  0  0  0  0  0  0  0  0
   -1.7610   17.5070  -16.8470 H   0  0  0  0  0  0  0  0  0  0  0  0
   -0.5680   15.3020  -15.8680 H   0  0  0  0  0  0  0  0  0  0  0  0
   -1.8660   14.6650  -13.5100 H   0  0  0  0  0  0  0  0  0  0  0  0
   -3.1130   16.1120  -12.4790 H   0  0  0  0  0  0  0  0  0  0  0  0
   -1.8920   15.6470  -11.1900 H   0  0  0  0  0  0  0  0  0  0  0  0
    2.1900   12.4200  -12.5890 H   0  0  0  0  0  0  0  0  0  0  0  0
    3.2270   13.8070  -10.8550 H   0  0  0  0  0  0  0  0  0  0  0  0
    2.2130   15.8920  -10.2430 H   0  0  0  0  0  0  0  0  0  0  0  0
    0.1330   16.6550  -11.3420 H   0  0  0  0  0  0  0  0  0  0  0  0
   -0.4150   11.2320  -12.7830 H   0  0  0  0  0  0  0  0  0  0  0  0
   -0.9290   11.1500  -14.4800 H   0  0  0  0  0  0  0  0  0  0  0  0
   -1.8340   12.2110  -13.3360 H   0  0  0  0  0  0  0  0  0  0  0  0
   -0.4430   16.9880  -10.7510 H   0  0  0  0  0  0  0  0  0  0  0  0
  2  7  1  0  0  0  0
  2  1  1  0  0  0  0
  3  2  2  0  0  0  0
  4  3  1  0  0  0  0
  4  5  2  0  0  0  0
  5  6  1  0  0  0  0
  6 28  1  0  0  0  0
  6  7  2  0  0  0  0
  7 29  1  0  0  0  0
  8 16  1  0  0  0  0
  8  5  1  6  0  0  0
  9  8  1  0  0  0  0
 10 31  1  0  0  0  0
 10  9  1  0  0  0  0
 11 32  1  0  0  0  0
 11 10  1  0  0  0  0
 12 11  1  0  0  0  0
 12 13  1  0  0  0  0
 13 14  2  0  0  0  0
 14  9  1  0  0  0  0
 14 15  1  0  0  0  0
 15 17  1  0  0  0  0
 15 16  1  0  0  0  0
 16 39  1  0  0  0  0
 17 22  1  0  0  0  0
 18 17  2  0  0  0  0
 18 19  1  0  0  0  0
 19 20  2  0  0  0  0
 20 21  1  0  0  0  0
 20 41  1  0  0  0  0
 21 42  1  0  0  0  0
 22 21  2  0  0  0  0
 23 24  1  0  0  0  0
 23 18  1  0  0  0  0
 24 46  1  0  0  0  0
 24 44  1  0  0  0  0
 25 43  1  0  0  0  0
 25 47  1  0  0  0  0
 26  3  1  0  0  0  0
 27  4  1  0  0  0  0
 30 10  1  0  0  0  0
 33 11  1  0  0  0  0
 34 12  1  0  0  0  0
 35 12  1  0  0  0  0
 36 13  1  0  0  0  0
 37 15  1  0  0  0  0
 38 16  1  0  0  0  0
 40 19  1  0  0  0  0
 45 24  1  0  0  0  0
M  END
>  <Pose>
1

>  <Score>
-3.93

$$$$
