
 OpenBabel03232203513D

 56 59  0  0  1  0  0  0  0  0999 V2000
   -4.8960   21.3720   -9.7660 B   0  0  0  0  0  0  0  0  0  0  0  0
   -3.7660   19.9540  -10.3350 C   0  0  0  0  0  0  0  0  0  0  0  0
   -2.4000   19.9990  -10.0740 C   0  0  0  0  0  0  0  0  0  0  0  0
   -1.5860   18.9780  -10.4850 C   0  0  0  0  0  0  0  0  0  0  0  0
   -2.1140   17.9000  -11.1610 C   0  0  0  0  0  0  0  0  0  0  0  0
   -3.4690   17.8710  -11.4120 C   0  0  0  0  0  0  0  0  0  0  0  0
   -4.3150   18.8800  -11.0130 C   0  0  0  0  0  0  0  0  0  0  0  0
   -1.2650   16.8310  -11.5980 N   0  0  0  0  0  0  0  0  0  0  0  0
   -1.1790   16.4150  -12.9830 C   0  0  0  0  0  0  0  0  0  0  0  0
   -0.6380   15.0260  -13.1350 C   0  0  0  0  0  0  0  0  0  0  0  0
    0.5680   14.5320  -12.8120 N   0  0  0  0  0  0  0  0  0  0  0  0
    0.5840   13.2260  -13.1350 C   0  0  1  0  0  0  0  0  0  0  0  0
   -0.6400   12.9030  -13.6710 N   0  0  0  0  0  0  0  0  0  0  0  0
   -1.3500   14.0170  -13.6530 N   0  0  0  0  0  0  0  0  0  0  0  0
   -1.0780   11.6710  -14.1950 C   0  0  0  0  0  0  0  0  0  0  0  0
   -1.1720   10.5410  -13.3100 C   0  0  1  0  0  0  0  0  0  0  0  0
   -2.3060   10.5350  -12.6070 O   0  0  0  0  0  0  0  0  0  0  0  0
   -0.3240    9.4210  -13.0130 C   0  0  0  0  0  0  0  0  0  0  0  0
   -0.8820    8.1750  -12.6530 C   0  0  0  0  0  0  0  0  0  0  0  0
   -0.1210    7.0760  -12.3550 C   0  0  0  0  0  0  0  0  0  0  0  0
    1.2500    7.1390  -12.3930 C   0  0  0  0  0  0  0  0  0  0  0  0
    1.8320    8.3270  -12.7380 C   0  0  0  0  0  0  0  0  0  0  0  0
    1.0370    9.4480  -13.0410 C   0  0  0  0  0  0  0  0  0  0  0  0
    2.0230    6.0200  -12.0900 O   0  0  0  0  0  0  0  0  0  0  0  0
    3.2750    5.7820  -12.6870 C   0  0  0  0  0  0  0  0  0  0  0  0
    1.6130   12.1870  -13.0220 C   0  0  0  0  0  0  0  0  0  0  0  0
    2.5270   12.3250  -11.8340 C   0  0  0  0  0  0  0  0  0  0  0  0
    3.3210   13.5900  -11.8310 C   0  0  0  0  0  0  0  0  0  0  0  0
    2.4520   14.6590  -11.2090 C   0  0  0  0  0  0  0  0  0  0  0  0
    1.5860   15.3470  -12.2340 C   0  0  0  0  0  0  0  0  0  0  0  0
   -2.0260   20.8740   -9.5350 H   0  0  0  0  0  0  0  0  0  0  0  0
   -0.5390   19.0190  -10.2790 H   0  0  0  0  0  0  0  0  0  0  0  0
   -3.8830   17.0330  -11.9380 H   0  0  0  0  0  0  0  0  0  0  0  0
   -5.3820   18.8810  -11.1960 H   0  0  0  0  0  0  0  0  0  0  0  0
   -0.7020   16.3570  -10.8580 H   0  0  0  0  0  0  0  0  0  0  0  0
   -2.1750   16.5020  -13.4970 H   0  0  0  0  0  0  0  0  0  0  0  0
   -0.5210   17.1320  -13.5190 H   0  0  0  0  0  0  0  0  0  0  0  0
   -0.4930   11.4030  -15.1480 H   0  0  0  0  0  0  0  0  0  0  0  0
   -2.1330   11.7780  -14.6630 H   0  0  0  0  0  0  0  0  0  0  0  0
   -1.9620    8.1200  -12.6210 H   0  0  0  0  0  0  0  0  0  0  0  0
   -0.6150    6.1450  -12.0860 H   0  0  0  0  0  0  0  0  0  0  0  0
    2.9150    8.3930  -12.7720 H   0  0  0  0  0  0  0  0  0  0  0  0
    1.5810   10.3110  -13.2880 H   0  0  0  0  0  0  0  0  0  0  0  0
    3.1760    5.8700  -13.7940 H   0  0  0  0  0  0  0  0  0  0  0  0
    3.5660    4.7350  -12.4680 H   0  0  0  0  0  0  0  0  0  0  0  0
    4.0590    6.4650  -12.3050 H   0  0  0  0  0  0  0  0  0  0  0  0
    2.2510   12.1510  -13.9280 H   0  0  0  0  0  0  0  0  0  0  0  0
    1.1100   11.2050  -12.9080 H   0  0  0  0  0  0  0  0  0  0  0  0
    3.2480   11.4780  -11.8930 H   0  0  0  0  0  0  0  0  0  0  0  0
    1.9940   12.2070  -10.8710 H   0  0  0  0  0  0  0  0  0  0  0  0
    4.2150   13.4580  -11.1690 H   0  0  0  0  0  0  0  0  0  0  0  0
    3.6120   13.9200  -12.8320 H   0  0  0  0  0  0  0  0  0  0  0  0
    3.1330   15.4310  -10.7950 H   0  0  0  0  0  0  0  0  0  0  0  0
    1.8560   14.2740  -10.3470 H   0  0  0  0  0  0  0  0  0  0  0  0
    2.2680   15.6980  -13.0370 H   0  0  0  0  0  0  0  0  0  0  0  0
    1.0990   16.1890  -11.6990 H   0  0  0  0  0  0  0  0  0  0  0  0
  2  3  1  0  0  0  0
  2  1  1  0  0  0  0
  3 31  1  0  0  0  0
  4 32  1  0  0  0  0
  4  3  2  0  0  0  0
  5  4  1  0  0  0  0
  6  5  2  0  0  0  0
  6  7  1  0  0  0  0
  7  2  2  0  0  0  0
  8  5  1  0  0  0  0
  8 35  1  0  0  0  0
  9  8  1  0  0  0  0
 10  9  1  0  0  0  0
 10 11  1  0  0  0  0
 11 30  1  0  0  0  0
 12 13  1  6  0  0  0
 12 26  1  0  0  0  0
 12 11  1  0  0  0  0
 13 14  1  0  0  0  0
 14 10  2  0  0  0  0
 15 13  1  0  0  0  0
 15 16  1  0  0  0  0
 16 18  1  0  0  0  0
 16 17  1  6  0  0  0
 18 19  1  0  0  0  0
 19 40  1  0  0  0  0
 19 20  2  0  0  0  0
 20 41  1  0  0  0  0
 21 20  1  0  0  0  0
 21 24  1  0  0  0  0
 22 21  2  0  0  0  0
 23 18  2  0  0  0  0
 23 22  1  0  0  0  0
 25 45  1  0  0  0  0
 25 46  1  0  0  0  0
 25 24  1  0  0  0  0
 26 48  1  0  0  0  0
 26 27  1  0  0  0  0
 27 28  1  0  0  0  0
 27 50  1  0  0  0  0
 28 29  1  0  0  0  0
 28 51  1  0  0  0  0
 29 53  1  0  0  0  0
 29 54  1  0  0  0  0
 30 56  1  0  0  0  0
 30 29  1  0  0  0  0
 33  6  1  0  0  0  0
 34  7  1  0  0  0  0
 36  9  1  0  0  0  0
 37  9  1  0  0  0  0
 38 15  1  0  0  0  0
 39 15  1  0  0  0  0
 42 22  1  0  0  0  0
 43 23  1  0  0  0  0
 44 25  1  0  0  0  0
 47 26  1  0  0  0  0
 49 27  1  0  0  0  0
 52 28  1  0  0  0  0
 55 30  1  0  0  0  0
M  END
>  <Pose>
1

>  <Score>
-7.20

$$$$
