
 OpenBabel03232203513D

 53 56  0  0  1  0  0  0  0  0999 V2000
   -3.9440   19.3690  -12.1920 B   0  0  0  0  0  0  0  0  0  0  0  0
   -2.5360   18.0930  -12.4430 C   0  0  0  0  0  0  0  0  0  0  0  0
   -2.5070   17.2650  -13.5430 C   0  0  0  0  0  0  0  0  0  0  0  0
   -1.4900   16.3360  -13.7050 C   0  0  0  0  0  0  0  0  0  0  0  0
   -0.4600   16.1920  -12.7770 C   0  0  0  0  0  0  0  0  0  0  0  0
   -0.5360   17.0350  -11.7070 C   0  0  0  0  0  0  0  0  0  0  0  0
   -1.5440   17.9760  -11.5200 C   0  0  0  0  0  0  0  0  0  0  0  0
    0.5060   15.2310  -12.9830 N   0  0  0  0  0  4  0  0  0  0  0  0
    0.4770   14.0590  -12.1580 C   0  0  1  0  0  0  0  0  0  0  0  0
    1.0910   14.6260  -10.8790 C   0  0  0  0  0  0  0  0  0  0  0  0
    2.1500   15.5120  -11.3870 N   0  0  0  0  0  0  0  0  0  0  0  0
    3.2180   15.9270  -10.5480 C   0  0  0  0  0  0  0  0  0  0  0  0
    4.2550   16.7790  -11.2180 C   0  0  0  0  0  0  0  0  0  0  0  0
    4.6880   16.1200  -12.4990 C   0  0  0  0  0  0  0  0  0  0  0  0
    3.9160   16.8540  -13.6060 C   0  0  0  0  0  0  0  0  0  0  0  0
    2.5570   16.2810  -13.6880 C   0  0  0  0  0  0  0  0  0  0  0  0
    1.8090   15.7410  -12.7530 C   0  0  0  0  0  0  0  0  0  0  0  0
   -0.7150   13.4260  -12.0040 O   0  0  0  0  0  0  0  0  0  0  0  0
    1.4450   13.0250  -12.6260 C   0  0  0  0  0  0  0  0  0  0  0  0
    2.7660   12.9810  -12.2950 C   0  0  0  0  0  0  0  0  0  0  0  0
    3.6280   11.9690  -12.7670 C   0  0  0  0  0  0  0  0  0  0  0  0
    3.1600   10.9730  -13.5910 C   0  0  0  0  0  0  0  0  0  0  0  0
    1.8290   11.0080  -13.9310 C   0  0  0  0  0  0  0  0  0  0  0  0
    0.9920   11.9980  -13.4690 C   0  0  0  0  0  0  0  0  0  0  0  0
    4.0080    9.9580  -14.0630 O   0  0  0  0  0  0  0  0  0  0  0  0
    3.5170    8.8830  -14.8270 C   0  0  0  0  0  0  0  0  0  0  0  0
    2.4940    8.0750  -14.0910 C   0  0  0  0  0  0  0  0  0  0  0  0
   -3.3120   17.3920  -14.2540 H   0  0  0  0  0  0  0  0  0  0  0  0
   -1.5450   15.7300  -14.5930 H   0  0  0  0  0  0  0  0  0  0  0  0
    0.1930   17.0030  -10.9400 H   0  0  0  0  0  0  0  0  0  0  0  0
   -1.5190   18.6150  -10.6190 H   0  0  0  0  0  0  0  0  0  0  0  0
    0.3640   14.9020  -13.9890 H   0  0  0  0  0  0  0  0  0  0  0  0
    0.4110   15.1280  -10.2170 H   0  0  0  0  0  0  0  0  0  0  0  0
    1.6300   13.8750  -10.2820 H   0  0  0  0  0  0  0  0  0  0  0  0
    2.8060   16.5080   -9.6970 H   0  0  0  0  0  0  0  0  0  0  0  0
    3.7570   14.9980  -10.1730 H   0  0  0  0  0  0  0  0  0  0  0  0
    3.8160   17.7840  -11.3740 H   0  0  0  0  0  0  0  0  0  0  0  0
    5.1370   16.8030  -10.5520 H   0  0  0  0  0  0  0  0  0  0  0  0
    5.7700   16.1710  -12.6950 H   0  0  0  0  0  0  0  0  0  0  0  0
    4.3800   15.0580  -12.5860 H   0  0  0  0  0  0  0  0  0  0  0  0
    3.8320   17.9370  -13.3920 H   0  0  0  0  0  0  0  0  0  0  0  0
    4.4950   16.7460  -14.5480 H   0  0  0  0  0  0  0  0  0  0  0  0
    2.1560   16.2950  -14.6830 H   0  0  0  0  0  0  0  0  0  0  0  0
   -1.1930   13.6850  -11.1950 H   0  0  0  0  0  0  0  0  0  0  0  0
    3.1780   13.7460  -11.6680 H   0  0  0  0  0  0  0  0  0  0  0  0
    4.6660   11.9950  -12.4670 H   0  0  0  0  0  0  0  0  0  0  0  0
    1.4800   10.1950  -14.5870 H   0  0  0  0  0  0  0  0  0  0  0  0
   -0.0570   12.0140  -13.7570 H   0  0  0  0  0  0  0  0  0  0  0  0
    4.4040    8.2050  -15.0160 H   0  0  0  0  0  0  0  0  0  0  0  0
    3.1930    9.1770  -15.8530 H   0  0  0  0  0  0  0  0  0  0  0  0
    2.4650    8.3310  -13.0040 H   0  0  0  0  0  0  0  0  0  0  0  0
    2.6270    6.9780  -14.1800 H   0  0  0  0  0  0  0  0  0  0  0  0
    1.4970    8.2710  -14.5840 H   0  0  0  0  0  0  0  0  0  0  0  0
  2  1  1  0  0  0  0
  2  7  1  0  0  0  0
  3  2  2  0  0  0  0
  4  3  1  0  0  0  0
  4  5  2  0  0  0  0
  5  6  1  0  0  0  0
  6  7  2  0  0  0  0
  6 30  1  0  0  0  0
  7 31  1  0  0  0  0
  8  5  1  0  0  0  0
  8 17  1  0  0  0  0
  8  9  1  0  0  0  0
  9 18  1  1  0  0  0
  9 10  1  0  0  0  0
 10 34  1  0  0  0  0
 10 33  1  0  0  0  0
 11 10  1  0  0  0  0
 11 12  1  0  0  0  0
 12 36  1  0  0  0  0
 12 35  1  0  0  0  0
 13 38  1  0  0  0  0
 13 12  1  0  0  0  0
 14 13  1  0  0  0  0
 15 41  1  0  0  0  0
 15 14  1  0  0  0  0
 16 15  1  0  0  0  0
 16 17  2  0  0  0  0
 17 11  1  0  0  0  0
 18 44  1  0  0  0  0
 19 20  1  0  0  0  0
 19  9  1  0  0  0  0
 20 45  1  0  0  0  0
 21 46  1  0  0  0  0
 21 20  2  0  0  0  0
 22 21  1  0  0  0  0
 23 22  2  0  0  0  0
 23 24  1  0  0  0  0
 24 19  2  0  0  0  0
 25 22  1  0  0  0  0
 26 27  1  0  0  0  0
 26 25  1  0  0  0  0
 27 51  1  0  0  0  0
 28  3  1  0  0  0  0
 29  4  1  0  0  0  0
 32  8  1  0  0  0  0
 37 13  1  0  0  0  0
 39 14  1  0  0  0  0
 40 14  1  0  0  0  0
 42 15  1  0  0  0  0
 43 16  1  0  0  0  0
 47 23  1  0  0  0  0
 48 24  1  0  0  0  0
 49 26  1  0  0  0  0
 50 26  1  0  0  0  0
 52 27  1  0  0  0  0
 53 27  1  0  0  0  0
M  END
>  <Pose>
1

>  <Score>
-3.58

$$$$
