
 OpenBabel03232203513D

 55 53  0  0  1  0  0  0  0  0999 V2000
   -1.3540   16.7690  -12.9890 B   0  0  0  0  0  0  0  0  0  0  0  0
   -0.0510   15.3900  -12.7240 C   0  0  0  0  0  0  0  0  0  0  0  0
   -0.2810   14.0910  -13.1320 C   0  0  0  0  0  0  0  0  0  0  0  0
    0.6590   13.1030  -12.9400 C   0  0  0  0  0  0  0  0  0  0  0  0
    1.8340   13.4740  -12.3200 C   0  0  0  0  0  0  0  0  0  0  0  0
    2.0690   14.7710  -11.9100 C   0  0  0  0  0  0  0  0  0  0  0  0
    1.1250   15.7570  -12.1050 C   0  0  0  0  0  0  0  0  0  0  0  0
    1.3890   17.1540  -11.6590 C   0  0  0  0  0  0  0  0  0  0  0  0
    2.7690   12.4560  -12.1370 O   0  0  0  0  0  0  0  0  0  0  0  0
    2.4790   11.1030  -12.2430 C   0  0  0  0  0  0  0  0  0  0  0  0
    1.4240   10.7460  -13.2350 C   0  0  1  0  0  0  0  0  0  0  0  0
    0.3370   11.7490  -13.4020 C   0  0  2  0  0  0  0  0  0  0  0  0
   -0.0400   11.8620  -14.7620 O   0  0  0  0  0  0  0  0  0  0  0  0
    0.7950    9.5270  -12.7150 N   0  0  0  0  0  4  0  0  0  0  0  0
    1.7310    8.5770  -12.2200 C   0  0  0  0  0  0  0  0  0  0  0  0
    0.9200    7.5680  -11.3930 C   0  0  0  0  0  0  0  0  0  0  0  0
    0.0700    6.9320  -12.2810 O   0  0  0  0  0  0  0  0  0  0  0  0
   -0.8180    7.7990  -12.9080 C   0  0  0  0  0  0  0  0  0  0  0  0
   -0.0630    8.8970  -13.6710 C   0  0  0  0  0  0  0  0  0  0  0  0
    1.9950   10.3860  -14.5920 C   0  0  0  0  0  0  0  0  0  0  0  0
    3.4240   10.4200  -14.6460 N   0  0  0  0  0  0  0  0  0  0  0  0
    4.0370   10.4260  -13.3300 C   0  0  0  0  0  0  0  0  0  0  0  0
    5.2120    9.4630  -13.2500 C   0  0  0  0  0  0  0  0  0  0  0  0
    4.8280    8.1460  -13.4390 O   0  0  0  0  0  0  0  0  0  0  0  0
    3.7830    8.0490  -14.3520 C   0  0  0  0  0  0  0  0  0  0  0  0
    3.9320    9.2100  -15.3140 C   0  0  0  0  0  0  0  0  0  0  0  0
   -1.2300   13.8470  -13.6190 H   0  0  0  0  0  0  0  0  0  0  0  0
    2.9990   15.0370  -11.4280 H   0  0  0  0  0  0  0  0  0  0  0  0
    1.1620   17.2700  -10.5760 H   0  0  0  0  0  0  0  0  0  0  0  0
    2.4430   17.4420  -11.8070 H   0  0  0  0  0  0  0  0  0  0  0  0
    0.6950   17.8280  -12.2030 H   0  0  0  0  0  0  0  0  0  0  0  0
    3.4260   10.5630  -12.4680 H   0  0  0  0  0  0  0  0  0  0  0  0
    2.1940   10.7470  -11.2080 H   0  0  0  0  0  0  0  0  0  0  0  0
   -0.6190   11.4380  -12.8860 H   0  0  0  0  0  0  0  0  0  0  0  0
    0.7340   11.8690  -15.3620 H   0  0  0  0  0  0  0  0  0  0  0  0
    0.1990    9.8450  -11.9180 H   0  0  0  0  0  0  0  0  0  0  0  0
    2.5050    8.9630  -11.5610 H   0  0  0  0  0  0  0  0  0  0  0  0
    2.1530    7.9620  -13.0660 H   0  0  0  0  0  0  0  0  0  0  0  0
    1.6180    6.8400  -10.9840 H   0  0  0  0  0  0  0  0  0  0  0  0
    0.3870    8.1670  -10.6340 H   0  0  0  0  0  0  0  0  0  0  0  0
   -1.4510    7.2000  -13.5780 H   0  0  0  0  0  0  0  0  0  0  0  0
   -1.3770    8.3210  -12.1050 H   0  0  0  0  0  0  0  0  0  0  0  0
    0.4770    8.3630  -14.4790 H   0  0  0  0  0  0  0  0  0  0  0  0
   -0.8350    9.5650  -14.0980 H   0  0  0  0  0  0  0  0  0  0  0  0
    1.6490    9.4080  -14.9620 H   0  0  0  0  0  0  0  0  0  0  0  0
    1.5970   11.1500  -15.3210 H   0  0  0  0  0  0  0  0  0  0  0  0
    3.8290   11.2110  -15.1690 H   0  0  0  0  0  0  0  0  0  0  0  0
    3.2890   10.0540  -12.5950 H   0  0  0  0  0  0  0  0  0  0  0  0
    4.4380   11.4210  -13.0490 H   0  0  0  0  0  0  0  0  0  0  0  0
    6.0630    9.7770  -13.8720 H   0  0  0  0  0  0  0  0  0  0  0  0
    5.5720    9.5320  -12.1870 H   0  0  0  0  0  0  0  0  0  0  0  0
    2.8390    8.1210  -13.7700 H   0  0  0  0  0  0  0  0  0  0  0  0
    3.8780    7.0790  -14.8670 H   0  0  0  0  0  0  0  0  0  0  0  0
    5.0010    9.3700  -15.5650 H   0  0  0  0  0  0  0  0  0  0  0  0
    3.4030    9.0340  -16.2740 H   0  0  0  0  0  0  0  0  0  0  0  0
  1  2  1  0  0  0  0
  2  7  1  0  0  0  0
  3  4  1  0  0  0  0
  3  2  2  0  0  0  0
  4  5  2  0  0  0  0
  5  9  1  0  0  0  0
  5  6  1  0  0  0  0
  6 28  1  0  0  0  0
  7  6  2  0  0  0  0
  7  8  1  0  0  0  0
  8 29  1  0  0  0  0
 10 33  1  0  0  0  0
 11 20  1  6  0  0  0
 11 14  1  0  0  0  0
 12 11  1  0  0  0  0
 12  4  1  0  0  0  0
 12 34  1  1  0  0  0
 13 12  1  0  0  0  0
 14 15  1  0  0  0  0
 14 36  1  0  0  0  0
 15 37  1  0  0  0  0
 15 16  1  0  0  0  0
 16 39  1  0  0  0  0
 16 40  1  0  0  0  0
 17 16  1  0  0  0  0
 18 17  1  0  0  0  0
 18 42  1  0  0  0  0
 19 18  1  0  0  0  0
 19 14  1  0  0  0  0
 21 20  1  0  0  0  0
 22 49  1  0  0  0  0
 22 32  1  0  0  0  0
 23 51  1  0  0  0  0
 24 23  1  0  0  0  0
 25 52  1  0  0  0  0
 25 24  1  0  0  0  0
 26 21  1  0  0  0  0
 26 25  1  0  0  0  0
 27  3  1  0  0  0  0
 30  8  1  0  0  0  0
 31  8  1  0  0  0  0
 35 13  1  0  0  0  0
 38 15  1  0  0  0  0
 41 18  1  0  0  0  0
 43 19  1  0  0  0  0
 44 19  1  0  0  0  0
 45 20  1  0  0  0  0
 46 20  1  0  0  0  0
 47 21  1  0  0  0  0
 50 23  1  0  0  0  0
 53 25  1  0  0  0  0
 54 26  1  0  0  0  0
 55 26  1  0  0  0  0
M  END
>  <Pose>
1

>  <Score>
-4.19

$$$$
