
 OpenBabel03232203513D

 66 69  0  0  1  0  0  0  0  0999 V2000
   -5.1840   25.7090   -5.8490 B   0  0  0  0  0  0  0  0  0  0  0  0
   -6.3720   24.8050   -7.0510 C   0  0  0  0  0  0  0  0  0  0  0  0
   -7.6350   25.3020   -7.2670 C   0  0  0  0  0  0  0  0  0  0  0  0
   -8.5370   24.6700   -8.1390 C   0  0  0  0  0  0  0  0  0  0  0  0
   -8.0880   23.5280   -8.7650 C   0  0  0  0  0  0  0  0  0  0  0  0
   -6.8270   23.0080   -8.5660 C   0  0  0  0  0  0  0  0  0  0  0  0
   -5.9610   23.6460   -7.7070 C   0  0  0  0  0  0  0  0  0  0  0  0
   -4.5830   23.1650   -7.4270 C   0  0  0  0  0  0  0  0  0  0  0  0
   -6.2310   21.4250   -9.4480 B   0  0  0  0  0  0  0  0  0  0  0  0
   -9.8600   25.2260   -8.3340 C   0  0  0  0  0  0  0  0  0  0  0  0
  -10.6220   24.7380   -9.1750 O   0  0  0  0  0  0  0  0  0  0  0  0
  -10.2890   26.3780   -7.5210 C   0  0  1  0  0  0  0  0  0  0  0  0
   -9.0600   27.2200   -7.2560 C   0  0  0  0  0  0  0  0  0  0  0  0
   -8.0530   26.4580   -6.6160 O   0  0  0  0  0  0  0  0  0  0  0  0
  -11.3850   27.1840   -8.1500 C   0  0  0  0  0  0  0  0  0  0  0  0
  -12.6900   26.6560   -8.0300 N   0  0  0  0  0  4  0  0  0  0  0  0
  -13.3510   27.2360   -6.8990 C   0  0  0  0  0  0  0  0  0  0  0  0
  -13.7340   28.6640   -7.0520 C   0  0  2  0  0  0  0  0  0  0  0  0
  -13.5910   29.2520   -8.4020 C   0  0  0  0  0  0  0  0  0  0  0  0
  -13.5930   28.3090   -9.5410 C   0  0  0  0  0  0  0  0  0  0  0  0
  -13.5510   26.8580   -9.1620 C   0  0  0  0  0  0  0  0  0  0  0  0
  -12.8600   29.4830   -6.0950 C   0  0  0  0  0  0  0  0  0  0  0  0
  -10.7590   25.8050   -6.2010 C   0  0  0  0  0  0  0  0  0  0  0  0
  -11.1040   24.4240   -6.2250 N   0  0  0  0  0  4  0  0  0  0  0  0
  -12.2590   24.1750   -5.3640 C   0  0  0  0  0  0  0  0  0  0  0  0
  -11.8730   23.5960   -4.0350 C   0  0  1  0  0  0  0  0  0  0  0  0
  -10.6390   24.2970   -3.5150 C   0  0  0  0  0  0  0  0  0  0  0  0
   -9.4980   23.9440   -4.4190 C   0  0  0  0  0  0  0  0  0  0  0  0
  -10.0540   23.5420   -5.7620 C   0  0  0  0  0  0  0  0  0  0  0  0
  -13.0050   23.9330   -3.0540 C   0  0  0  0  0  0  0  0  0  0  0  0
   -8.7440   22.9980   -9.4510 H   0  0  0  0  0  0  0  0  0  0  0  0
   -3.8730   23.9460   -7.7800 H   0  0  0  0  0  0  0  0  0  0  0  0
   -4.3830   22.1730   -7.8350 H   0  0  0  0  0  0  0  0  0  0  0  0
   -4.4810   23.1690   -6.3050 H   0  0  0  0  0  0  0  0  0  0  0  0
   -8.6250   27.5990   -8.1920 H   0  0  0  0  0  0  0  0  0  0  0  0
   -9.3180   28.1350   -6.6530 H   0  0  0  0  0  0  0  0  0  0  0  0
  -11.3660   28.1750   -7.6500 H   0  0  0  0  0  0  0  0  0  0  0  0
  -11.1030   27.3770   -9.2050 H   0  0  0  0  0  0  0  0  0  0  0  0
  -12.6440   25.6190   -7.8640 H   0  0  0  0  0  0  0  0  0  0  0  0
  -14.2620   26.5960   -6.7040 H   0  0  0  0  0  0  0  0  0  0  0  0
  -12.7070   27.0730   -6.0100 H   0  0  0  0  0  0  0  0  0  0  0  0
  -14.7720   28.7900   -6.6670 H   0  0  0  0  0  0  0  0  0  0  0  0
  -14.4390   29.9810   -8.5510 H   0  0  0  0  0  0  0  0  0  0  0  0
  -12.6740   29.9100   -8.4740 H   0  0  0  0  0  0  0  0  0  0  0  0
  -12.7510   28.5260  -10.2630 H   0  0  0  0  0  0  0  0  0  0  0  0
  -14.5150   28.4340  -10.1850 H   0  0  0  0  0  0  0  0  0  0  0  0
  -13.3680   26.2370  -10.0300 H   0  0  0  0  0  0  0  0  0  0  0  0
  -14.5940   26.5990   -8.8070 H   0  0  0  0  0  0  0  0  0  0  0  0
  -13.4230   30.3680   -5.7080 H   0  0  0  0  0  0  0  0  0  0  0  0
  -12.4750   28.8330   -5.2970 H   0  0  0  0  0  0  0  0  0  0  0  0
  -11.9940   29.8540   -6.6750 H   0  0  0  0  0  0  0  0  0  0  0  0
  -11.6710   26.4050   -5.9210 H   0  0  0  0  0  0  0  0  0  0  0  0
  -10.0140   26.0640   -5.3960 H   0  0  0  0  0  0  0  0  0  0  0  0
  -11.3780   24.1360   -7.1670 H   0  0  0  0  0  0  0  0  0  0  0  0
  -12.9890   23.5030   -5.8440 H   0  0  0  0  0  0  0  0  0  0  0  0
  -12.8000   25.1340   -5.1470 H   0  0  0  0  0  0  0  0  0  0  0  0
  -11.7860   22.5020   -4.0300 H   0  0  0  0  0  0  0  0  0  0  0  0
  -10.4690   23.9330   -2.4820 H   0  0  0  0  0  0  0  0  0  0  0  0
  -10.8520   25.3700   -3.4680 H   0  0  0  0  0  0  0  0  0  0  0  0
   -8.7220   24.7000   -4.5090 H   0  0  0  0  0  0  0  0  0  0  0  0
   -8.9980   23.0230   -4.0040 H   0  0  0  0  0  0  0  0  0  0  0  0
  -10.5310   22.5220   -5.6760 H   0  0  0  0  0  0  0  0  0  0  0  0
   -9.2140   23.4180   -6.4460 H   0  0  0  0  0  0  0  0  0  0  0  0
  -13.9720   24.0030   -3.6040 H   0  0  0  0  0  0  0  0  0  0  0  0
  -12.7820   24.8620   -2.4890 H   0  0  0  0  0  0  0  0  0  0  0  0
  -13.1210   23.1310   -2.2950 H   0  0  0  0  0  0  0  0  0  0  0  0
  2  1  1  0  0  0  0
  3  2  1  0  0  0  0
  3 14  1  0  0  0  0
  4  3  2  0  0  0  0
  5  6  2  0  0  0  0
  5  4  1  0  0  0  0
  6  7  1  0  0  0  0
  7  8  1  0  0  0  0
  7  2  2  0  0  0  0
  8 34  1  0  0  0  0
  9  6  1  0  0  0  0
 10  4  1  0  0  0  0
 10 12  1  0  0  0  0
 11 10  2  0  0  0  0
 12 15  1  6  0  0  0
 12 13  1  0  0  0  0
 12 23  1  0  0  0  0
 13 36  1  0  0  0  0
 13 14  1  0  0  0  0
 15 16  1  0  0  0  0
 15 37  1  0  0  0  0
 16 39  1  0  0  0  0
 16 17  1  0  0  0  0
 17 40  1  0  0  0  0
 17 41  1  0  0  0  0
 18 17  1  0  0  0  0
 18 42  1  1  0  0  0
 18 22  1  0  0  0  0
 19 18  1  0  0  0  0
 20 21  1  0  0  0  0
 20 19  1  0  0  0  0
 21 48  1  0  0  0  0
 21 16  1  0  0  0  0
 22 49  1  0  0  0  0
 22 50  1  0  0  0  0
 23 52  1  0  0  0  0
 23 53  1  0  0  0  0
 24 23  1  0  0  0  0
 24 29  1  0  0  0  0
 24 25  1  0  0  0  0
 25 56  1  0  0  0  0
 25 26  1  0  0  0  0
 26 57  1  6  0  0  0
 26 27  1  0  0  0  0
 26 30  1  0  0  0  0
 27 59  1  0  0  0  0
 27 58  1  0  0  0  0
 28 61  1  0  0  0  0
 28 27  1  0  0  0  0
 29 62  1  0  0  0  0
 29 28  1  0  0  0  0
 30 65  1  0  0  0  0
 30 66  1  0  0  0  0
 31  5  1  0  0  0  0
 32  8  1  0  0  0  0
 33  8  1  0  0  0  0
 35 13  1  0  0  0  0
 38 15  1  0  0  0  0
 43 19  1  0  0  0  0
 44 19  1  0  0  0  0
 45 20  1  0  0  0  0
 46 20  1  0  0  0  0
 47 21  1  0  0  0  0
 51 22  1  0  0  0  0
 54 24  1  0  0  0  0
 55 25  1  0  0  0  0
 60 28  1  0  0  0  0
 63 29  1  0  0  0  0
 64 30  1  0  0  0  0
M  END
>  <Pose>
1

>  <Score>
-3.72

$$$$
