
 OpenBabel03232203513D

 41 44  0  0  0  0  0  0  0  0999 V2000
   -6.0100   24.3470   -6.2330 F   0  0  0  0  0  0  0  0  0  0  0  0
   -7.1030   24.3410   -7.0450 C   0  0  0  0  0  0  0  0  0  0  0  0
   -7.0910   23.4650   -8.1440 C   0  0  0  0  0  0  0  0  0  0  0  0
   -8.1800   23.4560   -8.9580 C   0  0  0  0  0  0  0  0  0  0  0  0
   -9.3060   24.2800   -8.7450 C   0  0  0  0  0  0  0  0  0  0  0  0
   -9.2790   25.1230   -7.6590 C   0  0  0  0  0  0  0  0  0  0  0  0
   -8.1850   25.1510   -6.8190 C   0  0  0  0  0  0  0  0  0  0  0  0
  -10.3270   25.9390   -7.4000 F   0  0  0  0  0  0  0  0  0  0  0  0
   -5.9630   22.6530   -8.3390 N   0  0  0  0  0  0  0  0  0  0  0  0
   -5.8070   21.7340   -9.3730 C   0  0  0  0  0  0  0  0  0  0  0  0
   -6.7260   21.3480  -10.1010 O   0  0  0  0  0  0  0  0  0  0  0  0
   -4.4340   21.1510   -9.6440 C   0  0  0  0  0  0  0  0  0  0  0  0
   -4.4810   20.3890  -10.8740 N   0  0  0  0  0  0  0  0  0  0  0  0
   -5.4490   20.5090  -11.7650 N   0  0  0  0  0  0  0  0  0  0  0  0
   -5.1540   19.6610  -12.7350 N   0  0  0  0  0  0  0  0  0  0  0  0
   -4.0070   19.0020  -12.4730 C   0  0  0  0  0  0  0  0  0  0  0  0
   -3.5880   19.4740  -11.2870 C   0  0  0  0  0  0  0  0  0  0  0  0
   -2.4200   18.7940  -11.0360 C   0  0  0  0  0  0  0  0  0  0  0  0
   -1.7070   18.9510  -10.0080 O   0  0  0  0  0  0  0  0  0  0  0  0
   -2.1190   17.9300  -12.0270 N   0  0  0  0  0  0  0  0  0  0  0  0
   -3.1060   18.0550  -12.9290 C   0  0  0  0  0  0  0  0  0  0  0  0
   -3.1900   17.4110  -14.0070 O   0  0  0  0  0  0  0  0  0  0  0  0
   -0.9670   17.0710  -12.0690 C   0  0  0  0  0  0  0  0  0  0  0  0
    0.2380   17.4790  -11.5310 C   0  0  0  0  0  0  0  0  0  0  0  0
    1.3680   16.6880  -11.5490 C   0  0  0  0  0  0  0  0  0  0  0  0
    1.2570   15.4430  -12.1370 C   0  0  0  0  0  0  0  0  0  0  0  0
    0.0750   14.9810  -12.6920 C   0  0  0  0  0  0  0  0  0  0  0  0
   -1.0180   15.8220  -12.6410 C   0  0  0  0  0  0  0  0  0  0  0  0
    2.8440   14.3600  -12.1500 B   0  0  0  0  0  0  0  0  0  0  0  0
   -8.2550   22.8250   -9.8120 H   0  0  0  0  0  0  0  0  0  0  0  0
  -10.1510   24.2440   -9.4150 H   0  0  0  0  0  0  0  0  0  0  0  0
   -8.1730   25.8270   -5.9550 H   0  0  0  0  0  0  0  0  0  0  0  0
   -5.1380   22.7280   -7.6500 H   0  0  0  0  0  0  0  0  0  0  0  0
   -4.1560   20.4750   -8.8030 H   0  0  0  0  0  0  0  0  0  0  0  0
   -3.7260   21.9800   -9.6560 H   0  0  0  0  0  0  0  0  0  0  0  0
   -6.2950   21.1470  -11.7240 H   0  0  0  0  0  0  0  0  0  0  0  0
   -5.7620   19.5440  -13.5880 H   0  0  0  0  0  0  0  0  0  0  0  0
    0.2650   18.4620  -11.0840 H   0  0  0  0  0  0  0  0  0  0  0  0
    2.3180   17.0320  -11.1140 H   0  0  0  0  0  0  0  0  0  0  0  0
    0.0600   13.9990  -13.1350 H   0  0  0  0  0  0  0  0  0  0  0  0
   -1.9450   15.4650  -13.0740 H   0  0  0  0  0  0  0  0  0  0  0  0
  2  7  1  0  0  0  0
  2  1  1  0  0  0  0
  3  2  2  0  0  0  0
  4  5  2  0  0  0  0
  4  3  1  0  0  0  0
  5  6  1  0  0  0  0
  6  8  1  0  0  0  0
  6  7  2  0  0  0  0
  7 32  1  0  0  0  0
  9  3  1  0  0  0  0
  9 33  1  0  0  0  0
 10  9  1  0  0  0  0
 11 10  2  0  0  0  0
 12 10  1  0  0  0  0
 12 34  1  0  0  0  0
 13 12  1  0  0  0  0
 14 36  1  0  0  0  0
 14 13  1  0  0  0  0
 15 16  1  0  0  0  0
 15 14  1  0  0  0  0
 16 17  2  0  0  0  0
 17 18  1  0  0  0  0
 17 13  1  0  0  0  0
 18 19  2  0  0  0  0
 20 18  1  0  0  0  0
 21 16  1  0  0  0  0
 21 20  1  0  0  0  0
 22 21  2  0  0  0  0
 23 20  1  0  0  0  0
 23 24  1  0  0  0  0
 24 38  1  0  0  0  0
 25 24  2  0  0  0  0
 25 39  1  0  0  0  0
 26 25  1  0  0  0  0
 27 28  1  0  0  0  0
 27 26  2  0  0  0  0
 28 23  2  0  0  0  0
 29 26  1  0  0  0  0
 30  4  1  0  0  0  0
 31  5  1  0  0  0  0
 35 12  1  0  0  0  0
 37 15  1  0  0  0  0
 40 27  1  0  0  0  0
 41 28  1  0  0  0  0
M  END
>  <Pose>
1

>  <Score>
-7.34

$$$$
