
 OpenBabel03232203513D

 53 56  0  0  1  0  0  0  0  0999 V2000
    2.3650    5.8520  -11.9190 F   0  0  0  0  0  0  0  0  0  0  0  0
    1.3560    6.4640  -12.5210 C   0  0  0  0  0  0  0  0  0  0  0  0
    1.3510    7.8270  -12.7310 C   0  0  0  0  0  0  0  0  0  0  0  0
    0.2360    8.3150  -13.3680 C   0  0  0  0  0  0  0  0  0  0  0  0
   -0.8310    7.5370  -13.7880 C   0  0  0  0  0  0  0  0  0  0  0  0
   -0.7890    6.1910  -13.5620 C   0  0  0  0  0  0  0  0  0  0  0  0
    0.2910    5.6600  -12.9370 C   0  0  0  0  0  0  0  0  0  0  0  0
    2.4640    8.7050  -12.3360 C   0  0  2  0  0  0  0  0  0  0  0  0
    2.5440    9.9560  -13.0740 N   0  0  0  0  0  0  0  0  0  0  0  0
    2.8570    9.4860  -14.4020 C   0  0  0  0  0  0  0  0  0  0  0  0
    2.5400    9.9940  -15.5100 O   0  0  0  0  0  0  0  0  0  0  0  0
    3.6590    8.2350  -14.2870 C   0  0  0  0  0  0  0  0  0  0  0  0
    4.1480    7.4850  -15.1300 O   0  0  0  0  0  0  0  0  0  0  0  0
    3.7540    8.0670  -12.8080 C   0  0  0  0  0  0  0  0  0  0  0  0
    4.7260    7.4960  -12.1390 C   0  0  0  0  0  0  0  0  0  0  0  0
    4.6400    7.4160  -10.7350 O   0  0  0  0  0  0  0  0  0  0  0  0
    5.8960    6.9420  -12.8050 C   0  0  0  0  0  0  0  0  0  0  0  0
    6.3360    5.6860  -12.4480 C   0  0  0  0  0  0  0  0  0  0  0  0
    7.4580    5.1110  -13.0200 C   0  0  0  0  0  0  0  0  0  0  0  0
    8.1670    5.8000  -13.9800 C   0  0  0  0  0  0  0  0  0  0  0  0
    7.7510    7.0420  -14.3480 C   0  0  0  0  0  0  0  0  0  0  0  0
    6.6100    7.6170  -13.7590 C   0  0  0  0  0  0  0  0  0  0  0  0
    9.7330    5.0230  -14.7950 B   0  0  0  0  0  0  0  0  0  0  0  0
    2.3880   11.3060  -12.7400 C   0  0  0  0  0  0  0  0  0  0  0  0
    3.4830   12.2790  -12.9950 C   0  0  0  0  0  0  0  0  0  0  0  0
    3.2120   13.6090  -12.5290 N   0  0  0  0  0  4  0  0  0  0  0  0
    2.2780   13.5370  -11.4240 C   0  0  0  0  0  0  0  0  0  0  0  0
    2.0510   14.9110  -10.8210 C   0  0  0  0  0  0  0  0  0  0  0  0
    1.5530   15.7550  -11.7950 O   0  0  0  0  0  0  0  0  0  0  0  0
    2.4160   15.8070  -12.8860 C   0  0  0  0  0  0  0  0  0  0  0  0
    2.5150   14.4240  -13.5450 C   0  0  0  0  0  0  0  0  0  0  0  0
    0.1660    9.3500  -13.5730 H   0  0  0  0  0  0  0  0  0  0  0  0
   -1.6960    7.9480  -14.2880 H   0  0  0  0  0  0  0  0  0  0  0  0
   -1.6140    5.5650  -13.8820 H   0  0  0  0  0  0  0  0  0  0  0  0
    0.3080    4.5890  -12.7640 H   0  0  0  0  0  0  0  0  0  0  0  0
    2.5070    8.7910  -11.2610 H   0  0  0  0  0  0  0  0  0  0  0  0
    5.8260    5.0830  -11.6980 H   0  0  0  0  0  0  0  0  0  0  0  0
    7.8260    4.1300  -12.7600 H   0  0  0  0  0  0  0  0  0  0  0  0
    8.3040    7.5880  -15.1010 H   0  0  0  0  0  0  0  0  0  0  0  0
    6.3050    8.5960  -14.0470 H   0  0  0  0  0  0  0  0  0  0  0  0
    2.1470   11.4040  -11.6420 H   0  0  0  0  0  0  0  0  0  0  0  0
    1.4740   11.7960  -13.2120 H   0  0  0  0  0  0  0  0  0  0  0  0
    4.3590   11.9180  -12.3810 H   0  0  0  0  0  0  0  0  0  0  0  0
    3.8790   12.2420  -14.0380 H   0  0  0  0  0  0  0  0  0  0  0  0
    4.0630   14.1700  -12.3190 H   0  0  0  0  0  0  0  0  0  0  0  0
    1.2890   13.2410  -11.8840 H   0  0  0  0  0  0  0  0  0  0  0  0
    2.5060   12.7630  -10.6930 H   0  0  0  0  0  0  0  0  0  0  0  0
    3.0170   15.2480  -10.3880 H   0  0  0  0  0  0  0  0  0  0  0  0
    1.2880   14.7950  -10.0310 H   0  0  0  0  0  0  0  0  0  0  0  0
    3.4340   16.0370  -12.4680 H   0  0  0  0  0  0  0  0  0  0  0  0
    2.1400   16.5700  -13.6210 H   0  0  0  0  0  0  0  0  0  0  0  0
    1.5270   14.0010  -13.7320 H   0  0  0  0  0  0  0  0  0  0  0  0
    3.1800   14.5080  -14.4170 H   0  0  0  0  0  0  0  0  0  0  0  0
  2  1  1  0  0  0  0
  3  2  1  0  0  0  0
  3  8  1  0  0  0  0
  4  3  2  0  0  0  0
  5  6  2  0  0  0  0
  5  4  1  0  0  0  0
  6  7  1  0  0  0  0
  7 35  1  0  0  0  0
  7  2  2  0  0  0  0
  8 36  1  1  0  0  0
  9 24  1  0  0  0  0
  9  8  1  0  0  0  0
 10 12  1  0  0  0  0
 10  9  1  0  0  0  0
 11 10  2  0  0  0  0
 12 14  1  0  0  0  0
 13 12  2  0  0  0  0
 14  8  1  0  0  0  0
 14 15  2  0  0  0  0
 15 16  1  0  0  0  0
 17 18  1  0  0  0  0
 17 15  1  0  0  0  0
 18 37  1  0  0  0  0
 19 38  1  0  0  0  0
 19 18  2  0  0  0  0
 20 19  1  0  0  0  0
 21 20  2  0  0  0  0
 21 22  1  0  0  0  0
 22 17  2  0  0  0  0
 23 20  1  0  0  0  0
 24 41  1  0  0  0  0
 25 24  1  0  0  0  0
 25 26  1  0  0  0  0
 25 43  1  0  0  0  0
 26 45  1  0  0  0  0
 26 27  1  0  0  0  0
 27 28  1  0  0  0  0
 27 47  1  0  0  0  0
 28 48  1  0  0  0  0
 28 49  1  0  0  0  0
 29 28  1  0  0  0  0
 30 50  1  0  0  0  0
 30 29  1  0  0  0  0
 31 30  1  0  0  0  0
 31 26  1  0  0  0  0
 32  4  1  0  0  0  0
 33  5  1  0  0  0  0
 34  6  1  0  0  0  0
 39 21  1  0  0  0  0
 40 22  1  0  0  0  0
 42 24  1  0  0  0  0
 44 25  1  0  0  0  0
 46 27  1  0  0  0  0
 51 30  1  0  0  0  0
 52 31  1  0  0  0  0
 53 31  1  0  0  0  0
M  END
>  <Pose>
1

>  <Score>
-4.31

$$$$
