
 OpenBabel03232203513D

 39 42  0  0  1  0  0  0  0  0999 V2000
   -1.4560    6.1660  -13.9200 I   0  0  0  0  0  0  0  0  0  0  0  0
    0.1140    7.3430  -13.1640 C   0  0  0  0  0  0  0  0  0  0  0  0
    0.9470    8.0400  -14.0410 C   0  0  0  0  0  0  0  0  0  0  0  0
    1.9840    8.8210  -13.5890 C   0  0  0  0  0  0  0  0  0  0  0  0
    2.1530    8.8720  -12.1980 C   0  0  0  0  0  0  0  0  0  0  0  0
    1.3320    8.1830  -11.3440 C   0  0  0  0  0  0  0  0  0  0  0  0
    0.2990    7.4080  -11.8180 C   0  0  0  0  0  0  0  0  0  0  0  0
    1.5940    8.2760   -9.4610 B   0  0  0  0  0  0  0  0  0  0  0  0
    2.8920    9.5940  -14.4760 C   0  0  2  0  0  0  0  0  0  0  0  0
    3.5940   10.5330  -13.6300 N   0  0  0  0  0  0  0  0  0  0  0  0
    2.9000   11.6740  -13.1140 C   0  0  0  0  0  0  0  0  0  0  0  0
    3.1370   12.6790  -11.7160 S   0  0  0  0  0  0  0  0  0  0  0  0
    1.8480   13.7650  -11.9320 C   0  0  0  0  0  0  0  0  0  0  0  0
    1.2710   13.3240  -13.0720 C   0  0  0  0  0  0  0  0  0  0  0  0
    1.8040   12.2530  -13.6840 C   0  0  0  0  0  0  0  0  0  0  0  0
    1.4040   11.5440  -14.9330 C   0  0  0  0  0  0  0  0  0  0  0  0
    0.4200   11.9260  -15.6090 O   0  0  0  0  0  0  0  0  0  0  0  0
    2.1250   10.4200  -15.3940 N   0  0  0  0  0  0  0  0  0  0  0  0
    0.0590   14.1330  -13.5190 C   0  0  0  0  0  0  0  0  0  0  0  0
    0.1510   15.4920  -12.9050 C   0  0  0  0  0  0  0  0  0  0  0  0
    0.0850   15.2740  -11.4520 N   0  0  0  0  0  4  0  0  0  0  0  0
    1.4410   14.9160  -11.0930 C   0  0  0  0  0  0  0  0  0  0  0  0
   -0.3750   16.4570  -10.7640 C   0  0  0  0  0  0  0  0  0  0  0  0
    0.7170    7.9390  -15.3950 O   0  0  0  0  0  0  0  0  0  0  0  0
    2.9700    9.4840  -11.8390 H   0  0  0  0  0  0  0  0  0  0  0  0
   -0.3640    6.8540  -11.1400 H   0  0  0  0  0  0  0  0  0  0  0  0
    3.5900    8.9290  -15.0270 H   0  0  0  0  0  0  0  0  0  0  0  0
    4.5990   10.4260  -13.3690 H   0  0  0  0  0  0  0  0  0  0  0  0
    2.1220   10.1570  -16.4120 H   0  0  0  0  0  0  0  0  0  0  0  0
   -0.8200   13.6120  -13.1210 H   0  0  0  0  0  0  0  0  0  0  0  0
   -0.0030   14.1700  -14.6120 H   0  0  0  0  0  0  0  0  0  0  0  0
    1.1070   15.9810  -13.1550 H   0  0  0  0  0  0  0  0  0  0  0  0
   -0.7020   16.0880  -13.2250 H   0  0  0  0  0  0  0  0  0  0  0  0
   -0.5170   14.4440  -11.2650 H   0  0  0  0  0  0  0  0  0  0  0  0
    2.1410   15.7650  -11.2220 H   0  0  0  0  0  0  0  0  0  0  0  0
    1.4330   14.6820  -10.0110 H   0  0  0  0  0  0  0  0  0  0  0  0
    0.4000   16.8920  -10.1110 H   0  0  0  0  0  0  0  0  0  0  0  0
   -1.2130   16.1300  -10.0890 H   0  0  0  0  0  0  0  0  0  0  0  0
   -0.8290   17.2080  -11.4440 H   0  0  0  0  0  0  0  0  0  0  0  0
  1  2  1  0  0  0  0
  2  7  1  0  0  0  0
  3  4  1  0  0  0  0
  3  2  2  0  0  0  0
  4  5  2  0  0  0  0
  5 25  1  0  0  0  0
  5  6  1  0  0  0  0
  6  8  1  0  0  0  0
  7  6  2  0  0  0  0
  7 26  1  0  0  0  0
  9 27  1  6  0  0  0
  9 10  1  0  0  0  0
  9  4  1  0  0  0  0
 10 28  1  0  0  0  0
 10 11  1  0  0  0  0
 11 12  1  0  0  0  0
 13 12  1  0  0  0  0
 13 22  1  0  0  0  0
 14 13  2  0  0  0  0
 15 11  2  0  0  0  0
 15 14  1  0  0  0  0
 16 15  1  0  0  0  0
 17 16  2  0  0  0  0
 18 16  1  0  0  0  0
 18  9  1  0  0  0  0
 19 30  1  0  0  0  0
 19 14  1  0  0  0  0
 19 20  1  0  0  0  0
 20 21  1  0  0  0  0
 21 34  1  0  0  0  0
 21 22  1  0  0  0  0
 21 23  1  0  0  0  0
 22 36  1  0  0  0  0
 23 37  1  0  0  0  0
 23 38  1  0  0  0  0
 24  3  1  0  0  0  0
 29 18  1  0  0  0  0
 31 19  1  0  0  0  0
 32 20  1  0  0  0  0
 33 20  1  0  0  0  0
 35 22  1  0  0  0  0
 39 23  1  0  0  0  0
M  END
>  <Pose>
1

>  <Score>
-4.02

$$$$
