
 OpenBabel03232203513D

 43 46  0  0  1  0  0  0  0  0999 V2000
   -1.4590   11.3680  -13.5210 I   0  0  0  0  0  0  0  0  0  0  0  0
   -0.3700   13.0380  -12.8320 C   0  0  0  0  0  0  0  0  0  0  0  0
    0.7890   12.8470  -12.1080 C   0  0  0  0  0  0  0  0  0  0  0  0
    1.5190   13.9410  -11.6460 C   0  0  0  0  0  0  0  0  0  0  0  0
    1.0440   15.1840  -11.9390 C   0  0  0  0  0  0  0  0  0  0  0  0
   -0.1180   15.4050  -12.6660 C   0  0  0  0  0  0  0  0  0  0  0  0
   -0.8200   14.3190  -13.1100 C   0  0  0  0  0  0  0  0  0  0  0  0
   -0.5300   16.8130  -12.9180 C   0  0  2  0  0  0  0  0  0  0  0  0
   -0.5830   17.4560  -11.6050 N   0  0  0  0  0  0  0  0  0  0  0  0
   -1.6320   18.4010  -11.2780 C   0  0  0  0  0  0  0  0  0  0  0  0
   -1.8240   19.5370  -10.0030 S   0  0  0  0  0  0  0  0  0  0  0  0
   -3.3330   20.1760  -10.4400 C   0  0  0  0  0  0  0  0  0  0  0  0
   -3.6560   19.4850  -11.5760 C   0  0  0  0  0  0  0  0  0  0  0  0
   -2.7670   18.5630  -12.0060 C   0  0  0  0  0  0  0  0  0  0  0  0
   -2.8820   17.6860  -13.2060 C   0  0  0  0  0  0  0  0  0  0  0  0
   -3.8920   17.7380  -13.9720 O   0  0  0  0  0  0  0  0  0  0  0  0
   -1.8460   16.7780  -13.4970 N   0  0  0  0  0  0  0  0  0  0  0  0
   -5.0050   19.9190  -12.1400 C   0  0  0  0  0  0  0  0  0  0  0  0
   -6.0320   19.9000  -11.0390 C   0  0  0  0  0  0  0  0  0  0  0  0
   -5.5850   20.4770   -9.8150 N   0  0  0  0  0  4  0  0  0  0  0  0
   -4.3290   21.2050   -9.9640 C   0  0  0  0  0  0  0  0  0  0  0  0
   -5.2840   19.3670   -8.8980 C   0  0  0  0  0  0  0  0  0  0  0  0
    2.6770   13.6890  -10.9220 O   0  0  0  0  0  0  0  0  0  0  0  0
    3.8020   13.1710  -11.6070 C   0  0  0  0  0  0  0  0  0  0  0  0
    1.2380   11.5690  -11.8310 O   0  0  0  0  0  0  0  0  0  0  0  0
    1.6050   16.0450  -11.5840 H   0  0  0  0  0  0  0  0  0  0  0  0
   -1.7340   14.4940  -13.6800 H   0  0  0  0  0  0  0  0  0  0  0  0
    0.2020   17.3460  -13.5530 H   0  0  0  0  0  0  0  0  0  0  0  0
    0.1220   17.2580  -10.8710 H   0  0  0  0  0  0  0  0  0  0  0  0
   -2.0290   16.0060  -14.1890 H   0  0  0  0  0  0  0  0  0  0  0  0
   -4.8890   20.9080  -12.5820 H   0  0  0  0  0  0  0  0  0  0  0  0
   -5.3400   19.1940  -12.9030 H   0  0  0  0  0  0  0  0  0  0  0  0
   -6.4700   18.8940  -10.8810 H   0  0  0  0  0  0  0  0  0  0  0  0
   -6.8910   20.5350  -11.4080 H   0  0  0  0  0  0  0  0  0  0  0  0
   -6.2990   21.0980   -9.3520 H   0  0  0  0  0  0  0  0  0  0  0  0
   -4.0490   21.5690   -8.9670 H   0  0  0  0  0  0  0  0  0  0  0  0
   -4.4970   21.9890  -10.7170 H   0  0  0  0  0  0  0  0  0  0  0  0
   -4.7470   18.5980   -9.4900 H   0  0  0  0  0  0  0  0  0  0  0  0
   -4.6170   19.7330   -8.0860 H   0  0  0  0  0  0  0  0  0  0  0  0
   -6.2030   18.9810   -8.4310 H   0  0  0  0  0  0  0  0  0  0  0  0
    4.2520   13.9900  -12.2390 H   0  0  0  0  0  0  0  0  0  0  0  0
    3.5410   12.3550  -12.3070 H   0  0  0  0  0  0  0  0  0  0  0  0
    4.5590   12.7590  -10.9090 H   0  0  0  0  0  0  0  0  0  0  0  0
  1  2  1  0  0  0  0
  2  3  1  0  0  0  0
  3 25  1  0  0  0  0
  3  4  2  0  0  0  0
  4 23  1  0  0  0  0
  5  4  1  0  0  0  0
  5 26  1  0  0  0  0
  6  5  2  0  0  0  0
  7  2  2  0  0  0  0
  7  6  1  0  0  0  0
  8 28  1  6  0  0  0
  8  6  1  0  0  0  0
  8  9  1  0  0  0  0
  9 10  1  0  0  0  0
  9 29  1  0  0  0  0
 10 11  1  0  0  0  0
 12 11  1  0  0  0  0
 12 21  1  0  0  0  0
 13 12  2  0  0  0  0
 14 13  1  0  0  0  0
 14 10  2  0  0  0  0
 15 14  1  0  0  0  0
 16 15  2  0  0  0  0
 17 15  1  0  0  0  0
 17  8  1  0  0  0  0
 18 13  1  0  0  0  0
 18 19  1  0  0  0  0
 19 33  1  0  0  0  0
 19 20  1  0  0  0  0
 20 35  1  0  0  0  0
 20 22  1  0  0  0  0
 21 20  1  0  0  0  0
 21 36  1  0  0  0  0
 22 40  1  0  0  0  0
 22 39  1  0  0  0  0
 24 23  1  0  0  0  0
 24 43  1  0  0  0  0
 27  7  1  0  0  0  0
 30 17  1  0  0  0  0
 31 18  1  0  0  0  0
 32 18  1  0  0  0  0
 34 19  1  0  0  0  0
 37 21  1  0  0  0  0
 38 22  1  0  0  0  0
 41 24  1  0  0  0  0
 42 24  1  0  0  0  0
M  END
>  <Pose>
1

>  <Score>
-5.27

$$$$
