
 OpenBabel03232203513D

 40 43  0  0  0  0  0  0  0  0999 V2000
   -3.6190   19.7200  -10.4830 I   0  0  0  0  0  0  0  0  0  0  0  0
   -3.2880   18.6210  -12.2750 C   0  0  0  0  0  0  0  0  0  0  0  0
   -2.2060   17.8140  -12.5530 C   0  0  0  0  0  0  0  0  0  0  0  0
   -2.3840   17.3190  -13.7800 N   0  0  0  0  0  0  0  0  0  0  0  0
   -3.5300   17.7910  -14.2570 N   0  0  0  0  0  0  0  0  0  0  0  0
   -4.1160   18.5920  -13.3700 C   0  0  0  0  0  0  0  0  0  0  0  0
   -1.4870   16.4440  -14.5580 C   0  0  0  0  0  0  0  0  0  0  0  0
   -1.0420   17.6050  -11.6490 C   0  0  0  0  0  0  0  0  0  0  0  0
   -0.9440   18.5970  -10.8170 O   0  0  0  0  0  0  0  0  0  0  0  0
   -0.2120   16.5630  -11.6670 N   0  0  0  0  0  0  0  0  0  0  0  0
    0.6490   15.4850  -11.6870 C   0  0  0  0  0  0  0  0  0  0  0  0
    0.2760   14.4410  -12.5650 C   0  0  0  0  0  0  0  0  0  0  0  0
   -0.7980   14.2780  -13.3280 N   0  0  0  0  0  0  0  0  0  0  0  0
   -0.6850   13.1460  -13.9550 O   0  0  0  0  0  0  0  0  0  0  0  0
    0.4130   12.5640  -13.6340 N   0  0  0  0  0  0  0  0  0  0  0  0
    1.0540   13.3470  -12.7560 C   0  0  0  0  0  0  0  0  0  0  0  0
    2.2500   13.2310  -12.0830 C   0  0  0  0  0  0  0  0  0  0  0  0
    2.6400   14.2250  -11.2230 C   0  0  0  0  0  0  0  0  0  0  0  0
    1.8570   15.3440  -11.0190 C   0  0  0  0  0  0  0  0  0  0  0  0
    3.0220   12.0800  -12.3030 N   0  0  0  0  0  0  0  0  0  0  0  0
    3.8560   11.9030  -13.4920 C   0  0  0  0  0  0  0  0  0  0  0  0
    3.2640   10.6990  -14.1970 C   0  0  0  0  0  0  0  0  0  0  0  0
    2.1950   10.1310  -13.5240 O   0  0  0  0  0  0  0  0  0  0  0  0
    2.4350    9.8030  -12.2060 C   0  0  0  0  0  0  0  0  0  0  0  0
    3.1250   10.9210  -11.4460 C   0  0  0  0  0  0  0  0  0  0  0  0
   -5.0610   19.1290  -13.4630 H   0  0  0  0  0  0  0  0  0  0  0  0
   -2.0060   15.5100  -14.8140 H   0  0  0  0  0  0  0  0  0  0  0  0
   -0.5540   16.2410  -14.0260 H   0  0  0  0  0  0  0  0  0  0  0  0
   -1.2450   16.9930  -15.5170 H   0  0  0  0  0  0  0  0  0  0  0  0
   -0.4490   16.3290  -10.3470 H   0  0  0  0  0  0  0  0  0  0  0  0
    3.5610   14.1430  -10.6870 H   0  0  0  0  0  0  0  0  0  0  0  0
    2.2360   16.0870  -10.3370 H   0  0  0  0  0  0  0  0  0  0  0  0
    3.9920   12.7580  -14.1140 H   0  0  0  0  0  0  0  0  0  0  0  0
    4.8880   11.5890  -13.1510 H   0  0  0  0  0  0  0  0  0  0  0  0
    4.0490    9.9750  -14.4970 H   0  0  0  0  0  0  0  0  0  0  0  0
    2.8270   11.0860  -15.1650 H   0  0  0  0  0  0  0  0  0  0  0  0
    1.4250    9.6830  -11.7300 H   0  0  0  0  0  0  0  0  0  0  0  0
    2.9690    8.8480  -12.0780 H   0  0  0  0  0  0  0  0  0  0  0  0
    4.2280   10.6380  -11.3900 H   0  0  0  0  0  0  0  0  0  0  0  0
    2.8240   11.0340  -10.4190 H   0  0  0  0  0  0  0  0  0  0  0  0
  2  1  1  0  0  0  0
  3  2  2  0  0  0  0
  3  8  1  0  0  0  0
  4  3  1  0  0  0  0
  5  4  1  0  0  0  0
  5  6  2  0  0  0  0
  6  2  1  0  0  0  0
  7 28  1  0  0  0  0
  7  4  1  0  0  0  0
  8  9  2  0  0  0  0
 10  8  1  0  0  0  0
 10 30  1  0  0  0  0
 11 10  1  0  0  0  0
 11 19  2  0  0  0  0
 12 11  1  0  0  0  0
 13 12  2  0  0  0  0
 14 15  1  0  0  0  0
 14 13  1  0  0  0  0
 15 16  2  0  0  0  0
 16 12  1  0  0  0  0
 16 17  1  0  0  0  0
 17 18  2  0  0  0  0
 18 19  1  0  0  0  0
 18 31  1  0  0  0  0
 19 32  1  0  0  0  0
 20 17  1  0  0  0  0
 20 25  1  0  0  0  0
 21 34  1  0  0  0  0
 21 20  1  0  0  0  0
 22 23  1  0  0  0  0
 22 21  1  0  0  0  0
 23 24  1  0  0  0  0
 24 38  1  0  0  0  0
 24 37  1  0  0  0  0
 24 25  1  0  0  0  0
 25 39  1  0  0  0  0
 25 40  1  0  0  0  0
 26  6  1  0  0  0  0
 27  7  1  0  0  0  0
 29  7  1  0  0  0  0
 33 21  1  0  0  0  0
 35 22  1  0  0  0  0
 36 22  1  0  0  0  0
M  END
>  <Pose>
1

>  <Score>
-7.50

$$$$
