
 OpenBabel03232203513D

 40 43  0  0  1  0  0  0  0  0999 V2000
   -0.7610    5.8860  -13.7190 I   0  0  0  0  0  0  0  0  0  0  0  0
    0.3040    7.6620  -13.5010 C   0  0  0  0  0  0  0  0  0  0  0  0
    1.6630    7.7300  -13.2630 C   0  0  0  0  0  0  0  0  0  0  0  0
    2.3340    8.9150  -13.1260 C   0  0  0  0  0  0  0  0  0  0  0  0
    1.6850   10.1090  -13.2180 C   0  0  0  0  0  0  0  0  0  0  0  0
    0.3120   10.0600  -13.4580 C   0  0  0  0  0  0  0  0  0  0  0  0
   -0.3540    8.8890  -13.5940 C   0  0  0  0  0  0  0  0  0  0  0  0
    2.3600   11.3720  -13.0960 C   0  0  1  0  0  0  0  0  0  0  0  0
    2.9580   11.7610  -14.1910 O   0  0  0  0  0  0  0  0  0  0  0  0
    2.5170   12.3080  -12.0150 C   0  0  0  0  0  0  0  0  0  0  0  0
    1.8240   13.5410  -11.9860 N   0  0  0  0  0  0  0  0  0  0  0  0
    0.6420   13.7530  -12.4750 C   0  0  1  0  0  0  0  0  0  0  0  0
   -0.6850   12.8980  -13.3390 S   0  0  0  0  0  0  0  0  0  0  0  0
   -1.7290   14.3350  -13.4110 C   0  0  0  0  0  0  0  0  0  0  0  0
   -1.1080   15.3390  -12.8310 C   0  0  0  0  0  0  0  0  0  0  0  0
    0.1790   15.0600  -12.3100 N   0  0  0  0  0  0  0  0  0  0  0  0
    1.2540   15.7900  -11.5900 C   0  0  0  0  0  0  0  0  0  0  0  0
    2.3340   14.7740  -11.4520 C   0  0  0  0  0  0  0  0  0  0  0  0
   -1.8070   16.6570  -12.7840 C   0  0  0  0  0  0  0  0  0  0  0  0
   -2.5220   17.1450  -13.8460 C   0  0  0  0  0  0  0  0  0  0  0  0
   -3.1880   18.3850  -13.7940 C   0  0  0  0  0  0  0  0  0  0  0  0
   -3.1340   19.1510  -12.6530 C   0  0  0  0  0  0  0  0  0  0  0  0
   -2.4190   18.6680  -11.5860 C   0  0  0  0  0  0  0  0  0  0  0  0
   -1.7660   17.4430  -11.6460 C   0  0  0  0  0  0  0  0  0  0  0  0
    2.1910    6.7720  -13.1880 H   0  0  0  0  0  0  0  0  0  0  0  0
    3.3750    8.8570  -12.9340 H   0  0  0  0  0  0  0  0  0  0  0  0
   -0.2180   10.9860  -13.5340 H   0  0  0  0  0  0  0  0  0  0  0  0
   -1.4390    8.8360  -13.7840 H   0  0  0  0  0  0  0  0  0  0  0  0
    2.3190   11.8110  -10.9950 H   0  0  0  0  0  0  0  0  0  0  0  0
    3.6400   12.5030  -11.9230 H   0  0  0  0  0  0  0  0  0  0  0  0
   -2.7060   14.2690  -13.8860 H   0  0  0  0  0  0  0  0  0  0  0  0
    0.9340   16.1130  -10.5900 H   0  0  0  0  0  0  0  0  0  0  0  0
    1.6660   16.6170  -12.2070 H   0  0  0  0  0  0  0  0  0  0  0  0
    2.6130   14.6790  -10.3810 H   0  0  0  0  0  0  0  0  0  0  0  0
    3.2660   15.0650  -12.0220 H   0  0  0  0  0  0  0  0  0  0  0  0
   -2.5770   16.5670  -14.7470 H   0  0  0  0  0  0  0  0  0  0  0  0
   -3.7250   18.7080  -14.6470 H   0  0  0  0  0  0  0  0  0  0  0  0
   -3.6220   20.1070  -12.5510 H   0  0  0  0  0  0  0  0  0  0  0  0
   -2.3690   19.2570  -10.6870 H   0  0  0  0  0  0  0  0  0  0  0  0
   -1.2190   17.1220  -10.7640 H   0  0  0  0  0  0  0  0  0  0  0  0
  1  2  1  0  0  0  0
  2  3  1  0  0  0  0
  3 25  1  0  0  0  0
  3  4  2  0  0  0  0
  4 26  1  0  0  0  0
  5  4  1  0  0  0  0
  5  8  1  0  0  0  0
  6  5  2  0  0  0  0
  7  2  2  0  0  0  0
  7  6  1  0  0  0  0
  8  9  1  6  0  0  0
  8 10  1  0  0  0  0
 10 11  1  0  0  0  0
 10 30  1  0  0  0  0
 10 29  1  0  0  0  0
 11 18  1  0  0  0  0
 12 13  1  1  0  0  0
 12 16  1  0  0  0  0
 12 11  1  0  0  0  0
 14 13  1  0  0  0  0
 14 15  2  0  0  0  0
 15 19  1  0  0  0  0
 15 16  1  0  0  0  0
 16 17  1  0  0  0  0
 17 18  1  0  0  0  0
 17 32  1  0  0  0  0
 18 34  1  0  0  0  0
 19 24  1  0  0  0  0
 20 21  1  0  0  0  0
 20 19  2  0  0  0  0
 21 22  2  0  0  0  0
 22 38  1  0  0  0  0
 22 23  1  0  0  0  0
 23 39  1  0  0  0  0
 24 23  2  0  0  0  0
 24 40  1  0  0  0  0
 27  6  1  0  0  0  0
 28  7  1  0  0  0  0
 31 14  1  0  0  0  0
 33 17  1  0  0  0  0
 35 18  1  0  0  0  0
 36 20  1  0  0  0  0
 37 21  1  0  0  0  0
M  END
>  <Pose>
1

>  <Score>
-5.68

$$$$
