
 OpenBabel03232203513D

 40 43  0  0  0  0  0  0  0  0999 V2000
   -4.0760   17.6290  -14.3010 I   0  0  0  0  0  0  0  0  0  0  0  0
   -2.7890   18.0450  -12.7160 C   0  0  0  0  0  0  0  0  0  0  0  0
   -2.9880   19.0720  -11.7940 C   0  0  0  0  0  0  0  0  0  0  0  0
   -1.9710   19.0660  -10.9300 N   0  0  0  0  0  0  0  0  0  0  0  0
   -1.1690   18.0970  -11.2760 N   0  0  0  0  0  0  0  0  0  0  0  0
   -1.6330   17.4260  -12.3830 C   0  0  0  0  0  0  0  0  0  0  0  0
   -0.9240   16.2710  -12.9630 C   0  0  0  0  0  0  0  0  0  0  0  0
   -0.9140   16.2210  -14.2420 O   0  0  0  0  0  0  0  0  0  0  0  0
   -0.2920   15.2780  -12.2280 N   0  0  0  0  0  0  0  0  0  0  0  0
    0.1890   14.0360  -12.7050 C   0  0  0  0  0  0  0  0  0  0  0  0
    1.4810   13.6610  -12.3240 C   0  0  0  0  0  0  0  0  0  0  0  0
    2.3990   14.2780  -11.5590 N   0  0  0  0  0  0  0  0  0  0  0  0
    3.4570   13.5250  -11.4970 O   0  0  0  0  0  0  0  0  0  0  0  0
    3.2790   12.4400  -12.1860 N   0  0  0  0  0  0  0  0  0  0  0  0
    2.0470   12.4800  -12.7280 C   0  0  0  0  0  0  0  0  0  0  0  0
    1.3340   11.6200  -13.5360 C   0  0  0  0  0  0  0  0  0  0  0  0
    0.0670   11.9970  -13.9030 C   0  0  0  0  0  0  0  0  0  0  0  0
   -0.5190   13.2030  -13.4960 C   0  0  0  0  0  0  0  0  0  0  0  0
    1.9360   10.4030  -13.9430 N   0  0  0  0  0  0  0  0  0  0  0  0
    3.2470   10.3980  -14.5600 C   0  0  0  0  0  0  0  0  0  0  0  0
    3.6620    8.9890  -14.8060 C   0  0  0  0  0  0  0  0  0  0  0  0
    3.5090    8.1530  -13.7180 O   0  0  0  0  0  0  0  0  0  0  0  0
    2.2520    8.0920  -13.2070 C   0  0  0  0  0  0  0  0  0  0  0  0
    1.2970    9.1130  -13.7740 C   0  0  0  0  0  0  0  0  0  0  0  0
   -1.8190   20.0010   -9.8060 C   0  0  0  0  0  0  0  0  0  0  0  0
   -3.8180   19.7730  -11.7570 H   0  0  0  0  0  0  0  0  0  0  0  0
   -0.1540   15.5020  -11.1920 H   0  0  0  0  0  0  0  0  0  0  0  0
   -0.4880   11.3220  -14.5360 H   0  0  0  0  0  0  0  0  0  0  0  0
   -1.5260   13.3910  -13.8500 H   0  0  0  0  0  0  0  0  0  0  0  0
    3.9310   10.9080  -13.8510 H   0  0  0  0  0  0  0  0  0  0  0  0
    3.2250   10.9200  -15.5500 H   0  0  0  0  0  0  0  0  0  0  0  0
    4.7080    8.9960  -15.1730 H   0  0  0  0  0  0  0  0  0  0  0  0
    3.0100    8.5830  -15.6260 H   0  0  0  0  0  0  0  0  0  0  0  0
    1.8270    7.0900  -13.4220 H   0  0  0  0  0  0  0  0  0  0  0  0
    2.2700    8.1810  -12.0870 H   0  0  0  0  0  0  0  0  0  0  0  0
    0.4850    9.2500  -13.0310 H   0  0  0  0  0  0  0  0  0  0  0  0
    0.8290    8.7740  -14.7160 H   0  0  0  0  0  0  0  0  0  0  0  0
   -2.8250   20.2980   -9.4900 H   0  0  0  0  0  0  0  0  0  0  0  0
   -1.3530   19.4180   -8.9790 H   0  0  0  0  0  0  0  0  0  0  0  0
   -1.2060   20.8560  -10.1320 H   0  0  0  0  0  0  0  0  0  0  0  0
  1  2  1  0  0  0  0
  2  6  1  0  0  0  0
  2  3  2  0  0  0  0
  3 26  1  0  0  0  0
  3  4  1  0  0  0  0
  4 25  1  0  0  0  0
  5  4  1  0  0  0  0
  6  5  2  0  0  0  0
  7  6  1  0  0  0  0
  7  9  1  0  0  0  0
  8  7  2  0  0  0  0
  9 27  1  0  0  0  0
 10 11  1  0  0  0  0
 10  9  1  0  0  0  0
 11 12  2  0  0  0  0
 12 13  1  0  0  0  0
 14 13  1  0  0  0  0
 15 11  1  0  0  0  0
 15 14  2  0  0  0  0
 16 15  1  0  0  0  0
 17 16  2  0  0  0  0
 17 18  1  0  0  0  0
 18 10  2  0  0  0  0
 19 24  1  0  0  0  0
 19 16  1  0  0  0  0
 20 19  1  0  0  0  0
 20 30  1  0  0  0  0
 21 20  1  0  0  0  0
 21 22  1  0  0  0  0
 22 23  1  0  0  0  0
 23 35  1  0  0  0  0
 24 23  1  0  0  0  0
 24 36  1  0  0  0  0
 25 38  1  0  0  0  0
 25 39  1  0  0  0  0
 28 17  1  0  0  0  0
 29 18  1  0  0  0  0
 31 20  1  0  0  0  0
 32 21  1  0  0  0  0
 33 21  1  0  0  0  0
 34 23  1  0  0  0  0
 37 24  1  0  0  0  0
 40 25  1  0  0  0  0
M  END
>  <Pose>
1

>  <Score>
-8.02

$$$$
