
 OpenBabel03232203513D

 48 52  0  0  1  0  0  0  0  0999 V2000
   -2.5890   16.4750  -15.4110 B   0  0  0  0  0  0  0  0  0  0  0  0
   -2.4890   17.3590  -13.7260 C   0  0  0  0  0  0  0  0  0  0  0  0
   -3.4000   18.4190  -13.4920 C   0  0  0  0  0  0  0  0  0  0  0  0
   -3.3570   19.1310  -12.3250 C   0  0  0  0  0  0  0  0  0  0  0  0
   -2.4090   18.7960  -11.3830 C   0  0  0  0  0  0  0  0  0  0  0  0
   -1.5290   17.7640  -11.6200 C   0  0  0  0  0  0  0  0  0  0  0  0
   -1.5470   17.0050  -12.8170 C   0  0  0  0  0  0  0  0  0  0  0  0
   -0.6130   15.9070  -12.9200 C   0  0  0  0  0  0  0  0  0  0  0  0
   -0.7560   14.6340  -12.8120 C   0  0  0  0  0  0  0  0  0  0  0  0
    0.1820   13.5320  -12.9260 C   0  0  1  0  0  0  0  0  0  0  0  0
    1.4730   13.5710  -12.7000 N   0  0  0  0  0  0  0  0  0  0  0  0
    2.2090   12.4200  -12.7510 C   0  0  0  0  0  0  0  0  0  0  0  0
    1.6840   11.1960  -13.0300 C   0  0  0  0  0  0  0  0  0  0  0  0
    0.3300   11.1160  -13.2760 C   0  0  0  0  0  0  0  0  0  0  0  0
   -0.5330   10.0870  -13.5840 N   0  0  0  0  0  0  0  0  0  0  0  0
   -1.7580   10.5680  -13.7190 C   0  0  0  0  0  0  0  0  0  0  0  0
   -1.6610   11.9070  -13.4950 N   0  0  0  0  0  0  0  0  0  0  0  0
   -0.4010   12.2670  -13.2230 C   0  0  0  0  0  0  0  0  0  0  0  0
   -3.0000    9.8650  -14.0610 C   0  0  0  0  0  0  0  0  0  0  0  0
   -4.2390   10.2180  -13.6410 C   0  0  0  0  0  0  0  0  0  0  0  0
   -5.3580    9.4490  -14.0110 C   0  0  0  0  0  0  0  0  0  0  0  0
   -5.2020    8.3330  -14.8020 C   0  0  0  0  0  0  0  0  0  0  0  0
   -3.9440    7.9510  -15.2460 C   0  0  0  0  0  0  0  0  0  0  0  0
   -2.8940    8.7200  -14.8660 C   0  0  0  0  0  0  0  0  0  0  0  0
   -0.0370    8.7480  -13.7290 C   0  0  0  0  0  0  0  0  0  0  0  0
    2.1750   14.7990  -12.4700 C   0  0  0  0  0  0  0  0  0  0  0  0
   -2.5790   19.6700  -10.2970 O   0  0  0  0  0  0  0  0  0  0  0  0
   -3.9070   20.1440  -10.3810 C   0  0  0  0  0  0  0  0  0  0  0  0
   -4.0860   20.2010  -11.7960 O   0  0  0  0  0  0  0  0  0  0  0  0
   -4.1180   18.6340  -14.2650 H   0  0  0  0  0  0  0  0  0  0  0  0
   -0.7880   17.5130  -10.8640 H   0  0  0  0  0  0  0  0  0  0  0  0
    0.4320   16.2320  -13.0900 H   0  0  0  0  0  0  0  0  0  0  0  0
   -1.7980   14.3310  -12.5770 H   0  0  0  0  0  0  0  0  0  0  0  0
    3.2760   12.5010  -12.5520 H   0  0  0  0  0  0  0  0  0  0  0  0
    2.2560   10.2800  -13.0720 H   0  0  0  0  0  0  0  0  0  0  0  0
   -4.4080   11.0960  -13.0300 H   0  0  0  0  0  0  0  0  0  0  0  0
   -6.3310    9.7510  -13.6620 H   0  0  0  0  0  0  0  0  0  0  0  0
   -6.0630    7.7360  -15.0900 H   0  0  0  0  0  0  0  0  0  0  0  0
   -3.7960    7.0810  -15.8670 H   0  0  0  0  0  0  0  0  0  0  0  0
   -1.8990    8.4250  -15.2120 H   0  0  0  0  0  0  0  0  0  0  0  0
   -0.3130    8.0490  -12.9320 H   0  0  0  0  0  0  0  0  0  0  0  0
    1.1100    8.7530  -13.7430 H   0  0  0  0  0  0  0  0  0  0  0  0
   -0.2600    8.2770  -14.7130 H   0  0  0  0  0  0  0  0  0  0  0  0
    2.3140   15.0770  -11.4180 H   0  0  0  0  0  0  0  0  0  0  0  0
    3.2670   14.5950  -12.8010 H   0  0  0  0  0  0  0  0  0  0  0  0
    1.9040   15.6130  -13.1700 H   0  0  0  0  0  0  0  0  0  0  0  0
   -4.5820   19.3870   -9.9310 H   0  0  0  0  0  0  0  0  0  0  0  0
   -4.0200   21.1520   -9.9270 H   0  0  0  0  0  0  0  0  0  0  0  0
  1  2  1  0  0  0  0
  2  3  2  0  0  0  0
  2  7  1  0  0  0  0
  3  4  1  0  0  0  0
  4 29  1  0  0  0  0
  4  5  2  0  0  0  0
  5 27  1  0  0  0  0
  6  5  1  0  0  0  0
  6 31  1  0  0  0  0
  7  6  2  0  0  0  0
  8  7  1  0  0  0  0
  8  9  2  0  0  0  0
  9 33  1  0  0  0  0
 10  9  1  1  0  0  0
 10 11  1  0  0  0  0
 11 26  1  0  0  0  0
 12 11  1  0  0  0  0
 12 34  1  0  0  0  0
 13 12  2  0  0  0  0
 14 18  2  0  0  0  0
 14 13  1  0  0  0  0
 15 14  1  0  0  0  0
 16 15  1  0  0  0  0
 16 17  2  0  0  0  0
 17 18  1  0  0  0  0
 18 10  1  0  0  0  0
 19 16  1  0  0  0  0
 19 20  1  0  0  0  0
 20 36  1  0  0  0  0
 21 37  1  0  0  0  0
 21 20  2  0  0  0  0
 22 21  1  0  0  0  0
 23 24  1  0  0  0  0
 23 22  2  0  0  0  0
 24 19  2  0  0  0  0
 25 15  1  0  0  0  0
 25 41  1  0  0  0  0
 26 44  1  0  0  0  0
 28 27  1  0  0  0  0
 28 47  1  0  0  0  0
 28 48  1  0  0  0  0
 29 28  1  0  0  0  0
 30  3  1  0  0  0  0
 32  8  1  0  0  0  0
 35 13  1  0  0  0  0
 38 22  1  0  0  0  0
 39 23  1  0  0  0  0
 40 24  1  0  0  0  0
 42 25  1  0  0  0  0
 43 25  1  0  0  0  0
 45 26  1  0  0  0  0
 46 26  1  0  0  0  0
M  END
>  <Pose>
1

>  <Score>
-5.97

$$$$
