
 OpenBabel03232203513D

 35 39  0  0  0  0  0  0  0  0999 V2000
   -3.3380   13.0670  -13.1180 I   0  0  0  0  0  0  0  0  0  0  0  0
   -2.4870   11.2180  -13.7070 C   0  0  0  0  0  0  0  0  0  0  0  0
   -1.0930   11.1060  -13.5740 C   0  0  0  0  0  0  0  0  0  0  0  0
   -0.5230    9.9290  -13.9450 C   0  0  0  0  0  0  0  0  0  0  0  0
   -1.3380    8.8950  -14.4370 C   0  0  0  0  0  0  0  0  0  0  0  0
   -2.6980    9.0060  -14.5660 C   0  0  0  0  0  0  0  0  0  0  0  0
   -3.2760   10.1990  -14.1890 C   0  0  0  0  0  0  0  0  0  0  0  0
   -4.6500   10.3460  -14.3060 O   0  0  0  0  0  0  0  0  0  0  0  0
   -3.8690    7.4050  -15.3150 I   0  0  0  0  0  0  0  0  0  0  0  0
    0.9260    9.7150  -13.8440 C   0  0  0  0  0  0  0  0  0  0  0  0
    1.4780    9.2740  -15.0700 O   0  0  0  0  0  0  0  0  0  0  0  0
    2.0650    8.0400  -14.9650 C   0  0  0  0  0  0  0  0  0  0  0  0
    2.6450    7.3620  -15.8550 O   0  0  0  0  0  0  0  0  0  0  0  0
    1.9060    7.6060  -13.5840 C   0  0  0  0  0  0  0  0  0  0  0  0
    1.2380    8.5820  -12.9180 C   0  0  0  0  0  0  0  0  0  0  0  0
    0.9640    8.3900  -11.5590 C   0  0  0  0  0  0  0  0  0  0  0  0
    1.3680    7.2360  -10.9270 C   0  0  0  0  0  0  0  0  0  0  0  0
    2.0460    6.2430  -11.6020 C   0  0  0  0  0  0  0  0  0  0  0  0
    2.3210    6.4210  -12.9360 C   0  0  0  0  0  0  0  0  0  0  0  0
    1.6520   10.8810  -13.3140 C   0  0  0  0  0  0  0  0  0  0  0  0
    1.0260   12.0270  -12.9610 C   0  0  0  0  0  0  0  0  0  0  0  0
    1.7760   13.0890  -12.4680 C   0  0  0  0  0  0  0  0  0  0  0  0
    3.1320   12.9850  -12.3370 C   0  0  0  0  0  0  0  0  0  0  0  0
    3.8020   11.8350  -12.6850 C   0  0  0  0  0  0  0  0  0  0  0  0
    3.0430   10.8040  -13.1680 C   0  0  0  0  0  0  0  0  0  0  0  0
    5.9010   11.6790  -12.4800 I   0  0  0  0  0  0  0  0  0  0  0  0
    3.8570   14.0610  -11.8410 O   0  0  0  0  0  0  0  0  0  0  0  0
    0.7830   14.8860  -11.9160 I   0  0  0  0  0  0  0  0  0  0  0  0
   -0.3640   12.1890  -13.0760 O   0  0  0  0  0  0  0  0  0  0  0  0
   -0.8560    7.9510  -14.7320 H   0  0  0  0  0  0  0  0  0  0  0  0
    0.4350    9.1870  -11.0700 H   0  0  0  0  0  0  0  0  0  0  0  0
    1.1390    7.1290   -9.8850 H   0  0  0  0  0  0  0  0  0  0  0  0
    2.3750    5.3170  -11.1140 H   0  0  0  0  0  0  0  0  0  0  0  0
    2.8520    5.6710  -13.5170 H   0  0  0  0  0  0  0  0  0  0  0  0
    3.5430    9.8890  -13.4490 H   0  0  0  0  0  0  0  0  0  0  0  0
  2  3  1  0  0  0  0
  2  1  1  0  0  0  0
  3 29  1  0  0  0  0
  4 10  1  0  0  0  0
  4  3  2  0  0  0  0
  5  4  1  0  0  0  0
  6  5  2  0  0  0  0
  6  7  1  0  0  0  0
  7  2  2  0  0  0  0
  8  7  1  0  0  0  0
  9  6  1  0  0  0  0
 10 20  1  0  0  0  0
 10 15  1  0  0  0  0
 11 12  1  0  0  0  0
 11 10  1  0  0  0  0
 12 14  1  0  0  0  0
 13 12  2  0  0  0  0
 14 19  2  0  0  0  0
 14 15  1  0  0  0  0
 15 16  2  0  0  0  0
 16 31  1  0  0  0  0
 16 17  1  0  0  0  0
 17 32  1  0  0  0  0
 18 33  1  0  0  0  0
 18 17  2  0  0  0  0
 19 18  1  0  0  0  0
 20 25  2  0  0  0  0
 20 21  1  0  0  0  0
 21 22  2  0  0  0  0
 22 23  1  0  0  0  0
 22 28  1  0  0  0  0
 23 27  1  0  0  0  0
 24 26  1  0  0  0  0
 24 23  2  0  0  0  0
 25 24  1  0  0  0  0
 29 21  1  0  0  0  0
 30  5  1  0  0  0  0
 34 19  1  0  0  0  0
 35 25  1  0  0  0  0
M  END
>  <Pose>
1

>  <Score>
-3.89

$$$$
