
 OpenBabel03232203513D

 35 38  0  0  1  0  0  0  0  0999 V2000
    0.0480   15.2390  -12.9830 I   0  0  0  0  0  0  0  0  0  0  0  0
    1.0950   13.4230  -12.7680 C   0  0  0  0  0  0  0  0  0  0  0  0
    0.5090   12.1960  -13.0070 C   0  0  1  0  0  0  0  0  0  0  0  0
    1.1900   11.0050  -12.8670 C   0  0  0  0  0  0  0  0  0  0  0  0
    2.5130   11.0690  -12.4710 C   0  0  0  0  0  0  0  0  0  0  0  0
    3.1090   12.2970  -12.2280 C   0  0  0  0  0  0  0  0  0  0  0  0
    2.4150   13.4920  -12.3710 C   0  0  0  0  0  0  0  0  0  0  0  0
    3.0630   14.6980  -12.1150 O   0  0  0  0  0  0  0  0  0  0  0  0
    0.6220    9.7690  -13.1020 C   0  0  0  0  0  0  0  0  0  0  0  0
   -0.7120    9.7820  -13.4980 C   0  0  0  0  0  0  0  0  0  0  0  0
   -1.3980   11.0640  -13.6340 C   0  0  0  0  0  0  0  0  0  0  0  0
   -2.7180   11.0110  -14.0300 C   0  0  2  0  0  0  0  0  0  0  0  0
   -3.3780    9.8290  -14.2900 C   0  0  0  0  0  0  0  0  0  0  0  0
   -4.5910    9.8010  -14.6520 O   0  0  0  0  0  0  0  0  0  0  0  0
   -2.7290    8.6160  -14.1610 C   0  0  0  0  0  0  0  0  0  0  0  0
   -1.4060    8.6350  -13.7660 C   0  0  0  0  0  0  0  0  0  0  0  0
   -3.7900   12.8050  -14.2550 I   0  0  0  0  0  0  0  0  0  0  0  0
   -0.7450   12.1710  -13.3810 O   0  0  0  0  0  0  0  0  0  0  0  0
    1.3390    8.5070  -12.9560 C   0  0  0  0  0  0  0  0  0  0  0  0
    2.3850    8.2340  -13.8320 C   0  0  0  0  0  0  0  0  0  0  0  0
    3.0880    7.0630  -13.7330 C   0  0  0  0  0  0  0  0  0  0  0  0
    2.7540    6.1490  -12.7570 C   0  0  0  0  0  0  0  0  0  0  0  0
    1.7230    6.3950  -11.8770 C   0  0  0  0  0  0  0  0  0  0  0  0
    1.0310    7.5800  -11.9950 C   0  0  0  0  0  0  0  0  0  0  0  0
    2.7480    9.1950  -14.8690 C   0  0  0  0  0  0  0  0  0  0  0  0
    1.9010    9.8570  -15.5090 O   0  0  0  0  0  0  0  0  0  0  0  0
    4.0800    9.4140  -15.1930 O   0  0  0  0  0  0  0  0  0  0  0  0
    3.0430   10.1340  -12.3620 H   0  0  0  0  0  0  0  0  0  0  0  0
    4.1480   12.2790  -11.9190 H   0  0  0  0  0  0  0  0  0  0  0  0
   -3.2710    7.7040  -14.3710 H   0  0  0  0  0  0  0  0  0  0  0  0
   -0.8850    7.6940  -13.6610 H   0  0  0  0  0  0  0  0  0  0  0  0
    3.9200    6.8170  -14.4100 H   0  0  0  0  0  0  0  0  0  0  0  0
    3.3210    5.2270  -12.6940 H   0  0  0  0  0  0  0  0  0  0  0  0
    1.4860    5.6450  -11.1150 H   0  0  0  0  0  0  0  0  0  0  0  0
    0.2130    7.8060  -11.3200 H   0  0  0  0  0  0  0  0  0  0  0  0
  1  2  1  0  0  0  0
  2  7  2  0  0  0  0
  3 18  1  1  0  0  0
  3  4  1  0  0  0  0
  3  2  1  0  0  0  0
  4  5  1  0  0  0  0
  5 28  1  0  0  0  0
  5  6  2  0  0  0  0
  6 29  1  0  0  0  0
  7  6  1  0  0  0  0
  7  8  1  0  0  0  0
  9 19  1  0  0  0  0
  9  4  2  0  0  0  0
 10  9  1  0  0  0  0
 11 10  2  0  0  0  0
 11 18  1  0  0  0  0
 12 17  1  6  0  0  0
 12 11  1  0  0  0  0
 13 15  1  0  0  0  0
 13 12  1  0  0  0  0
 14 13  2  0  0  0  0
 15 16  2  0  0  0  0
 16 31  1  0  0  0  0
 16 10  1  0  0  0  0
 19 24  1  0  0  0  0
 20 21  1  0  0  0  0
 20 19  2  0  0  0  0
 21 22  2  0  0  0  0
 22 33  1  0  0  0  0
 22 23  1  0  0  0  0
 23 34  1  0  0  0  0
 24 23  2  0  0  0  0
 24 35  1  0  0  0  0
 25 20  1  0  0  0  0
 26 25  2  0  0  0  0
 27 25  1  0  0  0  0
 30 15  1  0  0  0  0
 32 21  1  0  0  0  0
M  END
>  <Pose>
1

>  <Score>
-4.40

$$$$
