
 OpenBabel03232203513D

 34 37  0  0  1  0  0  0  0  0999 V2000
   -2.0700   17.8640  -12.0220 P   0  0  1  0  0  0  0  0  0  0  0  0
   -3.3380   17.2290  -11.4950 O   0  0  0  0  0  0  0  0  0  0  0  0
   -0.6890   17.0620  -11.4210 O   0  0  0  0  0  0  0  0  0  0  0  0
   -0.1250   16.3910  -12.5040 C   0  0  2  0  0  0  0  0  0  0  0  0
   -1.3040   15.8250  -13.3050 C   0  0  2  0  0  0  0  0  0  0  0  0
   -0.7740   14.6540  -13.7880 O   0  0  0  0  0  0  0  0  0  0  0  0
   -0.3190   14.0530  -12.6140 C   0  0  2  0  0  0  0  0  0  0  0  0
    0.6140   15.1390  -12.0810 C   0  0  2  0  0  0  0  0  0  0  0  0
    0.8070   15.0510  -10.7260 O   0  0  0  0  0  0  0  0  0  0  0  0
    0.3850   12.8210  -12.8720 N   0  0  0  0  0  0  0  0  0  0  0  0
   -0.2240   11.6850  -13.2300 C   0  0  0  0  0  0  0  0  0  0  0  0
   -1.5360   11.3850  -13.4360 N   0  0  0  0  0  0  0  0  0  0  0  0
   -1.9600   10.1760  -13.7960 C   0  0  0  0  0  0  0  0  0  0  0  0
   -1.0480    9.2010  -13.9650 N   0  0  0  0  0  0  0  0  0  0  0  0
    0.2680    9.4300  -13.7780 C   0  0  0  0  0  0  0  0  0  0  0  0
    0.7090   10.6830  -13.4040 C   0  0  0  0  0  0  0  0  0  0  0  0
    1.9010   11.2400  -13.1430 N   0  0  0  0  0  0  0  0  0  0  0  0
    1.6990   12.5390  -12.8190 C   0  0  0  0  0  0  0  0  0  0  0  0
    3.0570   13.8080  -12.3530 B   0  0  0  0  0  0  0  0  0  0  0  0
    1.2140    8.4250  -13.9520 O   0  0  0  0  0  0  0  0  0  0  0  0
   -3.3450    9.9110  -13.9990 N   0  0  0  0  0  0  0  0  0  0  0  0
   -1.6860   16.8230  -14.3330 C   0  0  0  0  0  0  0  0  0  0  0  0
   -2.0460   18.0080  -13.6830 O   0  0  0  0  0  0  0  0  0  0  0  0
   -2.0180   19.4370  -11.3500 O   0  0  0  0  0  0  0  0  0  0  0  0
    0.4930   17.0610  -13.1240 H   0  0  0  0  0  0  0  0  0  0  0  0
   -2.1450   15.5730  -12.6350 H   0  0  0  0  0  0  0  0  0  0  0  0
   -1.1240   13.9460  -11.8530 H   0  0  0  0  0  0  0  0  0  0  0  0
    1.5840   15.0570  -12.6510 H   0  0  0  0  0  0  0  0  0  0  0  0
   -0.0480   14.7610  -10.2750 H   0  0  0  0  0  0  0  0  0  0  0  0
    1.2430    7.9920  -14.8870 H   0  0  0  0  0  0  0  0  0  0  0  0
   -3.7800   10.3320  -14.8480 H   0  0  0  0  0  0  0  0  0  0  0  0
   -3.9090    9.3240  -13.3350 H   0  0  0  0  0  0  0  0  0  0  0  0
   -0.7820   17.0800  -14.9430 H   0  0  0  0  0  0  0  0  0  0  0  0
   -2.4940   16.4380  -14.9820 H   0  0  0  0  0  0  0  0  0  0  0  0
  1  2  2  1  0  0  0
  1  3  1  0  0  0  0
  1 24  1  0  0  0  0
  4 25  1  6  0  0  0
  4  8  1  0  0  0  0
  4  3  1  0  0  0  0
  5 26  1  1  0  0  0
  5  4  1  0  0  0  0
  6  5  1  0  0  0  0
  6  7  1  0  0  0  0
  7  8  1  0  0  0  0
  7 27  1  1  0  0  0
  8 28  1  6  0  0  0
  8  9  1  0  0  0  0
  9 29  1  0  0  0  0
 10 18  1  0  0  0  0
 10  7  1  0  0  0  0
 11 10  1  0  0  0  0
 12 11  1  0  0  0  0
 13 12  2  0  0  0  0
 14 13  1  0  0  0  0
 14 15  2  0  0  0  0
 15 16  1  0  0  0  0
 16 11  2  0  0  0  0
 16 17  1  0  0  0  0
 17 18  2  0  0  0  0
 18 19  1  0  0  0  0
 20 15  1  0  0  0  0
 21 13  1  0  0  0  0
 21 32  1  0  0  0  0
 22 23  1  0  0  0  0
 22  5  1  0  0  0  0
 23  1  1  0  0  0  0
 30 20  1  0  0  0  0
 31 21  1  0  0  0  0
 33 22  1  0  0  0  0
 34 22  1  0  0  0  0
M  END
>  <Pose>
1

>  <Score>
-5.48

$$$$
