
 OpenBabel03232203513D

 33 36  0  0  1  0  0  0  0  0999 V2000
   -1.6400    6.3650  -14.3780 P   0  0  2  0  0  0  0  0  0  0  0  0
   -0.7570    7.3050  -13.2020 S   0  0  0  0  0  0  0  0  0  0  0  0
   -2.5310    7.4070  -15.3950 O   0  0  0  0  0  0  0  0  0  0  0  0
   -3.5730    7.8960  -14.6460 C   0  0  2  0  0  0  0  0  0  0  0  0
   -4.4690    6.7230  -14.2270 C   0  0  2  0  0  0  0  0  0  0  0  0
   -5.6030    7.4180  -13.8110 O   0  0  0  0  0  0  0  0  0  0  0  0
   -5.8740    8.3220  -14.8100 C   0  0  2  0  0  0  0  0  0  0  0  0
   -4.5680    8.6990  -15.4630 C   0  0  2  0  0  0  0  0  0  0  0  0
   -4.5750    8.1360  -16.7470 O   0  0  0  0  0  0  0  0  0  0  0  0
   -6.4820    9.5440  -14.3170 N   0  0  0  0  0  0  0  0  0  0  0  0
   -7.4250   10.2490  -14.9910 C   0  0  0  0  0  0  0  0  0  0  0  0
   -8.0210   10.0530  -16.1950 N   0  0  0  0  0  0  0  0  0  0  0  0
   -8.9490   10.9110  -16.6610 C   0  0  0  0  0  0  0  0  0  0  0  0
   -9.2990   11.9910  -15.9200 N   0  0  0  0  0  0  0  0  0  0  0  0
   -8.7310   12.2200  -14.7230 C   0  0  0  0  0  0  0  0  0  0  0  0
   -7.7780   11.3470  -14.2330 C   0  0  0  0  0  0  0  0  0  0  0  0
   -7.0490   11.3050  -13.1030 N   0  0  0  0  0  0  0  0  0  0  0  0
   -6.2670   10.2050  -13.1680 C   0  0  0  0  0  0  0  0  0  0  0  0
   -5.0050    9.6020  -11.8530 B   0  0  0  0  0  0  0  0  0  0  0  0
   -9.1120   13.3650  -13.9530 N   0  0  0  0  0  0  0  0  0  0  0  0
   -3.8380    5.9220  -13.1310 C   0  0  0  0  0  0  0  0  0  0  0  0
   -2.7020    5.3120  -13.6340 O   0  0  0  0  0  0  0  0  0  0  0  0
   -0.5340    5.5420  -15.3200 O   0  0  0  0  0  0  0  0  0  0  0  0
   -3.2640    8.4030  -13.7330 H   0  0  0  0  0  0  0  0  0  0  0  0
   -4.6850    6.1420  -15.1330 H   0  0  0  0  0  0  0  0  0  0  0  0
   -6.5980    7.8640  -15.5240 H   0  0  0  0  0  0  0  0  0  0  0  0
   -4.3660    9.7700  -15.4610 H   0  0  0  0  0  0  0  0  0  0  0  0
   -5.1310    8.6270  -17.3790 H   0  0  0  0  0  0  0  0  0  0  0  0
   -9.4030   10.7120  -17.6370 H   0  0  0  0  0  0  0  0  0  0  0  0
   -8.3490   13.9630  -13.5310 H   0  0  0  0  0  0  0  0  0  0  0  0
  -10.1040   13.6280  -13.7940 H   0  0  0  0  0  0  0  0  0  0  0  0
   -4.5360    5.1460  -12.8180 H   0  0  0  0  0  0  0  0  0  0  0  0
   -3.6330    6.6010  -12.2810 H   0  0  0  0  0  0  0  0  0  0  0  0
  1 23  2  6  0  0  0
  1 22  1  0  0  0  0
  1  2  1  0  0  0  0
  3  4  1  0  0  0  0
  3  1  1  0  0  0  0
  4  5  1  0  0  0  0
  4 24  1  1  0  0  0
  5 25  1  6  0  0  0
  5  6  1  0  0  0  0
  5 21  1  0  0  0  0
  7 26  1  6  0  0  0
  7 10  1  0  0  0  0
  7  6  1  0  0  0  0
  8 27  1  1  0  0  0
  8  7  1  0  0  0  0
  8  4  1  0  0  0  0
  9  8  1  0  0  0  0
 10 18  1  0  0  0  0
 11 10  1  0  0  0  0
 11 16  2  0  0  0  0
 12 11  1  0  0  0  0
 13 12  2  0  0  0  0
 13 14  1  0  0  0  0
 14 15  2  0  0  0  0
 15 16  1  0  0  0  0
 15 20  1  0  0  0  0
 16 17  1  0  0  0  0
 18 17  2  0  0  0  0
 18 19  1  0  0  0  0
 20 31  1  0  0  0  0
 20 30  1  0  0  0  0
 21 32  1  0  0  0  0
 21 33  1  0  0  0  0
 22 21  1  0  0  0  0
 28  9  1  0  0  0  0
 29 13  1  0  0  0  0
M  END
>  <Pose>
1

>  <Score>
-5.71

$$$$
