
 OpenBabel03232203513D

 52 55  0  0  1  0  0  0  0  0999 V2000
    1.4730    7.6630  -11.7670 S   0  0  0  0  0  0  0  0  0  0  0  0
    2.4120    8.3590  -13.1250 C   0  0  1  0  0  0  0  0  0  0  0  0
    1.5000    8.9930  -14.0220 N   0  0  0  0  0  0  0  0  0  0  0  0
    0.0870    8.8190  -14.1550 C   0  0  0  0  0  0  0  0  0  0  0  0
   -0.4920    7.8040  -13.5930 C   0  0  0  0  0  0  0  0  0  0  0  0
    0.2510    6.7420  -12.7700 C   0  0  0  0  0  0  0  0  0  0  0  0
   -1.9000    7.5020  -13.6340 C   0  0  0  0  0  0  0  0  0  0  0  0
   -2.5590    7.1630  -14.7670 O   0  0  0  0  0  0  0  0  0  0  0  0
   -3.9350    6.9090  -14.8120 C   0  0  0  0  0  0  0  0  0  0  0  0
   -4.3480    5.9120  -14.1920 O   0  0  0  0  0  0  0  0  0  0  0  0
   -4.7870    7.8400  -15.5910 C   0  0  0  0  0  0  0  0  0  0  0  0
   -0.6220    9.8540  -14.9620 C   0  0  0  0  0  0  0  0  0  0  0  0
   -0.4440   10.1070  -16.1340 O   0  0  0  0  0  0  0  0  0  0  0  0
   -1.6060   10.6400  -14.3320 O   0  0  0  0  0  0  0  0  0  0  0  0
    2.6490    9.6870  -14.4770 C   0  0  0  0  0  0  0  0  0  0  0  0
    3.2140   10.1540  -15.4730 O   0  0  0  0  0  0  0  0  0  0  0  0
    3.0620    9.6740  -13.0140 C   0  0  1  0  0  0  0  0  0  0  0  0
    2.3600   10.7310  -12.3610 N   0  0  0  0  0  0  0  0  0  0  0  0
    2.9390   12.0230  -12.3140 C   0  0  0  0  0  0  0  0  0  0  0  0
    4.1960   12.1140  -12.3050 O   0  0  0  0  0  0  0  0  0  0  0  0
    2.1240   13.2410  -12.2760 C   0  0  0  0  0  0  0  0  0  0  0  0
    0.9200   13.4410  -12.7130 O   0  0  0  0  0  0  0  0  0  0  0  0
    0.5140   14.6520  -12.5080 C   0  0  0  0  0  0  0  0  0  0  0  0
    1.5540   15.3370  -11.8690 C   0  0  0  0  0  0  0  0  0  0  0  0
    2.5670   14.4250  -11.7310 C   0  0  0  0  0  0  0  0  0  0  0  0
   -0.8160   15.2670  -12.8680 C   0  0  0  0  0  0  0  0  0  0  0  0
   -0.7270   16.6680  -12.8990 O   0  0  0  0  0  0  0  0  0  0  0  0
   -1.6060   17.5430  -12.3290 C   0  0  0  0  0  0  0  0  0  0  0  0
   -1.4380   18.1280  -11.0770 C   0  0  0  0  0  0  0  0  0  0  0  0
   -2.3890   19.0010  -10.5980 C   0  0  0  0  0  0  0  0  0  0  0  0
   -3.5240   19.3410  -11.2960 C   0  0  0  0  0  0  0  0  0  0  0  0
   -3.6990   18.7650  -12.5430 C   0  0  0  0  0  0  0  0  0  0  0  0
   -2.7430   17.8840  -13.0320 C   0  0  0  0  0  0  0  0  0  0  0  0
   -4.8070   20.5590  -10.5820 B   0  0  0  0  0  0  0  0  0  0  0  0
    3.0760    7.6390  -13.6520 H   0  0  0  0  0  0  0  0  0  0  0  0
   -0.4160    6.1700  -12.1360 H   0  0  0  0  0  0  0  0  0  0  0  0
    0.7660    6.1080  -13.5130 H   0  0  0  0  0  0  0  0  0  0  0  0
   -2.1110    6.6400  -12.8700 H   0  0  0  0  0  0  0  0  0  0  0  0
   -2.4790    8.3780  -13.1290 H   0  0  0  0  0  0  0  0  0  0  0  0
   -4.1770    8.3630  -16.3560 H   0  0  0  0  0  0  0  0  0  0  0  0
   -5.2210    8.6340  -14.9120 H   0  0  0  0  0  0  0  0  0  0  0  0
   -5.6340    7.3370  -16.0810 H   0  0  0  0  0  0  0  0  0  0  0  0
    4.1550    9.7050  -12.8720 H   0  0  0  0  0  0  0  0  0  0  0  0
    1.4220   10.6130  -11.9010 H   0  0  0  0  0  0  0  0  0  0  0  0
    1.5000   16.3790  -11.5700 H   0  0  0  0  0  0  0  0  0  0  0  0
    3.5250   14.6320  -11.2720 H   0  0  0  0  0  0  0  0  0  0  0  0
   -1.6060   14.9040  -12.1760 H   0  0  0  0  0  0  0  0  0  0  0  0
   -1.1100   14.9270  -13.8830 H   0  0  0  0  0  0  0  0  0  0  0  0
   -0.5670   17.8800  -10.5070 H   0  0  0  0  0  0  0  0  0  0  0  0
   -2.2340   19.4370   -9.6280 H   0  0  0  0  0  0  0  0  0  0  0  0
   -4.5880   19.0290  -13.0970 H   0  0  0  0  0  0  0  0  0  0  0  0
   -2.9620   17.4760  -14.0240 H   0  0  0  0  0  0  0  0  0  0  0  0
  2 35  1  6  0  0  0
  2 17  1  0  0  0  0
  2  1  1  0  0  0  0
  3  2  1  0  0  0  0
  4  3  1  0  0  0  0
  4  5  2  0  0  0  0
  5  6  1  0  0  0  0
  6 36  1  0  0  0  0
  6  1  1  0  0  0  0
  7  5  1  0  0  0  0
  7 39  1  0  0  0  0
  7 38  1  0  0  0  0
  8  7  1  0  0  0  0
  9  8  1  0  0  0  0
  9 10  2  0  0  0  0
 11 41  1  0  0  0  0
 11  9  1  0  0  0  0
 12 14  1  0  0  0  0
 12  4  1  0  0  0  0
 13 12  2  0  0  0  0
 15  3  1  0  0  0  0
 15 17  1  0  0  0  0
 16 15  2  0  0  0  0
 17 43  1  1  0  0  0
 17 18  1  0  0  0  0
 18 19  1  0  0  0  0
 18 44  1  0  0  0  0
 19 20  2  0  0  0  0
 19 21  1  0  0  0  0
 21 25  2  0  0  0  0
 22 23  1  0  0  0  0
 22 21  1  0  0  0  0
 23 24  2  0  0  0  0
 24 25  1  0  0  0  0
 24 45  1  0  0  0  0
 25 46  1  0  0  0  0
 26 23  1  0  0  0  0
 26 47  1  0  0  0  0
 27 26  1  0  0  0  0
 27 28  1  0  0  0  0
 28 29  1  0  0  0  0
 29 30  2  0  0  0  0
 29 49  1  0  0  0  0
 30 50  1  0  0  0  0
 31 30  1  0  0  0  0
 31 34  1  0  0  0  0
 32 31  2  0  0  0  0
 33 32  1  0  0  0  0
 33 28  2  0  0  0  0
 37  6  1  0  0  0  0
 40 11  1  0  0  0  0
 42 11  1  0  0  0  0
 48 26  1  0  0  0  0
 51 32  1  0  0  0  0
 52 33  1  0  0  0  0
M  END
>  <Pose>
1

>  <Score>
-8.26

$$$$
