
 OpenBabel03232203513D

 41 44  0  0  0  0  0  0  0  0999 V2000
    0.2060   15.8070  -12.2350 S   0  0  0  0  0  0  0  0  0  0  0  0
    0.9710   16.0180  -13.5100 O   0  0  0  0  0  0  0  0  0  0  0  0
    1.1360   16.1970  -11.1100 O   0  0  0  0  0  0  0  0  0  0  0  0
   -0.2630   14.1880  -12.1390 N   0  0  0  0  0  0  0  0  0  0  0  0
   -1.3750   13.7350  -12.8960 C   0  0  0  0  0  0  0  0  0  0  0  0
   -0.4970   12.9110  -13.7550 C   0  0  0  0  0  0  0  0  0  0  0  0
    0.5900   13.2660  -12.8010 C   0  0  0  0  0  0  0  0  0  0  0  0
   -0.7720   11.4880  -13.7870 N   0  0  0  0  0  0  0  0  0  0  0  0
   -1.8800   10.8670  -13.4750 N   0  0  0  0  0  0  0  0  0  0  0  0
   -1.7350    9.5450  -13.6360 N   0  0  0  0  0  0  0  0  0  0  0  0
   -0.4850    9.3000  -14.0680 C   0  0  0  0  0  0  0  0  0  0  0  0
    0.1130   10.5490  -14.1580 C   0  0  0  0  0  0  0  0  0  0  0  0
    0.1360    7.9710  -14.3870 C   0  0  0  0  0  0  0  0  0  0  0  0
    0.7850    7.4850  -13.1830 N   0  0  0  0  0  0  0  0  0  0  0  0
    0.1300    7.1850  -11.9450 C   0  0  0  0  0  0  0  0  0  0  0  0
    1.1950    6.6450  -11.0330 C   0  0  0  0  0  0  0  0  0  0  0  0
    2.4270    6.3940  -11.8410 C   0  0  0  0  0  0  0  0  0  0  0  0
    2.1820    7.2350  -13.0640 C   0  0  0  0  0  0  0  0  0  0  0  0
    3.0910    7.6250  -13.8190 O   0  0  0  0  0  0  0  0  0  0  0  0
   -1.1470   16.9350  -12.2610 C   0  0  0  0  0  0  0  0  0  0  0  0
   -1.5970   18.0680  -11.0550 S   0  0  0  0  0  0  0  0  0  0  0  0
   -2.9660   18.7500  -11.8160 C   0  0  0  0  0  0  0  0  0  0  0  0
   -3.0270   18.0620  -13.0000 C   0  0  0  0  0  0  0  0  0  0  0  0
   -2.0930   17.1350  -13.2220 C   0  0  0  0  0  0  0  0  0  0  0  0
   -4.1490   20.1380  -11.1950 B   0  0  0  0  0  0  0  0  0  0  0  0
   -1.8910   14.5990  -13.3930 H   0  0  0  0  0  0  0  0  0  0  0  0
   -2.1140   13.1700  -12.2740 H   0  0  0  0  0  0  0  0  0  0  0  0
   -0.4240   13.3460  -14.7720 H   0  0  0  0  0  0  0  0  0  0  0  0
    1.5280   13.6550  -13.2400 H   0  0  0  0  0  0  0  0  0  0  0  0
    0.8450   12.4140  -12.1300 H   0  0  0  0  0  0  0  0  0  0  0  0
    1.1430   10.6980  -14.4840 H   0  0  0  0  0  0  0  0  0  0  0  0
   -0.6360    7.2460  -14.7340 H   0  0  0  0  0  0  0  0  0  0  0  0
    0.9020    8.1320  -15.1560 H   0  0  0  0  0  0  0  0  0  0  0  0
   -0.3170    8.1070  -11.5120 H   0  0  0  0  0  0  0  0  0  0  0  0
   -0.6540    6.3870  -12.0470 H   0  0  0  0  0  0  0  0  0  0  0  0
    1.3680    7.3270  -10.1720 H   0  0  0  0  0  0  0  0  0  0  0  0
    0.8940    5.6640  -10.5760 H   0  0  0  0  0  0  0  0  0  0  0  0
    3.3320    6.7760  -11.3030 H   0  0  0  0  0  0  0  0  0  0  0  0
    2.5910    5.3320  -12.1040 H   0  0  0  0  0  0  0  0  0  0  0  0
   -3.8390   18.3010  -13.7160 H   0  0  0  0  0  0  0  0  0  0  0  0
   -2.0520   16.5240  -14.1450 H   0  0  0  0  0  0  0  0  0  0  0  0
  1  4  1  0  0  0  0
  1  3  2  0  0  0  0
  2  1  2  0  0  0  0
  5 27  1  0  0  0  0
  5  4  1  0  0  0  0
  6  5  1  0  0  0  0
  6  7  1  0  0  0  0
  7  4  1  0  0  0  0
  7 30  1  0  0  0  0
  8  6  1  0  0  0  0
  8  9  1  0  0  0  0
 10  9  2  0  0  0  0
 11 10  1  0  0  0  0
 12 11  2  0  0  0  0
 12  8  1  0  0  0  0
 13 11  1  0  0  0  0
 13 14  1  0  0  0  0
 14 18  1  0  0  0  0
 14 15  1  0  0  0  0
 15 34  1  0  0  0  0
 15 16  1  0  0  0  0
 16 37  1  0  0  0  0
 16 36  1  0  0  0  0
 17 38  1  0  0  0  0
 17 16  1  0  0  0  0
 18 17  1  0  0  0  0
 19 18  2  0  0  0  0
 20  1  1  0  0  0  0
 20 21  1  0  0  0  0
 22 25  1  0  0  0  0
 22 21  1  0  0  0  0
 23 22  2  0  0  0  0
 24 23  1  0  0  0  0
 24 20  2  0  0  0  0
 26  5  1  0  0  0  0
 28  6  1  0  0  0  0
 29  7  1  0  0  0  0
 31 12  1  0  0  0  0
 32 13  1  0  0  0  0
 33 13  1  0  0  0  0
 35 15  1  0  0  0  0
 39 17  1  0  0  0  0
 40 23  1  0  0  0  0
 41 24  1  0  0  0  0
M  END
>  <Pose>
1

>  <Score>
-6.33

$$$$
