
 OpenBabel03232203513D

 60 64  0  0  0  0  0  0  0  0999 V2000
   -0.0430   11.2330  -13.4590 S   0  0  0  0  0  0  0  0  0  0  0  0
   -0.4700   11.3820  -12.0490 O   0  0  0  0  0  0  0  0  0  0  0  0
    0.5640   12.5910  -13.8300 O   0  0  0  0  0  0  0  0  0  0  0  0
   -1.3490   11.0300  -14.5610 N   0  0  0  0  0  0  0  0  0  0  0  0
   -2.4040   11.9690  -14.3950 C   0  0  0  0  0  0  0  0  0  0  0  0
   -3.4620   11.5480  -13.3840 C   0  0  0  0  0  0  0  0  0  0  0  0
   -3.9070   10.2330  -13.7030 N   0  0  0  0  0  0  0  0  0  0  0  0
   -2.7880    9.2370  -13.6630 C   0  0  0  0  0  0  0  0  0  0  0  0
   -1.7920    9.6820  -14.6790 C   0  0  0  0  0  0  0  0  0  0  0  0
   -5.1530    9.7400  -14.0340 C   0  0  0  0  0  0  0  0  0  0  0  0
   -5.2010    9.0720  -15.1700 O   0  0  0  0  0  0  0  0  0  0  0  0
   -6.4160    9.8220  -13.3600 C   0  0  0  0  0  0  0  0  0  0  0  0
   -7.3400   10.8370  -13.7120 N   0  0  0  0  0  0  0  0  0  0  0  0
   -7.6660   11.9230  -13.0120 N   0  0  0  0  0  0  0  0  0  0  0  0
   -8.5480   12.6760  -13.6810 C   0  0  0  0  0  0  0  0  0  0  0  0
   -8.7840   12.0190  -14.8640 C   0  0  0  0  0  0  0  0  0  0  0  0
   -8.0350   10.8810  -14.8790 C   0  0  0  0  0  0  0  0  0  0  0  0
   -9.9700   12.6010  -16.2630 B   0  0  0  0  0  0  0  0  0  0  0  0
    1.2240   10.0770  -13.7230 C   0  0  0  0  0  0  0  0  0  0  0  0
    2.3960   10.4010  -14.4200 C   0  0  0  0  0  0  0  0  0  0  0  0
    3.3980    9.4750  -14.6290 C   0  0  0  0  0  0  0  0  0  0  0  0
    3.2860    8.1840  -14.1550 C   0  0  0  0  0  0  0  0  0  0  0  0
    2.1440    7.8600  -13.4750 C   0  0  0  0  0  0  0  0  0  0  0  0
    1.1430    8.8030  -13.2720 C   0  0  0  0  0  0  0  0  0  0  0  0
   -0.0290    8.3040  -12.5330 C   0  0  0  0  0  0  0  0  0  0  0  0
    0.3950    7.5660  -11.2820 C   0  0  0  0  0  0  0  0  0  0  0  0
    1.4920    6.7130  -11.5400 N   0  0  0  0  0  0  0  0  0  0  0  0
    1.8760    6.5200  -12.9030 C   0  0  0  0  0  0  0  0  0  0  0  0
    2.5550    6.7290  -10.5980 C   0  0  0  0  0  0  0  0  0  0  0  0
    4.3050    7.2320  -14.3640 O   0  0  0  0  0  0  0  0  0  0  0  0
    5.5230    7.3570  -13.6160 C   0  0  0  0  0  0  0  0  0  0  0  0
    4.4000   10.1020  -15.3370 O   0  0  0  0  0  0  0  0  0  0  0  0
    3.9700   11.3850  -15.6930 C   0  0  0  0  0  0  0  0  0  0  0  0
    2.7570   11.6160  -14.9940 O   0  0  0  0  0  0  0  0  0  0  0  0
   -1.9900   12.9370  -14.0500 H   0  0  0  0  0  0  0  0  0  0  0  0
   -2.9290   12.1180  -15.3600 H   0  0  0  0  0  0  0  0  0  0  0  0
   -4.1890   12.3440  -13.3500 H   0  0  0  0  0  0  0  0  0  0  0  0
   -3.0160   11.4900  -12.3570 H   0  0  0  0  0  0  0  0  0  0  0  0
   -3.1650    8.2400  -13.9530 H   0  0  0  0  0  0  0  0  0  0  0  0
   -2.3510    9.1880  -12.6670 H   0  0  0  0  0  0  0  0  0  0  0  0
   -0.9370    8.9800  -14.6860 H   0  0  0  0  0  0  0  0  0  0  0  0
   -2.2720    9.5730  -15.6880 H   0  0  0  0  0  0  0  0  0  0  0  0
   -6.2710    9.9130  -12.2180 H   0  0  0  0  0  0  0  0  0  0  0  0
   -6.9290    8.7910  -13.4130 H   0  0  0  0  0  0  0  0  0  0  0  0
   -8.9860   13.6220  -13.3430 H   0  0  0  0  0  0  0  0  0  0  0  0
   -8.0080   10.1610  -15.6720 H   0  0  0  0  0  0  0  0  0  0  0  0
   -0.8510    8.9930  -12.3940 H   0  0  0  0  0  0  0  0  0  0  0  0
   -0.4550    7.4850  -13.1990 H   0  0  0  0  0  0  0  0  0  0  0  0
    0.7450    8.3650  -10.5690 H   0  0  0  0  0  0  0  0  0  0  0  0
   -0.4690    7.0700  -10.7910 H   0  0  0  0  0  0  0  0  0  0  0  0
    2.7720    5.8770  -12.9320 H   0  0  0  0  0  0  0  0  0  0  0  0
    1.0890    6.0350  -13.5180 H   0  0  0  0  0  0  0  0  0  0  0  0
    2.8730    5.7260  -10.2470 H   0  0  0  0  0  0  0  0  0  0  0  0
    2.2570    7.3850   -9.7430 H   0  0  0  0  0  0  0  0  0  0  0  0
    3.4440    7.2290  -11.0490 H   0  0  0  0  0  0  0  0  0  0  0  0
    5.5080    8.2760  -12.9950 H   0  0  0  0  0  0  0  0  0  0  0  0
    6.3860    7.4370  -14.3030 H   0  0  0  0  0  0  0  0  0  0  0  0
    5.7050    6.4340  -13.0100 H   0  0  0  0  0  0  0  0  0  0  0  0
    3.8430   11.5360  -16.7740 H   0  0  0  0  0  0  0  0  0  0  0  0
    4.7140   12.1050  -15.2550 H   0  0  0  0  0  0  0  0  0  0  0  0
  1  2  2  0  0  0  0
  3  1  2  0  0  0  0
  4  5  1  0  0  0  0
  4  1  1  0  0  0  0
  5 35  1  0  0  0  0
  5  6  1  0  0  0  0
  6 37  1  0  0  0  0
  6 38  1  0  0  0  0
  7  8  1  0  0  0  0
  7  6  1  0  0  0  0
  8 40  1  0  0  0  0
  9  4  1  0  0  0  0
  9  8  1  0  0  0  0
 10  7  1  0  0  0  0
 10 12  1  0  0  0  0
 11 10  2  0  0  0  0
 12 43  1  0  0  0  0
 13 12  1  0  0  0  0
 13 14  1  0  0  0  0
 15 45  1  0  0  0  0
 15 14  2  0  0  0  0
 16 15  1  0  0  0  0
 17 16  2  0  0  0  0
 17 13  1  0  0  0  0
 18 16  1  0  0  0  0
 19  1  1  0  0  0  0
 19 24  1  0  0  0  0
 20 19  2  0  0  0  0
 21 20  1  0  0  0  0
 21 22  2  0  0  0  0
 22 23  1  0  0  0  0
 23 24  2  0  0  0  0
 23 28  1  0  0  0  0
 24 25  1  0  0  0  0
 25 47  1  0  0  0  0
 25 26  1  0  0  0  0
 26 50  1  0  0  0  0
 26 49  1  0  0  0  0
 27 26  1  0  0  0  0
 27 29  1  0  0  0  0
 28 27  1  0  0  0  0
 29 53  1  0  0  0  0
 29 54  1  0  0  0  0
 30 22  1  0  0  0  0
 30 31  1  0  0  0  0
 31 58  1  0  0  0  0
 31 56  1  0  0  0  0
 32 21  1  0  0  0  0
 33 32  1  0  0  0  0
 33 60  1  0  0  0  0
 33 34  1  0  0  0  0
 34 20  1  0  0  0  0
 36  5  1  0  0  0  0
 39  8  1  0  0  0  0
 41  9  1  0  0  0  0
 42  9  1  0  0  0  0
 44 12  1  0  0  0  0
 46 17  1  0  0  0  0
 48 25  1  0  0  0  0
 51 28  1  0  0  0  0
 52 28  1  0  0  0  0
 55 29  1  0  0  0  0
 57 31  1  0  0  0  0
 59 33  1  0  0  0  0
M  END
>  <Pose>
1

>  <Score>
-5.37

$$$$
