
 OpenBabel03232203513D

 43 46  0  0  0  0  0  0  0  0999 V2000
    3.3470   12.8970  -11.9100 S   0  0  0  0  0  0  0  0  0  0  0  0
    4.2230   12.6940  -10.7160 O   0  0  0  0  0  0  0  0  0  0  0  0
    4.0740   13.8100  -12.8880 O   0  0  0  0  0  0  0  0  0  0  0  0
    1.9050   13.7220  -11.4550 N   0  0  0  0  0  0  0  0  0  0  0  0
    0.7160   13.0940  -11.9020 C   0  0  0  0  0  0  0  0  0  0  0  0
   -0.0990   13.8400  -12.9010 C   0  0  0  0  0  0  0  0  0  0  0  0
   -0.0730   15.2690  -12.7310 N   0  0  0  0  0  0  0  0  0  0  0  0
    0.7050   15.7710  -11.6200 C   0  0  0  0  0  0  0  0  0  0  0  0
    2.0580   15.1030  -11.7610 C   0  0  0  0  0  0  0  0  0  0  0  0
   -0.7470   16.1820  -13.5620 C   0  0  0  0  0  0  0  0  0  0  0  0
   -0.5250   16.1860  -14.7920 O   0  0  0  0  0  0  0  0  0  0  0  0
   -1.7050   17.1290  -13.0000 C   0  0  0  0  0  0  0  0  0  0  0  0
   -1.5540   17.8110  -11.8690 N   0  0  0  0  0  0  0  0  0  0  0  0
   -2.6170   18.5860  -11.6480 N   0  0  0  0  0  0  0  0  0  0  0  0
   -3.5080   18.4240  -12.6530 C   0  0  0  0  0  0  0  0  0  0  0  0
   -2.9230   17.4900  -13.5170 C   0  0  0  0  0  0  0  0  0  0  0  0
   -4.6870   19.0940  -12.6840 N   0  0  0  0  0  0  0  0  0  0  0  0
   -4.9890   19.9610  -11.6740 C   0  0  0  0  0  0  0  0  0  0  0  0
   -4.1020   20.1490  -10.6370 C   0  0  0  0  0  0  0  0  0  0  0  0
   -2.9200   19.4440  -10.6510 C   0  0  0  0  0  0  0  0  0  0  0  0
   -4.5320   21.3710   -9.2150 B   0  0  0  0  0  0  0  0  0  0  0  0
    3.0110   11.3480  -12.6420 C   0  0  0  0  0  0  0  0  0  0  0  0
    3.1130   11.0140  -13.9730 C   0  0  0  0  0  0  0  0  0  0  0  0
    2.7720    9.7360  -14.1430 N   0  0  0  0  0  0  0  0  0  0  0  0
    2.4530    9.2280  -12.9680 N   0  0  0  0  0  0  0  0  0  0  0  0
    2.5840   10.1810  -12.0100 C   0  0  0  0  0  0  0  0  0  0  0  0
    2.7440    8.9960  -15.3770 C   0  0  0  0  0  0  0  0  0  0  0  0
    0.9630   12.0950  -12.3180 H   0  0  0  0  0  0  0  0  0  0  0  0
    0.0720   12.9040  -11.0130 H   0  0  0  0  0  0  0  0  0  0  0  0
    0.2310   13.6190  -13.9590 H   0  0  0  0  0  0  0  0  0  0  0  0
   -1.1660   13.5320  -12.8660 H   0  0  0  0  0  0  0  0  0  0  0  0
    0.8200   16.8710  -11.6440 H   0  0  0  0  0  0  0  0  0  0  0  0
    0.2030   15.4150  -10.6930 H   0  0  0  0  0  0  0  0  0  0  0  0
    2.7540   15.5490  -11.0190 H   0  0  0  0  0  0  0  0  0  0  0  0
    2.4460   15.2980  -12.7720 H   0  0  0  0  0  0  0  0  0  0  0  0
   -3.3490   17.1220  -14.4260 H   0  0  0  0  0  0  0  0  0  0  0  0
   -5.9170   20.5170  -11.6570 H   0  0  0  0  0  0  0  0  0  0  0  0
   -2.2110   19.5800   -9.8410 H   0  0  0  0  0  0  0  0  0  0  0  0
    3.4200   11.6540  -14.8040 H   0  0  0  0  0  0  0  0  0  0  0  0
    2.3950   10.0730  -10.9490 H   0  0  0  0  0  0  0  0  0  0  0  0
    1.6830    8.8340  -15.6610 H   0  0  0  0  0  0  0  0  0  0  0  0
    3.1780    7.9880  -15.2260 H   0  0  0  0  0  0  0  0  0  0  0  0
    3.2600    9.5410  -16.1920 H   0  0  0  0  0  0  0  0  0  0  0  0
  1  4  1  0  0  0  0
  1  2  2  0  0  0  0
  3  1  2  0  0  0  0
  5  4  1  0  0  0  0
  5 29  1  0  0  0  0
  6 31  1  0  0  0  0
  6  7  1  0  0  0  0
  6  5  1  0  0  0  0
  7  8  1  0  0  0  0
  8 33  1  0  0  0  0
  9  8  1  0  0  0  0
  9  4  1  0  0  0  0
  9 34  1  0  0  0  0
 10 12  1  0  0  0  0
 10  7  1  0  0  0  0
 11 10  2  0  0  0  0
 12 13  2  0  0  0  0
 13 14  1  0  0  0  0
 14 20  1  0  0  0  0
 15 14  1  0  0  0  0
 16 12  1  0  0  0  0
 16 15  2  0  0  0  0
 17 15  1  0  0  0  0
 17 18  2  0  0  0  0
 18 37  1  0  0  0  0
 18 19  1  0  0  0  0
 19 21  1  0  0  0  0
 20 19  2  0  0  0  0
 20 38  1  0  0  0  0
 22 26  1  0  0  0  0
 22  1  1  0  0  0  0
 23 22  2  0  0  0  0
 24 23  1  0  0  0  0
 24 25  1  0  0  0  0
 25 26  2  0  0  0  0
 26 40  1  0  0  0  0
 27 42  1  0  0  0  0
 27 24  1  0  0  0  0
 28  5  1  0  0  0  0
 30  6  1  0  0  0  0
 32  8  1  0  0  0  0
 35  9  1  0  0  0  0
 36 16  1  0  0  0  0
 39 23  1  0  0  0  0
 41 27  1  0  0  0  0
 43 27  1  0  0  0  0
M  END
>  <Pose>
1

>  <Score>
-7.14

$$$$
