
 OpenBabel03232203513D

 49 52  0  0  1  0  0  0  0  0999 V2000
    1.1330   14.9230  -11.6440 S   0  0  0  0  0  0  0  0  0  0  0  0
    1.7440   16.2030  -12.0960 O   0  0  0  0  0  0  0  0  0  0  0  0
    1.0790   14.9250  -10.1360 O   0  0  0  0  0  0  0  0  0  0  0  0
   -0.4440   14.7760  -12.2370 N   0  0  0  0  0  0  0  0  0  0  0  0
   -0.6440   15.1280  -13.5910 C   0  0  0  0  0  0  0  0  0  0  0  0
   -1.2610   16.4370  -13.8650 C   0  0  0  0  0  0  0  0  0  0  0  0
   -2.3020   16.7490  -12.9320 N   0  0  0  0  0  0  0  0  0  0  0  0
   -2.6630   15.7860  -11.9320 C   0  0  0  0  0  0  0  0  0  0  0  0
   -1.4890   15.0800  -11.3280 C   0  0  0  0  0  0  0  0  0  0  0  0
   -2.9710   17.9880  -12.9860 C   0  0  0  0  0  0  0  0  0  0  0  0
   -3.4380   18.3770  -14.0810 O   0  0  0  0  0  0  0  0  0  0  0  0
   -3.1570   18.8590  -11.8330 C   0  0  1  0  0  0  0  0  0  0  0  0
   -2.1520   18.9770  -10.8900 C   0  0  0  0  0  0  0  0  0  0  0  0
   -2.3210   19.7790   -9.8280 N   0  0  0  0  0  0  0  0  0  0  0  0
   -3.4510   20.4930   -9.6310 C   0  0  1  0  0  0  0  0  0  0  0  0
   -4.4480   20.4010  -10.5280 N   0  0  0  0  0  0  0  0  0  0  0  0
   -5.5900   21.1190  -10.3330 C   0  0  0  0  0  0  0  0  0  0  0  0
   -5.7560   21.9410   -9.2380 C   0  0  0  0  0  0  0  0  0  0  0  0
   -4.7430   22.0510   -8.3000 C   0  0  0  0  0  0  0  0  0  0  0  0
   -3.5990   21.3160   -8.5200 C   0  0  0  0  0  0  0  0  0  0  0  0
   -6.9840   22.7380   -8.9920 C   0  0  0  0  0  0  0  0  0  0  0  0
   -4.3040   19.5960  -11.6140 C   0  0  0  0  0  0  0  0  0  0  0  0
   -5.2240   19.5120  -12.4410 O   0  0  0  0  0  0  0  0  0  0  0  0
    2.0940   13.5600  -12.1510 C   0  0  0  0  0  0  0  0  0  0  0  0
    1.5010   12.4960  -12.7990 C   0  0  0  0  0  0  0  0  0  0  0  0
    2.3270   11.4420  -13.1770 C   0  0  0  0  0  0  0  0  0  0  0  0
    3.6740   11.4420  -12.9250 C   0  0  0  0  0  0  0  0  0  0  0  0
    4.2600   12.5170  -12.2720 C   0  0  0  0  0  0  0  0  0  0  0  0
    3.4470   13.5880  -11.8840 C   0  0  0  0  0  0  0  0  0  0  0  0
    1.5700    9.9460  -14.0740 B   0  0  0  0  0  0  0  0  0  0  0  0
    0.3450   15.0730  -14.1160 H   0  0  0  0  0  0  0  0  0  0  0  0
   -1.2700   14.3330  -14.0720 H   0  0  0  0  0  0  0  0  0  0  0  0
   -0.4400   17.2130  -13.8120 H   0  0  0  0  0  0  0  0  0  0  0  0
   -1.7200   16.5100  -14.8890 H   0  0  0  0  0  0  0  0  0  0  0  0
   -3.2830   16.2670  -11.1490 H   0  0  0  0  0  0  0  0  0  0  0  0
   -3.3590   15.0520  -12.4360 H   0  0  0  0  0  0  0  0  0  0  0  0
   -1.8470   14.1420  -10.8570 H   0  0  0  0  0  0  0  0  0  0  0  0
   -1.0840   15.7130  -10.5130 H   0  0  0  0  0  0  0  0  0  0  0  0
   -1.2290   18.4050  -11.0360 H   0  0  0  0  0  0  0  0  0  0  0  0
   -6.3870   21.0390  -11.0590 H   0  0  0  0  0  0  0  0  0  0  0  0
   -4.8140   22.6790   -7.4240 H   0  0  0  0  0  0  0  0  0  0  0  0
   -2.7990   21.3910   -7.7980 H   0  0  0  0  0  0  0  0  0  0  0  0
   -6.9050   23.7390   -9.4940 H   0  0  0  0  0  0  0  0  0  0  0  0
   -7.1390   22.9030   -7.8980 H   0  0  0  0  0  0  0  0  0  0  0  0
   -7.8770   22.2580   -9.4480 H   0  0  0  0  0  0  0  0  0  0  0  0
    0.4430   12.4930  -12.9990 H   0  0  0  0  0  0  0  0  0  0  0  0
    4.2750   10.6000  -13.2370 H   0  0  0  0  0  0  0  0  0  0  0  0
    5.3200   12.5040  -12.0800 H   0  0  0  0  0  0  0  0  0  0  0  0
    3.8840   14.4290  -11.3780 H   0  0  0  0  0  0  0  0  0  0  0  0
  1  3  2  0  0  0  0
  2  1  2  0  0  0  0
  4  1  1  0  0  0  0
  4  9  1  0  0  0  0
  5  4  1  0  0  0  0
  6 33  1  0  0  0  0
  6  5  1  0  0  0  0
  6  7  1  0  0  0  0
  7  8  1  0  0  0  0
  8  9  1  0  0  0  0
  8 35  1  0  0  0  0
  9 37  1  0  0  0  0
  9 38  1  0  0  0  0
 10  7  1  0  0  0  0
 11 10  2  0  0  0  0
 12 10  1  6  0  0  0
 12 22  1  0  0  0  0
 12 13  1  0  0  0  0
 13 14  2  0  0  0  0
 15 14  1  1  0  0  0
 15 20  1  0  0  0  0
 16 17  1  0  0  0  0
 16 15  1  0  0  0  0
 17 18  2  0  0  0  0
 18 21  1  0  0  0  0
 18 19  1  0  0  0  0
 19 41  1  0  0  0  0
 20 19  2  0  0  0  0
 20 42  1  0  0  0  0
 21 44  1  0  0  0  0
 22 16  1  0  0  0  0
 23 22  2  0  0  0  0
 24 29  1  0  0  0  0
 24  1  1  0  0  0  0
 25 24  2  0  0  0  0
 26 27  2  0  0  0  0
 26 25  1  0  0  0  0
 27 28  1  0  0  0  0
 28 48  1  0  0  0  0
 28 29  2  0  0  0  0
 29 49  1  0  0  0  0
 30 26  1  0  0  0  0
 31  5  1  0  0  0  0
 32  5  1  0  0  0  0
 34  6  1  0  0  0  0
 36  8  1  0  0  0  0
 39 13  1  0  0  0  0
 40 17  1  0  0  0  0
 43 21  1  0  0  0  0
 45 21  1  0  0  0  0
 46 25  1  0  0  0  0
 47 27  1  0  0  0  0
M  END
>  <Pose>
1

>  <Score>
-6.25

$$$$
