
 OpenBabel03232203513D

 54 58  0  0  1  0  0  0  0  0999 V2000
    2.5200   11.4150  -13.1240 S   0  0  0  0  0  0  0  0  0  0  0  0
    3.8680   11.3150  -13.8250 O   0  0  0  0  0  0  0  0  0  0  0  0
    2.8810   11.8390  -11.7000 O   0  0  0  0  0  0  0  0  0  0  0  0
    1.6630   12.6750  -13.8280 N   0  0  0  0  0  0  0  0  0  0  0  0
    0.2590   12.7550  -13.5210 C   0  0  0  0  0  0  0  0  0  0  0  0
   -0.1550   14.1650  -13.1680 C   0  0  0  0  0  0  0  0  0  0  0  0
    0.6960   14.6840  -12.0680 N   0  0  0  0  0  0  0  0  0  0  0  0
    2.0590   14.7670  -12.5720 C   0  0  0  0  0  0  0  0  0  0  0  0
    2.2740   13.9690  -13.8470 C   0  0  0  0  0  0  0  0  0  0  0  0
    0.1840   16.0180  -11.8380 C   0  0  0  0  0  0  0  0  0  0  0  0
   -0.8310   16.5350  -12.7670 C   0  0  0  0  0  0  0  0  0  0  0  0
   -1.7090   17.5740  -12.3500 N   0  0  0  0  0  0  0  0  0  0  0  0
   -1.6200   18.4850  -11.2600 C   0  0  0  0  0  0  0  0  0  0  0  0
   -0.9930   18.2870  -10.2090 O   0  0  0  0  0  0  0  0  0  0  0  0
   -2.3980   19.7040  -11.5910 C   0  0  1  0  0  0  0  0  0  0  0  0
   -3.4820   19.1000  -12.5120 C   0  0  2  0  0  0  0  0  0  0  0  0
   -4.6760   18.9130  -11.6530 C   0  0  1  0  0  0  0  0  0  0  0  0
   -4.0540   18.8270  -10.2490 C   0  0  0  0  0  0  0  0  0  0  0  0
   -3.2300   20.1140  -10.4290 C   0  0  2  0  0  0  0  0  0  0  0  0
   -4.3090   21.0090  -10.9660 C   0  0  0  0  0  0  0  0  0  0  0  0
   -5.2980   20.2840  -11.4880 C   0  0  0  0  0  0  0  0  0  0  0  0
   -2.9070   17.8950  -13.0930 C   0  0  0  0  0  0  0  0  0  0  0  0
   -3.3920   17.2700  -14.0680 O   0  0  0  0  0  0  0  0  0  0  0  0
    1.7390    9.8890  -13.0180 C   0  0  0  0  0  0  0  0  0  0  0  0
    1.6950    9.2020  -11.8290 C   0  0  0  0  0  0  0  0  0  0  0  0
    1.0480    7.9800  -11.7790 C   0  0  0  0  0  0  0  0  0  0  0  0
    0.4390    7.4160  -12.8850 C   0  0  0  0  0  0  0  0  0  0  0  0
    0.4860    8.1090  -14.0760 C   0  0  0  0  0  0  0  0  0  0  0  0
    1.1360    9.3370  -14.1260 C   0  0  0  0  0  0  0  0  0  0  0  0
   -0.4510    5.7310  -12.8190 B   0  0  0  0  0  0  0  0  0  0  0  0
   -0.2980   12.4940  -14.4510 H   0  0  0  0  0  0  0  0  0  0  0  0
   -0.0190   12.0370  -12.7510 H   0  0  0  0  0  0  0  0  0  0  0  0
   -1.1850   14.1410  -12.7700 H   0  0  0  0  0  0  0  0  0  0  0  0
   -0.1270   14.8660  -14.0230 H   0  0  0  0  0  0  0  0  0  0  0  0
    2.7310   14.2980  -11.8340 H   0  0  0  0  0  0  0  0  0  0  0  0
    2.2970   15.8350  -12.7180 H   0  0  0  0  0  0  0  0  0  0  0  0
    3.3270   13.8830  -14.1060 H   0  0  0  0  0  0  0  0  0  0  0  0
    1.7820   14.5440  -14.6640 H   0  0  0  0  0  0  0  0  0  0  0  0
    1.0520   16.7520  -11.8770 H   0  0  0  0  0  0  0  0  0  0  0  0
   -0.1300   16.1030  -10.7490 H   0  0  0  0  0  0  0  0  0  0  0  0
   -0.2590   16.9310  -13.6710 H   0  0  0  0  0  0  0  0  0  0  0  0
   -1.3930   15.6510  -13.1800 H   0  0  0  0  0  0  0  0  0  0  0  0
   -1.8200   20.4830  -12.0780 H   0  0  0  0  0  0  0  0  0  0  0  0
   -3.7530   19.8620  -13.2980 H   0  0  0  0  0  0  0  0  0  0  0  0
   -5.3560   18.1270  -11.8790 H   0  0  0  0  0  0  0  0  0  0  0  0
   -4.7990   18.9450   -9.4540 H   0  0  0  0  0  0  0  0  0  0  0  0
   -3.3740   17.9900  -10.1290 H   0  0  0  0  0  0  0  0  0  0  0  0
   -2.7470   20.4630   -9.5490 H   0  0  0  0  0  0  0  0  0  0  0  0
   -4.3310   22.0940  -10.9560 H   0  0  0  0  0  0  0  0  0  0  0  0
   -6.2960   20.5970  -11.7310 H   0  0  0  0  0  0  0  0  0  0  0  0
    2.1610    9.6020  -10.9140 H   0  0  0  0  0  0  0  0  0  0  0  0
    1.0140    7.4370  -10.8350 H   0  0  0  0  0  0  0  0  0  0  0  0
    0.0080    7.6570  -14.9320 H   0  0  0  0  0  0  0  0  0  0  0  0
    1.1220    9.8120  -15.0960 H   0  0  0  0  0  0  0  0  0  0  0  0
  1 24  1  0  0  0  0
  1  3  2  0  0  0  0
  2  1  2  0  0  0  0
  4  5  1  0  0  0  0
  4  1  1  0  0  0  0
  5  6  1  0  0  0  0
  5 32  1  0  0  0  0
  6 33  1  0  0  0  0
  6  7  1  0  0  0  0
  7 10  1  0  0  0  0
  8  7  1  0  0  0  0
  8 35  1  0  0  0  0
  9  4  1  0  0  0  0
  9  8  1  0  0  0  0
 10 40  1  0  0  0  0
 11 12  1  0  0  0  0
 11 10  1  0  0  0  0
 12 13  1  0  0  0  0
 13 14  2  0  0  0  0
 15 43  1  6  0  0  0
 15 13  1  0  0  0  0
 15 19  1  0  0  0  0
 16 44  1  6  0  0  0
 16 17  1  0  0  0  0
 16 15  1  0  0  0  0
 17 45  1  6  0  0  0
 17 21  1  0  0  0  0
 17 18  1  0  0  0  0
 18 47  1  0  0  0  0
 18 46  1  0  0  0  0
 19 18  1  0  0  0  0
 19 48  1  1  0  0  0
 20 49  1  0  0  0  0
 20 19  1  0  0  0  0
 21 20  1  0  0  0  0
 22 16  1  0  0  0  0
 22 12  1  0  0  0  0
 23 22  2  0  0  0  0
 24 25  1  0  0  0  0
 25 26  2  0  0  0  0
 25 51  1  0  0  0  0
 26 52  1  0  0  0  0
 27 30  1  0  0  0  0
 27 26  1  0  0  0  0
 28 27  2  0  0  0  0
 29 28  1  0  0  0  0
 29 24  2  0  0  0  0
 31  5  1  0  0  0  0
 34  6  1  0  0  0  0
 36  8  1  0  0  0  0
 37  9  1  0  0  0  0
 38  9  1  0  0  0  0
 39 10  1  0  0  0  0
 41 11  1  0  0  0  0
 42 11  1  0  0  0  0
 50 21  1  0  0  0  0
 53 28  1  0  0  0  0
 54 29  1  0  0  0  0
M  END
>  <Pose>
1

>  <Score>
-5.94

$$$$
