
 OpenBabel03232203513D

 44 47  0  0  0  0  0  0  0  0999 V2000
    0.1690   15.5010  -12.7810 S   0  0  0  0  0  0  0  0  0  0  0  0
    0.6680   15.5290  -14.1710 O   0  0  0  0  0  0  0  0  0  0  0  0
    1.3440   15.8970  -11.8950 O   0  0  0  0  0  0  0  0  0  0  0  0
   -0.3920   13.9860  -12.2490 N   0  0  0  0  0  0  0  0  0  0  0  0
    0.2970   13.3900  -11.1690 C   0  0  0  0  0  0  0  0  0  0  0  0
    1.1060   12.1730  -11.4690 C   0  0  0  0  0  0  0  0  0  0  0  0
    1.0810   11.7630  -12.8520 N   0  0  0  0  0  0  0  0  0  0  0  0
   -0.1120   11.9430  -13.6140 C   0  0  0  0  0  0  0  0  0  0  0  0
   -0.9140   13.1460  -13.2590 C   0  0  0  0  0  0  0  0  0  0  0  0
    2.2770   11.1790  -13.3880 C   0  0  0  0  0  0  0  0  0  0  0  0
    2.4980    9.8660  -13.5710 N   0  0  0  0  0  0  0  0  0  0  0  0
    3.7360    9.7830  -14.0720 N   0  0  0  0  0  0  0  0  0  0  0  0
    4.2500   10.9870  -14.1900 N   0  0  0  0  0  0  0  0  0  0  0  0
    3.3760   11.8800  -13.7770 N   0  0  0  0  0  0  0  0  0  0  0  0
    1.5970    8.8020  -13.2980 C   0  0  0  0  0  0  0  0  0  0  0  0
    0.7070    8.3580  -14.2480 C   0  0  0  0  0  0  0  0  0  0  0  0
   -0.1640    7.3110  -13.9500 C   0  0  0  0  0  0  0  0  0  0  0  0
   -0.1570    6.7020  -12.7140 C   0  0  0  0  0  0  0  0  0  0  0  0
    0.7500    7.1550  -11.7470 C   0  0  0  0  0  0  0  0  0  0  0  0
    1.6140    8.2040  -12.0630 C   0  0  0  0  0  0  0  0  0  0  0  0
   -1.0680   16.7050  -12.5490 C   0  0  0  0  0  0  0  0  0  0  0  0
   -2.0970   16.8990  -13.4360 C   0  0  0  0  0  0  0  0  0  0  0  0
   -3.0830   17.8650  -13.2370 C   0  0  0  0  0  0  0  0  0  0  0  0
   -3.0060   18.6570  -12.0870 C   0  0  0  0  0  0  0  0  0  0  0  0
   -1.9780   18.4710  -11.1900 C   0  0  0  0  0  0  0  0  0  0  0  0
   -1.0310   17.5130  -11.4220 C   0  0  0  0  0  0  0  0  0  0  0  0
   -4.3270   20.0000  -11.7480 B   0  0  0  0  0  0  0  0  0  0  0  0
    0.8960   14.1950  -10.6700 H   0  0  0  0  0  0  0  0  0  0  0  0
   -0.4910   13.1120  -10.4030 H   0  0  0  0  0  0  0  0  0  0  0  0
    2.1540   12.3920  -11.1220 H   0  0  0  0  0  0  0  0  0  0  0  0
    0.7810   11.3380  -10.8000 H   0  0  0  0  0  0  0  0  0  0  0  0
    0.1300   12.0070  -14.7150 H   0  0  0  0  0  0  0  0  0  0  0  0
   -0.7110   10.9930  -13.4880 H   0  0  0  0  0  0  0  0  0  0  0  0
   -1.9310   12.7900  -12.9220 H   0  0  0  0  0  0  0  0  0  0  0  0
   -1.1510   13.7660  -14.1710 H   0  0  0  0  0  0  0  0  0  0  0  0
    0.6450    8.7950  -15.2520 H   0  0  0  0  0  0  0  0  0  0  0  0
   -0.8850    6.9320  -14.6840 H   0  0  0  0  0  0  0  0  0  0  0  0
   -0.8150    5.8920  -12.4530 H   0  0  0  0  0  0  0  0  0  0  0  0
    0.7520    6.6760  -10.7840 H   0  0  0  0  0  0  0  0  0  0  0  0
    2.2900    8.5030  -11.2620 H   0  0  0  0  0  0  0  0  0  0  0  0
   -2.1680   16.2830  -14.3440 H   0  0  0  0  0  0  0  0  0  0  0  0
   -3.8940   18.0340  -13.9150 H   0  0  0  0  0  0  0  0  0  0  0  0
   -1.9660   19.1200  -10.3070 H   0  0  0  0  0  0  0  0  0  0  0  0
   -0.2210   17.3950  -10.6810 H   0  0  0  0  0  0  0  0  0  0  0  0
  1 21  1  0  0  0  0
  1  4  1  0  0  0  0
  1  3  2  0  0  0  0
  2  1  2  0  0  0  0
  4  5  1  0  0  0  0
  5 28  1  0  0  0  0
  5 29  1  0  0  0  0
  6  5  1  0  0  0  0
  6 30  1  0  0  0  0
  6 31  1  0  0  0  0
  7  6  1  0  0  0  0
  8 33  1  0  0  0  0
  8  9  1  0  0  0  0
  8  7  1  0  0  0  0
  9 34  1  0  0  0  0
  9  4  1  0  0  0  0
 10  7  1  0  0  0  0
 11 10  1  0  0  0  0
 11 15  1  0  0  0  0
 12 11  1  0  0  0  0
 13 12  2  0  0  0  0
 13 14  1  0  0  0  0
 14 10  2  0  0  0  0
 15 20  1  0  0  0  0
 16 17  1  0  0  0  0
 16 15  2  0  0  0  0
 17 18  2  0  0  0  0
 18 38  1  0  0  0  0
 18 19  1  0  0  0  0
 19 39  1  0  0  0  0
 20 19  2  0  0  0  0
 20 40  1  0  0  0  0
 21 26  1  0  0  0  0
 22 23  1  0  0  0  0
 22 21  2  0  0  0  0
 23 24  2  0  0  0  0
 24 27  1  0  0  0  0
 24 25  1  0  0  0  0
 25 43  1  0  0  0  0
 26 25  2  0  0  0  0
 26 44  1  0  0  0  0
 32  8  1  0  0  0  0
 35  9  1  0  0  0  0
 36 16  1  0  0  0  0
 37 17  1  0  0  0  0
 41 22  1  0  0  0  0
 42 23  1  0  0  0  0
M  END
>  <Pose>
1

>  <Score>
-6.08

$$$$
