
 OpenBabel03232203513D

 40 43  0  0  1  0  0  0  0  0999 V2000
    0.2270    8.2060  -12.9940 S   0  0  0  0  0  0  0  0  0  0  0  0
   -0.7280    7.5060  -13.9260 O   0  0  0  0  0  0  0  0  0  0  0  0
   -0.1630    7.7720  -11.5890 O   0  0  0  0  0  0  0  0  0  0  0  0
    0.0980    9.8980  -13.0670 N   0  0  0  0  0  0  0  0  0  0  0  0
    1.3490   10.4750  -13.4290 C   0  0  0  0  0  0  0  0  0  0  0  0
    1.2020   11.7720  -14.1960 C   0  0  0  0  0  0  0  0  0  0  0  0
    0.0420   12.4480  -13.6730 N   0  0  0  0  0  0  0  0  0  0  0  0
   -1.2240   11.8050  -13.9170 C   0  0  0  0  0  0  0  0  0  0  0  0
   -1.0450   10.3340  -13.7970 C   0  0  0  0  0  0  0  0  0  0  0  0
    0.1070   13.6680  -12.9610 C   0  0  1  0  0  0  0  0  0  0  0  0
   -0.7560   14.6620  -13.1740 C   0  0  0  0  0  0  0  0  0  0  0  0
   -0.7230   15.9280  -12.4630 C   0  0  0  0  0  0  0  0  0  0  0  0
   -1.6050   16.8800  -12.7160 C   0  0  0  0  0  0  0  0  0  0  0  0
    0.2780   16.1300  -11.4880 N   0  0  0  0  0  0  0  0  0  0  0  0
    1.1880   15.0390  -11.2850 C   0  0  0  0  0  0  0  0  0  0  0  0
    1.1150   13.8870  -11.9690 N   0  0  0  0  0  0  0  0  0  0  0  0
    2.0920   13.0730  -11.5600 N   0  0  0  0  0  0  0  0  0  0  0  0
    2.8090   13.6910  -10.6050 C   0  0  0  0  0  0  0  0  0  0  0  0
    2.2440   14.9000  -10.4450 N   0  0  0  0  0  0  0  0  0  0  0  0
    1.8780    7.6420  -13.2420 C   0  0  0  0  0  0  0  0  0  0  0  0
    2.5130    6.1340  -12.7860 S   0  0  0  0  0  0  0  0  0  0  0  0
    4.1110    6.3260  -13.3400 C   0  0  0  0  0  0  0  0  0  0  0  0
    4.1080    7.5860  -13.8770 C   0  0  0  0  0  0  0  0  0  0  0  0
    2.9400    8.2700  -13.8250 C   0  0  0  0  0  0  0  0  0  0  0  0
    5.5970    5.0960  -13.2540 B   0  0  0  0  0  0  0  0  0  0  0  0
    2.0570    9.7680  -13.9070 H   0  0  0  0  0  0  0  0  0  0  0  0
    1.8600   10.7650  -12.4620 H   0  0  0  0  0  0  0  0  0  0  0  0
    2.1120   12.3820  -14.1770 H   0  0  0  0  0  0  0  0  0  0  0  0
    0.9750   11.5060  -15.2480 H   0  0  0  0  0  0  0  0  0  0  0  0
   -2.0430   12.2150  -13.2950 H   0  0  0  0  0  0  0  0  0  0  0  0
   -1.5410   12.0570  -14.9730 H   0  0  0  0  0  0  0  0  0  0  0  0
   -1.9430    9.9570  -13.2210 H   0  0  0  0  0  0  0  0  0  0  0  0
   -1.1530    9.8650  -14.7910 H   0  0  0  0  0  0  0  0  0  0  0  0
   -1.5170   14.5000  -13.9210 H   0  0  0  0  0  0  0  0  0  0  0  0
   -2.3770   16.7230  -13.4700 H   0  0  0  0  0  0  0  0  0  0  0  0
   -1.6020   17.8290  -12.2030 H   0  0  0  0  0  0  0  0  0  0  0  0
    0.3870   16.9890  -10.9310 H   0  0  0  0  0  0  0  0  0  0  0  0
    3.6760   13.3020  -10.0630 H   0  0  0  0  0  0  0  0  0  0  0  0
    5.0530    7.9850  -14.3280 H   0  0  0  0  0  0  0  0  0  0  0  0
    2.8820    9.3050  -14.2490 H   0  0  0  0  0  0  0  0  0  0  0  0
  1  3  2  0  0  0  0
  2  1  2  0  0  0  0
  4  1  1  0  0  0  0
  5  4  1  0  0  0  0
  5 27  1  0  0  0  0
  6 28  1  0  0  0  0
  6  7  1  0  0  0  0
  6  5  1  0  0  0  0
  8  9  1  0  0  0  0
  8  7  1  0  0  0  0
  8 30  1  0  0  0  0
  9 32  1  0  0  0  0
  9  4  1  0  0  0  0
 10  7  1  1  0  0  0
 10 16  1  0  0  0  0
 11 10  1  0  0  0  0
 11 12  2  0  0  0  0
 12 14  1  0  0  0  0
 13 12  1  0  0  0  0
 13 36  1  0  0  0  0
 14 15  1  0  0  0  0
 14 37  1  0  0  0  0
 15 19  2  0  0  0  0
 16 17  1  0  0  0  0
 16 15  1  0  0  0  0
 17 18  2  0  0  0  0
 18 19  1  0  0  0  0
 18 38  1  0  0  0  0
 20  1  1  0  0  0  0
 20 21  1  0  0  0  0
 22 25  1  0  0  0  0
 22 21  1  0  0  0  0
 23 24  1  0  0  0  0
 23 22  2  0  0  0  0
 24 20  2  0  0  0  0
 26  5  1  0  0  0  0
 29  6  1  0  0  0  0
 31  8  1  0  0  0  0
 33  9  1  0  0  0  0
 34 11  1  0  0  0  0
 35 13  1  0  0  0  0
 39 23  1  0  0  0  0
 40 24  1  0  0  0  0
M  END
>  <Pose>
1

>  <Score>
-6.43

$$$$
