
 OpenBabel03232203513D

 47 50  0  0  1  0  0  0  0  0999 V2000
   -1.3060   11.8080  -13.2460 S   0  0  0  0  0  0  0  0  0  0  0  0
    0.4390   12.0810  -13.7860 C   0  0  0  0  0  0  0  0  0  0  0  0
    1.0690   13.1050  -12.9210 C   0  0  0  0  0  0  0  0  0  0  0  0
    2.2890   12.9550  -12.3070 C   0  0  0  0  0  0  0  0  0  0  0  0
    2.7660   13.8550  -11.4190 C   0  0  0  0  0  0  0  0  0  0  0  0
    2.0460   14.9960  -11.0830 C   0  0  0  0  0  0  0  0  0  0  0  0
    0.7960   15.1790  -11.6890 C   0  0  0  0  0  0  0  0  0  0  0  0
    0.3180   14.2490  -12.5920 C   0  0  0  0  0  0  0  0  0  0  0  0
    3.3340   11.4620  -12.8880 B   0  0  0  0  0  0  0  0  0  0  0  0
   -1.8400   10.1450  -13.6730 C   0  0  0  0  0  0  0  0  0  0  0  0
   -1.1530    9.0220  -13.4640 N   0  0  0  0  0  0  0  0  0  0  0  0
   -1.9550    7.9950  -13.8490 C   0  0  0  0  0  0  0  0  0  0  0  0
   -1.9180    6.6530  -13.8400 N   0  0  0  0  0  0  0  0  0  0  0  0
   -2.9040    5.8390  -14.2300 C   0  0  0  0  0  0  0  0  0  0  0  0
   -4.0740    6.4210  -14.6990 N   0  0  0  0  0  0  0  0  0  0  0  0
   -4.2020    7.7240  -14.7430 C   0  0  0  0  0  0  0  0  0  0  0  0
   -3.1750    8.5460  -14.3280 C   0  0  0  0  0  0  0  0  0  0  0  0
   -3.0440    9.8600  -14.1900 N   0  0  0  0  0  0  0  0  0  0  0  0
   -5.3330    8.3500  -15.2060 O   0  0  0  0  0  0  0  0  0  0  0  0
   -2.8630    4.4050  -14.1670 N   0  0  0  0  0  0  0  0  0  0  0  0
    0.1750    8.8180  -12.9820 C   0  0  2  0  0  0  0  0  0  0  0  0
    1.1260    8.5820  -13.9990 O   0  0  0  0  0  0  0  0  0  0  0  0
    2.2380    8.2520  -13.1910 C   0  0  1  0  0  0  0  0  0  0  0  0
    1.6070    7.0400  -12.4570 C   0  0  2  0  0  0  0  0  0  0  0  0
    0.3560    7.7620  -11.9400 C   0  0  1  0  0  0  0  0  0  0  0  0
    0.7050    8.3270  -10.6870 O   0  0  0  0  0  0  0  0  0  0  0  0
    2.4040    6.5610  -11.4530 O   0  0  0  0  0  0  0  0  0  0  0  0
    3.4250    7.8710  -13.9910 C   0  0  0  0  0  0  0  0  0  0  0  0
    4.4500    8.8120  -13.8350 O   0  0  0  0  0  0  0  0  0  0  0  0
    0.4530   12.3330  -14.8110 H   0  0  0  0  0  0  0  0  0  0  0  0
    0.9350   11.0560  -13.5720 H   0  0  0  0  0  0  0  0  0  0  0  0
    3.7270   13.6920  -10.9650 H   0  0  0  0  0  0  0  0  0  0  0  0
    2.4490   15.7220  -10.3970 H   0  0  0  0  0  0  0  0  0  0  0  0
    0.1830   16.0510  -11.4520 H   0  0  0  0  0  0  0  0  0  0  0  0
   -0.6420   14.3770  -13.0130 H   0  0  0  0  0  0  0  0  0  0  0  0
   -5.3220    9.2210  -15.7230 H   0  0  0  0  0  0  0  0  0  0  0  0
   -3.6420    3.7770  -13.9790 H   0  0  0  0  0  0  0  0  0  0  0  0
   -1.8960    3.9440  -14.2940 H   0  0  0  0  0  0  0  0  0  0  0  0
    0.5400    9.7820  -12.5260 H   0  0  0  0  0  0  0  0  0  0  0  0
    2.4180    9.0260  -12.4430 H   0  0  0  0  0  0  0  0  0  0  0  0
    1.3380    6.2520  -13.1840 H   0  0  0  0  0  0  0  0  0  0  0  0
   -0.4570    7.1020  -11.7450 H   0  0  0  0  0  0  0  0  0  0  0  0
    0.0560    7.9390  -10.0600 H   0  0  0  0  0  0  0  0  0  0  0  0
    2.4660    7.2220  -10.7220 H   0  0  0  0  0  0  0  0  0  0  0  0
    3.1250    8.0000  -15.0790 H   0  0  0  0  0  0  0  0  0  0  0  0
    3.7290    6.8410  -13.8740 H   0  0  0  0  0  0  0  0  0  0  0  0
    4.9110    8.8950  -14.7250 H   0  0  0  0  0  0  0  0  0  0  0  0
  2 31  1  0  0  0  0
  2  1  1  0  0  0  0
  2  3  1  0  0  0  0
  3  8  2  0  0  0  0
  3  4  1  0  0  0  0
  4  5  2  0  0  0  0
  5  6  1  0  0  0  0
  5 32  1  0  0  0  0
  6 33  1  0  0  0  0
  7 34  1  0  0  0  0
  7  6  2  0  0  0  0
  8  7  1  0  0  0  0
  9  4  1  0  0  0  0
 10 11  1  0  0  0  0
 10  1  1  0  0  0  0
 11 21  1  0  0  0  0
 12 13  1  0  0  0  0
 12 11  1  0  0  0  0
 14 20  1  0  0  0  0
 14 13  2  0  0  0  0
 15 14  1  0  0  0  0
 16 15  2  0  0  0  0
 16 17  1  0  0  0  0
 17 18  1  0  0  0  0
 17 12  2  0  0  0  0
 18 10  2  0  0  0  0
 19 16  1  0  0  0  0
 20 37  1  0  0  0  0
 21 39  1  1  0  0  0
 21 25  1  0  0  0  0
 22 23  1  0  0  0  0
 22 21  1  0  0  0  0
 23 24  1  0  0  0  0
 23 40  1  1  0  0  0
 24 41  1  6  0  0  0
 24 25  1  0  0  0  0
 24 27  1  0  0  0  0
 25 42  1  1  0  0  0
 25 26  1  0  0  0  0
 26 43  1  0  0  0  0
 27 44  1  0  0  0  0
 28 46  1  0  0  0  0
 28 29  1  0  0  0  0
 28 23  1  0  0  0  0
 30  2  1  0  0  0  0
 35  8  1  0  0  0  0
 36 19  1  0  0  0  0
 38 20  1  0  0  0  0
 45 28  1  0  0  0  0
 47 29  1  0  0  0  0
M  END
>  <Pose>
1

>  <Score>
-7.03

$$$$
