
 OpenBabel03232203513D

 39 42  0  0  1  0  0  0  0  0999 V2000
   -2.0670   18.2490  -10.9160 S   0  0  0  0  0  0  0  0  0  0  0  0
   -3.4390   18.3140  -10.3120 O   0  0  0  0  0  0  0  0  0  0  0  0
   -1.1750   19.3400  -10.3920 O   0  0  0  0  0  0  0  0  0  0  0  0
   -1.3110   16.6610  -10.6400 C   0  0  0  0  0  0  0  0  0  0  0  0
   -0.3160   16.4740  -11.7670 C   0  0  2  0  0  0  0  0  0  0  0  0
   -1.0460   16.2720  -13.0030 N   0  0  0  0  0  0  0  0  0  0  0  0
   -2.2720   16.9970  -13.2610 C   0  0  0  0  0  0  0  0  0  0  0  0
   -2.1600   18.4180  -12.7040 C   0  0  0  0  0  0  0  0  0  0  0  0
   -0.2910   15.3090  -13.7270 C   0  0  0  0  0  0  0  0  0  0  0  0
   -0.4300   15.0220  -14.9640 O   0  0  0  0  0  0  0  0  0  0  0  0
    0.6680   14.6850  -12.8830 N   0  0  0  0  0  0  0  0  0  0  0  0
    0.5070   15.2720  -11.6010 C   0  0  0  0  0  0  0  0  0  0  0  0
    0.9790   14.8520  -10.5040 O   0  0  0  0  0  0  0  0  0  0  0  0
    1.6310   13.6510  -13.2320 C   0  0  1  0  0  0  0  0  0  0  0  0
    2.7120   13.5270  -12.1720 C   0  0  0  0  0  0  0  0  0  0  0  0
    3.7020   12.4880  -12.7040 C   0  0  0  0  0  0  0  0  0  0  0  0
    3.0060   11.2550  -12.7180 O   0  0  0  0  0  0  0  0  0  0  0  0
    1.6640   11.2020  -13.0780 C   0  0  0  0  0  0  0  0  0  0  0  0
    0.9590   12.3430  -13.3360 C   0  0  0  0  0  0  0  0  0  0  0  0
   -0.3610   12.2910  -13.6890 C   0  0  0  0  0  0  0  0  0  0  0  0
   -0.9710   11.0630  -13.7800 C   0  0  0  0  0  0  0  0  0  0  0  0
   -0.2510    9.9250  -13.5190 C   0  0  0  0  0  0  0  0  0  0  0  0
    1.0850    9.9440  -13.1590 C   0  0  0  0  0  0  0  0  0  0  0  0
    2.0720    8.3600  -12.7990 B   0  0  0  0  0  0  0  0  0  0  0  0
   -2.1140   15.8990  -10.8120 H   0  0  0  0  0  0  0  0  0  0  0  0
   -0.8540   16.5820   -9.6420 H   0  0  0  0  0  0  0  0  0  0  0  0
    0.3400   17.3500  -11.9120 H   0  0  0  0  0  0  0  0  0  0  0  0
   -3.1530   16.5220  -12.7920 H   0  0  0  0  0  0  0  0  0  0  0  0
   -2.4680   17.1250  -14.3540 H   0  0  0  0  0  0  0  0  0  0  0  0
   -1.3060   18.9570  -13.1070 H   0  0  0  0  0  0  0  0  0  0  0  0
   -3.1380   18.9030  -12.9130 H   0  0  0  0  0  0  0  0  0  0  0  0
    2.1370   13.8550  -14.1820 H   0  0  0  0  0  0  0  0  0  0  0  0
    3.2280   14.4750  -11.9760 H   0  0  0  0  0  0  0  0  0  0  0  0
    2.3020   13.0990  -11.2350 H   0  0  0  0  0  0  0  0  0  0  0  0
    3.8810   12.7580  -13.7740 H   0  0  0  0  0  0  0  0  0  0  0  0
    4.6200   12.4460  -12.1200 H   0  0  0  0  0  0  0  0  0  0  0  0
   -0.9110   13.2210  -13.8930 H   0  0  0  0  0  0  0  0  0  0  0  0
   -2.0170   11.0090  -14.0600 H   0  0  0  0  0  0  0  0  0  0  0  0
   -0.7510    8.9710  -13.5970 H   0  0  0  0  0  0  0  0  0  0  0  0
  1  4  1  0  0  0  0
  1  3  2  0  0  0  0
  1  2  2  0  0  0  0
  4 26  1  0  0  0  0
  5 27  1  6  0  0  0
  5 12  1  0  0  0  0
  5  4  1  0  0  0  0
  6  5  1  0  0  0  0
  7  6  1  0  0  0  0
  7 28  1  0  0  0  0
  7  8  1  0  0  0  0
  8  1  1  0  0  0  0
  9  6  1  0  0  0  0
  9 11  1  0  0  0  0
 10  9  2  0  0  0  0
 11 12  1  0  0  0  0
 12 13  2  0  0  0  0
 14 32  1  6  0  0  0
 14 11  1  0  0  0  0
 14 15  1  0  0  0  0
 15 33  1  0  0  0  0
 15 34  1  0  0  0  0
 16 15  1  0  0  0  0
 16 36  1  0  0  0  0
 17 16  1  0  0  0  0
 18 17  1  0  0  0  0
 19 14  1  0  0  0  0
 19 18  2  0  0  0  0
 20 19  1  0  0  0  0
 21 20  2  0  0  0  0
 21 22  1  0  0  0  0
 22 23  2  0  0  0  0
 23 18  1  0  0  0  0
 23 24  1  0  0  0  0
 25  4  1  0  0  0  0
 29  7  1  0  0  0  0
 30  8  1  0  0  0  0
 31  8  1  0  0  0  0
 35 16  1  0  0  0  0
 37 20  1  0  0  0  0
 38 21  1  0  0  0  0
 39 22  1  0  0  0  0
M  END
>  <Pose>
1

>  <Score>
-4.63

$$$$
