
 OpenBabel03232203513D

 36 39  0  0  1  0  0  0  0  0999 V2000
    3.6190   13.1880  -12.3670 S   0  0  0  0  0  0  0  0  0  0  0  0
    2.0400   13.5220  -11.8150 C   0  0  0  0  0  0  0  0  0  0  0  0
    1.3180   12.4650  -12.3050 C   0  0  0  0  0  0  0  0  0  0  0  0
    1.9720   11.5430  -13.0150 C   0  0  0  0  0  0  0  0  0  0  0  0
    3.3180   11.7300  -13.1970 C   0  0  0  0  0  0  0  0  0  0  0  0
    1.1260    9.9790  -13.7890 B   0  0  0  0  0  0  0  0  0  0  0  0
    1.5460   14.6610  -11.0070 C   0  0  0  0  0  0  0  0  0  0  0  0
    2.1200   14.8370   -9.9040 O   0  0  0  0  0  0  0  0  0  0  0  0
    0.4940   15.4830  -11.4700 N   0  0  0  0  0  0  0  0  0  0  0  0
    0.4260   15.9440  -12.8490 C   0  0  2  0  0  0  0  0  0  0  0  0
    0.1430   17.4220  -12.9320 C   0  0  0  0  0  0  0  0  0  0  0  0
   -1.2540   17.4770  -12.5270 N   0  0  0  0  0  0  0  0  0  0  0  0
   -1.9060   16.4290  -13.2750 C   0  0  0  0  0  0  0  0  0  0  0  0
   -0.8370   15.3680  -13.4520 C   0  0  0  0  0  0  0  0  0  0  0  0
   -1.8080   18.4030  -11.5790 C   0  0  0  0  0  0  0  0  0  0  0  0
   -1.1290   18.7530  -10.4700 N   0  0  0  0  0  0  0  0  0  0  0  0
   -1.6740   19.6210   -9.6010 C   0  0  0  0  0  0  0  0  0  0  0  0
   -2.9140   20.1720   -9.8010 C   0  0  0  0  0  0  0  0  0  0  0  0
   -3.6050   19.8330  -10.9030 N   0  0  0  0  0  0  0  0  0  0  0  0
   -3.0490   18.9620  -11.7680 C   0  0  0  0  0  0  0  0  0  0  0  0
   -3.9600   18.8220  -12.7510 N   0  0  0  0  0  0  0  0  0  0  0  0
   -5.0290   19.5640  -12.5170 N   0  0  0  0  0  0  0  0  0  0  0  0
   -4.8250   20.2090  -11.3570 C   0  0  0  0  0  0  0  0  0  0  0  0
    0.2280   12.4240  -12.0900 H   0  0  0  0  0  0  0  0  0  0  0  0
    4.0530   11.1150  -13.7350 H   0  0  0  0  0  0  0  0  0  0  0  0
   -0.2490   15.7560  -10.7890 H   0  0  0  0  0  0  0  0  0  0  0  0
    1.3280   15.7120  -13.4120 H   0  0  0  0  0  0  0  0  0  0  0  0
    0.7940   18.0390  -12.3120 H   0  0  0  0  0  0  0  0  0  0  0  0
    0.1950   17.7030  -14.0010 H   0  0  0  0  0  0  0  0  0  0  0  0
   -2.8150   16.0290  -12.8170 H   0  0  0  0  0  0  0  0  0  0  0  0
   -2.1300   16.8430  -14.2790 H   0  0  0  0  0  0  0  0  0  0  0  0
   -1.1790   14.4570  -12.9100 H   0  0  0  0  0  0  0  0  0  0  0  0
   -0.6550   15.1560  -14.5270 H   0  0  0  0  0  0  0  0  0  0  0  0
   -1.1120   19.8970   -8.7050 H   0  0  0  0  0  0  0  0  0  0  0  0
   -3.3570   20.8730   -9.1030 H   0  0  0  0  0  0  0  0  0  0  0  0
   -5.4840   20.8930  -10.8640 H   0  0  0  0  0  0  0  0  0  0  0  0
  1  2  1  0  0  0  0
  2  7  1  0  0  0  0
  3 24  1  0  0  0  0
  3  2  2  0  0  0  0
  4  3  1  0  0  0  0
  5  4  2  0  0  0  0
  5  1  1  0  0  0  0
  6  4  1  0  0  0  0
  7  8  2  0  0  0  0
  9  7  1  0  0  0  0
  9 26  1  0  0  0  0
 10 27  1  6  0  0  0
 10  9  1  0  0  0  0
 11 10  1  0  0  0  0
 11 12  1  0  0  0  0
 11 28  1  0  0  0  0
 12 15  1  0  0  0  0
 13 30  1  0  0  0  0
 13 12  1  0  0  0  0
 14 13  1  0  0  0  0
 14 32  1  0  0  0  0
 14 10  1  0  0  0  0
 15 16  2  0  0  0  0
 16 17  1  0  0  0  0
 17 34  1  0  0  0  0
 18 17  2  0  0  0  0
 18 35  1  0  0  0  0
 19 18  1  0  0  0  0
 20 15  1  0  0  0  0
 20 19  1  0  0  0  0
 21 22  1  0  0  0  0
 21 20  2  0  0  0  0
 22 23  2  0  0  0  0
 23 19  1  0  0  0  0
 23 36  1  0  0  0  0
 25  5  1  0  0  0  0
 29 11  1  0  0  0  0
 31 13  1  0  0  0  0
 33 14  1  0  0  0  0
M  END
>  <Pose>
1

>  <Score>
-7.43

$$$$
