
 OpenBabel03232203513D

 34 37  0  0  1  0  0  0  0  0999 V2000
    2.9630    8.0780  -13.9120 S   0  0  0  0  0  0  0  0  0  0  0  0
    1.5270    8.5880  -13.1600 C   0  0  0  0  0  0  0  0  0  0  0  0
    1.7080    9.9370  -13.0060 C   0  0  0  0  0  0  0  0  0  0  0  0
    2.8770   10.4480  -13.4550 C   0  0  0  0  0  0  0  0  0  0  0  0
    3.7640    9.5750  -14.0190 C   0  0  0  0  0  0  0  0  0  0  0  0
    3.1950   11.9280  -13.3480 C   0  0  1  0  0  0  0  0  0  0  0  0
    2.8870   12.4970  -11.9560 C   0  0  1  0  0  0  0  0  0  0  0  0
    4.2750   12.3240  -12.4410 C   0  0  0  0  0  0  0  0  0  0  0  0
    2.2560   13.8630  -11.9970 C   0  0  0  0  0  0  0  0  0  0  0  0
    1.0320   14.1880  -12.4500 N   0  0  0  0  0  0  0  0  0  0  0  0
    0.8250   15.5110  -12.3230 C   0  0  0  0  0  0  0  0  0  0  0  0
    1.9570   15.9880  -11.7780 N   0  0  0  0  0  0  0  0  0  0  0  0
    2.7930   14.9900  -11.5930 O   0  0  0  0  0  0  0  0  0  0  0  0
   -0.3600   16.2870  -12.6870 C   0  0  0  0  0  0  0  0  0  0  0  0
   -0.9520   17.2310  -11.9360 N   0  0  0  0  0  0  0  0  0  0  0  0
   -2.0100   17.7330  -12.5810 N   0  0  0  0  0  0  0  0  0  0  0  0
   -2.1090   17.1060  -13.7750 C   0  0  0  0  0  0  0  0  0  0  0  0
   -1.0850   16.2220  -13.8160 N   0  0  0  0  0  0  0  0  0  0  0  0
   -2.9020   18.7720  -12.0940 C   0  0  0  0  0  0  0  0  0  0  0  0
   -2.5980   19.0250  -10.6690 C   0  0  0  0  0  0  0  0  0  0  0  0
   -3.2660   18.4280   -9.7980 O   0  0  0  0  0  0  0  0  0  0  0  0
   -1.5670   19.9270  -10.3150 N   0  0  0  0  0  0  0  0  0  0  0  0
   -0.0140    7.5510  -12.6320 B   0  0  0  0  0  0  0  0  0  0  0  0
    0.8950   10.5450  -12.5240 H   0  0  0  0  0  0  0  0  0  0  0  0
    4.7620    9.8290  -14.4340 H   0  0  0  0  0  0  0  0  0  0  0  0
    3.0080   12.5640  -14.2130 H   0  0  0  0  0  0  0  0  0  0  0  0
    2.4870   11.8280  -11.1960 H   0  0  0  0  0  0  0  0  0  0  0  0
    4.8200   13.2830  -12.6450 H   0  0  0  0  0  0  0  0  0  0  0  0
    4.8690   11.5450  -11.9150 H   0  0  0  0  0  0  0  0  0  0  0  0
   -2.8690   17.3000  -14.5170 H   0  0  0  0  0  0  0  0  0  0  0  0
   -3.9470   18.4540  -12.2690 H   0  0  0  0  0  0  0  0  0  0  0  0
   -2.7260   19.7320  -12.6330 H   0  0  0  0  0  0  0  0  0  0  0  0
   -1.6060   20.9480  -10.5850 H   0  0  0  0  0  0  0  0  0  0  0  0
   -0.7130   19.6540   -9.7710 H   0  0  0  0  0  0  0  0  0  0  0  0
  1  2  1  0  0  0  0
  2  3  2  0  0  0  0
  2 23  1  0  0  0  0
  3 24  1  0  0  0  0
  4  6  1  0  0  0  0
  4  3  1  0  0  0  0
  5  1  1  0  0  0  0
  5  4  2  0  0  0  0
  6 26  1  6  0  0  0
  6  8  1  0  0  0  0
  6  7  1  0  0  0  0
  7 27  1  1  0  0  0
  8  7  1  0  0  0  0
  8 29  1  0  0  0  0
  9  7  1  0  0  0  0
  9 13  1  0  0  0  0
 10 11  1  0  0  0  0
 10  9  2  0  0  0  0
 11 12  2  0  0  0  0
 12 13  1  0  0  0  0
 14 11  1  0  0  0  0
 14 15  2  0  0  0  0
 16 19  1  0  0  0  0
 16 15  1  0  0  0  0
 17 16  1  0  0  0  0
 18 17  2  0  0  0  0
 18 14  1  0  0  0  0
 19 20  1  0  0  0  0
 20 22  1  0  0  0  0
 20 21  2  0  0  0  0
 22 34  1  0  0  0  0
 25  5  1  0  0  0  0
 28  8  1  0  0  0  0
 30 17  1  0  0  0  0
 31 19  1  0  0  0  0
 32 19  1  0  0  0  0
 33 22  1  0  0  0  0
M  END
>  <Pose>
1

>  <Score>
-7.70

$$$$
