
 OpenBabel03232203513D

 51 54  0  0  0  0  0  0  0  0999 V2000
   -8.1770   10.8200  -15.9910 S   0  0  0  0  0  0  0  0  0  0  0  0
   -9.4890   11.8630  -15.7130 C   0  0  0  0  0  0  0  0  0  0  0  0
   -9.2580   12.3070  -14.4400 C   0  0  0  0  0  0  0  0  0  0  0  0
   -8.1730   11.8510  -13.8120 C   0  0  0  0  0  0  0  0  0  0  0  0
   -7.3670   10.9710  -14.4900 C   0  0  0  0  0  0  0  0  0  0  0  0
   -6.1270   10.3440  -14.0210 C   0  0  0  0  0  0  0  0  0  0  0  0
   -6.2240    9.5200  -13.0780 O   0  0  0  0  0  0  0  0  0  0  0  0
   -4.8100   10.6600  -14.6280 C   0  0  0  0  0  0  0  0  0  0  0  0
   -3.8330    9.6350  -14.3610 N   0  0  0  0  0  0  0  0  0  0  0  0
   -3.9490    8.3450  -14.7590 C   0  0  0  0  0  0  0  0  0  0  0  0
   -2.8610    7.6370  -14.3470 C   0  0  0  0  0  0  0  0  0  0  0  0
   -2.7520    6.2890  -14.6350 C   0  0  0  0  0  0  0  0  0  0  0  0
   -3.7580    5.6730  -15.3440 C   0  0  0  0  0  0  0  0  0  0  0  0
   -4.8640    6.3640  -15.7700 C   0  0  0  0  0  0  0  0  0  0  0  0
   -4.9420    7.7050  -15.4660 C   0  0  0  0  0  0  0  0  0  0  0  0
   -2.0710    8.4950  -13.6950 N   0  0  0  0  0  0  0  0  0  0  0  0
   -2.6720    9.7190  -13.7060 C   0  0  0  0  0  0  0  0  0  0  0  0
   -2.1030   10.7230  -13.1500 N   0  0  0  0  0  0  0  0  0  0  0  0
   -0.8010    8.1450  -13.0750 C   0  0  0  0  0  0  0  0  0  0  0  0
    0.2990    9.0000  -13.7230 C   0  0  0  0  0  0  0  0  0  0  0  0
    1.3150    9.3720  -12.7800 N   0  0  0  0  0  4  0  0  0  0  0  0
    2.2350    8.3020  -12.4510 C   0  0  0  0  0  0  0  0  0  0  0  0
    2.8200    7.6650  -13.6800 C   0  0  0  0  0  0  0  0  0  0  0  0
    3.3370    8.6540  -14.6700 C   0  0  0  0  0  0  0  0  0  0  0  0
    2.6870    9.9910  -14.6550 C   0  0  0  0  0  0  0  0  0  0  0  0
    2.1080   10.4300  -13.3570 C   0  0  0  0  0  0  0  0  0  0  0  0
  -10.9180   12.2870  -16.9040 B   0  0  0  0  0  0  0  0  0  0  0  0
   -9.9830   13.0280  -13.9860 H   0  0  0  0  0  0  0  0  0  0  0  0
   -7.9100   12.1640  -12.7750 H   0  0  0  0  0  0  0  0  0  0  0  0
   -4.4530   11.6730  -14.3020 H   0  0  0  0  0  0  0  0  0  0  0  0
   -4.9380   10.7620  -15.7340 H   0  0  0  0  0  0  0  0  0  0  0  0
   -1.8710    5.7590  -14.2890 H   0  0  0  0  0  0  0  0  0  0  0  0
   -3.7130    4.6210  -15.5880 H   0  0  0  0  0  0  0  0  0  0  0  0
   -5.6750    5.9080  -16.3290 H   0  0  0  0  0  0  0  0  0  0  0  0
   -5.7910    8.2790  -15.7820 H   0  0  0  0  0  0  0  0  0  0  0  0
   -2.4220   11.6880  -13.0900 H   0  0  0  0  0  0  0  0  0  0  0  0
   -0.5390    7.0740  -13.1920 H   0  0  0  0  0  0  0  0  0  0  0  0
   -0.7900    8.4380  -11.9960 H   0  0  0  0  0  0  0  0  0  0  0  0
   -0.2110    9.9280  -14.0620 H   0  0  0  0  0  0  0  0  0  0  0  0
    0.6900    8.3800  -14.5530 H   0  0  0  0  0  0  0  0  0  0  0  0
    0.8840    9.6640  -11.8760 H   0  0  0  0  0  0  0  0  0  0  0  0
    3.0350    8.7470  -11.8360 H   0  0  0  0  0  0  0  0  0  0  0  0
    1.6980    7.5260  -11.8720 H   0  0  0  0  0  0  0  0  0  0  0  0
    2.0880    6.9440  -14.1450 H   0  0  0  0  0  0  0  0  0  0  0  0
    3.6660    7.0290  -13.3390 H   0  0  0  0  0  0  0  0  0  0  0  0
    4.4360    8.7730  -14.5200 H   0  0  0  0  0  0  0  0  0  0  0  0
    3.1860    8.2160  -15.7000 H   0  0  0  0  0  0  0  0  0  0  0  0
    3.4680   10.7360  -14.9990 H   0  0  0  0  0  0  0  0  0  0  0  0
    1.9080   10.0470  -15.4510 H   0  0  0  0  0  0  0  0  0  0  0  0
    2.9140   10.7630  -12.6660 H   0  0  0  0  0  0  0  0  0  0  0  0
    1.3970   11.2610  -13.5720 H   0  0  0  0  0  0  0  0  0  0  0  0
  1  2  1  0  0  0  0
  1  5  1  0  0  0  0
  2  3  2  0  0  0  0
  3 28  1  0  0  0  0
  3  4  1  0  0  0  0
  4 29  1  0  0  0  0
  5  6  1  0  0  0  0
  5  4  2  0  0  0  0
  6  7  2  0  0  0  0
  8  9  1  0  0  0  0
  8 30  1  0  0  0  0
  8  6  1  0  0  0  0
  9 17  1  0  0  0  0
 10  9  1  0  0  0  0
 10 11  1  0  0  0  0
 11 16  1  0  0  0  0
 12 11  2  0  0  0  0
 12 32  1  0  0  0  0
 13 12  1  0  0  0  0
 14 15  1  0  0  0  0
 14 13  2  0  0  0  0
 15 10  2  0  0  0  0
 16 19  1  0  0  0  0
 17 16  1  0  0  0  0
 17 18  2  0  0  0  0
 18 36  1  0  0  0  0
 19 38  1  0  0  0  0
 20 19  1  0  0  0  0
 20 21  1  0  0  0  0
 21 22  1  0  0  0  0
 21 41  1  0  0  0  0
 22 43  1  0  0  0  0
 22 42  1  0  0  0  0
 23 45  1  0  0  0  0
 23 22  1  0  0  0  0
 24 25  1  0  0  0  0
 24 46  1  0  0  0  0
 24 23  1  0  0  0  0
 25 26  1  0  0  0  0
 26 21  1  0  0  0  0
 26 50  1  0  0  0  0
 27  2  1  0  0  0  0
 31  8  1  0  0  0  0
 33 13  1  0  0  0  0
 34 14  1  0  0  0  0
 35 15  1  0  0  0  0
 37 19  1  0  0  0  0
 39 20  1  0  0  0  0
 40 20  1  0  0  0  0
 44 23  1  0  0  0  0
 47 24  1  0  0  0  0
 48 25  1  0  0  0  0
 49 25  1  0  0  0  0
 51 26  1  0  0  0  0
M  END
>  <Pose>
1

>  <Score>
-6.58

$$$$
