
 OpenBabel03232203513D

 55 58  0  0  1  0  0  0  0  0999 V2000
    1.4110    8.4030  -12.0260 S   0  0  0  0  0  0  0  0  0  0  0  0
    0.9520    7.0880  -13.0030 C   0  0  0  0  0  0  0  0  0  0  0  0
    1.4010    7.4480  -14.1890 N   0  0  0  0  0  0  0  0  0  0  0  0
    2.0160    8.5800  -14.3390 C   0  0  0  0  0  0  0  0  0  0  0  0
    2.1780    9.3720  -13.2270 C   0  0  0  0  0  0  0  0  0  0  0  0
    2.7870   10.7030  -13.0870 C   0  0  0  0  0  0  0  0  0  0  0  0
    1.9930   11.7420  -13.2440 C   0  0  0  0  0  0  0  0  0  0  0  0
    2.3130   13.1990  -13.1570 C   0  0  1  0  0  0  0  0  0  0  0  0
    1.2360   13.6630  -12.3710 N   0  0  0  0  0  0  0  0  0  0  0  0
    0.0740   13.0320  -13.0380 C   0  0  0  0  0  0  0  0  0  0  0  0
   -1.1010   13.4820  -13.1020 O   0  0  0  0  0  0  0  0  0  0  0  0
    0.5760   11.7830  -13.6020 C   0  0  0  0  0  0  0  0  0  0  0  0
   -0.0250   10.8840  -14.2680 O   0  0  0  0  0  0  0  0  0  0  0  0
    0.9560   14.5350  -11.2820 C   0  0  0  0  0  0  0  0  0  0  0  0
    0.6090   15.9400  -11.5290 C   0  0  0  0  0  0  0  0  0  0  0  0
   -0.6240   16.3230  -12.0870 N   0  0  0  0  0  4  0  0  0  0  0  0
   -1.0340   17.6770  -11.7780 C   0  0  0  0  0  0  0  0  0  0  0  0
   -2.4380   17.8380  -12.3510 C   0  0  0  0  0  0  0  0  0  0  0  0
   -2.7200   16.8300  -13.2720 O   0  0  0  0  0  0  0  0  0  0  0  0
   -1.6540   16.8520  -14.1940 C   0  0  0  0  0  0  0  0  0  0  0  0
   -0.3730   16.3840  -13.5640 C   0  0  0  0  0  0  0  0  0  0  0  0
    3.6770   13.5660  -12.9960 C   0  0  0  0  0  0  0  0  0  0  0  0
    4.1910   13.7150  -11.7040 C   0  0  0  0  0  0  0  0  0  0  0  0
    5.4880   14.0840  -11.4600 C   0  0  0  0  0  0  0  0  0  0  0  0
    6.3100   14.3130  -12.5430 C   0  0  0  0  0  0  0  0  0  0  0  0
    5.8230   14.1720  -13.8260 C   0  0  0  0  0  0  0  0  0  0  0  0
    4.5160   13.8010  -14.0460 C   0  0  0  0  0  0  0  0  0  0  0  0
    8.1350   14.8300  -12.2920 B   0  0  0  0  0  0  0  0  0  0  0  0
    4.1280   10.8930  -12.8030 O   0  0  0  0  0  0  0  0  0  0  0  0
    2.5020    9.0330  -15.7070 C   0  0  0  0  0  0  0  0  0  0  0  0
    0.2220    5.8300  -12.6180 C   0  0  0  0  0  0  0  0  0  0  0  0
    2.0310   13.5520  -14.2260 H   0  0  0  0  0  0  0  0  0  0  0  0
    1.8680   14.5460  -10.6010 H   0  0  0  0  0  0  0  0  0  0  0  0
    0.1620   14.1340  -10.5990 H   0  0  0  0  0  0  0  0  0  0  0  0
    1.4100   16.3600  -12.2240 H   0  0  0  0  0  0  0  0  0  0  0  0
    0.7960   16.4950  -10.5470 H   0  0  0  0  0  0  0  0  0  0  0  0
   -1.3460   15.6080  -11.9580 H   0  0  0  0  0  0  0  0  0  0  0  0
   -1.1010   17.8870  -10.7090 H   0  0  0  0  0  0  0  0  0  0  0  0
   -0.3200   18.3730  -12.2890 H   0  0  0  0  0  0  0  0  0  0  0  0
   -2.4570   18.8550  -12.8280 H   0  0  0  0  0  0  0  0  0  0  0  0
   -3.2060   17.7560  -11.5540 H   0  0  0  0  0  0  0  0  0  0  0  0
   -1.9030   16.2510  -15.0830 H   0  0  0  0  0  0  0  0  0  0  0  0
   -1.5350   17.9440  -14.4520 H   0  0  0  0  0  0  0  0  0  0  0  0
   -0.0360   15.4030  -13.8950 H   0  0  0  0  0  0  0  0  0  0  0  0
    0.4280   17.1440  -13.6680 H   0  0  0  0  0  0  0  0  0  0  0  0
    3.5560   13.5420  -10.8190 H   0  0  0  0  0  0  0  0  0  0  0  0
    5.8720   14.1950  -10.4370 H   0  0  0  0  0  0  0  0  0  0  0  0
    6.4950   14.3580  -14.6630 H   0  0  0  0  0  0  0  0  0  0  0  0
    4.1710   13.7180  -15.1020 H   0  0  0  0  0  0  0  0  0  0  0  0
    1.7110    8.7690  -16.4470 H   0  0  0  0  0  0  0  0  0  0  0  0
    3.4060    8.5160  -16.0200 H   0  0  0  0  0  0  0  0  0  0  0  0
    2.6700   10.1180  -15.7130 H   0  0  0  0  0  0  0  0  0  0  0  0
   -0.5250    5.5410  -13.3780 H   0  0  0  0  0  0  0  0  0  0  0  0
   -0.2620    6.0310  -11.6180 H   0  0  0  0  0  0  0  0  0  0  0  0
    0.9870    5.0510  -12.4360 H   0  0  0  0  0  0  0  0  0  0  0  0
  2 31  1  0  0  0  0
  2  1  1  0  0  0  0
  3  2  2  0  0  0  0
  4  3  1  0  0  0  0
  4  5  2  0  0  0  0
  5  6  1  0  0  0  0
  5  1  1  0  0  0  0
  6 29  1  0  0  0  0
  7  8  1  0  0  0  0
  7  6  2  0  0  0  0
  8 32  1  6  0  0  0
  8 22  1  0  0  0  0
  8  9  1  0  0  0  0
  9 14  1  0  0  0  0
 10  9  1  0  0  0  0
 11 10  2  0  0  0  0
 12  7  1  0  0  0  0
 12 10  1  0  0  0  0
 13 12  2  0  0  0  0
 14 33  1  0  0  0  0
 14 34  1  0  0  0  0
 15 14  1  0  0  0  0
 15 36  1  0  0  0  0
 16 37  1  0  0  0  0
 16 17  1  0  0  0  0
 16 15  1  0  0  0  0
 17 38  1  0  0  0  0
 18 17  1  0  0  0  0
 18 41  1  0  0  0  0
 19 18  1  0  0  0  0
 20 21  1  0  0  0  0
 20 19  1  0  0  0  0
 21 16  1  0  0  0  0
 22 23  1  0  0  0  0
 23 24  2  0  0  0  0
 23 46  1  0  0  0  0
 24 47  1  0  0  0  0
 25 28  1  0  0  0  0
 25 24  1  0  0  0  0
 26 25  2  0  0  0  0
 27 26  1  0  0  0  0
 27 22  2  0  0  0  0
 30  4  1  0  0  0  0
 31 55  1  0  0  0  0
 31 54  1  0  0  0  0
 35 15  1  0  0  0  0
 39 17  1  0  0  0  0
 40 18  1  0  0  0  0
 42 20  1  0  0  0  0
 43 20  1  0  0  0  0
 44 21  1  0  0  0  0
 45 21  1  0  0  0  0
 48 26  1  0  0  0  0
 49 27  1  0  0  0  0
 50 30  1  0  0  0  0
 51 30  1  0  0  0  0
 52 30  1  0  0  0  0
 53 31  1  0  0  0  0
M  END
>  <Pose>
1

>  <Score>
-3.81

$$$$
