
 OpenBabel03232203513D

 46 49  0  0  1  0  0  0  0  0999 V2000
    3.1200   12.2280  -12.3340 S   0  0  0  0  0  0  0  0  0  0  0  0
    3.1470   11.2690  -13.7460 C   0  0  0  0  0  0  0  0  0  0  0  0
    1.8280   11.2060  -14.1010 C   0  0  0  0  0  0  0  0  0  0  0  0
    0.9450   11.8630  -13.3080 C   0  0  0  0  0  0  0  0  0  0  0  0
    1.4560   12.5280  -12.2220 C   0  0  0  0  0  0  0  0  0  0  0  0
    0.5880   13.2860  -11.2720 C   0  0  0  0  0  0  0  0  0  0  0  0
   -0.5660   13.8620  -11.8710 N   0  0  0  0  0  4  0  0  0  0  0  0
   -0.9070   13.3960  -13.1720 C   0  0  0  0  0  0  0  0  0  0  0  0
   -0.5770   11.9660  -13.4620 C   0  0  0  0  0  0  0  0  0  0  0  0
   -1.7060   13.8150  -10.9650 C   0  0  0  0  0  0  0  0  0  0  0  0
    1.5790   10.4100  -15.3420 C   0  0  0  0  0  0  0  0  0  0  0  0
    0.3880   10.2780  -15.7750 O   0  0  0  0  0  0  0  0  0  0  0  0
    2.6640    9.8110  -16.0230 N   0  0  0  0  0  0  0  0  0  0  0  0
    3.8670    9.4360  -15.3130 C   0  0  1  0  0  0  0  0  0  0  0  0
    4.1960   10.6100  -14.5050 N   0  0  0  0  0  0  0  0  0  0  0  0
    3.5190    8.2940  -14.4270 C   0  0  0  0  0  0  0  0  0  0  0  0
    4.4320    7.2920  -14.1780 C   0  0  0  0  0  0  0  0  0  0  0  0
    4.1290    6.2250  -13.3600 C   0  0  0  0  0  0  0  0  0  0  0  0
    2.8740    6.1520  -12.7710 C   0  0  0  0  0  0  0  0  0  0  0  0
    1.9400    7.1390  -13.0020 C   0  0  0  0  0  0  0  0  0  0  0  0
    2.2700    8.1790  -13.8140 C   0  0  0  0  0  0  0  0  0  0  0  0
    0.7060    7.0200  -12.3920 O   0  0  0  0  0  0  0  0  0  0  0  0
   -0.5310    7.2100  -13.0020 C   0  0  0  0  0  0  0  0  0  0  0  0
   -1.0390    5.9330  -13.6360 C   0  0  0  0  0  0  0  0  0  0  0  0
    2.5450    5.0830  -11.9410 O   0  0  0  0  0  0  0  0  0  0  0  0
    5.3820    4.8330  -13.0070 B   0  0  0  0  0  0  0  0  0  0  0  0
    0.2510   12.5460  -10.5040 H   0  0  0  0  0  0  0  0  0  0  0  0
    1.2190   14.0190  -10.7350 H   0  0  0  0  0  0  0  0  0  0  0  0
   -0.3600   14.9050  -11.9740 H   0  0  0  0  0  0  0  0  0  0  0  0
   -0.4710   14.0310  -13.9700 H   0  0  0  0  0  0  0  0  0  0  0  0
   -2.0220   13.5020  -13.2860 H   0  0  0  0  0  0  0  0  0  0  0  0
   -1.0740   11.2630  -12.7730 H   0  0  0  0  0  0  0  0  0  0  0  0
   -0.8430   11.7860  -14.5170 H   0  0  0  0  0  0  0  0  0  0  0  0
   -2.3050   14.7440  -10.9970 H   0  0  0  0  0  0  0  0  0  0  0  0
   -1.3180   13.6750   -9.9240 H   0  0  0  0  0  0  0  0  0  0  0  0
   -2.3900   12.9800  -11.2100 H   0  0  0  0  0  0  0  0  0  0  0  0
    2.6010    9.6370  -17.0510 H   0  0  0  0  0  0  0  0  0  0  0  0
    4.6950    9.2070  -15.9900 H   0  0  0  0  0  0  0  0  0  0  0  0
    5.1410   11.0210  -14.4260 H   0  0  0  0  0  0  0  0  0  0  0  0
    5.4070    7.3260  -14.6210 H   0  0  0  0  0  0  0  0  0  0  0  0
    1.5680    8.9580  -14.0130 H   0  0  0  0  0  0  0  0  0  0  0  0
   -1.2420    7.5910  -12.2390 H   0  0  0  0  0  0  0  0  0  0  0  0
   -0.4670    7.9810  -13.7980 H   0  0  0  0  0  0  0  0  0  0  0  0
   -0.2920    5.1380  -13.4390 H   0  0  0  0  0  0  0  0  0  0  0  0
   -2.0580    5.6800  -13.2680 H   0  0  0  0  0  0  0  0  0  0  0  0
   -1.0620    6.0310  -14.7560 H   0  0  0  0  0  0  0  0  0  0  0  0
  1  5  1  0  0  0  0
  2  1  1  0  0  0  0
  3  2  2  0  0  0  0
  3  4  1  0  0  0  0
  4  5  2  0  0  0  0
  5  6  1  0  0  0  0
  6 28  1  0  0  0  0
  6 27  1  0  0  0  0
  7  6  1  0  0  0  0
  7 10  1  0  0  0  0
  8  7  1  0  0  0  0
  9  4  1  0  0  0  0
  9  8  1  0  0  0  0
  9 32  1  0  0  0  0
 10 35  1  0  0  0  0
 11  3  1  0  0  0  0
 12 11  2  0  0  0  0
 13 11  1  0  0  0  0
 13 14  1  0  0  0  0
 14 38  1  6  0  0  0
 14 15  1  0  0  0  0
 14 16  1  0  0  0  0
 15 39  1  0  0  0  0
 15  2  1  0  0  0  0
 16 17  2  0  0  0  0
 16 21  1  0  0  0  0
 17 18  1  0  0  0  0
 18 26  1  0  0  0  0
 18 19  2  0  0  0  0
 19 25  1  0  0  0  0
 20 19  1  0  0  0  0
 20 22  1  0  0  0  0
 21 20  2  0  0  0  0
 23 22  1  0  0  0  0
 23 42  1  0  0  0  0
 24 44  1  0  0  0  0
 24 45  1  0  0  0  0
 24 23  1  0  0  0  0
 29  7  1  0  0  0  0
 30  8  1  0  0  0  0
 31  8  1  0  0  0  0
 33  9  1  0  0  0  0
 34 10  1  0  0  0  0
 36 10  1  0  0  0  0
 37 13  1  0  0  0  0
 40 17  1  0  0  0  0
 41 21  1  0  0  0  0
 43 23  1  0  0  0  0
 46 24  1  0  0  0  0
M  END
>  <Pose>
1

>  <Score>
-4.46

$$$$
