
 OpenBabel03232203513D

 40 43  0  0  1  0  0  0  0  0999 V2000
   -2.4170   16.3660  -15.1780 S   0  0  0  0  0  0  0  0  0  0  0  0
   -4.1070   17.0100  -15.2840 C   0  0  2  0  0  0  0  0  0  0  0  0
   -3.9740   18.1920  -14.3630 C   0  0  0  0  0  0  0  0  0  0  0  0
   -3.0580   17.9430  -13.2920 N   0  0  0  0  0  0  0  0  0  0  0  0
   -2.1510   16.9780  -13.5180 C   0  0  2  0  0  0  0  0  0  0  0  0
   -1.3810   16.8340  -12.4330 N   0  0  0  0  0  0  0  0  0  0  0  0
   -1.7910   17.7160  -11.4940 C   0  0  0  0  0  0  0  0  0  0  0  0
   -2.8450   18.4240  -12.0200 C   0  0  0  0  0  0  0  0  0  0  0  0
   -3.5650   19.4580  -11.3150 C   0  0  0  0  0  0  0  0  0  0  0  0
   -4.8930   19.7110  -11.7000 C   0  0  0  0  0  0  0  0  0  0  0  0
   -5.6470   20.6510  -11.0470 C   0  0  0  0  0  0  0  0  0  0  0  0
   -5.1700   21.3930   -9.9960 C   0  0  0  0  0  0  0  0  0  0  0  0
   -3.8730   21.1630   -9.5990 C   0  0  0  0  0  0  0  0  0  0  0  0
   -3.1020   20.2030  -10.2640 C   0  0  0  0  0  0  0  0  0  0  0  0
   -6.0120   22.3450   -9.3750 N   0  0  0  0  0  0  0  0  0  0  0  0
   -7.1410   22.5770   -9.8210 O   0  0  0  0  0  0  0  0  0  0  0  0
   -5.5680   23.0100   -8.2730 O   0  0  0  0  0  0  0  0  0  0  0  0
   -0.3060   15.9160  -12.2710 C   0  0  0  0  0  0  0  0  0  0  0  0
   -0.2760   14.7050  -12.9240 C   0  0  0  0  0  0  0  0  0  0  0  0
    0.7530   13.7980  -12.7850 C   0  0  0  0  0  0  0  0  0  0  0  0
    1.8120   14.0960  -11.9560 C   0  0  0  0  0  0  0  0  0  0  0  0
    1.8170   15.3050  -11.2820 C   0  0  0  0  0  0  0  0  0  0  0  0
    0.7740   16.1960  -11.4400 C   0  0  0  0  0  0  0  0  0  0  0  0
    3.2580   12.8620  -11.7370 B   0  0  0  0  0  0  0  0  0  0  0  0
   -5.1000   16.0530  -14.6690 C   0  0  0  0  0  0  0  0  0  0  0  0
   -4.3800   17.3150  -16.3040 H   0  0  0  0  0  0  0  0  0  0  0  0
   -3.6300   19.0490  -14.9870 H   0  0  0  0  0  0  0  0  0  0  0  0
   -4.9940   18.4170  -13.9440 H   0  0  0  0  0  0  0  0  0  0  0  0
   -1.3410   17.8310  -10.4900 H   0  0  0  0  0  0  0  0  0  0  0  0
   -5.3220   19.1560  -12.5300 H   0  0  0  0  0  0  0  0  0  0  0  0
   -6.6720   20.8100  -11.3850 H   0  0  0  0  0  0  0  0  0  0  0  0
   -3.4490   21.7230   -8.7740 H   0  0  0  0  0  0  0  0  0  0  0  0
   -2.1180   20.0600   -9.8860 H   0  0  0  0  0  0  0  0  0  0  0  0
   -1.1200   14.4660  -13.5850 H   0  0  0  0  0  0  0  0  0  0  0  0
    0.6940   12.8720  -13.3360 H   0  0  0  0  0  0  0  0  0  0  0  0
    2.6500   15.5560  -10.6230 H   0  0  0  0  0  0  0  0  0  0  0  0
    0.7330   17.1560  -10.9330 H   0  0  0  0  0  0  0  0  0  0  0  0
   -5.2940   15.1840  -15.3020 H   0  0  0  0  0  0  0  0  0  0  0  0
   -4.6650   15.7270  -13.6960 H   0  0  0  0  0  0  0  0  0  0  0  0
   -6.0450   16.5980  -14.4920 H   0  0  0  0  0  0  0  0  0  0  0  0
  2 26  1  6  0  0  0
  2  1  1  0  0  0  0
  2 25  1  0  0  0  0
  2  3  1  0  0  0  0
  3 28  1  0  0  0  0
  3  4  1  0  0  0  0
  4  8  1  0  0  0  0
  5  1  1  6  0  0  0
  5  4  1  0  0  0  0
  5  6  1  0  0  0  0
  6 18  1  0  0  0  0
  6  7  1  0  0  0  0
  7 29  1  0  0  0  0
  8  7  2  0  0  0  0
  8  9  1  0  0  0  0
  9 14  1  0  0  0  0
 10  9  2  0  0  0  0
 10 11  1  0  0  0  0
 11 12  2  0  0  0  0
 12 13  1  0  0  0  0
 12 15  1  0  0  0  0
 13 32  1  0  0  0  0
 14 33  1  0  0  0  0
 14 13  2  0  0  0  0
 15 17  2  0  0  0  0
 16 15  2  0  0  0  0
 18 23  1  0  0  0  0
 19 20  1  0  0  0  0
 19 18  2  0  0  0  0
 20 21  2  0  0  0  0
 21 24  1  0  0  0  0
 21 22  1  0  0  0  0
 22 36  1  0  0  0  0
 23 22  2  0  0  0  0
 23 37  1  0  0  0  0
 25 40  1  0  0  0  0
 25 39  1  0  0  0  0
 27  3  1  0  0  0  0
 30 10  1  0  0  0  0
 31 11  1  0  0  0  0
 34 19  1  0  0  0  0
 35 20  1  0  0  0  0
 38 25  1  0  0  0  0
M  END
>  <Pose>
1

>  <Score>
-5.65

$$$$
