
 OpenBabel03232203513D

 45 48  0  0  1  0  0  0  0  0999 V2000
    2.6480    8.6980  -15.3670 S   0  0  0  0  0  0  0  0  0  0  0  0
    2.5900   10.5280  -15.4910 C   0  0  0  0  0  0  0  0  0  0  0  0
    2.8660   11.0130  -14.0660 C   0  0  0  0  0  0  0  0  0  0  0  0
    1.6830   10.5970  -13.1980 C   0  0  0  0  0  0  0  0  0  0  0  0
    1.9120    9.2330  -12.7870 N   0  0  1  0  0  0  0  0  0  0  0  0
    2.3290    8.3390  -13.6450 C   0  0  2  0  0  0  0  0  0  0  0  0
    2.4780    7.0880  -12.9220 N   0  0  0  0  0  0  0  0  0  0  0  0
    1.3660    7.1570  -12.0000 C   0  0  2  0  0  0  0  0  0  0  0  0
    1.7780    8.5840  -11.4790 C   0  0  0  0  0  0  0  0  0  0  0  0
    1.3640    6.2400  -10.9980 O   0  0  0  0  0  0  0  0  0  0  0  0
    0.1110    7.2910  -12.7480 C   0  0  0  0  0  0  0  0  0  0  0  0
   -0.3530    6.3260  -13.6250 C   0  0  0  0  0  0  0  0  0  0  0  0
   -1.5460    6.5410  -14.3300 C   0  0  0  0  0  0  0  0  0  0  0  0
   -2.2730    7.6630  -14.1920 C   0  0  0  0  0  0  0  0  0  0  0  0
   -1.8310    8.6660  -13.3040 C   0  0  0  0  0  0  0  0  0  0  0  0
   -0.6500    8.4160  -12.6280 C   0  0  0  0  0  0  0  0  0  0  0  0
   -3.4830    7.9200  -14.8880 O   0  0  0  0  0  0  0  0  0  0  0  0
   -3.9260    7.0370  -15.8970 C   0  0  0  0  0  0  0  0  0  0  0  0
    3.5090    6.1380  -13.0730 C   0  0  0  0  0  0  0  0  0  0  0  0
    3.1650    4.7690  -12.9470 C   0  0  0  0  0  0  0  0  0  0  0  0
    4.1170    3.7680  -13.0260 C   0  0  0  0  0  0  0  0  0  0  0  0
    5.4370    4.0630  -13.2280 C   0  0  0  0  0  0  0  0  0  0  0  0
    5.8040    5.3870  -13.3540 C   0  0  0  0  0  0  0  0  0  0  0  0
    4.8290    6.4000  -13.2750 C   0  0  0  0  0  0  0  0  0  0  0  0
    6.7890    2.7170  -13.3240 B   0  0  0  0  0  0  0  0  0  0  0  0
    3.4280   10.8170  -16.1490 H   0  0  0  0  0  0  0  0  0  0  0  0
    1.6050   10.8660  -15.8390 H   0  0  0  0  0  0  0  0  0  0  0  0
    3.0770   12.0820  -14.0340 H   0  0  0  0  0  0  0  0  0  0  0  0
    3.7880   10.4500  -13.7370 H   0  0  0  0  0  0  0  0  0  0  0  0
    1.6440   11.2630  -12.3070 H   0  0  0  0  0  0  0  0  0  0  0  0
    0.7150   10.7140  -13.7000 H   0  0  0  0  0  0  0  0  0  0  0  0
    1.0520    9.0100  -10.8250 H   0  0  0  0  0  0  0  0  0  0  0  0
    2.7960    8.4210  -11.0690 H   0  0  0  0  0  0  0  0  0  0  0  0
    0.9790    6.6700  -10.1730 H   0  0  0  0  0  0  0  0  0  0  0  0
    0.2000    5.4230  -13.7640 H   0  0  0  0  0  0  0  0  0  0  0  0
   -1.8670    5.7560  -15.0050 H   0  0  0  0  0  0  0  0  0  0  0  0
   -2.3930    9.5640  -13.1870 H   0  0  0  0  0  0  0  0  0  0  0  0
   -0.3470    9.2050  -11.9520 H   0  0  0  0  0  0  0  0  0  0  0  0
   -5.0020    7.2220  -16.0610 H   0  0  0  0  0  0  0  0  0  0  0  0
   -3.8280    5.9670  -15.6310 H   0  0  0  0  0  0  0  0  0  0  0  0
   -3.3650    7.1970  -16.8620 H   0  0  0  0  0  0  0  0  0  0  0  0
    2.1440    4.5010  -12.7850 H   0  0  0  0  0  0  0  0  0  0  0  0
    3.8370    2.7190  -12.9250 H   0  0  0  0  0  0  0  0  0  0  0  0
    6.8370    5.6380  -13.5070 H   0  0  0  0  0  0  0  0  0  0  0  0
    5.1480    7.4370  -13.3720 H   0  0  0  0  0  0  0  0  0  0  0  0
  2  1  1  0  0  0  0
  2  3  1  0  0  0  0
  3 28  1  0  0  0  0
  3 29  1  0  0  0  0
  3  4  1  0  0  0  0
  4 30  1  0  0  0  0
  5  4  1  1  0  0  0
  5  9  1  0  0  0  0
  6  1  1  1  0  0  0
  6  7  1  0  0  0  0
  6  5  1  0  0  0  0
  7  8  1  0  0  0  0
  8  9  1  0  0  0  0
  8 10  1  1  0  0  0
  9 33  1  0  0  0  0
  9 32  1  0  0  0  0
 10 34  1  0  0  0  0
 11 16  1  0  0  0  0
 11  8  1  0  0  0  0
 12 11  2  0  0  0  0
 13 14  2  0  0  0  0
 13 12  1  0  0  0  0
 14 15  1  0  0  0  0
 15 37  1  0  0  0  0
 15 16  2  0  0  0  0
 16 38  1  0  0  0  0
 17 14  1  0  0  0  0
 18 40  1  0  0  0  0
 18 17  1  0  0  0  0
 19 20  1  0  0  0  0
 19  7  1  0  0  0  0
 20 42  1  0  0  0  0
 21 20  2  0  0  0  0
 21 43  1  0  0  0  0
 22 21  1  0  0  0  0
 23 24  1  0  0  0  0
 23 22  2  0  0  0  0
 24 19  2  0  0  0  0
 25 22  1  0  0  0  0
 26  2  1  0  0  0  0
 27  2  1  0  0  0  0
 31  4  1  0  0  0  0
 35 12  1  0  0  0  0
 36 13  1  0  0  0  0
 39 18  1  0  0  0  0
 41 18  1  0  0  0  0
 44 23  1  0  0  0  0
 45 24  1  0  0  0  0
M  END
>  <Pose>
1

>  <Score>
-5.10

$$$$
