
 OpenBabel03232203513D

 43 46  0  0  1  0  0  0  0  0999 V2000
    0.3990    8.5150  -12.9500 S   0  0  0  0  0  0  0  0  0  0  0  0
    0.6550    7.1690  -11.7240 C   0  0  0  0  0  0  0  0  0  0  0  0
    1.9250    6.4480  -11.9010 C   0  0  0  0  0  0  0  0  0  0  0  0
    2.7220    6.6660  -13.1220 C   0  0  0  0  0  0  0  0  0  0  0  0
    2.9830    7.9870  -13.5230 N   0  0  1  0  0  0  0  0  0  0  0  0
    4.0440    8.6210  -14.2460 C   0  0  2  0  0  0  0  0  0  0  0  0
    4.0750    9.9730  -13.5690 C   0  0  0  0  0  0  0  0  0  0  0  0
    2.6740   10.1880  -13.2760 N   0  0  0  0  0  0  0  0  0  0  0  0
    2.0820    9.0900  -13.2430 C   0  0  1  0  0  0  0  0  0  0  0  0
    2.0660   11.4690  -13.0740 C   0  0  0  0  0  0  0  0  0  0  0  0
    2.8030   12.4590  -12.4390 C   0  0  0  0  0  0  0  0  0  0  0  0
    2.2700   13.7220  -12.1900 C   0  0  0  0  0  0  0  0  0  0  0  0
    0.9810   14.0260  -12.5690 C   0  0  0  0  0  0  0  0  0  0  0  0
    0.2390   13.0560  -13.1980 C   0  0  0  0  0  0  0  0  0  0  0  0
    0.8010   11.7950  -13.4340 C   0  0  0  0  0  0  0  0  0  0  0  0
    0.2450   15.7660  -12.2060 B   0  0  0  0  0  0  0  0  0  0  0  0
    3.6310    8.8480  -15.5610 O   0  0  0  0  0  0  0  0  0  0  0  0
    5.3570    7.9510  -14.1960 C   0  0  0  0  0  0  0  0  0  0  0  0
    6.0810    7.8810  -15.3830 C   0  0  0  0  0  0  0  0  0  0  0  0
    7.3180    7.2790  -15.4370 C   0  0  0  0  0  0  0  0  0  0  0  0
    7.9030    6.7160  -14.3160 C   0  0  0  0  0  0  0  0  0  0  0  0
    7.1900    6.7860  -13.1350 C   0  0  0  0  0  0  0  0  0  0  0  0
    5.9330    7.3970  -13.0830 C   0  0  0  0  0  0  0  0  0  0  0  0
    9.1780    6.1060  -14.3970 N   0  0  0  0  0  0  0  0  0  0  0  0
    9.3470    4.8830  -14.4720 O   0  0  0  0  0  0  0  0  0  0  0  0
   10.2960    6.9000  -14.4000 O   0  0  0  0  0  0  0  0  0  0  0  0
    0.6000    7.6510  -10.7040 H   0  0  0  0  0  0  0  0  0  0  0  0
   -0.2280    6.5350  -11.7840 H   0  0  0  0  0  0  0  0  0  0  0  0
    2.5640    6.6000  -11.0030 H   0  0  0  0  0  0  0  0  0  0  0  0
    1.6800    5.3370  -11.8660 H   0  0  0  0  0  0  0  0  0  0  0  0
    2.2030    6.1500  -13.9890 H   0  0  0  0  0  0  0  0  0  0  0  0
    3.6630    6.0810  -13.0190 H   0  0  0  0  0  0  0  0  0  0  0  0
    4.6490    9.7910  -12.6090 H   0  0  0  0  0  0  0  0  0  0  0  0
    4.5450   10.7410  -14.1940 H   0  0  0  0  0  0  0  0  0  0  0  0
    3.8150   12.2560  -12.1200 H   0  0  0  0  0  0  0  0  0  0  0  0
    2.8730   14.4790  -11.6860 H   0  0  0  0  0  0  0  0  0  0  0  0
   -0.7690   13.2690  -13.4880 H   0  0  0  0  0  0  0  0  0  0  0  0
    0.1860   11.0430  -13.9260 H   0  0  0  0  0  0  0  0  0  0  0  0
    4.1820    9.5490  -15.9480 H   0  0  0  0  0  0  0  0  0  0  0  0
    5.6420    8.3150  -16.2840 H   0  0  0  0  0  0  0  0  0  0  0  0
    7.9120    7.2050  -16.3540 H   0  0  0  0  0  0  0  0  0  0  0  0
    7.6290    6.3480  -12.2380 H   0  0  0  0  0  0  0  0  0  0  0  0
    5.3910    7.4360  -12.1420 H   0  0  0  0  0  0  0  0  0  0  0  0
  1  2  1  0  0  0  0
  2 27  1  0  0  0  0
  3 30  1  0  0  0  0
  3  2  1  0  0  0  0
  3 29  1  0  0  0  0
  4 32  1  0  0  0  0
  4  3  1  0  0  0  0
  5  9  1  0  0  0  0
  5  4  1  6  0  0  0
  6 17  1  6  0  0  0
  6 18  1  0  0  0  0
  6  7  1  0  0  0  0
  6  5  1  0  0  0  0
  7  8  1  0  0  0  0
  7 33  1  0  0  0  0
  8  9  1  0  0  0  0
  8 10  1  0  0  0  0
  9  1  1  6  0  0  0
 10 11  1  0  0  0  0
 11 12  2  0  0  0  0
 11 35  1  0  0  0  0
 12 36  1  0  0  0  0
 13 16  1  0  0  0  0
 13 12  1  0  0  0  0
 14 13  2  0  0  0  0
 15 14  1  0  0  0  0
 15 10  2  0  0  0  0
 18 23  1  0  0  0  0
 19 18  2  0  0  0  0
 20 19  1  0  0  0  0
 20 21  2  0  0  0  0
 21 22  1  0  0  0  0
 22 23  2  0  0  0  0
 22 42  1  0  0  0  0
 23 43  1  0  0  0  0
 24 21  1  0  0  0  0
 25 24  2  0  0  0  0
 26 24  2  0  0  0  0
 28  2  1  0  0  0  0
 31  4  1  0  0  0  0
 34  7  1  0  0  0  0
 37 14  1  0  0  0  0
 38 15  1  0  0  0  0
 39 17  1  0  0  0  0
 40 19  1  0  0  0  0
 41 20  1  0  0  0  0
M  END
>  <Pose>
1

>  <Score>
-5.48

$$$$
