
 OpenBabel03232203513D

 41 44  0  0  1  0  0  0  0  0999 V2000
    1.6170    6.9060  -11.9100 S   0  0  0  0  0  0  0  0  0  0  0  0
    0.0820    6.0420  -12.4730 C   0  0  0  0  0  0  0  0  0  0  0  0
   -0.4720    6.7100  -13.7040 C   0  0  0  0  0  0  0  0  0  0  0  0
   -0.1480    8.1860  -13.7970 C   0  0  0  0  0  0  0  0  0  0  0  0
    1.2030    8.4660  -14.0910 N   0  0  1  0  0  0  0  0  0  0  0  0
    2.0290    9.4070  -14.8660 C   0  0  1  0  0  0  0  0  0  0  0  0
    3.0980    8.4320  -15.3000 C   0  0  0  0  0  0  0  0  0  0  0  0
    3.3110    7.6750  -14.0760 N   0  0  0  0  0  0  0  0  0  0  0  0
    2.2230    7.6390  -13.4650 C   0  0  1  0  0  0  0  0  0  0  0  0
    4.5750    7.1340  -13.6360 C   0  0  0  0  0  0  0  0  0  0  0  0
    5.7630    7.7930  -13.6660 C   0  0  0  0  0  0  0  0  0  0  0  0
    6.9670    7.2190  -13.2760 C   0  0  0  0  0  0  0  0  0  0  0  0
    6.9840    5.9220  -12.8340 C   0  0  0  0  0  0  0  0  0  0  0  0
    5.7780    5.2490  -12.8010 C   0  0  0  0  0  0  0  0  0  0  0  0
    4.5950    5.8160  -13.1860 C   0  0  0  0  0  0  0  0  0  0  0  0
    8.5990    5.0440  -12.2790 B   0  0  0  0  0  0  0  0  0  0  0  0
    1.3830    9.9250  -15.9470 O   0  0  0  0  0  0  0  0  0  0  0  0
    2.6340   10.4440  -13.9660 C   0  0  0  0  0  0  0  0  0  0  0  0
    3.9980   10.5820  -13.7910 C   0  0  0  0  0  0  0  0  0  0  0  0
    4.4750   11.5740  -12.9430 C   0  0  0  0  0  0  0  0  0  0  0  0
    3.6370   12.4440  -12.2580 C   0  0  0  0  0  0  0  0  0  0  0  0
    2.2860   12.3140  -12.4280 C   0  0  0  0  0  0  0  0  0  0  0  0
    1.8030   11.3170  -13.2750 C   0  0  0  0  0  0  0  0  0  0  0  0
    0.4500    5.0390  -12.8370 H   0  0  0  0  0  0  0  0  0  0  0  0
   -0.6170    5.9370  -11.6350 H   0  0  0  0  0  0  0  0  0  0  0  0
   -1.5980    6.6210  -13.6430 H   0  0  0  0  0  0  0  0  0  0  0  0
   -0.1030    6.2410  -14.6410 H   0  0  0  0  0  0  0  0  0  0  0  0
   -0.8910    8.7170  -14.4270 H   0  0  0  0  0  0  0  0  0  0  0  0
   -0.3380    8.5640  -12.7350 H   0  0  0  0  0  0  0  0  0  0  0  0
    3.9660    8.8540  -15.7560 H   0  0  0  0  0  0  0  0  0  0  0  0
    2.5800    7.7210  -16.0200 H   0  0  0  0  0  0  0  0  0  0  0  0
    5.8080    8.8370  -14.0130 H   0  0  0  0  0  0  0  0  0  0  0  0
    7.8880    7.7880  -13.3200 H   0  0  0  0  0  0  0  0  0  0  0  0
    5.8000    4.2130  -12.4500 H   0  0  0  0  0  0  0  0  0  0  0  0
    3.6490    5.2600  -13.1440 H   0  0  0  0  0  0  0  0  0  0  0  0
    1.8880    9.9260  -16.7980 H   0  0  0  0  0  0  0  0  0  0  0  0
    4.6650    9.9060  -14.3140 H   0  0  0  0  0  0  0  0  0  0  0  0
    5.5410   11.6520  -12.8290 H   0  0  0  0  0  0  0  0  0  0  0  0
    4.0400   13.2090  -11.6050 H   0  0  0  0  0  0  0  0  0  0  0  0
    1.5950   12.9710  -11.9260 H   0  0  0  0  0  0  0  0  0  0  0  0
    0.7370   11.2070  -13.4080 H   0  0  0  0  0  0  0  0  0  0  0  0
  2  1  1  0  0  0  0
  2 25  1  0  0  0  0
  3 26  1  0  0  0  0
  3  2  1  0  0  0  0
  4  3  1  0  0  0  0
  4 29  1  0  0  0  0
  5  4  1  1  0  0  0
  5  9  1  0  0  0  0
  6 17  1  6  0  0  0
  6  5  1  0  0  0  0
  6 18  1  0  0  0  0
  7  6  1  0  0  0  0
  7  8  1  0  0  0  0
  8 10  1  0  0  0  0
  8  9  1  0  0  0  0
  9  1  1  1  0  0  0
 10 15  1  0  0  0  0
 11 10  2  0  0  0  0
 11 12  1  0  0  0  0
 12 13  2  0  0  0  0
 13 14  1  0  0  0  0
 13 16  1  0  0  0  0
 14 34  1  0  0  0  0
 15 35  1  0  0  0  0
 15 14  2  0  0  0  0
 18 19  2  0  0  0  0
 18 23  1  0  0  0  0
 19 20  1  0  0  0  0
 20 38  1  0  0  0  0
 20 21  2  0  0  0  0
 21 39  1  0  0  0  0
 22 21  1  0  0  0  0
 22 40  1  0  0  0  0
 23 22  2  0  0  0  0
 24  2  1  0  0  0  0
 27  3  1  0  0  0  0
 28  4  1  0  0  0  0
 30  7  1  0  0  0  0
 31  7  1  0  0  0  0
 32 11  1  0  0  0  0
 33 12  1  0  0  0  0
 36 17  1  0  0  0  0
 37 19  1  0  0  0  0
 41 23  1  0  0  0  0
M  END
>  <Pose>
1

>  <Score>
-5.33

$$$$
