
 OpenBabel03232203513D

 45 49  0  0  1  0  0  0  0  0999 V2000
    3.8260   12.3670  -12.9670 S   0  0  0  0  0  0  0  0  0  0  0  0
    2.7570   11.1680  -13.7460 C   0  0  0  0  0  0  0  0  0  0  0  0
    3.0280   10.1380  -14.4790 N   0  0  0  0  0  0  0  0  0  0  0  0
    1.9510    9.3200  -14.9900 C   0  0  0  0  0  0  0  0  0  0  0  0
    1.9740    8.6760  -16.0380 O   0  0  0  0  0  0  0  0  0  0  0  0
    0.6840    9.2650  -14.1380 C   0  0  2  0  0  0  0  0  0  0  0  0
    0.3790   10.7200  -13.9590 C   0  0  0  0  0  0  0  0  0  0  0  0
   -0.7360   11.2350  -14.2580 O   0  0  0  0  0  0  0  0  0  0  0  0
    1.4400   11.5580  -13.4160 N   0  0  0  0  0  0  0  0  0  0  0  0
    1.3180   12.6780  -12.6390 N   0  0  0  0  0  0  0  0  0  0  0  0
    2.5070   13.3290  -12.2430 C   0  0  0  0  0  0  0  0  0  0  0  0
    2.6510   14.4190  -11.4970 C   0  0  0  0  0  0  0  0  0  0  0  0
    1.0210    8.5850  -12.8410 C   0  0  1  0  0  0  0  0  0  0  0  0
   -0.0910    7.9860  -12.0760 C   0  0  2  0  0  0  0  0  0  0  0  0
   -1.0080    7.1040  -12.7820 C   0  0  0  0  0  0  0  0  0  0  0  0
   -0.9040    5.8370  -12.6520 O   0  0  0  0  0  0  0  0  0  0  0  0
   -2.0560    7.6250  -13.6410 N   0  0  0  0  0  0  0  0  0  0  0  0
   -2.6790    7.0010  -14.6730 N   0  0  0  0  0  0  0  0  0  0  0  0
   -3.6850    7.7250  -15.3600 C   0  0  0  0  0  0  0  0  0  0  0  0
   -4.4370    7.3600  -16.3760 C   0  0  0  0  0  0  0  0  0  0  0  0
   -3.7410    9.3150  -14.5380 S   0  0  0  0  0  0  0  0  0  0  0  0
   -2.4680    8.9410  -13.3470 C   0  0  0  0  0  0  0  0  0  0  0  0
   -1.9740    9.6530  -12.3980 N   0  0  0  0  0  0  0  0  0  0  0  0
   -0.9360    9.1340  -11.5510 C   0  0  0  0  0  0  0  0  0  0  0  0
   -0.6790    9.5600  -10.4150 O   0  0  0  0  0  0  0  0  0  0  0  0
    2.1160    7.5890  -13.0170 C   0  0  0  0  0  0  0  0  0  0  0  0
    3.3640    7.9710  -13.4520 C   0  0  0  0  0  0  0  0  0  0  0  0
    4.3790    7.0560  -13.6160 C   0  0  0  0  0  0  0  0  0  0  0  0
    4.1450    5.7270  -13.3420 C   0  0  0  0  0  0  0  0  0  0  0  0
    2.8920    5.2970  -12.8990 C   0  0  0  0  0  0  0  0  0  0  0  0
    1.9020    6.2460  -12.7460 C   0  0  0  0  0  0  0  0  0  0  0  0
    5.5340    4.4310  -13.5610 B   0  0  0  0  0  0  0  0  0  0  0  0
   -0.0800    8.7680  -14.7240 H   0  0  0  0  0  0  0  0  0  0  0  0
    0.3700   13.0900  -12.3230 H   0  0  0  0  0  0  0  0  0  0  0  0
    3.6500   14.7740  -11.2970 H   0  0  0  0  0  0  0  0  0  0  0  0
    1.8260   14.9500  -11.0930 H   0  0  0  0  0  0  0  0  0  0  0  0
    1.4560    9.3980  -12.1720 H   0  0  0  0  0  0  0  0  0  0  0  0
    0.2510    7.4250  -11.1640 H   0  0  0  0  0  0  0  0  0  0  0  0
   -2.4700    5.9970  -15.0080 H   0  0  0  0  0  0  0  0  0  0  0  0
   -5.1530    8.0490  -16.7690 H   0  0  0  0  0  0  0  0  0  0  0  0
   -4.3470    6.3890  -16.8180 H   0  0  0  0  0  0  0  0  0  0  0  0
    3.6050    9.0010  -13.6820 H   0  0  0  0  0  0  0  0  0  0  0  0
    5.3570    7.3470  -13.9560 H   0  0  0  0  0  0  0  0  0  0  0  0
    2.7020    4.2500  -12.6800 H   0  0  0  0  0  0  0  0  0  0  0  0
    0.8980    5.9850  -12.4040 H   0  0  0  0  0  0  0  0  0  0  0  0
  1 11  1  0  0  0  0
  2  9  1  0  0  0  0
  2  1  1  0  0  0  0
  3  2  2  0  0  0  0
  4  3  1  0  0  0  0
  4  6  1  0  0  0  0
  5  4  2  0  0  0  0
  6 33  1  6  0  0  0
  6  7  1  0  0  0  0
  6 13  1  0  0  0  0
  7  9  1  0  0  0  0
  8  7  2  0  0  0  0
  9 10  1  0  0  0  0
 10 34  1  0  0  0  0
 10 11  1  0  0  0  0
 11 12  2  0  0  0  0
 12 35  1  0  0  0  0
 12 36  1  0  0  0  0
 13 37  1  1  0  0  0
 13 14  1  0  0  0  0
 14 24  1  0  0  0  0
 14 38  1  1  0  0  0
 15 16  2  0  0  0  0
 15 14  1  0  0  0  0
 17 22  1  0  0  0  0
 17 15  1  0  0  0  0
 18 17  1  0  0  0  0
 19 18  1  0  0  0  0
 19 21  1  0  0  0  0
 20 19  2  0  0  0  0
 21 22  1  0  0  0  0
 22 23  2  0  0  0  0
 23 24  1  0  0  0  0
 24 25  2  0  0  0  0
 26 13  1  0  0  0  0
 26 31  1  0  0  0  0
 27 26  2  0  0  0  0
 28 27  1  0  0  0  0
 28 29  2  0  0  0  0
 29 30  1  0  0  0  0
 30 31  2  0  0  0  0
 30 44  1  0  0  0  0
 31 45  1  0  0  0  0
 32 29  1  0  0  0  0
 39 18  1  0  0  0  0
 40 20  1  0  0  0  0
 41 20  1  0  0  0  0
 42 27  1  0  0  0  0
 43 28  1  0  0  0  0
M  END
>  <Pose>
1

>  <Score>
-5.39

$$$$
