
 OpenBabel03232203513D

 53 56  0  0  0  0  0  0  0  0999 V2000
   -3.3020   19.8790  -10.3140 B   0  0  0  0  0  0  0  0  0  0  0  0
   -3.0280   18.7170  -11.7950 C   0  0  0  0  0  0  0  0  0  0  0  0
   -1.9300   17.8950  -11.8580 C   0  0  0  0  0  0  0  0  0  0  0  0
   -1.7380   17.0450  -12.9460 C   0  0  0  0  0  0  0  0  0  0  0  0
   -2.6850   17.0760  -13.9270 C   0  0  0  0  0  0  0  0  0  0  0  0
   -3.8040   17.9080  -13.8680 C   0  0  0  0  0  0  0  0  0  0  0  0
   -3.9800   18.7330  -12.8000 C   0  0  0  0  0  0  0  0  0  0  0  0
   -0.5650   16.1960  -13.0070 C   0  0  0  0  0  0  0  0  0  0  0  0
    0.6290   16.6490  -13.2950 C   0  0  0  0  0  0  0  0  0  0  0  0
   -0.7180   14.7890  -12.7220 N   0  0  0  0  0  0  0  0  0  0  0  0
   -0.4630   13.8800  -13.7490 N   0  0  0  0  0  0  0  0  0  0  0  0
   -0.6620   12.4890  -13.5890 C   0  0  0  0  0  0  0  0  0  0  0  0
   -1.8080   12.0160  -13.7610 O   0  0  0  0  0  0  0  0  0  0  0  0
    0.4130   11.5810  -13.2340 C   0  0  0  0  0  0  0  0  0  0  0  0
    1.6170   11.9740  -12.7990 N   0  0  0  0  0  0  0  0  0  0  0  0
    2.3150   10.8860  -12.5960 N   0  0  0  0  0  0  0  0  0  0  0  0
    1.5920    9.8080  -12.8880 N   0  0  0  0  0  0  0  0  0  0  0  0
    0.3880   10.1790  -13.2940 C   0  0  0  0  0  0  0  0  0  0  0  0
   -0.7900    9.4410  -13.6890 C   0  0  0  0  0  0  0  0  0  0  0  0
   -1.1960    8.3600  -12.8120 N   0  0  0  0  0  0  0  0  0  0  0  0
   -2.6280    8.4250  -12.5390 C   0  0  0  0  0  0  0  0  0  0  0  0
   -3.4350    8.6220  -13.8040 C   0  0  0  0  0  0  0  0  0  0  0  0
   -3.1360    7.5050  -14.7870 C   0  0  0  0  0  0  0  0  0  0  0  0
   -2.1560    6.5260  -14.2060 C   0  0  0  0  0  0  0  0  0  0  0  0
   -0.9920    7.0830  -13.4900 C   0  0  0  0  0  0  0  0  0  0  0  0
    2.0680    8.4830  -12.7440 C   0  0  0  0  0  0  0  0  0  0  0  0
    1.8340    7.7280  -11.6350 N   0  0  0  0  0  0  0  0  0  0  0  0
    2.4040    6.5780  -11.8180 O   0  0  0  0  0  0  0  0  0  0  0  0
    2.9950    6.5220  -12.9570 N   0  0  0  0  0  0  0  0  0  0  0  0
    2.8110    7.6960  -13.5740 C   0  0  0  0  0  0  0  0  0  0  0  0
    3.2820    8.0780  -14.8400 N   0  0  0  0  0  0  0  0  0  0  0  0
   -1.2040   17.9070  -11.0510 H   0  0  0  0  0  0  0  0  0  0  0  0
   -2.5790   16.4300  -14.7990 H   0  0  0  0  0  0  0  0  0  0  0  0
   -4.5390   17.9040  -14.6740 H   0  0  0  0  0  0  0  0  0  0  0  0
   -4.8330   19.3690  -12.7550 H   0  0  0  0  0  0  0  0  0  0  0  0
    0.8430   17.6740  -13.5100 H   0  0  0  0  0  0  0  0  0  0  0  0
    1.4940   15.9810  -13.3340 H   0  0  0  0  0  0  0  0  0  0  0  0
   -1.0090   14.5410  -11.7610 H   0  0  0  0  0  0  0  0  0  0  0  0
   -0.1120   14.3000  -14.6510 H   0  0  0  0  0  0  0  0  0  0  0  0
   -1.7080   10.0830  -13.8070 H   0  0  0  0  0  0  0  0  0  0  0  0
   -0.6430    8.9790  -14.6970 H   0  0  0  0  0  0  0  0  0  0  0  0
   -2.8250    9.2600  -11.8480 H   0  0  0  0  0  0  0  0  0  0  0  0
   -2.9080    7.4830  -12.0520 H   0  0  0  0  0  0  0  0  0  0  0  0
   -3.2130    9.5760  -14.3090 H   0  0  0  0  0  0  0  0  0  0  0  0
   -4.4950    8.6010  -13.5050 H   0  0  0  0  0  0  0  0  0  0  0  0
   -4.0870    6.9440  -14.9310 H   0  0  0  0  0  0  0  0  0  0  0  0
   -2.8750    7.8880  -15.7900 H   0  0  0  0  0  0  0  0  0  0  0  0
   -2.7390    5.9180  -13.4500 H   0  0  0  0  0  0  0  0  0  0  0  0
   -1.9040    5.8070  -14.9980 H   0  0  0  0  0  0  0  0  0  0  0  0
   -0.1830    7.2610  -14.2520 H   0  0  0  0  0  0  0  0  0  0  0  0
   -0.5590    6.3760  -12.7470 H   0  0  0  0  0  0  0  0  0  0  0  0
    3.8400    8.9330  -15.0560 H   0  0  0  0  0  0  0  0  0  0  0  0
    3.0650    7.4680  -15.6580 H   0  0  0  0  0  0  0  0  0  0  0  0
  2  1  1  0  0  0  0
  3  2  1  0  0  0  0
  3 32  1  0  0  0  0
  4  3  2  0  0  0  0
  5  6  2  0  0  0  0
  5  4  1  0  0  0  0
  6  7  1  0  0  0  0
  7 35  1  0  0  0  0
  7  2  2  0  0  0  0
  8  4  1  0  0  0  0
  8 10  1  0  0  0  0
  9  8  2  0  0  0  0
 10 38  1  0  0  0  0
 11 12  1  0  0  0  0
 11 10  1  0  0  0  0
 12 14  1  0  0  0  0
 13 12  2  0  0  0  0
 14 15  1  0  0  0  0
 15 16  2  0  0  0  0
 17 26  1  0  0  0  0
 17 16  1  0  0  0  0
 18 14  2  0  0  0  0
 18 17  1  0  0  0  0
 19 18  1  0  0  0  0
 19 20  1  0  0  0  0
 20 21  1  0  0  0  0
 21 43  1  0  0  0  0
 21 42  1  0  0  0  0
 22 45  1  0  0  0  0
 22 21  1  0  0  0  0
 23 24  1  0  0  0  0
 23 22  1  0  0  0  0
 24 25  1  0  0  0  0
 24 48  1  0  0  0  0
 25 20  1  0  0  0  0
 25 51  1  0  0  0  0
 26 27  2  0  0  0  0
 28 27  1  0  0  0  0
 29 28  1  0  0  0  0
 30 29  2  0  0  0  0
 30 26  1  0  0  0  0
 31 30  1  0  0  0  0
 33  5  1  0  0  0  0
 34  6  1  0  0  0  0
 36  9  1  0  0  0  0
 37  9  1  0  0  0  0
 39 11  1  0  0  0  0
 40 19  1  0  0  0  0
 41 19  1  0  0  0  0
 44 22  1  0  0  0  0
 46 23  1  0  0  0  0
 47 23  1  0  0  0  0
 49 24  1  0  0  0  0
 50 25  1  0  0  0  0
 52 31  1  0  0  0  0
 53 31  1  0  0  0  0
M  END
>  <Pose>
1

>  <Score>
-7.91

$$$$
