
 OpenBabel03232203513D

 48 51  0  0  1  0  0  0  0  0999 V2000
   -2.7460   20.0700  -10.0190 B   0  0  0  0  0  0  0  0  0  0  0  0
   -3.0630   19.0330  -11.5950 C   0  0  0  0  0  0  0  0  0  0  0  0
   -2.1270   18.1330  -12.0270 C   0  0  0  0  0  0  0  0  0  0  0  0
   -2.3490   17.3760  -13.1700 C   0  0  0  0  0  0  0  0  0  0  0  0
   -3.5160   17.5580  -13.8430 C   0  0  0  0  0  0  0  0  0  0  0  0
   -4.4580   18.4720  -13.3970 C   0  0  0  0  0  0  0  0  0  0  0  0
   -4.2370   19.2190  -12.2660 C   0  0  0  0  0  0  0  0  0  0  0  0
   -1.3490   16.4250  -13.6280 C   0  0  0  0  0  0  0  0  0  0  0  0
   -0.8350   16.5940  -14.7940 O   0  0  0  0  0  0  0  0  0  0  0  0
   -0.9310   15.3360  -12.8370 N   0  0  0  0  0  0  0  0  0  0  0  0
    0.1060   14.4750  -13.3770 C   0  0  2  0  0  0  0  0  0  0  0  0
   -0.1240   13.0240  -13.0000 C   0  0  0  0  0  0  0  0  0  0  0  0
    1.2070   12.4560  -13.0750 N   0  0  0  0  0  0  0  0  0  0  0  0
    2.2040   13.4900  -13.2600 C   0  0  1  0  0  0  0  0  0  0  0  0
    1.4550   14.7370  -12.7700 C   0  0  0  0  0  0  0  0  0  0  0  0
    3.3570   13.1840  -12.4140 C   0  0  0  0  0  0  0  0  0  0  0  0
    3.8170   14.0160  -11.6180 O   0  0  0  0  0  0  0  0  0  0  0  0
    3.9410   11.8970  -12.5320 N   0  0  0  0  0  0  0  0  0  0  0  0
    3.1290   10.7840  -12.9700 C   0  0  1  0  0  0  0  0  0  0  0  0
    1.6850   11.1040  -13.0010 C   0  0  0  0  0  0  0  0  0  0  0  0
    0.8380   10.1730  -12.9620 O   0  0  0  0  0  0  0  0  0  0  0  0
    3.6100   10.1940  -14.2790 C   0  0  0  0  0  0  0  0  0  0  0  0
    3.7960    8.7350  -14.2250 C   0  0  0  0  0  0  0  0  0  0  0  0
    5.0040    8.2110  -13.8020 C   0  0  0  0  0  0  0  0  0  0  0  0
    5.1860    6.8480  -13.7490 C   0  0  0  0  0  0  0  0  0  0  0  0
    4.1990    5.9490  -14.1070 C   0  0  0  0  0  0  0  0  0  0  0  0
    2.9940    6.4690  -14.5290 C   0  0  0  0  0  0  0  0  0  0  0  0
    2.7930    7.8340  -14.5880 C   0  0  0  0  0  0  0  0  0  0  0  0
   -1.1800   17.9660  -11.5080 H   0  0  0  0  0  0  0  0  0  0  0  0
   -3.7180   16.9800  -14.7470 H   0  0  0  0  0  0  0  0  0  0  0  0
   -5.3840   18.6170  -13.9290 H   0  0  0  0  0  0  0  0  0  0  0  0
   -4.9590   19.9460  -11.8920 H   0  0  0  0  0  0  0  0  0  0  0  0
   -1.3570   15.1800  -11.9130 H   0  0  0  0  0  0  0  0  0  0  0  0
    0.1750   14.5220  -14.4620 H   0  0  0  0  0  0  0  0  0  0  0  0
   -0.5090   12.9130  -11.9630 H   0  0  0  0  0  0  0  0  0  0  0  0
   -0.8210   12.5210  -13.7050 H   0  0  0  0  0  0  0  0  0  0  0  0
    2.5000   13.6200  -14.3220 H   0  0  0  0  0  0  0  0  0  0  0  0
    1.9830   15.5950  -13.2130 H   0  0  0  0  0  0  0  0  0  0  0  0
    1.4620   14.7090  -11.6750 H   0  0  0  0  0  0  0  0  0  0  0  0
    4.9460   11.7130  -12.3110 H   0  0  0  0  0  0  0  0  0  0  0  0
    3.3080    9.9710  -12.2030 H   0  0  0  0  0  0  0  0  0  0  0  0
    2.8910   10.4780  -15.0700 H   0  0  0  0  0  0  0  0  0  0  0  0
    4.5870   10.6520  -14.4990 H   0  0  0  0  0  0  0  0  0  0  0  0
    5.8410    8.8300  -13.5000 H   0  0  0  0  0  0  0  0  0  0  0  0
    6.1280    6.4320  -13.4190 H   0  0  0  0  0  0  0  0  0  0  0  0
    4.3820    4.8740  -14.0510 H   0  0  0  0  0  0  0  0  0  0  0  0
    2.2140    5.7590  -14.8110 H   0  0  0  0  0  0  0  0  0  0  0  0
    1.8340    8.2080  -14.9260 H   0  0  0  0  0  0  0  0  0  0  0  0
  2  1  1  0  0  0  0
  3  2  1  0  0  0  0
  3 29  1  0  0  0  0
  4  3  2  0  0  0  0
  5  6  2  0  0  0  0
  5  4  1  0  0  0  0
  6  7  1  0  0  0  0
  7 32  1  0  0  0  0
  7  2  2  0  0  0  0
  8  4  1  0  0  0  0
  8 10  1  0  0  0  0
  9  8  2  0  0  0  0
 10 33  1  0  0  0  0
 11 34  1  6  0  0  0
 11 12  1  0  0  0  0
 11 10  1  0  0  0  0
 11 15  1  0  0  0  0
 12 35  1  0  0  0  0
 13 20  1  0  0  0  0
 13 12  1  0  0  0  0
 14 37  1  6  0  0  0
 14 13  1  0  0  0  0
 14 15  1  0  0  0  0
 14 16  1  0  0  0  0
 15 39  1  0  0  0  0
 16 17  2  0  0  0  0
 18 16  1  0  0  0  0
 18 40  1  0  0  0  0
 19 18  1  0  0  0  0
 19 41  1  1  0  0  0
 20 19  1  0  0  0  0
 20 21  2  0  0  0  0
 22 23  1  0  0  0  0
 22 19  1  0  0  0  0
 23 24  1  0  0  0  0
 24 25  2  0  0  0  0
 24 44  1  0  0  0  0
 25 45  1  0  0  0  0
 26 46  1  0  0  0  0
 26 25  1  0  0  0  0
 27 26  2  0  0  0  0
 28 27  1  0  0  0  0
 28 23  2  0  0  0  0
 30  5  1  0  0  0  0
 31  6  1  0  0  0  0
 36 12  1  0  0  0  0
 38 15  1  0  0  0  0
 42 22  1  0  0  0  0
 43 22  1  0  0  0  0
 47 27  1  0  0  0  0
 48 28  1  0  0  0  0
M  END
>  <Pose>
1

>  <Score>
-6.26

$$$$
