
 OpenBabel03232203513D

 60 63  0  0  1  0  0  0  0  0999 V2000
    4.0370   11.8790  -12.4130 B   0  0  0  0  0  0  0  0  0  0  0  0
    2.7350   13.2340  -12.0670 C   0  0  0  0  0  0  0  0  0  0  0  0
    1.5630   13.2410  -12.7580 C   0  0  0  0  0  0  0  0  0  0  0  0
    0.6000   14.2260  -12.5160 C   0  0  0  0  0  0  0  0  0  0  0  0
    0.8790   15.1810  -11.5620 C   0  0  0  0  0  0  0  0  0  0  0  0
    2.0760   15.1730  -10.8570 C   0  0  0  0  0  0  0  0  0  0  0  0
    3.0020   14.1900  -11.1180 C   0  0  0  0  0  0  0  0  0  0  0  0
   -0.6420   14.1760  -13.3000 C   0  0  1  0  0  0  0  0  0  0  0  0
   -1.4960   13.0420  -13.0070 N   0  0  0  0  0  0  0  0  0  0  0  0
   -2.2550   13.3520  -11.8180 C   0  0  0  0  0  0  0  0  0  0  0  0
   -2.7670   12.5620  -11.0170 O   0  0  0  0  0  0  0  0  0  0  0  0
   -2.2830   14.8110  -11.7700 C   0  0  0  0  0  0  0  0  0  0  0  0
   -2.8280   15.5610  -10.9060 O   0  0  0  0  0  0  0  0  0  0  0  0
   -1.5520   15.3150  -12.9210 C   0  0  0  0  0  0  0  0  0  0  0  0
   -1.6230   16.5100  -13.4840 C   0  0  0  0  0  0  0  0  0  0  0  0
   -0.7460   16.7780  -14.5730 O   0  0  0  0  0  0  0  0  0  0  0  0
   -2.5560   17.5110  -13.0300 C   0  0  0  0  0  0  0  0  0  0  0  0
   -2.4940   18.2710  -11.9160 N   0  0  0  0  0  0  0  0  0  0  0  0
   -3.5650   19.1030  -11.9040 C   0  0  0  0  0  0  0  0  0  0  0  0
   -4.3200   18.8790  -13.0140 N   0  0  0  0  0  0  0  0  0  0  0  0
   -3.6890   17.8970  -13.6990 C   0  0  0  0  0  0  0  0  0  0  0  0
   -4.1770   17.3350  -14.9890 C   0  0  0  0  0  0  0  0  0  0  0  0
   -3.8340   20.0100  -10.9120 C   0  0  0  0  0  0  0  0  0  0  0  0
   -2.9560   20.0780   -9.8530 C   0  0  0  0  0  0  0  0  0  0  0  0
   -1.8650   19.2320   -9.8600 C   0  0  0  0  0  0  0  0  0  0  0  0
   -1.6430   18.3450  -10.8780 C   0  0  0  0  0  0  0  0  0  0  0  0
   -5.0280   20.9030  -10.9520 C   0  0  0  0  0  0  0  0  0  0  0  0
   -1.5840   11.8020  -13.7600 C   0  0  0  0  0  0  0  0  0  0  0  0
   -1.5350   10.5700  -12.9220 C   0  0  0  0  0  0  0  0  0  0  0  0
   -0.6500    9.4740  -13.4590 C   0  0  0  0  0  0  0  0  0  0  0  0
   -0.9270    8.2390  -12.7640 N   0  0  0  0  0  4  0  0  0  0  0  0
   -1.3200    7.2040  -13.7030 C   0  0  0  0  0  0  0  0  0  0  0  0
    0.2970    7.7830  -12.1350 C   0  0  0  0  0  0  0  0  0  0  0  0
    1.4040   12.4580  -13.4990 H   0  0  0  0  0  0  0  0  0  0  0  0
    0.1510   15.9700  -11.3470 H   0  0  0  0  0  0  0  0  0  0  0  0
    2.2850   15.9350  -10.1040 H   0  0  0  0  0  0  0  0  0  0  0  0
    3.9440   14.1730  -10.5730 H   0  0  0  0  0  0  0  0  0  0  0  0
   -0.3910   14.2300  -14.3810 H   0  0  0  0  0  0  0  0  0  0  0  0
   -4.4670   16.2790  -14.8720 H   0  0  0  0  0  0  0  0  0  0  0  0
   -3.4020   17.4180  -15.7770 H   0  0  0  0  0  0  0  0  0  0  0  0
   -5.0620   17.8780  -15.3490 H   0  0  0  0  0  0  0  0  0  0  0  0
   -3.1290   20.7880   -9.0360 H   0  0  0  0  0  0  0  0  0  0  0  0
   -1.1630   19.2920   -9.0050 H   0  0  0  0  0  0  0  0  0  0  0  0
   -0.7840   17.6810  -10.8730 H   0  0  0  0  0  0  0  0  0  0  0  0
   -5.6530   20.6520  -11.8190 H   0  0  0  0  0  0  0  0  0  0  0  0
   -4.7130   21.9760  -10.9530 H   0  0  0  0  0  0  0  0  0  0  0  0
   -5.6160   20.6570  -10.0290 H   0  0  0  0  0  0  0  0  0  0  0  0
   -0.7170   11.7810  -14.4500 H   0  0  0  0  0  0  0  0  0  0  0  0
   -2.4880   11.7870  -14.4010 H   0  0  0  0  0  0  0  0  0  0  0  0
   -2.5510   10.1500  -12.7270 H   0  0  0  0  0  0  0  0  0  0  0  0
   -1.1360   10.8250  -11.9150 H   0  0  0  0  0  0  0  0  0  0  0  0
   -0.8310    9.2780  -14.5360 H   0  0  0  0  0  0  0  0  0  0  0  0
    0.4060    9.7210  -13.3290 H   0  0  0  0  0  0  0  0  0  0  0  0
   -1.6230    8.3580  -11.9970 H   0  0  0  0  0  0  0  0  0  0  0  0
   -1.0690    6.1850  -13.2940 H   0  0  0  0  0  0  0  0  0  0  0  0
   -0.6200    7.3140  -14.5820 H   0  0  0  0  0  0  0  0  0  0  0  0
   -2.3570    7.2790  -14.0370 H   0  0  0  0  0  0  0  0  0  0  0  0
    0.1180    6.8410  -11.5540 H   0  0  0  0  0  0  0  0  0  0  0  0
    0.7550    8.5680  -11.4990 H   0  0  0  0  0  0  0  0  0  0  0  0
    1.0110    7.5430  -12.9480 H   0  0  0  0  0  0  0  0  0  0  0  0
  1  2  1  0  0  0  0
  2  7  1  0  0  0  0
  3  4  1  0  0  0  0
  3  2  2  0  0  0  0
  4  5  2  0  0  0  0
  5 35  1  0  0  0  0
  5  6  1  0  0  0  0
  6 36  1  0  0  0  0
  7  6  2  0  0  0  0
  7 37  1  0  0  0  0
  8 38  1  6  0  0  0
  8  9  1  0  0  0  0
  8 14  1  0  0  0  0
  8  4  1  0  0  0  0
  9 10  1  0  0  0  0
 10 12  1  0  0  0  0
 10 11  2  0  0  0  0
 12 13  2  0  0  0  0
 14 12  1  0  0  0  0
 15 17  1  0  0  0  0
 15 14  2  0  0  0  0
 16 15  1  0  0  0  0
 17 18  1  0  0  0  0
 18 19  1  0  0  0  0
 18 26  1  0  0  0  0
 19 23  1  0  0  0  0
 20 19  2  0  0  0  0
 21 17  2  0  0  0  0
 21 20  1  0  0  0  0
 22 39  1  0  0  0  0
 22 21  1  0  0  0  0
 23 24  2  0  0  0  0
 24 42  1  0  0  0  0
 25 24  1  0  0  0  0
 25 43  1  0  0  0  0
 26 44  1  0  0  0  0
 26 25  2  0  0  0  0
 27 23  1  0  0  0  0
 27 47  1  0  0  0  0
 28  9  1  0  0  0  0
 28 29  1  0  0  0  0
 29 50  1  0  0  0  0
 29 51  1  0  0  0  0
 30 53  1  0  0  0  0
 30 29  1  0  0  0  0
 30 31  1  0  0  0  0
 31 33  1  0  0  0  0
 31 54  1  0  0  0  0
 32 55  1  0  0  0  0
 32 31  1  0  0  0  0
 33 58  1  0  0  0  0
 33 59  1  0  0  0  0
 34  3  1  0  0  0  0
 40 22  1  0  0  0  0
 41 22  1  0  0  0  0
 45 27  1  0  0  0  0
 46 27  1  0  0  0  0
 48 28  1  0  0  0  0
 49 28  1  0  0  0  0
 52 30  1  0  0  0  0
 56 32  1  0  0  0  0
 57 32  1  0  0  0  0
 60 33  1  0  0  0  0
M  END
>  <Pose>
1

>  <Score>
-5.42

$$$$
