
 OpenBabel03232203513D

 39 42  0  0  1  0  0  0  0  0999 V2000
   -4.4150    9.4270  -13.6670 B   0  0  0  0  0  0  0  0  0  0  0  0
   -2.5710    9.9680  -13.7310 C   0  0  0  0  0  0  0  0  0  0  0  0
   -1.5710    9.1180  -13.3350 C   0  0  0  0  0  0  0  0  0  0  0  0
   -0.2330    9.5470  -13.3950 C   0  0  0  0  0  0  0  0  0  0  0  0
    0.0870   10.7940  -13.8420 C   0  0  0  0  0  0  0  0  0  0  0  0
   -0.9220   11.6360  -14.2370 C   0  0  0  0  0  0  0  0  0  0  0  0
   -2.2630   11.2190  -14.1810 C   0  0  0  0  0  0  0  0  0  0  0  0
    1.4660   11.2660  -13.9210 C   0  0  1  0  0  0  0  0  0  0  0  0
    1.8520   12.2490  -12.9330 C   0  0  0  0  0  0  0  0  0  0  0  0
    3.0100   12.1190  -12.2190 C   0  0  0  0  0  0  0  0  0  0  0  0
    3.9120   11.0240  -12.4220 N   0  0  0  0  0  0  0  0  0  0  0  0
    3.5290   10.0810  -13.4150 C   0  0  0  0  0  0  0  0  0  0  0  0
    2.4310   10.1840  -14.1120 C   0  0  0  0  0  0  0  0  0  0  0  0
    2.3690    9.0460  -15.0800 C   0  0  0  0  0  0  0  0  0  0  0  0
    1.4090    8.8850  -15.8930 O   0  0  0  0  0  0  0  0  0  0  0  0
    3.4930    8.3160  -14.8720 O   0  0  0  0  0  0  0  0  0  0  0  0
    4.2720    8.8290  -13.8450 C   0  0  0  0  0  0  0  0  0  0  0  0
    3.3350   13.0670  -11.2820 N   0  0  0  0  0  0  0  0  0  0  0  0
    2.5310   14.1140  -11.0650 C   0  0  0  0  0  0  0  0  0  0  0  0
    2.8510   14.9750  -10.1980 O   0  0  0  0  0  0  0  0  0  0  0  0
    1.3950   14.2330  -11.7730 N   0  0  0  0  0  0  0  0  0  0  0  0
    1.0070   13.3590  -12.6980 C   0  0  0  0  0  0  0  0  0  0  0  0
   -0.0520   13.4630  -13.3640 O   0  0  0  0  0  0  0  0  0  0  0  0
    0.5470   15.3950  -11.5000 C   0  0  0  0  0  0  0  0  0  0  0  0
    4.5800   12.8710  -10.5550 C   0  0  0  0  0  0  0  0  0  0  0  0
   -1.8410    8.1390  -12.9850 H   0  0  0  0  0  0  0  0  0  0  0  0
    0.4930    8.8150  -13.0580 H   0  0  0  0  0  0  0  0  0  0  0  0
   -0.7860   12.6440  -14.6070 H   0  0  0  0  0  0  0  0  0  0  0  0
   -3.0710   11.8720  -14.4880 H   0  0  0  0  0  0  0  0  0  0  0  0
    1.5080   11.8390  -14.9240 H   0  0  0  0  0  0  0  0  0  0  0  0
    4.7780   10.9610  -11.8580 H   0  0  0  0  0  0  0  0  0  0  0  0
    5.3050    9.0890  -14.1470 H   0  0  0  0  0  0  0  0  0  0  0  0
    4.2930    8.0880  -13.0180 H   0  0  0  0  0  0  0  0  0  0  0  0
   -0.1120   15.6100  -12.3650 H   0  0  0  0  0  0  0  0  0  0  0  0
    1.1660   16.2770  -11.3150 H   0  0  0  0  0  0  0  0  0  0  0  0
   -0.0120   15.1560  -10.5740 H   0  0  0  0  0  0  0  0  0  0  0  0
    4.8140   13.7450   -9.9310 H   0  0  0  0  0  0  0  0  0  0  0  0
    4.5300   11.9270  -10.0050 H   0  0  0  0  0  0  0  0  0  0  0  0
    5.3950   12.8330  -11.3360 H   0  0  0  0  0  0  0  0  0  0  0  0
  2  1  1  0  0  0  0
  2  3  1  0  0  0  0
  3 26  1  0  0  0  0
  4  3  2  0  0  0  0
  4 27  1  0  0  0  0
  5  4  1  0  0  0  0
  6  7  1  0  0  0  0
  6  5  2  0  0  0  0
  7  2  2  0  0  0  0
  8 30  1  6  0  0  0
  8  5  1  0  0  0  0
  8  9  1  0  0  0  0
  9 22  1  0  0  0  0
  9 10  2  0  0  0  0
 10 18  1  0  0  0  0
 11 10  1  0  0  0  0
 11 31  1  0  0  0  0
 12 11  1  0  0  0  0
 13  8  1  0  0  0  0
 13 12  2  0  0  0  0
 14 16  1  0  0  0  0
 14 13  1  0  0  0  0
 15 14  2  0  0  0  0
 16 17  1  0  0  0  0
 17 12  1  0  0  0  0
 17 33  1  0  0  0  0
 18 19  1  0  0  0  0
 18 25  1  0  0  0  0
 19 20  2  0  0  0  0
 21 24  1  0  0  0  0
 21 19  1  0  0  0  0
 22 21  1  0  0  0  0
 23 22  2  0  0  0  0
 24 35  1  0  0  0  0
 24 36  1  0  0  0  0
 25 38  1  0  0  0  0
 25 37  1  0  0  0  0
 28  6  1  0  0  0  0
 29  7  1  0  0  0  0
 32 17  1  0  0  0  0
 34 24  1  0  0  0  0
 39 25  1  0  0  0  0
M  END
>  <Pose>
1

>  <Score>
-4.59

$$$$
