
 OpenBabel03232203513D

 31 34  0  0  1  0  0  0  0  0999 V2000
    3.4280   11.0440  -12.6220 B   0  0  0  0  0  0  0  0  0  0  0  0
    1.8940   12.1810  -12.7820 C   0  0  0  0  0  0  0  0  0  0  0  0
    0.7530   11.6090  -13.2970 C   0  0  0  0  0  0  0  0  0  0  0  0
   -0.3590   12.4440  -13.4130 C   0  0  0  0  0  0  0  0  0  0  0  0
   -0.2940   13.7620  -13.0260 C   0  0  0  0  0  0  0  0  0  0  0  0
    0.8550   14.3360  -12.5090 C   0  0  0  0  0  0  0  0  0  0  0  0
    1.9600   13.5160  -12.3920 C   0  0  0  0  0  0  0  0  0  0  0  0
    0.8910   15.7030  -12.1160 N   0  0  0  0  0  0  0  0  0  0  0  0
   -0.1720   16.3470  -12.1280 O   0  0  0  0  0  0  0  0  0  0  0  0
    2.0230   16.3620  -11.7220 O   0  0  0  0  0  0  0  0  0  0  0  0
    0.7120   10.2440  -13.6810 N   0  0  0  0  0  0  0  0  0  0  0  0
   -0.2960    9.2640  -13.5130 C   0  0  0  0  0  0  0  0  0  0  0  0
   -1.5030    9.4720  -13.2750 O   0  0  0  0  0  0  0  0  0  0  0  0
    0.2740    7.9070  -13.6570 C   0  0  2  0  0  0  0  0  0  0  0  0
    0.5880    7.4170  -12.2600 C   0  0  2  0  0  0  0  0  0  0  0  0
    1.7420    8.1980  -11.9830 O   0  0  0  0  0  0  0  0  0  0  0  0
    2.5280    7.6970  -13.0550 C   0  0  2  0  0  0  0  0  0  0  0  0
    1.6760    8.1190  -14.2210 C   0  0  2  0  0  0  0  0  0  0  0  0
    1.7840    9.5880  -14.3640 C   0  0  0  0  0  0  0  0  0  0  0  0
    2.7030   10.1940  -15.0040 O   0  0  0  0  0  0  0  0  0  0  0  0
    2.4290    6.2480  -12.7800 C   0  0  0  0  0  0  0  0  0  0  0  0
    1.1980    6.0650  -12.3080 C   0  0  0  0  0  0  0  0  0  0  0  0
   -1.2760   12.0220  -13.8170 H   0  0  0  0  0  0  0  0  0  0  0  0
   -1.1640   14.4210  -13.1140 H   0  0  0  0  0  0  0  0  0  0  0  0
    2.8790   13.8990  -12.0000 H   0  0  0  0  0  0  0  0  0  0  0  0
   -0.3290    7.2240  -14.2460 H   0  0  0  0  0  0  0  0  0  0  0  0
   -0.2070    7.5550  -11.5430 H   0  0  0  0  0  0  0  0  0  0  0  0
    3.5350    8.1010  -13.0510 H   0  0  0  0  0  0  0  0  0  0  0  0
    1.8400    7.5730  -15.1450 H   0  0  0  0  0  0  0  0  0  0  0  0
    3.2030    5.5110  -12.9370 H   0  0  0  0  0  0  0  0  0  0  0  0
    0.7200    5.1310  -12.0130 H   0  0  0  0  0  0  0  0  0  0  0  0
  2  1  1  0  0  0  0
  2  7  1  0  0  0  0
  3  2  2  0  0  0  0
  4  3  1  0  0  0  0
  4  5  2  0  0  0  0
  5  6  1  0  0  0  0
  6  7  2  0  0  0  0
  6  8  1  0  0  0  0
  7 25  1  0  0  0  0
  8 10  2  0  0  0  0
  9  8  2  0  0  0  0
 11 12  1  0  0  0  0
 11  3  1  0  0  0  0
 12 13  2  0  0  0  0
 14 26  1  6  0  0  0
 14 12  1  0  0  0  0
 14 15  1  0  0  0  0
 15 16  1  0  0  0  0
 15 27  1  1  0  0  0
 17 28  1  6  0  0  0
 17 21  1  0  0  0  0
 17 16  1  0  0  0  0
 18 29  1  6  0  0  0
 18 14  1  0  0  0  0
 18 17  1  0  0  0  0
 19 18  1  0  0  0  0
 19 11  1  0  0  0  0
 20 19  2  0  0  0  0
 21 22  2  0  0  0  0
 22 15  1  0  0  0  0
 22 31  1  0  0  0  0
 23  4  1  0  0  0  0
 24  5  1  0  0  0  0
 30 21  1  0  0  0  0
M  END
>  <Pose>
1

>  <Score>
-4.92

$$$$
