
 OpenBabel03232203513D

 39 42  0  0  1  0  0  0  0  0999 V2000
    3.1950   13.7960  -12.0710 B   0  0  0  0  0  0  0  0  0  0  0  0
    1.5670   13.0400  -12.7000 C   0  0  0  0  0  0  0  0  0  0  0  0
    0.4720   13.8610  -12.8430 C   0  0  0  0  0  0  0  0  0  0  0  0
   -0.6920   13.2880  -13.3010 C   0  0  0  0  0  0  0  0  0  0  0  0
   -0.7440   11.9230  -13.6040 C   0  0  0  0  0  0  0  0  0  0  0  0
    0.3440   11.0870  -13.4660 C   0  0  0  0  0  0  0  0  0  0  0  0
    1.5080   11.6780  -13.0040 C   0  0  0  0  0  0  0  0  0  0  0  0
    0.2930    9.7000  -13.7730 N   0  0  0  0  0  0  0  0  0  0  0  0
    1.3200    8.9650  -14.4270 C   0  0  0  0  0  0  0  0  0  0  0  0
    2.1630    9.3970  -15.2430 O   0  0  0  0  0  0  0  0  0  0  0  0
    1.2620    7.5360  -13.9920 C   0  0  1  0  0  0  0  0  0  0  0  0
    2.0490    7.2950  -12.7480 C   0  0  1  0  0  0  0  0  0  0  0  0
    1.1960    7.7870  -11.7290 O   0  0  0  0  0  0  0  0  0  0  0  0
    0.0830    6.9700  -12.0530 C   0  0  1  0  0  0  0  0  0  0  0  0
   -0.1640    7.3870  -13.4660 C   0  0  1  0  0  0  0  0  0  0  0  0
   -0.7350    8.7540  -13.5110 C   0  0  0  0  0  0  0  0  0  0  0  0
   -1.9410    9.0290  -13.3420 O   0  0  0  0  0  0  0  0  0  0  0  0
    0.7480    5.6330  -12.0050 C   0  0  0  0  0  0  0  0  0  0  0  0
    2.0050    5.8420  -12.4350 C   0  0  0  0  0  0  0  0  0  0  0  0
   -1.0440    7.1310  -11.1250 C   0  0  0  0  0  0  0  0  0  0  0  0
    3.3980    7.8870  -12.7150 C   0  0  0  0  0  0  0  0  0  0  0  0
    4.2540    7.2910  -13.6380 O   0  0  0  0  0  0  0  0  0  0  0  0
    0.5260   15.3180  -12.5230 C   0  0  0  0  0  0  0  0  0  0  0  0
   -1.5820   13.8980  -13.4280 H   0  0  0  0  0  0  0  0  0  0  0  0
   -1.6790   11.5120  -13.9640 H   0  0  0  0  0  0  0  0  0  0  0  0
    2.3920   11.0530  -12.8840 H   0  0  0  0  0  0  0  0  0  0  0  0
    1.4770    6.8560  -14.8170 H   0  0  0  0  0  0  0  0  0  0  0  0
   -0.7490    6.6660  -14.0670 H   0  0  0  0  0  0  0  0  0  0  0  0
    0.2790    4.7330  -11.6880 H   0  0  0  0  0  0  0  0  0  0  0  0
    2.7800    5.0900  -12.5190 H   0  0  0  0  0  0  0  0  0  0  0  0
   -2.0460    7.2130  -11.5800 H   0  0  0  0  0  0  0  0  0  0  0  0
   -1.0800    6.2720  -10.4190 H   0  0  0  0  0  0  0  0  0  0  0  0
   -0.8980    8.0430  -10.4780 H   0  0  0  0  0  0  0  0  0  0  0  0
    3.8490    7.7510  -11.7180 H   0  0  0  0  0  0  0  0  0  0  0  0
    3.3650    8.9600  -12.9910 H   0  0  0  0  0  0  0  0  0  0  0  0
    3.7860    6.9910  -14.4670 H   0  0  0  0  0  0  0  0  0  0  0  0
    1.3420   15.4430  -11.7870 H   0  0  0  0  0  0  0  0  0  0  0  0
    0.8380   15.9180  -13.4150 H   0  0  0  0  0  0  0  0  0  0  0  0
   -0.4340   15.7110  -12.1890 H   0  0  0  0  0  0  0  0  0  0  0  0
  2  1  1  0  0  0  0
  3  2  1  0  0  0  0
  3 23  1  0  0  0  0
  4  3  2  0  0  0  0
  5  6  2  0  0  0  0
  5  4  1  0  0  0  0
  6  7  1  0  0  0  0
  7 26  1  0  0  0  0
  7  2  2  0  0  0  0
  8 16  1  0  0  0  0
  8  6  1  0  0  0  0
  9 11  1  0  0  0  0
  9  8  1  0  0  0  0
 10  9  2  0  0  0  0
 11 27  1  6  0  0  0
 11 15  1  0  0  0  0
 11 12  1  0  0  0  0
 12 21  1  6  0  0  0
 12 19  1  0  0  0  0
 12 13  1  0  0  0  0
 14 18  1  0  0  0  0
 14 13  1  0  0  0  0
 14 20  1  1  0  0  0
 15 28  1  6  0  0  0
 15 14  1  0  0  0  0
 16 15  1  0  0  0  0
 16 17  2  0  0  0  0
 18 29  1  0  0  0  0
 19 18  2  0  0  0  0
 20 33  1  0  0  0  0
 20 32  1  0  0  0  0
 21 34  1  0  0  0  0
 22 21  1  0  0  0  0
 23 39  1  0  0  0  0
 23 37  1  0  0  0  0
 24  4  1  0  0  0  0
 25  5  1  0  0  0  0
 30 19  1  0  0  0  0
 31 20  1  0  0  0  0
 35 21  1  0  0  0  0
 36 22  1  0  0  0  0
 38 23  1  0  0  0  0
M  END
>  <Pose>
1

>  <Score>
-4.39

$$$$
