
 OpenBabel03232203513D

 54 57  0  0  1  0  0  0  0  0999 V2000
    7.6350    6.3690  -12.5870 B   0  0  0  0  0  0  0  0  0  0  0  0
    5.7530    5.9710  -12.6320 C   0  0  0  0  0  0  0  0  0  0  0  0
    4.8890    6.7370  -13.4170 C   0  0  0  0  0  0  0  0  0  0  0  0
    3.5400    6.4980  -13.4870 C   0  0  0  0  0  0  0  0  0  0  0  0
    3.0640    5.4230  -12.7170 C   0  0  0  0  0  0  0  0  0  0  0  0
    3.9040    4.6610  -11.9390 C   0  0  0  0  0  0  0  0  0  0  0  0
    5.2550    4.9240  -11.8880 C   0  0  0  0  0  0  0  0  0  0  0  0
    2.5860    7.2720  -14.2870 C   0  0  1  0  0  0  0  0  0  0  0  0
    1.2310    6.7660  -14.2540 N   0  0  0  0  0  0  0  0  0  0  0  0
    0.6520    7.2200  -13.0430 C   0  0  0  0  0  0  0  0  0  0  0  0
   -0.2780    6.6920  -12.3850 O   0  0  0  0  0  0  0  0  0  0  0  0
    1.3600    8.4520  -12.6950 C   0  0  0  0  0  0  0  0  0  0  0  0
    1.1950    9.2050  -11.7080 O   0  0  0  0  0  0  0  0  0  0  0  0
    2.3490    8.6550  -13.7660 C   0  0  0  0  0  0  0  0  0  0  0  0
    2.8780    9.8090  -14.1050 C   0  0  0  0  0  0  0  0  0  0  0  0
    3.8400    9.7920  -15.1230 O   0  0  0  0  0  0  0  0  0  0  0  0
    2.4880   11.0810  -13.4640 C   0  0  0  0  0  0  0  0  0  0  0  0
    3.1740   11.8300  -12.6520 O   0  0  0  0  0  0  0  0  0  0  0  0
    2.4960   12.8940  -12.2860 C   0  0  0  0  0  0  0  0  0  0  0  0
    1.2530   12.8660  -12.8980 C   0  0  0  0  0  0  0  0  0  0  0  0
    1.2680   11.7040  -13.6440 C   0  0  0  0  0  0  0  0  0  0  0  0
    0.3440   13.8780  -12.6770 C   0  0  0  0  0  0  0  0  0  0  0  0
    0.6210   14.9450  -11.8540 C   0  0  0  0  0  0  0  0  0  0  0  0
    1.8530   14.9880  -11.2380 C   0  0  0  0  0  0  0  0  0  0  0  0
    2.7760   13.9670  -11.4580 C   0  0  0  0  0  0  0  0  0  0  0  0
    0.5030    5.9630  -15.2340 C   0  0  0  0  0  0  0  0  0  0  0  0
   -0.6340    6.7650  -15.8380 C   0  0  0  0  0  0  0  0  0  0  0  0
   -1.9870    6.3030  -15.3640 C   0  0  0  0  0  0  0  0  0  0  0  0
   -2.9930    6.7480  -16.2740 N   0  0  0  0  0  4  0  0  0  0  0  0
   -4.1620    7.2910  -15.6150 C   0  0  0  0  0  0  0  0  0  0  0  0
   -2.5600    7.7010  -17.2500 C   0  0  0  0  0  0  0  0  0  0  0  0
    5.3090    7.5460  -13.9900 H   0  0  0  0  0  0  0  0  0  0  0  0
    2.0000    5.2090  -12.7540 H   0  0  0  0  0  0  0  0  0  0  0  0
    3.5350    3.8300  -11.3450 H   0  0  0  0  0  0  0  0  0  0  0  0
    5.9430    4.3270  -11.2730 H   0  0  0  0  0  0  0  0  0  0  0  0
    2.9530    7.3100  -15.3420 H   0  0  0  0  0  0  0  0  0  0  0  0
    0.4680   11.3590  -14.2660 H   0  0  0  0  0  0  0  0  0  0  0  0
   -0.6210   13.8520  -13.1560 H   0  0  0  0  0  0  0  0  0  0  0  0
   -0.0580   15.7600  -11.6510 H   0  0  0  0  0  0  0  0  0  0  0  0
    2.0930   15.8260  -10.5810 H   0  0  0  0  0  0  0  0  0  0  0  0
    3.7310   14.0440  -10.9520 H   0  0  0  0  0  0  0  0  0  0  0  0
    1.1450    5.6360  -16.0760 H   0  0  0  0  0  0  0  0  0  0  0  0
    0.0920    5.0590  -14.7570 H   0  0  0  0  0  0  0  0  0  0  0  0
   -0.6010    6.5420  -16.9300 H   0  0  0  0  0  0  0  0  0  0  0  0
   -0.4970    7.8390  -15.7040 H   0  0  0  0  0  0  0  0  0  0  0  0
   -2.2360    6.7040  -14.3560 H   0  0  0  0  0  0  0  0  0  0  0  0
   -2.0210    5.1910  -15.3290 H   0  0  0  0  0  0  0  0  0  0  0  0
   -3.3340    5.8930  -16.8070 H   0  0  0  0  0  0  0  0  0  0  0  0
   -5.0450    7.1640  -16.3020 H   0  0  0  0  0  0  0  0  0  0  0  0
   -4.0390    8.3810  -15.4770 H   0  0  0  0  0  0  0  0  0  0  0  0
   -4.3270    6.7470  -14.6750 H   0  0  0  0  0  0  0  0  0  0  0  0
   -2.5930    8.7490  -16.8980 H   0  0  0  0  0  0  0  0  0  0  0  0
   -3.2520    7.6540  -18.1140 H   0  0  0  0  0  0  0  0  0  0  0  0
   -1.5490    7.4340  -17.6790 H   0  0  0  0  0  0  0  0  0  0  0  0
  2  1  1  0  0  0  0
  2  7  1  0  0  0  0
  3  2  2  0  0  0  0
  4  3  1  0  0  0  0
  4  5  2  0  0  0  0
  5  6  1  0  0  0  0
  6  7  2  0  0  0  0
  6 34  1  0  0  0  0
  7 35  1  0  0  0  0
  8 36  1  6  0  0  0
  8  9  1  0  0  0  0
  8 14  1  0  0  0  0
  8  4  1  0  0  0  0
  9 10  1  0  0  0  0
 10 12  1  0  0  0  0
 10 11  2  0  0  0  0
 12 13  2  0  0  0  0
 14 12  1  0  0  0  0
 15 14  2  0  0  0  0
 15 17  1  0  0  0  0
 16 15  1  0  0  0  0
 17 18  1  0  0  0  0
 18 19  1  0  0  0  0
 19 25  1  0  0  0  0
 20 22  1  0  0  0  0
 20 19  2  0  0  0  0
 21 17  2  0  0  0  0
 21 20  1  0  0  0  0
 22 23  2  0  0  0  0
 23 39  1  0  0  0  0
 23 24  1  0  0  0  0
 24 40  1  0  0  0  0
 25 24  2  0  0  0  0
 25 41  1  0  0  0  0
 26 43  1  0  0  0  0
 26  9  1  0  0  0  0
 27 45  1  0  0  0  0
 27 28  1  0  0  0  0
 27 26  1  0  0  0  0
 28 47  1  0  0  0  0
 28 46  1  0  0  0  0
 29 30  1  0  0  0  0
 29 28  1  0  0  0  0
 30 50  1  0  0  0  0
 30 51  1  0  0  0  0
 31 52  1  0  0  0  0
 31 29  1  0  0  0  0
 32  3  1  0  0  0  0
 33  5  1  0  0  0  0
 37 21  1  0  0  0  0
 38 22  1  0  0  0  0
 42 26  1  0  0  0  0
 44 27  1  0  0  0  0
 48 29  1  0  0  0  0
 49 30  1  0  0  0  0
 53 31  1  0  0  0  0
 54 31  1  0  0  0  0
M  END
>  <Pose>
1

>  <Score>
-3.26

$$$$
