
 OpenBabel03232203513D

 52 55  0  0  1  0  0  0  0  0999 V2000
   -1.3560   16.7780  -13.3930 B   0  0  0  0  0  0  0  0  0  0  0  0
   -0.0630   15.3980  -12.9820 C   0  0  0  0  0  0  0  0  0  0  0  0
   -0.2640   14.1060  -13.3770 C   0  0  0  0  0  0  0  0  0  0  0  0
    0.6240   13.1070  -13.0990 C   0  0  0  0  0  0  0  0  0  0  0  0
    1.7680   13.4810  -12.3770 C   0  0  0  0  0  0  0  0  0  0  0  0
    2.0050   14.7630  -11.9660 C   0  0  0  0  0  0  0  0  0  0  0  0
    1.0730   15.7250  -12.2770 C   0  0  0  0  0  0  0  0  0  0  0  0
    0.4770   11.7220  -13.4650 C   0  0  2  0  0  0  0  0  0  0  0  0
    0.6050   11.5010  -14.7530 O   0  0  0  0  0  0  0  0  0  0  0  0
    0.2090   10.5370  -12.6390 C   0  0  0  0  0  0  0  0  0  0  0  0
   -0.8790    9.7170  -13.1260 N   0  0  0  0  0  0  0  0  0  0  0  0
   -0.8020    8.3560  -13.2950 C   0  0  0  0  0  0  0  0  0  0  0  0
   -1.9960    7.9650  -13.8270 C   0  0  0  0  0  0  0  0  0  0  0  0
   -2.2130    6.6120  -14.1060 C   0  0  0  0  0  0  0  0  0  0  0  0
   -1.2170    5.6960  -13.8400 C   0  0  0  0  0  0  0  0  0  0  0  0
   -0.0100    6.0890  -13.3040 C   0  0  0  0  0  0  0  0  0  0  0  0
    0.1950    7.4430  -13.0290 C   0  0  0  0  0  0  0  0  0  0  0  0
   -2.7640    9.0670  -13.9740 N   0  0  0  0  0  0  0  0  0  0  0  0
   -2.0970   10.1440  -13.5530 C   0  0  2  0  0  0  0  0  0  0  0  0
   -2.5110   11.3880  -13.6380 N   0  0  0  0  0  0  0  0  0  0  0  0
   -4.0930    9.0010  -14.5590 C   0  0  0  0  0  0  0  0  0  0  0  0
   -5.1020    9.8990  -13.9710 C   0  0  0  0  0  0  0  0  0  0  0  0
   -6.2700    9.3470  -13.3850 N   0  0  0  0  0  0  0  0  0  0  0  0
   -7.2340    8.9350  -14.4370 C   0  0  0  0  0  0  0  0  0  0  0  0
   -7.5830   10.0620  -15.3520 C   0  0  0  0  0  0  0  0  0  0  0  0
   -8.3110   10.9860  -14.6010 O   0  0  0  0  0  0  0  0  0  0  0  0
   -7.6020   11.4320  -13.5140 C   0  0  0  0  0  0  0  0  0  0  0  0
   -7.0410   10.3490  -12.6310 C   0  0  0  0  0  0  0  0  0  0  0  0
   -1.1480   13.9000  -13.9280 H   0  0  0  0  0  0  0  0  0  0  0  0
    2.5350   12.7570  -12.1100 H   0  0  0  0  0  0  0  0  0  0  0  0
    2.9130   15.0250  -11.3990 H   0  0  0  0  0  0  0  0  0  0  0  0
    1.2470   16.7550  -11.9570 H   0  0  0  0  0  0  0  0  0  0  0  0
    1.1350    9.8870  -12.5450 H   0  0  0  0  0  0  0  0  0  0  0  0
   -0.0630   10.8740  -11.5930 H   0  0  0  0  0  0  0  0  0  0  0  0
   -3.1680    6.3130  -14.5240 H   0  0  0  0  0  0  0  0  0  0  0  0
   -1.4120    4.6600  -14.0620 H   0  0  0  0  0  0  0  0  0  0  0  0
    0.7540    5.3520  -13.1030 H   0  0  0  0  0  0  0  0  0  0  0  0
    1.1410    7.7450  -12.6220 H   0  0  0  0  0  0  0  0  0  0  0  0
   -3.4380   11.6480  -13.9640 H   0  0  0  0  0  0  0  0  0  0  0  0
   -1.8530   12.1400  -13.3890 H   0  0  0  0  0  0  0  0  0  0  0  0
   -4.0030    9.1490  -15.6570 H   0  0  0  0  0  0  0  0  0  0  0  0
   -4.4580    7.9550  -14.4440 H   0  0  0  0  0  0  0  0  0  0  0  0
   -5.3550   10.7160  -14.7190 H   0  0  0  0  0  0  0  0  0  0  0  0
   -4.5730   10.4910  -13.1620 H   0  0  0  0  0  0  0  0  0  0  0  0
   -6.8840    8.0260  -14.9550 H   0  0  0  0  0  0  0  0  0  0  0  0
   -8.1450    8.6680  -13.8710 H   0  0  0  0  0  0  0  0  0  0  0  0
   -8.2770    9.6590  -16.1180 H   0  0  0  0  0  0  0  0  0  0  0  0
   -6.7510   10.5220  -15.8870 H   0  0  0  0  0  0  0  0  0  0  0  0
   -8.3430   11.9930  -12.8720 H   0  0  0  0  0  0  0  0  0  0  0  0
   -6.8370   12.1630  -13.8520 H   0  0  0  0  0  0  0  0  0  0  0  0
   -6.4910   10.8140  -11.8210 H   0  0  0  0  0  0  0  0  0  0  0  0
   -7.9400    9.7650  -12.2630 H   0  0  0  0  0  0  0  0  0  0  0  0
  1  2  1  0  0  0  0
  2  7  1  0  0  0  0
  3  4  1  0  0  0  0
  3  2  2  0  0  0  0
  4  5  2  0  0  0  0
  5 30  1  0  0  0  0
  5  6  1  0  0  0  0
  6 31  1  0  0  0  0
  7  6  2  0  0  0  0
  7 32  1  0  0  0  0
  8  9  1  6  0  0  0
  8  4  1  0  0  0  0
  8 10  1  0  0  0  0
 10 33  1  0  0  0  0
 10 34  1  0  0  0  0
 11 10  1  0  0  0  0
 12 11  1  0  0  0  0
 12 17  1  0  0  0  0
 13 12  2  0  0  0  0
 14 15  2  0  0  0  0
 14 13  1  0  0  0  0
 15 16  1  0  0  0  0
 16 37  1  0  0  0  0
 16 17  2  0  0  0  0
 17 38  1  0  0  0  0
 18 13  1  0  0  0  0
 18 19  1  0  0  0  0
 19 20  1  6  0  0  0
 19 11  1  0  0  0  0
 20 40  1  0  0  0  0
 21 42  1  0  0  0  0
 21 18  1  0  0  0  0
 21 22  1  0  0  0  0
 22 23  1  0  0  0  0
 22 44  1  0  0  0  0
 23 28  1  0  0  0  0
 24 46  1  0  0  0  0
 24 23  1  0  0  0  0
 25 26  1  0  0  0  0
 25 24  1  0  0  0  0
 26 27  1  0  0  0  0
 27 49  1  0  0  0  0
 27 28  1  0  0  0  0
 28 52  1  0  0  0  0
 28 51  1  0  0  0  0
 29  3  1  0  0  0  0
 35 14  1  0  0  0  0
 36 15  1  0  0  0  0
 39 20  1  0  0  0  0
 41 21  1  0  0  0  0
 43 22  1  0  0  0  0
 45 24  1  0  0  0  0
 47 25  1  0  0  0  0
 48 25  1  0  0  0  0
 50 27  1  0  0  0  0
M  END
>  <Pose>
1

>  <Score>
-5.64

$$$$
