
 OpenBabel03232203513D

 55 58  0  0  1  0  0  0  0  0999 V2000
   -5.4760   21.0520   -9.8770 B   0  0  0  0  0  0  0  0  0  0  0  0
   -4.2300   19.9020  -10.7680 C   0  0  0  0  0  0  0  0  0  0  0  0
   -4.5300   19.4580  -12.0370 C   0  0  0  0  0  0  0  0  0  0  0  0
   -3.6480   18.6310  -12.6930 C   0  0  0  0  0  0  0  0  0  0  0  0
   -2.4450   18.2010  -12.1520 C   0  0  0  0  0  0  0  0  0  0  0  0
   -2.1740   18.6610  -10.8830 C   0  0  0  0  0  0  0  0  0  0  0  0
   -3.0620   19.5060  -10.1990 C   0  0  0  0  0  0  0  0  0  0  0  0
   -1.6210   17.3640  -12.8970 N   0  0  0  0  0  0  0  0  0  0  0  0
   -0.6840   16.4170  -12.4450 C   0  0  0  0  0  0  0  0  0  0  0  0
   -0.0010   16.6290  -11.4240 O   0  0  0  0  0  0  0  0  0  0  0  0
   -0.4510   15.1250  -13.1400 C   0  0  0  0  0  0  0  0  0  0  0  0
   -0.4930   14.0290  -12.2180 N   0  0  0  0  0  0  0  0  0  0  0  0
    0.2230   12.8210  -12.4020 C   0  0  0  0  0  0  0  0  0  0  0  0
    0.9740   12.4350  -11.4660 O   0  0  0  0  0  0  0  0  0  0  0  0
    0.0760   12.0550  -13.6680 C   0  0  2  0  0  0  0  0  0  0  0  0
   -1.2320   11.9480  -13.9600 O   0  0  0  0  0  0  0  0  0  0  0  0
   -1.6490   10.8870  -14.7010 C   0  0  2  0  0  0  0  0  0  0  0  0
   -3.0430   10.8000  -14.5730 O   0  0  0  0  0  0  0  0  0  0  0  0
   -3.3090   10.0110  -13.4800 C   0  0  0  0  0  0  0  0  0  0  0  0
   -2.1300    9.4340  -13.0520 O   0  0  0  0  0  0  0  0  0  0  0  0
   -1.2320    9.5490  -14.1370 C   0  0  2  0  0  0  0  0  0  0  0  0
    0.1830    9.5320  -13.7020 C   0  0  1  0  0  0  0  0  0  0  0  0
    0.9760    8.7350  -14.5580 O   0  0  0  0  0  0  0  0  0  0  0  0
    2.1500    9.4110  -14.7790 C   0  0  0  0  0  0  0  0  0  0  0  0
    1.8020   10.7340  -14.7000 O   0  0  0  0  0  0  0  0  0  0  0  0
    0.8900   10.8160  -13.6370 C   0  0  1  0  0  0  0  0  0  0  0  0
    2.6180    9.0380  -16.1910 C   0  0  0  0  0  0  0  0  0  0  0  0
    3.2610    9.0070  -13.8460 C   0  0  0  0  0  0  0  0  0  0  0  0
   -4.2580    8.8620  -13.8240 C   0  0  0  0  0  0  0  0  0  0  0  0
   -3.9690   10.7850  -12.3500 C   0  0  0  0  0  0  0  0  0  0  0  0
   -5.4720   19.7640  -12.5250 H   0  0  0  0  0  0  0  0  0  0  0  0
   -3.9380   18.3150  -13.6860 H   0  0  0  0  0  0  0  0  0  0  0  0
   -1.2790   18.3860  -10.3870 H   0  0  0  0  0  0  0  0  0  0  0  0
   -2.7950   19.8290   -9.2160 H   0  0  0  0  0  0  0  0  0  0  0  0
   -1.7050   17.4440  -13.9630 H   0  0  0  0  0  0  0  0  0  0  0  0
   -1.3230   14.9820  -13.8450 H   0  0  0  0  0  0  0  0  0  0  0  0
    0.4470   15.1360  -13.7830 H   0  0  0  0  0  0  0  0  0  0  0  0
   -1.0840   14.1250  -11.3650 H   0  0  0  0  0  0  0  0  0  0  0  0
    0.5450   12.7220  -14.4550 H   0  0  0  0  0  0  0  0  0  0  0  0
   -1.4480   10.9570  -15.7890 H   0  0  0  0  0  0  0  0  0  0  0  0
   -1.4670    8.7860  -14.9070 H   0  0  0  0  0  0  0  0  0  0  0  0
    0.2250    8.9880  -12.7120 H   0  0  0  0  0  0  0  0  0  0  0  0
    1.5260   10.8300  -12.7140 H   0  0  0  0  0  0  0  0  0  0  0  0
    3.6490    9.3990  -16.2930 H   0  0  0  0  0  0  0  0  0  0  0  0
    1.9220    9.4230  -16.9510 H   0  0  0  0  0  0  0  0  0  0  0  0
    2.5890    7.9300  -16.2340 H   0  0  0  0  0  0  0  0  0  0  0  0
    3.9540    9.8150  -13.6070 H   0  0  0  0  0  0  0  0  0  0  0  0
    2.8590    8.5730  -12.9070 H   0  0  0  0  0  0  0  0  0  0  0  0
    3.8890    8.1820  -14.2950 H   0  0  0  0  0  0  0  0  0  0  0  0
   -5.0590    9.2550  -14.4600 H   0  0  0  0  0  0  0  0  0  0  0  0
   -3.7090    8.0040  -14.2520 H   0  0  0  0  0  0  0  0  0  0  0  0
   -4.7060    8.5360  -12.8620 H   0  0  0  0  0  0  0  0  0  0  0  0
   -5.0120   10.4540  -12.1660 H   0  0  0  0  0  0  0  0  0  0  0  0
   -4.0020   11.8770  -12.5770 H   0  0  0  0  0  0  0  0  0  0  0  0
   -3.4240   10.6380  -11.3850 H   0  0  0  0  0  0  0  0  0  0  0  0
  2  7  1  0  0  0  0
  2  1  1  0  0  0  0
  3  2  2  0  0  0  0
  4  5  2  0  0  0  0
  4  3  1  0  0  0  0
  5  6  1  0  0  0  0
  6 33  1  0  0  0  0
  6  7  2  0  0  0  0
  7 34  1  0  0  0  0
  8  9  1  0  0  0  0
  8  5  1  0  0  0  0
  9 10  2  0  0  0  0
 11  9  1  0  0  0  0
 11 12  1  0  0  0  0
 12 38  1  0  0  0  0
 13 12  1  0  0  0  0
 13 14  2  0  0  0  0
 15 39  1  6  0  0  0
 15 26  1  0  0  0  0
 15 13  1  0  0  0  0
 16 15  1  0  0  0  0
 17 40  1  6  0  0  0
 17 18  1  0  0  0  0
 17 21  1  0  0  0  0
 17 16  1  0  0  0  0
 18 19  1  0  0  0  0
 19 20  1  0  0  0  0
 19 30  1  0  0  0  0
 21 41  1  6  0  0  0
 21 22  1  0  0  0  0
 21 20  1  0  0  0  0
 22 26  1  0  0  0  0
 22 42  1  1  0  0  0
 23 22  1  0  0  0  0
 24 25  1  0  0  0  0
 24 23  1  0  0  0  0
 24 28  1  0  0  0  0
 25 26  1  0  0  0  0
 26 43  1  1  0  0  0
 27 24  1  0  0  0  0
 28 47  1  0  0  0  0
 28 48  1  0  0  0  0
 29 19  1  0  0  0  0
 29 52  1  0  0  0  0
 30 53  1  0  0  0  0
 30 55  1  0  0  0  0
 31  3  1  0  0  0  0
 32  4  1  0  0  0  0
 35  8  1  0  0  0  0
 36 11  1  0  0  0  0
 37 11  1  0  0  0  0
 44 27  1  0  0  0  0
 45 27  1  0  0  0  0
 46 27  1  0  0  0  0
 49 28  1  0  0  0  0
 50 29  1  0  0  0  0
 51 29  1  0  0  0  0
 54 30  1  0  0  0  0
M  END
>  <Pose>
1

>  <Score>
-6.07

$$$$
