
 OpenBabel03232203513D

 52 55  0  0  1  0  0  0  0  0999 V2000
    0.8970    7.1250  -11.9850 B   0  0  0  0  0  0  0  0  0  0  0  0
    1.0950    8.8630  -12.8010 C   0  0  0  0  0  0  0  0  0  0  0  0
    0.0290    9.7260  -12.8480 C   0  0  0  0  0  0  0  0  0  0  0  0
    0.0990   11.0010  -13.4330 C   0  0  0  0  0  0  0  0  0  0  0  0
    1.2900   11.3870  -13.9690 C   0  0  0  0  0  0  0  0  0  0  0  0
    2.3780   10.5210  -13.9280 C   0  0  0  0  0  0  0  0  0  0  0  0
    2.2890    9.2660  -13.3510 C   0  0  0  0  0  0  0  0  0  0  0  0
   -1.1130   11.8360  -13.4020 C   0  0  0  0  0  0  0  0  0  0  0  0
   -2.1540   11.5180  -13.9900 O   0  0  0  0  0  0  0  0  0  0  0  0
   -1.0200   13.0600  -12.6240 N   0  0  0  0  0  0  0  0  0  0  0  0
   -0.2190   14.1490  -13.1260 C   0  0  2  0  0  0  0  0  0  0  0  0
    0.9050   14.2860  -12.0660 C   0  0  0  0  0  0  0  0  0  0  0  0
   -0.9330   15.4620  -13.1560 C   0  0  0  0  0  0  0  0  0  0  0  0
   -2.0480   15.5040  -13.7140 O   0  0  0  0  0  0  0  0  0  0  0  0
   -0.3950   16.6160  -12.5740 N   0  0  0  0  0  0  0  0  0  0  0  0
    0.1240   17.8000  -13.1700 C   0  0  0  0  0  0  0  0  0  0  0  0
   -0.1840   18.9050  -12.1480 C   0  0  0  0  0  0  0  0  0  0  0  0
   -1.4290   18.6070  -11.3500 C   0  0  1  0  0  0  0  0  0  0  0  0
   -1.6990   19.6460  -10.3930 N   0  0  0  0  0  0  0  0  0  0  0  0
   -2.8650   19.2290   -9.6020 C   0  0  0  0  0  0  0  0  0  0  0  0
   -4.1120   19.1880  -10.4280 C   0  0  0  0  0  0  0  0  0  0  0  0
   -3.8560   18.8000  -11.8340 C   0  0  0  0  0  0  0  0  0  0  0  0
   -4.7020   18.6430  -12.8570 N   0  0  0  0  0  0  0  0  0  0  0  0
   -3.9950   18.2770  -13.9450 C   0  0  0  0  0  0  0  0  0  0  0  0
   -2.7080   18.2090  -13.5790 N   0  0  0  0  0  0  0  0  0  0  0  0
   -2.5580   18.5230  -12.2840 C   0  0  0  0  0  0  0  0  0  0  0  0
   -1.2920   17.3320  -10.5020 C   0  0  0  0  0  0  0  0  0  0  0  0
   -0.1560   16.6120  -11.0920 C   0  0  0  0  0  0  0  0  0  0  0  0
   -0.9260    9.4280  -12.4380 H   0  0  0  0  0  0  0  0  0  0  0  0
    1.3770   12.3700  -14.4290 H   0  0  0  0  0  0  0  0  0  0  0  0
    3.3160   10.8010  -14.3270 H   0  0  0  0  0  0  0  0  0  0  0  0
    3.1150    8.5550  -13.3060 H   0  0  0  0  0  0  0  0  0  0  0  0
   -1.5100   13.1430  -11.7350 H   0  0  0  0  0  0  0  0  0  0  0  0
    0.3120   13.9100  -14.0630 H   0  0  0  0  0  0  0  0  0  0  0  0
    0.2960   14.4760  -11.1160 H   0  0  0  0  0  0  0  0  0  0  0  0
    1.4380   13.3620  -11.9410 H   0  0  0  0  0  0  0  0  0  0  0  0
    1.5280   15.1600  -12.2700 H   0  0  0  0  0  0  0  0  0  0  0  0
    1.2390   17.6810  -13.1990 H   0  0  0  0  0  0  0  0  0  0  0  0
   -0.2440   18.0340  -14.1620 H   0  0  0  0  0  0  0  0  0  0  0  0
   -0.4160   19.7880  -12.7560 H   0  0  0  0  0  0  0  0  0  0  0  0
    0.6930   19.1730  -11.5480 H   0  0  0  0  0  0  0  0  0  0  0  0
   -0.9040   19.7030   -9.7120 H   0  0  0  0  0  0  0  0  0  0  0  0
   -2.7610   18.2620   -9.1140 H   0  0  0  0  0  0  0  0  0  0  0  0
   -3.0320   19.9940   -8.7880 H   0  0  0  0  0  0  0  0  0  0  0  0
   -4.7220   20.1310  -10.3480 H   0  0  0  0  0  0  0  0  0  0  0  0
   -4.8070   18.3940  -10.0130 H   0  0  0  0  0  0  0  0  0  0  0  0
   -5.7380   18.7640  -12.8950 H   0  0  0  0  0  0  0  0  0  0  0  0
   -4.3360   18.0670  -14.9390 H   0  0  0  0  0  0  0  0  0  0  0  0
   -2.2620   16.8330  -10.5310 H   0  0  0  0  0  0  0  0  0  0  0  0
   -0.9820   17.5820   -9.4470 H   0  0  0  0  0  0  0  0  0  0  0  0
    0.1440   15.6380  -10.7600 H   0  0  0  0  0  0  0  0  0  0  0  0
    0.7620   17.2670  -10.9010 H   0  0  0  0  0  0  0  0  0  0  0  0
  2  1  1  0  0  0  0
  3  2  1  0  0  0  0
  3 29  1  0  0  0  0
  4  8  1  0  0  0  0
  4  3  2  0  0  0  0
  5  6  2  0  0  0  0
  5  4  1  0  0  0  0
  6  7  1  0  0  0  0
  7 32  1  0  0  0  0
  7  2  2  0  0  0  0
  8 10  1  0  0  0  0
  9  8  2  0  0  0  0
 10 33  1  0  0  0  0
 11 34  1  6  0  0  0
 11 10  1  0  0  0  0
 11 12  1  0  0  0  0
 12 36  1  0  0  0  0
 12 35  1  0  0  0  0
 13 11  1  0  0  0  0
 13 15  1  0  0  0  0
 14 13  2  0  0  0  0
 15 28  1  0  0  0  0
 16 15  1  0  0  0  0
 16 17  1  0  0  0  0
 17 41  1  0  0  0  0
 17 18  1  0  0  0  0
 18 26  1  6  0  0  0
 18 27  1  0  0  0  0
 18 19  1  0  0  0  0
 19 42  1  0  0  0  0
 19 20  1  0  0  0  0
 20 43  1  0  0  0  0
 20 44  1  0  0  0  0
 21 45  1  0  0  0  0
 21 46  1  0  0  0  0
 21 20  1  0  0  0  0
 22 21  1  0  0  0  0
 23 22  1  0  0  0  0
 24 25  2  0  0  0  0
 24 23  1  0  0  0  0
 25 26  1  0  0  0  0
 26 22  2  0  0  0  0
 27 50  1  0  0  0  0
 28 52  1  0  0  0  0
 28 51  1  0  0  0  0
 28 27  1  0  0  0  0
 30  5  1  0  0  0  0
 31  6  1  0  0  0  0
 37 12  1  0  0  0  0
 38 16  1  0  0  0  0
 39 16  1  0  0  0  0
 40 17  1  0  0  0  0
 47 23  1  0  0  0  0
 48 24  1  0  0  0  0
 49 27  1  0  0  0  0
M  END
>  <Pose>
1

>  <Score>
-4.82

$$$$
