
 OpenBabel03232203513D

 45 48  0  0  0  0  0  0  0  0999 V2000
   -5.7240   21.3930  -10.3890 B   0  0  0  0  0  0  0  0  0  0  0  0
   -4.3040   20.1500  -10.7650 C   0  0  0  0  0  0  0  0  0  0  0  0
   -4.3370   19.3680  -11.9060 C   0  0  0  0  0  0  0  0  0  0  0  0
   -3.3450   18.4870  -12.1850 N   0  0  0  0  0  0  0  0  0  0  0  0
   -2.3000   18.3500  -11.3600 C   0  0  0  0  0  0  0  0  0  0  0  0
   -1.3200   17.4760  -11.6410 N   0  0  0  0  0  0  0  0  0  0  0  0
   -1.3340   16.7070  -12.7430 C   0  0  0  0  0  0  0  0  0  0  0  0
   -2.4050   16.8470  -13.5900 C   0  0  0  0  0  0  0  0  0  0  0  0
   -3.4370   17.7550  -13.3130 C   0  0  0  0  0  0  0  0  0  0  0  0
   -4.4030   17.8580  -14.1100 O   0  0  0  0  0  0  0  0  0  0  0  0
   -0.2260   15.7650  -12.9970 C   0  0  0  0  0  0  0  0  0  0  0  0
   -0.7950   14.5200  -13.2990 O   0  0  0  0  0  0  0  0  0  0  0  0
    0.0680   13.4990  -13.7840 C   0  0  0  0  0  0  0  0  0  0  0  0
    1.0860   13.9720  -14.2710 O   0  0  0  0  0  0  0  0  0  0  0  0
   -0.3450   12.1160  -13.6480 C   0  0  0  0  0  0  0  0  0  0  0  0
   -1.6710   11.7900  -13.5890 N   0  0  0  0  0  0  0  0  0  0  0  0
   -2.0720   10.5370  -13.4650 N   0  0  0  0  0  0  0  0  0  0  0  0
   -1.1930    9.5230  -13.3920 C   0  0  0  0  0  0  0  0  0  0  0  0
   -1.5930    8.3170  -13.2720 O   0  0  0  0  0  0  0  0  0  0  0  0
    0.1590    9.7660  -13.4440 C   0  0  0  0  0  0  0  0  0  0  0  0
    0.5560   11.0990  -13.5750 C   0  0  0  0  0  0  0  0  0  0  0  0
    1.9150   11.2950  -13.6240 C   0  0  0  0  0  0  0  0  0  0  0  0
    2.8160   10.2390  -13.5470 C   0  0  0  0  0  0  0  0  0  0  0  0
    2.3900    8.9380  -13.4180 C   0  0  0  0  0  0  0  0  0  0  0  0
    1.0360    8.7170  -13.3670 C   0  0  0  0  0  0  0  0  0  0  0  0
   -3.4810   10.2050  -13.4030 C   0  0  0  0  0  0  0  0  0  0  0  0
   -3.9780    9.5640  -14.6710 C   0  0  0  0  0  0  0  0  0  0  0  0
   -5.3170    9.8150  -14.9080 O   0  0  0  0  0  0  0  0  0  0  0  0
   -2.2510   19.1150  -10.2260 C   0  0  0  0  0  0  0  0  0  0  0  0
   -3.2400   20.0220   -9.9070 C   0  0  0  0  0  0  0  0  0  0  0  0
   -5.1990   19.4960  -12.5640 H   0  0  0  0  0  0  0  0  0  0  0  0
   -2.4710   16.2570  -14.4930 H   0  0  0  0  0  0  0  0  0  0  0  0
    0.4780   16.1280  -13.7710 H   0  0  0  0  0  0  0  0  0  0  0  0
    0.3940   15.7260  -12.0580 H   0  0  0  0  0  0  0  0  0  0  0  0
    2.3200   12.2650  -13.7220 H   0  0  0  0  0  0  0  0  0  0  0  0
    3.8790   10.4450  -13.5900 H   0  0  0  0  0  0  0  0  0  0  0  0
    3.0950    8.1050  -13.3580 H   0  0  0  0  0  0  0  0  0  0  0  0
    0.6810    7.7120  -13.2680 H   0  0  0  0  0  0  0  0  0  0  0  0
   -4.0740   11.1260  -13.2410 H   0  0  0  0  0  0  0  0  0  0  0  0
   -3.6720    9.5290  -12.5560 H   0  0  0  0  0  0  0  0  0  0  0  0
   -3.7810    8.4760  -14.6860 H   0  0  0  0  0  0  0  0  0  0  0  0
   -3.4030   10.0120  -15.5070 H   0  0  0  0  0  0  0  0  0  0  0  0
   -5.4910    9.6250  -15.8600 H   0  0  0  0  0  0  0  0  0  0  0  0
   -1.4000   19.0150   -9.5370 H   0  0  0  0  0  0  0  0  0  0  0  0
   -3.1950   20.6220   -9.0130 H   0  0  0  0  0  0  0  0  0  0  0  0
  2  1  1  0  0  0  0
  2 30  2  0  0  0  0
  3  2  1  0  0  0  0
  4  3  1  0  0  0  0
  4  5  1  0  0  0  0
  5 29  2  0  0  0  0
  6  5  1  0  0  0  0
  7  6  2  0  0  0  0
  8  9  1  0  0  0  0
  8  7  1  0  0  0  0
  9  4  1  0  0  0  0
 10  9  2  0  0  0  0
 11  7  1  0  0  0  0
 11 34  1  0  0  0  0
 12 11  1  0  0  0  0
 13 15  1  0  0  0  0
 13 12  1  0  0  0  0
 14 13  2  0  0  0  0
 15 16  2  0  0  0  0
 15 21  1  0  0  0  0
 16 17  1  0  0  0  0
 17 26  1  0  0  0  0
 17 18  1  0  0  0  0
 18 19  2  0  0  0  0
 20 18  1  0  0  0  0
 20 25  1  0  0  0  0
 21 20  2  0  0  0  0
 22 21  1  0  0  0  0
 22 23  2  0  0  0  0
 23 24  1  0  0  0  0
 24 25  2  0  0  0  0
 24 37  1  0  0  0  0
 25 38  1  0  0  0  0
 26 39  1  0  0  0  0
 26 40  1  0  0  0  0
 27 26  1  0  0  0  0
 28 27  1  0  0  0  0
 29 30  1  0  0  0  0
 29 44  1  0  0  0  0
 30 45  1  0  0  0  0
 31  3  1  0  0  0  0
 32  8  1  0  0  0  0
 33 11  1  0  0  0  0
 35 22  1  0  0  0  0
 36 23  1  0  0  0  0
 41 27  1  0  0  0  0
 42 27  1  0  0  0  0
 43 28  1  0  0  0  0
M  END
>  <Pose>
1

>  <Score>
-7.89

$$$$
