
 OpenBabel03232203513D

 36 39  0  0  1  0  0  0  0  0999 V2000
    4.1150   11.9070   -9.4960 B   0  0  0  0  0  0  0  0  0  0  0  0
    3.7270   11.4170  -11.3190 C   0  0  0  0  0  0  0  0  0  0  0  0
    3.0220   10.2780  -11.6100 C   0  0  0  0  0  0  0  0  0  0  0  0
    2.7560    9.9480  -12.9220 C   0  0  0  0  0  0  0  0  0  0  0  0
    3.2170   10.7920  -13.8960 C   0  0  0  0  0  0  0  0  0  0  0  0
    3.9410   11.9630  -13.5950 C   0  0  0  0  0  0  0  0  0  0  0  0
    4.1970   12.2750  -12.2860 C   0  0  0  0  0  0  0  0  0  0  0  0
    2.8650   10.3190  -15.1920 N   0  0  0  0  0  0  0  0  0  0  0  0
    2.1500    9.1250  -15.0360 C   0  0  0  0  0  0  0  0  0  0  0  0
    1.6790    8.4250  -15.9840 O   0  0  0  0  0  0  0  0  0  0  0  0
    2.0400    8.8190  -13.5660 C   0  0  2  0  0  0  0  0  0  0  0  0
    0.6130    8.8010  -13.2680 C   0  0  0  0  0  0  0  0  0  0  0  0
   -0.0050    7.6670  -12.8410 C   0  0  0  0  0  0  0  0  0  0  0  0
   -1.3200    7.9860  -12.6540 N   0  0  0  0  0  0  0  0  0  0  0  0
   -1.5270    9.2530  -12.9470 N   0  0  0  0  0  0  0  0  0  0  0  0
   -0.3710    9.7920  -13.3280 C   0  0  0  0  0  0  0  0  0  0  0  0
   -0.0780   11.1950  -13.7600 C   0  0  0  0  0  0  0  0  0  0  0  0
    0.6740    6.4570  -12.6590 O   0  0  0  0  0  0  0  0  0  0  0  0
    2.0350    6.4780  -12.9450 C   0  0  0  0  0  0  0  0  0  0  0  0
    2.6840    7.5350  -13.3580 C   0  0  0  0  0  0  0  0  0  0  0  0
    4.1260    7.3740  -13.6120 C   0  0  0  0  0  0  0  0  0  0  0  0
    5.2660    7.2230  -13.8130 N   0  0  0  0  0  0  0  0  0  0  0  0
    2.7940    5.2480  -12.7740 N   0  0  0  0  0  0  0  0  0  0  0  0
    3.1880   10.9600  -16.4760 C   0  0  0  0  0  0  0  0  0  0  0  0
    2.6660    9.6250  -10.8300 H   0  0  0  0  0  0  0  0  0  0  0  0
    4.3040   12.6280  -14.3670 H   0  0  0  0  0  0  0  0  0  0  0  0
    4.7600   13.1840  -12.0220 H   0  0  0  0  0  0  0  0  0  0  0  0
   -2.4280    9.7960  -12.9060 H   0  0  0  0  0  0  0  0  0  0  0  0
   -1.0540   11.7450  -13.7050 H   0  0  0  0  0  0  0  0  0  0  0  0
    0.5850   11.7170  -13.0280 H   0  0  0  0  0  0  0  0  0  0  0  0
    0.2590   11.2620  -14.7940 H   0  0  0  0  0  0  0  0  0  0  0  0
    2.6700    4.5520  -13.5360 H   0  0  0  0  0  0  0  0  0  0  0  0
    3.4020    5.0690  -11.9780 H   0  0  0  0  0  0  0  0  0  0  0  0
    3.7990   10.2420  -17.0580 H   0  0  0  0  0  0  0  0  0  0  0  0
    2.2100   11.0500  -17.0040 H   0  0  0  0  0  0  0  0  0  0  0  0
    3.6560   11.9330  -16.3330 H   0  0  0  0  0  0  0  0  0  0  0  0
  2  1  1  0  0  0  0
  3  2  1  0  0  0  0
  3 25  1  0  0  0  0
  4  3  2  0  0  0  0
  5  6  2  0  0  0  0
  5  4  1  0  0  0  0
  6  7  1  0  0  0  0
  7 27  1  0  0  0  0
  7  2  2  0  0  0  0
  8  9  1  0  0  0  0
  8  5  1  0  0  0  0
 10  9  2  0  0  0  0
 11  9  1  6  0  0  0
 11 20  1  0  0  0  0
 11 12  1  0  0  0  0
 11  4  1  0  0  0  0
 12 13  1  0  0  0  0
 13 18  1  0  0  0  0
 13 14  2  0  0  0  0
 15 28  1  0  0  0  0
 15 14  1  0  0  0  0
 16 12  2  0  0  0  0
 16 15  1  0  0  0  0
 17 29  1  0  0  0  0
 17 16  1  0  0  0  0
 17 30  1  0  0  0  0
 19 23  1  0  0  0  0
 19 18  1  0  0  0  0
 20 19  2  0  0  0  0
 21 20  1  0  0  0  0
 22 21  3  0  0  0  0
 23 33  1  0  0  0  0
 24 36  1  0  0  0  0
 24  8  1  0  0  0  0
 26  6  1  0  0  0  0
 31 17  1  0  0  0  0
 32 23  1  0  0  0  0
 34 24  1  0  0  0  0
 35 24  1  0  0  0  0
M  END
>  <Pose>
1

>  <Score>
-3.34

$$$$
