
 OpenBabel03232203513D

 38 41  0  0  0  0  0  0  0  0999 V2000
   -4.0860   17.4330  -14.3540 B   0  0  0  0  0  0  0  0  0  0  0  0
   -2.6360   17.4210  -13.1360 C   0  0  0  0  0  0  0  0  0  0  0  0
   -2.7060   18.1960  -12.0290 C   0  0  0  0  0  0  0  0  0  0  0  0
   -3.6630   19.0350  -11.5820 N   0  0  0  0  0  0  0  0  0  0  0  0
   -3.1760   19.5170  -10.4420 N   0  0  0  0  0  0  0  0  0  0  0  0
   -1.9980   19.0340  -10.1630 N   0  0  0  0  0  0  0  0  0  0  0  0
   -1.6440   18.1740  -11.1540 C   0  0  0  0  0  0  0  0  0  0  0  0
   -0.5300   17.3790  -11.4010 C   0  0  0  0  0  0  0  0  0  0  0  0
   -0.4540   16.6080  -12.4980 N   0  0  0  0  0  0  0  0  0  0  0  0
   -1.5030   16.6370  -13.3490 C   0  0  0  0  0  0  0  0  0  0  0  0
    0.6880   15.7600  -12.7970 C   0  0  0  0  0  0  0  0  0  0  0  0
    0.4950   14.3520  -12.4620 C   0  0  0  0  0  0  0  0  0  0  0  0
   -0.6010   14.0540  -11.8980 O   0  0  0  0  0  0  0  0  0  0  0  0
    1.4370   13.2660  -12.7130 C   0  0  0  0  0  0  0  0  0  0  0  0
    1.0460   12.2180  -13.4980 C   0  0  0  0  0  0  0  0  0  0  0  0
    1.9070   11.1810  -13.7460 C   0  0  0  0  0  0  0  0  0  0  0  0
    3.1860   11.1490  -13.2210 C   0  0  0  0  0  0  0  0  0  0  0  0
    3.5530   12.2310  -12.4240 C   0  0  0  0  0  0  0  0  0  0  0  0
    2.6970   13.2680  -12.1750 C   0  0  0  0  0  0  0  0  0  0  0  0
    4.0710   10.1170  -13.4560 C   0  0  0  0  0  0  0  0  0  0  0  0
    3.6410    9.0780  -14.2540 C   0  0  0  0  0  0  0  0  0  0  0  0
    2.3670    9.0990  -14.7830 C   0  0  0  0  0  0  0  0  0  0  0  0
    1.4900   10.1320  -14.5450 C   0  0  0  0  0  0  0  0  0  0  0  0
   -4.9220   19.3930  -12.1160 C   0  0  0  0  0  0  0  0  0  0  0  0
    0.2650   17.3980  -10.6930 H   0  0  0  0  0  0  0  0  0  0  0  0
   -1.4640   16.0250  -14.2370 H   0  0  0  0  0  0  0  0  0  0  0  0
    0.9520   15.8270  -13.8870 H   0  0  0  0  0  0  0  0  0  0  0  0
    1.5620   16.1460  -12.2410 H   0  0  0  0  0  0  0  0  0  0  0  0
    0.0500   12.1650  -13.9550 H   0  0  0  0  0  0  0  0  0  0  0  0
    4.5710   12.2000  -12.0080 H   0  0  0  0  0  0  0  0  0  0  0  0
    3.0190   14.1010  -11.5420 H   0  0  0  0  0  0  0  0  0  0  0  0
    5.0580   10.1490  -13.0160 H   0  0  0  0  0  0  0  0  0  0  0  0
    4.3260    8.2500  -14.4530 H   0  0  0  0  0  0  0  0  0  0  0  0
    2.0460    8.2740  -15.4080 H   0  0  0  0  0  0  0  0  0  0  0  0
    0.4810   10.1400  -14.9700 H   0  0  0  0  0  0  0  0  0  0  0  0
   -5.2950   20.2990  -11.5940 H   0  0  0  0  0  0  0  0  0  0  0  0
   -5.6860   18.5930  -11.8780 H   0  0  0  0  0  0  0  0  0  0  0  0
   -5.0040   19.5900  -13.1730 H   0  0  0  0  0  0  0  0  0  0  0  0
  1  2  1  0  0  0  0
  2  3  1  0  0  0  0
  3  4  1  0  0  0  0
  3  7  2  0  0  0  0
  4  5  1  0  0  0  0
  5  6  2  0  0  0  0
  7  6  1  0  0  0  0
  8  7  1  0  0  0  0
  8 25  1  0  0  0  0
  9  8  1  0  0  0  0
 10  2  2  0  0  0  0
 10  9  1  0  0  0  0
 11  9  1  0  0  0  0
 11 12  1  0  0  0  0
 11 28  1  0  0  0  0
 12 13  2  0  0  0  0
 14 12  1  0  0  0  0
 14 19  1  0  0  0  0
 15 14  2  0  0  0  0
 16 15  1  0  0  0  0
 16 17  1  0  0  0  0
 17 18  1  0  0  0  0
 18 19  2  0  0  0  0
 18 30  1  0  0  0  0
 19 31  1  0  0  0  0
 20 17  2  0  0  0  0
 20 32  1  0  0  0  0
 21 20  1  0  0  0  0
 22 23  1  0  0  0  0
 22 21  2  0  0  0  0
 23 16  2  0  0  0  0
 24 37  1  0  0  0  0
 24 36  1  0  0  0  0
 24  4  1  0  0  0  0
 26 10  1  0  0  0  0
 27 11  1  0  0  0  0
 29 15  1  0  0  0  0
 33 21  1  0  0  0  0
 34 22  1  0  0  0  0
 35 23  1  0  0  0  0
 38 24  1  0  0  0  0
M  END
>  <Pose>
1

>  <Score>
-6.45

$$$$
