
 OpenBabel03232203513D

 32 35  0  0  0  0  0  0  0  0999 V2000
    2.6730   14.0300  -11.0020 B   0  0  0  0  0  0  0  0  0  0  0  0
    1.1600   14.4610  -12.0770 C   0  0  0  0  0  0  0  0  0  0  0  0
    0.9370   15.6140  -12.8260 C   0  0  0  0  0  0  0  0  0  0  0  0
   -0.2620   15.5010  -13.4330 N   0  0  0  0  0  0  0  0  0  0  0  0
   -0.7880   14.3250  -13.0880 N   0  0  0  0  0  0  0  0  0  0  0  0
    0.0490   13.6650  -12.2640 C   0  0  0  0  0  0  0  0  0  0  0  0
   -0.1210   12.3330  -11.6370 C   0  0  0  0  0  0  0  0  0  0  0  0
   -0.8890   16.4760  -14.3100 C   0  0  0  0  0  0  0  0  0  0  0  0
   -1.8810   17.3140  -13.5820 C   0  0  0  0  0  0  0  0  0  0  0  0
   -3.1940   17.4600  -13.8240 N   0  0  0  0  0  0  0  0  0  0  0  0
   -3.7460   18.3090  -12.9410 N   0  0  0  0  0  0  0  0  0  0  0  0
   -2.7620   18.7140  -12.1180 C   0  0  0  0  0  0  0  0  0  0  0  0
   -1.6300   18.1040  -12.5160 N   0  0  0  0  0  0  0  0  0  0  0  0
   -3.0900   19.6030  -11.1130 C   0  0  0  0  0  0  0  0  0  0  0  0
   -4.3780   20.0750  -10.9390 C   0  0  0  0  0  0  0  0  0  0  0  0
   -4.4270   20.9250   -9.8910 N   0  0  0  0  0  0  0  0  0  0  0  0
   -3.1960   20.9870   -9.4180 N   0  0  0  0  0  0  0  0  0  0  0  0
   -2.3540   20.2070  -10.1200 C   0  0  0  0  0  0  0  0  0  0  0  0
   -5.6160   21.6210   -9.4050 C   0  0  0  0  0  0  0  0  0  0  0  0
   -5.3100   19.6280  -11.7980 N   0  0  0  0  0  0  0  0  0  0  0  0
   -5.0030   18.7630  -12.7790 C   0  0  0  0  0  0  0  0  0  0  0  0
    1.6430   16.4360  -12.8800 H   0  0  0  0  0  0  0  0  0  0  0  0
   -0.6700   12.3760  -10.6730 H   0  0  0  0  0  0  0  0  0  0  0  0
    0.8410   11.8280  -11.4530 H   0  0  0  0  0  0  0  0  0  0  0  0
   -0.7560   11.7370  -12.3480 H   0  0  0  0  0  0  0  0  0  0  0  0
   -1.3630   15.9740  -15.1980 H   0  0  0  0  0  0  0  0  0  0  0  0
   -0.0780   17.1160  -14.7660 H   0  0  0  0  0  0  0  0  0  0  0  0
   -1.3000   20.0410   -9.9900 H   0  0  0  0  0  0  0  0  0  0  0  0
   -5.5090   21.8920   -8.3330 H   0  0  0  0  0  0  0  0  0  0  0  0
   -6.5060   20.9260   -9.4330 H   0  0  0  0  0  0  0  0  0  0  0  0
   -5.8280   22.5390   -9.9630 H   0  0  0  0  0  0  0  0  0  0  0  0
   -5.7410   18.3900  -13.4830 H   0  0  0  0  0  0  0  0  0  0  0  0
  2  1  1  0  0  0  0
  3  2  2  0  0  0  0
  4  5  1  0  0  0  0
  4  3  1  0  0  0  0
  5  6  2  0  0  0  0
  6  2  1  0  0  0  0
  6  7  1  0  0  0  0
  7 24  1  0  0  0  0
  7 23  1  0  0  0  0
  8  9  1  0  0  0  0
  8  4  1  0  0  0  0
  9 13  1  0  0  0  0
 10  9  2  0  0  0  0
 10 11  1  0  0  0  0
 11 21  1  0  0  0  0
 11 12  1  0  0  0  0
 12 14  1  0  0  0  0
 13 12  2  0  0  0  0
 14 15  2  0  0  0  0
 14 18  1  0  0  0  0
 15 16  1  0  0  0  0
 16 17  1  0  0  0  0
 16 19  1  0  0  0  0
 18 28  1  0  0  0  0
 18 17  2  0  0  0  0
 19 29  1  0  0  0  0
 20 15  1  0  0  0  0
 21 20  2  0  0  0  0
 22  3  1  0  0  0  0
 25  7  1  0  0  0  0
 26  8  1  0  0  0  0
 27  8  1  0  0  0  0
 30 19  1  0  0  0  0
 31 19  1  0  0  0  0
 32 21  1  0  0  0  0
M  END
>  <Pose>
1

>  <Score>
-6.70

$$$$
