
 OpenBabel03232203513D

 48 51  0  0  1  0  0  0  0  0999 V2000
   -1.8400    6.7450  -14.6510 Cl  0  0  0  0  0  0  0  0  0  0  0  0
   -0.3660    6.7480  -13.6930 C   0  0  0  0  0  0  0  0  0  0  0  0
    0.6750    7.6210  -13.9970 C   0  0  0  0  0  0  0  0  0  0  0  0
    1.8530    7.6390  -13.2920 C   0  0  0  0  0  0  0  0  0  0  0  0
    1.9500    6.7240  -12.2370 C   0  0  0  0  0  0  0  0  0  0  0  0
    0.9230    5.8430  -11.9180 C   0  0  0  0  0  0  0  0  0  0  0  0
   -0.2350    5.8560  -12.6480 C   0  0  0  0  0  0  0  0  0  0  0  0
    2.8730    8.6000  -13.5220 N   0  0  0  0  0  4  0  0  0  0  0  0
    2.8620    9.7390  -12.6400 C   0  0  0  0  0  0  0  0  0  0  0  0
    2.9330   11.0040  -13.3890 C   0  0  2  0  0  0  0  0  0  0  0  0
    3.0290   10.5780  -14.7560 N   0  0  0  0  0  0  0  0  0  0  0  0
    3.5330   11.2270  -15.9440 C   0  0  0  0  0  0  0  0  0  0  0  0
    2.5320   11.4090  -17.0390 C   0  0  0  0  0  0  0  0  0  0  0  0
    1.2420   10.6910  -16.8470 C   0  0  0  0  0  0  0  0  0  0  0  0
    1.4850    9.1910  -17.1280 C   0  0  0  0  0  0  0  0  0  0  0  0
    1.8800    8.6250  -15.7760 C   0  0  0  0  0  0  0  0  0  0  0  0
    2.5290    9.2140  -14.7970 C   0  0  0  0  0  0  0  0  0  0  0  0
    4.1580   11.6630  -13.0880 O   0  0  0  0  0  0  0  0  0  0  0  0
    1.9050   11.9840  -13.1370 C   0  0  0  0  0  0  0  0  0  0  0  0
    2.0970   13.1110  -12.3380 C   0  0  0  0  0  0  0  0  0  0  0  0
    1.1120   14.0640  -12.1200 C   0  0  0  0  0  0  0  0  0  0  0  0
   -0.1320   13.8890  -12.7280 C   0  0  0  0  0  0  0  0  0  0  0  0
   -0.3620   12.7990  -13.5170 C   0  0  0  0  0  0  0  0  0  0  0  0
    0.6610   11.8570  -13.7130 C   0  0  0  0  0  0  0  0  0  0  0  0
    1.3770   15.1820  -11.2980 N   0  0  0  0  0  0  0  0  0  0  0  0
    2.2120   15.0770  -10.3460 O   0  0  0  0  0  0  0  0  0  0  0  0
    0.7850   16.3780  -11.4580 O   0  0  0  0  0  0  0  0  0  0  0  0
    0.4880    8.2670  -14.8720 H   0  0  0  0  0  0  0  0  0  0  0  0
    2.8570    6.7140  -11.6580 H   0  0  0  0  0  0  0  0  0  0  0  0
    1.0230    5.1270  -11.0820 H   0  0  0  0  0  0  0  0  0  0  0  0
   -1.0370    5.1840  -12.4230 H   0  0  0  0  0  0  0  0  0  0  0  0
    3.7570    8.1230  -13.6640 H   0  0  0  0  0  0  0  0  0  0  0  0
    2.1510    9.5730  -11.8560 H   0  0  0  0  0  0  0  0  0  0  0  0
    3.8760    9.6410  -12.0990 H   0  0  0  0  0  0  0  0  0  0  0  0
    4.0620   12.1800  -15.7640 H   0  0  0  0  0  0  0  0  0  0  0  0
    4.3510   10.5910  -16.4470 H   0  0  0  0  0  0  0  0  0  0  0  0
    2.9510   11.1570  -18.0400 H   0  0  0  0  0  0  0  0  0  0  0  0
    2.2520   12.5150  -17.1380 H   0  0  0  0  0  0  0  0  0  0  0  0
    0.7700   10.8000  -15.8490 H   0  0  0  0  0  0  0  0  0  0  0  0
    0.4670   10.9830  -17.6100 H   0  0  0  0  0  0  0  0  0  0  0  0
    2.2830    9.0820  -17.8530 H   0  0  0  0  0  0  0  0  0  0  0  0
    0.5280    8.7050  -17.4090 H   0  0  0  0  0  0  0  0  0  0  0  0
    1.5590    7.6070  -15.6480 H   0  0  0  0  0  0  0  0  0  0  0  0
    4.6980   11.6260  -13.9450 H   0  0  0  0  0  0  0  0  0  0  0  0
    3.0430   13.2270  -11.8900 H   0  0  0  0  0  0  0  0  0  0  0  0
   -0.8710   14.6590  -12.5320 H   0  0  0  0  0  0  0  0  0  0  0  0
   -1.3520   12.6670  -13.9950 H   0  0  0  0  0  0  0  0  0  0  0  0
    0.3610   11.0360  -14.3580 H   0  0  0  0  0  0  0  0  0  0  0  0
  1  2  1  0  0  0  0
  2  7  1  0  0  0  0
  3  2  2  0  0  0  0
  3  4  1  0  0  0  0
  4  5  2  0  0  0  0
  5  6  1  0  0  0  0
  5 29  1  0  0  0  0
  6 30  1  0  0  0  0
  7 31  1  0  0  0  0
  7  6  2  0  0  0  0
  8  4  1  0  0  0  0
  8  9  1  0  0  0  0
  9 34  1  0  0  0  0
  9 33  1  0  0  0  0
 10 19  1  0  0  0  0
 10 18  1  1  0  0  0
 10  9  1  0  0  0  0
 11 10  1  0  0  0  0
 12 35  1  0  0  0  0
 12 11  1  0  0  0  0
 13 14  1  0  0  0  0
 13 12  1  0  0  0  0
 14 39  1  0  0  0  0
 15 14  1  0  0  0  0
 15 16  1  0  0  0  0
 16 43  1  0  0  0  0
 16 17  2  0  0  0  0
 17 11  1  0  0  0  0
 17  8  1  0  0  0  0
 19 20  1  0  0  0  0
 20 21  2  0  0  0  0
 20 45  1  0  0  0  0
 21 25  1  0  0  0  0
 22 46  1  0  0  0  0
 22 21  1  0  0  0  0
 23 22  2  0  0  0  0
 24 23  1  0  0  0  0
 24 19  2  0  0  0  0
 25 26  2  0  0  0  0
 27 25  2  0  0  0  0
 28  3  1  0  0  0  0
 32  8  1  0  0  0  0
 36 12  1  0  0  0  0
 37 13  1  0  0  0  0
 38 13  1  0  0  0  0
 40 14  1  0  0  0  0
 41 15  1  0  0  0  0
 42 15  1  0  0  0  0
 44 18  1  0  0  0  0
 47 23  1  0  0  0  0
 48 24  1  0  0  0  0
M  END
>  <Pose>
1

>  <Score>
-3.86

$$$$
