
 OpenBabel03232203513D

 54 58  0  0  0  0  0  0  0  0999 V2000
    2.9960   11.7620  -13.0530 F   0  0  0  0  0  0  0  0  0  0  0  0
    1.7600   11.2570  -13.2170 C   0  0  0  0  0  0  0  0  0  0  0  0
    1.7080    9.8660  -13.2050 C   0  0  0  0  0  0  0  0  0  0  0  0
    0.5060    9.2110  -13.3540 C   0  0  0  0  0  0  0  0  0  0  0  0
   -0.6290    9.9700  -13.5120 C   0  0  0  0  0  0  0  0  0  0  0  0
   -0.5560   11.3590  -13.5200 C   0  0  0  0  0  0  0  0  0  0  0  0
    0.6320   12.0220  -13.3740 C   0  0  0  0  0  0  0  0  0  0  0  0
    0.6660   13.4160  -13.3970 N   0  0  0  0  0  4  0  0  0  0  0  0
   -0.0110   14.0750  -12.3090 C   0  0  0  0  0  0  0  0  0  0  0  0
    0.2360   15.6000  -12.3840 C   0  0  0  0  0  0  0  0  0  0  0  0
   -0.3600   16.0190  -13.5910 N   0  0  0  0  0  0  0  0  0  0  0  0
    0.4150   15.4740  -14.7720 C   0  0  0  0  0  0  0  0  0  0  0  0
    0.2370   13.9940  -14.6280 C   0  0  0  0  0  0  0  0  0  0  0  0
   -1.4700   16.7380  -13.8820 C   0  0  0  0  0  0  0  0  0  0  0  0
   -1.9040   16.6260  -15.1140 O   0  0  0  0  0  0  0  0  0  0  0  0
   -2.2700   17.6170  -13.0750 C   0  0  0  0  0  0  0  0  0  0  0  0
   -1.8800   18.1260  -11.8790 C   0  0  0  0  0  0  0  0  0  0  0  0
   -2.6660   19.0160  -11.1580 C   0  0  0  0  0  0  0  0  0  0  0  0
   -3.8810   19.3980  -11.6650 C   0  0  0  0  0  0  0  0  0  0  0  0
   -4.3220   18.9140  -12.8640 C   0  0  0  0  0  0  0  0  0  0  0  0
   -3.5290   18.0430  -13.5470 C   0  0  0  0  0  0  0  0  0  0  0  0
   -2.1150   19.6550   -9.6070 Cl  0  0  0  0  0  0  0  0  0  0  0  0
   -1.7940    9.3070  -13.6550 N   0  0  0  0  0  0  0  0  0  0  0  0
   -1.8710    7.9640  -13.6470 C   0  0  0  0  0  0  0  0  0  0  0  0
   -0.7520    7.1750  -13.4920 C   0  0  0  0  0  0  0  0  0  0  0  0
    0.4580    7.8100  -13.3420 C   0  0  0  0  0  0  0  0  0  0  0  0
    1.5150    7.1520  -13.1960 O   0  0  0  0  0  0  0  0  0  0  0  0
   -0.8530    5.7030  -13.4860 C   0  0  0  0  0  0  0  0  0  0  0  0
   -1.2390    5.0580  -14.4740 O   0  0  0  0  0  0  0  0  0  0  0  0
   -0.4990    5.0360  -12.3360 O   0  0  0  0  0  0  0  0  0  0  0  0
   -2.9950   10.1330  -13.8220 C   0  0  0  0  0  0  0  0  0  0  0  0
   -4.2670    9.7550  -13.1980 C   0  0  0  0  0  0  0  0  0  0  0  0
   -4.1390    9.4180  -14.6160 C   0  0  0  0  0  0  0  0  0  0  0  0
    2.5850    9.2470  -13.0830 H   0  0  0  0  0  0  0  0  0  0  0  0
   -1.5130   11.8660  -13.6520 H   0  0  0  0  0  0  0  0  0  0  0  0
    1.6920   13.6900  -13.2900 H   0  0  0  0  0  0  0  0  0  0  0  0
   -1.0960   13.9650  -12.4480 H   0  0  0  0  0  0  0  0  0  0  0  0
    0.3750   13.8230  -11.3070 H   0  0  0  0  0  0  0  0  0  0  0  0
   -0.0400   16.0370  -11.4460 H   0  0  0  0  0  0  0  0  0  0  0  0
    1.3770   15.7410  -12.4250 H   0  0  0  0  0  0  0  0  0  0  0  0
    1.4620   15.7300  -14.5460 H   0  0  0  0  0  0  0  0  0  0  0  0
    0.0410   15.8850  -15.7020 H   0  0  0  0  0  0  0  0  0  0  0  0
    0.8650   13.5260  -15.4430 H   0  0  0  0  0  0  0  0  0  0  0  0
   -0.8030   13.7570  -14.9120 H   0  0  0  0  0  0  0  0  0  0  0  0
   -0.9610   17.8490  -11.3920 H   0  0  0  0  0  0  0  0  0  0  0  0
   -4.4790   20.0930  -11.0880 H   0  0  0  0  0  0  0  0  0  0  0  0
   -5.2900   19.2540  -13.2070 H   0  0  0  0  0  0  0  0  0  0  0  0
   -3.8840   17.6570  -14.5090 H   0  0  0  0  0  0  0  0  0  0  0  0
   -2.8280    7.4790  -13.7660 H   0  0  0  0  0  0  0  0  0  0  0  0
   -2.8290   11.1790  -14.1360 H   0  0  0  0  0  0  0  0  0  0  0  0
   -4.3450    8.9400  -12.4480 H   0  0  0  0  0  0  0  0  0  0  0  0
   -4.9520   10.6120  -12.9280 H   0  0  0  0  0  0  0  0  0  0  0  0
   -3.9360    8.3700  -14.9100 H   0  0  0  0  0  0  0  0  0  0  0  0
   -4.6020   10.0090  -15.4290 H   0  0  0  0  0  0  0  0  0  0  0  0
  2  3  1  0  0  0  0
  2  1  1  0  0  0  0
  3 34  1  0  0  0  0
  4 26  1  0  0  0  0
  4  3  2  0  0  0  0
  5  4  1  0  0  0  0
  6  5  2  0  0  0  0
  6  7  1  0  0  0  0
  7  2  2  0  0  0  0
  8  7  1  0  0  0  0
  8 36  1  0  0  0  0
  8  9  1  0  0  0  0
  9 38  1  0  0  0  0
 10  9  1  0  0  0  0
 10 39  1  0  0  0  0
 11 10  1  0  0  0  0
 12 13  1  0  0  0  0
 12 41  1  0  0  0  0
 12 11  1  0  0  0  0
 13  8  1  0  0  0  0
 14 11  1  0  0  0  0
 14 16  1  0  0  0  0
 15 14  2  0  0  0  0
 16 17  1  0  0  0  0
 17 45  1  0  0  0  0
 17 18  2  0  0  0  0
 18 22  1  0  0  0  0
 19 18  1  0  0  0  0
 19 46  1  0  0  0  0
 20 19  2  0  0  0  0
 21 16  2  0  0  0  0
 21 20  1  0  0  0  0
 23 24  1  0  0  0  0
 23  5  1  0  0  0  0
 24 25  2  0  0  0  0
 25 28  1  0  0  0  0
 25 26  1  0  0  0  0
 26 27  2  0  0  0  0
 28 30  1  0  0  0  0
 29 28  2  0  0  0  0
 31 23  1  0  0  0  0
 31 32  1  0  0  0  0
 32 52  1  0  0  0  0
 32 51  1  0  0  0  0
 33 31  1  0  0  0  0
 33 32  1  0  0  0  0
 35  6  1  0  0  0  0
 37  9  1  0  0  0  0
 40 10  1  0  0  0  0
 42 12  1  0  0  0  0
 43 13  1  0  0  0  0
 44 13  1  0  0  0  0
 47 20  1  0  0  0  0
 48 21  1  0  0  0  0
 49 24  1  0  0  0  0
 50 31  1  0  0  0  0
 53 33  1  0  0  0  0
 54 33  1  0  0  0  0
M  END
>  <Pose>
1

>  <Score>
-6.73

$$$$
