
 OpenBabel03232203513D

 51 54  0  0  0  0  0  0  0  0999 V2000
   -4.7240   21.5840   -9.4250 Cl  0  0  0  0  0  0  0  0  0  0  0  0
   -4.1110   20.3850  -10.5520 C   0  0  0  0  0  0  0  0  0  0  0  0
   -4.8080   20.1200  -11.7190 C   0  0  0  0  0  0  0  0  0  0  0  0
   -4.3200   19.1800  -12.5960 C   0  0  0  0  0  0  0  0  0  0  0  0
   -3.1530   18.4910  -12.3460 C   0  0  0  0  0  0  0  0  0  0  0  0
   -2.4820   18.7690  -11.1840 C   0  0  0  0  0  0  0  0  0  0  0  0
   -2.9480   19.7170  -10.2710 C   0  0  0  0  0  0  0  0  0  0  0  0
   -2.6740   17.4800  -13.3180 C   0  0  0  0  0  0  0  0  0  0  0  0
   -3.4320   17.2650  -14.2890 O   0  0  0  0  0  0  0  0  0  0  0  0
   -1.4670   16.8150  -13.1680 N   0  0  0  0  0  0  0  0  0  0  0  0
   -0.8970   15.7370  -13.8820 C   0  0  0  0  0  0  0  0  0  0  0  0
   -0.3060   14.6220  -13.1260 C   0  0  0  0  0  0  0  0  0  0  0  0
    0.3100   14.8110  -11.8720 N   0  0  0  0  0  0  0  0  0  0  0  0
    1.7460   14.9320  -11.8550 C   0  0  0  0  0  0  0  0  0  0  0  0
    2.2890   15.7900  -12.5680 O   0  0  0  0  0  0  0  0  0  0  0  0
    2.5880   14.0570  -11.0050 C   0  0  0  0  0  0  0  0  0  0  0  0
    3.6250   13.4020  -11.8910 C   0  0  0  0  0  0  0  0  0  0  0  0
    2.9040   12.3860  -12.7470 C   0  0  0  0  0  0  0  0  0  0  0  0
    2.5120   11.3130  -11.8370 N   0  0  0  0  0  0  0  0  0  0  0  0
    2.1250   11.6190  -10.5020 C   0  0  0  0  0  0  0  0  0  0  0  0
    1.8180   13.0480  -10.2370 C   0  0  0  0  0  0  0  0  0  0  0  0
    2.5360    9.9910  -12.3380 C   0  0  0  0  0  0  0  0  0  0  0  0
    1.9540    8.9570  -11.7020 N   0  0  0  0  0  0  0  0  0  0  0  0
    1.9680    7.7170  -12.1550 N   0  0  0  0  0  0  0  0  0  0  0  0
    1.4570    6.5890  -11.6730 N   0  0  0  0  0  0  0  0  0  0  0  0
    1.7210    5.5880  -12.4690 N   0  0  0  0  0  0  0  0  0  0  0  0
    2.4110    6.0540  -13.4880 N   0  0  0  0  0  0  0  0  0  0  0  0
    2.5710    7.3800  -13.3010 C   0  0  0  0  0  0  0  0  0  0  0  0
    3.1890    8.4000  -14.0020 C   0  0  0  0  0  0  0  0  0  0  0  0
    3.1750    9.6970  -13.5300 C   0  0  0  0  0  0  0  0  0  0  0  0
   -5.7320   20.6640  -11.9210 H   0  0  0  0  0  0  0  0  0  0  0  0
   -4.8520   18.9560  -13.5210 H   0  0  0  0  0  0  0  0  0  0  0  0
   -1.5750   18.2790  -10.9150 H   0  0  0  0  0  0  0  0  0  0  0  0
   -2.4220   19.9380   -9.3570 H   0  0  0  0  0  0  0  0  0  0  0  0
   -0.8650   17.2360  -12.3330 H   0  0  0  0  0  0  0  0  0  0  0  0
   -1.6680   15.3270  -14.6090 H   0  0  0  0  0  0  0  0  0  0  0  0
   -0.0860   16.1880  -14.5410 H   0  0  0  0  0  0  0  0  0  0  0  0
    0.3640   14.0030  -13.8240 H   0  0  0  0  0  0  0  0  0  0  0  0
   -1.1420   13.8550  -12.9400 H   0  0  0  0  0  0  0  0  0  0  0  0
   -0.1370   14.9050  -10.9630 H   0  0  0  0  0  0  0  0  0  0  0  0
    3.1800   14.6860  -10.2900 H   0  0  0  0  0  0  0  0  0  0  0  0
    4.3170   12.8450  -11.2190 H   0  0  0  0  0  0  0  0  0  0  0  0
    4.1850   14.1410  -12.4920 H   0  0  0  0  0  0  0  0  0  0  0  0
    3.5770   11.9710  -13.5350 H   0  0  0  0  0  0  0  0  0  0  0  0
    1.9710   12.7550  -13.1960 H   0  0  0  0  0  0  0  0  0  0  0  0
    2.9650   11.3190   -9.8120 H   0  0  0  0  0  0  0  0  0  0  0  0
    1.2390   11.0150  -10.1800 H   0  0  0  0  0  0  0  0  0  0  0  0
    1.8930   13.3000   -9.1380 H   0  0  0  0  0  0  0  0  0  0  0  0
    0.7250   13.2380  -10.4610 H   0  0  0  0  0  0  0  0  0  0  0  0
    3.6840    8.1370  -14.9360 H   0  0  0  0  0  0  0  0  0  0  0  0
    3.6640   10.4910  -14.0950 H   0  0  0  0  0  0  0  0  0  0  0  0
  2  7  1  0  0  0  0
  2  1  1  0  0  0  0
  3  2  2  0  0  0  0
  4  5  2  0  0  0  0
  4  3  1  0  0  0  0
  5  6  1  0  0  0  0
  6 33  1  0  0  0  0
  6  7  2  0  0  0  0
  7 34  1  0  0  0  0
  8 10  1  0  0  0  0
  8  5  1  0  0  0  0
  9  8  2  0  0  0  0
 10 35  1  0  0  0  0
 11 10  1  0  0  0  0
 11 12  1  0  0  0  0
 12 39  1  0  0  0  0
 12 13  1  0  0  0  0
 13 14  1  0  0  0  0
 13 40  1  0  0  0  0
 14 16  1  0  0  0  0
 15 14  2  0  0  0  0
 16 41  1  0  0  0  0
 16 21  1  0  0  0  0
 17 42  1  0  0  0  0
 17 16  1  0  0  0  0
 18 17  1  0  0  0  0
 18 19  1  0  0  0  0
 19 20  1  0  0  0  0
 20 21  1  0  0  0  0
 20 47  1  0  0  0  0
 20 46  1  0  0  0  0
 21 48  1  0  0  0  0
 22 19  1  0  0  0  0
 22 23  2  0  0  0  0
 24 23  1  0  0  0  0
 24 25  1  0  0  0  0
 26 25  2  0  0  0  0
 27 28  2  0  0  0  0
 27 26  1  0  0  0  0
 28 24  1  0  0  0  0
 29 30  2  0  0  0  0
 29 28  1  0  0  0  0
 30 22  1  0  0  0  0
 31  3  1  0  0  0  0
 32  4  1  0  0  0  0
 36 11  1  0  0  0  0
 37 11  1  0  0  0  0
 38 12  1  0  0  0  0
 43 17  1  0  0  0  0
 44 18  1  0  0  0  0
 45 18  1  0  0  0  0
 49 21  1  0  0  0  0
 50 29  1  0  0  0  0
 51 30  1  0  0  0  0
M  END
>  <Pose>
1

>  <Score>
-6.88

$$$$
