
 OpenBabel03232203513D

 49 52  0  0  0  0  0  0  0  0999 V2000
   -7.0650   24.3100   -7.1700 B   0  0  0  0  0  0  0  0  0  0  0  0
   -6.2840   23.0410   -8.3730 C   0  0  0  0  0  0  0  0  0  0  0  0
   -4.9370   22.7410   -8.3250 C   0  0  0  0  0  0  0  0  0  0  0  0
   -4.3750   21.8180   -9.2010 C   0  0  0  0  0  0  0  0  0  0  0  0
   -5.1380   21.1700  -10.1500 C   0  0  0  0  0  0  0  0  0  0  0  0
   -6.4810   21.4740  -10.1940 C   0  0  0  0  0  0  0  0  0  0  0  0
   -7.0410   22.3880   -9.3260 C   0  0  0  0  0  0  0  0  0  0  0  0
   -4.5980   20.2210  -11.0620 N   0  0  0  0  0  0  0  0  0  0  0  0
   -3.4250   19.5670  -11.0350 C   0  0  0  0  0  0  0  0  0  0  0  0
   -2.5830   19.7290  -10.1150 O   0  0  0  0  0  0  0  0  0  0  0  0
   -3.2960   18.7270  -12.1280 C   0  0  0  0  0  0  0  0  0  0  0  0
   -4.4110   18.8730  -12.8310 C   0  0  0  0  0  0  0  0  0  0  0  0
   -4.2850   18.0590  -13.8910 N   0  0  0  0  0  0  0  0  0  0  0  0
   -3.1240   17.4320  -13.8350 N   0  0  0  0  0  0  0  0  0  0  0  0
   -2.5000   17.8290  -12.7580 N   0  0  0  0  0  0  0  0  0  0  0  0
   -1.2000   17.4140  -12.2880 C   0  0  0  0  0  0  0  0  0  0  0  0
   -0.7880   16.1570  -13.0190 C   0  0  0  0  0  0  0  0  0  0  0  0
   -0.6080   16.2020  -14.2570 O   0  0  0  0  0  0  0  0  0  0  0  0
   -0.6100   14.9580  -12.3130 N   0  0  0  0  0  0  0  0  0  0  0  0
    0.4470   14.0440  -12.4910 C   0  0  0  0  0  0  0  0  0  0  0  0
    0.3920   12.8800  -13.2140 C   0  0  0  0  0  0  0  0  0  0  0  0
    1.4610   12.0160  -13.3360 C   0  0  0  0  0  0  0  0  0  0  0  0
    2.6380   12.3470  -12.6970 C   0  0  0  0  0  0  0  0  0  0  0  0
    2.7350   13.5140  -11.9570 C   0  0  0  0  0  0  0  0  0  0  0  0
    1.6620   14.3550  -11.8490 C   0  0  0  0  0  0  0  0  0  0  0  0
    3.7290   11.4890  -12.8070 O   0  0  0  0  0  0  0  0  0  0  0  0
    4.6220   11.3670  -11.7190 C   0  0  0  0  0  0  0  0  0  0  0  0
    1.3750   10.8400  -14.0780 O   0  0  0  0  0  0  0  0  0  0  0  0
    1.3610    9.6010  -13.3560 C   0  0  0  0  0  0  0  0  0  0  0  0
   -5.2150   19.7890  -12.1850 C   0  0  0  0  0  0  0  0  0  0  0  0
   -6.3660   20.1700  -12.5810 O   0  0  0  0  0  0  0  0  0  0  0  0
   -4.3420   23.2570   -7.5720 H   0  0  0  0  0  0  0  0  0  0  0  0
   -3.3240   21.5910   -9.1560 H   0  0  0  0  0  0  0  0  0  0  0  0
   -7.0770   20.9580  -10.9450 H   0  0  0  0  0  0  0  0  0  0  0  0
   -8.1100   22.6080   -9.3850 H   0  0  0  0  0  0  0  0  0  0  0  0
   -4.9730   17.9160  -14.6570 H   0  0  0  0  0  0  0  0  0  0  0  0
   -2.7400   16.7240  -14.5300 H   0  0  0  0  0  0  0  0  0  0  0  0
   -1.1900   17.1770  -11.1990 H   0  0  0  0  0  0  0  0  0  0  0  0
   -0.4300   18.1670  -12.5160 H   0  0  0  0  0  0  0  0  0  0  0  0
   -1.3450   14.7260  -11.5690 H   0  0  0  0  0  0  0  0  0  0  0  0
   -0.5160   12.6010  -13.7320 H   0  0  0  0  0  0  0  0  0  0  0  0
    3.6810   13.7450  -11.4640 H   0  0  0  0  0  0  0  0  0  0  0  0
    1.7530   15.2820  -11.2560 H   0  0  0  0  0  0  0  0  0  0  0  0
    3.9990   11.1070  -10.8300 H   0  0  0  0  0  0  0  0  0  0  0  0
    5.1160   12.3300  -11.5390 H   0  0  0  0  0  0  0  0  0  0  0  0
    5.3400   10.5400  -11.9310 H   0  0  0  0  0  0  0  0  0  0  0  0
    0.4280    9.5340  -12.7320 H   0  0  0  0  0  0  0  0  0  0  0  0
    1.4010    8.7420  -14.0550 H   0  0  0  0  0  0  0  0  0  0  0  0
    2.2350    9.5410  -12.6750 H   0  0  0  0  0  0  0  0  0  0  0  0
  2  3  1  0  0  0  0
  2  1  1  0  0  0  0
  3 32  1  0  0  0  0
  4 33  1  0  0  0  0
  4  3  2  0  0  0  0
  5  4  1  0  0  0  0
  6  5  2  0  0  0  0
  6  7  1  0  0  0  0
  7  2  2  0  0  0  0
  8  9  1  0  0  0  0
  8  5  1  0  0  0  0
  9 10  2  0  0  0  0
 11  9  1  0  0  0  0
 12 30  1  0  0  0  0
 12 11  2  0  0  0  0
 13 14  1  0  0  0  0
 13 12  1  0  0  0  0
 14 15  1  0  0  0  0
 15 16  1  0  0  0  0
 15 11  1  0  0  0  0
 16 38  1  0  0  0  0
 17 19  1  0  0  0  0
 17 16  1  0  0  0  0
 18 17  2  0  0  0  0
 19 40  1  0  0  0  0
 20 19  1  0  0  0  0
 20 25  1  0  0  0  0
 21 20  2  0  0  0  0
 22 21  1  0  0  0  0
 22 23  2  0  0  0  0
 23 24  1  0  0  0  0
 24 25  2  0  0  0  0
 24 42  1  0  0  0  0
 25 43  1  0  0  0  0
 26 23  1  0  0  0  0
 26 27  1  0  0  0  0
 27 45  1  0  0  0  0
 27 44  1  0  0  0  0
 28 29  1  0  0  0  0
 28 22  1  0  0  0  0
 29 47  1  0  0  0  0
 29 49  1  0  0  0  0
 30  8  1  0  0  0  0
 31 30  2  0  0  0  0
 34  6  1  0  0  0  0
 35  7  1  0  0  0  0
 36 13  1  0  0  0  0
 37 14  1  0  0  0  0
 39 16  1  0  0  0  0
 41 21  1  0  0  0  0
 46 27  1  0  0  0  0
 48 29  1  0  0  0  0
M  END
>  <Pose>
1

>  <Score>
-6.92

$$$$
