
 OpenBabel03232203513D

 44 47  0  0  1  0  0  0  0  0999 V2000
   -1.9770    5.8330  -14.4870 B   0  0  0  0  0  0  0  0  0  0  0  0
   -0.4090    6.4160  -13.5800 C   0  0  0  0  0  0  0  0  0  0  0  0
    0.2600    7.5770  -13.9600 C   0  0  0  0  0  0  0  0  0  0  0  0
    1.3960    7.9940  -13.2980 C   0  0  0  0  0  0  0  0  0  0  0  0
    1.8250    7.1930  -12.2450 C   0  0  0  0  0  0  0  0  0  0  0  0
    1.1810    6.0500  -11.8570 C   0  0  0  0  0  0  0  0  0  0  0  0
    0.0510    5.6520  -12.5300 C   0  0  0  0  0  0  0  0  0  0  0  0
    2.1190    9.1740  -13.6490 N   0  0  0  0  0  0  0  0  0  0  0  0
    1.5590   10.4820  -13.6580 C   0  0  0  0  0  0  0  0  0  0  0  0
    0.3290   10.7060  -13.7670 O   0  0  0  0  0  0  0  0  0  0  0  0
    2.6680   11.4180  -13.5210 C   0  0  2  0  0  0  0  0  0  0  0  0
    3.8200   10.6810  -14.1720 C   0  0  0  0  0  0  0  0  0  0  0  0
    3.4970    9.2480  -14.0360 C   0  0  0  0  0  0  0  0  0  0  0  0
    4.2640    8.2670  -14.2180 O   0  0  0  0  0  0  0  0  0  0  0  0
    2.9630   11.8610  -12.2190 N   0  0  0  0  0  0  0  0  0  0  0  0
    2.1020   11.4750  -11.1750 C   0  0  0  0  0  0  0  0  0  0  0  0
    1.1040   12.6120  -10.9180 C   0  0  0  0  0  0  0  0  0  0  0  0
    1.5970   13.8430  -11.5150 N   0  0  0  0  0  0  0  0  0  0  0  0
    3.0090   14.1670  -11.5520 C   0  0  0  0  0  0  0  0  0  0  0  0
    3.7960   12.9600  -12.0060 C   0  0  0  0  0  0  0  0  0  0  0  0
    0.6950   14.7830  -12.1160 C   0  0  0  0  0  0  0  0  0  0  0  0
    0.2970   15.8870  -11.4490 N   0  0  0  0  0  0  0  0  0  0  0  0
   -0.5360   16.7750  -12.0260 C   0  0  0  0  0  0  0  0  0  0  0  0
   -1.0140   16.5910  -13.3180 C   0  0  0  0  0  0  0  0  0  0  0  0
   -0.6000   15.4580  -13.9960 C   0  0  0  0  0  0  0  0  0  0  0  0
    0.2320   14.6090  -13.3670 N   0  0  0  0  0  0  0  0  0  0  0  0
   -0.1190    8.1580  -14.7840 H   0  0  0  0  0  0  0  0  0  0  0  0
    2.7220    7.5150  -11.7180 H   0  0  0  0  0  0  0  0  0  0  0  0
    1.5280    5.4260  -11.0260 H   0  0  0  0  0  0  0  0  0  0  0  0
   -0.4510    4.7480  -12.2190 H   0  0  0  0  0  0  0  0  0  0  0  0
    2.4650   12.3200  -14.1660 H   0  0  0  0  0  0  0  0  0  0  0  0
    3.8130   10.9140  -15.2490 H   0  0  0  0  0  0  0  0  0  0  0  0
    4.7880   10.9420  -13.6920 H   0  0  0  0  0  0  0  0  0  0  0  0
    2.6850   11.3630  -10.2370 H   0  0  0  0  0  0  0  0  0  0  0  0
    1.5680   10.5500  -11.3310 H   0  0  0  0  0  0  0  0  0  0  0  0
    0.1220   12.3680  -11.4000 H   0  0  0  0  0  0  0  0  0  0  0  0
    0.9600   12.8170   -9.8540 H   0  0  0  0  0  0  0  0  0  0  0  0
    3.3470   14.5450  -10.5450 H   0  0  0  0  0  0  0  0  0  0  0  0
    3.2040   14.9630  -12.3250 H   0  0  0  0  0  0  0  0  0  0  0  0
    4.4490   13.1840  -12.8740 H   0  0  0  0  0  0  0  0  0  0  0  0
    4.4980   12.7170  -11.1530 H   0  0  0  0  0  0  0  0  0  0  0  0
   -0.8660   17.6730  -11.5020 H   0  0  0  0  0  0  0  0  0  0  0  0
   -1.6900   17.3310  -13.7590 H   0  0  0  0  0  0  0  0  0  0  0  0
   -0.9520   15.2830  -15.0210 H   0  0  0  0  0  0  0  0  0  0  0  0
  1  2  1  0  0  0  0
  2  7  1  0  0  0  0
  3  2  2  0  0  0  0
  3  4  1  0  0  0  0
  4  5  2  0  0  0  0
  5  6  1  0  0  0  0
  5 28  1  0  0  0  0
  6 29  1  0  0  0  0
  7 30  1  0  0  0  0
  7  6  2  0  0  0  0
  8  4  1  0  0  0  0
  9  8  1  0  0  0  0
  9 11  1  0  0  0  0
 10  9  2  0  0  0  0
 11 31  1  6  0  0  0
 11 15  1  0  0  0  0
 12 13  1  0  0  0  0
 12 33  1  0  0  0  0
 12 11  1  0  0  0  0
 13  8  1  0  0  0  0
 14 13  2  0  0  0  0
 15 20  1  0  0  0  0
 15 16  1  0  0  0  0
 16 17  1  0  0  0  0
 16 34  1  0  0  0  0
 17 37  1  0  0  0  0
 18 17  1  0  0  0  0
 19 18  1  0  0  0  0
 19 38  1  0  0  0  0
 20 19  1  0  0  0  0
 20 41  1  0  0  0  0
 21 18  1  0  0  0  0
 21 22  2  0  0  0  0
 23 42  1  0  0  0  0
 23 22  1  0  0  0  0
 24 23  2  0  0  0  0
 25 26  2  0  0  0  0
 25 24  1  0  0  0  0
 26 21  1  0  0  0  0
 27  3  1  0  0  0  0
 32 12  1  0  0  0  0
 35 16  1  0  0  0  0
 36 17  1  0  0  0  0
 39 19  1  0  0  0  0
 40 20  1  0  0  0  0
 43 24  1  0  0  0  0
 44 25  1  0  0  0  0
M  END
>  <Pose>
1

>  <Score>
-5.79

$$$$
