
 OpenBabel03232203513D

 44 47  0  0  1  0  0  0  0  0999 V2000
    1.5590    8.3070  -14.4640 Cl  0  0  0  0  0  0  0  0  0  0  0  0
    0.3210    9.4200  -13.9750 C   0  0  0  0  0  0  0  0  0  0  0  0
   -0.9650    8.9950  -13.7790 C   0  0  0  0  0  0  0  0  0  0  0  0
   -1.9030    9.9220  -13.3930 C   0  0  0  0  0  0  0  0  0  0  0  0
   -1.5540   11.2340  -13.2100 C   0  0  0  0  0  0  0  0  0  0  0  0
   -0.2500   11.7030  -13.4000 C   0  0  0  0  0  0  0  0  0  0  0  0
    0.6600   10.7740  -13.7830 C   0  0  0  0  0  0  0  0  0  0  0  0
    0.0590   13.1210  -13.2100 C   0  0  0  0  0  0  0  0  0  0  0  0
    1.0440   13.7150  -12.5170 N   0  0  0  0  0  0  0  0  0  0  0  0
    0.9290   15.0550  -12.6280 C   0  0  2  0  0  0  0  0  0  0  0  0
   -0.1420   15.3160  -13.4000 N   0  0  0  0  0  0  0  0  0  0  0  0
   -0.7150   14.1410  -13.7840 C   0  0  0  0  0  0  0  0  0  0  0  0
   -0.5900   16.6000  -13.7960 C   0  0  0  0  0  0  0  0  0  0  0  0
   -1.9740   16.9730  -13.8480 C   0  0  2  0  0  0  0  0  0  0  0  0
   -2.6110   16.3570  -14.8230 O   0  0  0  0  0  0  0  0  0  0  0  0
   -2.7790   17.8740  -13.0570 C   0  0  0  0  0  0  0  0  0  0  0  0
   -2.3670   18.4970  -11.9110 C   0  0  0  0  0  0  0  0  0  0  0  0
   -3.2040   19.3600  -11.1960 C   0  0  0  0  0  0  0  0  0  0  0  0
   -4.4670   19.6020  -11.6320 C   0  0  0  0  0  0  0  0  0  0  0  0
   -4.9080   18.9880  -12.7840 C   0  0  0  0  0  0  0  0  0  0  0  0
   -4.0970   18.1420  -13.4910 C   0  0  0  0  0  0  0  0  0  0  0  0
   -2.7120   19.9790  -10.0060 N   0  0  0  0  0  0  0  0  0  0  0  0
   -3.3840   20.8720   -9.4600 O   0  0  0  0  0  0  0  0  0  0  0  0
   -1.5270   19.6230   -9.4480 O   0  0  0  0  0  0  0  0  0  0  0  0
    2.0170   15.7220  -11.8770 C   0  0  0  0  0  0  0  0  0  0  0  0
    2.2480   14.6940  -10.7990 C   0  0  0  0  0  0  0  0  0  0  0  0
    2.2020   13.4220  -11.6630 C   0  0  0  0  0  0  0  0  0  0  0  0
   -1.4220    7.3210  -14.0090 Cl  0  0  0  0  0  0  0  0  0  0  0  0
   -2.9430    9.6220  -13.2250 H   0  0  0  0  0  0  0  0  0  0  0  0
   -2.3100   11.9320  -12.9070 H   0  0  0  0  0  0  0  0  0  0  0  0
    1.6770   11.0490  -13.9620 H   0  0  0  0  0  0  0  0  0  0  0  0
   -1.5770   14.0370  -14.3990 H   0  0  0  0  0  0  0  0  0  0  0  0
   -0.1530   16.8510  -14.8290 H   0  0  0  0  0  0  0  0  0  0  0  0
   -0.0790   17.3720  -13.1160 H   0  0  0  0  0  0  0  0  0  0  0  0
   -1.3750   18.3400  -11.5180 H   0  0  0  0  0  0  0  0  0  0  0  0
   -5.1070   20.2850  -11.0540 H   0  0  0  0  0  0  0  0  0  0  0  0
   -5.9310   19.1860  -13.1360 H   0  0  0  0  0  0  0  0  0  0  0  0
   -4.4920   17.6790  -14.3970 H   0  0  0  0  0  0  0  0  0  0  0  0
    2.9060   15.8050  -12.5450 H   0  0  0  0  0  0  0  0  0  0  0  0
    1.7190   16.6990  -11.4550 H   0  0  0  0  0  0  0  0  0  0  0  0
    1.3370   14.6550  -10.1770 H   0  0  0  0  0  0  0  0  0  0  0  0
    3.1760   14.7960  -10.2610 H   0  0  0  0  0  0  0  0  0  0  0  0
    3.0900   13.4220  -12.2870 H   0  0  0  0  0  0  0  0  0  0  0  0
    2.0520   12.5470  -11.0080 H   0  0  0  0  0  0  0  0  0  0  0  0
  1  2  1  0  0  0  0
  2  7  2  0  0  0  0
  2  3  1  0  0  0  0
  3  4  2  0  0  0  0
  4 29  1  0  0  0  0
  4  5  1  0  0  0  0
  5 30  1  0  0  0  0
  6  8  1  0  0  0  0
  6  5  2  0  0  0  0
  7  6  1  0  0  0  0
  8  9  1  0  0  0  0
  9 27  1  0  0  0  0
 10 11  1  6  0  0  0
 10  9  1  0  0  0  0
 10 25  1  0  0  0  0
 12 11  1  0  0  0  0
 12  8  2  0  0  0  0
 13 11  1  0  0  0  0
 13 34  1  0  0  0  0
 14 15  1  6  0  0  0
 14 13  1  0  0  0  0
 14 16  1  0  0  0  0
 16 17  1  0  0  0  0
 17 35  1  0  0  0  0
 17 18  2  0  0  0  0
 18 22  1  0  0  0  0
 19 18  1  0  0  0  0
 19 36  1  0  0  0  0
 20 19  2  0  0  0  0
 21 16  2  0  0  0  0
 21 20  1  0  0  0  0
 22 23  2  0  0  0  0
 22 24  2  0  0  0  0
 25 40  1  0  0  0  0
 25 26  1  0  0  0  0
 26 42  1  0  0  0  0
 26 41  1  0  0  0  0
 27 44  1  0  0  0  0
 27 26  1  0  0  0  0
 28  3  1  0  0  0  0
 31  7  1  0  0  0  0
 32 12  1  0  0  0  0
 33 13  1  0  0  0  0
 37 20  1  0  0  0  0
 38 21  1  0  0  0  0
 39 25  1  0  0  0  0
 43 27  1  0  0  0  0
M  END
>  <Pose>
1

>  <Score>
-7.03

$$$$
