
 OpenBabel03232203513D

 55 58  0  0  0  0  0  0  0  0999 V2000
    1.0430   15.1760  -12.3580 S   0  0  0  0  0  0  0  0  0  0  0  0
    0.1000   14.7030  -13.4700 O   0  0  0  0  0  0  0  0  0  0  0  0
    2.2790   15.6460  -13.1290 O   0  0  0  0  0  0  0  0  0  0  0  0
    1.4330   13.8730  -11.4190 N   0  0  0  0  0  0  0  0  0  0  0  0
    2.7320   13.4920  -11.1030 C   0  0  0  0  0  0  0  0  0  0  0  0
    3.3780   12.4910  -12.0070 C   0  0  0  0  0  0  0  0  0  0  0  0
    2.2900   11.7070  -12.7380 C   0  0  0  0  0  0  0  0  0  0  0  0
    1.2400   11.4460  -11.6460 C   0  0  0  0  0  0  0  0  0  0  0  0
    0.4930   12.7620  -11.4950 C   0  0  0  0  0  0  0  0  0  0  0  0
    2.7930   10.4710  -13.3140 C   0  0  0  0  0  0  0  0  0  0  0  0
    3.9510   10.4420  -13.8060 O   0  0  0  0  0  0  0  0  0  0  0  0
    2.0230    9.3040  -13.3340 N   0  0  0  0  0  0  0  0  0  0  0  0
    2.0480    8.3110  -12.2550 C   0  0  0  0  0  0  0  0  0  0  0  0
    1.2500    7.1230  -12.7510 C   0  0  0  0  0  0  0  0  0  0  0  0
   -0.1270    7.5060  -12.9940 N   0  0  0  0  0  0  0  0  0  0  0  0
   -0.2160    8.5610  -13.9870 C   0  0  0  0  0  0  0  0  0  0  0  0
    1.1650    8.9980  -14.4450 C   0  0  0  0  0  0  0  0  0  0  0  0
   -0.9220    6.3630  -13.3880 C   0  0  0  0  0  0  0  0  0  0  0  0
    0.2470   16.5350  -11.6190 C   0  0  0  0  0  0  0  0  0  0  0  0
   -1.0650   16.8540  -12.0070 C   0  0  0  0  0  0  0  0  0  0  0  0
   -1.7390   17.9380  -11.5080 C   0  0  0  0  0  0  0  0  0  0  0  0
   -1.1310   18.7490  -10.5990 C   0  0  0  0  0  0  0  0  0  0  0  0
    0.1490   18.4860  -10.1820 C   0  0  0  0  0  0  0  0  0  0  0  0
    0.8130   17.3750  -10.7050 C   0  0  0  0  0  0  0  0  0  0  0  0
    2.4190   17.0420  -10.0790 Cl  0  0  0  0  0  0  0  0  0  0  0  0
   -1.8510   19.8840  -10.0900 N   0  0  0  0  0  0  0  0  0  0  0  0
   -3.1710   20.1340  -10.5420 C   0  0  0  0  0  0  0  0  0  0  0  0
   -3.9650   20.8420   -9.8890 O   0  0  0  0  0  0  0  0  0  0  0  0
   -3.5810   19.5190  -11.8320 C   0  0  0  0  0  0  0  0  0  0  0  0
   -3.0470   18.2250  -11.9190 O   0  0  0  0  0  0  0  0  0  0  0  0
    3.4020   14.3340  -10.9300 H   0  0  0  0  0  0  0  0  0  0  0  0
    2.6680   13.0150  -10.0490 H   0  0  0  0  0  0  0  0  0  0  0  0
    3.9220   11.7380  -11.3850 H   0  0  0  0  0  0  0  0  0  0  0  0
    4.1110   12.8820  -12.7170 H   0  0  0  0  0  0  0  0  0  0  0  0
    1.8430   12.3770  -13.4890 H   0  0  0  0  0  0  0  0  0  0  0  0
    0.5750   10.6190  -11.8700 H   0  0  0  0  0  0  0  0  0  0  0  0
    1.8370   11.2700  -10.7050 H   0  0  0  0  0  0  0  0  0  0  0  0
   -0.2070   12.7270  -10.6440 H   0  0  0  0  0  0  0  0  0  0  0  0
   -0.1030   12.9020  -12.4160 H   0  0  0  0  0  0  0  0  0  0  0  0
    1.4900    8.7800  -11.3900 H   0  0  0  0  0  0  0  0  0  0  0  0
    3.0700    8.0400  -11.9890 H   0  0  0  0  0  0  0  0  0  0  0  0
    1.7630    6.7490  -13.6810 H   0  0  0  0  0  0  0  0  0  0  0  0
    1.2900    6.3240  -11.9880 H   0  0  0  0  0  0  0  0  0  0  0  0
   -0.7460    9.4340  -13.5840 H   0  0  0  0  0  0  0  0  0  0  0  0
   -0.7180    8.1370  -14.8800 H   0  0  0  0  0  0  0  0  0  0  0  0
    1.6430    8.2080  -15.0760 H   0  0  0  0  0  0  0  0  0  0  0  0
    1.0590    9.8710  -15.0870 H   0  0  0  0  0  0  0  0  0  0  0  0
   -1.9860    6.6610  -13.3370 H   0  0  0  0  0  0  0  0  0  0  0  0
   -0.7650    5.5390  -12.6770 H   0  0  0  0  0  0  0  0  0  0  0  0
   -0.7290    6.0610  -14.4480 H   0  0  0  0  0  0  0  0  0  0  0  0
   -1.5420   16.1970  -12.7370 H   0  0  0  0  0  0  0  0  0  0  0  0
    0.6300   19.1200   -9.4700 H   0  0  0  0  0  0  0  0  0  0  0  0
   -1.3950   20.5080   -9.3950 H   0  0  0  0  0  0  0  0  0  0  0  0
   -4.6890   19.4710  -11.9150 H   0  0  0  0  0  0  0  0  0  0  0  0
   -3.2030   20.0980  -12.6870 H   0  0  0  0  0  0  0  0  0  0  0  0
  1 19  1  0  0  0  0
  1  4  1  0  0  0  0
  2  1  2  0  0  0  0
  3  1  2  0  0  0  0
  4  5  1  0  0  0  0
  5 31  1  0  0  0  0
  5 32  1  0  0  0  0
  6 33  1  0  0  0  0
  6  5  1  0  0  0  0
  7  6  1  0  0  0  0
  7  8  1  0  0  0  0
  8  9  1  0  0  0  0
  8 37  1  0  0  0  0
  9  4  1  0  0  0  0
  9 38  1  0  0  0  0
 10  7  1  0  0  0  0
 11 10  2  0  0  0  0
 12 10  1  0  0  0  0
 12 13  1  0  0  0  0
 13 41  1  0  0  0  0
 13 40  1  0  0  0  0
 14 13  1  0  0  0  0
 14 43  1  0  0  0  0
 15 14  1  0  0  0  0
 16 44  1  0  0  0  0
 16 15  1  0  0  0  0
 17 16  1  0  0  0  0
 17 12  1  0  0  0  0
 18 48  1  0  0  0  0
 18 15  1  0  0  0  0
 18 49  1  0  0  0  0
 19 24  1  0  0  0  0
 20 19  2  0  0  0  0
 20 21  1  0  0  0  0
 21 22  2  0  0  0  0
 22 23  1  0  0  0  0
 22 26  1  0  0  0  0
 23 52  1  0  0  0  0
 24 23  2  0  0  0  0
 24 25  1  0  0  0  0
 26 53  1  0  0  0  0
 27 26  1  0  0  0  0
 27 28  2  0  0  0  0
 29 27  1  0  0  0  0
 30 29  1  0  0  0  0
 30 21  1  0  0  0  0
 34  6  1  0  0  0  0
 35  7  1  0  0  0  0
 36  8  1  0  0  0  0
 39  9  1  0  0  0  0
 42 14  1  0  0  0  0
 45 16  1  0  0  0  0
 46 17  1  0  0  0  0
 47 17  1  0  0  0  0
 50 18  1  0  0  0  0
 51 20  1  0  0  0  0
 54 29  1  0  0  0  0
 55 29  1  0  0  0  0
M  END
>  <Pose>
1

>  <Score>
-4.51

$$$$
