
 OpenBabel03232203513D

 60 63  0  0  1  0  0  0  0  0999 V2000
   -4.8820    8.3890  -14.9280 Cl  0  0  0  0  0  0  0  0  0  0  0  0
   -3.2870    8.7460  -14.2680 C   0  0  0  0  0  0  0  0  0  0  0  0
   -2.3380    7.7520  -14.1080 C   0  0  0  0  0  0  0  0  0  0  0  0
   -1.0950    8.0470  -13.5900 C   0  0  0  0  0  0  0  0  0  0  0  0
   -0.7280    9.3200  -13.2100 C   0  0  0  0  0  0  0  0  0  0  0  0
   -1.7010   10.3130  -13.3790 C   0  0  0  0  0  0  0  0  0  0  0  0
   -2.9420   10.0220  -13.8960 C   0  0  0  0  0  0  0  0  0  0  0  0
    0.6170    9.6090  -12.6550 C   0  0  2  0  0  0  0  0  0  0  0  0
    1.1850   10.6600  -13.5090 N   0  0  0  0  0  0  0  0  0  0  0  0
    1.4860   10.0130  -14.7370 C   0  0  0  0  0  0  0  0  0  0  0  0
    1.5280   10.5350  -15.8630 O   0  0  0  0  0  0  0  0  0  0  0  0
    1.7350    8.6130  -14.4090 C   0  0  0  0  0  0  0  0  0  0  0  0
    2.0380    7.6350  -15.1560 O   0  0  0  0  0  0  0  0  0  0  0  0
    1.5650    8.4970  -12.9530 C   0  0  0  0  0  0  0  0  0  0  0  0
    2.1160    7.5940  -12.1650 C   0  0  0  0  0  0  0  0  0  0  0  0
    1.7990    7.6200  -10.8040 O   0  0  0  0  0  0  0  0  0  0  0  0
    3.0400    6.5790  -12.6470 C   0  0  0  0  0  0  0  0  0  0  0  0
    2.8420    5.2280  -12.4120 C   0  0  0  0  0  0  0  0  0  0  0  0
    3.7340    4.2710  -12.8480 C   0  0  0  0  0  0  0  0  0  0  0  0
    4.8780    4.6330  -13.5460 C   0  0  0  0  0  0  0  0  0  0  0  0
    5.0870    5.9720  -13.7860 C   0  0  0  0  0  0  0  0  0  0  0  0
    4.1750    6.9330  -13.3390 C   0  0  0  0  0  0  0  0  0  0  0  0
    5.7880    3.6790  -13.9940 O   0  0  0  0  0  0  0  0  0  0  0  0
    6.4510    2.8780  -13.0560 C   0  0  0  0  0  0  0  0  0  0  0  0
    3.4810    2.8390  -12.5740 C   0  0  0  0  0  0  0  0  0  0  0  0
    1.3880   12.0670  -13.1590 C   0  0  0  0  0  0  0  0  0  0  0  0
    0.0730   12.7670  -13.4150 C   0  0  0  0  0  0  0  0  0  0  0  0
    0.2390   14.1690  -13.6890 N   0  0  0  0  0  4  0  0  0  0  0  0
    1.6060   14.4810  -13.9520 C   0  0  0  0  0  0  0  0  0  0  0  0
    2.3940   15.0000  -12.7960 C   0  0  0  0  0  0  0  0  0  0  0  0
    1.6860   15.7440  -11.8920 O   0  0  0  0  0  0  0  0  0  0  0  0
    0.5430   15.1040  -11.4290 C   0  0  0  0  0  0  0  0  0  0  0  0
   -0.3600   14.9170  -12.6190 C   0  0  0  0  0  0  0  0  0  0  0  0
   -2.5890    6.7440  -14.3950 H   0  0  0  0  0  0  0  0  0  0  0  0
   -0.3220    7.2780  -13.4510 H   0  0  0  0  0  0  0  0  0  0  0  0
   -1.4040   11.3080  -13.0780 H   0  0  0  0  0  0  0  0  0  0  0  0
   -3.6710   10.8020  -14.0170 H   0  0  0  0  0  0  0  0  0  0  0  0
    0.6030    9.8950  -11.6000 H   0  0  0  0  0  0  0  0  0  0  0  0
    1.9280    4.9690  -11.8570 H   0  0  0  0  0  0  0  0  0  0  0  0
    5.9900    6.2720  -14.3380 H   0  0  0  0  0  0  0  0  0  0  0  0
    4.4030    7.9660  -13.5410 H   0  0  0  0  0  0  0  0  0  0  0  0
    7.1040    3.5150  -12.3930 H   0  0  0  0  0  0  0  0  0  0  0  0
    7.1600    2.1810  -13.5540 H   0  0  0  0  0  0  0  0  0  0  0  0
    5.7610    2.2600  -12.4430 H   0  0  0  0  0  0  0  0  0  0  0  0
    4.0320    2.5060  -11.6470 H   0  0  0  0  0  0  0  0  0  0  0  0
    3.8400    2.1850  -13.3920 H   0  0  0  0  0  0  0  0  0  0  0  0
    2.3970    2.6540  -12.3890 H   0  0  0  0  0  0  0  0  0  0  0  0
    2.1510   12.5400  -13.7990 H   0  0  0  0  0  0  0  0  0  0  0  0
    1.7160   12.1270  -12.1240 H   0  0  0  0  0  0  0  0  0  0  0  0
   -0.4510   12.3020  -14.2700 H   0  0  0  0  0  0  0  0  0  0  0  0
   -0.6220   12.6890  -12.5480 H   0  0  0  0  0  0  0  0  0  0  0  0
   -0.3040   14.3480  -14.5820 H   0  0  0  0  0  0  0  0  0  0  0  0
    1.6360   15.2840  -14.7490 H   0  0  0  0  0  0  0  0  0  0  0  0
    2.1020   13.6020  -14.4470 H   0  0  0  0  0  0  0  0  0  0  0  0
    3.2610   15.6130  -13.1470 H   0  0  0  0  0  0  0  0  0  0  0  0
    2.8550   14.1150  -12.2680 H   0  0  0  0  0  0  0  0  0  0  0  0
    0.0300   15.8490  -10.7600 H   0  0  0  0  0  0  0  0  0  0  0  0
    0.7590   14.1710  -10.8900 H   0  0  0  0  0  0  0  0  0  0  0  0
   -1.2870   14.4270  -12.2270 H   0  0  0  0  0  0  0  0  0  0  0  0
   -0.6870   15.9360  -12.9400 H   0  0  0  0  0  0  0  0  0  0  0  0
  1  2  1  0  0  0  0
  2  3  2  0  0  0  0
  2  7  1  0  0  0  0
  3  4  1  0  0  0  0
  4 35  1  0  0  0  0
  4  5  2  0  0  0  0
  5  8  1  0  0  0  0
  6  5  1  0  0  0  0
  6 36  1  0  0  0  0
  7  6  2  0  0  0  0
  8 38  1  1  0  0  0
  9 26  1  0  0  0  0
  9  8  1  0  0  0  0
 10 12  1  0  0  0  0
 10  9  1  0  0  0  0
 11 10  2  0  0  0  0
 12 14  1  0  0  0  0
 13 12  2  0  0  0  0
 14  8  1  0  0  0  0
 14 15  2  0  0  0  0
 15 16  1  0  0  0  0
 17 18  1  0  0  0  0
 17 15  1  0  0  0  0
 18 39  1  0  0  0  0
 19 25  1  0  0  0  0
 19 18  2  0  0  0  0
 20 19  1  0  0  0  0
 21 20  2  0  0  0  0
 21 22  1  0  0  0  0
 22 17  2  0  0  0  0
 23 20  1  0  0  0  0
 23 24  1  0  0  0  0
 24 44  1  0  0  0  0
 24 42  1  0  0  0  0
 25 47  1  0  0  0  0
 25 45  1  0  0  0  0
 26 49  1  0  0  0  0
 27 26  1  0  0  0  0
 27 51  1  0  0  0  0
 28 27  1  0  0  0  0
 28 33  1  0  0  0  0
 29 28  1  0  0  0  0
 29 30  1  0  0  0  0
 30 56  1  0  0  0  0
 30 31  1  0  0  0  0
 31 32  1  0  0  0  0
 32 58  1  0  0  0  0
 32 57  1  0  0  0  0
 33 59  1  0  0  0  0
 33 32  1  0  0  0  0
 34  3  1  0  0  0  0
 37  7  1  0  0  0  0
 40 21  1  0  0  0  0
 41 22  1  0  0  0  0
 43 24  1  0  0  0  0
 46 25  1  0  0  0  0
 48 26  1  0  0  0  0
 50 27  1  0  0  0  0
 52 28  1  0  0  0  0
 53 29  1  0  0  0  0
 54 29  1  0  0  0  0
 55 30  1  0  0  0  0
 60 33  1  0  0  0  0
M  END
>  <Pose>
1

>  <Score>
-4.51

$$$$
