
 OpenBabel03232203513D

 36 39  0  0  1  0  0  0  0  0999 V2000
   -6.2550   22.6410   -8.4080 Cl  0  0  0  0  0  0  0  0  0  0  0  0
   -5.6980   21.5660   -9.6820 C   0  0  0  0  0  0  0  0  0  0  0  0
   -4.4540   20.9740   -9.6490 C   0  0  0  0  0  0  0  0  0  0  0  0
   -4.0240   20.1390  -10.6410 N   0  0  0  0  0  0  0  0  0  0  0  0
   -4.7990   19.8530  -11.7030 C   0  0  0  0  0  0  0  0  0  0  0  0
   -4.3730   19.0240  -12.6890 N   0  0  0  0  0  0  0  0  0  0  0  0
   -3.1530   18.4470  -12.6500 C   0  0  0  0  0  0  0  0  0  0  0  0
   -2.3410   18.7160  -11.5870 C   0  0  2  0  0  0  0  0  0  0  0  0
   -0.9770   18.1020  -11.4940 C   0  0  0  0  0  0  0  0  0  0  0  0
   -1.0800   16.8380  -12.2450 N   0  0  0  0  0  0  0  0  0  0  0  0
   -1.3990   17.0120  -13.6340 C   0  0  0  0  0  0  0  0  0  0  0  0
   -2.8060   17.5590  -13.7910 C   0  0  0  0  0  0  0  0  0  0  0  0
   -0.8660   15.6520  -11.5500 C   0  0  0  0  0  0  0  0  0  0  0  0
   -1.7860   15.2240  -10.7700 O   0  0  0  0  0  0  0  0  0  0  0  0
    0.3410   14.8200  -11.6240 C   0  0  0  0  0  0  0  0  0  0  0  0
    1.3640   14.9650  -10.7760 N   0  0  0  0  0  0  0  0  0  0  0  0
    2.4590   14.2030  -10.8510 C   0  0  0  0  0  0  0  0  0  0  0  0
    2.5980   13.2210  -11.8100 C   0  0  0  0  0  0  0  0  0  0  0  0
    1.5590   13.0890  -12.6540 N   0  0  0  0  0  0  0  0  0  0  0  0
    0.4560   13.8360  -12.6010 C   0  0  0  0  0  0  0  0  0  0  0  0
   -2.8070   19.5680  -10.5950 C   0  0  0  0  0  0  0  0  0  0  0  0
   -2.0720   19.8190   -9.6200 O   0  0  0  0  0  0  0  0  0  0  0  0
   -6.0520   20.4450  -11.7430 C   0  0  0  0  0  0  0  0  0  0  0  0
   -6.5140   21.2920  -10.7580 C   0  0  0  0  0  0  0  0  0  0  0  0
   -3.7830   21.1590   -8.8300 H   0  0  0  0  0  0  0  0  0  0  0  0
   -0.6790   17.9330  -10.4510 H   0  0  0  0  0  0  0  0  0  0  0  0
   -0.2940   18.8140  -12.0210 H   0  0  0  0  0  0  0  0  0  0  0  0
   -1.1800   16.1880  -14.2970 H   0  0  0  0  0  0  0  0  0  0  0  0
   -0.7350   17.8610  -13.9940 H   0  0  0  0  0  0  0  0  0  0  0  0
   -3.4970   16.7120  -13.8830 H   0  0  0  0  0  0  0  0  0  0  0  0
   -2.8550   18.1330  -14.7430 H   0  0  0  0  0  0  0  0  0  0  0  0
    3.2860   14.3300  -10.1560 H   0  0  0  0  0  0  0  0  0  0  0  0
    3.4870   12.5990  -11.8740 H   0  0  0  0  0  0  0  0  0  0  0  0
   -0.3360   13.6920  -13.2920 H   0  0  0  0  0  0  0  0  0  0  0  0
   -6.6870   20.2260  -12.5900 H   0  0  0  0  0  0  0  0  0  0  0  0
   -7.4960   21.7550  -10.7910 H   0  0  0  0  0  0  0  0  0  0  0  0
  2  3  1  0  0  0  0
  2  1  1  0  0  0  0
  3 25  1  0  0  0  0
  4 21  1  0  0  0  0
  4  3  1  0  0  0  0
  5  4  1  0  0  0  0
  6  7  2  0  0  0  0
  6  5  1  0  0  0  0
  8  7  1  1  0  0  0
  8  9  1  0  0  0  0
  8 21  1  0  0  0  0
  9 26  1  0  0  0  0
 10 13  1  0  0  0  0
 10  9  1  0  0  0  0
 11 10  1  0  0  0  0
 12 11  1  0  0  0  0
 12  7  1  0  0  0  0
 13 14  2  0  0  0  0
 15 13  1  0  0  0  0
 15 16  1  0  0  0  0
 17 16  2  0  0  0  0
 17 32  1  0  0  0  0
 18 17  1  0  0  0  0
 19 20  1  0  0  0  0
 19 18  2  0  0  0  0
 20 15  2  0  0  0  0
 21 22  2  0  0  0  0
 23  5  2  0  0  0  0
 23 24  1  0  0  0  0
 24  2  2  0  0  0  0
 27  9  1  0  0  0  0
 28 11  1  0  0  0  0
 29 11  1  0  0  0  0
 30 12  1  0  0  0  0
 31 12  1  0  0  0  0
 33 18  1  0  0  0  0
 34 20  1  0  0  0  0
 35 23  1  0  0  0  0
 36 24  1  0  0  0  0
M  END
>  <Pose>
1

>  <Score>
-6.07

$$$$
