
 OpenBabel03232203513D

 46 49  0  0  1  0  0  0  0  0999 V2000
    3.7910    9.6200  -14.7630 Cl  0  0  0  0  0  0  0  0  0  0  0  0
    2.9940   10.9650  -13.9600 C   0  0  0  0  0  0  0  0  0  0  0  0
    1.6360   11.1040  -14.1400 C   0  0  0  0  0  0  0  0  0  0  0  0
    1.0240   12.1430  -13.5180 N   0  0  0  0  0  0  0  0  0  0  0  0
    1.6990   13.0150  -12.7510 C   0  0  0  0  0  0  0  0  0  0  0  0
    1.0990   14.0480  -12.1310 N   0  0  0  0  0  0  0  0  0  0  0  0
   -0.2210   14.2860  -12.2310 C   0  0  0  0  0  0  0  0  0  0  0  0
   -0.9170   13.3880  -13.0220 C   0  0  0  0  0  0  0  0  0  0  0  0
   -0.3030   12.3320  -13.6560 C   0  0  0  0  0  0  0  0  0  0  0  0
   -0.9820   11.5320  -14.3720 O   0  0  0  0  0  0  0  0  0  0  0  0
   -0.9120   15.4030  -11.5720 C   0  0  0  0  0  0  0  0  0  0  0  0
   -0.8900   16.6350  -12.2410 N   0  0  0  0  0  0  0  0  0  0  0  0
   -1.4390   16.7100  -13.5300 C   0  0  0  0  0  0  0  0  0  0  0  0
   -2.8380   17.2250  -13.6140 C   0  0  0  0  0  0  0  0  0  0  0  0
   -3.1540   18.1350  -12.5230 N   0  0  0  0  0  0  0  0  0  0  0  0
   -4.2960   18.8020  -12.3610 N   0  0  0  0  0  0  0  0  0  0  0  0
   -4.2220   19.5380  -11.2480 C   0  0  0  0  0  0  0  0  0  0  0  0
   -2.9840   19.3150  -10.7010 C   0  0  0  0  0  0  0  0  0  0  0  0
   -2.3010   18.4140  -11.5240 C   0  0  0  0  0  0  0  0  0  0  0  0
   -0.9480   17.8100  -11.4470 C   0  0  0  0  0  0  0  0  0  0  0  0
   -5.2940   20.4310  -10.7090 C   0  0  1  0  0  0  0  0  0  0  0  0
   -6.2590   19.6170  -10.0930 O   0  0  0  0  0  0  0  0  0  0  0  0
   -4.7280   21.3140   -9.6000 C   0  0  0  0  0  0  0  0  0  0  0  0
   -5.8410   22.2200   -9.0950 C   0  0  0  0  0  0  0  0  0  0  0  0
    3.0780   12.8780  -12.5640 C   0  0  0  0  0  0  0  0  0  0  0  0
    3.7260   11.8360  -13.1810 C   0  0  0  0  0  0  0  0  0  0  0  0
    1.0820   10.4240  -14.7430 H   0  0  0  0  0  0  0  0  0  0  0  0
   -1.9970   13.5340  -13.1400 H   0  0  0  0  0  0  0  0  0  0  0  0
   -1.9790   15.1060  -11.4030 H   0  0  0  0  0  0  0  0  0  0  0  0
   -0.5030   15.5520  -10.5300 H   0  0  0  0  0  0  0  0  0  0  0  0
   -0.8020   17.4160  -14.1430 H   0  0  0  0  0  0  0  0  0  0  0  0
   -1.3190   15.7270  -14.0340 H   0  0  0  0  0  0  0  0  0  0  0  0
   -3.5370   16.3700  -13.6350 H   0  0  0  0  0  0  0  0  0  0  0  0
   -3.0230   17.7770  -14.5810 H   0  0  0  0  0  0  0  0  0  0  0  0
   -2.5740   19.7410   -9.8000 H   0  0  0  0  0  0  0  0  0  0  0  0
   -0.1810   18.5360  -11.8500 H   0  0  0  0  0  0  0  0  0  0  0  0
   -0.6680   17.5510  -10.4060 H   0  0  0  0  0  0  0  0  0  0  0  0
   -5.7580   21.0520  -11.4840 H   0  0  0  0  0  0  0  0  0  0  0  0
   -6.6330   20.0670   -9.2810 H   0  0  0  0  0  0  0  0  0  0  0  0
   -3.9600   21.9440  -10.0510 H   0  0  0  0  0  0  0  0  0  0  0  0
   -4.2970   20.7350   -8.7820 H   0  0  0  0  0  0  0  0  0  0  0  0
   -6.7990   21.9470   -9.5690 H   0  0  0  0  0  0  0  0  0  0  0  0
   -5.9110   22.2030   -7.9820 H   0  0  0  0  0  0  0  0  0  0  0  0
   -5.6400   23.2960   -9.3610 H   0  0  0  0  0  0  0  0  0  0  0  0
    3.5950   13.5980  -11.9390 H   0  0  0  0  0  0  0  0  0  0  0  0
    4.7930   11.7280  -13.0390 H   0  0  0  0  0  0  0  0  0  0  0  0
  1  2  1  0  0  0  0
  2 26  2  0  0  0  0
  3  2  1  0  0  0  0
  3  4  1  0  0  0  0
  4  5  1  0  0  0  0
  5 25  2  0  0  0  0
  5  6  1  0  0  0  0
  7  6  2  0  0  0  0
  7 11  1  0  0  0  0
  8  7  1  0  0  0  0
  9  4  1  0  0  0  0
  9  8  1  0  0  0  0
 10  9  2  0  0  0  0
 11 29  1  0  0  0  0
 11 30  1  0  0  0  0
 12 11  1  0  0  0  0
 12 20  1  0  0  0  0
 13 12  1  0  0  0  0
 14 13  1  0  0  0  0
 14 15  1  0  0  0  0
 15 16  1  0  0  0  0
 15 19  1  0  0  0  0
 16 17  2  0  0  0  0
 17 21  1  0  0  0  0
 17 18  1  0  0  0  0
 18 35  1  0  0  0  0
 19 20  1  0  0  0  0
 19 18  2  0  0  0  0
 20 37  1  0  0  0  0
 21 38  1  6  0  0  0
 21 22  1  0  0  0  0
 21 23  1  0  0  0  0
 22 39  1  0  0  0  0
 23 24  1  0  0  0  0
 23 41  1  0  0  0  0
 24 43  1  0  0  0  0
 25 45  1  0  0  0  0
 26 46  1  0  0  0  0
 26 25  1  0  0  0  0
 27  3  1  0  0  0  0
 28  8  1  0  0  0  0
 31 13  1  0  0  0  0
 32 13  1  0  0  0  0
 33 14  1  0  0  0  0
 34 14  1  0  0  0  0
 36 20  1  0  0  0  0
 40 23  1  0  0  0  0
 42 24  1  0  0  0  0
 44 24  1  0  0  0  0
M  END
>  <Pose>
1

>  <Score>
-6.23

$$$$
