
 OpenBabel03232203513D

 43 46  0  0  0  0  0  0  0  0999 V2000
    0.6360   17.8040  -10.4920 Cl  0  0  0  0  0  0  0  0  0  0  0  0
   -0.9240   17.9280  -11.2740 C   0  0  0  0  0  0  0  0  0  0  0  0
   -1.2210   17.1380  -12.3480 C   0  0  0  0  0  0  0  0  0  0  0  0
   -2.4890   17.3340  -12.9000 C   0  0  0  0  0  0  0  0  0  0  0  0
   -3.3310   18.2440  -12.3850 N   0  0  0  0  0  0  0  0  0  0  0  0
   -3.0650   19.0140  -11.3530 N   0  0  0  0  0  0  0  0  0  0  0  0
   -1.8590   18.8600  -10.7910 C   0  0  0  0  0  0  0  0  0  0  0  0
   -1.5120   19.5490   -9.7990 O   0  0  0  0  0  0  0  0  0  0  0  0
   -4.0170   19.9550  -10.8690 C   0  0  0  0  0  0  0  0  0  0  0  0
   -3.8520   20.6380   -9.6800 C   0  0  0  0  0  0  0  0  0  0  0  0
   -4.7800   21.5480   -9.2210 C   0  0  0  0  0  0  0  0  0  0  0  0
   -5.9250   21.8110   -9.9450 C   0  0  0  0  0  0  0  0  0  0  0  0
   -6.0950   21.1330  -11.1340 C   0  0  0  0  0  0  0  0  0  0  0  0
   -5.1630   20.2210  -11.5910 C   0  0  0  0  0  0  0  0  0  0  0  0
   -0.3360   16.1660  -12.8710 N   0  0  0  0  0  0  0  0  0  0  0  0
   -0.1340   15.9690  -14.2970 C   0  0  0  0  0  0  0  0  0  0  0  0
   -0.5740   14.5970  -14.7370 C   0  0  0  0  0  0  0  0  0  0  0  0
   -0.1490   13.6750  -13.7120 N   0  0  0  0  0  0  0  0  0  0  0  0
    0.9450   14.0680  -12.8620 C   0  0  0  0  0  0  0  0  0  0  0  0
    0.4310   15.2580  -12.0240 C   0  0  0  0  0  0  0  0  0  0  0  0
   -0.7830   12.4200  -13.5440 C   0  0  0  0  0  0  0  0  0  0  0  0
   -2.1130   12.1840  -13.3520 N   0  0  0  0  0  0  0  0  0  0  0  0
   -2.3120   10.8860  -13.2400 N   0  0  0  0  0  0  0  0  0  0  0  0
   -1.1360   10.2830  -13.3560 C   0  0  0  0  0  0  0  0  0  0  0  0
   -0.2400   11.2170  -13.5360 O   0  0  0  0  0  0  0  0  0  0  0  0
   -0.8190    8.8190  -13.3000 C   0  0  0  0  0  0  0  0  0  0  0  0
   -2.7690   16.7350  -13.7400 H   0  0  0  0  0  0  0  0  0  0  0  0
   -2.9500   20.4330   -9.1040 H   0  0  0  0  0  0  0  0  0  0  0  0
   -4.6190   22.0730   -8.2740 H   0  0  0  0  0  0  0  0  0  0  0  0
   -6.6490   22.5280   -9.5800 H   0  0  0  0  0  0  0  0  0  0  0  0
   -6.9790   21.3290  -11.7040 H   0  0  0  0  0  0  0  0  0  0  0  0
   -5.2960   19.6850  -12.5280 H   0  0  0  0  0  0  0  0  0  0  0  0
    0.9800   16.0020  -14.4710 H   0  0  0  0  0  0  0  0  0  0  0  0
   -0.5590   16.7110  -14.9490 H   0  0  0  0  0  0  0  0  0  0  0  0
   -1.6930   14.5220  -14.8130 H   0  0  0  0  0  0  0  0  0  0  0  0
   -0.1910   14.3330  -15.7370 H   0  0  0  0  0  0  0  0  0  0  0  0
    1.7860   14.4050  -13.4920 H   0  0  0  0  0  0  0  0  0  0  0  0
    1.2670   13.2500  -12.1960 H   0  0  0  0  0  0  0  0  0  0  0  0
    1.3430   15.7070  -11.6060 H   0  0  0  0  0  0  0  0  0  0  0  0
   -0.2280   14.7560  -11.2700 H   0  0  0  0  0  0  0  0  0  0  0  0
   -1.5750    8.2360  -13.8610 H   0  0  0  0  0  0  0  0  0  0  0  0
    0.1550    8.6110  -13.7880 H   0  0  0  0  0  0  0  0  0  0  0  0
   -0.7300    8.5440  -12.2450 H   0  0  0  0  0  0  0  0  0  0  0  0
  2  7  1  0  0  0  0
  2  1  1  0  0  0  0
  3  2  2  0  0  0  0
  4  5  2  0  0  0  0
  4  3  1  0  0  0  0
  5  6  1  0  0  0  0
  6  9  1  0  0  0  0
  6  7  1  0  0  0  0
  7  8  2  0  0  0  0
  9 10  1  0  0  0  0
 10 11  2  0  0  0  0
 10 28  1  0  0  0  0
 11 29  1  0  0  0  0
 12 30  1  0  0  0  0
 12 11  1  0  0  0  0
 13 12  2  0  0  0  0
 14 13  1  0  0  0  0
 14  9  2  0  0  0  0
 15  3  1  0  0  0  0
 15 20  1  0  0  0  0
 16 15  1  0  0  0  0
 17 16  1  0  0  0  0
 17 18  1  0  0  0  0
 18 21  1  0  0  0  0
 18 19  1  0  0  0  0
 19 38  1  0  0  0  0
 19 20  1  0  0  0  0
 20 39  1  0  0  0  0
 20 40  1  0  0  0  0
 21 25  1  0  0  0  0
 21 22  2  0  0  0  0
 22 23  1  0  0  0  0
 24 26  1  0  0  0  0
 24 23  2  0  0  0  0
 25 24  1  0  0  0  0
 26 43  1  0  0  0  0
 27  4  1  0  0  0  0
 31 13  1  0  0  0  0
 32 14  1  0  0  0  0
 33 16  1  0  0  0  0
 34 16  1  0  0  0  0
 35 17  1  0  0  0  0
 36 17  1  0  0  0  0
 37 19  1  0  0  0  0
 41 26  1  0  0  0  0
 42 26  1  0  0  0  0
M  END
>  <Pose>
1

>  <Score>
-4.92

$$$$
