
 OpenBabel03232203513D

 41 44  0  0  0  0  0  0  0  0999 V2000
    3.2170    9.7950  -14.6520 Cl  0  0  0  0  0  0  0  0  0  0  0  0
    2.6390   11.1910  -13.7620 C   0  0  0  0  0  0  0  0  0  0  0  0
    1.3340   11.6120  -13.8820 C   0  0  0  0  0  0  0  0  0  0  0  0
    0.9200   12.7000  -13.1750 N   0  0  0  0  0  0  0  0  0  0  0  0
    1.7850   13.3380  -12.3790 C   0  0  0  0  0  0  0  0  0  0  0  0
    1.1550   14.3680  -11.7930 N   0  0  0  0  0  0  0  0  0  0  0  0
   -0.1130   14.3990  -12.2050 C   0  0  0  0  0  0  0  0  0  0  0  0
   -0.2630   13.3240  -13.0950 C   0  0  0  0  0  0  0  0  0  0  0  0
   -1.1650   15.3310  -11.8390 C   0  0  0  0  0  0  0  0  0  0  0  0
   -2.0600   14.9060  -11.0180 O   0  0  0  0  0  0  0  0  0  0  0  0
   -1.3050   16.6310  -12.2850 N   0  0  0  0  0  0  0  0  0  0  0  0
   -1.8320   16.9860  -13.5800 C   0  0  0  0  0  0  0  0  0  0  0  0
   -3.1830   17.6570  -13.4500 C   0  0  0  0  0  0  0  0  0  0  0  0
   -3.1890   18.5320  -12.2290 C   0  0  0  0  0  0  0  0  0  0  0  0
   -2.1730   18.6050  -11.3160 C   0  0  0  0  0  0  0  0  0  0  0  0
   -2.5850   19.5050  -10.3860 N   0  0  0  0  0  0  0  0  0  0  0  0
   -3.7760   19.9730  -10.6830 N   0  0  0  0  0  0  0  0  0  0  0  0
   -4.2060   19.4070  -11.8180 C   0  0  0  0  0  0  0  0  0  0  0  0
   -5.3070   19.6000  -12.4280 O   0  0  0  0  0  0  0  0  0  0  0  0
   -4.5680   20.9600   -9.9350 C   0  0  0  0  0  0  0  0  0  0  0  0
   -5.7710   21.4000  -10.7360 C   0  0  0  0  0  0  0  0  0  0  0  0
   -6.9570   21.2670  -10.0230 O   0  0  0  0  0  0  0  0  0  0  0  0
   -0.9260   17.7970  -11.4500 C   0  0  0  0  0  0  0  0  0  0  0  0
    3.1230   12.9290  -12.2370 C   0  0  0  0  0  0  0  0  0  0  0  0
    3.5420   11.8430  -12.9410 C   0  0  0  0  0  0  0  0  0  0  0  0
    0.6290   11.1050  -14.5210 H   0  0  0  0  0  0  0  0  0  0  0  0
   -1.1840   13.0630  -13.6180 H   0  0  0  0  0  0  0  0  0  0  0  0
   -1.8710   16.2040  -14.3200 H   0  0  0  0  0  0  0  0  0  0  0  0
   -1.0860   17.7490  -13.9840 H   0  0  0  0  0  0  0  0  0  0  0  0
   -4.0120   16.9510  -13.4120 H   0  0  0  0  0  0  0  0  0  0  0  0
   -3.3180   18.2760  -14.3790 H   0  0  0  0  0  0  0  0  0  0  0  0
   -1.9920   19.7580   -9.5590 H   0  0  0  0  0  0  0  0  0  0  0  0
   -3.9170   21.8510   -9.8170 H   0  0  0  0  0  0  0  0  0  0  0  0
   -4.8490   20.6060   -8.9460 H   0  0  0  0  0  0  0  0  0  0  0  0
   -5.6380   22.4830  -10.9350 H   0  0  0  0  0  0  0  0  0  0  0  0
   -5.8570   20.8380  -11.6730 H   0  0  0  0  0  0  0  0  0  0  0  0
   -7.7420   21.1030  -10.6260 H   0  0  0  0  0  0  0  0  0  0  0  0
   -0.1160   18.3520  -11.9530 H   0  0  0  0  0  0  0  0  0  0  0  0
   -0.6330   17.3850  -10.4640 H   0  0  0  0  0  0  0  0  0  0  0  0
    3.7890   13.4840  -11.5740 H   0  0  0  0  0  0  0  0  0  0  0  0
    4.5790   11.5120  -12.8430 H   0  0  0  0  0  0  0  0  0  0  0  0
  1  2  1  0  0  0  0
  2 25  1  0  0  0  0
  3  2  2  0  0  0  0
  3  4  1  0  0  0  0
  4  8  1  0  0  0  0
  4  5  1  0  0  0  0
  5 24  1  0  0  0  0
  5  6  2  0  0  0  0
  7  9  1  0  0  0  0
  7  6  1  0  0  0  0
  8  7  2  0  0  0  0
  9 10  2  0  0  0  0
 11  9  1  0  0  0  0
 11 23  1  0  0  0  0
 12 13  1  0  0  0  0
 12 11  1  0  0  0  0
 13 30  1  0  0  0  0
 13 14  1  0  0  0  0
 14 18  1  0  0  0  0
 14 15  2  0  0  0  0
 15 16  1  0  0  0  0
 16 32  1  0  0  0  0
 17 16  1  0  0  0  0
 17 20  1  0  0  0  0
 18 17  1  0  0  0  0
 19 18  2  0  0  0  0
 20 33  1  0  0  0  0
 20 34  1  0  0  0  0
 21 22  1  0  0  0  0
 21 20  1  0  0  0  0
 23 15  1  0  0  0  0
 23 39  1  0  0  0  0
 24 40  1  0  0  0  0
 25 41  1  0  0  0  0
 25 24  2  0  0  0  0
 26  3  1  0  0  0  0
 27  8  1  0  0  0  0
 28 12  1  0  0  0  0
 29 12  1  0  0  0  0
 31 13  1  0  0  0  0
 35 21  1  0  0  0  0
 36 21  1  0  0  0  0
 37 22  1  0  0  0  0
 38 23  1  0  0  0  0
M  END
>  <Pose>
1

>  <Score>
-6.15

$$$$
