
 OpenBabel03232203513D

 53 56  0  0  1  0  0  0  0  0999 V2000
    5.2500   12.8350  -10.9230 Cl  0  0  0  0  0  0  0  0  0  0  0  0
    3.6750   13.0040  -11.6470 C   0  0  0  0  0  0  0  0  0  0  0  0
    3.1410   12.0240  -12.4310 C   0  0  0  0  0  0  0  0  0  0  0  0
    1.8830   12.2090  -12.9850 C   0  0  0  0  0  0  0  0  0  0  0  0
    1.1390   13.3290  -12.7890 C   0  0  0  0  0  0  0  0  0  0  0  0
    1.6890   14.3280  -11.9860 C   0  0  0  0  0  0  0  0  0  0  0  0
    2.9360   14.1680  -11.4260 C   0  0  0  0  0  0  0  0  0  0  0  0
   -0.1790   13.5220  -13.3800 C   0  0  1  0  0  0  0  0  0  0  0  0
   -1.0790   12.4340  -12.9540 N   0  0  0  0  0  0  0  0  0  0  0  0
   -1.6720   12.8070  -11.7170 C   0  0  0  0  0  0  0  0  0  0  0  0
   -2.1830   12.0630  -10.8780 O   0  0  0  0  0  0  0  0  0  0  0  0
   -1.5690   14.2760  -11.6080 C   0  0  0  0  0  0  0  0  0  0  0  0
   -1.9700   15.0200  -10.6560 O   0  0  0  0  0  0  0  0  0  0  0  0
   -0.9020   14.7120  -12.8240 C   0  0  0  0  0  0  0  0  0  0  0  0
   -0.9360   15.9390  -13.2820 C   0  0  0  0  0  0  0  0  0  0  0  0
   -0.2130   16.2250  -14.4360 O   0  0  0  0  0  0  0  0  0  0  0  0
   -1.6730   17.0530  -12.6940 C   0  0  0  0  0  0  0  0  0  0  0  0
   -2.7680   17.5130  -13.4160 C   0  0  0  0  0  0  0  0  0  0  0  0
   -3.5200   18.5370  -12.9130 C   0  0  0  0  0  0  0  0  0  0  0  0
   -3.2140   19.1240  -11.7010 C   0  0  0  0  0  0  0  0  0  0  0  0
   -2.1280   18.6630  -10.9880 C   0  0  0  0  0  0  0  0  0  0  0  0
   -1.3760   17.6280  -11.5060 C   0  0  0  0  0  0  0  0  0  0  0  0
   -4.1970   20.4200  -11.1040 Cl  0  0  0  0  0  0  0  0  0  0  0  0
   -1.2540   11.2480  -13.7520 C   0  0  0  0  0  0  0  0  0  0  0  0
   -1.2120    9.9620  -13.0180 C   0  0  0  0  0  0  0  0  0  0  0  0
   -0.4260    8.9040  -13.5350 N   0  0  0  0  0  4  0  0  0  0  0  0
   -0.6850    7.6200  -12.9180 C   0  0  0  0  0  0  0  0  0  0  0  0
    0.5460    6.9670  -12.3370 C   0  0  0  0  0  0  0  0  0  0  0  0
    1.6310    6.9340  -13.1740 O   0  0  0  0  0  0  0  0  0  0  0  0
    1.8890    8.1410  -13.7960 C   0  0  0  0  0  0  0  0  0  0  0  0
    0.9900    9.1960  -13.2240 C   0  0  0  0  0  0  0  0  0  0  0  0
    3.7190   11.1250  -12.5990 H   0  0  0  0  0  0  0  0  0  0  0  0
    1.5080   11.4090  -13.5890 H   0  0  0  0  0  0  0  0  0  0  0  0
    1.1090   15.2240  -11.8210 H   0  0  0  0  0  0  0  0  0  0  0  0
    3.3930   14.9150  -10.8020 H   0  0  0  0  0  0  0  0  0  0  0  0
   -0.1600   13.5600  -14.4920 H   0  0  0  0  0  0  0  0  0  0  0  0
   -3.0240   17.0550  -14.3850 H   0  0  0  0  0  0  0  0  0  0  0  0
   -4.3690   18.8670  -13.5130 H   0  0  0  0  0  0  0  0  0  0  0  0
   -1.9130   19.1410  -10.0420 H   0  0  0  0  0  0  0  0  0  0  0  0
   -0.5280   17.2640  -10.9160 H   0  0  0  0  0  0  0  0  0  0  0  0
   -0.3990   11.2270  -14.4970 H   0  0  0  0  0  0  0  0  0  0  0  0
   -2.1480   11.3360  -14.4200 H   0  0  0  0  0  0  0  0  0  0  0  0
   -0.9170   10.1450  -11.9360 H   0  0  0  0  0  0  0  0  0  0  0  0
   -2.2590    9.5300  -12.8840 H   0  0  0  0  0  0  0  0  0  0  0  0
   -0.4420    8.8410  -14.5660 H   0  0  0  0  0  0  0  0  0  0  0  0
   -1.1480    6.9600  -13.6760 H   0  0  0  0  0  0  0  0  0  0  0  0
   -1.4040    7.7000  -12.0760 H   0  0  0  0  0  0  0  0  0  0  0  0
    0.2410    5.9100  -12.1110 H   0  0  0  0  0  0  0  0  0  0  0  0
    0.7760    7.4110  -11.3420 H   0  0  0  0  0  0  0  0  0  0  0  0
    2.9290    8.4730  -13.6680 H   0  0  0  0  0  0  0  0  0  0  0  0
    1.6710    8.0680  -14.8830 H   0  0  0  0  0  0  0  0  0  0  0  0
    1.0660    9.2660  -12.1270 H   0  0  0  0  0  0  0  0  0  0  0  0
    1.2700   10.1950  -13.6340 H   0  0  0  0  0  0  0  0  0  0  0  0
  2  7  1  0  0  0  0
  2  1  1  0  0  0  0
  3  2  2  0  0  0  0
  4  5  2  0  0  0  0
  4  3  1  0  0  0  0
  5  6  1  0  0  0  0
  6 34  1  0  0  0  0
  6  7  2  0  0  0  0
  7 35  1  0  0  0  0
  8 36  1  6  0  0  0
  8  9  1  0  0  0  0
  8 14  1  0  0  0  0
  8  5  1  0  0  0  0
  9 10  1  0  0  0  0
 10 12  1  0  0  0  0
 10 11  2  0  0  0  0
 12 13  2  0  0  0  0
 14 12  1  0  0  0  0
 15 14  2  0  0  0  0
 15 17  1  0  0  0  0
 16 15  1  0  0  0  0
 17 22  1  0  0  0  0
 18 19  1  0  0  0  0
 18 17  2  0  0  0  0
 19 20  2  0  0  0  0
 20 23  1  0  0  0  0
 20 21  1  0  0  0  0
 21 39  1  0  0  0  0
 22 21  2  0  0  0  0
 22 40  1  0  0  0  0
 24 25  1  0  0  0  0
 24  9  1  0  0  0  0
 25 44  1  0  0  0  0
 25 43  1  0  0  0  0
 26 31  1  0  0  0  0
 26 25  1  0  0  0  0
 26 27  1  0  0  0  0
 27 28  1  0  0  0  0
 27 47  1  0  0  0  0
 28 48  1  0  0  0  0
 28 49  1  0  0  0  0
 29 28  1  0  0  0  0
 30 50  1  0  0  0  0
 30 31  1  0  0  0  0
 30 29  1  0  0  0  0
 31 52  1  0  0  0  0
 32  3  1  0  0  0  0
 33  4  1  0  0  0  0
 37 18  1  0  0  0  0
 38 19  1  0  0  0  0
 41 24  1  0  0  0  0
 42 24  1  0  0  0  0
 45 26  1  0  0  0  0
 46 27  1  0  0  0  0
 51 30  1  0  0  0  0
 53 31  1  0  0  0  0
M  END
>  <Pose>
1

>  <Score>
-4.94

$$$$
