
 OpenBabel03232203513D

 60 64  0  0  1  0  0  0  0  0999 V2000
    3.0680   14.1730  -11.0120 Cl  0  0  0  0  0  0  0  0  0  0  0  0
    2.7520   12.5960  -11.7510 C   0  0  0  0  0  0  0  0  0  0  0  0
    3.3610   12.2570  -12.9350 C   0  0  0  0  0  0  0  0  0  0  0  0
    3.1150   11.0200  -13.5170 C   0  0  0  0  0  0  0  0  0  0  0  0
    2.2790   10.0860  -12.9690 C   0  0  0  0  0  0  0  0  0  0  0  0
    1.6720   10.4580  -11.7590 C   0  0  0  0  0  0  0  0  0  0  0  0
    1.9090   11.6830  -11.1730 C   0  0  0  0  0  0  0  0  0  0  0  0
    2.2400    8.9090  -13.8220 C   0  0  1  0  0  0  0  0  0  0  0  0
    2.7730    7.7850  -13.0580 N   0  0  0  0  0  0  0  0  0  0  0  0
    1.5930    7.0460  -12.7010 C   0  0  1  0  0  0  0  0  0  0  0  0
    0.8120    7.0580  -13.9950 C   0  0  2  0  0  0  0  0  0  0  0  0
    0.9020    8.5260  -14.3520 C   0  0  1  0  0  0  0  0  0  0  0  0
   -0.2600    9.1260  -13.7270 C   0  0  0  0  0  0  0  0  0  0  0  0
   -0.4540   10.3440  -13.5200 O   0  0  0  0  0  0  0  0  0  0  0  0
   -1.1770    8.1010  -13.3720 N   0  0  0  0  0  0  0  0  0  0  0  0
   -0.6380    6.8370  -13.7610 C   0  0  0  0  0  0  0  0  0  0  0  0
   -1.2090    5.7290  -13.8970 O   0  0  0  0  0  0  0  0  0  0  0  0
   -2.4700    8.2230  -12.7240 C   0  0  0  0  0  0  0  0  0  0  0  0
   -3.5740    8.3130  -13.6970 C   0  0  0  0  0  0  0  0  0  0  0  0
   -4.5790    9.2230  -13.4480 C   0  0  0  0  0  0  0  0  0  0  0  0
   -5.6160    9.3030  -14.3670 C   0  0  0  0  0  0  0  0  0  0  0  0
   -5.6470    8.5130  -15.4810 C   0  0  0  0  0  0  0  0  0  0  0  0
   -4.6250    7.6180  -15.6940 C   0  0  0  0  0  0  0  0  0  0  0  0
   -3.5690    7.4910  -14.8200 C   0  0  0  0  0  0  0  0  0  0  0  0
   -4.5270   10.0100  -12.3170 O   0  0  0  0  0  0  0  0  0  0  0  0
   -5.6370   10.4660  -11.6090 C   0  0  0  0  0  0  0  0  0  0  0  0
    1.9330    5.6410  -12.2560 C   0  0  0  0  0  0  0  0  0  0  0  0
    3.3530    5.3710  -12.7080 C   0  0  0  0  0  0  0  0  0  0  0  0
    3.5810    3.9300  -12.9760 C   0  0  0  0  0  0  0  0  0  0  0  0
    3.1560    3.0710  -12.1520 O   0  0  0  0  0  0  0  0  0  0  0  0
    4.2770    3.5900  -14.1670 N   0  0  0  0  0  0  0  0  0  0  0  0
    3.1510    9.2210  -14.9490 C   0  0  0  0  0  0  0  0  0  0  0  0
    3.4400    8.4870  -15.9400 O   0  0  0  0  0  0  0  0  0  0  0  0
    3.6620   10.5170  -14.7300 N   0  0  0  0  0  0  0  0  0  0  0  0
    4.2790   13.2410  -13.5720 C   0  0  0  0  0  0  0  0  0  0  0  0
    1.0020    9.7710  -11.2700 H   0  0  0  0  0  0  0  0  0  0  0  0
    1.4220   11.9370  -10.2380 H   0  0  0  0  0  0  0  0  0  0  0  0
    3.3250    8.1400  -12.2490 H   0  0  0  0  0  0  0  0  0  0  0  0
    0.9720    7.4860  -11.9210 H   0  0  0  0  0  0  0  0  0  0  0  0
    1.2340    6.3970  -14.7590 H   0  0  0  0  0  0  0  0  0  0  0  0
    0.8110    8.6450  -15.4550 H   0  0  0  0  0  0  0  0  0  0  0  0
   -2.6520    7.3630  -12.0520 H   0  0  0  0  0  0  0  0  0  0  0  0
   -2.4090    9.1210  -12.0610 H   0  0  0  0  0  0  0  0  0  0  0  0
   -6.4060   10.0120  -14.1800 H   0  0  0  0  0  0  0  0  0  0  0  0
   -6.4870    8.6120  -16.1800 H   0  0  0  0  0  0  0  0  0  0  0  0
   -4.6410    6.9890  -16.5720 H   0  0  0  0  0  0  0  0  0  0  0  0
   -2.7550    6.7750  -14.9950 H   0  0  0  0  0  0  0  0  0  0  0  0
   -5.2690   11.1230  -10.7900 H   0  0  0  0  0  0  0  0  0  0  0  0
   -6.1100    9.5950  -11.1050 H   0  0  0  0  0  0  0  0  0  0  0  0
   -6.3230   11.0210  -12.2630 H   0  0  0  0  0  0  0  0  0  0  0  0
    1.2220    4.8920  -12.6400 H   0  0  0  0  0  0  0  0  0  0  0  0
    1.9640    5.6650  -11.1390 H   0  0  0  0  0  0  0  0  0  0  0  0
    3.6460    6.0010  -13.5850 H   0  0  0  0  0  0  0  0  0  0  0  0
    4.0200    5.6730  -11.8760 H   0  0  0  0  0  0  0  0  0  0  0  0
    5.2750    3.8510  -14.2420 H   0  0  0  0  0  0  0  0  0  0  0  0
    3.7310    3.0880  -14.9120 H   0  0  0  0  0  0  0  0  0  0  0  0
    4.3380   11.0140  -15.3700 H   0  0  0  0  0  0  0  0  0  0  0  0
    3.8010   13.7250  -14.4350 H   0  0  0  0  0  0  0  0  0  0  0  0
    4.5960   13.9990  -12.8560 H   0  0  0  0  0  0  0  0  0  0  0  0
    5.1990   12.7300  -13.9740 H   0  0  0  0  0  0  0  0  0  0  0  0
  2  7  1  0  0  0  0
  2  1  1  0  0  0  0
  3  2  2  0  0  0  0
  4  5  2  0  0  0  0
  4  3  1  0  0  0  0
  5  6  1  0  0  0  0
  6 36  1  0  0  0  0
  6  7  2  0  0  0  0
  7 37  1  0  0  0  0
  8 32  1  6  0  0  0
  8  9  1  0  0  0  0
  8  5  1  0  0  0  0
  9 10  1  0  0  0  0
  9 38  1  0  0  0  0
 10 27  1  0  0  0  0
 10 39  1  1  0  0  0
 11 40  1  6  0  0  0
 11 16  1  0  0  0  0
 11 10  1  0  0  0  0
 12 41  1  6  0  0  0
 12 11  1  0  0  0  0
 12  8  1  0  0  0  0
 12 13  1  0  0  0  0
 13 14  2  0  0  0  0
 13 15  1  0  0  0  0
 15 18  1  0  0  0  0
 16 15  1  0  0  0  0
 17 16  2  0  0  0  0
 18 43  1  0  0  0  0
 18 42  1  0  0  0  0
 19 20  1  0  0  0  0
 19 18  1  0  0  0  0
 20 25  1  0  0  0  0
 21 44  1  0  0  0  0
 21 20  2  0  0  0  0
 22 21  1  0  0  0  0
 23 22  2  0  0  0  0
 23 24  1  0  0  0  0
 24 19  2  0  0  0  0
 25 26  1  0  0  0  0
 26 49  1  0  0  0  0
 26 48  1  0  0  0  0
 27 52  1  0  0  0  0
 28 27  1  0  0  0  0
 28 54  1  0  0  0  0
 29 28  1  0  0  0  0
 29 30  2  0  0  0  0
 31 29  1  0  0  0  0
 32 34  1  0  0  0  0
 33 32  2  0  0  0  0
 34  4  1  0  0  0  0
 35  3  1  0  0  0  0
 35 59  1  0  0  0  0
 45 22  1  0  0  0  0
 46 23  1  0  0  0  0
 47 24  1  0  0  0  0
 50 26  1  0  0  0  0
 51 27  1  0  0  0  0
 53 28  1  0  0  0  0
 55 31  1  0  0  0  0
 56 31  1  0  0  0  0
 57 34  1  0  0  0  0
 58 35  1  0  0  0  0
 60 35  1  0  0  0  0
M  END
>  <Pose>
1

>  <Score>
-4.45

$$$$
