
 OpenBabel03232203513D

 42 45  0  0  1  0  0  0  0  0999 V2000
    3.4840   10.8590  -13.5360 Cl  0  0  0  0  0  0  0  0  0  0  0  0
    1.7350   10.8250  -13.4950 C   0  0  0  0  0  0  0  0  0  0  0  0
    1.0290    9.6730  -13.2390 C   0  0  0  0  0  0  0  0  0  0  0  0
   -0.3590    9.6150  -13.2030 C   0  0  0  0  0  0  0  0  0  0  0  0
   -1.0410   10.8040  -13.4420 C   0  0  0  0  0  0  0  0  0  0  0  0
   -0.3600   11.9710  -13.7010 C   0  0  0  0  0  0  0  0  0  0  0  0
    1.0190   11.9790  -13.7260 C   0  0  0  0  0  0  0  0  0  0  0  0
   -1.0790    8.3480  -12.9230 C   0  0  1  0  0  0  0  0  0  0  0  0
   -1.9820    7.9520  -13.9660 N   0  0  0  0  0  0  0  0  0  0  0  0
   -1.3630    7.0060  -14.8330 C   0  0  0  0  0  0  0  0  0  0  0  0
   -1.7450    6.6570  -15.9870 O   0  0  0  0  0  0  0  0  0  0  0  0
   -0.1650    6.4850  -14.1430 C   0  0  0  0  0  0  0  0  0  0  0  0
    0.6250    5.6350  -14.6130 O   0  0  0  0  0  0  0  0  0  0  0  0
   -0.1400    7.1740  -12.8590 C   0  0  0  0  0  0  0  0  0  0  0  0
    0.6230    6.8160  -11.8490 C   0  0  0  0  0  0  0  0  0  0  0  0
    0.5690    7.6180  -10.6900 O   0  0  0  0  0  0  0  0  0  0  0  0
    1.5030    5.6550  -11.8520 C   0  0  0  0  0  0  0  0  0  0  0  0
    1.1670    4.5310  -11.0840 C   0  0  0  0  0  0  0  0  0  0  0  0
    1.9660    3.4080  -11.0900 C   0  0  0  0  0  0  0  0  0  0  0  0
    3.1200    3.3290  -11.8410 C   0  0  0  0  0  0  0  0  0  0  0  0
    3.4670    4.4220  -12.6020 C   0  0  0  0  0  0  0  0  0  0  0  0
    2.6570    5.5590  -12.5940 C   0  0  0  0  0  0  0  0  0  0  0  0
   -3.3020    8.4250  -14.1290 C   0  0  1  0  0  0  0  0  0  0  0  0
   -4.0560    7.7780  -15.0560 N   0  0  0  0  0  0  0  0  0  0  0  0
   -5.3170    8.1290  -15.3030 C   0  0  0  0  0  0  0  0  0  0  0  0
   -5.8510    9.1760  -14.5870 C   0  0  0  0  0  0  0  0  0  0  0  0
   -5.0680    9.8160  -13.6500 C   0  0  0  0  0  0  0  0  0  0  0  0
   -3.7950    9.4570  -13.4090 N   0  0  0  0  0  0  0  0  0  0  0  0
    1.6130    8.7810  -13.0640 H   0  0  0  0  0  0  0  0  0  0  0  0
   -2.1270   10.7740  -13.4200 H   0  0  0  0  0  0  0  0  0  0  0  0
   -0.9030   12.9100  -13.8900 H   0  0  0  0  0  0  0  0  0  0  0  0
    1.5450   12.9010  -13.9290 H   0  0  0  0  0  0  0  0  0  0  0  0
   -1.6110    8.4880  -11.9580 H   0  0  0  0  0  0  0  0  0  0  0  0
    0.2560    4.5990  -10.4960 H   0  0  0  0  0  0  0  0  0  0  0  0
    1.6670    2.5650  -10.4820 H   0  0  0  0  0  0  0  0  0  0  0  0
    3.7600    2.4580  -11.8630 H   0  0  0  0  0  0  0  0  0  0  0  0
    4.3810    4.3840  -13.2060 H   0  0  0  0  0  0  0  0  0  0  0  0
    2.9570    6.3970  -13.2300 H   0  0  0  0  0  0  0  0  0  0  0  0
   -3.6550    6.9710  -15.6090 H   0  0  0  0  0  0  0  0  0  0  0  0
   -5.8830    7.5890  -16.0520 H   0  0  0  0  0  0  0  0  0  0  0  0
   -6.8750    9.4690  -14.7790 H   0  0  0  0  0  0  0  0  0  0  0  0
   -5.5340   10.6310  -13.1130 H   0  0  0  0  0  0  0  0  0  0  0  0
  1  2  1  0  0  0  0
  2  3  1  0  0  0  0
  3  4  2  0  0  0  0
  3 29  1  0  0  0  0
  4  8  1  0  0  0  0
  5 30  1  0  0  0  0
  5  4  1  0  0  0  0
  6  5  2  0  0  0  0
  7  6  1  0  0  0  0
  7  2  2  0  0  0  0
  8 14  1  0  0  0  0
  8 33  1  1  0  0  0
  9  8  1  0  0  0  0
 10 12  1  0  0  0  0
 10  9  1  0  0  0  0
 11 10  2  0  0  0  0
 12 14  1  0  0  0  0
 13 12  2  0  0  0  0
 14 15  2  0  0  0  0
 15 16  1  0  0  0  0
 17 15  1  0  0  0  0
 17 18  1  0  0  0  0
 18 34  1  0  0  0  0
 19 18  2  0  0  0  0
 19 35  1  0  0  0  0
 20 19  1  0  0  0  0
 21 22  1  0  0  0  0
 21 20  2  0  0  0  0
 22 17  2  0  0  0  0
 23  9  1  1  0  0  0
 23 28  1  0  0  0  0
 24 23  1  0  0  0  0
 25 24  1  0  0  0  0
 25 26  2  0  0  0  0
 26 27  1  0  0  0  0
 27 28  2  0  0  0  0
 27 42  1  0  0  0  0
 31  6  1  0  0  0  0
 32  7  1  0  0  0  0
 36 20  1  0  0  0  0
 37 21  1  0  0  0  0
 38 22  1  0  0  0  0
 39 24  1  0  0  0  0
 40 25  1  0  0  0  0
 41 26  1  0  0  0  0
M  END
>  <Pose>
1

>  <Score>
-3.38

$$$$
