
 OpenBabel03232203513D

 63 66  0  0  0  0  0  0  0  0999 V2000
    2.7630   12.6780  -12.0860 S   0  0  0  0  0  0  0  0  0  0  0  0
    4.0130   13.3530  -12.5480 O   0  0  0  0  0  0  0  0  0  0  0  0
    2.8340   12.2980  -10.6290 O   0  0  0  0  0  0  0  0  0  0  0  0
    1.3580   13.7040  -12.2920 C   0  0  0  0  0  0  0  0  0  0  0  0
    1.2860   14.9580  -11.7010 C   0  0  0  0  0  0  0  0  0  0  0  0
    0.1770   15.7260  -11.8820 N   0  0  0  0  0  0  0  0  0  0  0  0
   -0.8690   15.3250  -12.6170 C   0  0  0  0  0  0  0  0  0  0  0  0
   -0.8050   14.1120  -13.1930 N   0  0  0  0  0  0  0  0  0  0  0  0
    0.2680   13.3170  -13.0420 C   0  0  0  0  0  0  0  0  0  0  0  0
   -2.0320   16.1290  -12.8020 N   0  0  0  0  0  0  0  0  0  0  0  0
   -3.2200   15.9590  -12.0020 C   0  0  0  0  0  0  0  0  0  0  0  0
   -3.6930   17.2120  -11.3190 C   0  0  0  0  0  0  0  0  0  0  0  0
   -3.2330   18.4680  -12.0420 C   0  0  0  0  0  0  0  0  0  0  0  0
   -3.2370   18.0520  -13.5230 C   0  0  0  0  0  0  0  0  0  0  0  0
   -2.0740   17.1650  -13.8180 C   0  0  0  0  0  0  0  0  0  0  0  0
   -1.9680   18.9150  -11.7020 N   0  0  0  0  0  0  0  0  0  0  0  0
   -1.5980   19.1670  -10.3640 C   0  0  0  0  0  0  0  0  0  0  0  0
   -0.0990   18.8460  -10.2380 C   0  0  0  0  0  0  0  0  0  0  0  0
    0.5160   18.9630  -11.6070 C   0  0  0  0  0  0  0  0  0  0  0  0
   -0.0380   20.1250  -12.3920 C   0  0  0  0  0  0  0  0  0  0  0  0
   -1.5540   20.0560  -12.4720 C   0  0  0  0  0  0  0  0  0  0  0  0
   -4.3040   19.4830  -11.9090 C   0  0  0  0  0  0  0  0  0  0  0  0
   -5.4830   19.2460  -12.3380 O   0  0  0  0  0  0  0  0  0  0  0  0
   -4.1080   20.7370  -11.3210 N   0  0  0  0  0  0  0  0  0  0  0  0
    2.3870   15.3730  -10.9300 N   0  0  0  0  0  0  0  0  0  0  0  0
    2.4870   11.1960  -13.0130 C   0  0  0  0  0  0  0  0  0  0  0  0
    3.4350   10.7590  -13.9150 C   0  0  0  0  0  0  0  0  0  0  0  0
    3.1790    9.5990  -14.6150 C   0  0  0  0  0  0  0  0  0  0  0  0
    2.0030    8.8800  -14.4300 C   0  0  0  0  0  0  0  0  0  0  0  0
    1.0800    9.3480  -13.5190 C   0  0  0  0  0  0  0  0  0  0  0  0
    1.3080   10.5060  -12.8040 C   0  0  0  0  0  0  0  0  0  0  0  0
   -0.4210    8.4460  -13.2700 Cl  0  0  0  0  0  0  0  0  0  0  0  0
    4.5780   11.4930  -14.0720 O   0  0  0  0  0  0  0  0  0  0  0  0
    4.9470   12.1850  -15.2320 C   0  0  0  0  0  0  0  0  0  0  0  0
    0.3210   12.3240  -13.5130 H   0  0  0  0  0  0  0  0  0  0  0  0
   -4.0010   15.5620  -12.7190 H   0  0  0  0  0  0  0  0  0  0  0  0
   -3.1050   15.1280  -11.2630 H   0  0  0  0  0  0  0  0  0  0  0  0
   -4.8020   17.2050  -11.4020 H   0  0  0  0  0  0  0  0  0  0  0  0
   -3.4710   17.2440  -10.2400 H   0  0  0  0  0  0  0  0  0  0  0  0
   -3.4070   18.8820  -14.2060 H   0  0  0  0  0  0  0  0  0  0  0  0
   -4.1550   17.3910  -13.6530 H   0  0  0  0  0  0  0  0  0  0  0  0
   -1.0970   17.6600  -13.9000 H   0  0  0  0  0  0  0  0  0  0  0  0
   -2.2600   16.5950  -14.7830 H   0  0  0  0  0  0  0  0  0  0  0  0
   -1.6290   20.2770  -10.1380 H   0  0  0  0  0  0  0  0  0  0  0  0
   -2.0930   18.6070   -9.5850 H   0  0  0  0  0  0  0  0  0  0  0  0
    0.3940   19.5240   -9.5040 H   0  0  0  0  0  0  0  0  0  0  0  0
   -0.0090   17.7790   -9.8780 H   0  0  0  0  0  0  0  0  0  0  0  0
    0.2930   18.0300  -12.1930 H   0  0  0  0  0  0  0  0  0  0  0  0
    1.6200   19.1190  -11.5560 H   0  0  0  0  0  0  0  0  0  0  0  0
    0.4180   20.0720  -13.4140 H   0  0  0  0  0  0  0  0  0  0  0  0
    0.3340   21.0650  -11.9500 H   0  0  0  0  0  0  0  0  0  0  0  0
   -1.9310   20.1390  -13.4810 H   0  0  0  0  0  0  0  0  0  0  0  0
   -1.8960   20.9670  -11.8900 H   0  0  0  0  0  0  0  0  0  0  0  0
   -4.8320   21.4870  -11.4940 H   0  0  0  0  0  0  0  0  0  0  0  0
   -3.3150   21.0230  -10.7130 H   0  0  0  0  0  0  0  0  0  0  0  0
    2.7780   14.8220  -10.1390 H   0  0  0  0  0  0  0  0  0  0  0  0
    2.8460   16.2800  -11.1520 H   0  0  0  0  0  0  0  0  0  0  0  0
    3.8990    9.2200  -15.3360 H   0  0  0  0  0  0  0  0  0  0  0  0
    1.8470    7.9830  -14.9970 H   0  0  0  0  0  0  0  0  0  0  0  0
    0.5600   10.8650  -12.0800 H   0  0  0  0  0  0  0  0  0  0  0  0
    4.3700   13.1230  -15.2930 H   0  0  0  0  0  0  0  0  0  0  0  0
    6.0230   12.4880  -15.1290 H   0  0  0  0  0  0  0  0  0  0  0  0
    4.8900   11.5830  -16.1540 H   0  0  0  0  0  0  0  0  0  0  0  0
  1  3  2  0  0  0  0
  2  1  2  0  0  0  0
  4  1  1  0  0  0  0
  4  5  2  0  0  0  0
  5 25  1  0  0  0  0
  6  5  1  0  0  0  0
  7  6  2  0  0  0  0
  8  9  2  0  0  0  0
  8  7  1  0  0  0  0
  9  4  1  0  0  0  0
 10  7  1  0  0  0  0
 10 11  1  0  0  0  0
 11 12  1  0  0  0  0
 11 37  1  0  0  0  0
 12 39  1  0  0  0  0
 13 22  1  0  0  0  0
 13 16  1  0  0  0  0
 13 12  1  0  0  0  0
 14 13  1  0  0  0  0
 15 14  1  0  0  0  0
 15 10  1  0  0  0  0
 16 17  1  0  0  0  0
 17 18  1  0  0  0  0
 17 44  1  0  0  0  0
 17 45  1  0  0  0  0
 18 47  1  0  0  0  0
 18 46  1  0  0  0  0
 19 49  1  0  0  0  0
 19 18  1  0  0  0  0
 20 51  1  0  0  0  0
 20 19  1  0  0  0  0
 21 20  1  0  0  0  0
 21 53  1  0  0  0  0
 21 16  1  0  0  0  0
 22 24  1  0  0  0  0
 23 22  2  0  0  0  0
 24 55  1  0  0  0  0
 25 56  1  0  0  0  0
 26 31  1  0  0  0  0
 26  1  1  0  0  0  0
 27 26  2  0  0  0  0
 28 29  2  0  0  0  0
 28 27  1  0  0  0  0
 29 30  1  0  0  0  0
 30 32  1  0  0  0  0
 30 31  2  0  0  0  0
 31 60  1  0  0  0  0
 33 27  1  0  0  0  0
 34 62  1  0  0  0  0
 34 33  1  0  0  0  0
 35  9  1  0  0  0  0
 36 11  1  0  0  0  0
 38 12  1  0  0  0  0
 40 14  1  0  0  0  0
 41 14  1  0  0  0  0
 42 15  1  0  0  0  0
 43 15  1  0  0  0  0
 48 19  1  0  0  0  0
 50 20  1  0  0  0  0
 52 21  1  0  0  0  0
 54 24  1  0  0  0  0
 57 25  1  0  0  0  0
 58 28  1  0  0  0  0
 59 29  1  0  0  0  0
 61 34  1  0  0  0  0
 63 34  1  0  0  0  0
M  END
>  <Pose>
1

>  <Score>
-4.61

$$$$
