
 OpenBabel03232203513D

 32 35  0  0  1  0  0  0  0  0999 V2000
   -3.7590    6.7060  -15.9970 Cl  0  0  0  0  0  0  0  0  0  0  0  0
   -2.3270    6.7350  -14.9650 C   0  0  0  0  0  0  0  0  0  0  0  0
   -1.4000    7.7450  -15.0440 C   0  0  0  0  0  0  0  0  0  0  0  0
   -0.2700    7.7450  -14.2120 C   0  0  0  0  0  0  0  0  0  0  0  0
   -0.0540    6.7490  -13.3020 C   0  0  0  0  0  0  0  0  0  0  0  0
   -1.0000    5.7110  -13.2150 C   0  0  0  0  0  0  0  0  0  0  0  0
   -2.0940    5.7410  -14.0440 C   0  0  0  0  0  0  0  0  0  0  0  0
    1.1430    6.9440  -12.5670 N   0  0  0  0  0  0  0  0  0  0  0  0
    1.7180    8.1450  -13.0500 C   0  0  0  0  0  0  0  0  0  0  0  0
    2.8040    8.6300  -12.6160 O   0  0  0  0  0  0  0  0  0  0  0  0
    0.8540    8.7080  -14.1110 C   0  0  1  0  0  0  0  0  0  0  0  0
    1.6800    8.7330  -15.3790 C   0  0  0  0  0  0  0  0  0  0  0  0
    2.6930    9.8210  -15.1640 C   0  0  0  0  0  0  0  0  0  0  0  0
    3.9190    9.6460  -15.2900 O   0  0  0  0  0  0  0  0  0  0  0  0
    2.1730   11.1040  -14.7970 N   0  0  0  0  0  0  0  0  0  0  0  0
    0.9530   11.1830  -14.0720 C   0  0  0  0  0  0  0  0  0  0  0  0
    0.2220   12.2280  -13.5990 N   0  0  0  0  0  0  0  0  0  0  0  0
   -0.8400   11.7480  -12.9990 N   0  0  0  0  0  0  0  0  0  0  0  0
   -0.8550   10.4060  -13.0470 C   0  0  0  0  0  0  0  0  0  0  0  0
    0.3010   10.0230  -13.7390 C   0  0  0  0  0  0  0  0  0  0  0  0
    1.6640    6.0620  -11.5180 C   0  0  0  0  0  0  0  0  0  0  0  0
   -1.5270    8.5380  -15.7350 H   0  0  0  0  0  0  0  0  0  0  0  0
   -0.8260    4.9230  -12.4930 H   0  0  0  0  0  0  0  0  0  0  0  0
   -2.8210    4.9300  -13.9670 H   0  0  0  0  0  0  0  0  0  0  0  0
    1.0950    8.9060  -16.2840 H   0  0  0  0  0  0  0  0  0  0  0  0
    2.2550    7.7860  -15.4000 H   0  0  0  0  0  0  0  0  0  0  0  0
    2.6760   11.9820  -15.0520 H   0  0  0  0  0  0  0  0  0  0  0  0
    0.5090   13.2270  -13.7250 H   0  0  0  0  0  0  0  0  0  0  0  0
   -1.5720    9.7060  -12.6580 H   0  0  0  0  0  0  0  0  0  0  0  0
    2.6750    6.4350  -11.2570 H   0  0  0  0  0  0  0  0  0  0  0  0
    0.9910    5.9980  -10.6570 H   0  0  0  0  0  0  0  0  0  0  0  0
    1.7790    5.0120  -11.9080 H   0  0  0  0  0  0  0  0  0  0  0  0
  1  2  1  0  0  0  0
  2  7  1  0  0  0  0
  3  2  2  0  0  0  0
  3  4  1  0  0  0  0
  4  5  2  0  0  0  0
  5  6  1  0  0  0  0
  5  8  1  0  0  0  0
  6 23  1  0  0  0  0
  7 24  1  0  0  0  0
  7  6  2  0  0  0  0
  8 21  1  0  0  0  0
  9 10  2  0  0  0  0
  9  8  1  0  0  0  0
 11  4  1  6  0  0  0
 11 20  1  0  0  0  0
 11  9  1  0  0  0  0
 12 13  1  0  0  0  0
 12 11  1  0  0  0  0
 13 15  1  0  0  0  0
 14 13  2  0  0  0  0
 15 16  1  0  0  0  0
 16 20  2  0  0  0  0
 16 17  1  0  0  0  0
 17 18  1  0  0  0  0
 19 18  2  0  0  0  0
 19 29  1  0  0  0  0
 20 19  1  0  0  0  0
 21 30  1  0  0  0  0
 21 31  1  0  0  0  0
 22  3  1  0  0  0  0
 25 12  1  0  0  0  0
 26 12  1  0  0  0  0
 27 15  1  0  0  0  0
 28 17  1  0  0  0  0
 32 21  1  0  0  0  0
M  END
>  <Pose>
1

>  <Score>
-4.72

$$$$
