
 OpenBabel03232203513D

 54 58  0  0  1  0  0  0  0  0999 V2000
   -2.0550   17.8070  -12.6510 S   0  0  0  0  0  0  0  0  0  0  0  0
   -0.8410   18.5480  -13.1970 O   0  0  0  0  0  0  0  0  0  0  0  0
   -2.7640   17.2980  -13.9060 O   0  0  0  0  0  0  0  0  0  0  0  0
   -1.5040   16.4690  -11.8000 N   0  0  0  0  0  0  0  0  0  0  0  0
   -2.3260   15.2890  -11.8460 C   0  0  0  0  0  0  0  0  0  0  0  0
   -1.5070   14.0480  -12.1140 C   0  0  0  0  0  0  0  0  0  0  0  0
   -0.7040   14.2270  -13.3500 N   0  0  0  0  0  0  0  0  0  0  0  0
    0.2440   15.3040  -13.1020 C   0  0  0  0  0  0  0  0  0  0  0  0
   -0.1130   16.1460  -11.8900 C   0  0  0  0  0  0  0  0  0  0  0  0
    0.0100   12.9750  -13.4800 C   0  0  0  0  0  0  0  0  0  0  0  0
   -0.7300   11.8100  -13.9840 C   0  0  0  0  0  0  0  0  0  0  0  0
   -0.3260   10.4980  -13.6090 N   0  0  0  0  0  0  0  0  0  0  0  0
    0.9570    9.8820  -13.6190 C   0  0  0  0  0  0  0  0  0  0  0  0
    1.9020   10.2050  -14.3530 O   0  0  0  0  0  0  0  0  0  0  0  0
    0.9730    8.7940  -12.6120 C   0  0  1  0  0  0  0  0  0  0  0  0
   -0.5150    8.3760  -12.6300 C   0  0  2  0  0  0  0  0  0  0  0  0
   -0.5820    7.1810  -13.5050 C   0  0  1  0  0  0  0  0  0  0  0  0
    0.6680    7.3520  -14.3840 C   0  0  0  0  0  0  0  0  0  0  0  0
    1.6020    7.5730  -13.1810 C   0  0  2  0  0  0  0  0  0  0  0  0
    1.1600    6.4210  -12.3270 C   0  0  0  0  0  0  0  0  0  0  0  0
   -0.0620    6.0220  -12.6800 C   0  0  0  0  0  0  0  0  0  0  0  0
   -1.2670    9.5430  -13.0690 C   0  0  0  0  0  0  0  0  0  0  0  0
   -2.5140    9.6660  -12.9780 O   0  0  0  0  0  0  0  0  0  0  0  0
   -3.1420   18.8650  -11.8450 C   0  0  0  0  0  0  0  0  0  0  0  0
   -4.3620   19.1730  -12.3960 C   0  0  0  0  0  0  0  0  0  0  0  0
   -5.2160   20.0210  -11.7130 C   0  0  0  0  0  0  0  0  0  0  0  0
   -4.8890   20.5770  -10.4900 C   0  0  0  0  0  0  0  0  0  0  0  0
   -3.6630   20.2650   -9.9410 C   0  0  0  0  0  0  0  0  0  0  0  0
   -2.8060   19.4130  -10.6280 C   0  0  0  0  0  0  0  0  0  0  0  0
   -6.0640   21.7480   -9.5490 B   0  0  0  0  0  0  0  0  0  0  0  0
   -2.7670   15.1530  -10.8300 H   0  0  0  0  0  0  0  0  0  0  0  0
   -3.1460   15.4050  -12.5530 H   0  0  0  0  0  0  0  0  0  0  0  0
   -2.1950   13.2080  -12.3180 H   0  0  0  0  0  0  0  0  0  0  0  0
   -0.8430   13.7610  -11.2780 H   0  0  0  0  0  0  0  0  0  0  0  0
    0.2000   16.0060  -13.9520 H   0  0  0  0  0  0  0  0  0  0  0  0
    1.2460   14.8510  -13.0000 H   0  0  0  0  0  0  0  0  0  0  0  0
    0.4870   17.0530  -11.8270 H   0  0  0  0  0  0  0  0  0  0  0  0
    0.1320   15.5300  -10.9950 H   0  0  0  0  0  0  0  0  0  0  0  0
    0.4100   12.6780  -12.4570 H   0  0  0  0  0  0  0  0  0  0  0  0
    0.9750   13.1660  -14.0490 H   0  0  0  0  0  0  0  0  0  0  0  0
   -1.8040   11.9390  -13.6240 H   0  0  0  0  0  0  0  0  0  0  0  0
   -0.8130   11.9200  -15.1020 H   0  0  0  0  0  0  0  0  0  0  0  0
    1.3090    9.1040  -11.6270 H   0  0  0  0  0  0  0  0  0  0  0  0
   -0.8110    8.0470  -11.5930 H   0  0  0  0  0  0  0  0  0  0  0  0
   -1.4760    6.9890  -14.0490 H   0  0  0  0  0  0  0  0  0  0  0  0
    0.9290    6.4340  -14.9220 H   0  0  0  0  0  0  0  0  0  0  0  0
    0.6520    8.2560  -14.9860 H   0  0  0  0  0  0  0  0  0  0  0  0
    2.6380    7.5920  -13.4170 H   0  0  0  0  0  0  0  0  0  0  0  0
    1.7140    5.9440  -11.5250 H   0  0  0  0  0  0  0  0  0  0  0  0
   -0.5570    5.1000  -12.4390 H   0  0  0  0  0  0  0  0  0  0  0  0
   -4.6780   18.7600  -13.3670 H   0  0  0  0  0  0  0  0  0  0  0  0
   -6.1830   20.2640  -12.1520 H   0  0  0  0  0  0  0  0  0  0  0  0
   -3.4210   20.7060   -8.9870 H   0  0  0  0  0  0  0  0  0  0  0  0
   -1.8690   19.2200  -10.1250 H   0  0  0  0  0  0  0  0  0  0  0  0
  1 24  1  0  0  0  0
  1  4  1  0  0  0  0
  2  1  2  0  0  0  0
  3  1  2  0  0  0  0
  5  4  1  0  0  0  0
  5 31  1  0  0  0  0
  6  5  1  0  0  0  0
  6 34  1  0  0  0  0
  7  8  1  0  0  0  0
  7  6  1  0  0  0  0
  8 36  1  0  0  0  0
  8  9  1  0  0  0  0
  9 37  1  0  0  0  0
  9  4  1  0  0  0  0
  9 38  1  0  0  0  0
 10  7  1  0  0  0  0
 10 39  1  0  0  0  0
 11 41  1  0  0  0  0
 11 12  1  0  0  0  0
 11 10  1  0  0  0  0
 12 22  1  0  0  0  0
 13 12  1  0  0  0  0
 13 15  1  0  0  0  0
 14 13  2  0  0  0  0
 15 43  1  1  0  0  0
 16 15  1  0  0  0  0
 16 44  1  1  0  0  0
 17 45  1  6  0  0  0
 17 21  1  0  0  0  0
 17 16  1  0  0  0  0
 18 17  1  0  0  0  0
 18 19  1  0  0  0  0
 19 48  1  6  0  0  0
 19 15  1  0  0  0  0
 19 20  1  0  0  0  0
 20 49  1  0  0  0  0
 21 50  1  0  0  0  0
 21 20  1  0  0  0  0
 22 23  2  0  0  0  0
 22 16  1  0  0  0  0
 24 29  1  0  0  0  0
 25 24  2  0  0  0  0
 25 26  1  0  0  0  0
 26 27  2  0  0  0  0
 27 28  1  0  0  0  0
 27 30  1  0  0  0  0
 28 53  1  0  0  0  0
 29 54  1  0  0  0  0
 29 28  2  0  0  0  0
 32  5  1  0  0  0  0
 33  6  1  0  0  0  0
 35  8  1  0  0  0  0
 40 10  1  0  0  0  0
 42 11  1  0  0  0  0
 46 18  1  0  0  0  0
 47 18  1  0  0  0  0
 51 25  1  0  0  0  0
 52 26  1  0  0  0  0
M  END
>  <Pose>
1

>  <Score>
-6.39

$$$$
