
 OpenBabel03232203513D

 61 64  0  0  1  0  0  0  0  0999 V2000
    4.6640    2.8070  -12.9060 B   0  0  0  0  0  0  0  0  0  0  0  0
    3.7620    4.5100  -12.8400 C   0  0  0  0  0  0  0  0  0  0  0  0
    2.4920    4.6240  -12.3380 C   0  0  0  0  0  0  0  0  0  0  0  0
    1.7970    5.8270  -12.2680 C   0  0  0  0  0  0  0  0  0  0  0  0
    2.4170    6.9670  -12.7270 C   0  0  0  0  0  0  0  0  0  0  0  0
    3.7010    6.8390  -13.2330 C   0  0  0  0  0  0  0  0  0  0  0  0
    4.3870    5.6490  -13.3020 C   0  0  0  0  0  0  0  0  0  0  0  0
    1.7760    8.2730  -12.6630 C   0  0  0  0  0  0  0  0  0  0  0  0
    1.6500    8.7470  -11.4810 O   0  0  0  0  0  0  0  0  0  0  0  0
    1.2850    9.0450  -13.8050 C   0  0  2  0  0  0  0  0  0  0  0  0
    2.0350   10.3210  -14.0760 C   0  0  1  0  0  0  0  0  0  0  0  0
    1.4220   11.3240  -13.3240 N   0  0  0  0  0  0  0  0  0  0  0  0
   -0.0130   10.9820  -13.4770 C   0  0  0  0  0  0  0  0  0  0  0  0
   -0.9850   11.7850  -13.5170 O   0  0  0  0  0  0  0  0  0  0  0  0
   -0.0920    9.5340  -13.5690 C   0  0  0  0  0  0  0  0  0  0  0  0
   -1.1470    8.8460  -13.4670 O   0  0  0  0  0  0  0  0  0  0  0  0
    1.7060   12.5380  -12.6260 C   0  0  0  0  0  0  0  0  0  0  0  0
    2.8090   12.5120  -11.6370 C   0  0  0  0  0  0  0  0  0  0  0  0
    3.0620   13.5780  -10.7650 N   0  0  0  0  0  4  0  0  0  0  0  0
    4.3430   14.2450  -11.0330 C   0  0  0  0  0  0  0  0  0  0  0  0
    4.3890   14.8890  -12.3780 C   0  0  0  0  0  0  0  0  0  0  0  0
    3.1390   14.8520  -12.9540 O   0  0  0  0  0  0  0  0  0  0  0  0
    2.2390   15.4600  -12.0630 C   0  0  0  0  0  0  0  0  0  0  0  0
    1.9780   14.5720  -10.8650 C   0  0  0  0  0  0  0  0  0  0  0  0
    3.4450   10.1810  -14.3360 C   0  0  0  0  0  0  0  0  0  0  0  0
    4.1430    9.0150  -14.3160 C   0  0  0  0  0  0  0  0  0  0  0  0
    5.4990    8.9830  -14.6010 C   0  0  0  0  0  0  0  0  0  0  0  0
    6.1600   10.1810  -14.9120 C   0  0  0  0  0  0  0  0  0  0  0  0
    5.4580   11.3520  -14.9320 C   0  0  0  0  0  0  0  0  0  0  0  0
    4.1270   11.3810  -14.6540 C   0  0  0  0  0  0  0  0  0  0  0  0
    7.5100   10.2060  -15.2020 O   0  0  0  0  0  0  0  0  0  0  0  0
    6.2230    7.8340  -14.5920 O   0  0  0  0  0  0  0  0  0  0  0  0
    6.8720    7.3260  -13.4720 C   0  0  0  0  0  0  0  0  0  0  0  0
    8.2140    6.6870  -13.7810 C   0  0  0  0  0  0  0  0  0  0  0  0
    1.9830    3.7310  -11.9670 H   0  0  0  0  0  0  0  0  0  0  0  0
    0.7890    5.8180  -11.8740 H   0  0  0  0  0  0  0  0  0  0  0  0
    4.2440    7.7180  -13.6150 H   0  0  0  0  0  0  0  0  0  0  0  0
    5.3920    5.5690  -13.7030 H   0  0  0  0  0  0  0  0  0  0  0  0
    1.2820    8.3990  -14.7420 H   0  0  0  0  0  0  0  0  0  0  0  0
    1.5720   10.5820  -15.1810 H   0  0  0  0  0  0  0  0  0  0  0  0
    1.9450   13.3780  -13.3430 H   0  0  0  0  0  0  0  0  0  0  0  0
    0.7700   12.8210  -12.0560 H   0  0  0  0  0  0  0  0  0  0  0  0
    3.8070   12.2760  -12.1600 H   0  0  0  0  0  0  0  0  0  0  0  0
    2.7230   11.5630  -10.9870 H   0  0  0  0  0  0  0  0  0  0  0  0
    3.0860   13.2930   -9.7890 H   0  0  0  0  0  0  0  0  0  0  0  0
    5.1450   13.5270  -10.8310 H   0  0  0  0  0  0  0  0  0  0  0  0
    4.4140   15.0480  -10.2600 H   0  0  0  0  0  0  0  0  0  0  0  0
    4.7040   15.9530  -12.3040 H   0  0  0  0  0  0  0  0  0  0  0  0
    5.0950   14.2970  -13.0080 H   0  0  0  0  0  0  0  0  0  0  0  0
    2.5860   16.4310  -11.7070 H   0  0  0  0  0  0  0  0  0  0  0  0
    1.2770   15.5470  -12.6170 H   0  0  0  0  0  0  0  0  0  0  0  0
    1.9050   15.1340   -9.9170 H   0  0  0  0  0  0  0  0  0  0  0  0
    1.0460   13.9780  -10.9650 H   0  0  0  0  0  0  0  0  0  0  0  0
    3.6860    8.0540  -14.0550 H   0  0  0  0  0  0  0  0  0  0  0  0
    5.9790   12.2910  -15.1770 H   0  0  0  0  0  0  0  0  0  0  0  0
    3.5990   12.3290  -14.6780 H   0  0  0  0  0  0  0  0  0  0  0  0
    7.0390    8.1120  -12.6980 H   0  0  0  0  0  0  0  0  0  0  0  0
    6.2580    6.5430  -12.9590 H   0  0  0  0  0  0  0  0  0  0  0  0
    9.0220    7.3830  -13.4320 H   0  0  0  0  0  0  0  0  0  0  0  0
    8.3190    5.7490  -13.2170 H   0  0  0  0  0  0  0  0  0  0  0  0
    8.3610    6.5280  -14.8490 H   0  0  0  0  0  0  0  0  0  0  0  0
  1  2  1  0  0  0  0
  2  3  1  0  0  0  0
  3  4  2  0  0  0  0
  3 35  1  0  0  0  0
  4 36  1  0  0  0  0
  5  8  1  0  0  0  0
  5  4  1  0  0  0  0
  6  5  2  0  0  0  0
  7  6  1  0  0  0  0
  7  2  2  0  0  0  0
  8  9  2  0  0  0  0
 10 39  1  6  0  0  0
 10 15  1  0  0  0  0
 10  8  1  0  0  0  0
 11 40  1  6  0  0  0
 11 10  1  0  0  0  0
 11 12  1  0  0  0  0
 12 17  1  0  0  0  0
 13 12  1  0  0  0  0
 14 13  2  0  0  0  0
 15 13  1  0  0  0  0
 15 16  2  0  0  0  0
 17 42  1  0  0  0  0
 17 18  1  0  0  0  0
 18 44  1  0  0  0  0
 18 19  1  0  0  0  0
 19 45  1  0  0  0  0
 20 46  1  0  0  0  0
 20 19  1  0  0  0  0
 20 47  1  0  0  0  0
 21 48  1  0  0  0  0
 21 20  1  0  0  0  0
 22 21  1  0  0  0  0
 22 23  1  0  0  0  0
 23 50  1  0  0  0  0
 23 24  1  0  0  0  0
 24 19  1  0  0  0  0
 24 52  1  0  0  0  0
 25 26  1  0  0  0  0
 25 11  1  0  0  0  0
 26 54  1  0  0  0  0
 27 32  1  0  0  0  0
 27 26  2  0  0  0  0
 28 27  1  0  0  0  0
 29 28  2  0  0  0  0
 29 30  1  0  0  0  0
 30 25  2  0  0  0  0
 31 28  1  0  0  0  0
 32 33  1  0  0  0  0
 33 58  1  0  0  0  0
 33 57  1  0  0  0  0
 34 33  1  0  0  0  0
 34 59  1  0  0  0  0
 34 60  1  0  0  0  0
 37  6  1  0  0  0  0
 38  7  1  0  0  0  0
 41 17  1  0  0  0  0
 43 18  1  0  0  0  0
 49 21  1  0  0  0  0
 51 23  1  0  0  0  0
 53 24  1  0  0  0  0
 55 29  1  0  0  0  0
 56 30  1  0  0  0  0
 61 34  1  0  0  0  0
M  END
>  <Pose>
1

>  <Score>
-2.49

$$$$
