
 OpenBabel03232203513D

 40 43  0  0  0  0  0  0  0  0999 V2000
   -5.5460   21.8190   -9.4130 Cl  0  0  0  0  0  0  0  0  0  0  0  0
   -4.6170   20.6100  -10.2990 C   0  0  0  0  0  0  0  0  0  0  0  0
   -5.0600   20.0730  -11.4890 C   0  0  0  0  0  0  0  0  0  0  0  0
   -4.2900   19.1300  -12.1400 C   0  0  0  0  0  0  0  0  0  0  0  0
   -4.4510   18.4340  -13.2980 N   0  0  0  0  0  0  0  0  0  0  0  0
   -3.3890   17.6290  -13.4750 C   0  0  0  0  0  0  0  0  0  0  0  0
   -2.5200   17.7760  -12.4530 N   0  0  0  0  0  0  0  0  0  0  0  0
   -3.0780   18.6930  -11.6430 C   0  0  0  0  0  0  0  0  0  0  0  0
   -2.6270   19.2230  -10.4570 C   0  0  0  0  0  0  0  0  0  0  0  0
   -3.4020   20.1660   -9.8120 C   0  0  0  0  0  0  0  0  0  0  0  0
   -1.2640   17.0720  -12.3030 C   0  0  0  0  0  0  0  0  0  0  0  0
   -0.8290   16.4190  -13.5970 C   0  0  0  0  0  0  0  0  0  0  0  0
   -0.0120   15.2570  -13.2600 N   0  0  0  0  0  0  0  0  0  0  0  0
    1.2090   15.4110  -12.7000 C   0  0  0  0  0  0  0  0  0  0  0  0
    2.0040   14.3360  -12.3710 C   0  0  0  0  0  0  0  0  0  0  0  0
    1.5270   12.9830  -12.6290 C   0  0  0  0  0  0  0  0  0  0  0  0
    2.4980   12.1560  -12.2130 N   0  0  0  0  0  0  0  0  0  0  0  0
    3.5300   12.8600  -11.7220 N   0  0  0  0  0  0  0  0  0  0  0  0
    3.2520   14.1700  -11.8090 C   0  0  0  0  0  0  0  0  0  0  0  0
    4.0250   15.0780  -11.4290 O   0  0  0  0  0  0  0  0  0  0  0  0
    0.2730   12.8630  -13.2030 C   0  0  0  0  0  0  0  0  0  0  0  0
   -0.4270   14.0030  -13.4870 C   0  0  0  0  0  0  0  0  0  0  0  0
   -0.2390   11.5240  -13.4760 C   0  0  0  0  0  0  0  0  0  0  0  0
   -1.3880   11.2150  -13.0720 O   0  0  0  0  0  0  0  0  0  0  0  0
    0.5010   10.5960  -14.1600 O   0  0  0  0  0  0  0  0  0  0  0  0
    1.2820    9.6230  -13.4840 C   0  0  0  0  0  0  0  0  0  0  0  0
   -6.0080   20.4090  -11.8850 H   0  0  0  0  0  0  0  0  0  0  0  0
   -3.2840   16.9790  -14.3180 H   0  0  0  0  0  0  0  0  0  0  0  0
   -1.6690   18.8750  -10.0680 H   0  0  0  0  0  0  0  0  0  0  0  0
   -3.0570   20.5880   -8.8790 H   0  0  0  0  0  0  0  0  0  0  0  0
   -0.4470   17.7420  -11.9630 H   0  0  0  0  0  0  0  0  0  0  0  0
   -1.3790   16.2840  -11.5370 H   0  0  0  0  0  0  0  0  0  0  0  0
   -0.2160   17.0790  -14.2180 H   0  0  0  0  0  0  0  0  0  0  0  0
   -1.7250   16.1220  -14.1640 H   0  0  0  0  0  0  0  0  0  0  0  0
    1.5770   16.4050  -12.5030 H   0  0  0  0  0  0  0  0  0  0  0  0
    4.3950   12.3990  -11.3430 H   0  0  0  0  0  0  0  0  0  0  0  0
   -1.4220   13.9020  -13.9420 H   0  0  0  0  0  0  0  0  0  0  0  0
    1.0900    9.7240  -12.3900 H   0  0  0  0  0  0  0  0  0  0  0  0
    2.3690    9.7820  -13.6940 H   0  0  0  0  0  0  0  0  0  0  0  0
    0.9580    8.5950  -13.7630 H   0  0  0  0  0  0  0  0  0  0  0  0
  2 10  1  0  0  0  0
  2  1  1  0  0  0  0
  3  2  2  0  0  0  0
  4  8  2  0  0  0  0
  4  3  1  0  0  0  0
  5  4  1  0  0  0  0
  6  5  2  0  0  0  0
  6  7  1  0  0  0  0
  7 11  1  0  0  0  0
  7  8  1  0  0  0  0
  8  9  1  0  0  0  0
  9 29  1  0  0  0  0
  9 10  2  0  0  0  0
 10 30  1  0  0  0  0
 11 31  1  0  0  0  0
 11 32  1  0  0  0  0
 12 13  1  0  0  0  0
 12 11  1  0  0  0  0
 13 14  1  0  0  0  0
 14 35  1  0  0  0  0
 14 15  1  0  0  0  0
 15 19  1  0  0  0  0
 16 15  2  0  0  0  0
 16 17  1  0  0  0  0
 17 18  1  0  0  0  0
 18 36  1  0  0  0  0
 19 18  1  0  0  0  0
 19 20  2  0  0  0  0
 21 16  1  0  0  0  0
 22 13  1  0  0  0  0
 22 21  2  0  0  0  0
 23 21  1  0  0  0  0
 23 24  2  0  0  0  0
 25 26  1  0  0  0  0
 25 23  1  0  0  0  0
 26 38  1  0  0  0  0
 27  3  1  0  0  0  0
 28  6  1  0  0  0  0
 33 12  1  0  0  0  0
 34 12  1  0  0  0  0
 37 22  1  0  0  0  0
 39 26  1  0  0  0  0
 40 26  1  0  0  0  0
M  END
>  <Pose>
1

>  <Score>
-6.50

$$$$
