
 OpenBabel03232203513D

 50 53  0  0  1  0  0  0  0  0999 V2000
    3.7690    9.1160  -14.2550 Cl  0  0  0  0  0  0  0  0  0  0  0  0
    2.4460    8.1100  -13.7610 C   0  0  0  0  0  0  0  0  0  0  0  0
    1.2890    8.0310  -14.5220 C   0  0  0  0  0  0  0  0  0  0  0  0
    0.2270    7.2350  -14.1420 C   0  0  0  0  0  0  0  0  0  0  0  0
    0.3450    6.5190  -12.9830 C   0  0  0  0  0  0  0  0  0  0  0  0
    1.4950    6.5710  -12.1890 C   0  0  0  0  0  0  0  0  0  0  0  0
    2.5350    7.3750  -12.5990 C   0  0  0  0  0  0  0  0  0  0  0  0
   -0.8480    5.7820  -12.7510 N   0  0  0  0  0  0  0  0  0  0  0  0
   -1.7490    6.0560  -13.8120 C   0  0  0  0  0  0  0  0  0  0  0  0
   -2.9170    5.5490  -13.8360 O   0  0  0  0  0  0  0  0  0  0  0  0
   -1.0740    6.9510  -14.7430 C   0  0  2  0  0  0  0  0  0  0  0  0
   -0.9410    6.3600  -16.0770 N   0  0  0  0  0  0  0  0  0  0  0  0
   -2.2880    6.5040  -16.5810 C   0  0  1  0  0  0  0  0  0  0  0  0
   -2.7700    7.8400  -16.1180 C   0  0  2  0  0  0  0  0  0  0  0  0
   -1.7790    8.2230  -15.0600 C   0  0  1  0  0  0  0  0  0  0  0  0
   -2.5320    8.8140  -13.9270 C   0  0  0  0  0  0  0  0  0  0  0  0
   -1.9370    9.3390  -12.9490 O   0  0  0  0  0  0  0  0  0  0  0  0
   -3.9150    8.6550  -14.1980 N   0  0  0  0  0  0  0  0  0  0  0  0
   -4.0300    7.7600  -15.3110 C   0  0  0  0  0  0  0  0  0  0  0  0
   -4.9810    7.0290  -15.6020 O   0  0  0  0  0  0  0  0  0  0  0  0
   -4.9880    9.2650  -13.5090 C   0  0  0  0  0  0  0  0  0  0  0  0
   -6.1940    9.6680  -14.2620 C   0  0  0  0  0  0  0  0  0  0  0  0
   -6.7670   11.0050  -13.9900 C   0  0  0  0  0  0  0  0  0  0  0  0
   -8.1180   11.0390  -13.6790 O   0  0  0  0  0  0  0  0  0  0  0  0
   -8.5730   12.3580  -13.9190 C   0  0  0  0  0  0  0  0  0  0  0  0
   -2.3650    6.3330  -18.0770 C   0  0  1  0  0  0  0  0  0  0  0  0
   -1.3540    7.0980  -18.6430 O   0  0  0  0  0  0  0  0  0  0  0  0
   -2.2280    4.8940  -18.5030 C   0  0  0  0  0  0  0  0  0  0  0  0
    1.2020    8.6100  -15.4510 H   0  0  0  0  0  0  0  0  0  0  0  0
    1.5800    5.9970  -11.2690 H   0  0  0  0  0  0  0  0  0  0  0  0
    3.4190    7.3960  -11.9600 H   0  0  0  0  0  0  0  0  0  0  0  0
   -1.0380    5.1350  -11.9290 H   0  0  0  0  0  0  0  0  0  0  0  0
   -0.3310    7.0200  -16.6110 H   0  0  0  0  0  0  0  0  0  0  0  0
   -2.9370    5.7160  -16.1520 H   0  0  0  0  0  0  0  0  0  0  0  0
   -2.9000    8.5800  -16.9100 H   0  0  0  0  0  0  0  0  0  0  0  0
   -1.0200    8.9470  -15.4490 H   0  0  0  0  0  0  0  0  0  0  0  0
   -4.6450   10.1240  -12.8500 H   0  0  0  0  0  0  0  0  0  0  0  0
   -5.3450    8.5170  -12.7280 H   0  0  0  0  0  0  0  0  0  0  0  0
   -7.0020    8.8890  -14.2580 H   0  0  0  0  0  0  0  0  0  0  0  0
   -5.8870    9.6790  -15.3570 H   0  0  0  0  0  0  0  0  0  0  0  0
   -6.2520   11.5320  -13.1300 H   0  0  0  0  0  0  0  0  0  0  0  0
   -6.5700   11.6850  -14.8560 H   0  0  0  0  0  0  0  0  0  0  0  0
   -7.9600   12.9930  -13.2440 H   0  0  0  0  0  0  0  0  0  0  0  0
   -9.6200   12.4950  -13.5950 H   0  0  0  0  0  0  0  0  0  0  0  0
   -8.4090   12.6610  -14.9560 H   0  0  0  0  0  0  0  0  0  0  0  0
   -3.3260    6.7140  -18.4210 H   0  0  0  0  0  0  0  0  0  0  0  0
   -1.5000    7.2720  -19.6080 H   0  0  0  0  0  0  0  0  0  0  0  0
   -3.1100    4.3060  -18.2060 H   0  0  0  0  0  0  0  0  0  0  0  0
   -1.2720    4.4410  -18.1730 H   0  0  0  0  0  0  0  0  0  0  0  0
   -2.2030    4.8870  -19.6150 H   0  0  0  0  0  0  0  0  0  0  0  0
  1  2  1  0  0  0  0
  2  7  1  0  0  0  0
  3  4  1  0  0  0  0
  3  2  2  0  0  0  0
  4  5  2  0  0  0  0
  5  8  1  0  0  0  0
  5  6  1  0  0  0  0
  6 30  1  0  0  0  0
  7  6  2  0  0  0  0
  7 31  1  0  0  0  0
  8 32  1  0  0  0  0
  9  8  1  0  0  0  0
 10  9  2  0  0  0  0
 11  4  1  1  0  0  0
 11  9  1  0  0  0  0
 12 11  1  0  0  0  0
 13 34  1  1  0  0  0
 13 14  1  0  0  0  0
 13 12  1  0  0  0  0
 14 35  1  6  0  0  0
 14 19  1  0  0  0  0
 14 15  1  0  0  0  0
 15 36  1  6  0  0  0
 15 11  1  0  0  0  0
 15 16  1  0  0  0  0
 16 17  2  0  0  0  0
 18 16  1  0  0  0  0
 18 21  1  0  0  0  0
 19 18  1  0  0  0  0
 20 19  2  0  0  0  0
 21 37  1  0  0  0  0
 21 38  1  0  0  0  0
 22 39  1  0  0  0  0
 22 23  1  0  0  0  0
 22 21  1  0  0  0  0
 23 24  1  0  0  0  0
 23 41  1  0  0  0  0
 25 24  1  0  0  0  0
 25 44  1  0  0  0  0
 25 43  1  0  0  0  0
 26 46  1  6  0  0  0
 26 13  1  0  0  0  0
 27 26  1  0  0  0  0
 28 48  1  0  0  0  0
 28 49  1  0  0  0  0
 28 26  1  0  0  0  0
 29  3  1  0  0  0  0
 33 12  1  0  0  0  0
 40 22  1  0  0  0  0
 42 23  1  0  0  0  0
 45 25  1  0  0  0  0
 47 27  1  0  0  0  0
 50 28  1  0  0  0  0
M  END
>  <Pose>
1

>  <Score>
-2.94

$$$$
