
 OpenBabel03232203513D

 47 50  0  0  1  0  0  0  0  0999 V2000
    0.0290    8.4200  -13.5350 Cl  0  0  0  0  0  0  0  0  0  0  0  0
    1.4410    9.4420  -13.5240 C   0  0  0  0  0  0  0  0  0  0  0  0
    1.3940   10.7150  -13.0120 C   0  0  0  0  0  0  0  0  0  0  0  0
    2.4940   11.5540  -12.9820 C   0  0  0  0  0  0  0  0  0  0  0  0
    3.6710   11.0860  -13.4820 C   0  0  0  0  0  0  0  0  0  0  0  0
    3.7730    9.8030  -14.0120 C   0  0  0  0  0  0  0  0  0  0  0  0
    2.6520    8.9980  -14.0250 C   0  0  0  0  0  0  0  0  0  0  0  0
    2.4050   12.8740  -12.4580 N   0  0  0  0  0  0  0  0  0  0  0  0
    2.5510   13.0280  -11.0470 C   0  0  0  0  0  0  0  0  0  0  0  0
    2.7670   12.0730  -10.2620 O   0  0  0  0  0  0  0  0  0  0  0  0
    2.4480   14.3400  -10.4980 N   0  0  0  0  0  0  0  0  0  0  0  0
    2.2030   15.4530  -11.3720 C   0  0  0  0  0  0  0  0  0  0  0  0
    2.3600   16.6090  -10.8550 O   0  0  0  0  0  0  0  0  0  0  0  0
    1.7950   15.2840  -12.7790 C   0  0  1  0  0  0  0  0  0  0  0  0
    2.1670   13.9620  -13.3410 C   0  0  0  0  0  0  0  0  0  0  0  0
    2.2580   13.8500  -14.5880 O   0  0  0  0  0  0  0  0  0  0  0  0
    0.3080   15.5070  -12.9300 C   0  0  0  0  0  0  0  0  0  0  0  0
   -0.2410   16.1880  -13.9190 C   0  0  0  0  0  0  0  0  0  0  0  0
   -1.6970   16.1480  -13.6570 C   0  0  1  0  0  0  0  0  0  0  0  0
   -1.8370   14.8960  -12.9350 N   0  0  0  0  0  0  0  0  0  0  0  0
   -0.7180   15.0090  -12.0720 N   0  0  0  0  0  0  0  0  0  0  0  0
   -2.1120   17.2970  -12.8040 C   0  0  0  0  0  0  0  0  0  0  0  0
   -1.5250   17.6480  -11.6220 C   0  0  0  0  0  0  0  0  0  0  0  0
   -1.9230   18.7480  -10.8880 C   0  0  0  0  0  0  0  0  0  0  0  0
   -2.9570   19.5500  -11.3360 C   0  0  0  0  0  0  0  0  0  0  0  0
   -3.5560   19.1830  -12.5520 C   0  0  0  0  0  0  0  0  0  0  0  0
   -3.1470   18.0840  -13.2700 C   0  0  0  0  0  0  0  0  0  0  0  0
   -3.3770   20.6540  -10.6350 O   0  0  0  0  0  0  0  0  0  0  0  0
   -4.6540   20.7150  -10.0350 C   0  0  0  0  0  0  0  0  0  0  0  0
   -1.2870   19.0650   -9.6750 O   0  0  0  0  0  0  0  0  0  0  0  0
    0.4610   11.1160  -12.6010 H   0  0  0  0  0  0  0  0  0  0  0  0
    4.5590   11.7200  -13.4740 H   0  0  0  0  0  0  0  0  0  0  0  0
    4.7270    9.5030  -14.3900 H   0  0  0  0  0  0  0  0  0  0  0  0
    2.7480    8.0150  -14.4380 H   0  0  0  0  0  0  0  0  0  0  0  0
    2.5450   14.5260   -9.4660 H   0  0  0  0  0  0  0  0  0  0  0  0
    2.3720   16.0380  -13.3630 H   0  0  0  0  0  0  0  0  0  0  0  0
    0.2900   16.6590  -14.7280 H   0  0  0  0  0  0  0  0  0  0  0  0
   -2.3080   16.1310  -14.5810 H   0  0  0  0  0  0  0  0  0  0  0  0
   -2.7270   14.7680  -12.4480 H   0  0  0  0  0  0  0  0  0  0  0  0
   -0.5920   14.8080  -11.0800 H   0  0  0  0  0  0  0  0  0  0  0  0
   -0.7280   17.0600  -11.2420 H   0  0  0  0  0  0  0  0  0  0  0  0
   -4.3630   19.8320  -12.8720 H   0  0  0  0  0  0  0  0  0  0  0  0
   -3.6720   17.8730  -14.2080 H   0  0  0  0  0  0  0  0  0  0  0  0
   -5.4510   20.4380  -10.7770 H   0  0  0  0  0  0  0  0  0  0  0  0
   -4.9110   21.7730   -9.7440 H   0  0  0  0  0  0  0  0  0  0  0  0
   -4.7660   20.0480   -9.1670 H   0  0  0  0  0  0  0  0  0  0  0  0
   -0.4510   19.6390   -9.7120 H   0  0  0  0  0  0  0  0  0  0  0  0
  1  2  1  0  0  0  0
  2  3  1  0  0  0  0
  3  4  2  0  0  0  0
  3 31  1  0  0  0  0
  4  8  1  0  0  0  0
  5 32  1  0  0  0  0
  5  4  1  0  0  0  0
  6  5  2  0  0  0  0
  7  6  1  0  0  0  0
  7  2  2  0  0  0  0
  8  9  1  0  0  0  0
  9 11  1  0  0  0  0
  9 10  2  0  0  0  0
 11 35  1  0  0  0  0
 12 13  2  0  0  0  0
 12 11  1  0  0  0  0
 14 36  1  6  0  0  0
 14 12  1  0  0  0  0
 15 14  1  0  0  0  0
 15  8  1  0  0  0  0
 16 15  2  0  0  0  0
 17 14  1  0  0  0  0
 17 21  1  0  0  0  0
 18 19  1  0  0  0  0
 18 17  2  0  0  0  0
 19 38  1  6  0  0  0
 19 20  1  0  0  0  0
 19 22  1  0  0  0  0
 20 39  1  0  0  0  0
 20 21  1  0  0  0  0
 21 40  1  0  0  0  0
 22 23  1  0  0  0  0
 23 41  1  0  0  0  0
 23 24  2  0  0  0  0
 24 30  1  0  0  0  0
 25 24  1  0  0  0  0
 25 28  1  0  0  0  0
 26 25  2  0  0  0  0
 27 22  2  0  0  0  0
 27 26  1  0  0  0  0
 28 29  1  0  0  0  0
 29 45  1  0  0  0  0
 29 46  1  0  0  0  0
 33  6  1  0  0  0  0
 34  7  1  0  0  0  0
 37 18  1  0  0  0  0
 42 26  1  0  0  0  0
 43 27  1  0  0  0  0
 44 29  1  0  0  0  0
 47 30  1  0  0  0  0
M  END
>  <Pose>
1

>  <Score>
-6.00

$$$$
