
 OpenBabel03232203513D

 39 42  0  0  0  0  0  0  0  0999 V2000
   -5.4580    9.8010  -13.9720 Cl  0  0  0  0  0  0  0  0  0  0  0  0
   -3.8260    9.1200  -13.9290 C   0  0  0  0  0  0  0  0  0  0  0  0
   -3.5760    7.8550  -14.4010 C   0  0  0  0  0  0  0  0  0  0  0  0
   -2.3060    7.3280  -14.3650 C   0  0  0  0  0  0  0  0  0  0  0  0
   -1.1980    8.0190  -13.8600 C   0  0  0  0  0  0  0  0  0  0  0  0
   -1.4770    9.2840  -13.3950 C   0  0  0  0  0  0  0  0  0  0  0  0
   -2.7710    9.8350  -13.4250 C   0  0  0  0  0  0  0  0  0  0  0  0
    0.0990    7.4060  -13.9020 C   0  0  0  0  0  0  0  0  0  0  0  0
    0.0660    6.0990  -13.8400 O   0  0  0  0  0  0  0  0  0  0  0  0
    1.3710    7.9510  -13.9980 N   0  0  0  0  0  0  0  0  0  0  0  0
    2.4550    7.9820  -13.0730 C   0  0  0  0  0  0  0  0  0  0  0  0
    2.4130    9.3950  -12.4580 C   0  0  0  0  0  0  0  0  0  0  0  0
    2.1190   10.3340  -13.5560 N   0  0  0  0  0  0  0  0  0  0  0  0
    2.4770    9.9410  -14.8880 C   0  0  0  0  0  0  0  0  0  0  0  0
    1.6900    8.6980  -15.2600 C   0  0  0  0  0  0  0  0  0  0  0  0
    1.5010   11.5850  -13.2600 C   0  0  0  0  0  0  0  0  0  0  0  0
    2.1520   12.5360  -12.5540 N   0  0  0  0  0  0  0  0  0  0  0  0
    1.6110   13.7040  -12.2600 N   0  0  0  0  0  0  0  0  0  0  0  0
    0.3700   14.0390  -12.6410 C   0  0  0  0  0  0  0  0  0  0  0  0
    0.0660   15.2870  -12.2090 N   0  0  0  0  0  0  0  0  0  0  0  0
    1.1230   15.7350  -11.5560 N   0  0  0  0  0  0  0  0  0  0  0  0
    2.0760   14.7870  -11.5730 C   0  0  0  0  0  0  0  0  0  0  0  0
   -0.3610   13.1160  -13.3690 C   0  0  0  0  0  0  0  0  0  0  0  0
    0.2250   11.9070  -13.6620 C   0  0  0  0  0  0  0  0  0  0  0  0
   -4.4130    7.2950  -14.7970 H   0  0  0  0  0  0  0  0  0  0  0  0
   -2.1490    6.3330  -14.7410 H   0  0  0  0  0  0  0  0  0  0  0  0
   -0.6800    9.8930  -13.0160 H   0  0  0  0  0  0  0  0  0  0  0  0
   -2.9540   10.8380  -13.0480 H   0  0  0  0  0  0  0  0  0  0  0  0
    2.5930    7.1830  -12.3790 H   0  0  0  0  0  0  0  0  0  0  0  0
    3.4320    8.0410  -13.6900 H   0  0  0  0  0  0  0  0  0  0  0  0
    3.3770    9.6510  -11.9800 H   0  0  0  0  0  0  0  0  0  0  0  0
    1.5910    9.3660  -11.7320 H   0  0  0  0  0  0  0  0  0  0  0  0
    3.5510    9.6630  -14.9810 H   0  0  0  0  0  0  0  0  0  0  0  0
    2.1870   10.7230  -15.6190 H   0  0  0  0  0  0  0  0  0  0  0  0
    2.2570    8.0150  -15.9180 H   0  0  0  0  0  0  0  0  0  0  0  0
    0.7400    8.9460  -15.7600 H   0  0  0  0  0  0  0  0  0  0  0  0
    3.0620   14.8580  -11.1190 H   0  0  0  0  0  0  0  0  0  0  0  0
   -1.3720   13.3450  -13.7000 H   0  0  0  0  0  0  0  0  0  0  0  0
   -0.3200   11.1430  -14.2370 H   0  0  0  0  0  0  0  0  0  0  0  0
  1  2  1  0  0  0  0
  2  7  1  0  0  0  0
  3  4  1  0  0  0  0
  3  2  2  0  0  0  0
  4  5  2  0  0  0  0
  5  6  1  0  0  0  0
  6 27  1  0  0  0  0
  7  6  2  0  0  0  0
  7 28  1  0  0  0  0
  8  5  1  0  0  0  0
  8  9  2  0  0  0  0
 10  8  1  0  0  0  0
 10 11  1  0  0  0  0
 11 12  1  0  0  0  0
 11 29  1  0  0  0  0
 12 31  1  0  0  0  0
 12 32  1  0  0  0  0
 13 16  1  0  0  0  0
 13 12  1  0  0  0  0
 14 13  1  0  0  0  0
 15 14  1  0  0  0  0
 15 10  1  0  0  0  0
 16 17  2  0  0  0  0
 17 18  1  0  0  0  0
 18 22  1  0  0  0  0
 19 18  1  0  0  0  0
 19 20  2  0  0  0  0
 20 21  1  0  0  0  0
 22 21  2  0  0  0  0
 22 37  1  0  0  0  0
 23 19  1  0  0  0  0
 24 23  2  0  0  0  0
 24 16  1  0  0  0  0
 25  3  1  0  0  0  0
 26  4  1  0  0  0  0
 30 11  1  0  0  0  0
 33 14  1  0  0  0  0
 34 14  1  0  0  0  0
 35 15  1  0  0  0  0
 36 15  1  0  0  0  0
 38 23  1  0  0  0  0
 39 24  1  0  0  0  0
M  END
>  <Pose>
1

>  <Score>
-6.21

$$$$
