
 OpenBabel03232203513D

 47 50  0  0  0  0  0  0  0  0999 V2000
    5.8650    4.4600  -13.0190 Cl  0  0  0  0  0  0  0  0  0  0  0  0
    4.5030    5.5630  -13.0730 C   0  0  0  0  0  0  0  0  0  0  0  0
    3.2490    5.2260  -12.5990 C   0  0  0  0  0  0  0  0  0  0  0  0
    2.1800    6.1050  -12.6450 C   0  0  0  0  0  0  0  0  0  0  0  0
    2.3260    7.3720  -13.1730 C   0  0  0  0  0  0  0  0  0  0  0  0
    3.5720    7.7200  -13.6490 C   0  0  0  0  0  0  0  0  0  0  0  0
    4.6470    6.8360  -13.6030 C   0  0  0  0  0  0  0  0  0  0  0  0
    1.2150    8.2620  -13.2110 N   0  0  0  0  0  0  0  0  0  0  0  0
    0.0280    7.9650  -13.6060 N   0  0  0  0  0  0  0  0  0  0  0  0
   -0.8250    9.0530  -13.5180 C   0  0  0  0  0  0  0  0  0  0  0  0
   -0.0990   10.0470  -13.0420 N   0  0  0  0  0  0  0  0  0  0  0  0
    1.1700    9.5490  -12.8560 C   0  0  0  0  0  0  0  0  0  0  0  0
    2.1170   10.2350  -12.4150 O   0  0  0  0  0  0  0  0  0  0  0  0
   -0.5000   11.3650  -12.6630 C   0  0  0  0  0  0  0  0  0  0  0  0
    0.2730   12.4630  -13.2750 C   0  0  0  0  0  0  0  0  0  0  0  0
   -0.0300   12.6670  -14.5230 O   0  0  0  0  0  0  0  0  0  0  0  0
    1.2430   13.2920  -12.7570 N   0  0  0  0  0  0  0  0  0  0  0  0
    2.6310   12.9540  -12.5890 C   0  0  0  0  0  0  0  0  0  0  0  0
    3.4530   14.1300  -12.0320 C   0  0  0  0  0  0  0  0  0  0  0  0
    2.8170   14.6180  -10.8040 N   0  0  0  0  0  0  0  0  0  0  0  0
    1.3890   14.7910  -10.9330 C   0  0  0  0  0  0  0  0  0  0  0  0
    0.6900   15.0410   -9.9250 O   0  0  0  0  0  0  0  0  0  0  0  0
    0.8670   14.6450  -12.3130 C   0  0  0  0  0  0  0  0  0  0  0  0
   -2.2310    8.9160  -13.8950 C   0  0  0  0  0  0  0  0  0  0  0  0
   -3.0730   10.0190  -13.7070 C   0  0  0  0  0  0  0  0  0  0  0  0
   -4.4170   10.0060  -13.9610 C   0  0  0  0  0  0  0  0  0  0  0  0
   -5.0340    8.8560  -14.4350 C   0  0  0  0  0  0  0  0  0  0  0  0
   -4.2220    7.7720  -14.6200 C   0  0  0  0  0  0  0  0  0  0  0  0
   -2.8490    7.7910  -14.3590 C   0  0  0  0  0  0  0  0  0  0  0  0
    3.1310    4.2350  -12.1840 H   0  0  0  0  0  0  0  0  0  0  0  0
    1.2050    5.8440  -12.2750 H   0  0  0  0  0  0  0  0  0  0  0  0
    3.6840    8.7060  -14.0610 H   0  0  0  0  0  0  0  0  0  0  0  0
    5.6200    7.1150  -13.9780 H   0  0  0  0  0  0  0  0  0  0  0  0
   -0.5820   11.5480  -11.6150 H   0  0  0  0  0  0  0  0  0  0  0  0
   -1.5860   11.4860  -13.0550 H   0  0  0  0  0  0  0  0  0  0  0  0
    3.0340   12.7910  -13.6240 H   0  0  0  0  0  0  0  0  0  0  0  0
    2.8050   12.0810  -11.9700 H   0  0  0  0  0  0  0  0  0  0  0  0
    3.4740   14.9600  -12.7560 H   0  0  0  0  0  0  0  0  0  0  0  0
    4.4880   13.8000  -11.8560 H   0  0  0  0  0  0  0  0  0  0  0  0
    3.3290   14.8160   -9.9400 H   0  0  0  0  0  0  0  0  0  0  0  0
   -0.2450   14.7300  -12.3260 H   0  0  0  0  0  0  0  0  0  0  0  0
    1.3400   15.3670  -13.0180 H   0  0  0  0  0  0  0  0  0  0  0  0
   -2.5970   10.9350  -13.3380 H   0  0  0  0  0  0  0  0  0  0  0  0
   -5.0460   10.8690  -13.8060 H   0  0  0  0  0  0  0  0  0  0  0  0
   -6.0900    8.8240  -14.6430 H   0  0  0  0  0  0  0  0  0  0  0  0
   -4.6760    6.8450  -14.9910 H   0  0  0  0  0  0  0  0  0  0  0  0
   -2.3150    6.8940  -14.5090 H   0  0  0  0  0  0  0  0  0  0  0  0
  2  1  1  0  0  0  0
  2  3  1  0  0  0  0
  3 30  1  0  0  0  0
  4  3  2  0  0  0  0
  4 31  1  0  0  0  0
  5  4  1  0  0  0  0
  6  7  1  0  0  0  0
  6  5  2  0  0  0  0
  7  2  2  0  0  0  0
  8  5  1  0  0  0  0
  8 12  1  0  0  0  0
  9 10  2  0  0  0  0
  9  8  1  0  0  0  0
 10 11  1  0  0  0  0
 11 12  1  0  0  0  0
 11 14  1  0  0  0  0
 12 13  2  0  0  0  0
 14 34  1  0  0  0  0
 15 17  1  0  0  0  0
 15 14  1  0  0  0  0
 16 15  2  0  0  0  0
 17 18  1  0  0  0  0
 17 23  1  0  0  0  0
 18 19  1  0  0  0  0
 18 37  1  0  0  0  0
 19 39  1  0  0  0  0
 19 20  1  0  0  0  0
 20 40  1  0  0  0  0
 21 20  1  0  0  0  0
 21 22  2  0  0  0  0
 23 21  1  0  0  0  0
 24 25  1  0  0  0  0
 24 10  1  0  0  0  0
 25 43  1  0  0  0  0
 26 44  1  0  0  0  0
 26 25  2  0  0  0  0
 27 26  1  0  0  0  0
 28 27  2  0  0  0  0
 28 29  1  0  0  0  0
 29 24  2  0  0  0  0
 32  6  1  0  0  0  0
 33  7  1  0  0  0  0
 35 14  1  0  0  0  0
 36 18  1  0  0  0  0
 38 19  1  0  0  0  0
 41 23  1  0  0  0  0
 42 23  1  0  0  0  0
 45 27  1  0  0  0  0
 46 28  1  0  0  0  0
 47 29  1  0  0  0  0
M  END
>  <Pose>
1

>  <Score>
-5.76

$$$$
