
 OpenBabel03232203513D

 42 45  0  0  1  0  0  0  0  0999 V2000
    1.8720    6.0600  -12.2900 Cl  0  0  0  0  0  0  0  0  0  0  0  0
    1.3180    7.7010  -12.6240 C   0  0  0  0  0  0  0  0  0  0  0  0
   -0.0000    7.9360  -12.9730 C   0  0  0  0  0  0  0  0  0  0  0  0
   -0.4430    9.2030  -13.2340 C   0  0  2  0  0  0  0  0  0  0  0  0
    0.4780   10.2190  -13.1320 C   0  0  0  0  0  0  0  0  0  0  0  0
    1.7880   10.0130  -12.7880 C   0  0  0  0  0  0  0  0  0  0  0  0
    2.2230    8.7240  -12.5260 C   0  0  0  0  0  0  0  0  0  0  0  0
    0.0360   11.6000  -13.4070 C   0  0  0  0  0  0  0  0  0  0  0  0
    0.6440   12.7340  -13.3960 N   0  0  0  0  0  0  0  0  0  0  0  0
   -0.2270   13.8200  -13.7400 C   0  0  0  0  0  0  0  0  0  0  0  0
   -1.5550   13.1820  -13.9860 C   0  0  0  0  0  0  0  0  0  0  0  0
   -1.3260   11.7740  -13.7600 N   0  0  0  0  0  0  0  0  0  0  0  0
   -2.2450   10.6770  -13.8510 C   0  0  0  0  0  0  0  0  0  0  0  0
   -3.5480   10.6060  -14.1600 N   0  0  0  0  0  0  0  0  0  0  0  0
   -3.9600    9.3510  -14.1090 N   0  0  0  0  0  0  0  0  0  0  0  0
   -2.8800    8.6310  -13.7590 C   0  0  0  0  0  0  0  0  0  0  0  0
   -2.8880    7.3850  -13.6100 O   0  0  0  0  0  0  0  0  0  0  0  0
   -1.7970    9.4360  -13.5920 N   0  0  0  0  0  0  0  0  0  0  0  0
   -5.2970    8.8290  -14.3720 C   0  0  0  0  0  0  0  0  0  0  0  0
   -6.2960    9.8510  -13.9810 C   0  0  0  0  0  0  0  0  0  0  0  0
   -6.6340    9.9360  -12.7670 O   0  0  0  0  0  0  0  0  0  0  0  0
   -6.8910   10.7400  -14.9140 N   0  0  0  0  0  0  0  0  0  0  0  0
   -8.3040   11.0410  -14.8510 C   0  0  0  0  0  0  0  0  0  0  0  0
   -8.5360   12.3830  -14.1510 C   0  0  0  0  0  0  0  0  0  0  0  0
   -8.7730   11.2360  -16.2860 C   0  0  0  0  0  0  0  0  0  0  0  0
   -0.6780    7.1130  -13.0390 H   0  0  0  0  0  0  0  0  0  0  0  0
    2.5230   10.8040  -12.7050 H   0  0  0  0  0  0  0  0  0  0  0  0
    3.2760    8.5550  -12.2490 H   0  0  0  0  0  0  0  0  0  0  0  0
   -0.2850   14.4940  -12.8460 H   0  0  0  0  0  0  0  0  0  0  0  0
    0.1480   14.3900  -14.6200 H   0  0  0  0  0  0  0  0  0  0  0  0
   -2.3610   13.5830  -13.3380 H   0  0  0  0  0  0  0  0  0  0  0  0
   -1.8220   13.2750  -15.0700 H   0  0  0  0  0  0  0  0  0  0  0  0
   -5.3780    8.7020  -15.4670 H   0  0  0  0  0  0  0  0  0  0  0  0
   -5.4670    7.8470  -13.9080 H   0  0  0  0  0  0  0  0  0  0  0  0
   -6.2730   11.1600  -15.6380 H   0  0  0  0  0  0  0  0  0  0  0  0
   -8.8840   10.2320  -14.3830 H   0  0  0  0  0  0  0  0  0  0  0  0
   -7.6490   13.0090  -14.4030 H   0  0  0  0  0  0  0  0  0  0  0  0
   -9.4680   12.7940  -14.5630 H   0  0  0  0  0  0  0  0  0  0  0  0
   -8.6050   12.2260  -13.0480 H   0  0  0  0  0  0  0  0  0  0  0  0
   -8.4960   12.2720  -16.5710 H   0  0  0  0  0  0  0  0  0  0  0  0
   -9.8690   11.1480  -16.3780 H   0  0  0  0  0  0  0  0  0  0  0  0
   -8.2190   10.5390  -16.9300 H   0  0  0  0  0  0  0  0  0  0  0  0
  2  7  1  0  0  0  0
  2  1  1  0  0  0  0
  3  2  2  0  0  0  0
  4  5  1  1  0  0  0
  4  3  1  0  0  0  0
  5  6  1  0  0  0  0
  6 27  1  0  0  0  0
  6  7  2  0  0  0  0
  7 28  1  0  0  0  0
  8  9  1  0  0  0  0
  8  5  2  0  0  0  0
 10  9  1  0  0  0  0
 10 29  1  0  0  0  0
 11 12  1  0  0  0  0
 11 10  1  0  0  0  0
 11 31  1  0  0  0  0
 12  8  1  0  0  0  0
 13 12  1  0  0  0  0
 13 18  1  0  0  0  0
 14 15  1  0  0  0  0
 14 13  2  0  0  0  0
 15 16  1  0  0  0  0
 16 17  2  0  0  0  0
 16 18  1  0  0  0  0
 18  4  1  0  0  0  0
 19 15  1  0  0  0  0
 19 20  1  0  0  0  0
 19 34  1  0  0  0  0
 20 21  2  0  0  0  0
 22 23  1  0  0  0  0
 22 20  1  0  0  0  0
 23 36  1  0  0  0  0
 23 24  1  0  0  0  0
 24 39  1  0  0  0  0
 25 23  1  0  0  0  0
 26  3  1  0  0  0  0
 30 10  1  0  0  0  0
 32 11  1  0  0  0  0
 33 19  1  0  0  0  0
 35 22  1  0  0  0  0
 37 24  1  0  0  0  0
 38 24  1  0  0  0  0
 40 25  1  0  0  0  0
 41 25  1  0  0  0  0
 42 25  1  0  0  0  0
M  END
>  <Pose>
1

>  <Score>
-5.72

$$$$
