
 OpenBabel03232203513D

 43 47  0  0  0  0  0  0  0  0999 V2000
    2.7910    5.2720  -12.4000 Cl  0  0  0  0  0  0  0  0  0  0  0  0
    1.4470    6.3400  -12.7430 C   0  0  0  0  0  0  0  0  0  0  0  0
    1.5780    7.7160  -12.8170 C   0  0  0  0  0  0  0  0  0  0  0  0
    0.5130    8.5440  -13.0880 C   0  0  0  0  0  0  0  0  0  0  0  0
   -0.7040    7.9380  -13.2850 C   0  0  0  0  0  0  0  0  0  0  0  0
   -0.8910    6.5780  -13.2240 C   0  0  0  0  0  0  0  0  0  0  0  0
    0.2100    5.7650  -12.9470 C   0  0  0  0  0  0  0  0  0  0  0  0
   -1.8690    8.7950  -13.5770 C   0  0  0  0  0  0  0  0  0  0  0  0
   -3.1000    8.5100  -13.8010 N   0  0  0  0  0  0  0  0  0  0  0  0
   -3.8930    9.6860  -14.0430 C   0  0  0  0  0  0  0  0  0  0  0  0
   -2.9220   10.8180  -13.9330 C   0  0  0  0  0  0  0  0  0  0  0  0
   -1.6600   10.1910  -13.6370 N   0  0  0  0  0  0  0  0  0  0  0  0
   -0.3580   10.7710  -13.4210 C   0  0  0  0  0  0  0  0  0  0  0  0
    0.0760   12.0470  -13.4260 N   0  0  0  0  0  0  0  0  0  0  0  0
    1.3730   12.0690  -13.1710 N   0  0  0  0  0  0  0  0  0  0  0  0
    1.7300   10.7840  -13.0070 C   0  0  0  0  0  0  0  0  0  0  0  0
    2.9160   10.4320  -12.7460 O   0  0  0  0  0  0  0  0  0  0  0  0
    0.6750    9.9540  -13.1560 N   0  0  0  0  0  0  0  0  0  0  0  0
    2.2510   13.2450  -13.0810 C   0  0  0  0  0  0  0  0  0  0  0  0
    1.7550   14.1070  -11.9750 C   0  0  0  0  0  0  0  0  0  0  0  0
    2.1510   13.8220  -10.8170 O   0  0  0  0  0  0  0  0  0  0  0  0
    0.8770   15.1990  -12.2080 N   0  0  0  0  0  0  0  0  0  0  0  0
    0.4870   16.1700  -11.2020 C   0  0  0  0  0  0  0  0  0  0  0  0
   -0.5890   17.0170  -11.8250 C   0  0  0  0  0  0  0  0  0  0  0  0
   -1.0940   16.1180  -12.9350 C   0  0  0  0  0  0  0  0  0  0  0  0
    0.2280   15.5410  -13.4510 C   0  0  0  0  0  0  0  0  0  0  0  0
    2.5390    8.1390  -12.6560 H   0  0  0  0  0  0  0  0  0  0  0  0
   -1.8490    6.1350  -13.3820 H   0  0  0  0  0  0  0  0  0  0  0  0
    0.0380    4.7030  -12.9050 H   0  0  0  0  0  0  0  0  0  0  0  0
   -4.6800    9.8220  -13.2580 H   0  0  0  0  0  0  0  0  0  0  0  0
   -4.3640    9.6640  -15.0550 H   0  0  0  0  0  0  0  0  0  0  0  0
   -3.2220   11.5530  -13.1540 H   0  0  0  0  0  0  0  0  0  0  0  0
   -2.8170   11.3030  -14.9330 H   0  0  0  0  0  0  0  0  0  0  0  0
    2.2310   13.7910  -14.0460 H   0  0  0  0  0  0  0  0  0  0  0  0
    3.2590   12.8720  -12.8490 H   0  0  0  0  0  0  0  0  0  0  0  0
    1.3930   16.7630  -10.9680 H   0  0  0  0  0  0  0  0  0  0  0  0
    0.1070   15.6140  -10.3170 H   0  0  0  0  0  0  0  0  0  0  0  0
   -0.1370   17.9080  -12.3190 H   0  0  0  0  0  0  0  0  0  0  0  0
   -1.3940   17.2980  -11.1180 H   0  0  0  0  0  0  0  0  0  0  0  0
   -1.6320   16.6800  -13.7010 H   0  0  0  0  0  0  0  0  0  0  0  0
   -1.7110   15.2930  -12.4870 H   0  0  0  0  0  0  0  0  0  0  0  0
    0.0850   14.7090  -14.1380 H   0  0  0  0  0  0  0  0  0  0  0  0
    0.7920   16.3940  -13.8830 H   0  0  0  0  0  0  0  0  0  0  0  0
  2  1  1  0  0  0  0
  3  2  1  0  0  0  0
  3 27  1  0  0  0  0
  4  3  2  0  0  0  0
  5  6  1  0  0  0  0
  5  4  1  0  0  0  0
  6  7  1  0  0  0  0
  7 29  1  0  0  0  0
  7  2  2  0  0  0  0
  8  5  2  0  0  0  0
  9  8  1  0  0  0  0
 10 11  1  0  0  0  0
 10  9  1  0  0  0  0
 10 30  1  0  0  0  0
 11 12  1  0  0  0  0
 11 32  1  0  0  0  0
 12  8  1  0  0  0  0
 12 13  1  0  0  0  0
 13 18  1  0  0  0  0
 14 13  2  0  0  0  0
 14 15  1  0  0  0  0
 15 19  1  0  0  0  0
 15 16  1  0  0  0  0
 16 17  2  0  0  0  0
 18  4  1  0  0  0  0
 18 16  1  0  0  0  0
 19 35  1  0  0  0  0
 19 20  1  0  0  0  0
 20 21  2  0  0  0  0
 22 20  1  0  0  0  0
 22 23  1  0  0  0  0
 23 36  1  0  0  0  0
 23 37  1  0  0  0  0
 24 23  1  0  0  0  0
 24 39  1  0  0  0  0
 25 41  1  0  0  0  0
 25 24  1  0  0  0  0
 26 25  1  0  0  0  0
 26 22  1  0  0  0  0
 28  6  1  0  0  0  0
 31 10  1  0  0  0  0
 33 11  1  0  0  0  0
 34 19  1  0  0  0  0
 38 24  1  0  0  0  0
 40 25  1  0  0  0  0
 42 26  1  0  0  0  0
 43 26  1  0  0  0  0
M  END
>  <Pose>
1

>  <Score>
-5.71

$$$$
