
 OpenBabel03162216103D

 38 42  0  0  1  0  0  0  0  0999 V2000
   -5.2920    7.7880  -14.9510 B   0  0  0  0  0  0  0  0  0  0  0  0
   -3.4210    7.7960  -14.6400 C   0  0  0  0  0  0  0  0  0  0  0  0
   -2.8560    8.8310  -13.9350 C   0  0  0  0  0  0  0  0  0  0  0  0
   -1.4950    8.8100  -13.7240 C   0  0  0  0  0  0  0  0  0  0  0  0
   -0.6940    7.7940  -14.1950 C   0  0  0  0  0  0  0  0  0  0  0  0
   -1.2630    6.7470  -14.9070 C   0  0  0  0  0  0  0  0  0  0  0  0
   -2.6430    6.7710  -15.1190 C   0  0  0  0  0  0  0  0  0  0  0  0
    0.7210    7.7830  -13.9660 N   0  0  0  0  0  0  0  0  0  0  0  0
    1.3090    8.2560  -12.7640 C   0  0  0  0  0  0  0  0  0  0  0  0
    0.6870    8.3990  -11.6840 O   0  0  0  0  0  0  0  0  0  0  0  0
    2.7480    8.5420  -13.0070 C   0  0  2  0  0  0  0  0  0  0  0  0
    2.9890    9.9800  -13.3500 C   0  0  1  0  0  0  0  0  0  0  0  0
    4.1030    9.8540  -14.2100 O   0  0  0  0  0  0  0  0  0  0  0  0
    3.4760    9.0330  -15.1810 C   0  0  1  0  0  0  0  0  0  0  0  0
    3.0550    7.8730  -14.3470 C   0  0  2  0  0  0  0  0  0  0  0  0
    1.7580    7.3300  -14.8350 C   0  0  0  0  0  0  0  0  0  0  0  0
    1.6260    6.6100  -15.8280 O   0  0  0  0  0  0  0  0  0  0  0  0
    2.2800    9.8680  -15.4670 C   0  0  0  0  0  0  0  0  0  0  0  0
    1.9470   10.4060  -14.2970 C   0  0  0  0  0  0  0  0  0  0  0  0
    3.2430   10.8710  -12.2110 C   0  0  0  0  0  0  0  0  0  0  0  0
    2.2870   11.8330  -12.0320 O   0  0  0  0  0  0  0  0  0  0  0  0
    2.8280   13.0560  -12.3410 C   0  0  0  0  0  0  0  0  0  0  0  0
    4.2460   12.8040  -12.7340 C   0  0  0  0  0  0  0  0  0  0  0  0
    4.4720   11.4990  -12.3110 O   0  0  0  0  0  0  0  0  0  0  0  0
   -3.4460    9.6620  -13.5400 H   0  0  0  0  0  0  0  0  0  0  0  0
   -1.0110    9.6240  -13.1630 H   0  0  0  0  0  0  0  0  0  0  0  0
   -0.6250    5.9590  -15.2690 H   0  0  0  0  0  0  0  0  0  0  0  0
   -3.0860    5.9560  -15.6740 H   0  0  0  0  0  0  0  0  0  0  0  0
    3.3600    8.1660  -12.1880 H   0  0  0  0  0  0  0  0  0  0  0  0
    4.1030    8.8200  -16.0290 H   0  0  0  0  0  0  0  0  0  0  0  0
    3.8030    7.0890  -14.2360 H   0  0  0  0  0  0  0  0  0  0  0  0
    1.8370    9.9630  -16.4490 H   0  0  0  0  0  0  0  0  0  0  0  0
    1.0590   11.0180  -14.1810 H   0  0  0  0  0  0  0  0  0  0  0  0
    3.2840   10.2380  -11.2850 H   0  0  0  0  0  0  0  0  0  0  0  0
    2.7910   13.7800  -11.5040 H   0  0  0  0  0  0  0  0  0  0  0  0
    2.2840   13.4530  -13.2370 H   0  0  0  0  0  0  0  0  0  0  0  0
    4.9400   13.5210  -12.2050 H   0  0  0  0  0  0  0  0  0  0  0  0
    4.4170   12.8620  -13.8390 H   0  0  0  0  0  0  0  0  0  0  0  0
  1  2  1  0  0  0  0
  2  3  1  0  0  0  0
  3  4  2  0  0  0  0
  3 25  1  0  0  0  0
  4 26  1  0  0  0  0
  5  8  1  0  0  0  0
  5  4  1  0  0  0  0
  6  5  2  0  0  0  0
  7  6  1  0  0  0  0
  7  2  2  0  0  0  0
  8  9  1  0  0  0  0
  9 10  2  0  0  0  0
 11  9  1  0  0  0  0
 11 29  1  1  0  0  0
 12 11  1  0  0  0  0
 12 20  1  1  0  0  0
 13 12  1  0  0  0  0
 14 30  1  6  0  0  0
 14 15  1  0  0  0  0
 14 13  1  0  0  0  0
 15 31  1  1  0  0  0
 15 11  1  0  0  0  0
 16 15  1  0  0  0  0
 16  8  1  0  0  0  0
 17 16  2  0  0  0  0
 18 14  1  0  0  0  0
 18 19  2  0  0  0  0
 19 33  1  0  0  0  0
 19 12  1  0  0  0  0
 20 21  1  0  0  0  0
 20 34  1  0  0  0  0
 22 21  1  0  0  0  0
 22 35  1  0  0  0  0
 23 22  1  0  0  0  0
 23 24  1  0  0  0  0
 23 37  1  0  0  0  0
 24 20  1  0  0  0  0
 27  6  1  0  0  0  0
 28  7  1  0  0  0  0
 32 18  1  0  0  0  0
 36 22  1  0  0  0  0
 38 23  1  0  0  0  0
M  END
>  <Pose>
1

>  <Score>
-3.71

$$$$
