
 OpenBabel03232203513D

 51 54  0  0  1  0  0  0  0  0999 V2000
   -4.2210   21.0250   -9.4040 Cl  0  0  0  0  0  0  0  0  0  0  0  0
   -3.9940   19.9980  -10.8040 C   0  0  0  0  0  0  0  0  0  0  0  0
   -2.8190   19.3130  -11.0180 C   0  0  0  0  0  0  0  0  0  0  0  0
   -2.6460   18.4910  -12.1530 C   0  0  0  0  0  0  0  0  0  0  0  0
   -3.7070   18.4220  -13.0080 C   0  0  0  0  0  0  0  0  0  0  0  0
   -4.9110   19.1210  -12.7920 C   0  0  0  0  0  0  0  0  0  0  0  0
   -5.0490   19.9130  -11.6820 C   0  0  0  0  0  0  0  0  0  0  0  0
   -1.4190   17.8160  -12.3040 N   0  0  0  0  0  0  0  0  0  0  0  0
   -1.2530   16.4540  -12.5010 C   0  0  0  0  0  0  0  0  0  0  0  0
   -1.6190   15.6000  -11.6870 O   0  0  0  0  0  0  0  0  0  0  0  0
   -0.5940   15.9060  -13.7500 C   0  0  0  0  0  0  0  0  0  0  0  0
    0.0470   14.6270  -13.4100 N   0  0  0  0  0  0  0  0  0  0  0  0
    1.1220   14.4900  -12.5780 C   0  0  1  0  0  0  0  0  0  0  0  0
    1.4330   13.1880  -12.4730 N   0  0  0  0  0  0  0  0  0  0  0  0
    0.5990   12.4470  -13.2140 C   0  0  0  0  0  0  0  0  0  0  0  0
   -0.2650   13.3870  -13.7940 C   0  0  0  0  0  0  0  0  0  0  0  0
    0.4990   11.0150  -13.4400 C   0  0  0  0  0  0  0  0  0  0  0  0
   -0.6660   10.3190  -13.2700 C   0  0  0  0  0  0  0  0  0  0  0  0
   -0.7820    8.9610  -13.5010 C   0  0  0  0  0  0  0  0  0  0  0  0
    0.3100    8.2190  -13.9260 C   0  0  0  0  0  0  0  0  0  0  0  0
    1.4810    8.9160  -14.0980 C   0  0  0  0  0  0  0  0  0  0  0  0
    1.5970   10.2730  -13.8680 C   0  0  0  0  0  0  0  0  0  0  0  0
    0.2320    6.8570  -14.1660 O   0  0  0  0  0  0  0  0  0  0  0  0
   -0.4990    5.9720  -13.3380 C   0  0  0  0  0  0  0  0  0  0  0  0
    2.5780   13.0520  -11.5720 C   0  0  0  0  0  0  0  0  0  0  0  0
    2.6620   14.3760  -10.8360 C   0  0  0  0  0  0  0  0  0  0  0  0
    2.0420   15.3410  -11.7820 C   0  0  0  0  0  0  0  0  0  0  0  0
   -1.7260   19.4420  -10.0390 C   0  0  0  0  0  0  0  0  0  0  0  0
   -3.6530   17.8160  -13.8970 H   0  0  0  0  0  0  0  0  0  0  0  0
   -5.7420   19.0520  -13.4820 H   0  0  0  0  0  0  0  0  0  0  0  0
   -5.9890   20.4580  -11.5080 H   0  0  0  0  0  0  0  0  0  0  0  0
   -0.5300   18.4000  -12.2620 H   0  0  0  0  0  0  0  0  0  0  0  0
   -1.4100   15.6910  -14.4580 H   0  0  0  0  0  0  0  0  0  0  0  0
    0.1780   16.5860  -14.1230 H   0  0  0  0  0  0  0  0  0  0  0  0
   -1.0850   13.1500  -14.4760 H   0  0  0  0  0  0  0  0  0  0  0  0
   -1.5340   10.9060  -12.9260 H   0  0  0  0  0  0  0  0  0  0  0  0
   -1.7420    8.4740  -13.3420 H   0  0  0  0  0  0  0  0  0  0  0  0
    2.3520    8.3420  -14.4340 H   0  0  0  0  0  0  0  0  0  0  0  0
    2.5410   10.8000  -14.0080 H   0  0  0  0  0  0  0  0  0  0  0  0
    0.0750    5.7160  -12.4150 H   0  0  0  0  0  0  0  0  0  0  0  0
   -1.4920    6.3470  -13.0540 H   0  0  0  0  0  0  0  0  0  0  0  0
   -0.6540    5.0300  -13.9000 H   0  0  0  0  0  0  0  0  0  0  0  0
    3.4990   12.7830  -12.0910 H   0  0  0  0  0  0  0  0  0  0  0  0
    2.3910   12.3030  -10.7700 H   0  0  0  0  0  0  0  0  0  0  0  0
    3.6910   14.6100  -10.5330 H   0  0  0  0  0  0  0  0  0  0  0  0
    1.9750   14.3360   -9.9360 H   0  0  0  0  0  0  0  0  0  0  0  0
    1.4840   16.1610  -11.2830 H   0  0  0  0  0  0  0  0  0  0  0  0
    2.8360   15.7660  -12.4580 H   0  0  0  0  0  0  0  0  0  0  0  0
   -2.0080   20.1790   -9.2660 H   0  0  0  0  0  0  0  0  0  0  0  0
   -1.5680   18.4720   -9.4830 H   0  0  0  0  0  0  0  0  0  0  0  0
   -0.7500   19.7150  -10.4780 H   0  0  0  0  0  0  0  0  0  0  0  0
  2  1  1  0  0  0  0
  3  2  1  0  0  0  0
  3 28  1  0  0  0  0
  4  3  2  0  0  0  0
  5  6  2  0  0  0  0
  5  4  1  0  0  0  0
  6  7  1  0  0  0  0
  7 31  1  0  0  0  0
  7  2  2  0  0  0  0
  8 32  1  0  0  0  0
  8  4  1  0  0  0  0
  9  8  1  0  0  0  0
  9 10  2  0  0  0  0
 11 12  1  0  0  0  0
 11  9  1  0  0  0  0
 13 12  1  6  0  0  0
 13 14  1  0  0  0  0
 13 27  1  0  0  0  0
 14 25  1  0  0  0  0
 15 14  1  0  0  0  0
 16 12  1  0  0  0  0
 16 15  2  0  0  0  0
 17 18  1  0  0  0  0
 17 15  1  0  0  0  0
 18 36  1  0  0  0  0
 19 37  1  0  0  0  0
 19 18  2  0  0  0  0
 20 19  1  0  0  0  0
 21 20  2  0  0  0  0
 21 22  1  0  0  0  0
 22 17  2  0  0  0  0
 23 20  1  0  0  0  0
 23 24  1  0  0  0  0
 24 41  1  0  0  0  0
 24 40  1  0  0  0  0
 25 26  1  0  0  0  0
 25 44  1  0  0  0  0
 26 45  1  0  0  0  0
 26 46  1  0  0  0  0
 27 47  1  0  0  0  0
 27 26  1  0  0  0  0
 28 50  1  0  0  0  0
 28 49  1  0  0  0  0
 29  5  1  0  0  0  0
 30  6  1  0  0  0  0
 33 11  1  0  0  0  0
 34 11  1  0  0  0  0
 35 16  1  0  0  0  0
 38 21  1  0  0  0  0
 39 22  1  0  0  0  0
 42 24  1  0  0  0  0
 43 25  1  0  0  0  0
 48 27  1  0  0  0  0
 51 28  1  0  0  0  0
M  END
>  <Pose>
1

>  <Score>
-6.85

$$$$
