
 OpenBabel03232203513D

 47 50  0  0  1  0  0  0  0  0999 V2000
    2.8910   11.0500  -13.2530 Cl  0  0  0  0  0  0  0  0  0  0  0  0
    1.3330   10.2570  -13.2050 C   0  0  0  0  0  0  0  0  0  0  0  0
    0.2180   10.9970  -13.5330 C   0  0  0  0  0  0  0  0  0  0  0  0
   -1.0080   10.3680  -13.4940 C   0  0  0  0  0  0  0  0  0  0  0  0
   -1.1300    9.0330  -13.1370 C   0  0  0  0  0  0  0  0  0  0  0  0
   -0.0180    8.2850  -12.8070 C   0  0  0  0  0  0  0  0  0  0  0  0
    1.2070    8.9140  -12.8460 C   0  0  0  0  0  0  0  0  0  0  0  0
   -2.4360   11.3080  -13.9120 Cl  0  0  0  0  0  0  0  0  0  0  0  0
    0.3240   12.4090  -13.9130 C   0  0  0  0  0  0  0  0  0  0  0  0
   -0.6240   13.2460  -13.7040 N   0  0  0  0  0  0  0  0  0  0  0  0
   -0.4420   14.5740  -14.0970 N   0  0  0  0  0  0  0  0  0  0  0  0
   -0.9230   15.6660  -13.3260 C   0  0  0  0  0  0  0  0  0  0  0  0
   -0.3000   16.2080  -12.2680 N   0  0  0  0  0  0  0  0  0  0  0  0
   -1.0940   17.2060  -11.8410 C   0  0  0  0  0  0  0  0  0  0  0  0
   -0.9910   18.0960  -10.8250 N   0  0  0  0  0  0  0  0  0  0  0  0
   -1.9410   19.0240  -10.5940 C   0  0  0  0  0  0  0  0  0  0  0  0
   -3.0340   19.0850  -11.3850 N   0  0  0  0  0  0  0  0  0  0  0  0
   -3.2080   18.2360  -12.4150 C   0  0  0  0  0  0  0  0  0  0  0  0
   -2.2210   17.2940  -12.6310 C   0  0  0  0  0  0  0  0  0  0  0  0
   -2.0880   16.3150  -13.5570 N   0  0  0  0  0  0  0  0  0  0  0  0
   -4.3630   18.3250  -13.2260 N   0  0  0  0  0  0  0  0  0  0  0  0
    0.9480   15.8640  -11.6510 C   0  0  1  0  0  0  0  0  0  0  0  0
    0.7830   15.1650  -10.4580 O   0  0  0  0  0  0  0  0  0  0  0  0
    2.0700   14.6720  -10.2480 C   0  0  2  0  0  0  0  0  0  0  0  0
    2.3190   13.9490  -11.5630 C   0  0  1  0  0  0  0  0  0  0  0  0
    1.7740   14.9610  -12.5500 C   0  0  2  0  0  0  0  0  0  0  0  0
    2.8700   15.6410  -13.0860 O   0  0  0  0  0  0  0  0  0  0  0  0
    3.6690   13.7000  -11.7690 O   0  0  0  0  0  0  0  0  0  0  0  0
    2.1500   13.7380   -9.0720 C   0  0  0  0  0  0  0  0  0  0  0  0
    2.6230   14.3430   -7.9330 O   0  0  0  0  0  0  0  0  0  0  0  0
   -2.0880    8.5330  -13.1040 H   0  0  0  0  0  0  0  0  0  0  0  0
   -0.0640    7.2420  -12.5230 H   0  0  0  0  0  0  0  0  0  0  0  0
    2.1030    8.3410  -12.5880 H   0  0  0  0  0  0  0  0  0  0  0  0
    1.2250   12.7660  -14.3840 H   0  0  0  0  0  0  0  0  0  0  0  0
    0.0700   14.7290  -14.9970 H   0  0  0  0  0  0  0  0  0  0  0  0
   -1.8660   19.7370   -9.7850 H   0  0  0  0  0  0  0  0  0  0  0  0
   -4.3580   18.0310  -14.2180 H   0  0  0  0  0  0  0  0  0  0  0  0
   -5.2380   18.6970  -12.8160 H   0  0  0  0  0  0  0  0  0  0  0  0
    1.5730   16.7530  -11.4120 H   0  0  0  0  0  0  0  0  0  0  0  0
    2.7550   15.5160  -10.1900 H   0  0  0  0  0  0  0  0  0  0  0  0
    1.7090   13.0070  -11.5940 H   0  0  0  0  0  0  0  0  0  0  0  0
    1.1560   14.4910  -13.3400 H   0  0  0  0  0  0  0  0  0  0  0  0
    2.9260   15.5430  -14.0570 H   0  0  0  0  0  0  0  0  0  0  0  0
    4.1490   13.9610  -10.9370 H   0  0  0  0  0  0  0  0  0  0  0  0
    2.8320   12.9100   -9.3630 H   0  0  0  0  0  0  0  0  0  0  0  0
    1.1470   13.2770   -8.9570 H   0  0  0  0  0  0  0  0  0  0  0  0
    1.8980   14.7030   -7.3780 H   0  0  0  0  0  0  0  0  0  0  0  0
  1  2  1  0  0  0  0
  2  7  1  0  0  0  0
  3  4  1  0  0  0  0
  3  2  2  0  0  0  0
  4  5  2  0  0  0  0
  5 31  1  0  0  0  0
  5  6  1  0  0  0  0
  6 32  1  0  0  0  0
  7  6  2  0  0  0  0
  7 33  1  0  0  0  0
  8  4  1  0  0  0  0
  9 10  2  0  0  0  0
  9  3  1  0  0  0  0
 11 10  1  0  0  0  0
 11 12  1  0  0  0  0
 12 13  1  0  0  0  0
 13 14  1  0  0  0  0
 13 22  1  0  0  0  0
 14 15  1  0  0  0  0
 15 16  2  0  0  0  0
 16 36  1  0  0  0  0
 17 16  1  0  0  0  0
 18 17  2  0  0  0  0
 19 18  1  0  0  0  0
 19 14  2  0  0  0  0
 20 12  2  0  0  0  0
 20 19  1  0  0  0  0
 21 38  1  0  0  0  0
 21 18  1  0  0  0  0
 22 39  1  1  0  0  0
 22 23  1  0  0  0  0
 23 24  1  0  0  0  0
 24 40  1  1  0  0  0
 24 29  1  0  0  0  0
 25 41  1  6  0  0  0
 25 24  1  0  0  0  0
 26 42  1  6  0  0  0
 26 22  1  0  0  0  0
 26 25  1  0  0  0  0
 27 26  1  0  0  0  0
 28 25  1  0  0  0  0
 28 44  1  0  0  0  0
 29 46  1  0  0  0  0
 29 30  1  0  0  0  0
 30 47  1  0  0  0  0
 34  9  1  0  0  0  0
 35 11  1  0  0  0  0
 37 21  1  0  0  0  0
 43 27  1  0  0  0  0
 45 29  1  0  0  0  0
M  END
>  <Pose>
1

>  <Score>
-7.44

$$$$
