
 OpenBabel03232203513D

 38 41  0  0  0  0  0  0  0  0999 V2000
   -3.1020   20.0390  -10.3090 Cl  0  0  0  0  0  0  0  0  0  0  0  0
   -3.1500   18.9750  -11.7070 C   0  0  0  0  0  0  0  0  0  0  0  0
   -2.0860   18.1430  -11.9910 C   0  0  0  0  0  0  0  0  0  0  0  0
   -2.1220   17.3150  -13.0780 C   0  0  0  0  0  0  0  0  0  0  0  0
   -3.2420   17.3340  -13.8780 C   0  0  0  0  0  0  0  0  0  0  0  0
   -4.3150   18.1570  -13.6130 C   0  0  0  0  0  0  0  0  0  0  0  0
   -4.2680   18.9890  -12.5130 C   0  0  0  0  0  0  0  0  0  0  0  0
   -1.0210   16.3940  -13.4470 C   0  0  0  0  0  0  0  0  0  0  0  0
   -0.0660   16.4160  -12.3670 N   0  0  0  0  0  0  0  0  0  0  0  0
    0.2970   17.7140  -11.8470 C   0  0  0  0  0  0  0  0  0  0  0  0
   -0.9230   18.2040  -11.0580 C   0  0  0  0  0  0  0  0  0  0  0  0
    0.5030   15.2410  -11.8230 C   0  0  0  0  0  0  0  0  0  0  0  0
    0.8010   15.2020  -10.6000 O   0  0  0  0  0  0  0  0  0  0  0  0
    0.7770   14.0240  -12.6220 C   0  0  0  0  0  0  0  0  0  0  0  0
    1.6980   13.1810  -12.0010 O   0  0  0  0  0  0  0  0  0  0  0  0
    2.3480   12.1330  -12.6390 C   0  0  0  0  0  0  0  0  0  0  0  0
    1.6480   11.3250  -13.4580 N   0  0  0  0  0  0  0  0  0  0  0  0
    2.2120   10.3040  -14.0970 N   0  0  0  0  0  0  0  0  0  0  0  0
    3.5130   10.0110  -13.9710 C   0  0  0  0  0  0  0  0  0  0  0  0
    3.8000    8.9350  -14.7290 N   0  0  0  0  0  0  0  0  0  0  0  0
    2.6820    8.5750  -15.3120 N   0  0  0  0  0  0  0  0  0  0  0  0
    1.6870    9.3990  -14.9430 C   0  0  0  0  0  0  0  0  0  0  0  0
    4.2680   10.8240  -13.1330 C   0  0  0  0  0  0  0  0  0  0  0  0
    3.6870   11.8790  -12.4720 C   0  0  0  0  0  0  0  0  0  0  0  0
   -3.3240   16.6970  -14.7550 H   0  0  0  0  0  0  0  0  0  0  0  0
   -5.1990   18.1550  -14.2660 H   0  0  0  0  0  0  0  0  0  0  0  0
   -5.0790   19.6550  -12.2560 H   0  0  0  0  0  0  0  0  0  0  0  0
   -0.4820   16.7110  -14.3630 H   0  0  0  0  0  0  0  0  0  0  0  0
   -1.3690   15.3540  -13.6070 H   0  0  0  0  0  0  0  0  0  0  0  0
    1.1930   17.6910  -11.2000 H   0  0  0  0  0  0  0  0  0  0  0  0
    0.4700   18.4490  -12.6570 H   0  0  0  0  0  0  0  0  0  0  0  0
   -0.8020   19.2260  -10.6980 H   0  0  0  0  0  0  0  0  0  0  0  0
   -1.1370   17.5090  -10.2300 H   0  0  0  0  0  0  0  0  0  0  0  0
    1.1510   14.2490  -13.6410 H   0  0  0  0  0  0  0  0  0  0  0  0
   -0.1940   13.4870  -12.7590 H   0  0  0  0  0  0  0  0  0  0  0  0
    0.6340    9.3740  -15.2490 H   0  0  0  0  0  0  0  0  0  0  0  0
    5.3020   10.5950  -13.0300 H   0  0  0  0  0  0  0  0  0  0  0  0
    4.2420   12.5320  -11.8140 H   0  0  0  0  0  0  0  0  0  0  0  0
  2  1  1  0  0  0  0
  3  2  1  0  0  0  0
  3 11  1  0  0  0  0
  4  3  2  0  0  0  0
  5  6  2  0  0  0  0
  5  4  1  0  0  0  0
  6  7  1  0  0  0  0
  7 27  1  0  0  0  0
  7  2  2  0  0  0  0
  8  4  1  0  0  0  0
  8  9  1  0  0  0  0
  9 10  1  0  0  0  0
  9 12  1  0  0  0  0
 10 30  1  0  0  0  0
 10 11  1  0  0  0  0
 11 32  1  0  0  0  0
 11 33  1  0  0  0  0
 12 13  2  0  0  0  0
 14 15  1  0  0  0  0
 14 12  1  0  0  0  0
 16 24  1  0  0  0  0
 16 15  1  0  0  0  0
 17 16  2  0  0  0  0
 18 19  1  0  0  0  0
 18 17  1  0  0  0  0
 19 23  1  0  0  0  0
 20 19  2  0  0  0  0
 21 22  2  0  0  0  0
 21 20  1  0  0  0  0
 22 18  1  0  0  0  0
 23 37  1  0  0  0  0
 23 24  2  0  0  0  0
 24 38  1  0  0  0  0
 25  5  1  0  0  0  0
 26  6  1  0  0  0  0
 28  8  1  0  0  0  0
 29  8  1  0  0  0  0
 31 10  1  0  0  0  0
 34 14  1  0  0  0  0
 35 14  1  0  0  0  0
 36 22  1  0  0  0  0
M  END
>  <Pose>
1

>  <Score>
-6.30

$$$$
