
 OpenBabel03232203513D

 51 54  0  0  0  0  0  0  0  0999 V2000
   -9.3200   13.2150  -13.5980 B   0  0  0  0  0  0  0  0  0  0  0  0
   -8.2530   11.8090  -14.3200 C   0  0  0  0  0  0  0  0  0  0  0  0
   -7.1250   11.3970  -13.6740 C   0  0  0  0  0  0  0  0  0  0  0  0
   -6.3430   10.3610  -14.2080 C   0  0  0  0  0  0  0  0  0  0  0  0
   -6.7370    9.7820  -15.3840 C   0  0  0  0  0  0  0  0  0  0  0  0
   -7.8990   10.2110  -16.0440 C   0  0  0  0  0  0  0  0  0  0  0  0
   -8.6480   11.2250  -15.5030 C   0  0  0  0  0  0  0  0  0  0  0  0
   -6.0060    8.7590  -15.9560 O   0  0  0  0  0  0  0  0  0  0  0  0
   -5.1440    9.9360  -13.5040 C   0  0  0  0  0  0  0  0  0  0  0  0
   -3.9630   10.2050  -14.0180 N   0  0  0  0  0  0  0  0  0  0  0  0
   -2.8380    9.7790  -13.3110 N   0  0  0  0  0  0  0  0  0  0  0  0
   -1.6100   10.4890  -13.3850 C   0  0  0  0  0  0  0  0  0  0  0  0
   -0.4340    9.8540  -13.5080 N   0  0  0  0  0  4  0  0  0  0  0  0
    0.7660   10.4890  -13.5830 C   0  0  0  0  0  0  0  0  0  0  0  0
    0.7020   11.8460  -13.5230 N   0  0  0  0  0  0  0  0  0  0  0  0
   -0.4430   12.5350  -13.4010 C   0  0  0  0  0  0  0  0  0  0  0  0
   -1.5730   11.8420  -13.3340 N   0  0  0  0  0  0  0  0  0  0  0  0
   -0.4350   13.9480  -13.3450 N   0  0  0  0  0  0  0  0  0  0  0  0
   -0.7940   14.7880  -14.4700 C   0  0  0  0  0  0  0  0  0  0  0  0
   -1.3920   16.0850  -13.9690 C   0  0  0  0  0  0  0  0  0  0  0  0
   -0.5740   16.7740  -13.1140 O   0  0  0  0  0  0  0  0  0  0  0  0
    0.4740   16.0160  -12.6070 C   0  0  0  0  0  0  0  0  0  0  0  0
   -0.0560   14.6680  -12.1260 C   0  0  0  0  0  0  0  0  0  0  0  0
    1.9820    9.7930  -13.7110 N   0  0  0  0  0  0  0  0  0  0  0  0
    2.3840    8.8390  -12.7210 C   0  0  0  0  0  0  0  0  0  0  0  0
    2.6900    7.5400  -13.4480 C   0  0  0  0  0  0  0  0  0  0  0  0
    3.7020    7.8250  -14.3790 O   0  0  0  0  0  0  0  0  0  0  0  0
    3.2040    8.6390  -15.3960 C   0  0  0  0  0  0  0  0  0  0  0  0
    2.8460   10.0190  -14.8300 C   0  0  0  0  0  0  0  0  0  0  0  0
   -6.7910   11.8400  -12.7410 H   0  0  0  0  0  0  0  0  0  0  0  0
   -8.1820    9.7310  -16.9710 H   0  0  0  0  0  0  0  0  0  0  0  0
   -9.5580   11.5810  -15.9940 H   0  0  0  0  0  0  0  0  0  0  0  0
   -5.4910    8.8360  -16.8090 H   0  0  0  0  0  0  0  0  0  0  0  0
   -5.1910    9.4070  -12.5710 H   0  0  0  0  0  0  0  0  0  0  0  0
   -2.9310    8.9240  -12.7280 H   0  0  0  0  0  0  0  0  0  0  0  0
   -1.5570   14.2790  -15.0880 H   0  0  0  0  0  0  0  0  0  0  0  0
    0.1260   15.0320  -15.0240 H   0  0  0  0  0  0  0  0  0  0  0  0
   -2.4150   15.9150  -13.5710 H   0  0  0  0  0  0  0  0  0  0  0  0
   -1.5300   16.7260  -14.8890 H   0  0  0  0  0  0  0  0  0  0  0  0
    0.9870   16.5640  -11.8120 H   0  0  0  0  0  0  0  0  0  0  0  0
    1.1650   15.8100  -13.4510 H   0  0  0  0  0  0  0  0  0  0  0  0
    0.6700   14.1230  -11.5300 H   0  0  0  0  0  0  0  0  0  0  0  0
   -1.0100   14.8840  -11.5970 H   0  0  0  0  0  0  0  0  0  0  0  0
    3.3340    9.1710  -12.2530 H   0  0  0  0  0  0  0  0  0  0  0  0
    1.5760    8.6970  -11.9740 H   0  0  0  0  0  0  0  0  0  0  0  0
    1.8100    7.1540  -13.9990 H   0  0  0  0  0  0  0  0  0  0  0  0
    3.0640    6.7650  -12.7510 H   0  0  0  0  0  0  0  0  0  0  0  0
    2.2520    8.1790  -15.7300 H   0  0  0  0  0  0  0  0  0  0  0  0
    3.9490    8.7210  -16.1960 H   0  0  0  0  0  0  0  0  0  0  0  0
    3.7610   10.5860  -14.5750 H   0  0  0  0  0  0  0  0  0  0  0  0
    2.2890   10.5620  -15.6260 H   0  0  0  0  0  0  0  0  0  0  0  0
  2  3  1  0  0  0  0
  2  1  1  0  0  0  0
  3 30  1  0  0  0  0
  4  3  2  0  0  0  0
  4  9  1  0  0  0  0
  5  4  1  0  0  0  0
  6  7  1  0  0  0  0
  6  5  2  0  0  0  0
  7  2  2  0  0  0  0
  8  5  1  0  0  0  0
  9 34  1  0  0  0  0
 10  9  2  0  0  0  0
 10 11  1  0  0  0  0
 11 35  1  0  0  0  0
 12 17  1  0  0  0  0
 12 11  1  0  0  0  0
 13 12  2  0  0  0  0
 14 15  1  0  0  0  0
 14 13  2  0  0  0  0
 15 16  2  0  0  0  0
 16 18  1  0  0  0  0
 16 17  1  0  0  0  0
 18 23  1  0  0  0  0
 19 20  1  0  0  0  0
 19 18  1  0  0  0  0
 20 38  1  0  0  0  0
 20 21  1  0  0  0  0
 21 22  1  0  0  0  0
 22 23  1  0  0  0  0
 22 40  1  0  0  0  0
 23 43  1  0  0  0  0
 23 42  1  0  0  0  0
 24 14  1  0  0  0  0
 24 25  1  0  0  0  0
 25 44  1  0  0  0  0
 25 45  1  0  0  0  0
 26 47  1  0  0  0  0
 26 25  1  0  0  0  0
 27 26  1  0  0  0  0
 28 29  1  0  0  0  0
 28 27  1  0  0  0  0
 29 50  1  0  0  0  0
 29 24  1  0  0  0  0
 31  6  1  0  0  0  0
 32  7  1  0  0  0  0
 33  8  1  0  0  0  0
 36 19  1  0  0  0  0
 37 19  1  0  0  0  0
 39 20  1  0  0  0  0
 41 22  1  0  0  0  0
 46 26  1  0  0  0  0
 48 28  1  0  0  0  0
 49 28  1  0  0  0  0
 51 29  1  0  0  0  0
M  END
>  <Pose>
1

>  <Score>
-7.10

$$$$
