
 OpenBabel03232203513D

 46 49  0  0  0  0  0  0  0  0999 V2000
   -4.6690    8.9300  -15.0910 Cl  0  0  0  0  0  0  0  0  0  0  0  0
   -3.4310    7.7740  -14.6400 C   0  0  0  0  0  0  0  0  0  0  0  0
   -2.4880    8.0290  -13.6660 C   0  0  0  0  0  0  0  0  0  0  0  0
   -1.5140    7.1250  -13.3080 C   0  0  0  0  0  0  0  0  0  0  0  0
   -1.4570    5.9040  -13.9390 C   0  0  0  0  0  0  0  0  0  0  0  0
   -2.3940    5.6320  -14.9200 C   0  0  0  0  0  0  0  0  0  0  0  0
   -3.3660    6.5470  -15.2690 C   0  0  0  0  0  0  0  0  0  0  0  0
   -0.5230    7.4360  -12.2570 C   0  0  0  0  0  0  0  0  0  0  0  0
    0.8280    7.5060  -12.7630 N   0  0  0  0  0  0  0  0  0  0  0  0
    1.8890    6.5540  -12.5940 C   0  0  0  0  0  0  0  0  0  0  0  0
    1.7890    5.4610  -11.9440 O   0  0  0  0  0  0  0  0  0  0  0  0
    3.0520    7.0300  -13.2670 N   0  0  0  0  0  0  0  0  0  0  0  0
    2.8650    8.4570  -13.4050 C   0  0  0  0  0  0  0  0  0  0  0  0
    3.2110    9.0800  -12.0660 C   0  0  0  0  0  0  0  0  0  0  0  0
    2.6010   10.4770  -12.0790 C   0  0  0  0  0  0  0  0  0  0  0  0
    2.9430   11.1560  -13.3150 N   0  0  0  0  0  0  0  0  0  0  0  0
    3.8580   10.5390  -14.2380 C   0  0  0  0  0  0  0  0  0  0  0  0
    3.6330    9.0840  -14.4890 C   0  0  0  0  0  0  0  0  0  0  0  0
    2.3760   12.4250  -13.6020 C   0  0  0  0  0  0  0  0  0  0  0  0
    2.2460   12.7930  -14.8130 O   0  0  0  0  0  0  0  0  0  0  0  0
    1.9260   13.3520  -12.5780 C   0  0  0  0  0  0  0  0  0  0  0  0
    0.6340   13.7090  -12.4380 N   0  0  0  0  0  0  0  0  0  0  0  0
    0.2880   14.5740  -11.4680 C   0  0  0  0  0  0  0  0  0  0  0  0
    1.2080   15.1190  -10.5990 C   0  0  0  0  0  0  0  0  0  0  0  0
    2.4960   14.7660  -10.7360 N   0  0  0  0  0  0  0  0  0  0  0  0
    2.8510   13.8910  -11.7150 C   0  0  0  0  0  0  0  0  0  0  0  0
    1.3910    8.5520  -13.5500 C   0  0  0  0  0  0  0  0  0  0  0  0
    0.6960    9.3670  -14.2150 O   0  0  0  0  0  0  0  0  0  0  0  0
   -2.5520    8.9960  -13.1810 H   0  0  0  0  0  0  0  0  0  0  0  0
   -0.7090    5.1420  -13.7030 H   0  0  0  0  0  0  0  0  0  0  0  0
   -2.3410    4.6590  -15.4160 H   0  0  0  0  0  0  0  0  0  0  0  0
   -4.1000    6.3330  -16.0370 H   0  0  0  0  0  0  0  0  0  0  0  0
   -0.8460    8.3570  -11.7500 H   0  0  0  0  0  0  0  0  0  0  0  0
   -0.5320    6.6340  -11.4650 H   0  0  0  0  0  0  0  0  0  0  0  0
    3.8660    6.4740  -13.5900 H   0  0  0  0  0  0  0  0  0  0  0  0
    2.7170    8.4520  -11.2960 H   0  0  0  0  0  0  0  0  0  0  0  0
    4.3080    9.1190  -11.9220 H   0  0  0  0  0  0  0  0  0  0  0  0
    2.9450   11.0740  -11.2400 H   0  0  0  0  0  0  0  0  0  0  0  0
    1.5080   10.3290  -11.9880 H   0  0  0  0  0  0  0  0  0  0  0  0
    4.8810   10.7610  -13.8620 H   0  0  0  0  0  0  0  0  0  0  0  0
    3.8050   11.0430  -15.2470 H   0  0  0  0  0  0  0  0  0  0  0  0
    4.6600    8.6090  -14.4880 H   0  0  0  0  0  0  0  0  0  0  0  0
    3.2540    8.8740  -15.5120 H   0  0  0  0  0  0  0  0  0  0  0  0
   -0.7580   14.8700  -11.3460 H   0  0  0  0  0  0  0  0  0  0  0  0
    0.8700   15.8080   -9.8410 H   0  0  0  0  0  0  0  0  0  0  0  0
    3.9170   13.6280  -11.7930 H   0  0  0  0  0  0  0  0  0  0  0  0
  1  2  1  0  0  0  0
  2  3  1  0  0  0  0
  3  4  2  0  0  0  0
  3 29  1  0  0  0  0
  4  8  1  0  0  0  0
  5 30  1  0  0  0  0
  5  4  1  0  0  0  0
  6  5  2  0  0  0  0
  7  6  1  0  0  0  0
  7  2  2  0  0  0  0
  8 33  1  0  0  0  0
  8 34  1  0  0  0  0
  9 10  1  0  0  0  0
  9  8  1  0  0  0  0
 10 11  2  0  0  0  0
 12 10  1  0  0  0  0
 13 12  1  0  0  0  0
 13 14  1  0  0  0  0
 14 37  1  0  0  0  0
 14 36  1  0  0  0  0
 15 14  1  0  0  0  0
 15 39  1  0  0  0  0
 15 38  1  0  0  0  0
 16 15  1  0  0  0  0
 17 40  1  0  0  0  0
 17 16  1  0  0  0  0
 18 42  1  0  0  0  0
 18 17  1  0  0  0  0
 18 13  1  0  0  0  0
 19 16  1  0  0  0  0
 19 21  1  0  0  0  0
 20 19  2  0  0  0  0
 21 22  2  0  0  0  0
 21 26  1  0  0  0  0
 22 23  1  0  0  0  0
 23 44  1  0  0  0  0
 23 24  2  0  0  0  0
 24 45  1  0  0  0  0
 25 24  1  0  0  0  0
 26 25  2  0  0  0  0
 27 13  1  0  0  0  0
 27  9  1  0  0  0  0
 28 27  2  0  0  0  0
 31  6  1  0  0  0  0
 32  7  1  0  0  0  0
 35 12  1  0  0  0  0
 41 17  1  0  0  0  0
 43 18  1  0  0  0  0
 46 26  1  0  0  0  0
M  END
>  <Pose>
1

>  <Score>
-5.48

$$$$
