
 OpenBabel03232203513D

 37 40  0  0  0  0  0  0  0  0999 V2000
   -3.9500   19.6140  -12.3490 Cl  0  0  0  0  0  0  0  0  0  0  0  0
   -2.7160   18.3570  -12.3680 C   0  0  0  0  0  0  0  0  0  0  0  0
   -2.6670   17.4220  -13.3800 C   0  0  0  0  0  0  0  0  0  0  0  0
   -1.7000   16.4340  -13.3960 C   0  0  0  0  0  0  0  0  0  0  0  0
   -0.7440   16.3380  -12.4080 C   0  0  0  0  0  0  0  0  0  0  0  0
   -0.8010   17.2800  -11.3970 C   0  0  0  0  0  0  0  0  0  0  0  0
   -1.7640   18.2710  -11.3730 C   0  0  0  0  0  0  0  0  0  0  0  0
    0.2500   15.3150  -12.4330 N   0  0  0  0  0  0  0  0  0  0  0  0
    0.1330   14.0650  -12.9330 C   0  0  0  0  0  0  0  0  0  0  0  0
   -0.9060   13.6180  -13.4640 O   0  0  0  0  0  0  0  0  0  0  0  0
    1.3120   13.3550  -12.7780 C   0  0  0  0  0  0  0  0  0  0  0  0
    2.1640   14.1930  -12.1700 C   0  0  0  0  0  0  0  0  0  0  0  0
    3.3050   13.4960  -12.0250 N   0  0  0  0  0  0  0  0  0  0  0  0
    3.1500   12.2840  -12.5260 N   0  0  0  0  0  0  0  0  0  0  0  0
    1.9250   12.1800  -12.9940 N   0  0  0  0  0  0  0  0  0  0  0  0
    1.3270   11.0260  -13.6230 C   0  0  0  0  0  0  0  0  0  0  0  0
    2.2280    9.8560  -13.7000 C   0  0  0  0  0  0  0  0  0  0  0  0
    3.3420    9.9070  -14.5010 C   0  0  0  0  0  0  0  0  0  0  0  0
    4.1650    8.8060  -14.5600 C   0  0  0  0  0  0  0  0  0  0  0  0
    3.8920    7.6600  -13.8340 C   0  0  0  0  0  0  0  0  0  0  0  0
    2.7750    7.6080  -13.0310 C   0  0  0  0  0  0  0  0  0  0  0  0
    1.9680    8.7100  -12.9830 C   0  0  0  0  0  0  0  0  0  0  0  0
    1.5030   15.3850  -11.9650 C   0  0  0  0  0  0  0  0  0  0  0  0
    2.0090   16.4010  -11.4140 O   0  0  0  0  0  0  0  0  0  0  0  0
   -3.4220   17.5060  -14.1510 H   0  0  0  0  0  0  0  0  0  0  0  0
   -1.6660   15.7010  -14.1960 H   0  0  0  0  0  0  0  0  0  0  0  0
   -0.0660   17.2240  -10.6170 H   0  0  0  0  0  0  0  0  0  0  0  0
   -1.8060   19.0170  -10.5690 H   0  0  0  0  0  0  0  0  0  0  0  0
    4.1910   13.8270  -11.5920 H   0  0  0  0  0  0  0  0  0  0  0  0
    3.8840   11.5150  -12.5500 H   0  0  0  0  0  0  0  0  0  0  0  0
    0.4140   10.7250  -13.0370 H   0  0  0  0  0  0  0  0  0  0  0  0
    0.9310   11.2810  -14.6440 H   0  0  0  0  0  0  0  0  0  0  0  0
    3.5890   10.8020  -15.0910 H   0  0  0  0  0  0  0  0  0  0  0  0
    5.0530    8.8550  -15.2020 H   0  0  0  0  0  0  0  0  0  0  0  0
    4.5410    6.7770  -13.8740 H   0  0  0  0  0  0  0  0  0  0  0  0
    2.5380    6.7300  -12.4550 H   0  0  0  0  0  0  0  0  0  0  0  0
    1.0860    8.6360  -12.3350 H   0  0  0  0  0  0  0  0  0  0  0  0
  2  1  1  0  0  0  0
  2  7  1  0  0  0  0
  3  2  2  0  0  0  0
  4  3  1  0  0  0  0
  4  5  2  0  0  0  0
  5  6  1  0  0  0  0
  6  7  2  0  0  0  0
  6 27  1  0  0  0  0
  7 28  1  0  0  0  0
  8  5  1  0  0  0  0
  8 23  1  0  0  0  0
  9 11  1  0  0  0  0
  9  8  1  0  0  0  0
 10  9  2  0  0  0  0
 11 12  2  0  0  0  0
 12 13  1  0  0  0  0
 12 23  1  0  0  0  0
 13 29  1  0  0  0  0
 14 13  1  0  0  0  0
 15 11  1  0  0  0  0
 15 14  1  0  0  0  0
 16 31  1  0  0  0  0
 16 15  1  0  0  0  0
 17 16  1  0  0  0  0
 17 22  1  0  0  0  0
 18 17  2  0  0  0  0
 19 18  1  0  0  0  0
 19 20  2  0  0  0  0
 20 21  1  0  0  0  0
 21 22  2  0  0  0  0
 21 36  1  0  0  0  0
 22 37  1  0  0  0  0
 23 24  2  0  0  0  0
 25  3  1  0  0  0  0
 26  4  1  0  0  0  0
 30 14  1  0  0  0  0
 32 16  1  0  0  0  0
 33 18  1  0  0  0  0
 34 19  1  0  0  0  0
 35 20  1  0  0  0  0
M  END
>  <Pose>
1

>  <Score>
-6.24

$$$$
