
 OpenBabel03232203513D

 60 63  0  0  1  0  0  0  0  0999 V2000
    8.0440    6.9500  -13.5300 Cl  0  0  0  0  0  0  0  0  0  0  0  0
    6.4100    6.3090  -13.3620 C   0  0  0  0  0  0  0  0  0  0  0  0
    5.3410    7.1590  -13.4440 C   0  0  0  0  0  0  0  0  0  0  0  0
    4.0600    6.6870  -13.3170 C   0  0  0  0  0  0  0  0  0  0  0  0
    3.8950    5.3060  -13.0970 C   0  0  0  0  0  0  0  0  0  0  0  0
    4.9660    4.4780  -13.0180 C   0  0  0  0  0  0  0  0  0  0  0  0
    6.2450    4.9530  -13.1480 C   0  0  0  0  0  0  0  0  0  0  0  0
    2.9820    7.4120  -13.3820 O   0  0  0  0  0  0  0  0  0  0  0  0
    2.1760    8.2370  -14.0110 C   0  0  0  0  0  0  0  0  0  0  0  0
    1.3600    9.2520  -13.2630 C   0  0  1  0  0  0  0  0  0  0  0  0
    2.1640    9.6780  -12.1960 O   0  0  0  0  0  0  0  0  0  0  0  0
    3.0490   10.6720  -12.5120 C   0  0  0  0  0  0  0  0  0  0  0  0
    2.4020   12.0170  -12.7740 C   0  0  0  0  0  0  0  0  0  0  0  0
    1.1580   11.6750  -13.5120 N   0  0  0  0  0  0  0  0  0  0  0  0
    1.2110   10.4520  -14.2160 C   0  0  0  0  0  0  0  0  0  0  0  0
    0.0990   12.5560  -13.4460 C   0  0  0  0  0  0  0  0  0  0  0  0
   -1.0650   12.2170  -13.9150 O   0  0  0  0  0  0  0  0  0  0  0  0
    0.1570   13.8700  -12.8830 C   0  0  0  0  0  0  0  0  0  0  0  0
   -0.6460   14.8690  -13.2480 N   0  0  0  0  0  0  0  0  0  0  0  0
   -0.5980   16.1090  -12.7220 C   0  0  0  0  0  0  0  0  0  0  0  0
    0.3360   16.3940  -11.7380 C   0  0  0  0  0  0  0  0  0  0  0  0
    1.1500   15.4260  -11.3500 N   0  0  0  0  0  0  0  0  0  0  0  0
    1.0850   14.1970  -11.8880 C   0  0  0  0  0  0  0  0  0  0  0  0
    0.3440   17.7750  -11.1950 C   0  0  0  0  0  0  0  0  0  0  0  0
    0.0790    8.8040  -12.7240 C   0  0  0  0  0  0  0  0  0  0  0  0
   -0.4960    7.5560  -13.2300 C   0  0  0  0  0  0  0  0  0  0  0  0
   -0.0820    6.4510  -12.8320 O   0  0  0  0  0  0  0  0  0  0  0  0
   -1.5470    7.5600  -14.1920 N   0  0  0  0  0  0  0  0  0  0  0  0
   -2.2780    8.7790  -14.5170 C   0  0  0  0  0  0  0  0  0  0  0  0
   -3.7520    8.4350  -14.4870 C   0  0  0  0  0  0  0  0  0  0  0  0
   -3.9920    7.4010  -15.3980 O   0  0  0  0  0  0  0  0  0  0  0  0
   -3.4270    6.2290  -14.8980 C   0  0  0  0  0  0  0  0  0  0  0  0
   -1.9380    6.3560  -14.8950 C   0  0  0  0  0  0  0  0  0  0  0  0
    5.4940    8.2170  -13.5960 H   0  0  0  0  0  0  0  0  0  0  0  0
    2.8970    4.8770  -12.9880 H   0  0  0  0  0  0  0  0  0  0  0  0
    4.8600    3.4070  -12.8500 H   0  0  0  0  0  0  0  0  0  0  0  0
    7.1210    4.3440  -13.0930 H   0  0  0  0  0  0  0  0  0  0  0  0
    2.7190    8.7920  -14.8760 H   0  0  0  0  0  0  0  0  0  0  0  0
    1.4120    7.6260  -14.6340 H   0  0  0  0  0  0  0  0  0  0  0  0
    3.7270   10.8090  -11.6540 H   0  0  0  0  0  0  0  0  0  0  0  0
    3.6750   10.3540  -13.3650 H   0  0  0  0  0  0  0  0  0  0  0  0
    3.0830   12.6030  -13.3930 H   0  0  0  0  0  0  0  0  0  0  0  0
    2.0750   12.4790  -11.8430 H   0  0  0  0  0  0  0  0  0  0  0  0
    2.2110   10.4670  -14.7760 H   0  0  0  0  0  0  0  0  0  0  0  0
    0.4830   10.2430  -14.9780 H   0  0  0  0  0  0  0  0  0  0  0  0
   -1.2940   16.8550  -13.0840 H   0  0  0  0  0  0  0  0  0  0  0  0
    1.7620   13.4290  -11.5510 H   0  0  0  0  0  0  0  0  0  0  0  0
    0.8810   17.8260  -10.2190 H   0  0  0  0  0  0  0  0  0  0  0  0
    0.8340   18.4130  -11.9580 H   0  0  0  0  0  0  0  0  0  0  0  0
   -0.6730   18.1800  -11.0340 H   0  0  0  0  0  0  0  0  0  0  0  0
   -0.7080    9.6420  -12.8700 H   0  0  0  0  0  0  0  0  0  0  0  0
    0.1210    8.7790  -11.5940 H   0  0  0  0  0  0  0  0  0  0  0  0
   -2.0550    9.5910  -13.7980 H   0  0  0  0  0  0  0  0  0  0  0  0
   -2.0470    9.1000  -15.5650 H   0  0  0  0  0  0  0  0  0  0  0  0
   -4.0240    8.1530  -13.4610 H   0  0  0  0  0  0  0  0  0  0  0  0
   -4.3800    9.2910  -14.8290 H   0  0  0  0  0  0  0  0  0  0  0  0
   -3.7600    6.0030  -13.8680 H   0  0  0  0  0  0  0  0  0  0  0  0
   -3.6900    5.4100  -15.6090 H   0  0  0  0  0  0  0  0  0  0  0  0
   -1.5170    5.4420  -14.4300 H   0  0  0  0  0  0  0  0  0  0  0  0
   -1.5010    6.4080  -15.9150 H   0  0  0  0  0  0  0  0  0  0  0  0
  1  2  1  0  0  0  0
  2  7  1  0  0  0  0
  3  2  2  0  0  0  0
  3  4  1  0  0  0  0
  4  5  2  0  0  0  0
  5  6  1  0  0  0  0
  5 35  1  0  0  0  0
  6 36  1  0  0  0  0
  7 37  1  0  0  0  0
  7  6  2  0  0  0  0
  8  4  1  0  0  0  0
  9  8  1  0  0  0  0
 10  9  1  6  0  0  0
 10 25  1  0  0  0  0
 10 11  1  0  0  0  0
 12 11  1  0  0  0  0
 12 40  1  0  0  0  0
 13 12  1  0  0  0  0
 13 43  1  0  0  0  0
 14 16  1  0  0  0  0
 14 13  1  0  0  0  0
 15 14  1  0  0  0  0
 15 10  1  0  0  0  0
 16 18  1  0  0  0  0
 17 16  2  0  0  0  0
 18 23  1  0  0  0  0
 19 18  2  0  0  0  0
 19 20  1  0  0  0  0
 20 21  2  0  0  0  0
 21 22  1  0  0  0  0
 21 24  1  0  0  0  0
 23 47  1  0  0  0  0
 23 22  2  0  0  0  0
 24 50  1  0  0  0  0
 24 48  1  0  0  0  0
 25 52  1  0  0  0  0
 26 27  2  0  0  0  0
 26 25  1  0  0  0  0
 28 26  1  0  0  0  0
 29 30  1  0  0  0  0
 29 28  1  0  0  0  0
 29 53  1  0  0  0  0
 30 55  1  0  0  0  0
 31 32  1  0  0  0  0
 31 30  1  0  0  0  0
 32 33  1  0  0  0  0
 32 57  1  0  0  0  0
 33 59  1  0  0  0  0
 33 28  1  0  0  0  0
 34  3  1  0  0  0  0
 38  9  1  0  0  0  0
 39  9  1  0  0  0  0
 41 12  1  0  0  0  0
 42 13  1  0  0  0  0
 44 15  1  0  0  0  0
 45 15  1  0  0  0  0
 46 20  1  0  0  0  0
 49 24  1  0  0  0  0
 51 25  1  0  0  0  0
 54 29  1  0  0  0  0
 56 30  1  0  0  0  0
 58 32  1  0  0  0  0
 60 33  1  0  0  0  0
M  END
>  <Pose>
1

>  <Score>
-5.17

$$$$
