
 OpenBabel03232203513D

 51 54  0  0  1  0  0  0  0  0999 V2000
   -2.0150    9.1720  -13.7650 Cl  0  0  0  0  0  0  0  0  0  0  0  0
   -0.2970    9.4040  -13.7470 C   0  0  0  0  0  0  0  0  0  0  0  0
    0.4940    8.5770  -14.4330 N   0  0  0  0  0  4  0  0  0  0  0  0
    1.8230    8.7100  -14.4540 C   0  0  0  0  0  0  0  0  0  0  0  0
    2.7880    8.0270  -15.0570 N   0  0  0  0  0  0  0  0  0  0  0  0
    3.9280    8.6390  -14.7100 C   0  0  0  0  0  0  0  0  0  0  0  0
    3.7090    9.6880  -13.9060 N   0  0  0  0  0  0  0  0  0  0  0  0
    2.3820    9.7650  -13.7180 C   0  0  0  0  0  0  0  0  0  0  0  0
    1.5800   10.6210  -13.0100 C   0  0  0  0  0  0  0  0  0  0  0  0
    0.2320   10.4100  -13.0450 N   0  0  0  0  0  0  0  0  0  0  0  0
    2.1410   11.6700  -12.2520 N   0  0  0  0  0  0  0  0  0  0  0  0
    3.0060   12.6060  -12.9320 C   0  0  0  0  0  0  0  0  0  0  0  0
    3.6460   13.6070  -12.0090 C   0  0  0  0  0  0  0  0  0  0  0  0
    2.6230   14.1400  -11.0670 C   0  0  2  0  0  0  0  0  0  0  0  0
    2.1210   13.0430  -10.1920 C   0  0  0  0  0  0  0  0  0  0  0  0
    1.8240   11.7510  -10.8600 C   0  0  0  0  0  0  0  0  0  0  0  0
    1.5820   14.9180  -11.7400 C   0  0  0  0  0  0  0  0  0  0  0  0
    1.5530   14.9180  -12.9950 O   0  0  0  0  0  0  0  0  0  0  0  0
    0.6110   15.6700  -11.0480 N   0  0  0  0  0  0  0  0  0  0  0  0
    0.4100   17.0880  -11.2330 C   0  0  0  0  0  0  0  0  0  0  0  0
   -0.7110   17.6520  -10.4080 C   0  0  0  0  0  0  0  0  0  0  0  0
   -1.4980   18.6000  -11.1750 N   0  0  0  0  0  0  0  0  0  0  0  0
   -2.2130   19.5220  -10.3580 C   0  0  0  0  0  0  0  0  0  0  0  0
   -3.6980   19.2270  -10.3990 C   0  0  0  0  0  0  0  0  0  0  0  0
   -4.1300   19.4240  -11.6870 O   0  0  0  0  0  0  0  0  0  0  0  0
   -3.4560   18.7360  -12.6620 C   0  0  0  0  0  0  0  0  0  0  0  0
   -2.2390   17.9980  -12.2250 C   0  0  0  0  0  0  0  0  0  0  0  0
    4.9070    8.3290  -15.0360 H   0  0  0  0  0  0  0  0  0  0  0  0
    4.4040   10.3490  -13.4870 H   0  0  0  0  0  0  0  0  0  0  0  0
    2.5580   13.0790  -13.8160 H   0  0  0  0  0  0  0  0  0  0  0  0
    3.8770   12.0100  -13.3580 H   0  0  0  0  0  0  0  0  0  0  0  0
    4.4730   13.1520  -11.4410 H   0  0  0  0  0  0  0  0  0  0  0  0
    4.0530   14.4190  -12.6430 H   0  0  0  0  0  0  0  0  0  0  0  0
    3.1650   14.8680  -10.3940 H   0  0  0  0  0  0  0  0  0  0  0  0
    2.9290   12.8420   -9.4270 H   0  0  0  0  0  0  0  0  0  0  0  0
    1.2710   13.4350   -9.5960 H   0  0  0  0  0  0  0  0  0  0  0  0
    0.7280   11.5390  -10.7000 H   0  0  0  0  0  0  0  0  0  0  0  0
    2.3340   10.8750  -10.3610 H   0  0  0  0  0  0  0  0  0  0  0  0
   -0.0130   15.1680  -10.3510 H   0  0  0  0  0  0  0  0  0  0  0  0
    1.3380   17.6440  -11.1210 H   0  0  0  0  0  0  0  0  0  0  0  0
    0.1000   17.2140  -12.3100 H   0  0  0  0  0  0  0  0  0  0  0  0
   -1.3900   16.8060  -10.1690 H   0  0  0  0  0  0  0  0  0  0  0  0
   -0.3750   18.1080   -9.4670 H   0  0  0  0  0  0  0  0  0  0  0  0
   -2.0560   20.5870  -10.6470 H   0  0  0  0  0  0  0  0  0  0  0  0
   -1.8490   19.4300   -9.3140 H   0  0  0  0  0  0  0  0  0  0  0  0
   -3.8840   18.1990  -10.0320 H   0  0  0  0  0  0  0  0  0  0  0  0
   -4.2050   19.9680   -9.7500 H   0  0  0  0  0  0  0  0  0  0  0  0
   -4.1520   18.0740  -13.2520 H   0  0  0  0  0  0  0  0  0  0  0  0
   -3.1180   19.5010  -13.4220 H   0  0  0  0  0  0  0  0  0  0  0  0
   -1.5590   17.7920  -13.0680 H   0  0  0  0  0  0  0  0  0  0  0  0
   -2.5820   16.9850  -11.8620 H   0  0  0  0  0  0  0  0  0  0  0  0
  1  2  1  0  0  0  0
  2 10  1  0  0  0  0
  3  2  2  0  0  0  0
  4  3  2  0  0  0  0
  4  8  1  0  0  0  0
  5  6  2  0  0  0  0
  5  4  1  0  0  0  0
  6  7  1  0  0  0  0
  7  8  1  0  0  0  0
  7 29  1  0  0  0  0
  8  9  2  0  0  0  0
  9 11  1  0  0  0  0
 10  9  1  0  0  0  0
 11 16  1  0  0  0  0
 12 11  1  0  0  0  0
 12 13  1  0  0  0  0
 13 32  1  0  0  0  0
 13 14  1  0  0  0  0
 14 34  1  1  0  0  0
 14 15  1  0  0  0  0
 15 36  1  0  0  0  0
 15 35  1  0  0  0  0
 16 37  1  0  0  0  0
 16 38  1  0  0  0  0
 16 15  1  0  0  0  0
 17 14  1  0  0  0  0
 17 19  1  0  0  0  0
 18 17  2  0  0  0  0
 19 39  1  0  0  0  0
 20 40  1  0  0  0  0
 20 19  1  0  0  0  0
 20 21  1  0  0  0  0
 21 42  1  0  0  0  0
 21 43  1  0  0  0  0
 22 21  1  0  0  0  0
 22 23  1  0  0  0  0
 23 45  1  0  0  0  0
 24 23  1  0  0  0  0
 24 46  1  0  0  0  0
 24 47  1  0  0  0  0
 25 24  1  0  0  0  0
 26 27  1  0  0  0  0
 26 25  1  0  0  0  0
 27 51  1  0  0  0  0
 27 22  1  0  0  0  0
 28  6  1  0  0  0  0
 30 12  1  0  0  0  0
 31 12  1  0  0  0  0
 33 13  1  0  0  0  0
 41 20  1  0  0  0  0
 44 23  1  0  0  0  0
 48 26  1  0  0  0  0
 49 26  1  0  0  0  0
 50 27  1  0  0  0  0
M  END
>  <Pose>
1

>  <Score>
-5.58

$$$$
