
 OpenBabel03232203513D

 39 42  0  0  0  0  0  0  0  0999 V2000
   -3.7620   18.7770  -13.7280 Cl  0  0  0  0  0  0  0  0  0  0  0  0
   -2.4020   17.8130  -13.1770 C   0  0  0  0  0  0  0  0  0  0  0  0
   -1.8440   18.0100  -11.9280 C   0  0  0  0  0  0  0  0  0  0  0  0
   -0.7730   17.2410  -11.5120 C   0  0  0  0  0  0  0  0  0  0  0  0
   -0.2210   16.2630  -12.3060 C   0  0  0  0  0  0  0  0  0  0  0  0
   -0.7740   16.0630  -13.5550 C   0  0  0  0  0  0  0  0  0  0  0  0
   -1.8480   16.8270  -13.9820 C   0  0  0  0  0  0  0  0  0  0  0  0
    0.9070   15.4580  -11.8580 C   0  0  0  0  0  0  0  0  0  0  0  0
    1.5550   15.6030  -10.6920 N   0  0  0  0  0  0  0  0  0  0  0  0
    2.5120   14.7290  -10.5990 O   0  0  0  0  0  0  0  0  0  0  0  0
    2.5240   13.9950  -11.6840 C   0  0  0  0  0  0  0  0  0  0  0  0
    1.5200   14.4430  -12.4840 N   0  0  0  0  0  0  0  0  0  0  0  0
    3.4760   12.8950  -11.9390 C   0  0  0  0  0  0  0  0  0  0  0  0
    2.8610   11.8980  -12.8160 N   0  0  0  0  0  0  0  0  0  0  0  0
    3.6620   11.0180  -13.4520 C   0  0  0  0  0  0  0  0  0  0  0  0
    3.1380   10.0630  -14.2850 C   0  0  0  0  0  0  0  0  0  0  0  0
    1.6850   10.0030  -14.4810 C   0  0  0  0  0  0  0  0  0  0  0  0
    1.4560    8.9840  -15.3370 N   0  0  0  0  0  0  0  0  0  0  0  0
    2.6020    8.4290  -15.6720 N   0  0  0  0  0  0  0  0  0  0  0  0
    3.6410    9.0310  -15.0750 C   0  0  0  0  0  0  0  0  0  0  0  0
    4.8590    8.7490  -15.1810 O   0  0  0  0  0  0  0  0  0  0  0  0
    0.9070   10.9230  -13.8100 C   0  0  0  0  0  0  0  0  0  0  0  0
    1.5450   11.8270  -13.0080 C   0  0  0  0  0  0  0  0  0  0  0  0
   -0.5460   10.8940  -13.9810 C   0  0  0  0  0  0  0  0  0  0  0  0
   -1.1490   11.8740  -14.4410 O   0  0  0  0  0  0  0  0  0  0  0  0
   -1.2840    9.7760  -13.6330 O   0  0  0  0  0  0  0  0  0  0  0  0
   -2.6330    9.8240  -13.2320 C   0  0  0  0  0  0  0  0  0  0  0  0
   -2.2660   18.7800  -11.2820 H   0  0  0  0  0  0  0  0  0  0  0  0
   -0.3390   17.3970  -10.5340 H   0  0  0  0  0  0  0  0  0  0  0  0
   -0.3430   15.2920  -14.1850 H   0  0  0  0  0  0  0  0  0  0  0  0
   -2.2840   16.6750  -14.9560 H   0  0  0  0  0  0  0  0  0  0  0  0
    4.3450   13.3060  -12.4790 H   0  0  0  0  0  0  0  0  0  0  0  0
    3.7730   12.3820  -10.9930 H   0  0  0  0  0  0  0  0  0  0  0  0
    4.7310   11.0570  -13.3100 H   0  0  0  0  0  0  0  0  0  0  0  0
    2.6880    7.6250  -16.3200 H   0  0  0  0  0  0  0  0  0  0  0  0
    0.9150   12.5470  -12.4840 H   0  0  0  0  0  0  0  0  0  0  0  0
   -3.0180   10.8470  -13.1270 H   0  0  0  0  0  0  0  0  0  0  0  0
   -3.3000    9.3020  -13.9780 H   0  0  0  0  0  0  0  0  0  0  0  0
   -2.7170    9.2160  -12.3070 H   0  0  0  0  0  0  0  0  0  0  0  0
  1  2  1  0  0  0  0
  2  3  1  0  0  0  0
  3  4  2  0  0  0  0
  3 28  1  0  0  0  0
  4 29  1  0  0  0  0
  5  8  1  0  0  0  0
  5  4  1  0  0  0  0
  6  5  2  0  0  0  0
  7  6  1  0  0  0  0
  7  2  2  0  0  0  0
  8  9  2  0  0  0  0
  9 10  1  0  0  0  0
 11 10  1  0  0  0  0
 12  8  1  0  0  0  0
 12 11  2  0  0  0  0
 13 11  1  0  0  0  0
 13 33  1  0  0  0  0
 14 13  1  0  0  0  0
 15 34  1  0  0  0  0
 15 14  1  0  0  0  0
 16 15  1  0  0  0  0
 17 16  2  0  0  0  0
 17 22  1  0  0  0  0
 18 17  1  0  0  0  0
 19 18  1  0  0  0  0
 19 20  1  0  0  0  0
 20 16  1  0  0  0  0
 21 20  2  0  0  0  0
 22 23  2  0  0  0  0
 23 14  1  0  0  0  0
 23 36  1  0  0  0  0
 24 22  1  0  0  0  0
 24 26  1  0  0  0  0
 25 24  2  0  0  0  0
 26 27  1  0  0  0  0
 27 37  1  0  0  0  0
 27 39  1  0  0  0  0
 30  6  1  0  0  0  0
 31  7  1  0  0  0  0
 32 13  1  0  0  0  0
 35 19  1  0  0  0  0
 38 27  1  0  0  0  0
M  END
>  <Pose>
1

>  <Score>
-6.69

$$$$
