
 OpenBabel03232203513D

 58 58  0  0  1  0  0  0  0  0999 V2000
   -3.9840   20.4290  -10.2090 Cl  0  0  0  0  0  0  0  0  0  0  0  0
   -3.1590   19.2270  -11.1900 C   0  0  0  0  0  0  0  0  0  0  0  0
   -1.9680   18.6540  -10.8240 C   0  0  0  0  0  0  0  0  0  0  0  0
   -1.3240   17.7060  -11.6040 C   0  0  0  0  0  0  0  0  0  0  0  0
   -0.1890   16.9950  -11.5090 N   0  0  0  0  0  0  0  0  0  0  0  0
   -0.0310   16.1920  -12.5750 C   0  0  0  0  0  0  0  0  0  0  0  0
   -1.1240   16.4270  -13.3580 N   0  0  0  0  0  0  0  0  0  0  0  0
   -1.9220   17.3390  -12.7910 C   0  0  0  0  0  0  0  0  0  0  0  0
   -3.1190   17.8900  -13.1980 C   0  0  0  0  0  0  0  0  0  0  0  0
   -3.7300   18.8380  -12.3840 C   0  0  0  0  0  0  0  0  0  0  0  0
   -1.3270   15.7350  -14.6300 C   0  0  0  0  0  0  0  0  0  0  0  0
    1.0670   15.2430  -12.8810 C   0  0  0  0  0  0  0  0  0  0  0  0
    0.9140   13.9090  -12.2280 C   0  0  0  0  0  0  0  0  0  0  0  0
    2.0850   13.0180  -12.4140 C   0  0  0  0  0  0  0  0  0  0  0  0
    3.1970   13.3690  -11.9400 O   0  0  0  0  0  0  0  0  0  0  0  0
    1.9790   11.7980  -13.1050 N   0  0  0  0  0  0  0  0  0  0  0  0
    0.7450   11.3770  -13.7710 C   0  0  0  0  0  0  0  0  0  0  0  0
    0.2870   10.1410  -13.0240 C   0  0  2  0  0  0  0  0  0  0  0  0
    1.3740    9.0920  -12.9970 C   0  0  1  0  0  0  0  0  0  0  0  0
    2.5830    9.5560  -13.8160 C   0  0  0  0  0  0  0  0  0  0  0  0
    3.0820   10.8600  -13.2150 C   0  0  0  0  0  0  0  0  0  0  0  0
    1.8920    8.8980  -11.6930 O   0  0  0  0  0  0  0  0  0  0  0  0
    0.9240    7.7430  -13.4690 C   0  0  0  0  0  0  0  0  0  0  0  0
   -0.9930    9.6600  -13.4080 N   0  0  0  0  0  0  0  0  0  0  0  0
   -1.1990    8.3470  -13.7230 C   0  0  0  0  0  0  0  0  0  0  0  0
   -2.4400    7.8780  -14.0970 C   0  0  0  0  0  0  0  0  0  0  0  0
   -3.5050    8.7500  -14.1560 C   0  0  0  0  0  0  0  0  0  0  0  0
   -4.6710    8.3550  -14.4980 O   0  0  0  0  0  0  0  0  0  0  0  0
   -3.2950   10.0400  -13.8440 N   0  0  0  0  0  0  0  0  0  0  0  0
   -2.0480   10.4580  -13.4790 C   0  0  0  0  0  0  0  0  0  0  0  0
   -1.9130   11.6700  -13.2000 O   0  0  0  0  0  0  0  0  0  0  0  0
   -2.6980    6.4590  -14.4460 C   0  0  0  0  0  0  0  0  0  0  0  0
   -1.5110   18.9520   -9.8870 H   0  0  0  0  0  0  0  0  0  0  0  0
   -3.5850   17.6010  -14.1280 H   0  0  0  0  0  0  0  0  0  0  0  0
   -4.6650   19.2740  -12.6940 H   0  0  0  0  0  0  0  0  0  0  0  0
   -1.5820   14.6510  -14.4600 H   0  0  0  0  0  0  0  0  0  0  0  0
   -0.3930   15.7260  -15.2340 H   0  0  0  0  0  0  0  0  0  0  0  0
   -2.1680   16.2260  -15.1740 H   0  0  0  0  0  0  0  0  0  0  0  0
    2.0690   15.6950  -12.6650 H   0  0  0  0  0  0  0  0  0  0  0  0
    1.0560   15.0800  -13.9800 H   0  0  0  0  0  0  0  0  0  0  0  0
    0.7620   14.0810  -11.1250 H   0  0  0  0  0  0  0  0  0  0  0  0
   -0.0170   13.4480  -12.6210 H   0  0  0  0  0  0  0  0  0  0  0  0
    1.0490   11.1750  -14.8190 H   0  0  0  0  0  0  0  0  0  0  0  0
   -0.0440   12.1450  -13.6960 H   0  0  0  0  0  0  0  0  0  0  0  0
    0.1970   10.5050  -11.9530 H   0  0  0  0  0  0  0  0  0  0  0  0
    3.3880    8.8080  -13.6710 H   0  0  0  0  0  0  0  0  0  0  0  0
    2.3680    9.6210  -14.8820 H   0  0  0  0  0  0  0  0  0  0  0  0
    3.8230   11.3080  -13.9090 H   0  0  0  0  0  0  0  0  0  0  0  0
    3.5610   10.6560  -12.2460 H   0  0  0  0  0  0  0  0  0  0  0  0
    2.0920    9.8020  -11.3460 H   0  0  0  0  0  0  0  0  0  0  0  0
    1.4100    6.9110  -12.8790 H   0  0  0  0  0  0  0  0  0  0  0  0
    1.2290    7.5310  -14.5320 H   0  0  0  0  0  0  0  0  0  0  0  0
   -0.1570    7.5930  -13.3680 H   0  0  0  0  0  0  0  0  0  0  0  0
   -0.3470    7.6520  -13.6770 H   0  0  0  0  0  0  0  0  0  0  0  0
   -4.0940   10.7000  -13.8860 H   0  0  0  0  0  0  0  0  0  0  0  0
   -2.9940    5.9540  -13.4930 H   0  0  0  0  0  0  0  0  0  0  0  0
   -3.5660    6.3640  -15.1310 H   0  0  0  0  0  0  0  0  0  0  0  0
   -1.7880    5.9980  -14.8830 H   0  0  0  0  0  0  0  0  0  0  0  0
  2  3  1  0  0  0  0
  2  1  1  0  0  0  0
  3 33  1  0  0  0  0
  4  5  1  0  0  0  0
  4  3  2  0  0  0  0
  6  5  2  0  0  0  0
  7  8  1  0  0  0  0
  7  6  1  0  0  0  0
  8  4  1  0  0  0  0
  9  8  2  0  0  0  0
  9 10  1  0  0  0  0
 10  2  2  0  0  0  0
 11 36  1  0  0  0  0
 11  7  1  0  0  0  0
 12 39  1  0  0  0  0
 12  6  1  0  0  0  0
 12 13  1  0  0  0  0
 13 41  1  0  0  0  0
 14 13  1  0  0  0  0
 14 15  2  0  0  0  0
 16 14  1  0  0  0  0
 17 44  1  0  0  0  0
 17 16  1  0  0  0  0
 17 18  1  0  0  0  0
 18 19  1  0  0  0  0
 18 45  1  1  0  0  0
 19 22  1  1  0  0  0
 20 46  1  0  0  0  0
 20 21  1  0  0  0  0
 20 19  1  0  0  0  0
 21 16  1  0  0  0  0
 21 49  1  0  0  0  0
 22 50  1  0  0  0  0
 23 53  1  0  0  0  0
 23 51  1  0  0  0  0
 24 18  1  0  0  0  0
 25 54  1  0  0  0  0
 27 26  1  0  0  0  0
 27 29  1  0  0  0  0
 28 27  2  0  0  0  0
 29 30  1  0  0  0  0
 30 24  1  0  0  0  0
 30 31  2  0  0  0  0
 32 26  1  0  0  0  0
 32 56  1  0  0  0  0
 34  9  1  0  0  0  0
 35 10  1  0  0  0  0
 37 11  1  0  0  0  0
 38 11  1  0  0  0  0
 40 12  1  0  0  0  0
 42 13  1  0  0  0  0
 43 17  1  0  0  0  0
 47 20  1  0  0  0  0
 48 21  1  0  0  0  0
 52 23  1  0  0  0  0
 55 29  1  0  0  0  0
 57 32  1  0  0  0  0
 58 32  1  0  0  0  0
M  END
>  <Pose>
1

>  <Score>
-6.98

$$$$
