
 OpenBabel03232203513D

 54 57  0  0  1  0  0  0  0  0999 V2000
   -1.7230   17.0010  -13.7270 Cl  0  0  0  0  0  0  0  0  0  0  0  0
   -2.3590   18.0190  -12.4570 C   0  0  0  0  0  0  0  0  0  0  0  0
   -1.5240   18.3470  -11.3950 C   0  0  0  0  0  0  0  0  0  0  0  0
   -2.0430   19.1900  -10.4480 C   0  0  0  0  0  0  0  0  0  0  0  0
   -3.3420   19.6740  -10.5480 C   0  0  0  0  0  0  0  0  0  0  0  0
   -4.1910   19.3430  -11.6240 C   0  0  0  0  0  0  0  0  0  0  0  0
   -3.6210   18.5040  -12.5600 C   0  0  0  0  0  0  0  0  0  0  0  0
   -0.2260   17.6310  -11.2780 C   0  0  0  0  0  0  0  0  0  0  0  0
   -0.3110   16.2650  -11.6490 N   0  0  0  0  0  0  0  0  0  0  0  0
    0.7310   15.4280  -12.0520 C   0  0  0  0  0  0  0  0  0  0  0  0
    0.7680   14.9050  -13.1360 O   0  0  0  0  0  0  0  0  0  0  0  0
    1.8750   15.1950  -11.0600 C   0  0  0  0  0  0  0  0  0  0  0  0
    2.4780   13.9310  -11.4100 N   0  0  0  0  0  0  0  0  0  0  0  0
    3.4740   13.8050  -12.3700 C   0  0  0  0  0  0  0  0  0  0  0  0
    4.0760   12.3430  -12.2280 C   0  0  0  0  0  0  0  0  0  0  0  0
    2.9270   11.6290  -11.7380 N   0  0  0  0  0  0  0  0  0  0  0  0
    2.7810   11.8140  -10.2650 C   0  0  0  0  0  0  0  0  0  0  0  0
    2.9190   13.3030  -10.1150 C   0  0  0  0  0  0  0  0  0  0  0  0
    2.1240   10.8170  -12.4810 C   0  0  0  0  0  0  0  0  0  0  0  0
    2.0040    9.6000  -12.1080 O   0  0  0  0  0  0  0  0  0  0  0  0
    1.3610   11.1620  -13.7220 C   0  0  1  0  0  0  0  0  0  0  0  0
    2.1850   10.6190  -14.8060 O   0  0  0  0  0  0  0  0  0  0  0  0
    2.7910    9.3950  -14.4000 C   0  0  0  0  0  0  0  0  0  0  0  0
    2.0690    8.5830  -13.5650 C   0  0  0  0  0  0  0  0  0  0  0  0
    2.5790    7.3720  -13.1100 C   0  0  0  0  0  0  0  0  0  0  0  0
    3.8550    7.0360  -13.5490 C   0  0  0  0  0  0  0  0  0  0  0  0
    4.6030    7.8250  -14.3940 C   0  0  0  0  0  0  0  0  0  0  0  0
    4.0590    9.0180  -14.8260 C   0  0  0  0  0  0  0  0  0  0  0  0
    0.7900    8.9810  -13.1630 O   0  0  0  0  0  0  0  0  0  0  0  0
    0.1680   10.1690  -13.7160 C   0  0  0  0  0  0  0  0  0  0  0  0
   -1.4860   19.5050   -9.5800 H   0  0  0  0  0  0  0  0  0  0  0  0
   -3.8030   20.3300   -9.8160 H   0  0  0  0  0  0  0  0  0  0  0  0
   -5.1940   19.7360  -11.6760 H   0  0  0  0  0  0  0  0  0  0  0  0
   -4.2380   18.2670  -13.4050 H   0  0  0  0  0  0  0  0  0  0  0  0
    0.4280   18.1640  -12.0620 H   0  0  0  0  0  0  0  0  0  0  0  0
    0.1680   17.7670  -10.2680 H   0  0  0  0  0  0  0  0  0  0  0  0
   -1.2940   15.8170  -11.7110 H   0  0  0  0  0  0  0  0  0  0  0  0
    2.6270   15.9910  -11.1360 H   0  0  0  0  0  0  0  0  0  0  0  0
    1.4350   15.1420  -10.0580 H   0  0  0  0  0  0  0  0  0  0  0  0
    4.3190   14.4650  -12.3860 H   0  0  0  0  0  0  0  0  0  0  0  0
    2.9780   13.7030  -13.3870 H   0  0  0  0  0  0  0  0  0  0  0  0
    4.8670   12.4020  -11.4690 H   0  0  0  0  0  0  0  0  0  0  0  0
    4.4060   11.9760  -13.1930 H   0  0  0  0  0  0  0  0  0  0  0  0
    3.6980   11.3680   -9.8390 H   0  0  0  0  0  0  0  0  0  0  0  0
    1.8970   11.3620   -9.8680 H   0  0  0  0  0  0  0  0  0  0  0  0
    3.9800   13.5980  -10.0360 H   0  0  0  0  0  0  0  0  0  0  0  0
    2.3460   13.7760   -9.3300 H   0  0  0  0  0  0  0  0  0  0  0  0
    1.0930   12.1790  -13.8470 H   0  0  0  0  0  0  0  0  0  0  0  0
    1.9870    6.7460  -12.4290 H   0  0  0  0  0  0  0  0  0  0  0  0
    4.2590    6.1010  -13.1800 H   0  0  0  0  0  0  0  0  0  0  0  0
    5.6200    7.5210  -14.7060 H   0  0  0  0  0  0  0  0  0  0  0  0
    4.5990    9.6800  -15.4900 H   0  0  0  0  0  0  0  0  0  0  0  0
   -0.4920   10.5500  -12.8920 H   0  0  0  0  0  0  0  0  0  0  0  0
   -0.2850   10.0370  -14.6730 H   0  0  0  0  0  0  0  0  0  0  0  0
  1  2  1  0  0  0  0
  2  3  1  0  0  0  0
  3  8  1  0  0  0  0
  3  4  2  0  0  0  0
  4 31  1  0  0  0  0
  5  4  1  0  0  0  0
  5 32  1  0  0  0  0
  6  5  2  0  0  0  0
  7  2  2  0  0  0  0
  7  6  1  0  0  0  0
  8 36  1  0  0  0  0
  9  8  1  0  0  0  0
 10  9  1  0  0  0  0
 10 12  1  0  0  0  0
 11 10  2  0  0  0  0
 12 39  1  0  0  0  0
 13 12  1  0  0  0  0
 13 18  1  0  0  0  0
 14 15  1  0  0  0  0
 14 13  1  0  0  0  0
 15 16  1  0  0  0  0
 15 42  1  0  0  0  0
 16 17  1  0  0  0  0
 17 18  1  0  0  0  0
 17 45  1  0  0  0  0
 17 44  1  0  0  0  0
 18 46  1  0  0  0  0
 18 47  1  0  0  0  0
 19 20  2  0  0  0  0
 19 16  1  0  0  0  0
 21 48  1  6  0  0  0
 21 30  1  0  0  0  0
 21 19  1  0  0  0  0
 22 23  1  0  0  0  0
 22 21  1  0  0  0  0
 23 24  1  0  0  0  0
 24 29  1  0  0  0  0
 24 25  2  0  0  0  0
 25 49  1  0  0  0  0
 26 50  1  0  0  0  0
 26 25  1  0  0  0  0
 27 26  2  0  0  0  0
 28 23  2  0  0  0  0
 28 27  1  0  0  0  0
 30 29  1  0  0  0  0
 30 53  1  0  0  0  0
 33  6  1  0  0  0  0
 34  7  1  0  0  0  0
 35  8  1  0  0  0  0
 37  9  1  0  0  0  0
 38 12  1  0  0  0  0
 40 14  1  0  0  0  0
 41 14  1  0  0  0  0
 43 15  1  0  0  0  0
 51 27  1  0  0  0  0
 52 28  1  0  0  0  0
 54 30  1  0  0  0  0
M  END
>  <Pose>
1

>  <Score>
-5.03

$$$$
