
 OpenBabel03232203513D

 50 53  0  0  1  0  0  0  0  0999 V2000
    2.9700    4.8890  -12.5990 Cl  0  0  0  0  0  0  0  0  0  0  0  0
    2.0200    6.3510  -12.6850 C   0  0  0  0  0  0  0  0  0  0  0  0
    2.5640    7.5690  -13.0300 C   0  0  0  0  0  0  0  0  0  0  0  0
    1.7540    8.6870  -13.0770 C   0  0  0  0  0  0  0  0  0  0  0  0
    0.4120    8.6440  -12.7920 C   0  0  0  0  0  0  0  0  0  0  0  0
   -0.1220    7.4020  -12.4440 C   0  0  0  0  0  0  0  0  0  0  0  0
    0.6810    6.2840  -12.3960 C   0  0  0  0  0  0  0  0  0  0  0  0
   -0.4470    9.8530  -12.8330 C   0  0  1  0  0  0  0  0  0  0  0  0
    0.1040   10.8460  -13.7640 N   0  0  0  0  0  0  0  0  0  0  0  0
    0.0090   10.2530  -15.0460 C   0  0  0  0  0  0  0  0  0  0  0  0
    0.7580   10.4700  -16.0280 O   0  0  0  0  0  0  0  0  0  0  0  0
   -1.1400    9.3300  -15.0080 C   0  0  0  0  0  0  0  0  0  0  0  0
   -1.5730    8.6030  -15.9310 O   0  0  0  0  0  0  0  0  0  0  0  0
   -1.6610    9.4470  -13.6530 C   0  0  0  0  0  0  0  0  0  0  0  0
   -2.8730    9.2580  -13.2620 C   0  0  0  0  0  0  0  0  0  0  0  0
   -3.2320    9.4220  -11.9250 O   0  0  0  0  0  0  0  0  0  0  0  0
   -3.9100    8.8640  -14.2100 C   0  0  0  0  0  0  0  0  0  0  0  0
   -3.9290    7.9900  -15.1520 O   0  0  0  0  0  0  0  0  0  0  0  0
   -5.0840    7.9770  -15.7540 C   0  0  0  0  0  0  0  0  0  0  0  0
   -5.9070    8.9090  -15.1750 C   0  0  0  0  0  0  0  0  0  0  0  0
   -5.1650    9.4870  -14.1830 C   0  0  0  0  0  0  0  0  0  0  0  0
    0.6390   12.1530  -13.4090 C   0  0  0  0  0  0  0  0  0  0  0  0
   -0.4040   13.2050  -13.1910 C   0  0  0  0  0  0  0  0  0  0  0  0
   -0.2020   14.0680  -12.0780 N   0  0  0  0  0  4  0  0  0  0  0  0
    1.0910   14.0480  -11.4730 C   0  0  0  0  0  0  0  0  0  0  0  0
    2.1970   14.5260  -12.3850 C   0  0  0  0  0  0  0  0  0  0  0  0
    1.9360   15.8100  -12.8490 O   0  0  0  0  0  0  0  0  0  0  0  0
    0.6620   15.9220  -13.3940 C   0  0  0  0  0  0  0  0  0  0  0  0
   -0.4280   15.4800  -12.4530 C   0  0  0  0  0  0  0  0  0  0  0  0
    3.6200    7.5850  -13.2510 H   0  0  0  0  0  0  0  0  0  0  0  0
    2.2170    9.6230  -13.3550 H   0  0  0  0  0  0  0  0  0  0  0  0
   -1.1970    7.3710  -12.2140 H   0  0  0  0  0  0  0  0  0  0  0  0
    0.2570    5.3210  -12.1250 H   0  0  0  0  0  0  0  0  0  0  0  0
   -0.7130   10.2620  -11.8630 H   0  0  0  0  0  0  0  0  0  0  0  0
   -5.4110    7.3500  -16.5920 H   0  0  0  0  0  0  0  0  0  0  0  0
   -6.9440    9.1670  -15.4270 H   0  0  0  0  0  0  0  0  0  0  0  0
   -5.4920   10.2650  -13.5130 H   0  0  0  0  0  0  0  0  0  0  0  0
    1.3780   12.4920  -14.1750 H   0  0  0  0  0  0  0  0  0  0  0  0
    1.2000   11.9870  -12.4480 H   0  0  0  0  0  0  0  0  0  0  0  0
   -0.6120   13.7450  -14.1410 H   0  0  0  0  0  0  0  0  0  0  0  0
   -1.3620   12.6460  -12.9860 H   0  0  0  0  0  0  0  0  0  0  0  0
   -0.9000   13.8220  -11.3420 H   0  0  0  0  0  0  0  0  0  0  0  0
    1.0500   14.8260  -10.6490 H   0  0  0  0  0  0  0  0  0  0  0  0
    1.3780   13.1250  -10.9780 H   0  0  0  0  0  0  0  0  0  0  0  0
    3.0990   14.6330  -11.7110 H   0  0  0  0  0  0  0  0  0  0  0  0
    2.4770   13.8100  -13.1650 H   0  0  0  0  0  0  0  0  0  0  0  0
    0.5650   15.3500  -14.3440 H   0  0  0  0  0  0  0  0  0  0  0  0
    0.5030   16.9970  -13.6190 H   0  0  0  0  0  0  0  0  0  0  0  0
   -0.3470   16.0770  -11.5300 H   0  0  0  0  0  0  0  0  0  0  0  0
   -1.3850   15.6090  -12.9890 H   0  0  0  0  0  0  0  0  0  0  0  0
  2  1  1  0  0  0  0
  2  7  1  0  0  0  0
  3  2  2  0  0  0  0
  4  3  1  0  0  0  0
  4  5  2  0  0  0  0
  5  6  1  0  0  0  0
  6  7  2  0  0  0  0
  6 32  1  0  0  0  0
  7 33  1  0  0  0  0
  8  5  1  0  0  0  0
  8 34  1  1  0  0  0
  9 22  1  0  0  0  0
  9  8  1  0  0  0  0
 10 12  1  0  0  0  0
 10  9  1  0  0  0  0
 11 10  2  0  0  0  0
 12 14  1  0  0  0  0
 13 12  2  0  0  0  0
 14 15  2  0  0  0  0
 14  8  1  0  0  0  0
 15 16  1  0  0  0  0
 17 21  2  0  0  0  0
 17 15  1  0  0  0  0
 18 17  1  0  0  0  0
 19 20  2  0  0  0  0
 19 18  1  0  0  0  0
 20 21  1  0  0  0  0
 21 37  1  0  0  0  0
 22 23  1  0  0  0  0
 22 39  1  0  0  0  0
 23 41  1  0  0  0  0
 23 24  1  0  0  0  0
 24 25  1  0  0  0  0
 24 42  1  0  0  0  0
 25 44  1  0  0  0  0
 25 43  1  0  0  0  0
 26 45  1  0  0  0  0
 26 25  1  0  0  0  0
 27 26  1  0  0  0  0
 28 27  1  0  0  0  0
 28 29  1  0  0  0  0
 29 24  1  0  0  0  0
 29 49  1  0  0  0  0
 30  3  1  0  0  0  0
 31  4  1  0  0  0  0
 35 19  1  0  0  0  0
 36 20  1  0  0  0  0
 38 22  1  0  0  0  0
 40 23  1  0  0  0  0
 46 26  1  0  0  0  0
 47 28  1  0  0  0  0
 48 28  1  0  0  0  0
 50 29  1  0  0  0  0
M  END
>  <Pose>
1

>  <Score>
-3.75

$$$$
