
 OpenBabel03232203513D

 47 51  0  0  1  0  0  0  0  0999 V2000
    5.8470   14.4280  -12.0990 Cl  0  0  0  0  0  0  0  0  0  0  0  0
    4.6400   13.2090  -12.4670 C   0  0  0  0  0  0  0  0  0  0  0  0
    5.0170   12.0370  -13.0770 C   0  0  0  0  0  0  0  0  0  0  0  0
    4.0510   11.0820  -13.3720 C   0  0  0  0  0  0  0  0  0  0  0  0
    2.7230   11.2430  -13.0840 C   0  0  0  0  0  0  0  0  0  0  0  0
    2.3770   12.4230  -12.4730 C   0  0  0  0  0  0  0  0  0  0  0  0
    3.3280   13.4020  -12.1650 C   0  0  0  0  0  0  0  0  0  0  0  0
    1.7490   10.2840  -13.3820 N   0  0  0  0  0  0  0  0  0  0  0  0
    0.3190   10.4480  -13.5050 C   0  0  0  0  0  0  0  0  0  0  0  0
   -0.3090   11.4940  -13.3210 O   0  0  0  0  0  0  0  0  0  0  0  0
   -0.2900    9.1690  -13.8920 C   0  0  2  0  0  0  0  0  0  0  0  0
   -1.5100    8.7600  -13.1010 C   0  0  2  0  0  0  0  0  0  0  0  0
   -1.0670    7.9420  -11.9980 N   0  0  0  0  0  0  0  0  0  0  0  0
    0.3710    8.1130  -11.9180 C   0  0  2  0  0  0  0  0  0  0  0  0
    0.7380    8.1840  -13.3860 C   0  0  2  0  0  0  0  0  0  0  0  0
    2.0040    8.8940  -13.6460 C   0  0  0  0  0  0  0  0  0  0  0  0
    3.0410    8.3410  -14.0180 O   0  0  0  0  0  0  0  0  0  0  0  0
    1.0470    6.9500  -11.2400 C   0  0  0  0  0  0  0  0  0  0  0  0
    1.1880    5.7650  -12.0800 C   0  0  0  0  0  0  0  0  0  0  0  0
    2.2900    5.1950  -12.1940 O   0  0  0  0  0  0  0  0  0  0  0  0
    0.0670    5.2530  -12.7750 N   0  0  0  0  0  0  0  0  0  0  0  0
   -2.3500    7.9750  -14.0690 C   0  0  0  0  0  0  0  0  0  0  0  0
   -3.4600    8.7200  -14.3520 C   0  0  0  0  0  0  0  0  0  0  0  0
   -4.4230    8.2900  -15.2780 C   0  0  0  0  0  0  0  0  0  0  0  0
   -4.2670    7.0840  -15.9290 C   0  0  0  0  0  0  0  0  0  0  0  0
   -3.1570    6.3340  -15.6440 C   0  0  0  0  0  0  0  0  0  0  0  0
   -2.2190    6.7720  -14.7320 C   0  0  0  0  0  0  0  0  0  0  0  0
   -3.5110    9.8830  -13.5420 N   0  0  0  0  0  0  0  0  0  0  0  0
   -2.3690    9.8550  -12.7000 C   0  0  0  0  0  0  0  0  0  0  0  0
   -2.1830   10.6680  -11.7690 O   0  0  0  0  0  0  0  0  0  0  0  0
    6.0640   11.8570  -13.3290 H   0  0  0  0  0  0  0  0  0  0  0  0
    4.4030   10.2020  -13.8430 H   0  0  0  0  0  0  0  0  0  0  0  0
    1.3740   12.6590  -12.2010 H   0  0  0  0  0  0  0  0  0  0  0  0
    3.0330   14.3330  -11.6800 H   0  0  0  0  0  0  0  0  0  0  0  0
   -0.4400    9.0810  -14.9880 H   0  0  0  0  0  0  0  0  0  0  0  0
   -1.5440    8.2890  -11.1330 H   0  0  0  0  0  0  0  0  0  0  0  0
    0.6390    9.0960  -11.4740 H   0  0  0  0  0  0  0  0  0  0  0  0
    0.6930    7.1970  -13.8760 H   0  0  0  0  0  0  0  0  0  0  0  0
    0.3910    6.6790  -10.3590 H   0  0  0  0  0  0  0  0  0  0  0  0
    1.9980    7.3210  -10.8010 H   0  0  0  0  0  0  0  0  0  0  0  0
   -0.8690    5.0740  -12.3370 H   0  0  0  0  0  0  0  0  0  0  0  0
    0.0930    5.0110  -13.8080 H   0  0  0  0  0  0  0  0  0  0  0  0
   -5.2990    8.8890  -15.4980 H   0  0  0  0  0  0  0  0  0  0  0  0
   -5.0300    6.7750  -16.6470 H   0  0  0  0  0  0  0  0  0  0  0  0
   -3.0180    5.3910  -16.1360 H   0  0  0  0  0  0  0  0  0  0  0  0
   -1.3480    6.1620  -14.5150 H   0  0  0  0  0  0  0  0  0  0  0  0
   -4.2660   10.6360  -13.5610 H   0  0  0  0  0  0  0  0  0  0  0  0
  2  7  1  0  0  0  0
  2  1  1  0  0  0  0
  3  2  2  0  0  0  0
  4  5  2  0  0  0  0
  4  3  1  0  0  0  0
  5  6  1  0  0  0  0
  6 33  1  0  0  0  0
  6  7  2  0  0  0  0
  7 34  1  0  0  0  0
  8  5  1  0  0  0  0
  9  8  1  0  0  0  0
  9 10  2  0  0  0  0
 11 35  1  6  0  0  0
 11  9  1  0  0  0  0
 11 15  1  0  0  0  0
 11 12  1  0  0  0  0
 12 22  1  6  0  0  0
 12 29  1  0  0  0  0
 12 13  1  0  0  0  0
 13 14  1  0  0  0  0
 13 36  1  0  0  0  0
 14 37  1  1  0  0  0
 14 18  1  0  0  0  0
 15 38  1  6  0  0  0
 15 14  1  0  0  0  0
 16 15  1  0  0  0  0
 16  8  1  0  0  0  0
 17 16  2  0  0  0  0
 18 40  1  0  0  0  0
 18 39  1  0  0  0  0
 19 18  1  0  0  0  0
 20 19  2  0  0  0  0
 21 41  1  0  0  0  0
 21 19  1  0  0  0  0
 23 22  1  0  0  0  0
 23 28  1  0  0  0  0
 24 23  2  0  0  0  0
 25 26  2  0  0  0  0
 25 24  1  0  0  0  0
 26 27  1  0  0  0  0
 27 46  1  0  0  0  0
 27 22  2  0  0  0  0
 28 29  1  0  0  0  0
 29 30  2  0  0  0  0
 31  3  1  0  0  0  0
 32  4  1  0  0  0  0
 42 21  1  0  0  0  0
 43 24  1  0  0  0  0
 44 25  1  0  0  0  0
 45 26  1  0  0  0  0
 47 28  1  0  0  0  0
M  END
>  <Pose>
1

>  <Score>
-4.30

$$$$
