
 OpenBabel03232203513D

 40 43  0  0  0  0  0  0  0  0999 V2000
    2.2850    5.4950  -12.2760 Cl  0  0  0  0  0  0  0  0  0  0  0  0
    0.7810    6.2390  -12.7830 C   0  0  0  0  0  0  0  0  0  0  0  0
    0.5620    7.5920  -12.6560 C   0  0  0  0  0  0  0  0  0  0  0  0
   -0.6420    8.1730  -13.0640 C   0  0  0  0  0  0  0  0  0  0  0  0
   -1.6180    7.3480  -13.6040 C   0  0  0  0  0  0  0  0  0  0  0  0
   -1.4140    5.9960  -13.7370 C   0  0  0  0  0  0  0  0  0  0  0  0
   -0.2280    5.4380  -13.3320 C   0  0  0  0  0  0  0  0  0  0  0  0
   -2.9030    7.9170  -14.0480 C   0  0  0  0  0  0  0  0  0  0  0  0
   -3.9560    7.3900  -14.5730 N   0  0  0  0  0  0  0  0  0  0  0  0
   -4.9810    8.3610  -14.8450 C   0  0  0  0  0  0  0  0  0  0  0  0
   -4.3880    9.6580  -14.3890 C   0  0  0  0  0  0  0  0  0  0  0  0
   -3.0810    9.3120  -13.8990 N   0  0  0  0  0  0  0  0  0  0  0  0
   -2.0600   10.1300  -13.3410 C   0  0  0  0  0  0  0  0  0  0  0  0
   -2.1990   11.3780  -13.2000 O   0  0  0  0  0  0  0  0  0  0  0  0
   -0.8040    9.5780  -12.9070 N   0  0  0  0  0  0  0  0  0  0  0  0
    0.2260   10.4360  -12.3390 C   0  0  0  0  0  0  0  0  0  0  0  0
    0.9920   11.1260  -13.4020 C   0  0  0  0  0  0  0  0  0  0  0  0
    0.9480   10.6550  -14.5650 O   0  0  0  0  0  0  0  0  0  0  0  0
    1.7660   12.2870  -13.1680 N   0  0  0  0  0  0  0  0  0  0  0  0
    2.9320   12.2720  -12.3170 C   0  0  0  0  0  0  0  0  0  0  0  0
    3.0250   13.5620  -11.5450 C   0  0  0  0  0  0  0  0  0  0  0  0
    1.7800   14.3050  -11.2100 C   0  0  0  0  0  0  0  0  0  0  0  0
    2.6670   14.8210  -12.2780 C   0  0  0  0  0  0  0  0  0  0  0  0
    1.3300    8.2380  -12.2330 H   0  0  0  0  0  0  0  0  0  0  0  0
   -2.1730    5.3700  -14.1540 H   0  0  0  0  0  0  0  0  0  0  0  0
   -0.0070    4.3690  -13.4120 H   0  0  0  0  0  0  0  0  0  0  0  0
   -5.9380    8.1310  -14.3300 H   0  0  0  0  0  0  0  0  0  0  0  0
   -5.1590    8.4430  -15.9520 H   0  0  0  0  0  0  0  0  0  0  0  0
   -4.3380   10.4150  -15.2140 H   0  0  0  0  0  0  0  0  0  0  0  0
   -5.0290   10.0400  -13.5590 H   0  0  0  0  0  0  0  0  0  0  0  0
    0.8400    9.9490  -11.5770 H   0  0  0  0  0  0  0  0  0  0  0  0
   -0.3390   11.2520  -11.7960 H   0  0  0  0  0  0  0  0  0  0  0  0
    1.4700   13.1690  -13.6330 H   0  0  0  0  0  0  0  0  0  0  0  0
    3.8510   12.1060  -12.9450 H   0  0  0  0  0  0  0  0  0  0  0  0
    2.8510   11.4170  -11.6260 H   0  0  0  0  0  0  0  0  0  0  0  0
    3.9350   13.6500  -10.9170 H   0  0  0  0  0  0  0  0  0  0  0  0
    0.8050   13.8340  -11.4710 H   0  0  0  0  0  0  0  0  0  0  0  0
    1.7520   14.8040  -10.2150 H   0  0  0  0  0  0  0  0  0  0  0  0
    2.3040   14.6860  -13.3230 H   0  0  0  0  0  0  0  0  0  0  0  0
    3.2520   15.7450  -12.0690 H   0  0  0  0  0  0  0  0  0  0  0  0
  2  3  1  0  0  0  0
  2  1  1  0  0  0  0
  3 24  1  0  0  0  0
  4 15  1  0  0  0  0
  4  3  2  0  0  0  0
  5  4  1  0  0  0  0
  6  5  2  0  0  0  0
  6  7  1  0  0  0  0
  7  2  2  0  0  0  0
  8 12  1  0  0  0  0
  8  5  1  0  0  0  0
  9  8  2  0  0  0  0
 10  9  1  0  0  0  0
 10 11  1  0  0  0  0
 10 27  1  0  0  0  0
 11 12  1  0  0  0  0
 11 30  1  0  0  0  0
 12 13  1  0  0  0  0
 13 14  2  0  0  0  0
 13 15  1  0  0  0  0
 15 16  1  0  0  0  0
 16 32  1  0  0  0  0
 16 31  1  0  0  0  0
 17 19  1  0  0  0  0
 17 16  1  0  0  0  0
 18 17  2  0  0  0  0
 19 20  1  0  0  0  0
 20 35  1  0  0  0  0
 20 21  1  0  0  0  0
 21 22  1  0  0  0  0
 21 36  1  0  0  0  0
 22 38  1  0  0  0  0
 23 40  1  0  0  0  0
 23 21  1  0  0  0  0
 23 22  1  0  0  0  0
 25  6  1  0  0  0  0
 26  7  1  0  0  0  0
 28 10  1  0  0  0  0
 29 11  1  0  0  0  0
 33 19  1  0  0  0  0
 34 20  1  0  0  0  0
 37 22  1  0  0  0  0
 39 23  1  0  0  0  0
M  END
>  <Pose>
1

>  <Score>
-4.84

$$$$
