
 OpenBabel03232203513D

 63 66  0  0  1  0  0  0  0  0999 V2000
    8.8910    6.5360  -12.8470 Cl  0  0  0  0  0  0  0  0  0  0  0  0
    7.3690    7.2010  -13.3930 C   0  0  0  0  0  0  0  0  0  0  0  0
    6.1760    6.5280  -13.2830 C   0  0  0  0  0  0  0  0  0  0  0  0
    5.0020    7.0970  -13.7310 C   0  0  0  0  0  0  0  0  0  0  0  0
    4.9570    8.3710  -14.3150 C   0  0  0  0  0  0  0  0  0  0  0  0
    6.1640    9.0210  -14.4110 C   0  0  0  0  0  0  0  0  0  0  0  0
    7.3590    8.4450  -13.9570 C   0  0  0  0  0  0  0  0  0  0  0  0
    3.6840    8.9240  -14.7210 C   0  0  0  0  0  0  0  0  0  0  0  0
    3.0330    9.8300  -14.0120 C   0  0  0  0  0  0  0  0  0  0  0  0
    1.7020   10.4370  -14.3800 C   0  0  2  0  0  0  0  0  0  0  0  0
    1.5450   11.5710  -13.5160 N   0  0  0  0  0  0  0  0  0  0  0  0
    2.5180   11.5530  -12.4820 C   0  0  0  0  0  0  0  0  0  0  0  0
    2.5780   12.3070  -11.5000 O   0  0  0  0  0  0  0  0  0  0  0  0
    3.4590   10.4520  -12.7990 C   0  0  0  0  0  0  0  0  0  0  0  0
    4.4530   10.1500  -12.0980 O   0  0  0  0  0  0  0  0  0  0  0  0
    0.5390   12.6160  -13.6750 C   0  0  0  0  0  0  0  0  0  0  0  0
   -0.3750   12.6160  -12.4990 C   0  0  0  0  0  0  0  0  0  0  0  0
   -0.6090   13.9810  -11.9980 N   0  0  0  0  0  4  0  0  0  0  0  0
   -1.6270   14.5790  -12.8060 C   0  0  0  0  0  0  0  0  0  0  0  0
   -1.6700   16.0960  -12.6380 C   0  0  0  0  0  0  0  0  0  0  0  0
   -0.3880   16.5630  -12.9810 O   0  0  0  0  0  0  0  0  0  0  0  0
    0.4730   16.1640  -11.9800 C   0  0  0  0  0  0  0  0  0  0  0  0
    0.6650   14.6630  -12.0650 C   0  0  0  0  0  0  0  0  0  0  0  0
    0.6810    9.3750  -14.1670 C   0  0  0  0  0  0  0  0  0  0  0  0
   -0.5020    9.6770  -13.5570 C   0  0  0  0  0  0  0  0  0  0  0  0
   -1.4380    8.7000  -13.3760 C   0  0  0  0  0  0  0  0  0  0  0  0
   -1.2250    7.4040  -13.7940 C   0  0  0  0  0  0  0  0  0  0  0  0
   -0.0270    7.0960  -14.4120 C   0  0  0  0  0  0  0  0  0  0  0  0
    0.9200    8.0920  -14.5930 C   0  0  0  0  0  0  0  0  0  0  0  0
   -2.1830    6.4140  -13.6060 O   0  0  0  0  0  0  0  0  0  0  0  0
   -3.1700    6.2250  -14.6310 C   0  0  0  0  0  0  0  0  0  0  0  0
   -3.7260    7.5890  -15.0320 C   0  0  0  0  0  0  0  0  0  0  0  0
   -5.2340    7.4320  -15.1630 C   0  0  0  0  0  0  0  0  0  0  0  0
    3.0610    8.5120  -15.9230 O   0  0  0  0  0  0  0  0  0  0  0  0
    6.1960    5.5450  -12.8350 H   0  0  0  0  0  0  0  0  0  0  0  0
    4.0710    6.5530  -13.6350 H   0  0  0  0  0  0  0  0  0  0  0  0
    6.1920   10.0200  -14.8250 H   0  0  0  0  0  0  0  0  0  0  0  0
    8.2910    9.0010  -14.0570 H   0  0  0  0  0  0  0  0  0  0  0  0
    1.7190   10.7260  -15.4520 H   0  0  0  0  0  0  0  0  0  0  0  0
   -0.0450   12.3910  -14.5960 H   0  0  0  0  0  0  0  0  0  0  0  0
    1.0510   13.5830  -13.7970 H   0  0  0  0  0  0  0  0  0  0  0  0
    0.0390   12.0460  -11.6510 H   0  0  0  0  0  0  0  0  0  0  0  0
   -1.3790   12.2160  -12.7950 H   0  0  0  0  0  0  0  0  0  0  0  0
   -0.9330   13.9530  -10.9960 H   0  0  0  0  0  0  0  0  0  0  0  0
   -2.6120   14.1770  -12.4400 H   0  0  0  0  0  0  0  0  0  0  0  0
   -1.4820   14.3780  -13.8870 H   0  0  0  0  0  0  0  0  0  0  0  0
   -1.9000   16.2800  -11.5740 H   0  0  0  0  0  0  0  0  0  0  0  0
   -2.4070   16.5000  -13.3320 H   0  0  0  0  0  0  0  0  0  0  0  0
    1.4670   16.6190  -12.1270 H   0  0  0  0  0  0  0  0  0  0  0  0
    0.0980   16.3900  -10.9720 H   0  0  0  0  0  0  0  0  0  0  0  0
    1.2560   14.3360  -11.1840 H   0  0  0  0  0  0  0  0  0  0  0  0
    1.1650   14.3640  -13.0060 H   0  0  0  0  0  0  0  0  0  0  0  0
   -0.7190   10.6790  -13.2110 H   0  0  0  0  0  0  0  0  0  0  0  0
   -2.3830    8.9250  -12.8930 H   0  0  0  0  0  0  0  0  0  0  0  0
    0.1220    6.0750  -14.7330 H   0  0  0  0  0  0  0  0  0  0  0  0
    1.8460    7.7880  -15.0860 H   0  0  0  0  0  0  0  0  0  0  0  0
   -2.7070    5.7710  -15.5200 H   0  0  0  0  0  0  0  0  0  0  0  0
   -3.9740    5.5630  -14.2620 H   0  0  0  0  0  0  0  0  0  0  0  0
   -3.5280    8.2910  -14.1960 H   0  0  0  0  0  0  0  0  0  0  0  0
   -3.2670    7.9350  -15.9770 H   0  0  0  0  0  0  0  0  0  0  0  0
   -5.7420    8.3540  -14.8560 H   0  0  0  0  0  0  0  0  0  0  0  0
   -5.6190    6.6140  -14.5080 H   0  0  0  0  0  0  0  0  0  0  0  0
   -5.4560    7.2110  -16.2260 H   0  0  0  0  0  0  0  0  0  0  0  0
  2  3  1  0  0  0  0
  2  1  1  0  0  0  0
  3 35  1  0  0  0  0
  4 36  1  0  0  0  0
  4  3  2  0  0  0  0
  5  4  1  0  0  0  0
  6  5  2  0  0  0  0
  6  7  1  0  0  0  0
  7  2  2  0  0  0  0
  8  5  1  0  0  0  0
  8  9  2  0  0  0  0
  9 14  1  0  0  0  0
 10 39  1  6  0  0  0
 10 24  1  0  0  0  0
 10  9  1  0  0  0  0
 10 11  1  0  0  0  0
 11 12  1  0  0  0  0
 12 13  2  0  0  0  0
 14 12  1  0  0  0  0
 14 15  2  0  0  0  0
 16 11  1  0  0  0  0
 16 17  1  0  0  0  0
 17 18  1  0  0  0  0
 17 42  1  0  0  0  0
 18 44  1  0  0  0  0
 19 20  1  0  0  0  0
 19 45  1  0  0  0  0
 19 18  1  0  0  0  0
 20 47  1  0  0  0  0
 21 20  1  0  0  0  0
 21 22  1  0  0  0  0
 22 50  1  0  0  0  0
 23 18  1  0  0  0  0
 23 22  1  0  0  0  0
 23 51  1  0  0  0  0
 24 25  1  0  0  0  0
 25 26  2  0  0  0  0
 25 53  1  0  0  0  0
 26 54  1  0  0  0  0
 27 30  1  0  0  0  0
 27 26  1  0  0  0  0
 28 27  2  0  0  0  0
 29 28  1  0  0  0  0
 29 24  2  0  0  0  0
 31 58  1  0  0  0  0
 31 30  1  0  0  0  0
 32 31  1  0  0  0  0
 32 59  1  0  0  0  0
 33 32  1  0  0  0  0
 33 61  1  0  0  0  0
 33 62  1  0  0  0  0
 34  8  1  0  0  0  0
 37  6  1  0  0  0  0
 38  7  1  0  0  0  0
 40 16  1  0  0  0  0
 41 16  1  0  0  0  0
 43 17  1  0  0  0  0
 46 19  1  0  0  0  0
 48 20  1  0  0  0  0
 49 22  1  0  0  0  0
 52 23  1  0  0  0  0
 55 28  1  0  0  0  0
 56 29  1  0  0  0  0
 57 31  1  0  0  0  0
 60 32  1  0  0  0  0
 63 33  1  0  0  0  0
M  END
>  <Pose>
1

>  <Score>
-4.09

$$$$
