
 OpenBabel03232203513D

 37 40  0  0  0  0  0  0  0  0999 V2000
   -3.5940   17.3360  -13.8290 F   0  0  0  0  0  0  0  0  0  0  0  0
   -2.6920   17.6330  -12.8620 C   0  0  0  0  0  0  0  0  0  0  0  0
   -2.9570   18.5440  -11.8760 N   0  0  0  0  0  0  0  0  0  0  0  0
   -1.8500   18.5770  -11.1180 C   0  0  0  0  0  0  0  0  0  0  0  0
   -0.9420   17.7210  -11.6160 N   0  0  0  0  0  0  0  0  0  0  0  0
   -1.4330   17.1090  -12.7120 C   0  0  0  0  0  0  0  0  0  0  0  0
   -0.7360   16.0920  -13.5450 C   0  0  0  0  0  0  0  0  0  0  0  0
   -0.5950   16.5230  -14.7550 O   0  0  0  0  0  0  0  0  0  0  0  0
   -0.2970   14.8680  -13.1070 N   0  0  0  0  0  0  0  0  0  0  0  0
    0.1380   13.6510  -12.6720 C   0  0  0  0  0  0  0  0  0  0  0  0
    1.4980   13.6400  -12.0200 C   0  0  0  0  0  0  0  0  0  0  0  0
    2.4480   12.7210  -12.2130 N   0  0  0  0  0  0  0  0  0  0  0  0
    3.4900   13.0580  -11.4720 N   0  0  0  0  0  0  0  0  0  0  0  0
    3.2340   14.1660  -10.8120 N   0  0  0  0  0  0  0  0  0  0  0  0
    1.9960   14.5200  -11.1570 N   0  0  0  0  0  0  0  0  0  0  0  0
    2.2830   11.6100  -13.0950 C   0  0  0  0  0  0  0  0  0  0  0  0
    1.0010   11.0960  -13.2680 C   0  0  0  0  0  0  0  0  0  0  0  0
    0.7750   10.0050  -14.0980 C   0  0  0  0  0  0  0  0  0  0  0  0
    1.8120    9.3960  -14.7760 C   0  0  0  0  0  0  0  0  0  0  0  0
    3.0780    9.9110  -14.6000 C   0  0  0  0  0  0  0  0  0  0  0  0
    3.3080   10.9970  -13.7740 C   0  0  0  0  0  0  0  0  0  0  0  0
   -1.8510   19.4280  -10.0400 C   0  0  0  0  0  0  0  0  0  0  0  0
   -2.9460   20.2360   -9.7240 C   0  0  0  0  0  0  0  0  0  0  0  0
   -4.0570   20.1740  -10.5210 C   0  0  0  0  0  0  0  0  0  0  0  0
   -4.0300   19.3050  -11.6060 C   0  0  0  0  0  0  0  0  0  0  0  0
   -5.4780   21.1620  -10.1790 Cl  0  0  0  0  0  0  0  0  0  0  0  0
   -1.5250   14.3220  -13.3590 H   0  0  0  0  0  0  0  0  0  0  0  0
    0.2530   12.8910  -13.5280 H   0  0  0  0  0  0  0  0  0  0  0  0
   -0.5470   13.0680  -11.9720 H   0  0  0  0  0  0  0  0  0  0  0  0
    0.1810   11.5620  -12.7470 H   0  0  0  0  0  0  0  0  0  0  0  0
   -0.2150    9.5950  -14.2400 H   0  0  0  0  0  0  0  0  0  0  0  0
    1.6350    8.5290  -15.4300 H   0  0  0  0  0  0  0  0  0  0  0  0
    3.9090    9.4280  -15.1380 H   0  0  0  0  0  0  0  0  0  0  0  0
    4.3180   11.3690  -13.6620 H   0  0  0  0  0  0  0  0  0  0  0  0
   -0.9970   19.5110   -9.3820 H   0  0  0  0  0  0  0  0  0  0  0  0
   -2.9360   20.9150   -8.8620 H   0  0  0  0  0  0  0  0  0  0  0  0
   -4.9150   19.2700  -12.2190 H   0  0  0  0  0  0  0  0  0  0  0  0
  1  2  1  0  0  0  0
  2  6  2  0  0  0  0
  2  3  1  0  0  0  0
  3 25  1  0  0  0  0
  3  4  1  0  0  0  0
  4 22  1  0  0  0  0
  5  4  2  0  0  0  0
  6  5  1  0  0  0  0
  7  9  1  0  0  0  0
  7  6  1  0  0  0  0
  8  7  2  0  0  0  0
  9 10  1  0  0  0  0
 10 11  1  0  0  0  0
 10 29  1  0  0  0  0
 11 15  2  0  0  0  0
 12 11  1  0  0  0  0
 12 13  1  0  0  0  0
 13 14  2  0  0  0  0
 15 14  1  0  0  0  0
 16 12  1  0  0  0  0
 17 16  1  0  0  0  0
 17 30  1  0  0  0  0
 18 17  2  0  0  0  0
 19 20  2  0  0  0  0
 19 18  1  0  0  0  0
 20 21  1  0  0  0  0
 21 34  1  0  0  0  0
 21 16  2  0  0  0  0
 22 23  2  0  0  0  0
 22 35  1  0  0  0  0
 23 36  1  0  0  0  0
 24 26  1  0  0  0  0
 24 23  1  0  0  0  0
 25 24  2  0  0  0  0
 27  9  1  0  0  0  0
 28 10  1  0  0  0  0
 31 18  1  0  0  0  0
 32 19  1  0  0  0  0
 33 20  1  0  0  0  0
 37 25  1  0  0  0  0
M  END
>  <Pose>
1

>  <Score>
-7.62

$$$$
