
 OpenBabel03232203513D

 42 45  0  0  1  0  0  0  0  0999 V2000
   -3.4050   18.9280  -12.5300 Cl  0  0  0  0  0  0  0  0  0  0  0  0
   -2.0070   17.9380  -12.1150 C   0  0  0  0  0  0  0  0  0  0  0  0
   -1.5350   16.9500  -12.9550 C   0  0  0  0  0  0  0  0  0  0  0  0
   -0.4620   16.1800  -12.6540 N   0  0  0  0  0  0  0  0  0  0  0  0
    0.2160   16.3330  -11.5010 C   0  0  0  0  0  0  0  0  0  0  0  0
    1.2940   15.5700  -11.1820 N   0  0  0  0  0  0  0  0  0  0  0  0
    1.7600   14.6050  -11.9950 C   0  0  0  0  0  0  0  0  0  0  0  0
    1.0700   14.4330  -13.1910 C   0  0  1  0  0  0  0  0  0  0  0  0
    1.5840   13.3670  -14.0900 C   0  0  0  0  0  0  0  0  0  0  0  0
    1.8280   12.2120  -13.2180 N   0  0  0  0  0  0  0  0  0  0  0  0
    2.8040   12.3600  -12.1770 C   0  0  0  0  0  0  0  0  0  0  0  0
    2.9390   13.7650  -11.6590 C   0  0  0  0  0  0  0  0  0  0  0  0
    1.1140   11.0070  -13.4040 C   0  0  0  0  0  0  0  0  0  0  0  0
    0.0070   11.0820  -14.0370 O   0  0  0  0  0  0  0  0  0  0  0  0
    1.5980    9.7010  -12.9040 C   0  0  0  0  0  0  0  0  0  0  0  0
    3.0520    9.4610  -13.2440 C   0  0  0  0  0  0  0  0  0  0  0  0
    3.2270    9.9440  -14.6780 C   0  0  0  0  0  0  0  0  0  0  0  0
    2.1020    9.6200  -15.4350 O   0  0  0  0  0  0  0  0  0  0  0  0
    1.5070    8.4330  -14.9860 C   0  0  0  0  0  0  0  0  0  0  0  0
    0.8190    8.6030  -13.6450 C   0  0  0  0  0  0  0  0  0  0  0  0
   -0.0190   15.2220  -13.4880 C   0  0  0  0  0  0  0  0  0  0  0  0
   -0.6330   15.0450  -14.5890 O   0  0  0  0  0  0  0  0  0  0  0  0
   -0.2420   17.3190  -10.6430 C   0  0  0  0  0  0  0  0  0  0  0  0
   -1.3310   18.1170  -10.9260 C   0  0  0  0  0  0  0  0  0  0  0  0
   -2.0520   16.7910  -13.8980 H   0  0  0  0  0  0  0  0  0  0  0  0
    2.4970   13.7250  -14.5760 H   0  0  0  0  0  0  0  0  0  0  0  0
    0.8610   13.0860  -14.8690 H   0  0  0  0  0  0  0  0  0  0  0  0
    2.5500   11.7280  -11.2950 H   0  0  0  0  0  0  0  0  0  0  0  0
    3.7820   12.0020  -12.6120 H   0  0  0  0  0  0  0  0  0  0  0  0
    3.8390   14.2670  -12.1200 H   0  0  0  0  0  0  0  0  0  0  0  0
    3.0690   13.8040  -10.5570 H   0  0  0  0  0  0  0  0  0  0  0  0
    1.4130    9.6280  -11.8090 H   0  0  0  0  0  0  0  0  0  0  0  0
    3.1870    8.3430  -13.3000 H   0  0  0  0  0  0  0  0  0  0  0  0
    3.7670    9.8890  -12.5490 H   0  0  0  0  0  0  0  0  0  0  0  0
    3.2850   11.0450  -14.6480 H   0  0  0  0  0  0  0  0  0  0  0  0
    4.1630    9.5730  -15.1320 H   0  0  0  0  0  0  0  0  0  0  0  0
    0.7170    8.1770  -15.7210 H   0  0  0  0  0  0  0  0  0  0  0  0
    2.2240    7.5920  -14.9820 H   0  0  0  0  0  0  0  0  0  0  0  0
   -0.2420    8.8540  -13.7320 H   0  0  0  0  0  0  0  0  0  0  0  0
    1.0190    7.6660  -13.0750 H   0  0  0  0  0  0  0  0  0  0  0  0
    0.3030   17.4490   -9.7070 H   0  0  0  0  0  0  0  0  0  0  0  0
   -1.6840   18.8880  -10.2490 H   0  0  0  0  0  0  0  0  0  0  0  0
  1  2  1  0  0  0  0
  2 24  2  0  0  0  0
  3  4  1  0  0  0  0
  3  2  1  0  0  0  0
  4  5  1  0  0  0  0
  5  6  1  0  0  0  0
  5 23  2  0  0  0  0
  7 12  1  0  0  0  0
  7  6  2  0  0  0  0
  8 21  1  1  0  0  0
  8  7  1  0  0  0  0
  9 10  1  0  0  0  0
  9  8  1  0  0  0  0
 10 11  1  0  0  0  0
 11 12  1  0  0  0  0
 11 28  1  0  0  0  0
 12 31  1  0  0  0  0
 13 10  1  0  0  0  0
 13 15  1  0  0  0  0
 14 13  2  0  0  0  0
 15 32  1  0  0  0  0
 16 15  1  0  0  0  0
 16 34  1  0  0  0  0
 17 35  1  0  0  0  0
 17 16  1  0  0  0  0
 18 19  1  0  0  0  0
 18 17  1  0  0  0  0
 19 38  1  0  0  0  0
 19 20  1  0  0  0  0
 20 40  1  0  0  0  0
 20 15  1  0  0  0  0
 21  4  1  0  0  0  0
 22 21  2  0  0  0  0
 23 41  1  0  0  0  0
 24 23  1  0  0  0  0
 24 42  1  0  0  0  0
 25  3  1  0  0  0  0
 26  9  1  0  0  0  0
 27  9  1  0  0  0  0
 29 11  1  0  0  0  0
 30 12  1  0  0  0  0
 33 16  1  0  0  0  0
 36 17  1  0  0  0  0
 37 19  1  0  0  0  0
 39 20  1  0  0  0  0
M  END
>  <Pose>
1

>  <Score>
-4.88

$$$$
