
 OpenBabel03232203513D

 41 44  0  0  0  0  0  0  0  0999 V2000
    2.7140   11.5900  -14.1010 F   0  0  0  0  0  0  0  0  0  0  0  0
    2.1820   10.3700  -13.8450 C   0  0  0  0  0  0  0  0  0  0  0  0
    0.8090   10.2720  -13.6800 C   0  0  0  0  0  0  0  0  0  0  0  0
    0.1980    9.0660  -13.4170 C   0  0  0  0  0  0  0  0  0  0  0  0
    1.0050    7.9440  -13.3220 C   0  0  0  0  0  0  0  0  0  0  0  0
    2.3670    8.0400  -13.4860 C   0  0  0  0  0  0  0  0  0  0  0  0
    2.9710    9.2480  -13.7480 C   0  0  0  0  0  0  0  0  0  0  0  0
    0.2310    6.4050  -12.9880 Cl  0  0  0  0  0  0  0  0  0  0  0  0
   -1.2360    9.2200  -13.2860 C   0  0  0  0  0  0  0  0  0  0  0  0
   -2.0960    8.3410  -13.0500 O   0  0  0  0  0  0  0  0  0  0  0  0
   -1.4930   10.6400  -13.4890 C   0  0  0  0  0  0  0  0  0  0  0  0
   -2.6380   11.1910  -13.4550 O   0  0  0  0  0  0  0  0  0  0  0  0
   -0.2400   11.2620  -13.7270 N   0  0  0  0  0  0  0  0  0  0  0  0
   -0.0010   12.6680  -13.9790 C   0  0  0  0  0  0  0  0  0  0  0  0
   -0.0350   13.4800  -12.7810 N   0  0  0  0  0  0  0  0  0  0  0  0
    0.6420   14.7150  -12.9820 C   0  0  0  0  0  0  0  0  0  0  0  0
   -0.0470   15.9210  -12.4470 C   0  0  0  0  0  0  0  0  0  0  0  0
   -1.4760   15.8950  -12.6190 N   0  0  0  0  0  0  0  0  0  0  0  0
   -2.1140   14.6310  -12.9050 C   0  0  0  0  0  0  0  0  0  0  0  0
   -1.3200   13.5680  -12.1750 C   0  0  0  0  0  0  0  0  0  0  0  0
   -2.2730   17.0580  -12.5170 C   0  0  0  0  0  0  0  0  0  0  0  0
   -3.1000   17.4290  -13.5090 N   0  0  0  0  0  0  0  0  0  0  0  0
   -3.8690   18.5330  -13.4370 C   0  0  0  0  0  0  0  0  0  0  0  0
   -3.8320   19.3380  -12.3140 C   0  0  0  0  0  0  0  0  0  0  0  0
   -3.0080   18.9720  -11.3190 N   0  0  0  0  0  0  0  0  0  0  0  0
   -2.2390   17.8690  -11.3900 C   0  0  0  0  0  0  0  0  0  0  0  0
    2.9800    7.1330  -13.4050 H   0  0  0  0  0  0  0  0  0  0  0  0
    4.0590    9.2940  -13.8740 H   0  0  0  0  0  0  0  0  0  0  0  0
    0.9470   12.7430  -14.5190 H   0  0  0  0  0  0  0  0  0  0  0  0
   -0.7960   13.0410  -14.6580 H   0  0  0  0  0  0  0  0  0  0  0  0
    1.6460   14.6410  -12.4880 H   0  0  0  0  0  0  0  0  0  0  0  0
    0.8800   14.8460  -14.0740 H   0  0  0  0  0  0  0  0  0  0  0  0
    0.2480   16.1620  -11.3960 H   0  0  0  0  0  0  0  0  0  0  0  0
    0.3210   16.8030  -13.0480 H   0  0  0  0  0  0  0  0  0  0  0  0
   -1.9590   14.4530  -14.0020 H   0  0  0  0  0  0  0  0  0  0  0  0
   -3.1820   14.6200  -12.6300 H   0  0  0  0  0  0  0  0  0  0  0  0
   -1.7980   12.5940  -12.1170 H   0  0  0  0  0  0  0  0  0  0  0  0
   -1.1670   13.8930  -11.1050 H   0  0  0  0  0  0  0  0  0  0  0  0
   -4.5330   18.8230  -14.2450 H   0  0  0  0  0  0  0  0  0  0  0  0
   -4.4620   20.2210  -12.2820 H   0  0  0  0  0  0  0  0  0  0  0  0
   -1.5710   17.5680  -10.5910 H   0  0  0  0  0  0  0  0  0  0  0  0
  1  2  1  0  0  0  0
  2  7  2  0  0  0  0
  2  3  1  0  0  0  0
  3  4  2  0  0  0  0
  4  5  1  0  0  0  0
  4  9  1  0  0  0  0
  5  8  1  0  0  0  0
  6 27  1  0  0  0  0
  6  5  2  0  0  0  0
  7  6  1  0  0  0  0
  9 10  2  0  0  0  0
 11 12  2  0  0  0  0
 11  9  1  0  0  0  0
 13  3  1  0  0  0  0
 13 11  1  0  0  0  0
 14 13  1  0  0  0  0
 14 15  1  0  0  0  0
 15 20  1  0  0  0  0
 16 15  1  0  0  0  0
 16 31  1  0  0  0  0
 16 17  1  0  0  0  0
 17 33  1  0  0  0  0
 18 21  1  0  0  0  0
 18 17  1  0  0  0  0
 19 36  1  0  0  0  0
 19 18  1  0  0  0  0
 19 20  1  0  0  0  0
 20 37  1  0  0  0  0
 20 38  1  0  0  0  0
 21 26  1  0  0  0  0
 22 23  1  0  0  0  0
 22 21  2  0  0  0  0
 23 24  2  0  0  0  0
 24 40  1  0  0  0  0
 24 25  1  0  0  0  0
 26 25  2  0  0  0  0
 26 41  1  0  0  0  0
 28  7  1  0  0  0  0
 29 14  1  0  0  0  0
 30 14  1  0  0  0  0
 32 16  1  0  0  0  0
 34 17  1  0  0  0  0
 35 19  1  0  0  0  0
 39 23  1  0  0  0  0
M  END
>  <Pose>
1

>  <Score>
-6.00

$$$$
