
 OpenBabel03232203513D

 57 60  0  0  0  0  0  0  0  0999 V2000
    4.7860    5.3390  -13.0130 Cl  0  0  0  0  0  0  0  0  0  0  0  0
    3.3490    6.3250  -12.8970 C   0  0  0  0  0  0  0  0  0  0  0  0
    3.1320    7.3680  -13.7700 C   0  0  0  0  0  0  0  0  0  0  0  0
    2.0000    8.1320  -13.6630 C   0  0  0  0  0  0  0  0  0  0  0  0
    1.0630    7.8460  -12.6630 C   0  0  0  0  0  0  0  0  0  0  0  0
    1.2730    6.7980  -11.7800 C   0  0  0  0  0  0  0  0  0  0  0  0
    2.4160    6.0600  -11.9190 C   0  0  0  0  0  0  0  0  0  0  0  0
   -0.1250    8.5190  -12.4240 O   0  0  0  0  0  0  0  0  0  0  0  0
   -0.8760    9.2910  -13.3300 C   0  0  0  0  0  0  0  0  0  0  0  0
   -0.1460   10.5150  -13.7790 C   0  0  0  0  0  0  0  0  0  0  0  0
    1.2490   10.3330  -14.0460 N   0  0  0  0  0  0  0  0  0  0  0  0
    1.9080    9.2170  -14.6740 C   0  0  0  0  0  0  0  0  0  0  0  0
    2.1480   11.3820  -13.6480 C   0  0  0  0  0  0  0  0  0  0  0  0
    3.1770   11.5430  -14.3510 O   0  0  0  0  0  0  0  0  0  0  0  0
    1.8810   12.2220  -12.4820 C   0  0  0  0  0  0  0  0  0  0  0  0
    2.9600   12.9660  -11.9450 N   0  0  0  0  0  0  0  0  0  0  0  0
    2.6300   13.5390  -10.6370 C   0  0  0  0  0  0  0  0  0  0  0  0
    1.4790   14.4570  -10.8090 C   0  0  0  0  0  0  0  0  0  0  0  0
    1.5530   15.4150  -11.9500 C   0  0  0  0  0  0  0  0  0  0  0  0
    2.5950   15.1740  -12.9700 C   0  0  0  0  0  0  0  0  0  0  0  0
    3.4950   14.0120  -12.7810 C   0  0  0  0  0  0  0  0  0  0  0  0
    0.2260   15.6140  -12.5840 C   0  0  0  0  0  0  0  0  0  0  0  0
   -0.3920   16.6790  -12.3880 O   0  0  0  0  0  0  0  0  0  0  0  0
   -0.3270   14.6010  -13.3970 N   0  0  0  0  0  0  0  0  0  0  0  0
   -1.3260    8.4180  -14.4910 C   0  0  0  0  0  0  0  0  0  0  0  0
   -2.6880    7.8150  -14.1970 C   0  0  0  0  0  0  0  0  0  0  0  0
   -3.6880    8.7660  -14.1470 O   0  0  0  0  0  0  0  0  0  0  0  0
   -3.1810    9.9980  -13.7490 C   0  0  0  0  0  0  0  0  0  0  0  0
   -2.1630    9.7670  -12.6500 C   0  0  0  0  0  0  0  0  0  0  0  0
    3.8470    7.5980  -14.5460 H   0  0  0  0  0  0  0  0  0  0  0  0
    0.5260    6.6140  -11.0230 H   0  0  0  0  0  0  0  0  0  0  0  0
    2.6170    5.2310  -11.2460 H   0  0  0  0  0  0  0  0  0  0  0  0
   -0.6440   10.9000  -14.7060 H   0  0  0  0  0  0  0  0  0  0  0  0
   -0.3110   11.3010  -12.9960 H   0  0  0  0  0  0  0  0  0  0  0  0
    1.4140    8.8790  -15.6060 H   0  0  0  0  0  0  0  0  0  0  0  0
    2.9540    9.4770  -14.9630 H   0  0  0  0  0  0  0  0  0  0  0  0
    1.5350   11.5230  -11.6630 H   0  0  0  0  0  0  0  0  0  0  0  0
    0.9660   12.8320  -12.7040 H   0  0  0  0  0  0  0  0  0  0  0  0
    2.3670   12.7400   -9.9460 H   0  0  0  0  0  0  0  0  0  0  0  0
    3.5190   14.1330  -10.3220 H   0  0  0  0  0  0  0  0  0  0  0  0
    0.5210   13.8750  -10.9270 H   0  0  0  0  0  0  0  0  0  0  0  0
    1.3310   14.9720   -9.8120 H   0  0  0  0  0  0  0  0  0  0  0  0
    1.7780   16.4220  -11.4720 H   0  0  0  0  0  0  0  0  0  0  0  0
    3.1880   16.1170  -13.1740 H   0  0  0  0  0  0  0  0  0  0  0  0
    2.0750   15.0090  -13.9640 H   0  0  0  0  0  0  0  0  0  0  0  0
    3.9210   13.5690  -13.6850 H   0  0  0  0  0  0  0  0  0  0  0  0
    4.3970   14.3990  -12.2140 H   0  0  0  0  0  0  0  0  0  0  0  0
   -1.3310   14.3320  -13.1770 H   0  0  0  0  0  0  0  0  0  0  0  0
    0.1430   14.1110  -14.1670 H   0  0  0  0  0  0  0  0  0  0  0  0
   -0.6260    7.5500  -14.5830 H   0  0  0  0  0  0  0  0  0  0  0  0
   -1.4090    8.9880  -15.4300 H   0  0  0  0  0  0  0  0  0  0  0  0
   -2.9290    7.1170  -15.0290 H   0  0  0  0  0  0  0  0  0  0  0  0
   -2.6640    7.2540  -13.2460 H   0  0  0  0  0  0  0  0  0  0  0  0
   -2.7070   10.4530  -14.6500 H   0  0  0  0  0  0  0  0  0  0  0  0
   -3.9910   10.6810  -13.4330 H   0  0  0  0  0  0  0  0  0  0  0  0
   -2.5600    8.9410  -12.0230 H   0  0  0  0  0  0  0  0  0  0  0  0
   -1.9880   10.6600  -12.0350 H   0  0  0  0  0  0  0  0  0  0  0  0
  1  2  1  0  0  0  0
  2  7  1  0  0  0  0
  3  4  1  0  0  0  0
  3  2  2  0  0  0  0
  4  5  2  0  0  0  0
  5  8  1  0  0  0  0
  5  6  1  0  0  0  0
  6 31  1  0  0  0  0
  7  6  2  0  0  0  0
  7 32  1  0  0  0  0
  9 29  1  0  0  0  0
  9  8  1  0  0  0  0
 10  9  1  0  0  0  0
 10 34  1  0  0  0  0
 11 10  1  0  0  0  0
 11 13  1  0  0  0  0
 12 11  1  0  0  0  0
 12  4  1  0  0  0  0
 13 15  1  0  0  0  0
 14 13  2  0  0  0  0
 15 16  1  0  0  0  0
 15 37  1  0  0  0  0
 16 17  1  0  0  0  0
 17 40  1  0  0  0  0
 17 39  1  0  0  0  0
 18 17  1  0  0  0  0
 18 42  1  0  0  0  0
 19 43  1  0  0  0  0
 19 18  1  0  0  0  0
 20 21  1  0  0  0  0
 20 19  1  0  0  0  0
 21 47  1  0  0  0  0
 21 16  1  0  0  0  0
 22 23  2  0  0  0  0
 22 19  1  0  0  0  0
 24 48  1  0  0  0  0
 24 22  1  0  0  0  0
 25 26  1  0  0  0  0
 25  9  1  0  0  0  0
 26 27  1  0  0  0  0
 26 53  1  0  0  0  0
 27 28  1  0  0  0  0
 28 55  1  0  0  0  0
 28 29  1  0  0  0  0
 29 57  1  0  0  0  0
 29 56  1  0  0  0  0
 30  3  1  0  0  0  0
 33 10  1  0  0  0  0
 35 12  1  0  0  0  0
 36 12  1  0  0  0  0
 38 15  1  0  0  0  0
 41 18  1  0  0  0  0
 44 20  1  0  0  0  0
 45 20  1  0  0  0  0
 46 21  1  0  0  0  0
 49 24  1  0  0  0  0
 50 25  1  0  0  0  0
 51 25  1  0  0  0  0
 52 26  1  0  0  0  0
 54 28  1  0  0  0  0
M  END
>  <Pose>
1

>  <Score>
-5.30

$$$$
