
 OpenBabel03232203513D

 50 53  0  0  1  0  0  0  0  0999 V2000
    0.9080   15.2780  -12.3510 S   0  0  0  0  0  0  0  0  0  0  0  0
    2.1390   16.0150  -12.8550 O   0  0  0  0  0  0  0  0  0  0  0  0
    1.1070   15.2210  -10.8370 O   0  0  0  0  0  0  0  0  0  0  0  0
    0.8350   13.7180  -12.9540 N   0  0  0  0  0  0  0  0  0  0  0  0
   -0.4150   13.1020  -13.0490 C   0  0  0  0  0  0  0  0  0  0  0  0
   -0.3770   11.7980  -13.8590 C   0  0  0  0  0  0  0  0  0  0  0  0
    0.8180   11.0520  -13.6010 N   0  0  0  0  0  0  0  0  0  0  0  0
    2.0740   11.7690  -13.5640 C   0  0  0  0  0  0  0  0  0  0  0  0
    1.9170   12.8620  -12.5260 C   0  0  0  0  0  0  0  0  0  0  0  0
    0.7610    9.6690  -13.3910 C   0  0  0  0  0  0  0  0  0  0  0  0
   -0.1480    8.9830  -13.9250 O   0  0  0  0  0  0  0  0  0  0  0  0
    1.7550    8.9450  -12.5380 C   0  0  0  0  0  0  0  0  0  0  0  0
    2.2160    7.6330  -13.1270 C   0  0  0  0  0  0  0  0  0  0  0  0
    1.0760    6.9650  -12.3620 C   0  0  0  0  0  0  0  0  0  0  0  0
    1.0850    8.1780  -11.4270 C   0  0  0  0  0  0  0  0  0  0  0  0
   -0.4890   16.2940  -12.6330 C   0  0  0  0  0  0  0  0  0  0  0  0
   -0.9180   17.1560  -11.6030 C   0  0  0  0  0  0  0  0  0  0  0  0
   -2.0430   17.9350  -11.7420 C   0  0  0  0  0  0  0  0  0  0  0  0
   -2.8150   17.9240  -12.8820 C   0  0  0  0  0  0  0  0  0  0  0  0
   -2.4000   17.0880  -13.8890 C   0  0  0  0  0  0  0  0  0  0  0  0
   -1.2560   16.2860  -13.7670 C   0  0  0  0  0  0  0  0  0  0  0  0
   -0.7530   15.3060  -15.1230 Cl  0  0  0  0  0  0  0  0  0  0  0  0
   -3.9630   18.7480  -12.9600 N   0  0  0  0  0  0  0  0  0  0  0  0
   -4.3620   19.6010  -11.8950 C   0  0  0  0  0  0  0  0  0  0  0  0
   -5.1920   20.5250  -11.9920 O   0  0  0  0  0  0  0  0  0  0  0  0
   -3.7200   19.3460  -10.5780 C   0  0  2  0  0  0  0  0  0  0  0  0
   -2.4450   18.7800  -10.7070 O   0  0  0  0  0  0  0  0  0  0  0  0
   -4.5690   18.4170   -9.7400 C   0  0  0  0  0  0  0  0  0  0  0  0
   -1.1030   13.7440  -13.6340 H   0  0  0  0  0  0  0  0  0  0  0  0
   -0.8580   12.8690  -12.0720 H   0  0  0  0  0  0  0  0  0  0  0  0
   -1.2590   11.2050  -13.5760 H   0  0  0  0  0  0  0  0  0  0  0  0
   -0.3790   12.0590  -14.9360 H   0  0  0  0  0  0  0  0  0  0  0  0
    2.9360   11.1170  -13.3620 H   0  0  0  0  0  0  0  0  0  0  0  0
    2.2010   12.2750  -14.5630 H   0  0  0  0  0  0  0  0  0  0  0  0
    1.6630   12.4020  -11.5480 H   0  0  0  0  0  0  0  0  0  0  0  0
    2.8280   13.4600  -12.4620 H   0  0  0  0  0  0  0  0  0  0  0  0
    2.5910    9.6100  -12.2120 H   0  0  0  0  0  0  0  0  0  0  0  0
    3.2050    7.3030  -12.7840 H   0  0  0  0  0  0  0  0  0  0  0  0
    2.0900    7.5510  -14.2380 H   0  0  0  0  0  0  0  0  0  0  0  0
    0.1480    6.8880  -12.9520 H   0  0  0  0  0  0  0  0  0  0  0  0
    1.3430    6.0160  -11.8910 H   0  0  0  0  0  0  0  0  0  0  0  0
    1.7360    8.0460  -10.5360 H   0  0  0  0  0  0  0  0  0  0  0  0
    0.0840    8.5270  -11.1450 H   0  0  0  0  0  0  0  0  0  0  0  0
   -0.3240   17.1740  -10.7070 H   0  0  0  0  0  0  0  0  0  0  0  0
   -2.9720   17.0440  -14.8000 H   0  0  0  0  0  0  0  0  0  0  0  0
   -4.5450   18.7360  -13.8300 H   0  0  0  0  0  0  0  0  0  0  0  0
   -3.6310   20.3100  -10.0540 H   0  0  0  0  0  0  0  0  0  0  0  0
   -5.5990   18.3760  -10.1950 H   0  0  0  0  0  0  0  0  0  0  0  0
   -4.6210   18.7980   -8.7050 H   0  0  0  0  0  0  0  0  0  0  0  0
   -4.1530   17.3920   -9.7750 H   0  0  0  0  0  0  0  0  0  0  0  0
  1  3  2  0  0  0  0
  2  1  2  0  0  0  0
  4  9  1  0  0  0  0
  4  1  1  0  0  0  0
  5  4  1  0  0  0  0
  5 30  1  0  0  0  0
  6  7  1  0  0  0  0
  6 31  1  0  0  0  0
  6  5  1  0  0  0  0
  7  8  1  0  0  0  0
  7 10  1  0  0  0  0
  8 33  1  0  0  0  0
  8  9  1  0  0  0  0
  9 36  1  0  0  0  0
  9 35  1  0  0  0  0
 10 12  1  0  0  0  0
 11 10  2  0  0  0  0
 12 37  1  0  0  0  0
 12 15  1  0  0  0  0
 13 38  1  0  0  0  0
 13 12  1  0  0  0  0
 13 14  1  0  0  0  0
 14 41  1  0  0  0  0
 14 15  1  0  0  0  0
 15 43  1  0  0  0  0
 15 42  1  0  0  0  0
 16  1  1  0  0  0  0
 16 17  1  0  0  0  0
 17 44  1  0  0  0  0
 18 17  2  0  0  0  0
 18 27  1  0  0  0  0
 19 18  1  0  0  0  0
 20 21  1  0  0  0  0
 20 19  2  0  0  0  0
 21 16  2  0  0  0  0
 22 21  1  0  0  0  0
 23 19  1  0  0  0  0
 23 24  1  0  0  0  0
 24 26  1  0  0  0  0
 25 24  2  0  0  0  0
 26 47  1  1  0  0  0
 26 28  1  0  0  0  0
 27 26  1  0  0  0  0
 28 49  1  0  0  0  0
 29  5  1  0  0  0  0
 32  6  1  0  0  0  0
 34  8  1  0  0  0  0
 39 13  1  0  0  0  0
 40 14  1  0  0  0  0
 45 20  1  0  0  0  0
 46 23  1  0  0  0  0
 48 28  1  0  0  0  0
 50 28  1  0  0  0  0
M  END
>  <Pose>
1

>  <Score>
-6.14

$$$$
