
 OpenBabel03232203513D

 37 40  0  0  1  0  0  0  0  0999 V2000
   -0.0870    7.5140  -14.1420 Cl  0  0  0  0  0  0  0  0  0  0  0  0
    1.1850    8.7330  -14.1420 C   0  0  0  0  0  0  0  0  0  0  0  0
    0.9770    9.9670  -13.5310 C   0  0  0  0  0  0  0  0  0  0  0  0
    2.0010   10.8840  -13.5550 C   0  0  0  0  0  0  0  0  0  0  0  0
    3.2230   10.5850  -14.1780 C   0  0  0  0  0  0  0  0  0  0  0  0
    3.4190    9.3750  -14.7740 C   0  0  0  0  0  0  0  0  0  0  0  0
    2.3900    8.4490  -14.7500 C   0  0  0  0  0  0  0  0  0  0  0  0
    1.8800   12.1710  -12.9610 N   0  0  0  0  0  0  0  0  0  0  0  0
    2.8140   12.9560  -12.2270 C   0  0  0  0  0  0  0  0  0  0  0  0
    4.0470   12.8150  -12.2820 O   0  0  0  0  0  0  0  0  0  0  0  0
    2.0830   13.9390  -11.4090 C   0  0  1  0  0  0  0  0  0  0  0  0
    2.6360   15.1680  -11.2400 O   0  0  0  0  0  0  0  0  0  0  0  0
    1.5290   15.9960  -11.2270 N   0  0  0  0  0  0  0  0  0  0  0  0
    0.5990   15.5080  -12.1970 C   0  0  0  0  0  0  0  0  0  0  0  0
    0.9330   14.2290  -12.3270 C   0  0  0  0  0  0  0  0  0  0  0  0
    0.6760   12.9790  -13.0270 C   0  0  0  0  0  0  0  0  0  0  0  0
   -0.4200   12.6990  -13.5750 O   0  0  0  0  0  0  0  0  0  0  0  0
   -0.4880   16.2120  -12.8480 C   0  0  0  0  0  0  0  0  0  0  0  0
   -1.3200   17.0890  -12.1460 C   0  0  0  0  0  0  0  0  0  0  0  0
   -2.2450   17.5930  -12.9750 N   0  0  0  0  0  0  0  0  0  0  0  0
   -2.0400   17.0720  -14.1860 N   0  0  0  0  0  0  0  0  0  0  0  0
   -0.9790   16.2340  -14.1210 C   0  0  0  0  0  0  0  0  0  0  0  0
   -0.4360   15.4400  -15.2520 C   0  0  0  0  0  0  0  0  0  0  0  0
   -3.3180   18.5400  -12.6910 C   0  0  0  0  0  0  0  0  0  0  0  0
    0.0280   10.2140  -13.0390 H   0  0  0  0  0  0  0  0  0  0  0  0
    4.0090   11.3420  -14.1740 H   0  0  0  0  0  0  0  0  0  0  0  0
    4.3890    9.1600  -15.2630 H   0  0  0  0  0  0  0  0  0  0  0  0
    2.5130    7.4730  -15.2200 H   0  0  0  0  0  0  0  0  0  0  0  0
    1.7170   13.4690  -10.4700 H   0  0  0  0  0  0  0  0  0  0  0  0
    1.4290   16.8120  -10.6020 H   0  0  0  0  0  0  0  0  0  0  0  0
   -1.2500   17.3380  -11.1000 H   0  0  0  0  0  0  0  0  0  0  0  0
    0.3280   16.0240  -15.7740 H   0  0  0  0  0  0  0  0  0  0  0  0
   -1.2490   15.2610  -15.9950 H   0  0  0  0  0  0  0  0  0  0  0  0
   -0.0870   14.4450  -14.9320 H   0  0  0  0  0  0  0  0  0  0  0  0
   -4.3100   18.0880  -12.9080 H   0  0  0  0  0  0  0  0  0  0  0  0
   -3.3640   18.7610  -11.5870 H   0  0  0  0  0  0  0  0  0  0  0  0
   -3.2280   19.4660  -13.2880 H   0  0  0  0  0  0  0  0  0  0  0  0
  1  2  1  0  0  0  0
  2  3  1  0  0  0  0
  3 25  1  0  0  0  0
  4  3  2  0  0  0  0
  4  8  1  0  0  0  0
  5 26  1  0  0  0  0
  5  4  1  0  0  0  0
  6  7  1  0  0  0  0
  6  5  2  0  0  0  0
  7  2  2  0  0  0  0
  8  9  1  0  0  0  0
  9 11  1  0  0  0  0
 10  9  2  0  0  0  0
 11 12  1  0  0  0  0
 11 29  1  1  0  0  0
 12 13  1  0  0  0  0
 13 30  1  0  0  0  0
 14 13  1  0  0  0  0
 15 14  2  0  0  0  0
 15 11  1  0  0  0  0
 16  8  1  0  0  0  0
 16 15  1  0  0  0  0
 17 16  2  0  0  0  0
 18 14  1  0  0  0  0
 18 19  2  0  0  0  0
 19 31  1  0  0  0  0
 20 24  1  0  0  0  0
 20 19  1  0  0  0  0
 21 22  2  0  0  0  0
 21 20  1  0  0  0  0
 22 18  1  0  0  0  0
 23 34  1  0  0  0  0
 23 22  1  0  0  0  0
 24 36  1  0  0  0  0
 27  6  1  0  0  0  0
 28  7  1  0  0  0  0
 32 23  1  0  0  0  0
 33 23  1  0  0  0  0
 35 24  1  0  0  0  0
 37 24  1  0  0  0  0
M  END
>  <Pose>
1

>  <Score>
-6.07

$$$$
