
 OpenBabel03232203513D

 40 43  0  0  0  0  0  0  0  0999 V2000
   -5.5390   22.1810   -9.0900 Cl  0  0  0  0  0  0  0  0  0  0  0  0
   -4.8190   20.9720  -10.1400 C   0  0  0  0  0  0  0  0  0  0  0  0
   -3.5720   20.4300   -9.8960 C   0  0  0  0  0  0  0  0  0  0  0  0
   -3.0230   19.4950  -10.7150 N   0  0  0  0  0  0  0  0  0  0  0  0
   -3.6520   19.0360  -11.8110 C   0  0  0  0  0  0  0  0  0  0  0  0
   -3.1170   18.1100  -12.6280 N   0  0  0  0  0  0  0  0  0  0  0  0
   -1.9040   17.5770  -12.3990 C   0  0  0  0  0  0  0  0  0  0  0  0
   -1.2430   18.0470  -11.2620 C   0  0  0  0  0  0  0  0  0  0  0  0
   -1.8010   18.9950  -10.4330 C   0  0  0  0  0  0  0  0  0  0  0  0
   -1.1940   19.4210   -9.3970 O   0  0  0  0  0  0  0  0  0  0  0  0
   -1.2720   16.5530  -13.2710 C   0  0  0  0  0  0  0  0  0  0  0  0
   -0.3750   15.7730  -12.5010 N   0  0  0  0  0  0  0  0  0  0  0  0
    0.9460   15.6170  -12.9820 C   0  0  0  0  0  0  0  0  0  0  0  0
    1.6140   14.3140  -12.5710 C   0  0  0  0  0  0  0  0  0  0  0  0
    0.6430   13.2370  -12.9000 C   0  0  0  0  0  0  0  0  0  0  0  0
   -0.6530   13.4470  -12.4750 C   0  0  0  0  0  0  0  0  0  0  0  0
   -1.5660   12.5040  -12.7500 N   0  0  0  0  0  0  0  0  0  0  0  0
   -1.2100   11.3720  -13.4310 C   0  0  0  0  0  0  0  0  0  0  0  0
    0.0720   11.2010  -13.8330 N   0  0  0  0  0  0  0  0  0  0  0  0
    1.0380   12.1140  -13.5880 C   0  0  0  0  0  0  0  0  0  0  0  0
   -2.2120   10.3190  -13.7420 C   0  0  0  0  0  0  0  0  0  0  0  0
   -0.9350   14.7060  -11.7430 C   0  0  0  0  0  0  0  0  0  0  0  0
   -4.9080   19.5650  -12.0790 C   0  0  0  0  0  0  0  0  0  0  0  0
   -5.4820   20.5150  -11.2590 C   0  0  0  0  0  0  0  0  0  0  0  0
   -3.0380   20.7850   -9.0120 H   0  0  0  0  0  0  0  0  0  0  0  0
   -0.2690   17.6410  -11.0480 H   0  0  0  0  0  0  0  0  0  0  0  0
   -2.0990   15.9210  -13.6690 H   0  0  0  0  0  0  0  0  0  0  0  0
   -0.7700   17.0810  -14.0970 H   0  0  0  0  0  0  0  0  0  0  0  0
    1.6280   16.4530  -12.7170 H   0  0  0  0  0  0  0  0  0  0  0  0
    0.9080   15.5650  -14.1090 H   0  0  0  0  0  0  0  0  0  0  0  0
    1.7320   14.3730  -11.4520 H   0  0  0  0  0  0  0  0  0  0  0  0
    2.5590   14.1880  -13.0930 H   0  0  0  0  0  0  0  0  0  0  0  0
    2.0530   11.9460  -13.9220 H   0  0  0  0  0  0  0  0  0  0  0  0
   -3.0780   10.4600  -13.0680 H   0  0  0  0  0  0  0  0  0  0  0  0
   -2.5350   10.4940  -14.8000 H   0  0  0  0  0  0  0  0  0  0  0  0
   -1.7870    9.3060  -13.6060 H   0  0  0  0  0  0  0  0  0  0  0  0
   -0.5450   14.6540  -10.6960 H   0  0  0  0  0  0  0  0  0  0  0  0
   -2.0320   14.8650  -11.6790 H   0  0  0  0  0  0  0  0  0  0  0  0
   -5.4260   19.1980  -12.9680 H   0  0  0  0  0  0  0  0  0  0  0  0
   -6.4720   20.9260  -11.4790 H   0  0  0  0  0  0  0  0  0  0  0  0
  2  3  1  0  0  0  0
  2  1  1  0  0  0  0
  3 25  1  0  0  0  0
  4  9  1  0  0  0  0
  4  3  1  0  0  0  0
  5  4  1  0  0  0  0
  6  7  2  0  0  0  0
  6  5  1  0  0  0  0
  7  8  1  0  0  0  0
  8 26  1  0  0  0  0
  8  9  1  0  0  0  0
  9 10  2  0  0  0  0
 11 12  1  0  0  0  0
 11  7  1  0  0  0  0
 12 22  1  0  0  0  0
 13 29  1  0  0  0  0
 13 14  1  0  0  0  0
 13 12  1  0  0  0  0
 14 31  1  0  0  0  0
 15 14  1  0  0  0  0
 15 16  2  0  0  0  0
 16 22  1  0  0  0  0
 17 16  1  0  0  0  0
 18 17  2  0  0  0  0
 19 20  2  0  0  0  0
 19 18  1  0  0  0  0
 20 15  1  0  0  0  0
 21 36  1  0  0  0  0
 21 18  1  0  0  0  0
 21 34  1  0  0  0  0
 22 38  1  0  0  0  0
 22 37  1  0  0  0  0
 23  5  2  0  0  0  0
 23 24  1  0  0  0  0
 24  2  2  0  0  0  0
 27 11  1  0  0  0  0
 28 11  1  0  0  0  0
 30 13  1  0  0  0  0
 32 14  1  0  0  0  0
 33 20  1  0  0  0  0
 35 21  1  0  0  0  0
 39 23  1  0  0  0  0
 40 24  1  0  0  0  0
M  END
>  <Pose>
1

>  <Score>
-5.79

$$$$
