
 OpenBabel03232203513D

 50 53  0  0  1  0  0  0  0  0999 V2000
   -3.5090    5.1040  -16.6510 Cl  0  0  0  0  0  0  0  0  0  0  0  0
   -3.3600    6.4890  -15.5730 C   0  0  0  0  0  0  0  0  0  0  0  0
   -2.2120    6.5780  -14.7640 C   0  0  0  0  0  0  0  0  0  0  0  0
   -2.0980    7.6540  -13.9360 C   0  0  0  0  0  0  0  0  0  0  0  0
   -3.0750    8.6380  -13.8720 C   0  0  0  0  0  0  0  0  0  0  0  0
   -4.1880    8.5230  -14.6730 C   0  0  0  0  0  0  0  0  0  0  0  0
   -4.3410    7.4550  -15.5290 C   0  0  0  0  0  0  0  0  0  0  0  0
   -5.2320    9.6030  -14.5840 C   0  0  0  0  0  0  0  0  0  0  0  0
   -0.7490    7.5740  -13.2950 C   0  0  2  0  0  0  0  0  0  0  0  0
   -0.6990    7.9910  -11.9500 N   0  0  0  0  0  0  0  0  0  0  0  0
   -0.4400    9.4030  -11.9640 C   0  0  2  0  0  0  0  0  0  0  0  0
   -0.0820    9.8180  -13.3320 C   0  0  2  0  0  0  0  0  0  0  0  0
    0.2260    8.4710  -13.9900 C   0  0  1  0  0  0  0  0  0  0  0  0
    1.6030    8.2720  -13.5780 C   0  0  0  0  0  0  0  0  0  0  0  0
    2.2610    7.2680  -13.2280 O   0  0  0  0  0  0  0  0  0  0  0  0
    2.2000    9.5950  -13.6370 N   0  0  0  0  0  0  0  0  0  0  0  0
    1.1620   10.5550  -13.5140 C   0  0  0  0  0  0  0  0  0  0  0  0
    1.3170   11.7840  -13.5580 O   0  0  0  0  0  0  0  0  0  0  0  0
    3.5890    9.9330  -13.8020 C   0  0  0  0  0  0  0  0  0  0  0  0
    4.2670    9.3210  -14.9710 C   0  0  0  0  0  0  0  0  0  0  0  0
    4.6690    8.0240  -14.8660 O   0  0  0  0  0  0  0  0  0  0  0  0
    5.5180    7.7530  -13.8140 C   0  0  0  0  0  0  0  0  0  0  0  0
    0.5320    9.8180  -10.8750 C   0  0  1  0  0  0  0  0  0  0  0  0
    1.7750    9.2650  -10.9660 O   0  0  0  0  0  0  0  0  0  0  0  0
    0.4750   11.3000  -10.7020 C   0  0  0  0  0  0  0  0  0  0  0  0
   -0.3460    6.1900  -13.5300 C   0  0  0  0  0  0  0  0  0  0  0  0
    0.5490    5.4730  -12.9810 O   0  0  0  0  0  0  0  0  0  0  0  0
   -1.1500    5.6550  -14.5550 N   0  0  0  0  0  0  0  0  0  0  0  0
   -3.0250    9.5050  -13.2130 H   0  0  0  0  0  0  0  0  0  0  0  0
   -5.2360    7.3910  -16.1560 H   0  0  0  0  0  0  0  0  0  0  0  0
   -4.7160   10.5850  -14.5790 H   0  0  0  0  0  0  0  0  0  0  0  0
   -5.7690    9.5420  -13.5930 H   0  0  0  0  0  0  0  0  0  0  0  0
   -5.9300    9.5650  -15.4230 H   0  0  0  0  0  0  0  0  0  0  0  0
   -1.5720    7.7640  -11.4160 H   0  0  0  0  0  0  0  0  0  0  0  0
   -1.3880    9.9580  -11.6720 H   0  0  0  0  0  0  0  0  0  0  0  0
   -0.9250   10.2350  -13.9370 H   0  0  0  0  0  0  0  0  0  0  0  0
    0.0730    8.5230  -15.0860 H   0  0  0  0  0  0  0  0  0  0  0  0
    3.6840   11.0400  -13.9020 H   0  0  0  0  0  0  0  0  0  0  0  0
    4.1290    9.6820  -12.8570 H   0  0  0  0  0  0  0  0  0  0  0  0
    5.1920    9.9370  -15.1690 H   0  0  0  0  0  0  0  0  0  0  0  0
    3.6590    9.4610  -15.8970 H   0  0  0  0  0  0  0  0  0  0  0  0
    5.0850    7.9900  -12.8410 H   0  0  0  0  0  0  0  0  0  0  0  0
    5.7490    6.6660  -13.8420 H   0  0  0  0  0  0  0  0  0  0  0  0
    6.4500    8.3560  -13.9820 H   0  0  0  0  0  0  0  0  0  0  0  0
    0.0740    9.3610   -9.9350 H   0  0  0  0  0  0  0  0  0  0  0  0
    2.5050    9.8300  -10.6070 H   0  0  0  0  0  0  0  0  0  0  0  0
    0.1970   11.5370   -9.6290 H   0  0  0  0  0  0  0  0  0  0  0  0
    1.4650   11.7920  -10.8220 H   0  0  0  0  0  0  0  0  0  0  0  0
   -0.3220   11.7130  -11.3320 H   0  0  0  0  0  0  0  0  0  0  0  0
   -1.0420    4.7600  -15.0970 H   0  0  0  0  0  0  0  0  0  0  0  0
  1  2  1  0  0  0  0
  2  7  2  0  0  0  0
  2  3  1  0  0  0  0
  3 28  1  0  0  0  0
  3  4  2  0  0  0  0
  4  5  1  0  0  0  0
  5 29  1  0  0  0  0
  6  8  1  0  0  0  0
  6  5  2  0  0  0  0
  7  6  1  0  0  0  0
  8 31  1  0  0  0  0
  8 32  1  0  0  0  0
  9  4  1  6  0  0  0
  9 10  1  0  0  0  0
 10 34  1  0  0  0  0
 11 10  1  0  0  0  0
 11 35  1  1  0  0  0
 11 23  1  0  0  0  0
 12 36  1  6  0  0  0
 12 11  1  0  0  0  0
 13 37  1  6  0  0  0
 13 14  1  0  0  0  0
 13 12  1  0  0  0  0
 13  9  1  0  0  0  0
 14 15  2  0  0  0  0
 16 14  1  0  0  0  0
 16 17  1  0  0  0  0
 17 12  1  0  0  0  0
 18 17  2  0  0  0  0
 19 16  1  0  0  0  0
 19 39  1  0  0  0  0
 20 21  1  0  0  0  0
 20 19  1  0  0  0  0
 21 22  1  0  0  0  0
 22 42  1  0  0  0  0
 23 25  1  0  0  0  0
 23 45  1  1  0  0  0
 24 23  1  0  0  0  0
 24 46  1  0  0  0  0
 25 47  1  0  0  0  0
 26  9  1  0  0  0  0
 26 27  2  0  0  0  0
 28 26  1  0  0  0  0
 30  7  1  0  0  0  0
 33  8  1  0  0  0  0
 38 19  1  0  0  0  0
 40 20  1  0  0  0  0
 41 20  1  0  0  0  0
 43 22  1  0  0  0  0
 44 22  1  0  0  0  0
 48 25  1  0  0  0  0
 49 25  1  0  0  0  0
 50 28  1  0  0  0  0
M  END
>  <Pose>
1

>  <Score>
-3.76

$$$$
