
 OpenBabel03232203513D

 55 58  0  0  0  0  0  0  0  0999 V2000
  -10.1390   12.9420  -17.0390 B   0  0  0  0  0  0  0  0  0  0  0  0
   -9.0630   12.1340  -15.7000 C   0  0  0  0  0  0  0  0  0  0  0  0
   -8.2840   10.9920  -15.9600 C   0  0  0  0  0  0  0  0  0  0  0  0
   -7.5210   10.4270  -14.9720 C   0  0  0  0  0  0  0  0  0  0  0  0
   -7.5180   10.9880  -13.7150 C   0  0  0  0  0  0  0  0  0  0  0  0
   -8.2950   12.1270  -13.4590 C   0  0  0  0  0  0  0  0  0  0  0  0
   -9.0530   12.6840  -14.4380 C   0  0  0  0  0  0  0  0  0  0  0  0
   -6.7430   10.3890  -12.7830 O   0  0  0  0  0  0  0  0  0  0  0  0
   -7.1450    9.5250  -11.7770 C   0  0  0  0  0  0  0  0  0  0  0  0
   -6.6860    9.2700  -15.2600 C   0  0  0  0  0  0  0  0  0  0  0  0
   -5.4650    9.0750  -14.8780 C   0  0  0  0  0  0  0  0  0  0  0  0
   -4.7010    9.9190  -14.1220 O   0  0  0  0  0  0  0  0  0  0  0  0
   -3.4480    9.3420  -13.9220 C   0  0  0  0  0  0  0  0  0  0  0  0
   -3.3390    8.1310  -14.5270 C   0  0  0  0  0  0  0  0  0  0  0  0
   -2.1640    7.3770  -14.4320 C   0  0  0  0  0  0  0  0  0  0  0  0
   -1.0700    7.8170  -13.7330 C   0  0  0  0  0  0  0  0  0  0  0  0
   -1.2290    9.0770  -13.1290 C   0  0  0  0  0  0  0  0  0  0  0  0
   -2.3530    9.8280  -13.1980 C   0  0  0  0  0  0  0  0  0  0  0  0
   -2.5050   11.1710  -12.6090 C   0  0  0  0  0  0  0  0  0  0  0  0
   -1.4750   12.0720  -13.0690 N   0  0  0  0  0  4  0  0  0  0  0  0
   -0.3470   11.2990  -13.5580 C   0  0  0  0  0  0  0  0  0  0  0  0
    0.9750   11.8500  -13.2260 C   0  0  0  0  0  0  0  0  0  0  0  0
    1.0580   13.2710  -13.1140 N   0  0  0  0  0  0  0  0  0  0  0  0
   -0.1270   14.0020  -13.1290 C   0  0  0  0  0  0  0  0  0  0  0  0
   -1.2280   13.2300  -12.3560 C   0  0  0  0  0  0  0  0  0  0  0  0
    2.1560   13.7910  -12.3920 C   0  0  0  0  0  0  0  0  0  0  0  0
    1.8290   14.8480  -11.3960 C   0  0  0  0  0  0  0  0  0  0  0  0
   -0.0710    9.4910  -12.4390 O   0  0  0  0  0  0  0  0  0  0  0  0
   -4.6370    7.9050  -15.1730 C   0  0  0  0  0  0  0  0  0  0  0  0
   -4.9700    6.8900  -15.8510 O   0  0  0  0  0  0  0  0  0  0  0  0
   -8.3450   10.6140  -16.9680 H   0  0  0  0  0  0  0  0  0  0  0  0
   -8.2890   12.5760  -12.4660 H   0  0  0  0  0  0  0  0  0  0  0  0
   -9.6330   13.5690  -14.1860 H   0  0  0  0  0  0  0  0  0  0  0  0
   -6.5860    8.5480  -11.8020 H   0  0  0  0  0  0  0  0  0  0  0  0
   -8.2090    9.2300  -11.7690 H   0  0  0  0  0  0  0  0  0  0  0  0
   -6.9640   10.0010  -10.7540 H   0  0  0  0  0  0  0  0  0  0  0  0
   -7.1120    8.4350  -15.8710 H   0  0  0  0  0  0  0  0  0  0  0  0
   -2.1870    6.4200  -14.9490 H   0  0  0  0  0  0  0  0  0  0  0  0
   -0.1650    7.2640  -13.6430 H   0  0  0  0  0  0  0  0  0  0  0  0
   -2.6130   11.1310  -11.5160 H   0  0  0  0  0  0  0  0  0  0  0  0
   -3.5260   11.5420  -12.9600 H   0  0  0  0  0  0  0  0  0  0  0  0
   -1.9380   12.4350  -14.0240 H   0  0  0  0  0  0  0  0  0  0  0  0
   -0.4570   11.1120  -14.6550 H   0  0  0  0  0  0  0  0  0  0  0  0
   -0.4270   10.2830  -13.1080 H   0  0  0  0  0  0  0  0  0  0  0  0
    1.4180   11.3190  -12.3480 H   0  0  0  0  0  0  0  0  0  0  0  0
    1.6740   11.5720  -14.0790 H   0  0  0  0  0  0  0  0  0  0  0  0
   -0.0270   15.0210  -12.7800 H   0  0  0  0  0  0  0  0  0  0  0  0
   -0.5580   14.0380  -14.1690 H   0  0  0  0  0  0  0  0  0  0  0  0
   -2.1000   13.9490  -12.4940 H   0  0  0  0  0  0  0  0  0  0  0  0
   -1.0490   13.1620  -11.2980 H   0  0  0  0  0  0  0  0  0  0  0  0
    2.6330   12.9310  -11.8370 H   0  0  0  0  0  0  0  0  0  0  0  0
    2.9150   14.1330  -13.1480 H   0  0  0  0  0  0  0  0  0  0  0  0
    0.8220   15.2630  -11.4860 H   0  0  0  0  0  0  0  0  0  0  0  0
    2.0010   14.4940  -10.3460 H   0  0  0  0  0  0  0  0  0  0  0  0
    2.5250   15.6880  -11.5660 H   0  0  0  0  0  0  0  0  0  0  0  0
  1  2  1  0  0  0  0
  2  7  1  0  0  0  0
  3  2  2  0  0  0  0
  3  4  1  0  0  0  0
  4  5  2  0  0  0  0
  5  6  1  0  0  0  0
  5  8  1  0  0  0  0
  6 32  1  0  0  0  0
  7 33  1  0  0  0  0
  7  6  2  0  0  0  0
  8  9  1  0  0  0  0
  9 35  1  0  0  0  0
  9 36  1  0  0  0  0
 10  4  1  0  0  0  0
 10 11  2  0  0  0  0
 11 12  1  0  0  0  0
 12 13  1  0  0  0  0
 13 18  1  0  0  0  0
 14 15  1  0  0  0  0
 14 13  2  0  0  0  0
 15 16  2  0  0  0  0
 16 39  1  0  0  0  0
 16 17  1  0  0  0  0
 17 28  1  0  0  0  0
 18 17  2  0  0  0  0
 18 19  1  0  0  0  0
 19 40  1  0  0  0  0
 20 19  1  0  0  0  0
 20 25  1  0  0  0  0
 21 22  1  0  0  0  0
 21 20  1  0  0  0  0
 22 23  1  0  0  0  0
 22 45  1  0  0  0  0
 23 26  1  0  0  0  0
 24 23  1  0  0  0  0
 24 47  1  0  0  0  0
 24 25  1  0  0  0  0
 25 50  1  0  0  0  0
 26 51  1  0  0  0  0
 26 27  1  0  0  0  0
 27 54  1  0  0  0  0
 29 11  1  0  0  0  0
 29 14  1  0  0  0  0
 30 29  2  0  0  0  0
 31  3  1  0  0  0  0
 34  9  1  0  0  0  0
 37 10  1  0  0  0  0
 38 15  1  0  0  0  0
 41 19  1  0  0  0  0
 42 20  1  0  0  0  0
 43 21  1  0  0  0  0
 44 28  1  0  0  0  0
 46 22  1  0  0  0  0
 48 24  1  0  0  0  0
 49 25  1  0  0  0  0
 52 26  1  0  0  0  0
 53 27  1  0  0  0  0
 55 27  1  0  0  0  0
M  END
>  <Pose>
1

>  <Score>
-4.96

$$$$
