
 OpenBabel03232203513D

 49 52  0  0  1  0  0  0  0  0999 V2000
   -5.3260    9.6490  -13.6810 S   0  0  0  0  0  0  0  0  0  0  0  0
   -5.1550    8.1670  -13.9230 O   0  0  0  0  0  0  0  0  0  0  0  0
   -5.4810    9.8370  -12.2100 O   0  0  0  0  0  0  0  0  0  0  0  0
   -3.9140   10.4190  -14.2900 N   0  0  0  0  0  0  0  0  0  0  0  0
   -2.7490    9.9740  -13.5510 C   0  0  0  0  0  0  0  0  0  0  0  0
   -1.5360   10.8210  -13.9160 C   0  0  0  0  0  0  0  0  0  0  0  0
   -1.8380   12.2070  -13.5600 N   0  0  0  0  0  0  0  0  0  0  0  0
   -3.2080   12.4610  -13.2250 C   0  0  0  0  0  0  0  0  0  0  0  0
   -4.0670   11.8420  -14.2960 C   0  0  0  0  0  0  0  0  0  0  0  0
   -0.8080   13.1530  -13.5570 C   0  0  0  0  0  0  0  0  0  0  0  0
    0.2980   12.8670  -12.9410 O   0  0  0  0  0  0  0  0  0  0  0  0
   -0.7880   14.4840  -14.1710 C   0  0  0  0  0  0  0  0  0  0  0  0
   -0.6080   15.8330  -13.0110 S   0  0  0  0  0  0  0  0  0  0  0  0
   -2.0030   16.9450  -12.9610 C   0  0  1  0  0  0  0  0  0  0  0  0
   -2.9400   16.9180  -13.9000 N   0  0  0  0  0  0  0  0  0  0  0  0
   -4.0120   17.7150  -13.8990 C   0  0  0  0  0  0  0  0  0  0  0  0
   -4.1490   18.6100  -12.8720 N   0  0  0  0  0  0  0  0  0  0  0  0
   -3.2220   18.6630  -11.9100 C   0  0  0  0  0  0  0  0  0  0  0  0
   -3.1280   19.4420  -10.7930 N   0  0  0  0  0  0  0  0  0  0  0  0
   -2.0270   19.1120  -10.1500 N   0  0  0  0  0  0  0  0  0  0  0  0
   -1.3820   18.1400  -10.7990 C   0  0  0  0  0  0  0  0  0  0  0  0
   -2.1140   17.8360  -11.9160 C   0  0  0  0  0  0  0  0  0  0  0  0
   -4.0760   20.4390  -10.3890 C   0  0  0  0  0  0  0  0  0  0  0  0
   -6.7310   10.2380  -14.5410 C   0  0  0  0  0  0  0  0  0  0  0  0
   -7.1840    9.7200  -15.7330 C   0  0  0  0  0  0  0  0  0  0  0  0
   -8.2900   10.2330  -16.3650 C   0  0  0  0  0  0  0  0  0  0  0  0
   -8.9850   11.3020  -15.8000 C   0  0  0  0  0  0  0  0  0  0  0  0
   -8.5360   11.8400  -14.5890 C   0  0  0  0  0  0  0  0  0  0  0  0
   -7.4240   11.3080  -13.9740 C   0  0  0  0  0  0  0  0  0  0  0  0
  -10.3880   11.9420  -16.6130 Cl  0  0  0  0  0  0  0  0  0  0  0  0
   -2.5260    8.9430  -13.8550 H   0  0  0  0  0  0  0  0  0  0  0  0
   -2.9000   10.0020  -12.4690 H   0  0  0  0  0  0  0  0  0  0  0  0
   -0.6930   10.4510  -13.2970 H   0  0  0  0  0  0  0  0  0  0  0  0
   -1.3660   10.7020  -14.9890 H   0  0  0  0  0  0  0  0  0  0  0  0
   -3.4440   13.5280  -13.0500 H   0  0  0  0  0  0  0  0  0  0  0  0
   -3.4070   11.9720  -12.2330 H   0  0  0  0  0  0  0  0  0  0  0  0
   -5.1050   12.1970  -14.2590 H   0  0  0  0  0  0  0  0  0  0  0  0
   -3.6580   12.2500  -15.2710 H   0  0  0  0  0  0  0  0  0  0  0  0
   -1.7540   14.6270  -14.6960 H   0  0  0  0  0  0  0  0  0  0  0  0
   -0.0110   14.6180  -14.9530 H   0  0  0  0  0  0  0  0  0  0  0  0
   -4.7480   17.6570  -14.6810 H   0  0  0  0  0  0  0  0  0  0  0  0
   -0.4670   17.6780  -10.5020 H   0  0  0  0  0  0  0  0  0  0  0  0
   -5.1400   20.1310  -10.5880 H   0  0  0  0  0  0  0  0  0  0  0  0
   -3.9390   20.6430   -9.2910 H   0  0  0  0  0  0  0  0  0  0  0  0
   -3.8650   21.3640  -10.9590 H   0  0  0  0  0  0  0  0  0  0  0  0
   -6.6500    8.8940  -16.1660 H   0  0  0  0  0  0  0  0  0  0  0  0
   -8.6720    9.8470  -17.2960 H   0  0  0  0  0  0  0  0  0  0  0  0
   -9.0970   12.6770  -14.1740 H   0  0  0  0  0  0  0  0  0  0  0  0
   -7.0780   11.7130  -13.0520 H   0  0  0  0  0  0  0  0  0  0  0  0
  1  3  2  0  0  0  0
  2  1  2  0  0  0  0
  4  1  1  0  0  0  0
  4  5  1  0  0  0  0
  5 32  1  0  0  0  0
  6  7  1  0  0  0  0
  6  5  1  0  0  0  0
  6 33  1  0  0  0  0
  7 10  1  0  0  0  0
  7  8  1  0  0  0  0
  8 35  1  0  0  0  0
  8 36  1  0  0  0  0
  9  4  1  0  0  0  0
  9 37  1  0  0  0  0
  9  8  1  0  0  0  0
 10 11  2  0  0  0  0
 12 10  1  0  0  0  0
 12 13  1  0  0  0  0
 14 13  1  1  0  0  0
 14 22  1  0  0  0  0
 15 16  2  0  0  0  0
 15 14  1  0  0  0  0
 16 17  1  0  0  0  0
 17 18  1  0  0  0  0
 18 19  1  0  0  0  0
 19 23  1  0  0  0  0
 19 20  1  0  0  0  0
 21 42  1  0  0  0  0
 21 20  2  0  0  0  0
 22 18  2  0  0  0  0
 22 21  1  0  0  0  0
 23 44  1  0  0  0  0
 24 29  1  0  0  0  0
 24  1  1  0  0  0  0
 25 24  2  0  0  0  0
 26 27  2  0  0  0  0
 26 25  1  0  0  0  0
 27 28  1  0  0  0  0
 28 48  1  0  0  0  0
 28 29  2  0  0  0  0
 29 49  1  0  0  0  0
 30 27  1  0  0  0  0
 31  5  1  0  0  0  0
 34  6  1  0  0  0  0
 38  9  1  0  0  0  0
 39 12  1  0  0  0  0
 40 12  1  0  0  0  0
 41 16  1  0  0  0  0
 43 23  1  0  0  0  0
 45 23  1  0  0  0  0
 46 25  1  0  0  0  0
 47 26  1  0  0  0  0
M  END
>  <Pose>
1

>  <Score>
-8.18

$$$$
