
 OpenBabel03232203513D

 44 47  0  0  0  0  0  0  0  0999 V2000
   -1.4930    7.0500  -13.3980 Cl  0  0  0  0  0  0  0  0  0  0  0  0
   -0.9410    8.6960  -13.3960 C   0  0  0  0  0  0  0  0  0  0  0  0
    0.3840    9.0010  -13.2180 C   0  0  0  0  0  0  0  0  0  0  0  0
    0.7600   10.3250  -13.2250 C   0  0  0  0  0  0  0  0  0  0  0  0
   -0.1290   11.3640  -13.4030 C   0  0  0  0  0  0  0  0  0  0  0  0
   -1.4550   11.0400  -13.5810 C   0  0  0  0  0  0  0  0  0  0  0  0
   -1.8400    9.7170  -13.5740 C   0  0  0  0  0  0  0  0  0  0  0  0
    0.2960   12.7500  -13.4070 N   0  0  0  0  0  0  0  0  0  0  0  0
   -0.7060   13.7190  -13.1270 C   0  0  0  0  0  0  0  0  0  0  0  0
   -0.2890   15.0210  -12.6150 C   0  0  0  0  0  0  0  0  0  0  0  0
    0.7220   14.9320  -11.7850 O   0  0  0  0  0  0  0  0  0  0  0  0
   -0.7530   16.2930  -12.8400 N   0  0  0  0  0  0  0  0  0  0  0  0
   -1.2990   16.7920  -14.0610 C   0  0  0  0  0  0  0  0  0  0  0  0
   -2.7190   17.2810  -13.7890 C   0  0  0  0  0  0  0  0  0  0  0  0
   -2.5600   18.3570  -12.8880 O   0  0  0  0  0  0  0  0  0  0  0  0
   -2.1720   17.8460  -11.6690 C   0  0  0  0  0  0  0  0  0  0  0  0
   -0.7480   17.2830  -11.7400 C   0  0  0  0  0  0  0  0  0  0  0  0
    1.3660    8.0140  -13.0190 N   0  0  0  0  0  0  0  0  0  0  0  0
    1.2840    7.0450  -12.1300 N   0  0  0  0  0  0  0  0  0  0  0  0
    2.3550    6.2770  -12.1950 N   0  0  0  0  0  0  0  0  0  0  0  0
    3.1180    6.7830  -13.1430 N   0  0  0  0  0  0  0  0  0  0  0  0
    2.5100    7.8840  -13.6780 C   0  0  0  0  0  0  0  0  0  0  0  0
    3.1160    8.6740  -14.7490 C   0  0  0  0  0  0  0  0  0  0  0  0
    2.3910    9.4130  -15.7760 C   0  0  0  0  0  0  0  0  0  0  0  0
    2.9550   10.2140  -14.5900 C   0  0  0  0  0  0  0  0  0  0  0  0
    1.8220   10.5950  -13.0830 H   0  0  0  0  0  0  0  0  0  0  0  0
   -2.1520   11.8620  -13.7210 H   0  0  0  0  0  0  0  0  0  0  0  0
   -2.9110    9.5170  -13.7200 H   0  0  0  0  0  0  0  0  0  0  0  0
    1.2680   13.0090  -13.6020 H   0  0  0  0  0  0  0  0  0  0  0  0
   -1.3730   13.2670  -12.3280 H   0  0  0  0  0  0  0  0  0  0  0  0
   -1.4200   13.8370  -13.9920 H   0  0  0  0  0  0  0  0  0  0  0  0
   -0.7310   17.7870  -14.2290 H   0  0  0  0  0  0  0  0  0  0  0  0
   -1.1740   16.2090  -14.9580 H   0  0  0  0  0  0  0  0  0  0  0  0
   -3.1910   17.5830  -14.7240 H   0  0  0  0  0  0  0  0  0  0  0  0
   -3.3410   16.5510  -13.2750 H   0  0  0  0  0  0  0  0  0  0  0  0
   -2.8820   17.0530  -11.3590 H   0  0  0  0  0  0  0  0  0  0  0  0
   -2.2000   18.6270  -10.8980 H   0  0  0  0  0  0  0  0  0  0  0  0
   -0.4640   16.8440  -10.7870 H   0  0  0  0  0  0  0  0  0  0  0  0
   -0.1050   18.1120  -12.0960 H   0  0  0  0  0  0  0  0  0  0  0  0
    4.2020    8.4450  -14.9950 H   0  0  0  0  0  0  0  0  0  0  0  0
    2.9010    9.5670  -16.7750 H   0  0  0  0  0  0  0  0  0  0  0  0
    1.3160    9.5430  -15.8650 H   0  0  0  0  0  0  0  0  0  0  0  0
    3.8030   10.8560  -14.8620 H   0  0  0  0  0  0  0  0  0  0  0  0
    2.2890   10.5770  -13.8110 H   0  0  0  0  0  0  0  0  0  0  0  0
  1  2  1  0  0  0  0
  2  3  1  0  0  0  0
  3 18  1  0  0  0  0
  4  3  2  0  0  0  0
  4 26  1  0  0  0  0
  5  4  1  0  0  0  0
  6  7  1  0  0  0  0
  6  5  2  0  0  0  0
  7  2  2  0  0  0  0
  8  5  1  0  0  0  0
  8  9  1  0  0  0  0
  9 10  1  0  0  0  0
  9 30  1  0  0  0  0
 10 11  2  0  0  0  0
 12 10  1  0  0  0  0
 12 17  1  0  0  0  0
 13 14  1  0  0  0  0
 13 12  1  0  0  0  0
 14 35  1  0  0  0  0
 14 15  1  0  0  0  0
 15 16  1  0  0  0  0
 16 36  1  0  0  0  0
 16 37  1  0  0  0  0
 17 16  1  0  0  0  0
 17 38  1  0  0  0  0
 18 19  1  0  0  0  0
 20 19  2  0  0  0  0
 21 20  1  0  0  0  0
 22 21  2  0  0  0  0
 22 18  1  0  0  0  0
 23 25  1  0  0  0  0
 23 22  1  0  0  0  0
 24 23  1  0  0  0  0
 24 25  1  0  0  0  0
 25 44  1  0  0  0  0
 27  6  1  0  0  0  0
 28  7  1  0  0  0  0
 29  8  1  0  0  0  0
 31  9  1  0  0  0  0
 32 13  1  0  0  0  0
 33 13  1  0  0  0  0
 34 14  1  0  0  0  0
 39 17  1  0  0  0  0
 40 23  1  0  0  0  0
 41 24  1  0  0  0  0
 42 24  1  0  0  0  0
 43 25  1  0  0  0  0
M  END
>  <Pose>
1

>  <Score>
-5.86

$$$$
