
 OpenBabel03232203513D

 45 48  0  0  0  0  0  0  0  0999 V2000
    3.2530    8.8670  -14.4650 S   0  0  0  0  0  0  0  0  0  0  0  0
    2.5790    8.4360  -15.7490 O   0  0  0  0  0  0  0  0  0  0  0  0
    4.0690   10.0690  -14.7620 O   0  0  0  0  0  0  0  0  0  0  0  0
    2.0340    9.1930  -13.2930 N   0  0  0  0  0  0  0  0  0  0  0  0
    0.7610    9.1290  -13.9130 C   0  0  0  0  0  0  0  0  0  0  0  0
   -0.1760   10.2840  -13.6970 C   0  0  0  0  0  0  0  0  0  0  0  0
    0.5830   11.4830  -13.5650 N   0  0  0  0  0  0  0  0  0  0  0  0
    1.3440   11.3450  -12.3230 C   0  0  0  0  0  0  0  0  0  0  0  0
    2.3900   10.3150  -12.5310 C   0  0  0  0  0  0  0  0  0  0  0  0
   -0.1770   12.6860  -13.5730 C   0  0  0  0  0  0  0  0  0  0  0  0
    0.6440   13.8680  -13.1830 C   0  0  0  0  0  0  0  0  0  0  0  0
   -0.1630   15.0460  -12.9430 N   0  0  0  0  0  0  0  0  0  0  0  0
   -1.1130   15.5490  -13.7300 N   0  0  0  0  0  0  0  0  0  0  0  0
   -1.6530   16.6410  -13.1720 C   0  0  0  0  0  0  0  0  0  0  0  0
   -1.0300   16.8370  -12.0030 N   0  0  0  0  0  0  0  0  0  0  0  0
   -1.3570   17.8750  -11.1980 C   0  0  0  0  0  0  0  0  0  0  0  0
   -2.3400   18.7800  -11.5320 C   0  0  0  0  0  0  0  0  0  0  0  0
   -2.9990   18.6020  -12.7320 C   0  0  0  0  0  0  0  0  0  0  0  0
   -2.6440   17.5370  -13.5300 C   0  0  0  0  0  0  0  0  0  0  0  0
   -0.1060   15.8400  -11.8720 C   0  0  0  0  0  0  0  0  0  0  0  0
    0.6370   15.7650  -10.8650 O   0  0  0  0  0  0  0  0  0  0  0  0
    4.3410    7.6000  -13.8790 C   0  0  0  0  0  0  0  0  0  0  0  0
    6.0420    7.6020  -13.7690 S   0  0  0  0  0  0  0  0  0  0  0  0
    6.2790    6.0470  -13.1180 C   0  0  0  0  0  0  0  0  0  0  0  0
    5.0040    5.5620  -13.0030 C   0  0  0  0  0  0  0  0  0  0  0  0
    4.0050    6.3620  -13.3940 C   0  0  0  0  0  0  0  0  0  0  0  0
    7.9220    5.1560  -12.6470 B   0  0  0  0  0  0  0  0  0  0  0  0
    0.9320    9.0750  -15.0340 H   0  0  0  0  0  0  0  0  0  0  0  0
    0.2700    8.1600  -13.5900 H   0  0  0  0  0  0  0  0  0  0  0  0
   -0.8900   10.2710  -14.5460 H   0  0  0  0  0  0  0  0  0  0  0  0
   -0.7160   10.0440  -12.7330 H   0  0  0  0  0  0  0  0  0  0  0  0
    1.8110   12.2910  -12.0200 H   0  0  0  0  0  0  0  0  0  0  0  0
    0.6160   10.9540  -11.5750 H   0  0  0  0  0  0  0  0  0  0  0  0
    3.2860   10.8400  -12.9730 H   0  0  0  0  0  0  0  0  0  0  0  0
    2.7000    9.9540  -11.5090 H   0  0  0  0  0  0  0  0  0  0  0  0
   -0.6160   12.9050  -14.5940 H   0  0  0  0  0  0  0  0  0  0  0  0
   -1.0330   12.5720  -12.8480 H   0  0  0  0  0  0  0  0  0  0  0  0
    1.1630   13.6400  -12.2100 H   0  0  0  0  0  0  0  0  0  0  0  0
    1.4100   14.1300  -13.9620 H   0  0  0  0  0  0  0  0  0  0  0  0
   -0.8370   18.0110  -10.2540 H   0  0  0  0  0  0  0  0  0  0  0  0
   -2.6140   19.6130  -10.9000 H   0  0  0  0  0  0  0  0  0  0  0  0
   -3.7790   19.3110  -13.0100 H   0  0  0  0  0  0  0  0  0  0  0  0
   -3.1640   17.4090  -14.4640 H   0  0  0  0  0  0  0  0  0  0  0  0
    4.8440    4.5390  -12.5950 H   0  0  0  0  0  0  0  0  0  0  0  0
    2.9310    6.0570  -13.3400 H   0  0  0  0  0  0  0  0  0  0  0  0
  1 22  1  0  0  0  0
  1  4  1  0  0  0  0
  2  1  2  0  0  0  0
  3  1  2  0  0  0  0
  4  9  1  0  0  0  0
  5  6  1  0  0  0  0
  5 29  1  0  0  0  0
  5  4  1  0  0  0  0
  6  7  1  0  0  0  0
  6 31  1  0  0  0  0
  7  8  1  0  0  0  0
  8 32  1  0  0  0  0
  8 33  1  0  0  0  0
  9  8  1  0  0  0  0
  9 35  1  0  0  0  0
 10  7  1  0  0  0  0
 10 11  1  0  0  0  0
 10 37  1  0  0  0  0
 11 12  1  0  0  0  0
 11 38  1  0  0  0  0
 12 20  1  0  0  0  0
 13 14  2  0  0  0  0
 13 12  1  0  0  0  0
 14 15  1  0  0  0  0
 15 20  1  0  0  0  0
 15 16  1  0  0  0  0
 16 40  1  0  0  0  0
 17 16  2  0  0  0  0
 17 41  1  0  0  0  0
 18 17  1  0  0  0  0
 19 14  1  0  0  0  0
 19 18  2  0  0  0  0
 20 21  2  0  0  0  0
 22 23  1  0  0  0  0
 22 26  2  0  0  0  0
 23 24  1  0  0  0  0
 24 25  2  0  0  0  0
 24 27  1  0  0  0  0
 25 44  1  0  0  0  0
 26 45  1  0  0  0  0
 26 25  1  0  0  0  0
 28  5  1  0  0  0  0
 30  6  1  0  0  0  0
 34  9  1  0  0  0  0
 36 10  1  0  0  0  0
 39 11  1  0  0  0  0
 42 18  1  0  0  0  0
 43 19  1  0  0  0  0
M  END
>  <Pose>
1

>  <Score>
-6.36

$$$$
