
 OpenBabel03232203513D

 48 51  0  0  0  0  0  0  0  0999 V2000
   -1.9470    9.7320  -13.1130 B   0  0  0  0  0  0  0  0  0  0  0  0
   -1.6850   11.6060  -13.3400 C   0  0  0  0  0  0  0  0  0  0  0  0
   -2.7540   12.4900  -13.4420 C   0  0  0  0  0  0  0  0  0  0  0  0
   -2.4960   13.8480  -13.6170 C   0  0  0  0  0  0  0  0  0  0  0  0
   -1.2420   14.3710  -13.6960 C   0  0  0  0  0  0  0  0  0  0  0  0
   -0.1930   13.4380  -13.5880 C   0  0  0  0  0  0  0  0  0  0  0  0
   -0.3990   12.0890  -13.4150 C   0  0  0  0  0  0  0  0  0  0  0  0
   -0.9000   15.7610  -13.9180 C   0  0  0  0  0  0  0  0  0  0  0  0
   -1.2380   16.7140  -12.8900 N   0  0  0  0  0  0  0  0  0  0  0  0
   -2.3210   17.5040  -12.8530 C   0  0  0  0  0  0  0  0  0  0  0  0
   -2.2840   18.2600  -11.7030 C   0  0  0  0  0  0  0  0  0  0  0  0
   -1.1750   17.9050  -11.0720 N   0  0  0  0  0  0  0  0  0  0  0  0
   -0.5180   16.9680  -11.7690 C   0  0  0  0  0  0  0  0  0  0  0  0
    0.7180   16.3370  -11.4090 N   0  0  0  0  0  0  0  0  0  0  0  0
    1.8840   17.1790  -11.2510 C   0  0  0  0  0  0  0  0  0  0  0  0
    2.8840   16.7950  -12.3320 C   0  0  0  0  0  0  0  0  0  0  0  0
    2.6970   15.4670  -12.8150 N   0  0  0  0  0  0  0  0  0  0  0  0
    2.1840   14.5250  -11.8770 C   0  0  0  0  0  0  0  0  0  0  0  0
    0.8940   14.9230  -11.2070 C   0  0  0  0  0  0  0  0  0  0  0  0
    2.3100   15.3100  -14.1650 C   0  0  0  0  0  0  0  0  0  0  0  0
   -3.2340   19.1710  -11.3710 N   0  0  0  0  0  0  0  0  0  0  0  0
   -4.2530   19.3250  -12.2320 C   0  0  0  0  0  0  0  0  0  0  0  0
   -5.1240   20.1710  -11.9090 O   0  0  0  0  0  0  0  0  0  0  0  0
   -4.3440   18.6200  -13.3730 N   0  0  0  0  0  0  0  0  0  0  0  0
   -3.4080   17.7130  -13.7110 C   0  0  0  0  0  0  0  0  0  0  0  0
   -3.4600   17.0490  -14.7550 O   0  0  0  0  0  0  0  0  0  0  0  0
   -3.1120   19.9170  -10.1370 C   0  0  0  0  0  0  0  0  0  0  0  0
   -3.7700   12.1250  -13.3780 H   0  0  0  0  0  0  0  0  0  0  0  0
   -3.3520   14.4640  -13.6910 H   0  0  0  0  0  0  0  0  0  0  0  0
    0.8430   13.7580  -13.6430 H   0  0  0  0  0  0  0  0  0  0  0  0
    0.4620   11.4160  -13.3390 H   0  0  0  0  0  0  0  0  0  0  0  0
    0.2240   15.8360  -14.0420 H   0  0  0  0  0  0  0  0  0  0  0  0
   -1.3980   16.1010  -14.8590 H   0  0  0  0  0  0  0  0  0  0  0  0
    2.3380   16.9250  -10.2470 H   0  0  0  0  0  0  0  0  0  0  0  0
    1.6700   18.2560  -11.2290 H   0  0  0  0  0  0  0  0  0  0  0  0
    2.7310   17.5050  -13.1680 H   0  0  0  0  0  0  0  0  0  0  0  0
    3.9170   16.9310  -11.9620 H   0  0  0  0  0  0  0  0  0  0  0  0
    2.9710   14.3380  -11.0900 H   0  0  0  0  0  0  0  0  0  0  0  0
    2.0320   13.5530  -12.3880 H   0  0  0  0  0  0  0  0  0  0  0  0
    1.0090   14.7310  -10.1010 H   0  0  0  0  0  0  0  0  0  0  0  0
    0.0670   14.3110  -11.6130 H   0  0  0  0  0  0  0  0  0  0  0  0
    1.9080   16.2160  -14.6590 H   0  0  0  0  0  0  0  0  0  0  0  0
    1.4980   14.5440  -14.2060 H   0  0  0  0  0  0  0  0  0  0  0  0
    3.1290   14.9040  -14.8180 H   0  0  0  0  0  0  0  0  0  0  0  0
   -5.1380   18.7480  -14.0360 H   0  0  0  0  0  0  0  0  0  0  0  0
   -3.5900   20.9220  -10.2160 H   0  0  0  0  0  0  0  0  0  0  0  0
   -2.0770   19.9260   -9.8000 H   0  0  0  0  0  0  0  0  0  0  0  0
   -3.7160   19.3790   -9.3720 H   0  0  0  0  0  0  0  0  0  0  0  0
  2  1  1  0  0  0  0
  3 28  1  0  0  0  0
  3  2  2  0  0  0  0
  4  3  1  0  0  0  0
  5  4  2  0  0  0  0
  5  6  1  0  0  0  0
  6  7  2  0  0  0  0
  7  2  1  0  0  0  0
  7 31  1  0  0  0  0
  8  5  1  0  0  0  0
  8  9  1  0  0  0  0
  9 10  1  0  0  0  0
  9 13  1  0  0  0  0
 10 11  2  0  0  0  0
 11 21  1  0  0  0  0
 11 12  1  0  0  0  0
 13 14  1  0  0  0  0
 13 12  2  0  0  0  0
 14 15  1  0  0  0  0
 14 19  1  0  0  0  0
 15 35  1  0  0  0  0
 15 34  1  0  0  0  0
 16 37  1  0  0  0  0
 16 15  1  0  0  0  0
 17 16  1  0  0  0  0
 17 18  1  0  0  0  0
 18 19  1  0  0  0  0
 18 38  1  0  0  0  0
 19 40  1  0  0  0  0
 20 17  1  0  0  0  0
 21 27  1  0  0  0  0
 22 23  2  0  0  0  0
 22 21  1  0  0  0  0
 24 22  1  0  0  0  0
 25 24  1  0  0  0  0
 25 10  1  0  0  0  0
 26 25  2  0  0  0  0
 27 47  1  0  0  0  0
 27 48  1  0  0  0  0
 29  4  1  0  0  0  0
 30  6  1  0  0  0  0
 32  8  1  0  0  0  0
 33  8  1  0  0  0  0
 36 16  1  0  0  0  0
 39 18  1  0  0  0  0
 41 19  1  0  0  0  0
 42 20  1  0  0  0  0
 43 20  1  0  0  0  0
 44 20  1  0  0  0  0
 45 24  1  0  0  0  0
 46 27  1  0  0  0  0
M  END
>  <Pose>
1

>  <Score>
-5.07

$$$$
