
 OpenBabel03232203513D

 43 46  0  0  0  0  0  0  0  0999 V2000
    1.6080    6.2360  -12.0220 B   0  0  0  0  0  0  0  0  0  0  0  0
    0.0170    6.7260  -12.9580 C   0  0  0  0  0  0  0  0  0  0  0  0
   -0.6130    5.8320  -13.7640 C   0  0  0  0  0  0  0  0  0  0  0  0
   -1.7240    6.1590  -14.4230 N   0  0  0  0  0  0  0  0  0  0  0  0
   -2.2350    7.3920  -14.2920 C   0  0  0  0  0  0  0  0  0  0  0  0
   -1.6330    8.3470  -13.4810 C   0  0  0  0  0  0  0  0  0  0  0  0
   -0.4850    8.0160  -12.7970 C   0  0  0  0  0  0  0  0  0  0  0  0
   -2.2550    9.6470  -13.3930 C   0  0  0  0  0  0  0  0  0  0  0  0
   -3.2460    9.8310  -12.6680 O   0  0  0  0  0  0  0  0  0  0  0  0
   -1.7270   10.7900  -14.1670 N   0  0  0  0  0  0  0  0  0  0  0  0
   -0.4410   10.6230  -14.6860 C   0  0  0  0  0  0  0  0  0  0  0  0
    0.7890   11.0350  -14.0440 C   0  0  0  0  0  0  0  0  0  0  0  0
    1.8460   10.0840  -14.2770 C   0  0  0  0  0  0  0  0  0  0  0  0
    3.0660   10.2930  -13.7470 C   0  0  0  0  0  0  0  0  0  0  0  0
    3.3330   11.4290  -12.9620 C   0  0  0  0  0  0  0  0  0  0  0  0
    2.3370   12.3470  -12.7310 C   0  0  0  0  0  0  0  0  0  0  0  0
    1.0620   12.1420  -13.2820 C   0  0  0  0  0  0  0  0  0  0  0  0
    0.0020   13.1700  -13.1210 C   0  0  0  0  0  0  0  0  0  0  0  0
    0.5350   14.5410  -12.7180 C   0  0  0  0  0  0  0  0  0  0  0  0
    1.4970   14.4450  -11.6450 N   0  0  0  0  0  0  0  0  0  0  0  0
    2.5660   13.5210  -11.8940 C   0  0  0  0  0  0  0  0  0  0  0  0
    3.6640   13.7840  -11.3630 O   0  0  0  0  0  0  0  0  0  0  0  0
    1.3900   15.2150  -10.4250 C   0  0  0  0  0  0  0  0  0  0  0  0
    4.5760   11.5650  -12.4670 O   0  0  0  0  0  0  0  0  0  0  0  0
    3.8770    9.2160  -14.1390 O   0  0  0  0  0  0  0  0  0  0  0  0
    3.0820    8.2000  -14.7120 C   0  0  0  0  0  0  0  0  0  0  0  0
    1.8790    8.8870  -14.9990 O   0  0  0  0  0  0  0  0  0  0  0  0
   -0.2450    4.8030  -13.9160 H   0  0  0  0  0  0  0  0  0  0  0  0
   -3.1400    7.6950  -14.8140 H   0  0  0  0  0  0  0  0  0  0  0  0
    0.0030    8.7310  -12.1570 H   0  0  0  0  0  0  0  0  0  0  0  0
   -2.3950   11.5740  -14.1760 H   0  0  0  0  0  0  0  0  0  0  0  0
   -0.3450    9.4850  -14.9500 H   0  0  0  0  0  0  0  0  0  0  0  0
   -0.4480   11.0160  -15.7890 H   0  0  0  0  0  0  0  0  0  0  0  0
   -0.7570   12.9120  -12.3760 H   0  0  0  0  0  0  0  0  0  0  0  0
   -0.4890   13.3840  -14.1010 H   0  0  0  0  0  0  0  0  0  0  0  0
   -0.3660   15.1270  -12.4120 H   0  0  0  0  0  0  0  0  0  0  0  0
    1.0030   14.9750  -13.6300 H   0  0  0  0  0  0  0  0  0  0  0  0
    0.5970   14.7220   -9.8100 H   0  0  0  0  0  0  0  0  0  0  0  0
    1.0490   16.2410  -10.6510 H   0  0  0  0  0  0  0  0  0  0  0  0
    2.3320   15.1590   -9.8660 H   0  0  0  0  0  0  0  0  0  0  0  0
    5.1270   10.9700  -11.9490 H   0  0  0  0  0  0  0  0  0  0  0  0
    3.5460    7.7750  -15.6270 H   0  0  0  0  0  0  0  0  0  0  0  0
    2.9550    7.4140  -13.9510 H   0  0  0  0  0  0  0  0  0  0  0  0
  2  7  1  0  0  0  0
  2  1  1  0  0  0  0
  3  2  2  0  0  0  0
  4  5  2  0  0  0  0
  4  3  1  0  0  0  0
  5  6  1  0  0  0  0
  6  8  1  0  0  0  0
  6  7  2  0  0  0  0
  7 30  1  0  0  0  0
  8  9  2  0  0  0  0
 10  8  1  0  0  0  0
 11 10  1  0  0  0  0
 11 12  1  0  0  0  0
 12 17  1  0  0  0  0
 13 12  2  0  0  0  0
 13 14  1  0  0  0  0
 14 15  2  0  0  0  0
 15 16  1  0  0  0  0
 15 24  1  0  0  0  0
 16 21  1  0  0  0  0
 17 18  1  0  0  0  0
 17 16  2  0  0  0  0
 18 19  1  0  0  0  0
 18 34  1  0  0  0  0
 19 36  1  0  0  0  0
 19 20  1  0  0  0  0
 20 23  1  0  0  0  0
 21 20  1  0  0  0  0
 21 22  2  0  0  0  0
 23 40  1  0  0  0  0
 23 38  1  0  0  0  0
 24 41  1  0  0  0  0
 25 14  1  0  0  0  0
 26 25  1  0  0  0  0
 26 43  1  0  0  0  0
 27 26  1  0  0  0  0
 27 13  1  0  0  0  0
 28  3  1  0  0  0  0
 29  5  1  0  0  0  0
 31 10  1  0  0  0  0
 32 11  1  0  0  0  0
 33 11  1  0  0  0  0
 35 18  1  0  0  0  0
 37 19  1  0  0  0  0
 39 23  1  0  0  0  0
 42 26  1  0  0  0  0
M  END
>  <Pose>
1

>  <Score>
-6.25

$$$$
