
 OpenBabel03232203513D

 53 57  0  0  1  0  0  0  0  0999 V2000
    2.9420    9.0400  -15.1550 Cl  0  0  0  0  0  0  0  0  0  0  0  0
    1.6360    8.7180  -14.0340 C   0  0  0  0  0  0  0  0  0  0  0  0
    0.3070    8.8040  -14.3920 C   0  0  0  0  0  0  0  0  0  0  0  0
   -0.7060    8.5430  -13.4750 C   0  0  0  0  0  0  0  0  0  0  0  0
   -0.3140    8.1980  -12.2110 C   0  0  0  0  0  0  0  0  0  0  0  0
    1.0050    8.1060  -11.8350 C   0  0  0  0  0  0  0  0  0  0  0  0
    1.9930    8.3630  -12.7370 C   0  0  0  0  0  0  0  0  0  0  0  0
   -1.9930    8.7180  -14.1570 C   0  0  2  0  0  0  0  0  0  0  0  0
   -2.8270    9.7220  -13.5220 N   0  0  0  0  0  0  0  0  0  0  0  0
   -4.1380    9.4460  -14.1140 C   0  0  1  0  0  0  0  0  0  0  0  0
   -4.2300    7.9780  -14.2850 C   0  0  2  0  0  0  0  0  0  0  0  0
   -2.8420    7.4800  -14.0370 C   0  0  1  0  0  0  0  0  0  0  0  0
   -2.5240    6.4630  -15.0430 C   0  0  0  0  0  0  0  0  0  0  0  0
   -1.5520    5.6710  -14.9570 O   0  0  0  0  0  0  0  0  0  0  0  0
   -3.5060    6.5770  -16.0660 N   0  0  0  0  0  0  0  0  0  0  0  0
   -4.4410    7.5930  -15.7300 C   0  0  0  0  0  0  0  0  0  0  0  0
   -5.3220    8.1280  -16.4570 O   0  0  0  0  0  0  0  0  0  0  0  0
   -3.5360    5.7620  -17.2770 C   0  0  0  0  0  0  0  0  0  0  0  0
   -3.6420    4.3030  -16.8570 C   0  0  0  0  0  0  0  0  0  0  0  0
   -3.5070    3.4620  -17.9510 O   0  0  0  0  0  0  0  0  0  0  0  0
   -2.6190    2.4500  -17.6460 C   0  0  0  0  0  0  0  0  0  0  0  0
   -5.2460    9.9680  -13.2490 C   0  0  0  0  0  0  0  0  0  0  0  0
   -6.4250   10.4510  -13.9860 C   0  0  0  0  0  0  0  0  0  0  0  0
   -6.8420    9.7130  -15.0920 C   0  0  0  0  0  0  0  0  0  0  0  0
   -7.9490   10.1260  -15.7870 C   0  0  0  0  0  0  0  0  0  0  0  0
   -8.6740   11.2420  -15.4420 C   0  0  0  0  0  0  0  0  0  0  0  0
   -8.2300   11.9440  -14.3430 C   0  0  0  0  0  0  0  0  0  0  0  0
   -7.1240   11.5730  -13.6080 C   0  0  0  0  0  0  0  0  0  0  0  0
   -1.6870    9.1070  -15.5430 C   0  0  0  0  0  0  0  0  0  0  0  0
   -2.4700    9.3580  -16.4700 O   0  0  0  0  0  0  0  0  0  0  0  0
   -0.2710    9.1460  -15.6440 N   0  0  0  0  0  0  0  0  0  0  0  0
   -1.1160    7.9890  -11.4810 H   0  0  0  0  0  0  0  0  0  0  0  0
    1.2480    7.8320  -10.8340 H   0  0  0  0  0  0  0  0  0  0  0  0
    3.0340    8.2970  -12.4630 H   0  0  0  0  0  0  0  0  0  0  0  0
   -2.5070   10.7030  -13.7530 H   0  0  0  0  0  0  0  0  0  0  0  0
   -4.2220   10.0060  -15.0850 H   0  0  0  0  0  0  0  0  0  0  0  0
   -4.9770    7.4560  -13.6580 H   0  0  0  0  0  0  0  0  0  0  0  0
   -2.6970    7.1150  -12.9930 H   0  0  0  0  0  0  0  0  0  0  0  0
   -2.6050    5.8720  -17.8400 H   0  0  0  0  0  0  0  0  0  0  0  0
   -4.3820    6.0380  -17.9320 H   0  0  0  0  0  0  0  0  0  0  0  0
   -2.8620    4.1270  -16.0860 H   0  0  0  0  0  0  0  0  0  0  0  0
   -4.6410    4.1040  -16.4180 H   0  0  0  0  0  0  0  0  0  0  0  0
   -2.9630    1.8500  -16.7860 H   0  0  0  0  0  0  0  0  0  0  0  0
   -1.5990    2.8160  -17.4040 H   0  0  0  0  0  0  0  0  0  0  0  0
   -2.5140    1.8080  -18.5500 H   0  0  0  0  0  0  0  0  0  0  0  0
   -5.5050    9.2200  -12.4690 H   0  0  0  0  0  0  0  0  0  0  0  0
   -4.8090   10.8450  -12.6850 H   0  0  0  0  0  0  0  0  0  0  0  0
   -6.2740    8.8170  -15.3830 H   0  0  0  0  0  0  0  0  0  0  0  0
   -8.2700    9.5510  -16.6440 H   0  0  0  0  0  0  0  0  0  0  0  0
   -9.5480   11.5800  -15.9790 H   0  0  0  0  0  0  0  0  0  0  0  0
   -8.7610   12.8300  -14.0240 H   0  0  0  0  0  0  0  0  0  0  0  0
   -6.8260   12.1690  -12.7290 H   0  0  0  0  0  0  0  0  0  0  0  0
    0.2940    9.3880  -16.5020 H   0  0  0  0  0  0  0  0  0  0  0  0
  1  2  1  0  0  0  0
  2  7  1  0  0  0  0
  3  2  2  0  0  0  0
  3  4  1  0  0  0  0
  4  5  2  0  0  0  0
  5  6  1  0  0  0  0
  5 32  1  0  0  0  0
  6 33  1  0  0  0  0
  7 34  1  0  0  0  0
  7  6  2  0  0  0  0
  8 29  1  6  0  0  0
  8 12  1  0  0  0  0
  8  9  1  0  0  0  0
  8  4  1  0  0  0  0
 10 36  1  6  0  0  0
 10  9  1  0  0  0  0
 10 22  1  0  0  0  0
 11 10  1  0  0  0  0
 11 12  1  0  0  0  0
 11 37  1  1  0  0  0
 12 38  1  1  0  0  0
 13 14  2  0  0  0  0
 13 12  1  0  0  0  0
 15 16  1  0  0  0  0
 15 13  1  0  0  0  0
 16 11  1  0  0  0  0
 17 16  2  0  0  0  0
 18 19  1  0  0  0  0
 18 15  1  0  0  0  0
 19 42  1  0  0  0  0
 19 41  1  0  0  0  0
 20 21  1  0  0  0  0
 20 19  1  0  0  0  0
 21 44  1  0  0  0  0
 21 43  1  0  0  0  0
 22 47  1  0  0  0  0
 22 46  1  0  0  0  0
 23 28  1  0  0  0  0
 23 22  1  0  0  0  0
 24 23  2  0  0  0  0
 25 26  2  0  0  0  0
 25 24  1  0  0  0  0
 26 27  1  0  0  0  0
 27 51  1  0  0  0  0
 27 28  2  0  0  0  0
 28 52  1  0  0  0  0
 30 29  2  0  0  0  0
 31 29  1  0  0  0  0
 31  3  1  0  0  0  0
 35  9  1  0  0  0  0
 39 18  1  0  0  0  0
 40 18  1  0  0  0  0
 45 21  1  0  0  0  0
 48 24  1  0  0  0  0
 49 25  1  0  0  0  0
 50 26  1  0  0  0  0
 53 31  1  0  0  0  0
M  END
>  <Pose>
1

>  <Score>
-2.15

$$$$
