
 OpenBabel03232203513D

 42 45  0  0  0  0  0  0  0  0999 V2000
   -6.5530   10.0520  -14.7380 Cl  0  0  0  0  0  0  0  0  0  0  0  0
   -4.9920    9.2750  -14.5710 C   0  0  0  0  0  0  0  0  0  0  0  0
   -3.9990    9.8860  -13.8350 C   0  0  0  0  0  0  0  0  0  0  0  0
   -2.7820    9.2210  -13.7370 C   0  0  0  0  0  0  0  0  0  0  0  0
   -2.5300    8.0080  -14.3280 C   0  0  0  0  0  0  0  0  0  0  0  0
   -3.5320    7.4170  -15.0550 C   0  0  0  0  0  0  0  0  0  0  0  0
   -4.7420    8.0580  -15.1630 C   0  0  0  0  0  0  0  0  0  0  0  0
   -1.2260    7.3640  -14.1830 C   0  0  0  0  0  0  0  0  0  0  0  0
   -0.8750    6.9420  -12.8830 N   0  0  0  0  0  0  0  0  0  0  0  0
   -0.3990    5.6260  -12.7200 C   0  0  0  0  0  0  0  0  0  0  0  0
    1.0940    5.4430  -12.7710 C   0  0  0  0  0  0  0  0  0  0  0  0
    1.6800    6.7670  -12.4370 N   0  0  0  0  0  0  0  0  0  0  0  0
    0.9810    7.4600  -11.4220 C   0  0  0  0  0  0  0  0  0  0  0  0
   -0.3230    7.9460  -12.0180 C   0  0  0  0  0  0  0  0  0  0  0  0
    2.8480    7.1340  -13.1380 C   0  0  0  0  0  0  0  0  0  0  0  0
    3.9860    6.3950  -12.9690 N   0  0  0  0  0  0  0  0  0  0  0  0
    5.1560    6.6540  -13.5390 C   0  0  0  0  0  0  0  0  0  0  0  0
    5.2510    7.7210  -14.3500 N   0  0  0  0  0  0  0  0  0  0  0  0
    4.1580    8.4900  -14.5560 C   0  0  0  0  0  0  0  0  0  0  0  0
    3.9530    9.5880  -15.3080 N   0  0  0  0  0  0  0  0  0  0  0  0
    2.6830    9.9730  -15.1860 C   0  0  0  0  0  0  0  0  0  0  0  0
    2.0290    9.1400  -14.3560 N   0  0  0  0  0  0  0  0  0  0  0  0
    2.9240    8.2230  -13.9590 C   0  0  0  0  0  0  0  0  0  0  0  0
    6.3200    5.8300  -13.3180 N   0  0  0  0  0  0  0  0  0  0  0  0
   -4.1630   10.8470  -13.3540 H   0  0  0  0  0  0  0  0  0  0  0  0
   -2.0360    9.7530  -13.1440 H   0  0  0  0  0  0  0  0  0  0  0  0
   -3.3820    6.4400  -15.5510 H   0  0  0  0  0  0  0  0  0  0  0  0
   -5.5430    7.5830  -15.7460 H   0  0  0  0  0  0  0  0  0  0  0  0
   -1.0960    6.5010  -14.8820 H   0  0  0  0  0  0  0  0  0  0  0  0
   -0.4520    8.1110  -14.5270 H   0  0  0  0  0  0  0  0  0  0  0  0
   -0.8470    4.9710  -13.4630 H   0  0  0  0  0  0  0  0  0  0  0  0
   -0.7540    5.2490  -11.7170 H   0  0  0  0  0  0  0  0  0  0  0  0
    1.4810    5.0570  -13.7120 H   0  0  0  0  0  0  0  0  0  0  0  0
    1.4370    4.7760  -11.9520 H   0  0  0  0  0  0  0  0  0  0  0  0
    0.6570    6.6580  -10.6630 H   0  0  0  0  0  0  0  0  0  0  0  0
    1.5080    8.1770  -10.8120 H   0  0  0  0  0  0  0  0  0  0  0  0
   -0.2440    8.9030  -12.5600 H   0  0  0  0  0  0  0  0  0  0  0  0
   -1.0310    8.0940  -11.1700 H   0  0  0  0  0  0  0  0  0  0  0  0
    2.2640   10.8450  -15.6990 H   0  0  0  0  0  0  0  0  0  0  0  0
    1.0200    9.2320  -14.1130 H   0  0  0  0  0  0  0  0  0  0  0  0
    6.5340    5.4230  -12.3970 H   0  0  0  0  0  0  0  0  0  0  0  0
    6.9680    5.6330  -14.1060 H   0  0  0  0  0  0  0  0  0  0  0  0
  1  2  1  0  0  0  0
  2  3  1  0  0  0  0
  3  4  2  0  0  0  0
  3 25  1  0  0  0  0
  4 26  1  0  0  0  0
  5  8  1  0  0  0  0
  5  4  1  0  0  0  0
  6  5  2  0  0  0  0
  7  6  1  0  0  0  0
  7  2  2  0  0  0  0
  8  9  1  0  0  0  0
  9 10  1  0  0  0  0
  9 14  1  0  0  0  0
 10 32  1  0  0  0  0
 11 10  1  0  0  0  0
 11 12  1  0  0  0  0
 11 34  1  0  0  0  0
 12 13  1  0  0  0  0
 13 36  1  0  0  0  0
 13 35  1  0  0  0  0
 14 13  1  0  0  0  0
 14 38  1  0  0  0  0
 15 16  1  0  0  0  0
 15 12  1  0  0  0  0
 17 24  1  0  0  0  0
 17 16  2  0  0  0  0
 18 17  1  0  0  0  0
 19 18  2  0  0  0  0
 19 23  1  0  0  0  0
 20 21  2  0  0  0  0
 20 19  1  0  0  0  0
 21 22  1  0  0  0  0
 22 40  1  0  0  0  0
 22 23  1  0  0  0  0
 23 15  2  0  0  0  0
 24 41  1  0  0  0  0
 27  6  1  0  0  0  0
 28  7  1  0  0  0  0
 29  8  1  0  0  0  0
 30  8  1  0  0  0  0
 31 10  1  0  0  0  0
 33 11  1  0  0  0  0
 37 14  1  0  0  0  0
 39 21  1  0  0  0  0
 42 24  1  0  0  0  0
M  END
>  <Pose>
1

>  <Score>
-6.23

$$$$
