
 OpenBabel03232203513D

 42 45  0  0  0  0  0  0  0  0999 V2000
    1.9420    6.5000  -15.3950 Cl  0  0  0  0  0  0  0  0  0  0  0  0
    2.2290    8.0300  -14.5730 C   0  0  0  0  0  0  0  0  0  0  0  0
    2.9410    9.0220  -15.1990 C   0  0  0  0  0  0  0  0  0  0  0  0
    3.1570   10.2200  -14.5370 C   0  0  0  0  0  0  0  0  0  0  0  0
    2.6770   10.4360  -13.2740 C   0  0  0  0  0  0  0  0  0  0  0  0
    1.9630    9.4440  -12.6450 C   0  0  0  0  0  0  0  0  0  0  0  0
    1.7480    8.2580  -13.2990 C   0  0  0  0  0  0  0  0  0  0  0  0
    2.9580   11.7510  -12.6440 C   0  0  0  0  0  0  0  0  0  0  0  0
    1.7560   12.5710  -12.7740 N   0  0  0  0  0  0  0  0  0  0  0  0
    0.5840   12.2430  -13.2840 N   0  0  0  0  0  0  0  0  0  0  0  0
   -0.2620   13.2560  -13.2280 N   0  0  0  0  0  0  0  0  0  0  0  0
    0.3570   14.2930  -12.6650 C   0  0  0  0  0  0  0  0  0  0  0  0
    1.6340   13.8630  -12.3770 C   0  0  0  0  0  0  0  0  0  0  0  0
    2.4720   14.7340  -11.7970 N   0  0  0  0  0  0  0  0  0  0  0  0
    2.0760   15.9850  -11.5060 C   0  0  0  0  0  0  0  0  0  0  0  0
    0.8250   16.3830  -11.7960 N   0  0  0  0  0  0  0  0  0  0  0  0
   -0.0980   15.5760  -12.3840 C   0  0  0  0  0  0  0  0  0  0  0  0
   -1.4070   15.9870  -12.6900 N   0  0  0  0  0  0  0  0  0  0  0  0
   -2.6170   15.5660  -12.0350 C   0  0  0  0  0  0  0  0  0  0  0  0
   -3.2870   16.7660  -11.4750 C   0  0  0  0  0  0  0  0  0  0  0  0
   -2.9080   18.0250  -11.9610 N   0  0  0  0  0  0  0  0  0  0  0  0
   -2.2490   18.1450  -13.1920 C   0  0  0  0  0  0  0  0  0  0  0  0
   -1.6260   16.9270  -13.7620 C   0  0  0  0  0  0  0  0  0  0  0  0
   -2.1510   18.7250  -10.9390 C   0  0  0  0  0  0  0  0  0  0  0  0
    3.3330    8.8820  -16.1950 H   0  0  0  0  0  0  0  0  0  0  0  0
    3.7250   11.0010  -15.0440 H   0  0  0  0  0  0  0  0  0  0  0  0
    1.5890    9.6130  -11.6630 H   0  0  0  0  0  0  0  0  0  0  0  0
    1.1840    7.4350  -12.8390 H   0  0  0  0  0  0  0  0  0  0  0  0
    3.1860   11.6290  -11.5780 H   0  0  0  0  0  0  0  0  0  0  0  0
    3.8250   12.2220  -13.1530 H   0  0  0  0  0  0  0  0  0  0  0  0
    2.7780   16.6610  -11.0380 H   0  0  0  0  0  0  0  0  0  0  0  0
   -2.4420   14.8220  -11.2350 H   0  0  0  0  0  0  0  0  0  0  0  0
   -3.2670   15.0560  -12.7770 H   0  0  0  0  0  0  0  0  0  0  0  0
   -4.3970   16.6440  -11.6540 H   0  0  0  0  0  0  0  0  0  0  0  0
   -3.2090   16.7430  -10.3520 H   0  0  0  0  0  0  0  0  0  0  0  0
   -2.9940   18.5240  -13.9560 H   0  0  0  0  0  0  0  0  0  0  0  0
   -1.4770   18.9670  -13.1600 H   0  0  0  0  0  0  0  0  0  0  0  0
   -2.2640   16.4600  -14.5430 H   0  0  0  0  0  0  0  0  0  0  0  0
   -0.6480   17.1990  -14.2490 H   0  0  0  0  0  0  0  0  0  0  0  0
   -2.1810   18.1700   -9.9610 H   0  0  0  0  0  0  0  0  0  0  0  0
   -1.0790   18.7580  -11.2330 H   0  0  0  0  0  0  0  0  0  0  0  0
   -2.5610   19.7310  -10.7310 H   0  0  0  0  0  0  0  0  0  0  0  0
  1  2  1  0  0  0  0
  2  7  1  0  0  0  0
  3  2  2  0  0  0  0
  3  4  1  0  0  0  0
  4  5  2  0  0  0  0
  5  6  1  0  0  0  0
  5  8  1  0  0  0  0
  6 27  1  0  0  0  0
  7 28  1  0  0  0  0
  7  6  2  0  0  0  0
  8 29  1  0  0  0  0
  9  8  1  0  0  0  0
  9 13  1  0  0  0  0
 10 11  2  0  0  0  0
 10  9  1  0  0  0  0
 11 12  1  0  0  0  0
 12 17  1  0  0  0  0
 12 13  2  0  0  0  0
 13 14  1  0  0  0  0
 14 15  2  0  0  0  0
 15 31  1  0  0  0  0
 16 15  1  0  0  0  0
 17 16  2  0  0  0  0
 18 17  1  0  0  0  0
 18 19  1  0  0  0  0
 19 20  1  0  0  0  0
 19 32  1  0  0  0  0
 20 35  1  0  0  0  0
 21 20  1  0  0  0  0
 21 24  1  0  0  0  0
 22 37  1  0  0  0  0
 22 21  1  0  0  0  0
 23 22  1  0  0  0  0
 23 18  1  0  0  0  0
 24 42  1  0  0  0  0
 24 40  1  0  0  0  0
 25  3  1  0  0  0  0
 26  4  1  0  0  0  0
 30  8  1  0  0  0  0
 33 19  1  0  0  0  0
 34 20  1  0  0  0  0
 36 22  1  0  0  0  0
 38 23  1  0  0  0  0
 39 23  1  0  0  0  0
 41 24  1  0  0  0  0
M  END
>  <Pose>
1

>  <Score>
-4.30

$$$$
