
 OpenBabel03232203513D

 52 56  0  0  0  0  0  0  0  0999 V2000
   -4.6030   19.7830  -12.1170 Cl  0  0  0  0  0  0  0  0  0  0  0  0
   -3.3650   18.5820  -12.4440 C   0  0  0  0  0  0  0  0  0  0  0  0
   -2.4680   18.1790  -11.4640 C   0  0  0  0  0  0  0  0  0  0  0  0
   -1.5020   17.2330  -11.7410 C   0  0  0  0  0  0  0  0  0  0  0  0
   -1.3790   16.6520  -12.9850 C   0  0  0  0  0  0  0  0  0  0  0  0
   -2.2900   17.0680  -13.9640 C   0  0  0  0  0  0  0  0  0  0  0  0
   -3.2600   18.0110  -13.6960 C   0  0  0  0  0  0  0  0  0  0  0  0
   -0.3600   15.6550  -13.2830 C   0  0  0  0  0  0  0  0  0  0  0  0
    0.2640   15.7210  -14.3660 O   0  0  0  0  0  0  0  0  0  0  0  0
   -0.1080   14.6030  -12.2830 C   0  0  0  0  0  0  0  0  0  0  0  0
    1.2400   14.0830  -12.3150 N   0  0  0  0  0  0  0  0  0  0  0  0
    1.6900   12.9120  -12.7130 N   0  0  0  0  0  0  0  0  0  0  0  0
    3.0220   12.8210  -12.5850 C   0  0  0  0  0  0  0  0  0  0  0  0
    3.4610   11.6210  -12.9970 N   0  0  0  0  0  0  0  0  0  0  0  0
    2.4060   10.8880  -13.4120 C   0  0  0  0  0  0  0  0  0  0  0  0
    1.2940   11.7170  -13.2270 C   0  0  0  0  0  0  0  0  0  0  0  0
    0.0850   11.1660  -13.5990 C   0  0  0  0  0  0  0  0  0  0  0  0
   -0.9510   11.8820  -13.4520 O   0  0  0  0  0  0  0  0  0  0  0  0
   -0.0480    9.9130  -14.1080 N   0  0  0  0  0  0  0  0  0  0  0  0
    1.0670    9.1810  -14.2530 C   0  0  0  0  0  0  0  0  0  0  0  0
    0.9210    8.0080  -14.7320 O   0  0  0  0  0  0  0  0  0  0  0  0
    2.2770    9.6490  -13.9160 N   0  0  0  0  0  0  0  0  0  0  0  0
    3.4330    8.8130  -14.0980 C   0  0  0  0  0  0  0  0  0  0  0  0
   -1.3530    9.4090  -14.4720 C   0  0  0  0  0  0  0  0  0  0  0  0
    3.4110   14.0180  -12.0770 N   0  0  0  0  0  0  0  0  0  0  0  0
    2.3340   14.7970  -11.9090 C   0  0  0  0  0  0  0  0  0  0  0  0
    2.2770   16.1280  -11.4050 N   0  0  0  0  0  0  0  0  0  0  0  0
    2.0690   17.2690  -12.2800 C   0  0  0  0  0  0  0  0  0  0  0  0
    2.9420   18.3940  -11.7810 C   0  0  0  0  0  0  0  0  0  0  0  0
    2.6580   18.6600  -10.4320 O   0  0  0  0  0  0  0  0  0  0  0  0
    3.0730   17.6350   -9.6100 C   0  0  0  0  0  0  0  0  0  0  0  0
    2.4210   16.3530   -9.9910 C   0  0  0  0  0  0  0  0  0  0  0  0
   -2.5370   18.6140  -10.4840 H   0  0  0  0  0  0  0  0  0  0  0  0
   -0.8010   16.9180  -10.9780 H   0  0  0  0  0  0  0  0  0  0  0  0
   -2.2470   16.6500  -14.9540 H   0  0  0  0  0  0  0  0  0  0  0  0
   -3.9720   18.3410  -14.4520 H   0  0  0  0  0  0  0  0  0  0  0  0
   -0.8460   13.8140  -12.2570 H   0  0  0  0  0  0  0  0  0  0  0  0
   -0.2320   15.1330  -11.2870 H   0  0  0  0  0  0  0  0  0  0  0  0
    3.1050    7.7460  -14.0490 H   0  0  0  0  0  0  0  0  0  0  0  0
    4.1790    9.0280  -13.2910 H   0  0  0  0  0  0  0  0  0  0  0  0
    3.9440    9.0470  -15.0480 H   0  0  0  0  0  0  0  0  0  0  0  0
   -1.6880    9.8940  -15.4250 H   0  0  0  0  0  0  0  0  0  0  0  0
   -2.0920    9.7470  -13.7020 H   0  0  0  0  0  0  0  0  0  0  0  0
   -1.4030    8.3200  -14.5020 H   0  0  0  0  0  0  0  0  0  0  0  0
    1.0110   17.6080  -12.2610 H   0  0  0  0  0  0  0  0  0  0  0  0
    2.3760   17.0450  -13.3280 H   0  0  0  0  0  0  0  0  0  0  0  0
    4.0080   18.2510  -11.9590 H   0  0  0  0  0  0  0  0  0  0  0  0
    2.6320   19.3200  -12.3310 H   0  0  0  0  0  0  0  0  0  0  0  0
    4.1860   17.4900   -9.6490 H   0  0  0  0  0  0  0  0  0  0  0  0
    2.7470   17.8910   -8.5790 H   0  0  0  0  0  0  0  0  0  0  0  0
    1.4290   16.2010   -9.5100 H   0  0  0  0  0  0  0  0  0  0  0  0
    3.0580   15.5210   -9.5770 H   0  0  0  0  0  0  0  0  0  0  0  0
  2  1  1  0  0  0  0
  2  3  1  0  0  0  0
  3 33  1  0  0  0  0
  4  3  2  0  0  0  0
  4 34  1  0  0  0  0
  5  4  1  0  0  0  0
  6  7  1  0  0  0  0
  6  5  2  0  0  0  0
  7  2  2  0  0  0  0
  8  5  1  0  0  0  0
  8 10  1  0  0  0  0
  9  8  2  0  0  0  0
 10 37  1  0  0  0  0
 10 38  1  0  0  0  0
 11 10  1  0  0  0  0
 11 26  1  0  0  0  0
 12 13  1  0  0  0  0
 12 11  1  0  0  0  0
 13 25  1  0  0  0  0
 14 13  2  0  0  0  0
 15 16  2  0  0  0  0
 15 14  1  0  0  0  0
 16 12  1  0  0  0  0
 17 18  2  0  0  0  0
 17 16  1  0  0  0  0
 19 17  1  0  0  0  0
 20 19  1  0  0  0  0
 20 22  1  0  0  0  0
 21 20  2  0  0  0  0
 22 15  1  0  0  0  0
 23 39  1  0  0  0  0
 23 22  1  0  0  0  0
 23 40  1  0  0  0  0
 24 19  1  0  0  0  0
 24 43  1  0  0  0  0
 25 26  2  0  0  0  0
 26 27  1  0  0  0  0
 27 32  1  0  0  0  0
 28 45  1  0  0  0  0
 28 29  1  0  0  0  0
 28 27  1  0  0  0  0
 29 30  1  0  0  0  0
 30 31  1  0  0  0  0
 31 50  1  0  0  0  0
 32 31  1  0  0  0  0
 32 52  1  0  0  0  0
 32 51  1  0  0  0  0
 35  6  1  0  0  0  0
 36  7  1  0  0  0  0
 41 23  1  0  0  0  0
 42 24  1  0  0  0  0
 44 24  1  0  0  0  0
 46 28  1  0  0  0  0
 47 29  1  0  0  0  0
 48 29  1  0  0  0  0
 49 31  1  0  0  0  0
M  END
>  <Pose>
1

>  <Score>
-4.80

$$$$
