
 OpenBabel03232203513D

 49 52  0  0  0  0  0  0  0  0999 V2000
    3.8520    9.5820  -14.2010 Cl  0  0  0  0  0  0  0  0  0  0  0  0
    2.1500    9.4080  -13.7590 C   0  0  0  0  0  0  0  0  0  0  0  0
    1.2230   10.4060  -13.8990 C   0  0  0  0  0  0  0  0  0  0  0  0
   -0.0760   10.2000  -13.5900 C   0  0  0  0  0  0  0  0  0  0  0  0
   -0.5090    8.9870  -13.1290 C   0  0  0  0  0  0  0  0  0  0  0  0
    0.4480    7.9540  -12.9790 C   0  0  0  0  0  0  0  0  0  0  0  0
    1.7650    8.1500  -13.2830 C   0  0  0  0  0  0  0  0  0  0  0  0
    2.6990    7.1050  -13.1000 O   0  0  0  0  0  0  0  0  0  0  0  0
   -1.7570    8.7440  -12.8450 O   0  0  0  0  0  0  0  0  0  0  0  0
   -2.6730    9.6930  -13.0020 C   0  0  0  0  0  0  0  0  0  0  0  0
   -3.8520    9.4390  -12.7270 O   0  0  0  0  0  0  0  0  0  0  0  0
   -2.3100   10.9700  -13.4750 C   0  0  0  0  0  0  0  0  0  0  0  0
   -1.0230   11.2560  -13.7750 C   0  0  0  0  0  0  0  0  0  0  0  0
   -0.3920   12.5230  -14.1780 C   0  0  0  0  0  0  0  0  0  0  0  0
    0.2770   13.3510  -13.2730 N   0  0  0  0  0  4  0  0  0  0  0  0
   -0.3130   14.0600  -12.2430 C   0  0  0  0  0  0  0  0  0  0  0  0
    0.3230   15.4880  -12.1250 C   0  0  0  0  0  0  0  0  0  0  0  0
   -0.2830   16.0950  -13.4040 N   0  0  0  0  0  0  0  0  0  0  0  0
    0.2500   15.5270  -14.5430 C   0  0  0  0  0  0  0  0  0  0  0  0
    1.0850   14.3130  -14.0760 C   0  0  0  0  0  0  0  0  0  0  0  0
   -1.2940   17.0400  -13.1250 C   0  0  0  0  0  0  0  0  0  0  0  0
   -2.3890   17.2940  -13.8750 C   0  0  0  0  0  0  0  0  0  0  0  0
   -3.4690   18.0820  -13.3840 C   0  0  0  0  0  0  0  0  0  0  0  0
   -3.4480   18.6220  -12.1260 C   0  0  0  0  0  0  0  0  0  0  0  0
   -2.3210   18.3750  -11.3490 C   0  0  0  0  0  0  0  0  0  0  0  0
   -1.2730   17.6090  -11.8380 C   0  0  0  0  0  0  0  0  0  0  0  0
   -4.5240   19.3870  -11.6930 O   0  0  0  0  0  0  0  0  0  0  0  0
   -4.3900   20.2910  -10.5860 C   0  0  0  0  0  0  0  0  0  0  0  0
    1.5790   11.3300  -14.2650 H   0  0  0  0  0  0  0  0  0  0  0  0
    0.1230    6.9890  -12.6110 H   0  0  0  0  0  0  0  0  0  0  0  0
   -3.0900   11.7070  -13.5300 H   0  0  0  0  0  0  0  0  0  0  0  0
   -0.6470   12.9490  -15.1540 H   0  0  0  0  0  0  0  0  0  0  0  0
    0.6440   11.9880  -14.6340 H   0  0  0  0  0  0  0  0  0  0  0  0
    1.0490   12.7460  -12.8420 H   0  0  0  0  0  0  0  0  0  0  0  0
   -1.3990   14.3490  -12.3450 H   0  0  0  0  0  0  0  0  0  0  0  0
   -0.2510   13.6540  -11.2040 H   0  0  0  0  0  0  0  0  0  0  0  0
    1.3340   15.5900  -12.1570 H   0  0  0  0  0  0  0  0  0  0  0  0
   -0.2150   15.9140  -11.2750 H   0  0  0  0  0  0  0  0  0  0  0  0
   -0.5770   15.1620  -15.2080 H   0  0  0  0  0  0  0  0  0  0  0  0
    0.9290   16.1360  -15.1950 H   0  0  0  0  0  0  0  0  0  0  0  0
    1.9020   14.6480  -13.4790 H   0  0  0  0  0  0  0  0  0  0  0  0
    1.5280   13.7680  -14.9370 H   0  0  0  0  0  0  0  0  0  0  0  0
   -2.4190   16.8790  -14.8900 H   0  0  0  0  0  0  0  0  0  0  0  0
   -4.3060   18.2300  -14.0310 H   0  0  0  0  0  0  0  0  0  0  0  0
   -2.2630   18.7800  -10.3440 H   0  0  0  0  0  0  0  0  0  0  0  0
   -0.4150   17.4740  -11.2270 H   0  0  0  0  0  0  0  0  0  0  0  0
   -4.9780   19.8510   -9.7060 H   0  0  0  0  0  0  0  0  0  0  0  0
   -4.6730   21.3160  -10.8010 H   0  0  0  0  0  0  0  0  0  0  0  0
   -3.3590   20.3210  -10.1750 H   0  0  0  0  0  0  0  0  0  0  0  0
  1  2  1  0  0  0  0
  2  7  1  0  0  0  0
  3  2  2  0  0  0  0
  3  4  1  0  0  0  0
  4  5  2  0  0  0  0
  5  6  1  0  0  0  0
  5  9  1  0  0  0  0
  6 30  1  0  0  0  0
  7  8  1  0  0  0  0
  7  6  2  0  0  0  0
 10  9  1  0  0  0  0
 10 11  2  0  0  0  0
 12 10  1  0  0  0  0
 13  4  1  0  0  0  0
 13 12  2  0  0  0  0
 14 13  1  0  0  0  0
 14 15  1  0  0  0  0
 15 34  1  0  0  0  0
 15 16  1  0  0  0  0
 16 17  1  0  0  0  0
 16 36  1  0  0  0  0
 17 38  1  0  0  0  0
 18 21  1  0  0  0  0
 18 17  1  0  0  0  0
 19 20  1  0  0  0  0
 19 18  1  0  0  0  0
 20 41  1  0  0  0  0
 20 15  1  0  0  0  0
 21 26  1  0  0  0  0
 22 23  1  0  0  0  0
 22 21  2  0  0  0  0
 23 24  2  0  0  0  0
 24 27  1  0  0  0  0
 24 25  1  0  0  0  0
 25 45  1  0  0  0  0
 26 25  2  0  0  0  0
 26 46  1  0  0  0  0
 27 28  1  0  0  0  0
 28 49  1  0  0  0  0
 28 47  1  0  0  0  0
 29  3  1  0  0  0  0
 31 12  1  0  0  0  0
 32 14  1  0  0  0  0
 33 14  1  0  0  0  0
 35 16  1  0  0  0  0
 37 17  1  0  0  0  0
 39 19  1  0  0  0  0
 40 19  1  0  0  0  0
 42 20  1  0  0  0  0
 43 22  1  0  0  0  0
 44 23  1  0  0  0  0
 48 28  1  0  0  0  0
M  END
>  <Pose>
1

>  <Score>
-5.92

$$$$
