
 OpenBabel03232203513D

 47 50  0  0  1  0  0  0  0  0999 V2000
   -2.5260   19.1480  -10.7510 S   0  0  0  0  0  0  0  0  0  0  0  0
   -1.5890   19.5450   -9.6650 O   0  0  0  0  0  0  0  0  0  0  0  0
   -3.4500   18.0430  -10.2790 O   0  0  0  0  0  0  0  0  0  0  0  0
   -1.7410   18.6130  -12.1540 N   0  0  0  0  0  0  0  0  0  0  0  0
   -1.8630   17.2490  -12.4040 C   0  0  0  0  0  0  0  0  0  0  0  0
   -0.9760   16.5720  -13.3530 C   0  0  1  0  0  0  0  0  0  0  0  0
   -0.2620   17.5630  -14.2350 C   0  0  0  0  0  0  0  0  0  0  0  0
    0.3970   18.5770  -13.3710 C   0  0  0  0  0  0  0  0  0  0  0  0
   -0.6400   19.3350  -12.5940 C   0  0  0  0  0  0  0  0  0  0  0  0
    0.0370   15.6700  -12.7390 C   0  0  0  0  0  0  0  0  0  0  0  0
    0.2760   14.4340  -13.1750 N   0  0  0  0  0  0  0  0  0  0  0  0
    1.1940   13.6420  -12.5940 C   0  0  0  0  0  0  0  0  0  0  0  0
    1.6280   12.3740  -12.8310 N   0  0  0  0  0  0  0  0  0  0  0  0
    2.5550   12.1240  -11.9300 N   0  0  0  0  0  0  0  0  0  0  0  0
    2.7410   13.1560  -11.1300 N   0  0  0  0  0  0  0  0  0  0  0  0
    1.9090   14.1320  -11.5100 C   0  0  0  0  0  0  0  0  0  0  0  0
    1.6700   15.4140  -11.0460 C   0  0  0  0  0  0  0  0  0  0  0  0
    0.7360   16.1230  -11.6940 N   0  0  0  0  0  0  0  0  0  0  0  0
    2.3740   15.9220   -9.9630 O   0  0  0  0  0  0  0  0  0  0  0  0
    1.1610   11.4960  -13.8580 C   0  0  0  0  0  0  0  0  0  0  0  0
    1.9900   10.2770  -14.0200 C   0  0  0  0  0  0  0  0  0  0  0  0
    1.3920    9.0520  -13.8600 C   0  0  0  0  0  0  0  0  0  0  0  0
    2.0960    7.8580  -13.9940 C   0  0  0  0  0  0  0  0  0  0  0  0
    3.4400    7.8840  -14.2980 C   0  0  0  0  0  0  0  0  0  0  0  0
    4.0480    9.1090  -14.4620 C   0  0  0  0  0  0  0  0  0  0  0  0
    3.3330   10.2970  -14.3250 C   0  0  0  0  0  0  0  0  0  0  0  0
   -0.3130    8.9490  -13.4720 Cl  0  0  0  0  0  0  0  0  0  0  0  0
   -3.6040   20.5440  -11.1090 C   0  0  0  0  0  0  0  0  0  0  0  0
   -2.9430   17.0390  -12.6750 H   0  0  0  0  0  0  0  0  0  0  0  0
   -1.7580   16.7130  -11.4100 H   0  0  0  0  0  0  0  0  0  0  0  0
   -1.6090   15.9570  -14.0730 H   0  0  0  0  0  0  0  0  0  0  0  0
    0.4400   17.0350  -14.9130 H   0  0  0  0  0  0  0  0  0  0  0  0
   -0.9930   18.1030  -14.8840 H   0  0  0  0  0  0  0  0  0  0  0  0
    0.8870   19.3170  -14.0810 H   0  0  0  0  0  0  0  0  0  0  0  0
    1.2140   18.2290  -12.7380 H   0  0  0  0  0  0  0  0  0  0  0  0
   -0.1010   19.8630  -11.7640 H   0  0  0  0  0  0  0  0  0  0  0  0
   -1.0040   20.1700  -13.2600 H   0  0  0  0  0  0  0  0  0  0  0  0
    2.3980   15.4150   -9.0920 H   0  0  0  0  0  0  0  0  0  0  0  0
    1.1140   11.9780  -14.8610 H   0  0  0  0  0  0  0  0  0  0  0  0
    0.1370   11.1280  -13.5630 H   0  0  0  0  0  0  0  0  0  0  0  0
    1.6390    6.8870  -13.8700 H   0  0  0  0  0  0  0  0  0  0  0  0
    4.0040    6.9470  -14.4060 H   0  0  0  0  0  0  0  0  0  0  0  0
    5.1200    9.1290  -14.7040 H   0  0  0  0  0  0  0  0  0  0  0  0
    3.8270   11.2490  -14.4560 H   0  0  0  0  0  0  0  0  0  0  0  0
   -3.0160   21.4380  -11.3570 H   0  0  0  0  0  0  0  0  0  0  0  0
   -4.2680   20.2110  -11.9320 H   0  0  0  0  0  0  0  0  0  0  0  0
   -4.1460   20.7520  -10.1640 H   0  0  0  0  0  0  0  0  0  0  0  0
  1  3  2  0  0  0  0
  1  2  2  0  0  0  0
  4  1  1  0  0  0  0
  5  4  1  0  0  0  0
  5 30  1  0  0  0  0
  6 31  1  6  0  0  0
  6 10  1  0  0  0  0
  6  5  1  0  0  0  0
  7  8  1  0  0  0  0
  7  6  1  0  0  0  0
  8 35  1  0  0  0  0
  8  9  1  0  0  0  0
  9  4  1  0  0  0  0
  9 36  1  0  0  0  0
 10 18  1  0  0  0  0
 11 10  2  0  0  0  0
 11 12  1  0  0  0  0
 12 16  2  0  0  0  0
 13 12  1  0  0  0  0
 13 14  1  0  0  0  0
 14 15  2  0  0  0  0
 16 15  1  0  0  0  0
 16 17  1  0  0  0  0
 17 19  1  0  0  0  0
 18 17  2  0  0  0  0
 19 38  1  0  0  0  0
 20 40  1  0  0  0  0
 20 13  1  0  0  0  0
 21 22  1  0  0  0  0
 21 20  1  0  0  0  0
 22 27  1  0  0  0  0
 23 41  1  0  0  0  0
 23 22  2  0  0  0  0
 24 23  1  0  0  0  0
 25 26  1  0  0  0  0
 25 24  2  0  0  0  0
 26 21  2  0  0  0  0
 28  1  1  0  0  0  0
 28 47  1  0  0  0  0
 29  5  1  0  0  0  0
 32  7  1  0  0  0  0
 33  7  1  0  0  0  0
 34  8  1  0  0  0  0
 37  9  1  0  0  0  0
 39 20  1  0  0  0  0
 42 24  1  0  0  0  0
 43 25  1  0  0  0  0
 44 26  1  0  0  0  0
 45 28  1  0  0  0  0
 46 28  1  0  0  0  0
M  END
>  <Pose>
1

>  <Score>
-5.94

$$$$
