
 OpenBabel03232203513D

 53 56  0  0  0  0  0  0  0  0999 V2000
  -11.6120   14.2140  -16.6230 Cl  0  0  0  0  0  0  0  0  0  0  0  0
  -10.5100   12.8650  -16.5050 C   0  0  0  0  0  0  0  0  0  0  0  0
   -9.5380   12.8080  -15.5330 C   0  0  0  0  0  0  0  0  0  0  0  0
   -8.6730   11.7620  -15.4280 C   0  0  0  0  0  0  0  0  0  0  0  0
   -8.7210   10.6670  -16.3180 C   0  0  0  0  0  0  0  0  0  0  0  0
   -9.7240   10.7440  -17.3080 C   0  0  0  0  0  0  0  0  0  0  0  0
  -10.5740   11.8070  -17.3820 C   0  0  0  0  0  0  0  0  0  0  0  0
   -7.9270    9.6470  -16.2700 O   0  0  0  0  0  0  0  0  0  0  0  0
   -7.1190    8.6520  -16.1920 C   0  0  0  0  0  0  0  0  0  0  0  0
   -5.7200    8.7460  -15.7300 C   0  0  0  0  0  0  0  0  0  0  0  0
   -4.8780    8.0680  -16.4590 O   0  0  0  0  0  0  0  0  0  0  0  0
   -5.1730    9.4340  -14.6590 N   0  0  0  0  0  0  0  0  0  0  0  0
   -4.2100   10.5360  -14.9630 C   0  0  0  0  0  0  0  0  0  0  0  0
   -3.1060   10.4110  -13.9430 C   0  0  0  0  0  0  0  0  0  0  0  0
   -3.0300    9.0910  -13.3440 N   0  0  0  0  0  0  0  0  0  0  0  0
   -4.1740    8.6410  -12.5970 C   0  0  0  0  0  0  0  0  0  0  0  0
   -5.4000    9.2610  -13.2480 C   0  0  0  0  0  0  0  0  0  0  0  0
   -1.8710    8.3040  -13.5080 C   0  0  0  0  0  0  0  0  0  0  0  0
   -0.6260    8.8410  -13.3700 N   0  0  0  0  0  0  0  0  0  0  0  0
    0.4910    8.1420  -13.5110 C   0  0  0  0  0  0  0  0  0  0  0  0
    0.3690    6.8230  -13.8090 N   0  0  0  0  0  0  0  0  0  0  0  0
   -0.8020    6.2310  -13.9580 C   0  0  0  0  0  0  0  0  0  0  0  0
   -1.9710    6.9700  -13.8090 C   0  0  0  0  0  0  0  0  0  0  0  0
    1.7920    8.6860  -13.3710 N   0  0  0  0  0  0  0  0  0  0  0  0
    1.9610   10.0500  -12.8830 C   0  0  0  0  0  0  0  0  0  0  0  0
    2.8430   10.7430  -13.9270 C   0  0  0  0  0  0  0  0  0  0  0  0
    4.0500   10.1040  -14.0200 O   0  0  0  0  0  0  0  0  0  0  0  0
    3.9860    8.8040  -14.4610 C   0  0  0  0  0  0  0  0  0  0  0  0
    2.9950    7.9590  -13.6920 C   0  0  0  0  0  0  0  0  0  0  0  0
   -9.5050   13.6580  -14.8460 H   0  0  0  0  0  0  0  0  0  0  0  0
   -7.9340   11.7320  -14.6680 H   0  0  0  0  0  0  0  0  0  0  0  0
   -9.7740    9.9080  -17.9990 H   0  0  0  0  0  0  0  0  0  0  0  0
  -11.3370   11.8390  -18.1530 H   0  0  0  0  0  0  0  0  0  0  0  0
   -7.0100    8.1270  -17.2290 H   0  0  0  0  0  0  0  0  0  0  0  0
   -7.5300    7.7320  -15.6070 H   0  0  0  0  0  0  0  0  0  0  0  0
   -4.7960   11.4630  -14.8020 H   0  0  0  0  0  0  0  0  0  0  0  0
   -3.8410   10.4280  -16.0070 H   0  0  0  0  0  0  0  0  0  0  0  0
   -3.3520   11.1030  -13.0830 H   0  0  0  0  0  0  0  0  0  0  0  0
   -2.1020   10.6800  -14.3650 H   0  0  0  0  0  0  0  0  0  0  0  0
   -4.2650    7.5570  -12.4940 H   0  0  0  0  0  0  0  0  0  0  0  0
   -4.0850    9.0300  -11.5400 H   0  0  0  0  0  0  0  0  0  0  0  0
   -5.4330   10.3120  -12.8040 H   0  0  0  0  0  0  0  0  0  0  0  0
   -6.3440    8.8200  -12.9580 H   0  0  0  0  0  0  0  0  0  0  0  0
   -0.8780    5.1660  -14.1990 H   0  0  0  0  0  0  0  0  0  0  0  0
   -2.9330    6.4730  -13.9300 H   0  0  0  0  0  0  0  0  0  0  0  0
    0.9950   10.5800  -12.7960 H   0  0  0  0  0  0  0  0  0  0  0  0
    2.5230    9.9970  -11.9520 H   0  0  0  0  0  0  0  0  0  0  0  0
    2.2710   10.7520  -14.8850 H   0  0  0  0  0  0  0  0  0  0  0  0
    2.9900   11.7710  -13.5950 H   0  0  0  0  0  0  0  0  0  0  0  0
    3.7490    8.7180  -15.5440 H   0  0  0  0  0  0  0  0  0  0  0  0
    4.9860    8.3430  -14.3170 H   0  0  0  0  0  0  0  0  0  0  0  0
    2.7650    7.0780  -14.3280 H   0  0  0  0  0  0  0  0  0  0  0  0
    3.4730    7.5840  -12.7720 H   0  0  0  0  0  0  0  0  0  0  0  0
  1  2  1  0  0  0  0
  2  3  1  0  0  0  0
  3  4  2  0  0  0  0
  3 30  1  0  0  0  0
  4 31  1  0  0  0  0
  5  8  1  0  0  0  0
  5  4  1  0  0  0  0
  6  5  2  0  0  0  0
  7  6  1  0  0  0  0
  7  2  2  0  0  0  0
  8  9  1  0  0  0  0
  9 10  1  0  0  0  0
  9 35  1  0  0  0  0
 10 12  1  0  0  0  0
 11 10  2  0  0  0  0
 12 17  1  0  0  0  0
 13 36  1  0  0  0  0
 13 12  1  0  0  0  0
 13 14  1  0  0  0  0
 14 15  1  0  0  0  0
 14 38  1  0  0  0  0
 15 16  1  0  0  0  0
 16 40  1  0  0  0  0
 16 41  1  0  0  0  0
 17 43  1  0  0  0  0
 17 42  1  0  0  0  0
 17 16  1  0  0  0  0
 18 19  1  0  0  0  0
 18 15  1  0  0  0  0
 20 24  1  0  0  0  0
 20 19  2  0  0  0  0
 21 20  1  0  0  0  0
 22 21  2  0  0  0  0
 22 23  1  0  0  0  0
 23 18  2  0  0  0  0
 24 25  1  0  0  0  0
 25 46  1  0  0  0  0
 25 47  1  0  0  0  0
 26 49  1  0  0  0  0
 26 25  1  0  0  0  0
 27 26  1  0  0  0  0
 28 51  1  0  0  0  0
 28 27  1  0  0  0  0
 28 29  1  0  0  0  0
 29 24  1  0  0  0  0
 29 53  1  0  0  0  0
 32  6  1  0  0  0  0
 33  7  1  0  0  0  0
 34  9  1  0  0  0  0
 37 13  1  0  0  0  0
 39 14  1  0  0  0  0
 44 22  1  0  0  0  0
 45 23  1  0  0  0  0
 48 26  1  0  0  0  0
 50 28  1  0  0  0  0
 52 29  1  0  0  0  0
M  END
>  <Pose>
1

>  <Score>
-6.13

$$$$
