
 OpenBabel03232203513D

 45 48  0  0  0  0  0  0  0  0999 V2000
   -2.0050   16.1220  -15.3480 Cl  0  0  0  0  0  0  0  0  0  0  0  0
   -2.2900   17.0570  -13.8970 C   0  0  0  0  0  0  0  0  0  0  0  0
   -3.4210   17.8210  -13.8260 C   0  0  0  0  0  0  0  0  0  0  0  0
   -3.7100   18.5780  -12.7250 C   0  0  0  0  0  0  0  0  0  0  0  0
   -2.8280   18.5550  -11.6780 C   0  0  0  0  0  0  0  0  0  0  0  0
   -1.6660   17.7690  -11.7560 C   0  0  0  0  0  0  0  0  0  0  0  0
   -1.3640   17.0080  -12.8510 C   0  0  0  0  0  0  0  0  0  0  0  0
   -0.2390   16.1900  -13.0120 N   0  0  0  0  0  0  0  0  0  0  0  0
   -0.2430   14.7950  -12.9320 C   0  0  0  0  0  0  0  0  0  0  0  0
   -1.2750   14.1150  -13.0290 O   0  0  0  0  0  0  0  0  0  0  0  0
    1.0270   14.0470  -12.7210 C   0  0  0  0  0  0  0  0  0  0  0  0
    1.0710   12.7930  -13.0500 N   0  0  0  0  0  0  0  0  0  0  0  0
    2.2190   12.0210  -12.8850 N   0  0  0  0  0  0  0  0  0  0  0  0
    3.3750   12.6210  -12.3450 C   0  0  0  0  0  0  0  0  0  0  0  0
    4.4270   11.8990  -12.2960 O   0  0  0  0  0  0  0  0  0  0  0  0
    3.3940   14.0140  -11.8530 C   0  0  0  0  0  0  0  0  0  0  0  0
    2.1770   14.6720  -12.1760 N   0  0  0  0  0  0  0  0  0  0  0  0
    2.2300   10.6210  -13.2590 C   0  0  0  0  0  0  0  0  0  0  0  0
    2.7380   10.2020  -14.4640 C   0  0  0  0  0  0  0  0  0  0  0  0
    2.7400    8.8450  -14.8000 C   0  0  0  0  0  0  0  0  0  0  0  0
    2.2330    7.9000  -13.9310 C   0  0  0  0  0  0  0  0  0  0  0  0
    1.7270    8.3350  -12.7280 C   0  0  0  0  0  0  0  0  0  0  0  0
    1.7280    9.6600  -12.4070 C   0  0  0  0  0  0  0  0  0  0  0  0
    2.2160    6.4390  -14.2400 C   0  0  0  0  0  0  0  0  0  0  0  0
   -3.0460   19.2980  -10.5200 O   0  0  0  0  0  0  0  0  0  0  0  0
   -4.3370   19.8250  -10.1800 C   0  0  0  0  0  0  0  0  0  0  0  0
   -5.1060   20.1220  -11.4250 C   0  0  0  0  0  0  0  0  0  0  0  0
   -5.9500   21.0470  -11.3970 O   0  0  0  0  0  0  0  0  0  0  0  0
   -4.8930   19.3780  -12.6210 N   0  0  0  0  0  0  0  0  0  0  0  0
   -4.1550   17.8660  -14.6460 H   0  0  0  0  0  0  0  0  0  0  0  0
   -0.9960   17.7790  -10.9060 H   0  0  0  0  0  0  0  0  0  0  0  0
    0.6930   16.6730  -13.2100 H   0  0  0  0  0  0  0  0  0  0  0  0
    3.4580   13.9880  -10.7260 H   0  0  0  0  0  0  0  0  0  0  0  0
    4.2950   14.5520  -12.2170 H   0  0  0  0  0  0  0  0  0  0  0  0
    2.1030   15.7080  -12.0000 H   0  0  0  0  0  0  0  0  0  0  0  0
    3.1370   10.9410  -15.1480 H   0  0  0  0  0  0  0  0  0  0  0  0
    3.1370    8.5250  -15.7360 H   0  0  0  0  0  0  0  0  0  0  0  0
    1.3250    7.5750  -12.0410 H   0  0  0  0  0  0  0  0  0  0  0  0
    1.3210    9.9630  -11.4460 H   0  0  0  0  0  0  0  0  0  0  0  0
    1.2370    5.9790  -14.0160 H   0  0  0  0  0  0  0  0  0  0  0  0
    2.4750    6.2270  -15.2810 H   0  0  0  0  0  0  0  0  0  0  0  0
    2.9830    5.9330  -13.5980 H   0  0  0  0  0  0  0  0  0  0  0  0
   -4.8720   18.9850   -9.6620 H   0  0  0  0  0  0  0  0  0  0  0  0
   -4.2380   20.6990   -9.5260 H   0  0  0  0  0  0  0  0  0  0  0  0
   -5.5790   19.4150  -13.4000 H   0  0  0  0  0  0  0  0  0  0  0  0
  1  2  1  0  0  0  0
  2  3  2  0  0  0  0
  2  7  1  0  0  0  0
  3  4  1  0  0  0  0
  4 29  1  0  0  0  0
  4  5  2  0  0  0  0
  5 25  1  0  0  0  0
  6  5  1  0  0  0  0
  6 31  1  0  0  0  0
  7  6  2  0  0  0  0
  8  9  1  0  0  0  0
  8  7  1  0  0  0  0
  9 11  1  0  0  0  0
 10  9  2  0  0  0  0
 11 17  1  0  0  0  0
 12 13  1  0  0  0  0
 12 11  2  0  0  0  0
 13 14  1  0  0  0  0
 14 15  2  0  0  0  0
 14 16  1  0  0  0  0
 16 33  1  0  0  0  0
 17 35  1  0  0  0  0
 17 16  1  0  0  0  0
 18 13  1  0  0  0  0
 18 23  1  0  0  0  0
 19 18  2  0  0  0  0
 20 19  1  0  0  0  0
 20 21  2  0  0  0  0
 21 22  1  0  0  0  0
 22 23  2  0  0  0  0
 22 38  1  0  0  0  0
 23 39  1  0  0  0  0
 24 40  1  0  0  0  0
 24 21  1  0  0  0  0
 24 42  1  0  0  0  0
 25 26  1  0  0  0  0
 26 43  1  0  0  0  0
 26 44  1  0  0  0  0
 27 28  2  0  0  0  0
 27 26  1  0  0  0  0
 29 27  1  0  0  0  0
 30  3  1  0  0  0  0
 32  8  1  0  0  0  0
 34 16  1  0  0  0  0
 36 19  1  0  0  0  0
 37 20  1  0  0  0  0
 41 24  1  0  0  0  0
 45 29  1  0  0  0  0
M  END
>  <Pose>
1

>  <Score>
-6.76

$$$$
