
 OpenBabel03232203513D

 41 44  0  0  1  0  0  0  0  0999 V2000
   -0.2830   13.2070  -13.4750 S   0  0  0  0  0  0  0  0  0  0  0  0
   -1.2730   12.6830  -12.4450 O   0  0  0  0  0  0  0  0  0  0  0  0
   -1.0180   13.0720  -14.8050 O   0  0  0  0  0  0  0  0  0  0  0  0
    0.0650   14.8310  -13.2410 N   0  0  0  0  0  0  0  0  0  0  0  0
    0.5280   15.2330  -11.9740 C   0  0  0  0  0  0  0  0  0  0  0  0
    0.5660   16.7360  -11.7820 C   0  0  0  0  0  0  0  0  0  0  0  0
   -0.7960   17.2320  -12.1440 C   0  0  1  0  0  0  0  0  0  0  0  0
   -1.3380   16.7460  -13.3160 C   0  0  0  0  0  0  0  0  0  0  0  0
   -2.5500   17.1500  -13.6960 N   0  0  0  0  0  0  0  0  0  0  0  0
   -3.2080   18.0270  -12.9100 C   0  0  1  0  0  0  0  0  0  0  0  0
   -2.7030   18.5150  -11.7640 N   0  0  0  0  0  0  0  0  0  0  0  0
   -3.5790   19.3650  -11.1970 N   0  0  0  0  0  0  0  0  0  0  0  0
   -4.6820   19.4600  -11.9530 C   0  0  0  0  0  0  0  0  0  0  0  0
   -4.4680   18.6300  -13.0280 C   0  0  0  0  0  0  0  0  0  0  0  0
   -1.4760   18.1270  -11.3490 C   0  0  0  0  0  0  0  0  0  0  0  0
   -0.9510   18.5480  -10.2870 O   0  0  0  0  0  0  0  0  0  0  0  0
   -0.5140   15.7880  -14.0910 C   0  0  0  0  0  0  0  0  0  0  0  0
    1.0560   12.1240  -13.4880 C   0  0  0  0  0  0  0  0  0  0  0  0
    2.0900   12.2570  -12.5650 C   0  0  0  0  0  0  0  0  0  0  0  0
    3.1480   11.3750  -12.6050 C   0  0  0  0  0  0  0  0  0  0  0  0
    3.2200   10.3730  -13.5160 C   0  0  0  0  0  0  0  0  0  0  0  0
    2.2210   10.2150  -14.4350 C   0  0  0  0  0  0  0  0  0  0  0  0
    1.1620   11.0980  -14.3960 C   0  0  0  0  0  0  0  0  0  0  0  0
    2.2910    8.9180  -15.6330 Cl  0  0  0  0  0  0  0  0  0  0  0  0
    2.0940   13.2450  -11.6090 O   0  0  0  0  0  0  0  0  0  0  0  0
    3.2710   13.9910  -11.3980 C   0  0  0  0  0  0  0  0  0  0  0  0
    1.5560   14.8240  -11.8090 H   0  0  0  0  0  0  0  0  0  0  0  0
   -0.1130   14.7740  -11.1750 H   0  0  0  0  0  0  0  0  0  0  0  0
    1.3520   17.1560  -12.4480 H   0  0  0  0  0  0  0  0  0  0  0  0
    0.8020   16.9180  -10.7190 H   0  0  0  0  0  0  0  0  0  0  0  0
   -3.3980   19.8650  -10.2960 H   0  0  0  0  0  0  0  0  0  0  0  0
   -5.5790   20.0560  -11.7850 H   0  0  0  0  0  0  0  0  0  0  0  0
   -5.1340   18.4250  -13.8800 H   0  0  0  0  0  0  0  0  0  0  0  0
    0.3160   16.4040  -14.5470 H   0  0  0  0  0  0  0  0  0  0  0  0
   -1.0430   15.3340  -14.9260 H   0  0  0  0  0  0  0  0  0  0  0  0
    3.9820   11.4530  -11.8910 H   0  0  0  0  0  0  0  0  0  0  0  0
    4.0670    9.6730  -13.5430 H   0  0  0  0  0  0  0  0  0  0  0  0
    0.3890   10.9210  -15.1610 H   0  0  0  0  0  0  0  0  0  0  0  0
    4.1390   13.3290  -11.1910 H   0  0  0  0  0  0  0  0  0  0  0  0
    3.5410   14.6010  -12.2970 H   0  0  0  0  0  0  0  0  0  0  0  0
    3.1260   14.7370  -10.5780 H   0  0  0  0  0  0  0  0  0  0  0  0
  1  4  1  0  0  0  0
  1  2  2  0  0  0  0
  3  1  2  0  0  0  0
  4  5  1  0  0  0  0
  5 27  1  0  0  0  0
  5  6  1  0  0  0  0
  5 28  1  0  0  0  0
  6 30  1  0  0  0  0
  7  8  1  1  0  0  0
  7  6  1  0  0  0  0
  7 15  1  0  0  0  0
  9  8  2  0  0  0  0
 10  9  1  6  0  0  0
 10 11  1  0  0  0  0
 11 15  1  0  0  0  0
 11 12  1  0  0  0  0
 12 31  1  0  0  0  0
 13 32  1  0  0  0  0
 13 12  1  0  0  0  0
 14 10  1  0  0  0  0
 14 13  2  0  0  0  0
 15 16  2  0  0  0  0
 17  8  1  0  0  0  0
 17  4  1  0  0  0  0
 18  1  1  0  0  0  0
 18 19  1  0  0  0  0
 19 25  1  0  0  0  0
 20 19  2  0  0  0  0
 20 36  1  0  0  0  0
 21 20  1  0  0  0  0
 22 23  1  0  0  0  0
 22 21  2  0  0  0  0
 23 18  2  0  0  0  0
 24 22  1  0  0  0  0
 25 26  1  0  0  0  0
 26 39  1  0  0  0  0
 26 41  1  0  0  0  0
 29  6  1  0  0  0  0
 33 14  1  0  0  0  0
 34 17  1  0  0  0  0
 35 17  1  0  0  0  0
 37 21  1  0  0  0  0
 38 23  1  0  0  0  0
 40 26  1  0  0  0  0
M  END
>  <Pose>
1

>  <Score>
-5.76

$$$$
