
 OpenBabel03232203513D

 51 54  0  0  0  0  0  0  0  0999 V2000
   -4.6280   20.0920  -11.1520 Cl  0  0  0  0  0  0  0  0  0  0  0  0
   -3.2940   19.0210  -11.5050 C   0  0  0  0  0  0  0  0  0  0  0  0
   -3.2700   18.3000  -12.6660 C   0  0  0  0  0  0  0  0  0  0  0  0
   -2.1820   17.4580  -12.9290 C   0  0  0  0  0  0  0  0  0  0  0  0
   -1.1280   17.3300  -12.0540 C   0  0  0  0  0  0  0  0  0  0  0  0
   -1.1390   18.0670  -10.8580 C   0  0  0  0  0  0  0  0  0  0  0  0
   -2.2300   18.8890  -10.6310 C   0  0  0  0  0  0  0  0  0  0  0  0
   -0.2250   16.4840  -12.5440 N   0  0  0  0  0  0  0  0  0  0  0  0
   -0.7370   16.0780  -13.7550 C   0  0  0  0  0  0  0  0  0  0  0  0
   -0.1790   15.2620  -14.5440 O   0  0  0  0  0  0  0  0  0  0  0  0
   -1.8880   16.6780  -13.9350 O   0  0  0  0  0  0  0  0  0  0  0  0
    1.0100   15.9600  -11.9880 C   0  0  0  0  0  0  0  0  0  0  0  0
    0.9050   15.0910  -10.8190 C   0  0  0  0  0  0  0  0  0  0  0  0
    1.9850   14.2310  -10.4010 C   0  0  0  0  0  0  0  0  0  0  0  0
    2.4540   14.4840   -9.2260 O   0  0  0  0  0  0  0  0  0  0  0  0
    2.5770   13.1570  -11.0680 N   0  0  0  0  0  0  0  0  0  0  0  0
    2.3590   11.7380  -10.7270 C   0  0  0  0  0  0  0  0  0  0  0  0
    1.5190   11.3260  -11.9770 C   0  0  0  0  0  0  0  0  0  0  0  0
    2.3950   11.3990  -13.1370 N   0  0  0  0  0  0  0  0  0  0  0  0
    3.4820   12.2140  -13.1420 C   0  0  0  0  0  0  0  0  0  0  0  0
    3.5180   13.3330  -12.1400 C   0  0  0  0  0  0  0  0  0  0  0  0
    1.7000   10.9020  -14.2280 C   0  0  0  0  0  0  0  0  0  0  0  0
    1.8190    9.3820  -14.3370 C   0  0  0  0  0  0  0  0  0  0  0  0
    2.6490    8.9960  -15.2460 O   0  0  0  0  0  0  0  0  0  0  0  0
    1.1100    8.5750  -13.5560 N   0  0  0  0  0  0  0  0  0  0  0  0
    0.3550    7.7170  -12.7250 C   0  0  0  0  0  0  0  0  0  0  0  0
    0.9000    7.5820  -11.2520 C   0  0  0  0  0  0  0  0  0  0  0  0
    1.0310    6.4750  -12.1810 C   0  0  0  0  0  0  0  0  0  0  0  0
   -4.0860   18.3720  -13.3800 H   0  0  0  0  0  0  0  0  0  0  0  0
   -0.3200   17.9460  -10.2020 H   0  0  0  0  0  0  0  0  0  0  0  0
   -2.2370   19.4490   -9.7100 H   0  0  0  0  0  0  0  0  0  0  0  0
    1.6510   16.8610  -11.7440 H   0  0  0  0  0  0  0  0  0  0  0  0
    1.4890   15.4390  -12.8820 H   0  0  0  0  0  0  0  0  0  0  0  0
   -0.0080   14.3920  -10.9340 H   0  0  0  0  0  0  0  0  0  0  0  0
    0.6710   15.7610   -9.9160 H   0  0  0  0  0  0  0  0  0  0  0  0
    1.8420   11.5660   -9.8130 H   0  0  0  0  0  0  0  0  0  0  0  0
    3.3050   11.1670  -10.7490 H   0  0  0  0  0  0  0  0  0  0  0  0
    1.1440   10.3110  -11.8550 H   0  0  0  0  0  0  0  0  0  0  0  0
    0.6710   11.9900  -12.1450 H   0  0  0  0  0  0  0  0  0  0  0  0
    3.6570   12.6680  -14.1680 H   0  0  0  0  0  0  0  0  0  0  0  0
    4.4440   11.5740  -13.0120 H   0  0  0  0  0  0  0  0  0  0  0  0
    3.4650   14.3070  -12.6150 H   0  0  0  0  0  0  0  0  0  0  0  0
    4.5820   13.2870  -11.6990 H   0  0  0  0  0  0  0  0  0  0  0  0
    2.1110   11.3370  -15.1700 H   0  0  0  0  0  0  0  0  0  0  0  0
    0.5980   11.1610  -14.2500 H   0  0  0  0  0  0  0  0  0  0  0  0
    0.7460    7.8050  -14.6150 H   0  0  0  0  0  0  0  0  0  0  0  0
   -0.7440    7.8710  -12.6220 H   0  0  0  0  0  0  0  0  0  0  0  0
    1.6120    8.3540  -11.0160 H   0  0  0  0  0  0  0  0  0  0  0  0
    0.1050    7.4610  -10.4560 H   0  0  0  0  0  0  0  0  0  0  0  0
    2.0230    6.1710  -12.6180 H   0  0  0  0  0  0  0  0  0  0  0  0
    0.4120    5.5560  -11.9820 H   0  0  0  0  0  0  0  0  0  0  0  0
  2  1  1  0  0  0  0
  2  7  1  0  0  0  0
  3  2  2  0  0  0  0
  4  3  1  0  0  0  0
  4  5  2  0  0  0  0
  5  6  1  0  0  0  0
  6  7  2  0  0  0  0
  6 30  1  0  0  0  0
  7 31  1  0  0  0  0
  8  5  1  0  0  0  0
  8 12  1  0  0  0  0
  9  8  1  0  0  0  0
 10  9  2  0  0  0  0
 11  9  1  0  0  0  0
 11  4  1  0  0  0  0
 12 32  1  0  0  0  0
 12 13  1  0  0  0  0
 13 14  1  0  0  0  0
 13 35  1  0  0  0  0
 14 15  2  0  0  0  0
 16 17  1  0  0  0  0
 16 14  1  0  0  0  0
 17 36  1  0  0  0  0
 18 38  1  0  0  0  0
 18 17  1  0  0  0  0
 19 18  1  0  0  0  0
 20 19  1  0  0  0  0
 20 41  1  0  0  0  0
 20 21  1  0  0  0  0
 21 43  1  0  0  0  0
 21 16  1  0  0  0  0
 22 19  1  0  0  0  0
 23 22  1  0  0  0  0
 23 25  1  0  0  0  0
 24 23  2  0  0  0  0
 25 26  1  0  0  0  0
 26 47  1  0  0  0  0
 26 28  1  0  0  0  0
 26 27  1  0  0  0  0
 27 48  1  0  0  0  0
 27 49  1  0  0  0  0
 28 51  1  0  0  0  0
 28 27  1  0  0  0  0
 29  3  1  0  0  0  0
 33 12  1  0  0  0  0
 34 13  1  0  0  0  0
 37 17  1  0  0  0  0
 39 18  1  0  0  0  0
 40 20  1  0  0  0  0
 42 21  1  0  0  0  0
 44 22  1  0  0  0  0
 45 22  1  0  0  0  0
 46 25  1  0  0  0  0
 50 28  1  0  0  0  0
M  END
>  <Pose>
1

>  <Score>
-6.00

$$$$
