
 OpenBabel03232203513D

 50 54  0  0  0  0  0  0  0  0999 V2000
    1.5140    7.7380  -13.5390 S   0  0  0  0  0  0  0  0  0  0  0  0
    2.1430    7.0010  -12.3610 O   0  0  0  0  0  0  0  0  0  0  0  0
    2.4210    7.6410  -14.7390 O   0  0  0  0  0  0  0  0  0  0  0  0
    1.2200    9.3070  -13.0860 N   0  0  0  0  0  0  0  0  0  0  0  0
    0.3080   10.1070  -13.7800 C   0  0  0  0  0  0  0  0  0  0  0  0
    0.6740   11.5890  -13.6440 C   0  0  0  0  0  0  0  0  0  0  0  0
    2.0330   11.7510  -13.9760 N   0  0  0  0  0  0  0  0  0  0  0  0
    2.9260   10.9800  -13.1970 C   0  0  0  0  0  0  0  0  0  0  0  0
    2.1540   10.0200  -12.3200 C   0  0  0  0  0  0  0  0  0  0  0  0
    2.4650   13.0760  -14.2870 C   0  0  0  0  0  0  0  0  0  0  0  0
    1.6460   14.0380  -13.5120 C   0  0  0  0  0  0  0  0  0  0  0  0
    1.8180   14.2360  -12.1560 C   0  0  0  0  0  0  0  0  0  0  0  0
    1.0870   15.1130  -11.3970 C   0  0  0  0  0  0  0  0  0  0  0  0
    1.3390   15.2080  -10.1510 O   0  0  0  0  0  0  0  0  0  0  0  0
    0.1100   15.8630  -11.9880 N   0  0  0  0  0  0  0  0  0  0  0  0
   -0.6370   16.7100  -11.3990 N   0  0  0  0  0  0  0  0  0  0  0  0
   -1.5510   17.3910  -12.0240 C   0  0  0  0  0  0  0  0  0  0  0  0
   -1.3340   16.7690  -13.6210 S   0  0  0  0  0  0  0  0  0  0  0  0
   -0.0550   15.6700  -13.2980 C   0  0  0  0  0  0  0  0  0  0  0  0
    0.6680   14.8040  -14.0430 N   0  0  0  0  0  0  0  0  0  0  0  0
   -2.5100   18.4020  -11.5620 C   0  0  0  0  0  0  0  0  0  0  0  0
   -2.2490   19.0730  -10.3870 C   0  0  0  0  0  0  0  0  0  0  0  0
   -3.1160   20.0390   -9.8970 C   0  0  0  0  0  0  0  0  0  0  0  0
   -4.2670   20.3440  -10.5940 C   0  0  0  0  0  0  0  0  0  0  0  0
   -4.5500   19.6830  -11.7780 C   0  0  0  0  0  0  0  0  0  0  0  0
   -3.6600   18.7320  -12.2230 C   0  0  0  0  0  0  0  0  0  0  0  0
   -5.3590   21.5490   -9.9950 Cl  0  0  0  0  0  0  0  0  0  0  0  0
    0.0240    6.8860  -13.8770 C   0  0  0  0  0  0  0  0  0  0  0  0
   -1.0380    7.3520  -14.5910 N   0  0  0  0  0  0  0  0  0  0  0  0
   -2.0020    6.4310  -14.6410 C   0  0  0  0  0  0  0  0  0  0  0  0
   -1.6100    5.3380  -13.9710 N   0  0  0  0  0  0  0  0  0  0  0  0
   -0.3640    5.6220  -13.5030 C   0  0  0  0  0  0  0  0  0  0  0  0
   -0.7120    9.9470  -13.3050 H   0  0  0  0  0  0  0  0  0  0  0  0
    0.1980    9.9180  -14.8720 H   0  0  0  0  0  0  0  0  0  0  0  0
    0.5150   11.8460  -12.5760 H   0  0  0  0  0  0  0  0  0  0  0  0
   -0.0050   12.2110  -14.2700 H   0  0  0  0  0  0  0  0  0  0  0  0
    3.5370   10.3470  -13.8800 H   0  0  0  0  0  0  0  0  0  0  0  0
    3.5800   11.5970  -12.5290 H   0  0  0  0  0  0  0  0  0  0  0  0
    2.8650    9.3040  -11.8100 H   0  0  0  0  0  0  0  0  0  0  0  0
    1.6410   10.5620  -11.4960 H   0  0  0  0  0  0  0  0  0  0  0  0
    2.2820   13.2520  -15.3660 H   0  0  0  0  0  0  0  0  0  0  0  0
    3.5120   13.1910  -13.9940 H   0  0  0  0  0  0  0  0  0  0  0  0
    2.6160   13.6190  -11.6930 H   0  0  0  0  0  0  0  0  0  0  0  0
   -1.3640   18.8750   -9.8010 H   0  0  0  0  0  0  0  0  0  0  0  0
   -2.9400   20.5820   -8.9790 H   0  0  0  0  0  0  0  0  0  0  0  0
   -5.4520   19.9210  -12.3240 H   0  0  0  0  0  0  0  0  0  0  0  0
   -3.8890   18.2260  -13.1430 H   0  0  0  0  0  0  0  0  0  0  0  0
   -2.9500    6.5510  -15.1470 H   0  0  0  0  0  0  0  0  0  0  0  0
   -2.1470    4.4640  -13.8400 H   0  0  0  0  0  0  0  0  0  0  0  0
    0.2020    4.9200  -12.9210 H   0  0  0  0  0  0  0  0  0  0  0  0
  1  4  1  0  0  0  0
  1  2  2  0  0  0  0
  3  1  2  0  0  0  0
  4  9  1  0  0  0  0
  5  6  1  0  0  0  0
  5 33  1  0  0  0  0
  5  4  1  0  0  0  0
  6 35  1  0  0  0  0
  7  6  1  0  0  0  0
  7  8  1  0  0  0  0
  8 38  1  0  0  0  0
  8  9  1  0  0  0  0
  9 39  1  0  0  0  0
  9 40  1  0  0  0  0
 10 42  1  0  0  0  0
 10  7  1  0  0  0  0
 10 11  1  0  0  0  0
 11 12  2  0  0  0  0
 12 43  1  0  0  0  0
 12 13  1  0  0  0  0
 13 14  2  0  0  0  0
 15 16  1  0  0  0  0
 15 13  1  0  0  0  0
 17 21  1  0  0  0  0
 17 16  2  0  0  0  0
 18 19  1  0  0  0  0
 18 17  1  0  0  0  0
 19 15  1  0  0  0  0
 20 11  1  0  0  0  0
 20 19  2  0  0  0  0
 21 22  1  0  0  0  0
 22 23  2  0  0  0  0
 22 44  1  0  0  0  0
 23 45  1  0  0  0  0
 24 27  1  0  0  0  0
 24 23  1  0  0  0  0
 25 24  2  0  0  0  0
 26 25  1  0  0  0  0
 26 21  2  0  0  0  0
 28  1  1  0  0  0  0
 28 32  2  0  0  0  0
 29 28  1  0  0  0  0
 30 29  2  0  0  0  0
 30 31  1  0  0  0  0
 31 49  1  0  0  0  0
 31 32  1  0  0  0  0
 32 50  1  0  0  0  0
 34  5  1  0  0  0  0
 36  6  1  0  0  0  0
 37  8  1  0  0  0  0
 41 10  1  0  0  0  0
 46 25  1  0  0  0  0
 47 26  1  0  0  0  0
 48 30  1  0  0  0  0
M  END
>  <Pose>
1

>  <Score>
-7.83

$$$$
