
 OpenBabel03232203513D

 49 52  0  0  1  0  0  0  0  0999 V2000
   -1.1260    6.4920  -14.1300 Cl  0  0  0  0  0  0  0  0  0  0  0  0
   -0.2520    8.0120  -13.9400 C   0  0  0  0  0  0  0  0  0  0  0  0
   -0.8530    9.0980  -13.3610 C   0  0  0  0  0  0  0  0  0  0  0  0
   -0.1560   10.2840  -13.2180 C   0  0  0  0  0  0  0  0  0  0  0  0
    1.1470   10.4310  -13.6410 C   0  0  0  0  0  0  0  0  0  0  0  0
    1.7390    9.3290  -14.2220 C   0  0  0  0  0  0  0  0  0  0  0  0
    1.0410    8.1220  -14.3710 C   0  0  0  0  0  0  0  0  0  0  0  0
    1.8630   11.6520  -13.4890 N   0  0  0  0  0  0  0  0  0  0  0  0
    1.4570   12.9920  -13.8940 C   0  0  0  0  0  0  0  0  0  0  0  0
    2.1830   13.9480  -12.9900 C   0  0  2  0  0  0  0  0  0  0  0  0
    3.3100   13.1940  -12.3670 C   0  0  0  0  0  0  0  0  0  0  0  0
    3.1680   11.8160  -12.8910 C   0  0  0  0  0  0  0  0  0  0  0  0
    3.9990   10.8500  -12.8710 O   0  0  0  0  0  0  0  0  0  0  0  0
    1.3280   14.6980  -12.0620 C   0  0  0  0  0  0  0  0  0  0  0  0
    1.8860   15.1450  -10.9910 O   0  0  0  0  0  0  0  0  0  0  0  0
   -0.0340   14.9810  -12.2130 N   0  0  0  0  0  0  0  0  0  0  0  0
   -0.5520   15.4280  -13.4960 C   0  0  0  0  0  0  0  0  0  0  0  0
   -1.2550   16.7730  -13.3500 C   0  0  0  0  0  0  0  0  0  0  0  0
   -1.9040   16.8240  -12.0730 N   0  0  0  0  0  0  0  0  0  0  0  0
   -2.2990   15.5960  -11.4530 C   0  0  0  0  0  0  0  0  0  0  0  0
   -0.9880   14.8500  -11.1370 C   0  0  0  0  0  0  0  0  0  0  0  0
   -2.1440   18.0570  -11.4300 C   0  0  0  0  0  0  0  0  0  0  0  0
   -3.1960   18.8950  -11.6440 N   0  0  0  0  0  0  0  0  0  0  0  0
   -3.0750   19.9590  -10.8390 C   0  0  0  0  0  0  0  0  0  0  0  0
   -1.9290   19.8080  -10.0950 C   0  0  0  0  0  0  0  0  0  0  0  0
   -1.4020   18.6590  -10.4800 N   0  0  0  0  0  0  0  0  0  0  0  0
   -4.2840   18.6680  -12.6040 C   0  0  0  0  0  0  0  0  0  0  0  0
   -1.8800    8.9850  -13.0270 H   0  0  0  0  0  0  0  0  0  0  0  0
   -0.6850   11.1090  -12.7530 H   0  0  0  0  0  0  0  0  0  0  0  0
    2.7410    9.3910  -14.5650 H   0  0  0  0  0  0  0  0  0  0  0  0
    1.5150    7.2640  -14.8280 H   0  0  0  0  0  0  0  0  0  0  0  0
    0.3720   13.0680  -13.8590 H   0  0  0  0  0  0  0  0  0  0  0  0
    1.7740   13.0940  -14.9680 H   0  0  0  0  0  0  0  0  0  0  0  0
    2.6810   14.6860  -13.6950 H   0  0  0  0  0  0  0  0  0  0  0  0
    4.3320   13.5290  -12.7230 H   0  0  0  0  0  0  0  0  0  0  0  0
    3.3390   13.2640  -11.2710 H   0  0  0  0  0  0  0  0  0  0  0  0
   -1.3090   14.6750  -13.8200 H   0  0  0  0  0  0  0  0  0  0  0  0
    0.2170   15.4570  -14.2810 H   0  0  0  0  0  0  0  0  0  0  0  0
   -2.0620   16.8060  -14.1210 H   0  0  0  0  0  0  0  0  0  0  0  0
   -0.5080   17.5810  -13.4970 H   0  0  0  0  0  0  0  0  0  0  0  0
   -2.8030   15.7470  -10.4720 H   0  0  0  0  0  0  0  0  0  0  0  0
   -2.9080   14.9910  -12.1540 H   0  0  0  0  0  0  0  0  0  0  0  0
   -1.2720   13.8010  -10.9200 H   0  0  0  0  0  0  0  0  0  0  0  0
   -0.5890   15.3960  -10.2690 H   0  0  0  0  0  0  0  0  0  0  0  0
   -3.7600   20.7960  -10.7830 H   0  0  0  0  0  0  0  0  0  0  0  0
   -1.5180   20.4850   -9.3380 H   0  0  0  0  0  0  0  0  0  0  0  0
   -4.2610   19.4840  -13.3690 H   0  0  0  0  0  0  0  0  0  0  0  0
   -4.1150   17.7040  -13.1060 H   0  0  0  0  0  0  0  0  0  0  0  0
   -5.2450   18.7390  -12.0910 H   0  0  0  0  0  0  0  0  0  0  0  0
  1  2  1  0  0  0  0
  2  3  1  0  0  0  0
  3  4  2  0  0  0  0
  3 28  1  0  0  0  0
  4 29  1  0  0  0  0
  5  8  1  0  0  0  0
  5  4  1  0  0  0  0
  6  5  2  0  0  0  0
  7  6  1  0  0  0  0
  7  2  2  0  0  0  0
  8 12  1  0  0  0  0
  9 32  1  0  0  0  0
  9  8  1  0  0  0  0
  9 10  1  0  0  0  0
 10 34  1  6  0  0  0
 10 11  1  0  0  0  0
 10 14  1  0  0  0  0
 11 36  1  0  0  0  0
 12 13  2  0  0  0  0
 12 11  1  0  0  0  0
 14 15  2  0  0  0  0
 16 14  1  0  0  0  0
 16 21  1  0  0  0  0
 17 18  1  0  0  0  0
 17 16  1  0  0  0  0
 18 19  1  0  0  0  0
 19 20  1  0  0  0  0
 19 22  1  0  0  0  0
 20 21  1  0  0  0  0
 20 41  1  0  0  0  0
 21 43  1  0  0  0  0
 21 44  1  0  0  0  0
 22 26  2  0  0  0  0
 23 22  1  0  0  0  0
 23 24  1  0  0  0  0
 24 45  1  0  0  0  0
 24 25  2  0  0  0  0
 25 46  1  0  0  0  0
 26 25  1  0  0  0  0
 27 49  1  0  0  0  0
 27 23  1  0  0  0  0
 30  6  1  0  0  0  0
 31  7  1  0  0  0  0
 33  9  1  0  0  0  0
 35 11  1  0  0  0  0
 37 17  1  0  0  0  0
 38 17  1  0  0  0  0
 39 18  1  0  0  0  0
 40 18  1  0  0  0  0
 42 20  1  0  0  0  0
 47 27  1  0  0  0  0
 48 27  1  0  0  0  0
M  END
>  <Pose>
1

>  <Score>
-5.24

$$$$
