
 OpenBabel03232203513D

 45 48  0  0  1  0  0  0  0  0999 V2000
   -3.5420   18.6600  -13.3100 Cl  0  0  0  0  0  0  0  0  0  0  0  0
   -2.2530   17.4970  -13.0630 C   0  0  0  0  0  0  0  0  0  0  0  0
   -1.5470   16.9730  -14.1470 C   0  0  0  0  0  0  0  0  0  0  0  0
   -0.5440   16.0590  -13.9740 C   0  0  0  0  0  0  0  0  0  0  0  0
   -0.1600   15.5890  -12.7170 C   0  0  0  0  0  0  0  0  0  0  0  0
   -0.8660   16.1160  -11.6470 C   0  0  0  0  0  0  0  0  0  0  0  0
   -1.8740   17.0340  -11.8190 C   0  0  0  0  0  0  0  0  0  0  0  0
    0.8760   14.6390  -12.5650 N   0  0  0  0  0  0  0  0  0  0  0  0
    2.1060   15.0960  -11.9840 C   0  0  0  0  0  0  0  0  0  0  0  0
    2.1900   16.2990  -11.6050 O   0  0  0  0  0  0  0  0  0  0  0  0
    3.1520   14.1470  -11.8750 N   0  0  0  0  0  0  0  0  0  0  0  0
    3.0900   12.9480  -12.2540 C   0  0  0  0  0  0  0  0  0  0  0  0
    1.9000   12.2930  -12.9000 C   0  0  1  0  0  0  0  0  0  0  0  0
    2.3580   11.9710  -14.2940 C   0  0  0  0  0  0  0  0  0  0  0  0
    1.6960   10.9240  -14.9700 N   0  0  0  0  0  4  0  0  0  0  0  0
    1.3750    9.7840  -14.1960 C   0  0  0  0  0  0  0  0  0  0  0  0
    1.3100    9.8770  -12.8430 C   0  0  0  0  0  0  0  0  0  0  0  0
    0.9890    8.7350  -12.1140 C   0  0  0  0  0  0  0  0  0  0  0  0
    0.7480    7.5450  -12.7700 C   0  0  0  0  0  0  0  0  0  0  0  0
    0.8150    7.4510  -14.1520 C   0  0  0  0  0  0  0  0  0  0  0  0
    1.1370    8.6020  -14.8690 C   0  0  0  0  0  0  0  0  0  0  0  0
    0.4120    6.2960  -12.0140 C   0  0  0  0  0  0  0  0  0  0  0  0
    1.5510   11.1160  -12.0720 C   0  0  0  0  0  0  0  0  0  0  0  0
    0.5400   11.3200  -15.7600 C   0  0  0  0  0  0  0  0  0  0  0  0
    0.7990   13.2840  -12.9710 C   0  0  0  0  0  0  0  0  0  0  0  0
   -0.3500   12.9450  -13.4310 O   0  0  0  0  0  0  0  0  0  0  0  0
    4.1950   12.0930  -12.0880 O   0  0  0  0  0  0  0  0  0  0  0  0
   -1.8480   17.3410  -15.1380 H   0  0  0  0  0  0  0  0  0  0  0  0
    0.0100   15.6510  -14.8410 H   0  0  0  0  0  0  0  0  0  0  0  0
   -0.5610   15.7490  -10.6780 H   0  0  0  0  0  0  0  0  0  0  0  0
   -2.4030   17.4180  -10.9360 H   0  0  0  0  0  0  0  0  0  0  0  0
    3.4700   11.7990  -14.3220 H   0  0  0  0  0  0  0  0  0  0  0  0
    2.2080   12.9170  -14.8900 H   0  0  0  0  0  0  0  0  0  0  0  0
    2.3830   10.5530  -15.7030 H   0  0  0  0  0  0  0  0  0  0  0  0
    0.9270    8.7520  -11.0310 H   0  0  0  0  0  0  0  0  0  0  0  0
    0.6290    6.5150  -14.6960 H   0  0  0  0  0  0  0  0  0  0  0  0
    1.1880    8.5190  -15.9530 H   0  0  0  0  0  0  0  0  0  0  0  0
    0.6850    6.3730  -10.9400 H   0  0  0  0  0  0  0  0  0  0  0  0
    0.9060    5.4240  -12.5200 H   0  0  0  0  0  0  0  0  0  0  0  0
   -0.6710    6.1190  -12.0700 H   0  0  0  0  0  0  0  0  0  0  0  0
    2.3800   10.8420  -11.3500 H   0  0  0  0  0  0  0  0  0  0  0  0
    0.6650   11.2990  -11.4390 H   0  0  0  0  0  0  0  0  0  0  0  0
    0.5040   12.4120  -15.9640 H   0  0  0  0  0  0  0  0  0  0  0  0
   -0.3890   10.9180  -15.2910 H   0  0  0  0  0  0  0  0  0  0  0  0
    0.5610   10.8360  -16.7840 H   0  0  0  0  0  0  0  0  0  0  0  0
  1  2  1  0  0  0  0
  2  7  1  0  0  0  0
  3  4  1  0  0  0  0
  3  2  2  0  0  0  0
  4  5  2  0  0  0  0
  5  8  1  0  0  0  0
  5  6  1  0  0  0  0
  6 30  1  0  0  0  0
  7  6  2  0  0  0  0
  7 31  1  0  0  0  0
  8  9  1  0  0  0  0
  9 11  1  0  0  0  0
  9 10  2  0  0  0  0
 12 27  2  0  0  0  0
 12 11  1  0  0  0  0
 13 25  1  6  0  0  0
 13 12  1  0  0  0  0
 13 23  1  0  0  0  0
 14 13  1  0  0  0  0
 15 14  1  0  0  0  0
 15 16  1  0  0  0  0
 16 17  1  0  0  0  0
 17 18  2  0  0  0  0
 17 23  1  0  0  0  0
 18 35  1  0  0  0  0
 19 18  1  0  0  0  0
 19 22  1  0  0  0  0
 20 19  2  0  0  0  0
 21 16  2  0  0  0  0
 21 20  1  0  0  0  0
 22 38  1  0  0  0  0
 23 42  1  0  0  0  0
 23 41  1  0  0  0  0
 24 44  1  0  0  0  0
 24 15  1  0  0  0  0
 25  8  1  0  0  0  0
 26 25  2  0  0  0  0
 28  3  1  0  0  0  0
 29  4  1  0  0  0  0
 32 14  1  0  0  0  0
 33 14  1  0  0  0  0
 34 15  1  0  0  0  0
 36 20  1  0  0  0  0
 37 21  1  0  0  0  0
 39 22  1  0  0  0  0
 40 22  1  0  0  0  0
 43 24  1  0  0  0  0
 45 24  1  0  0  0  0
M  END
>  <Pose>
1

>  <Score>
-4.32

$$$$
