
 OpenBabel03232203513D

 53 56  0  0  1  0  0  0  0  0999 V2000
   -0.4740   15.0610  -13.9010 Cl  0  0  0  0  0  0  0  0  0  0  0  0
    0.0010   13.4460  -13.3630 C   0  0  0  0  0  0  0  0  0  0  0  0
   -0.8050   12.3730  -13.6710 C   0  0  0  0  0  0  0  0  0  0  0  0
   -0.4370   11.0990  -13.2500 C   0  0  0  0  0  0  0  0  0  0  0  0
    0.7150   10.8980  -12.5370 C   0  0  0  0  0  0  0  0  0  0  0  0
    1.5010   11.9910  -12.2430 C   0  0  0  0  0  0  0  0  0  0  0  0
    1.1650   13.2710  -12.6460 C   0  0  0  0  0  0  0  0  0  0  0  0
    1.1170    9.5590  -12.0860 N   0  0  0  0  0  0  0  0  0  0  0  0
    1.9490    8.7630  -12.9150 C   0  0  2  0  0  0  0  0  0  0  0  0
    2.1880    7.4150  -12.4210 C   0  0  0  0  0  0  0  0  0  0  0  0
    1.7330    6.9810  -11.2130 C   0  0  0  0  0  0  0  0  0  0  0  0
    2.0220    5.6700  -10.7900 C   0  0  0  0  0  0  0  0  0  0  0  0
    2.7520    4.7870  -11.5450 C   0  0  0  0  0  0  0  0  0  0  0  0
    3.2060    5.2460  -12.7710 C   0  0  0  0  0  0  0  0  0  0  0  0
    2.9320    6.5090  -13.1850 C   0  0  0  0  0  0  0  0  0  0  0  0
    0.9380    7.8120  -10.3530 N   0  0  0  0  0  0  0  0  0  0  0  0
    0.6550    9.1080  -10.8400 C   0  0  0  0  0  0  0  0  0  0  0  0
   -0.0440    9.9080  -10.1360 O   0  0  0  0  0  0  0  0  0  0  0  0
    3.2170    9.4440  -12.9010 O   0  0  0  0  0  0  0  0  0  0  0  0
    1.5150    8.7800  -14.3360 C   0  0  0  0  0  0  0  0  0  0  0  0
    1.9570    9.6340  -15.1070 O   0  0  0  0  0  0  0  0  0  0  0  0
    0.5970    7.8000  -14.7570 N   0  0  0  0  0  0  0  0  0  0  0  0
   -0.7970    8.1120  -15.0730 C   0  0  0  0  0  0  0  0  0  0  0  0
   -1.7540    7.4010  -14.1960 C   0  0  0  0  0  0  0  0  0  0  0  0
   -3.1210    7.7310  -14.3180 N   0  0  0  0  0  0  0  0  0  0  0  0
   -3.5240    9.0540  -14.0710 C   0  0  0  0  0  0  0  0  0  0  0  0
   -4.9750    9.2160  -14.5320 C   0  0  0  0  0  0  0  0  0  0  0  0
   -5.6900    8.0230  -14.3190 O   0  0  0  0  0  0  0  0  0  0  0  0
   -5.2920    7.0300  -15.2110 C   0  0  0  0  0  0  0  0  0  0  0  0
   -3.8070    7.1480  -15.4210 C   0  0  0  0  0  0  0  0  0  0  0  0
   -1.7030   12.5560  -14.2310 H   0  0  0  0  0  0  0  0  0  0  0  0
   -1.0790   10.2820  -13.5020 H   0  0  0  0  0  0  0  0  0  0  0  0
    2.4090   11.8580  -11.6850 H   0  0  0  0  0  0  0  0  0  0  0  0
    1.7610   14.1370  -12.4300 H   0  0  0  0  0  0  0  0  0  0  0  0
    1.6430    5.3700   -9.8300 H   0  0  0  0  0  0  0  0  0  0  0  0
    2.9840    3.7820  -11.2400 H   0  0  0  0  0  0  0  0  0  0  0  0
    3.7960    4.5520  -13.3960 H   0  0  0  0  0  0  0  0  0  0  0  0
    3.2880    6.8530  -14.1340 H   0  0  0  0  0  0  0  0  0  0  0  0
    0.6120    7.4480   -9.4400 H   0  0  0  0  0  0  0  0  0  0  0  0
    3.4690    9.6520  -11.9640 H   0  0  0  0  0  0  0  0  0  0  0  0
    0.8650    6.7830  -14.8680 H   0  0  0  0  0  0  0  0  0  0  0  0
   -0.8750    9.2010  -15.0810 H   0  0  0  0  0  0  0  0  0  0  0  0
   -0.9510    7.7640  -16.1160 H   0  0  0  0  0  0  0  0  0  0  0  0
   -1.4490    7.6060  -13.1320 H   0  0  0  0  0  0  0  0  0  0  0  0
   -1.6410    6.3030  -14.3150 H   0  0  0  0  0  0  0  0  0  0  0  0
   -3.3850    9.4160  -13.0360 H   0  0  0  0  0  0  0  0  0  0  0  0
   -2.9280    9.7400  -14.7130 H   0  0  0  0  0  0  0  0  0  0  0  0
   -5.4800   10.0440  -14.0310 H   0  0  0  0  0  0  0  0  0  0  0  0
   -5.0310    9.4010  -15.6310 H   0  0  0  0  0  0  0  0  0  0  0  0
   -5.8370    7.0720  -16.1740 H   0  0  0  0  0  0  0  0  0  0  0  0
   -5.5040    6.0420  -14.7690 H   0  0  0  0  0  0  0  0  0  0  0  0
   -3.3440    6.1820  -15.7090 H   0  0  0  0  0  0  0  0  0  0  0  0
   -3.6720    7.8310  -16.3070 H   0  0  0  0  0  0  0  0  0  0  0  0
  1  2  1  0  0  0  0
  2  7  1  0  0  0  0
  3  2  2  0  0  0  0
  3  4  1  0  0  0  0
  4  5  2  0  0  0  0
  5  6  1  0  0  0  0
  5  8  1  0  0  0  0
  6 33  1  0  0  0  0
  7 34  1  0  0  0  0
  7  6  2  0  0  0  0
  8 17  1  0  0  0  0
  9 20  1  6  0  0  0
  9 19  1  0  0  0  0
  9 10  1  0  0  0  0
  9  8  1  0  0  0  0
 10 11  1  0  0  0  0
 11 12  2  0  0  0  0
 11 16  1  0  0  0  0
 12 35  1  0  0  0  0
 13 36  1  0  0  0  0
 13 12  1  0  0  0  0
 14 13  2  0  0  0  0
 15 14  1  0  0  0  0
 15 10  2  0  0  0  0
 16 39  1  0  0  0  0
 17 16  1  0  0  0  0
 17 18  2  0  0  0  0
 19 40  1  0  0  0  0
 21 20  2  0  0  0  0
 22 20  1  0  0  0  0
 23 22  1  0  0  0  0
 23 24  1  0  0  0  0
 24 44  1  0  0  0  0
 25 24  1  0  0  0  0
 25 26  1  0  0  0  0
 26 46  1  0  0  0  0
 27 28  1  0  0  0  0
 27 26  1  0  0  0  0
 27 48  1  0  0  0  0
 29 51  1  0  0  0  0
 29 28  1  0  0  0  0
 30 29  1  0  0  0  0
 30 25  1  0  0  0  0
 31  3  1  0  0  0  0
 32  4  1  0  0  0  0
 37 14  1  0  0  0  0
 38 15  1  0  0  0  0
 41 22  1  0  0  0  0
 42 23  1  0  0  0  0
 43 23  1  0  0  0  0
 45 24  1  0  0  0  0
 47 26  1  0  0  0  0
 49 27  1  0  0  0  0
 50 29  1  0  0  0  0
 52 30  1  0  0  0  0
 53 30  1  0  0  0  0
M  END
>  <Pose>
1

>  <Score>
-2.96

$$$$
