
 OpenBabel03232203513D

 53 56  0  0  0  0  0  0  0  0999 V2000
    4.6130    8.0960  -14.7490 Cl  0  0  0  0  0  0  0  0  0  0  0  0
    3.7020    9.4590  -14.1080 C   0  0  0  0  0  0  0  0  0  0  0  0
    2.4330    9.6810  -14.6390 C   0  0  0  0  0  0  0  0  0  0  0  0
    1.7080   10.7430  -14.1490 C   0  0  0  0  0  0  0  0  0  0  0  0
    2.2390   11.5560  -13.1560 C   0  0  0  0  0  0  0  0  0  0  0  0
    3.5050   11.3270  -12.6310 C   0  0  0  0  0  0  0  0  0  0  0  0
    4.2330   10.2610  -13.1250 C   0  0  0  0  0  0  0  0  0  0  0  0
    1.5720   12.6410  -12.6120 O   0  0  0  0  0  0  0  0  0  0  0  0
    0.6040   13.4780  -13.1800 C   0  0  0  0  0  0  0  0  0  0  0  0
   -0.6530   12.8200  -13.6190 C   0  0  0  0  0  0  0  0  0  0  0  0
   -0.5810   11.4250  -13.9100 N   0  0  0  0  0  0  0  0  0  0  0  0
    0.3890   10.8170  -14.8320 C   0  0  0  0  0  0  0  0  0  0  0  0
   -1.5040   10.5430  -13.2850 C   0  0  0  0  0  0  0  0  0  0  0  0
   -2.6810   10.9530  -13.1580 O   0  0  0  0  0  0  0  0  0  0  0  0
   -1.1250    9.2220  -12.8100 C   0  0  0  0  0  0  0  0  0  0  0  0
   -1.7060    8.0440  -13.4800 C   0  0  0  0  0  0  0  0  0  0  0  0
   -3.1470    7.7680  -13.3590 C   0  0  0  0  0  0  0  0  0  0  0  0
   -3.9490    7.6240  -14.5150 N   0  0  0  0  0  0  0  0  0  0  0  0
   -3.5940    6.9030  -15.6810 C   0  0  0  0  0  0  0  0  0  0  0  0
   -2.5300    6.2560  -15.9160 O   0  0  0  0  0  0  0  0  0  0  0  0
   -4.6740    7.0220  -16.5900 N   0  0  0  0  0  0  0  0  0  0  0  0
   -5.8490    7.4960  -15.8630 C   0  0  0  0  0  0  0  0  0  0  0  0
   -5.2340    8.1830  -14.7070 C   0  0  0  0  0  0  0  0  0  0  0  0
   -5.7910    9.1140  -14.0210 O   0  0  0  0  0  0  0  0  0  0  0  0
    0.2550   14.5680  -12.1490 C   0  0  0  0  0  0  0  0  0  0  0  0
    1.5640   15.1470  -11.6850 C   0  0  0  0  0  0  0  0  0  0  0  0
    2.6460   14.6560  -12.3940 O   0  0  0  0  0  0  0  0  0  0  0  0
    2.5310   14.8630  -13.7570 C   0  0  0  0  0  0  0  0  0  0  0  0
    1.2570   14.2720  -14.3220 C   0  0  0  0  0  0  0  0  0  0  0  0
    2.0630    9.0260  -15.4070 H   0  0  0  0  0  0  0  0  0  0  0  0
    3.8800   11.9710  -11.8730 H   0  0  0  0  0  0  0  0  0  0  0  0
    5.2320   10.0560  -12.7310 H   0  0  0  0  0  0  0  0  0  0  0  0
   -0.9750   13.3260  -14.5780 H   0  0  0  0  0  0  0  0  0  0  0  0
   -1.4930   13.0580  -12.9060 H   0  0  0  0  0  0  0  0  0  0  0  0
    0.0560    9.8660  -15.2410 H   0  0  0  0  0  0  0  0  0  0  0  0
    0.5440   11.4930  -15.7150 H   0  0  0  0  0  0  0  0  0  0  0  0
   -1.2770    9.0890  -11.7090 H   0  0  0  0  0  0  0  0  0  0  0  0
   -0.0010    9.1400  -12.9190 H   0  0  0  0  0  0  0  0  0  0  0  0
   -1.1710    7.1330  -13.0470 H   0  0  0  0  0  0  0  0  0  0  0  0
   -1.3590    7.9960  -14.5660 H   0  0  0  0  0  0  0  0  0  0  0  0
   -3.2310    6.8480  -12.6810 H   0  0  0  0  0  0  0  0  0  0  0  0
   -3.6740    8.5470  -12.7100 H   0  0  0  0  0  0  0  0  0  0  0  0
   -4.6740    6.8180  -17.6090 H   0  0  0  0  0  0  0  0  0  0  0  0
   -6.4410    6.6460  -15.4770 H   0  0  0  0  0  0  0  0  0  0  0  0
   -6.4490    8.1950  -16.4800 H   0  0  0  0  0  0  0  0  0  0  0  0
   -0.3620   14.1670  -11.3410 H   0  0  0  0  0  0  0  0  0  0  0  0
   -0.3090   15.3370  -12.7200 H   0  0  0  0  0  0  0  0  0  0  0  0
    1.5720   16.2640  -11.7180 H   0  0  0  0  0  0  0  0  0  0  0  0
    1.6970   14.8650  -10.6210 H   0  0  0  0  0  0  0  0  0  0  0  0
    2.6570   15.9280  -14.0540 H   0  0  0  0  0  0  0  0  0  0  0  0
    3.3930   14.3170  -14.2370 H   0  0  0  0  0  0  0  0  0  0  0  0
    0.5790   15.1340  -14.5520 H   0  0  0  0  0  0  0  0  0  0  0  0
    1.4250   13.6640  -15.2100 H   0  0  0  0  0  0  0  0  0  0  0  0
  1  2  1  0  0  0  0
  2  7  1  0  0  0  0
  3  4  1  0  0  0  0
  3  2  2  0  0  0  0
  4  5  2  0  0  0  0
  5  6  1  0  0  0  0
  5  8  1  0  0  0  0
  6 31  1  0  0  0  0
  7 32  1  0  0  0  0
  7  6  2  0  0  0  0
  9  8  1  0  0  0  0
  9 25  1  0  0  0  0
 10  9  1  0  0  0  0
 10 34  1  0  0  0  0
 11 10  1  0  0  0  0
 11 13  1  0  0  0  0
 12  4  1  0  0  0  0
 12 11  1  0  0  0  0
 13 14  2  0  0  0  0
 13 15  1  0  0  0  0
 15 37  1  0  0  0  0
 16 17  1  0  0  0  0
 16 39  1  0  0  0  0
 16 15  1  0  0  0  0
 17 42  1  0  0  0  0
 17 41  1  0  0  0  0
 18 17  1  0  0  0  0
 19 18  1  0  0  0  0
 20 19  2  0  0  0  0
 21 22  1  0  0  0  0
 21 19  1  0  0  0  0
 22 44  1  0  0  0  0
 22 23  1  0  0  0  0
 23 18  1  0  0  0  0
 23 24  2  0  0  0  0
 25 26  1  0  0  0  0
 25 46  1  0  0  0  0
 26 49  1  0  0  0  0
 27 26  1  0  0  0  0
 28 27  1  0  0  0  0
 29 28  1  0  0  0  0
 29  9  1  0  0  0  0
 30  3  1  0  0  0  0
 33 10  1  0  0  0  0
 35 12  1  0  0  0  0
 36 12  1  0  0  0  0
 38 15  1  0  0  0  0
 40 16  1  0  0  0  0
 43 21  1  0  0  0  0
 45 22  1  0  0  0  0
 47 25  1  0  0  0  0
 48 26  1  0  0  0  0
 50 28  1  0  0  0  0
 51 28  1  0  0  0  0
 52 29  1  0  0  0  0
 53 29  1  0  0  0  0
M  END
>  <Pose>
1

>  <Score>
-4.84

$$$$
