
 OpenBabel03232203513D

 39 42  0  0  0  0  0  0  0  0999 V2000
   -4.7240   21.3540   -9.7590 B   0  0  0  0  0  0  0  0  0  0  0  0
   -3.5690   20.0360  -10.5060 C   0  0  0  0  0  0  0  0  0  0  0  0
   -3.8890   19.5190  -11.7320 C   0  0  0  0  0  0  0  0  0  0  0  0
   -3.0850   18.5840  -12.2800 N   0  0  0  0  0  0  0  0  0  0  0  0
   -1.9840   18.1610  -11.6400 C   0  0  0  0  0  0  0  0  0  0  0  0
   -1.1710   17.2160  -12.1950 N   0  0  0  0  0  0  0  0  0  0  0  0
   -1.4480   16.6810  -13.3970 C   0  0  0  0  0  0  0  0  0  0  0  0
   -2.5790   17.1270  -14.0350 C   0  0  0  0  0  0  0  0  0  0  0  0
   -3.4200   18.0800  -13.5030 C   0  0  0  0  0  0  0  0  0  0  0  0
   -4.4460   18.4980  -14.0600 O   0  0  0  0  0  0  0  0  0  0  0  0
   -0.5140   15.6510  -13.9640 C   0  0  0  0  0  0  0  0  0  0  0  0
    0.4710   15.2110  -12.9960 N   0  0  0  0  0  0  0  0  0  0  0  0
    1.0770   14.0230  -12.8540 C   0  0  0  0  0  0  0  0  0  0  0  0
    1.9410   14.0340  -11.7640 C   0  0  0  0  0  0  0  0  0  0  0  0
    1.8370   15.2810  -11.2470 N   0  0  0  0  0  0  0  0  0  0  0  0
    0.9660   15.9830  -11.9760 C   0  0  0  0  0  0  0  0  0  0  0  0
    2.6840   12.9720  -11.3910 N   0  0  0  0  0  0  0  0  0  0  0  0
    2.5540   11.8610  -12.1400 C   0  0  0  0  0  0  0  0  0  0  0  0
    3.2420   10.8570  -11.8060 O   0  0  0  0  0  0  0  0  0  0  0  0
    1.7360   11.7980  -13.2020 N   0  0  0  0  0  0  0  0  0  0  0  0
    0.9910   12.8580  -13.5760 C   0  0  0  0  0  0  0  0  0  0  0  0
    0.2270   12.8190  -14.5600 O   0  0  0  0  0  0  0  0  0  0  0  0
    1.5990   10.5970  -14.0070 C   0  0  0  0  0  0  0  0  0  0  0  0
    3.5660   13.0490  -10.2430 C   0  0  0  0  0  0  0  0  0  0  0  0
   -1.6520   18.6800  -10.3980 C   0  0  0  0  0  0  0  0  0  0  0  0
   -2.4500   19.6320   -9.8150 C   0  0  0  0  0  0  0  0  0  0  0  0
   -4.7870   19.8460  -12.2830 H   0  0  0  0  0  0  0  0  0  0  0  0
   -2.8240   16.7210  -15.0050 H   0  0  0  0  0  0  0  0  0  0  0  0
   -1.1050   14.8120  -14.3660 H   0  0  0  0  0  0  0  0  0  0  0  0
    0.0230   16.1330  -14.8040 H   0  0  0  0  0  0  0  0  0  0  0  0
    0.6570   17.0130  -11.8280 H   0  0  0  0  0  0  0  0  0  0  0  0
    0.6130   10.5540  -14.5080 H   0  0  0  0  0  0  0  0  0  0  0  0
    2.4450   10.5980  -14.7320 H   0  0  0  0  0  0  0  0  0  0  0  0
    1.7250    9.6920  -13.3540 H   0  0  0  0  0  0  0  0  0  0  0  0
    4.6180   13.2090  -10.5610 H   0  0  0  0  0  0  0  0  0  0  0  0
    3.4440   12.1010   -9.6600 H   0  0  0  0  0  0  0  0  0  0  0  0
    3.2240   13.8610   -9.5610 H   0  0  0  0  0  0  0  0  0  0  0  0
   -0.7490   18.3150   -9.9030 H   0  0  0  0  0  0  0  0  0  0  0  0
   -2.1940   20.0470   -8.8320 H   0  0  0  0  0  0  0  0  0  0  0  0
  2 26  2  0  0  0  0
  2  1  1  0  0  0  0
  3  2  1  0  0  0  0
  4  3  1  0  0  0  0
  4  5  1  0  0  0  0
  5 25  2  0  0  0  0
  6  5  1  0  0  0  0
  7  6  2  0  0  0  0
  8  9  1  0  0  0  0
  8  7  1  0  0  0  0
  9  4  1  0  0  0  0
 10  9  2  0  0  0  0
 11  7  1  0  0  0  0
 11 12  1  0  0  0  0
 12 13  1  0  0  0  0
 12 16  1  0  0  0  0
 13 14  2  0  0  0  0
 14 17  1  0  0  0  0
 14 15  1  0  0  0  0
 16 31  1  0  0  0  0
 16 15  2  0  0  0  0
 17 24  1  0  0  0  0
 18 19  2  0  0  0  0
 18 17  1  0  0  0  0
 20 18  1  0  0  0  0
 21 20  1  0  0  0  0
 21 13  1  0  0  0  0
 22 21  2  0  0  0  0
 23 34  1  0  0  0  0
 23 20  1  0  0  0  0
 24 36  1  0  0  0  0
 24 37  1  0  0  0  0
 25 38  1  0  0  0  0
 25 26  1  0  0  0  0
 26 39  1  0  0  0  0
 27  3  1  0  0  0  0
 28  8  1  0  0  0  0
 29 11  1  0  0  0  0
 30 11  1  0  0  0  0
 32 23  1  0  0  0  0
 33 23  1  0  0  0  0
 35 24  1  0  0  0  0
M  END
>  <Pose>
1

>  <Score>
-5.66

$$$$
