
 OpenBabel03232203513D

 53 56  0  0  1  0  0  0  0  0999 V2000
   -1.0120   16.1880  -13.3490 S   0  0  0  0  0  0  0  0  0  0  0  0
   -0.9710   16.6750  -14.7860 O   0  0  0  0  0  0  0  0  0  0  0  0
   -1.9130   14.9710  -13.3610 O   0  0  0  0  0  0  0  0  0  0  0  0
    0.5360   15.8790  -12.8440 N   0  0  0  0  0  0  0  0  0  0  0  0
    1.6260   15.9360  -13.7080 C   0  0  0  0  0  0  0  0  0  0  0  0
    2.8650   15.3930  -12.9830 C   0  0  0  0  0  0  0  0  0  0  0  0
    2.4920   14.2210  -12.1900 N   0  0  0  0  0  0  0  0  0  0  0  0
    1.4530   14.4260  -11.1990 C   0  0  0  0  0  0  0  0  0  0  0  0
    0.8590   15.8140  -11.4790 C   0  0  0  0  0  0  0  0  0  0  0  0
    3.1210   12.9660  -12.4210 C   0  0  0  0  0  0  0  0  0  0  0  0
    4.3200   12.9800  -12.7860 O   0  0  0  0  0  0  0  0  0  0  0  0
    2.3860   11.7160  -12.2380 C   0  0  0  0  0  0  0  0  0  0  0  0
    1.9980   11.0260  -13.5380 C   0  0  2  0  0  0  0  0  0  0  0  0
    0.6490   10.5250  -13.5430 N   0  0  0  0  0  0  0  0  0  0  0  0
    0.1170    9.2080  -13.5320 C   0  0  0  0  0  0  0  0  0  0  0  0
   -1.0570    8.9980  -13.9350 O   0  0  0  0  0  0  0  0  0  0  0  0
    0.8020    7.9750  -13.0860 C   0  0  0  0  0  0  0  0  0  0  0  0
    2.1820    7.7480  -13.0490 C   0  0  0  0  0  0  0  0  0  0  0  0
    2.6550    6.5490  -12.5980 C   0  0  0  0  0  0  0  0  0  0  0  0
    1.8140    5.5230  -12.1640 C   0  0  0  0  0  0  0  0  0  0  0  0
    0.4430    5.7790  -12.2120 C   0  0  0  0  0  0  0  0  0  0  0  0
   -0.0480    6.9840  -12.6650 C   0  0  0  0  0  0  0  0  0  0  0  0
    3.1870    8.6690  -13.4450 N   0  0  0  0  0  0  0  0  0  0  0  0
    3.0260   10.0220  -13.8840 C   0  0  0  0  0  0  0  0  0  0  0  0
    3.9410   10.3780  -14.7070 O   0  0  0  0  0  0  0  0  0  0  0  0
   -1.8310   17.4490  -12.4210 C   0  0  0  0  0  0  0  0  0  0  0  0
   -1.3390   17.8910  -11.2150 C   0  0  0  0  0  0  0  0  0  0  0  0
   -2.0150   18.8740  -10.5260 C   0  0  0  0  0  0  0  0  0  0  0  0
   -3.1830   19.4540  -10.9850 C   0  0  0  0  0  0  0  0  0  0  0  0
   -3.6780   19.0060  -12.2040 C   0  0  0  0  0  0  0  0  0  0  0  0
   -2.9980   18.0240  -12.8880 C   0  0  0  0  0  0  0  0  0  0  0  0
   -4.0390   20.6920  -10.1260 Cl  0  0  0  0  0  0  0  0  0  0  0  0
    1.8980   16.9760  -14.0580 H   0  0  0  0  0  0  0  0  0  0  0  0
    1.5500   15.3010  -14.6220 H   0  0  0  0  0  0  0  0  0  0  0  0
    3.2730   16.1440  -12.2870 H   0  0  0  0  0  0  0  0  0  0  0  0
    3.6700   15.1430  -13.7000 H   0  0  0  0  0  0  0  0  0  0  0  0
    0.6030   13.7220  -11.3520 H   0  0  0  0  0  0  0  0  0  0  0  0
    1.8490   14.4120  -10.1860 H   0  0  0  0  0  0  0  0  0  0  0  0
    1.6560   16.5570  -11.1840 H   0  0  0  0  0  0  0  0  0  0  0  0
   -0.0030   16.0010  -10.7920 H   0  0  0  0  0  0  0  0  0  0  0  0
    3.0390   10.9540  -11.7040 H   0  0  0  0  0  0  0  0  0  0  0  0
    1.5000   11.8360  -11.5850 H   0  0  0  0  0  0  0  0  0  0  0  0
    2.0510   11.8350  -14.3310 H   0  0  0  0  0  0  0  0  0  0  0  0
   -0.1380   11.2470  -13.5580 H   0  0  0  0  0  0  0  0  0  0  0  0
    3.7140    6.3780  -12.5750 H   0  0  0  0  0  0  0  0  0  0  0  0
    2.1970    4.5860  -11.8120 H   0  0  0  0  0  0  0  0  0  0  0  0
   -0.2020    4.9820  -11.8720 H   0  0  0  0  0  0  0  0  0  0  0  0
   -1.1040    7.1830  -12.7030 H   0  0  0  0  0  0  0  0  0  0  0  0
    4.1400    8.3100  -13.4050 H   0  0  0  0  0  0  0  0  0  0  0  0
   -0.4390   17.4950  -10.7890 H   0  0  0  0  0  0  0  0  0  0  0  0
   -1.6250   19.2340   -9.5590 H   0  0  0  0  0  0  0  0  0  0  0  0
   -4.5870   19.4490  -12.5700 H   0  0  0  0  0  0  0  0  0  0  0  0
   -3.4120   17.7010  -13.8270 H   0  0  0  0  0  0  0  0  0  0  0  0
  1  4  1  0  0  0  0
  1 26  1  0  0  0  0
  2  1  2  0  0  0  0
  3  1  2  0  0  0  0
  4  9  1  0  0  0  0
  5  6  1  0  0  0  0
  5  4  1  0  0  0  0
  6 35  1  0  0  0  0
  6  7  1  0  0  0  0
  7  8  1  0  0  0  0
  8 38  1  0  0  0  0
  9  8  1  0  0  0  0
  9 39  1  0  0  0  0
  9 40  1  0  0  0  0
 10 12  1  0  0  0  0
 10  7  1  0  0  0  0
 11 10  2  0  0  0  0
 12 41  1  0  0  0  0
 12 42  1  0  0  0  0
 13 43  1  6  0  0  0
 13 12  1  0  0  0  0
 14 13  1  0  0  0  0
 14 15  1  0  0  0  0
 15 17  1  0  0  0  0
 16 15  2  0  0  0  0
 17 18  2  0  0  0  0
 17 22  1  0  0  0  0
 18 19  1  0  0  0  0
 19 45  1  0  0  0  0
 19 20  2  0  0  0  0
 20 46  1  0  0  0  0
 21 20  1  0  0  0  0
 21 47  1  0  0  0  0
 22 21  2  0  0  0  0
 23 49  1  0  0  0  0
 23 18  1  0  0  0  0
 24 13  1  0  0  0  0
 24 23  1  0  0  0  0
 25 24  2  0  0  0  0
 26 27  1  0  0  0  0
 27 50  1  0  0  0  0
 27 28  2  0  0  0  0
 28 51  1  0  0  0  0
 29 28  1  0  0  0  0
 29 32  1  0  0  0  0
 30 29  2  0  0  0  0
 31 26  2  0  0  0  0
 31 30  1  0  0  0  0
 33  5  1  0  0  0  0
 34  5  1  0  0  0  0
 36  6  1  0  0  0  0
 37  8  1  0  0  0  0
 44 14  1  0  0  0  0
 48 22  1  0  0  0  0
 52 30  1  0  0  0  0
 53 31  1  0  0  0  0
M  END
>  <Pose>
1

>  <Score>
-7.72

$$$$
