
 OpenBabel03232203513D

 53 56  0  0  1  0  0  0  0  0999 V2000
   -0.5070   12.3600  -13.9780 Cl  0  0  0  0  0  0  0  0  0  0  0  0
    0.7650   13.0230  -12.9570 C   0  0  0  0  0  0  0  0  0  0  0  0
    1.9030   12.2710  -12.7900 C   0  0  0  0  0  0  0  0  0  0  0  0
    2.9340   12.8340  -12.0740 C   0  0  0  0  0  0  0  0  0  0  0  0
    3.8750   11.8680  -12.0020 N   0  0  0  0  0  0  0  0  0  0  0  0
    3.4480   10.7920  -12.6080 N   0  0  0  0  0  0  0  0  0  0  0  0
    2.1860   10.9710  -13.1430 C   0  0  0  0  0  0  0  0  0  0  0  0
    1.4760   10.0450  -13.9890 C   0  0  0  0  0  0  0  0  0  0  0  0
    1.6090    8.6150  -13.6720 N   0  0  0  0  0  0  0  0  0  0  0  0
    0.7600    7.8990  -14.6530 C   0  0  0  0  0  0  0  0  0  0  0  0
   -0.5020    7.7490  -13.9360 C   0  0  2  0  0  0  0  0  0  0  0  0
   -0.0150    7.1410  -12.6300 C   0  0  2  0  0  0  0  0  0  0  0  0
    1.1840    8.1610  -12.4180 C   0  0  0  0  0  0  0  0  0  0  0  0
    0.6760    5.8280  -12.8590 C   0  0  0  0  0  0  0  0  0  0  0  0
    1.0070    5.2510  -11.6040 O   0  0  0  0  0  0  0  0  0  0  0  0
   -1.5240    6.8480  -14.5830 C   0  0  0  0  0  0  0  0  0  0  0  0
   -2.8280    7.3140  -14.2260 N   0  0  0  0  0  0  0  0  0  0  0  0
   -2.8340    8.6900  -13.7760 C   0  0  0  0  0  0  0  0  0  0  0  0
   -3.7280    9.5910  -14.5960 C   0  0  0  0  0  0  0  0  0  0  0  0
   -5.0220    9.1380  -14.7140 O   0  0  0  0  0  0  0  0  0  0  0  0
   -5.1040    7.7510  -14.8000 C   0  0  0  0  0  0  0  0  0  0  0  0
   -3.7980    7.2070  -15.2910 C   0  0  0  0  0  0  0  0  0  0  0  0
    5.2190   12.0650  -11.4300 C   0  0  0  0  0  0  0  0  0  0  0  0
    2.8600   14.0800  -11.5290 C   0  0  0  0  0  0  0  0  0  0  0  0
    1.6920   14.8280  -11.7050 C   0  0  0  0  0  0  0  0  0  0  0  0
    0.6380   14.2790  -12.4270 C   0  0  0  0  0  0  0  0  0  0  0  0
    0.4990   10.2280  -14.3550 H   0  0  0  0  0  0  0  0  0  0  0  0
    2.1070   10.0500  -14.9870 H   0  0  0  0  0  0  0  0  0  0  0  0
    0.7680    8.3330  -15.6490 H   0  0  0  0  0  0  0  0  0  0  0  0
    1.2590    6.8970  -14.7970 H   0  0  0  0  0  0  0  0  0  0  0  0
   -1.0120    8.6610  -13.6600 H   0  0  0  0  0  0  0  0  0  0  0  0
   -0.7190    7.2220  -11.8300 H   0  0  0  0  0  0  0  0  0  0  0  0
    0.8120    8.8270  -11.6810 H   0  0  0  0  0  0  0  0  0  0  0  0
    1.9850    7.5160  -11.9160 H   0  0  0  0  0  0  0  0  0  0  0  0
    1.7320    6.0480  -13.2870 H   0  0  0  0  0  0  0  0  0  0  0  0
    0.2570    5.1070  -13.5080 H   0  0  0  0  0  0  0  0  0  0  0  0
    0.2310    4.6030  -11.3920 H   0  0  0  0  0  0  0  0  0  0  0  0
   -1.3980    6.9730  -15.6660 H   0  0  0  0  0  0  0  0  0  0  0  0
   -1.3650    5.7930  -14.3280 H   0  0  0  0  0  0  0  0  0  0  0  0
   -3.1310    8.7080  -12.7200 H   0  0  0  0  0  0  0  0  0  0  0  0
   -1.8010    9.1400  -13.8440 H   0  0  0  0  0  0  0  0  0  0  0  0
   -3.2290    9.7980  -15.5450 H   0  0  0  0  0  0  0  0  0  0  0  0
   -3.7780   10.5510  -14.0200 H   0  0  0  0  0  0  0  0  0  0  0  0
   -5.3350    7.3770  -13.7900 H   0  0  0  0  0  0  0  0  0  0  0  0
   -5.9320    7.4990  -15.5140 H   0  0  0  0  0  0  0  0  0  0  0  0
   -3.9000    6.1520  -15.6230 H   0  0  0  0  0  0  0  0  0  0  0  0
   -3.4310    7.8530  -16.1110 H   0  0  0  0  0  0  0  0  0  0  0  0
    5.6460   13.0220  -11.8990 H   0  0  0  0  0  0  0  0  0  0  0  0
    5.9190   11.2960  -11.7930 H   0  0  0  0  0  0  0  0  0  0  0  0
    5.1440   12.2610  -10.3860 H   0  0  0  0  0  0  0  0  0  0  0  0
    3.6370   14.5040  -10.8530 H   0  0  0  0  0  0  0  0  0  0  0  0
    1.5620   15.7780  -11.2640 H   0  0  0  0  0  0  0  0  0  0  0  0
   -0.2730   14.7990  -12.6060 H   0  0  0  0  0  0  0  0  0  0  0  0
  1  2  1  0  0  0  0
  2  3  2  0  0  0  0
  2 26  1  0  0  0  0
  3  4  1  0  0  0  0
  4  5  1  0  0  0  0
  4 24  2  0  0  0  0
  5 23  1  0  0  0  0
  6  5  1  0  0  0  0
  7  3  1  0  0  0  0
  7  6  2  0  0  0  0
  8  9  1  0  0  0  0
  8  7  1  0  0  0  0
  9 13  1  0  0  0  0
 10 11  1  0  0  0  0
 10  9  1  0  0  0  0
 11 31  1  1  0  0  0
 11 12  1  0  0  0  0
 12 13  1  0  0  0  0
 12 32  1  1  0  0  0
 13 34  1  0  0  0  0
 13 33  1  0  0  0  0
 14 12  1  0  0  0  0
 14 15  1  0  0  0  0
 15 37  1  0  0  0  0
 16 39  1  0  0  0  0
 16 17  1  0  0  0  0
 16 11  1  0  0  0  0
 17 18  1  0  0  0  0
 18 40  1  0  0  0  0
 19 43  1  0  0  0  0
 19 18  1  0  0  0  0
 20 19  1  0  0  0  0
 21 20  1  0  0  0  0
 21 44  1  0  0  0  0
 22 21  1  0  0  0  0
 22 17  1  0  0  0  0
 23 50  1  0  0  0  0
 24 51  1  0  0  0  0
 25 24  1  0  0  0  0
 25 52  1  0  0  0  0
 26 25  2  0  0  0  0
 27  8  1  0  0  0  0
 28  8  1  0  0  0  0
 29 10  1  0  0  0  0
 30 10  1  0  0  0  0
 35 14  1  0  0  0  0
 36 14  1  0  0  0  0
 38 16  1  0  0  0  0
 41 18  1  0  0  0  0
 42 19  1  0  0  0  0
 45 21  1  0  0  0  0
 46 22  1  0  0  0  0
 47 22  1  0  0  0  0
 48 23  1  0  0  0  0
 49 23  1  0  0  0  0
 53 26  1  0  0  0  0
M  END
>  <Pose>
1

>  <Score>
-5.82

$$$$
