
 OpenBabel03232203513D

 58 62  0  0  1  0  0  0  0  0999 V2000
    4.9810   12.7480  -11.5250 B   0  0  0  0  0  0  0  0  0  0  0  0
    3.3930   13.8040  -11.7970 C   0  0  0  0  0  0  0  0  0  0  0  0
    2.2770   13.6240  -11.0400 C   0  0  0  0  0  0  0  0  0  0  0  0
    1.1550   14.3750  -11.2370 C   0  0  0  0  0  0  0  0  0  0  0  0
    1.0880   15.3520  -12.2100 C   0  0  0  0  0  0  0  0  0  0  0  0
    2.1970   15.5330  -12.9640 C   0  0  0  0  0  0  0  0  0  0  0  0
    3.3690   14.7620  -12.7720 C   0  0  0  0  0  0  0  0  0  0  0  0
   -0.1430   16.0960  -12.3610 C   0  0  0  0  0  0  0  0  0  0  0  0
   -0.5670   17.0640  -11.4350 C   0  0  0  0  0  0  0  0  0  0  0  0
   -1.7130   17.5520  -11.8910 N   0  0  0  0  0  0  0  0  0  0  0  0
   -2.6540   18.4820  -11.5430 C   0  0  0  0  0  0  0  0  0  0  0  0
   -3.5930   18.4390  -12.5430 C   0  0  0  0  0  0  0  0  0  0  0  0
   -3.1980   17.5250  -13.4160 N   0  0  0  0  0  0  0  0  0  0  0  0
   -2.0220   16.9600  -13.0200 C   0  0  1  0  0  0  0  0  0  0  0  0
   -1.0580   16.0450  -13.3360 N   0  0  0  0  0  0  0  0  0  0  0  0
   -1.1370   15.2640  -14.5330 C   0  0  0  0  0  0  0  0  0  0  0  0
   -0.5590   13.9070  -14.4980 C   0  0  0  0  0  0  0  0  0  0  0  0
   -0.8810   13.0190  -13.3510 C   0  0  0  0  0  0  0  0  0  0  0  0
   -1.2270   11.6820  -13.7800 N   0  0  0  0  0  4  0  0  0  0  0  0
   -0.0880   10.8320  -13.9610 C   0  0  0  0  0  0  0  0  0  0  0  0
    1.2200   11.4180  -13.5090 C   0  0  0  0  0  0  0  0  0  0  0  0
    2.3160   10.6060  -14.2160 C   0  0  0  0  0  0  0  0  0  0  0  0
    2.2220    9.1900  -13.7640 C   0  0  0  0  0  0  0  0  0  0  0  0
    0.8430    8.5910  -13.9190 C   0  0  0  0  0  0  0  0  0  0  0  0
   -0.2100    9.4870  -13.2570 C   0  0  0  0  0  0  0  0  0  0  0  0
   -4.7180   19.2680  -12.5220 C   0  0  0  0  0  0  0  0  0  0  0  0
   -4.8970   20.1480  -11.4770 C   0  0  0  0  0  0  0  0  0  0  0  0
   -3.9410   20.1720  -10.4860 C   0  0  0  0  0  0  0  0  0  0  0  0
   -2.8190   19.3520  -10.5000 C   0  0  0  0  0  0  0  0  0  0  0  0
    2.2820   12.8560  -10.2500 H   0  0  0  0  0  0  0  0  0  0  0  0
    0.2810   14.1790  -10.5820 H   0  0  0  0  0  0  0  0  0  0  0  0
    2.3000   16.2320  -13.7460 H   0  0  0  0  0  0  0  0  0  0  0  0
    4.2460   14.9120  -13.3770 H   0  0  0  0  0  0  0  0  0  0  0  0
   -0.0590   17.3580  -10.5210 H   0  0  0  0  0  0  0  0  0  0  0  0
   -3.7310   17.3030  -14.2790 H   0  0  0  0  0  0  0  0  0  0  0  0
   -0.8400   15.8210  -15.4160 H   0  0  0  0  0  0  0  0  0  0  0  0
   -2.2740   15.0700  -14.7040 H   0  0  0  0  0  0  0  0  0  0  0  0
   -1.0000   13.3760  -15.4080 H   0  0  0  0  0  0  0  0  0  0  0  0
    0.5460   13.8650  -14.7490 H   0  0  0  0  0  0  0  0  0  0  0  0
   -1.7190   13.3850  -12.7230 H   0  0  0  0  0  0  0  0  0  0  0  0
    0.0680   12.9130  -12.7540 H   0  0  0  0  0  0  0  0  0  0  0  0
   -1.9770   11.2220  -13.2700 H   0  0  0  0  0  0  0  0  0  0  0  0
   -1.6390   11.8060  -14.7760 H   0  0  0  0  0  0  0  0  0  0  0  0
    0.0460   10.5590  -15.0510 H   0  0  0  0  0  0  0  0  0  0  0  0
    1.3320   12.4840  -13.7050 H   0  0  0  0  0  0  0  0  0  0  0  0
    1.3580   11.1850  -12.4150 H   0  0  0  0  0  0  0  0  0  0  0  0
    2.1700   10.6950  -15.3220 H   0  0  0  0  0  0  0  0  0  0  0  0
    3.3040   10.9980  -13.9160 H   0  0  0  0  0  0  0  0  0  0  0  0
    2.9080    8.5820  -14.3880 H   0  0  0  0  0  0  0  0  0  0  0  0
    2.5510    9.1210  -12.7110 H   0  0  0  0  0  0  0  0  0  0  0  0
    0.8500    7.6190  -13.4010 H   0  0  0  0  0  0  0  0  0  0  0  0
    0.6190    8.5060  -14.9840 H   0  0  0  0  0  0  0  0  0  0  0  0
    0.0500    9.5930  -12.1740 H   0  0  0  0  0  0  0  0  0  0  0  0
   -1.1970    9.0720  -13.4550 H   0  0  0  0  0  0  0  0  0  0  0  0
   -5.4600   19.2410  -13.3000 H   0  0  0  0  0  0  0  0  0  0  0  0
   -5.7690   20.8160  -11.4250 H   0  0  0  0  0  0  0  0  0  0  0  0
   -4.0800   20.8590   -9.6720 H   0  0  0  0  0  0  0  0  0  0  0  0
   -2.0770   19.3720   -9.7290 H   0  0  0  0  0  0  0  0  0  0  0  0
  2  1  1  0  0  0  0
  2  3  1  0  0  0  0
  3 30  1  0  0  0  0
  4  3  2  0  0  0  0
  4 31  1  0  0  0  0
  5  4  1  0  0  0  0
  6  7  1  0  0  0  0
  6  5  2  0  0  0  0
  7  2  2  0  0  0  0
  8  5  1  0  0  0  0
  8  9  2  0  0  0  0
  9 34  1  0  0  0  0
 10 11  1  0  0  0  0
 10  9  1  0  0  0  0
 11 29  1  0  0  0  0
 12 26  1  0  0  0  0
 12 11  2  0  0  0  0
 13 12  1  0  0  0  0
 14 13  1  6  0  0  0
 14 10  1  0  0  0  0
 15 14  1  0  0  0  0
 15  8  1  0  0  0  0
 16 17  1  0  0  0  0
 16 15  1  0  0  0  0
 17 18  1  0  0  0  0
 18 41  1  0  0  0  0
 18 40  1  0  0  0  0
 19 18  1  0  0  0  0
 19 42  1  0  0  0  0
 20 19  1  0  0  0  0
 20 21  1  0  0  0  0
 20 25  1  0  0  0  0
 21 46  1  0  0  0  0
 22 48  1  0  0  0  0
 22 23  1  0  0  0  0
 22 21  1  0  0  0  0
 23 50  1  0  0  0  0
 24 23  1  0  0  0  0
 24 51  1  0  0  0  0
 24 25  1  0  0  0  0
 25 53  1  0  0  0  0
 26 27  2  0  0  0  0
 27 56  1  0  0  0  0
 27 28  1  0  0  0  0
 28 57  1  0  0  0  0
 29 28  2  0  0  0  0
 29 58  1  0  0  0  0
 32  6  1  0  0  0  0
 33  7  1  0  0  0  0
 35 13  1  0  0  0  0
 36 16  1  0  0  0  0
 37 16  1  0  0  0  0
 38 17  1  0  0  0  0
 39 17  1  0  0  0  0
 43 19  1  0  0  0  0
 44 20  1  0  0  0  0
 45 21  1  0  0  0  0
 47 22  1  0  0  0  0
 49 23  1  0  0  0  0
 52 24  1  0  0  0  0
 54 25  1  0  0  0  0
 55 26  1  0  0  0  0
M  END
>  <Pose>
1

>  <Score>
-5.39

$$$$
