
 OpenBabel03232203513D

 55 59  0  0  1  0  0  0  0  0999 V2000
    6.1210    5.6670  -13.1690 B   0  0  0  0  0  0  0  0  0  0  0  0
    4.4240    6.5070  -13.2770 C   0  0  0  0  0  0  0  0  0  0  0  0
    3.3360    6.0170  -12.6150 C   0  0  0  0  0  0  0  0  0  0  0  0
    2.1150    6.6550  -12.7170 C   0  0  0  0  0  0  0  0  0  0  0  0
    1.9050    7.8080  -13.4730 C   0  0  0  0  0  0  0  0  0  0  0  0
    2.9970    8.2870  -14.1270 C   0  0  0  0  0  0  0  0  0  0  0  0
    4.2510    7.6370  -14.0280 C   0  0  0  0  0  0  0  0  0  0  0  0
    0.5540    8.3800  -13.5070 C   0  0  0  0  0  0  0  0  0  0  0  0
   -0.5400    7.6630  -14.0230 C   0  0  0  0  0  0  0  0  0  0  0  0
   -1.6380    8.4080  -13.9120 N   0  0  0  0  0  0  0  0  0  0  0  0
   -2.9730    8.4030  -14.1600 C   0  0  0  0  0  0  0  0  0  0  0  0
   -3.4520    9.5950  -13.7330 C   0  0  0  0  0  0  0  0  0  0  0  0
   -2.4130   10.2860  -13.2430 N   0  0  0  0  0  0  0  0  0  0  0  0
   -1.2760    9.5620  -13.3480 C   0  0  1  0  0  0  0  0  0  0  0  0
    0.0730    9.5610  -13.0930 N   0  0  0  0  0  0  0  0  0  0  0  0
    0.7650   10.6420  -12.4720 C   0  0  0  0  0  0  0  0  0  0  0  0
    0.9470   11.8730  -13.3220 C   0  0  0  0  0  0  0  0  0  0  0  0
   -0.1500   12.8400  -13.3370 C   0  0  0  0  0  0  0  0  0  0  0  0
   -0.3090   13.7500  -12.2410 N   0  0  0  0  0  4  0  0  0  0  0  0
    0.6880   13.5510  -11.2040 C   0  0  0  0  0  0  0  0  0  0  0  0
    1.9480   14.2900  -11.3610 C   0  0  0  0  0  0  0  0  0  0  0  0
    1.9760   15.3520  -12.3960 C   0  0  0  0  0  0  0  0  0  0  0  0
    0.6510   16.0160  -12.5240 C   0  0  0  0  0  0  0  0  0  0  0  0
   -0.5180   15.1070  -12.6040 C   0  0  0  0  0  0  0  0  0  0  0  0
   -4.7970    9.8960  -13.8510 C   0  0  0  0  0  0  0  0  0  0  0  0
   -5.6800    8.9850  -14.4070 C   0  0  0  0  0  0  0  0  0  0  0  0
   -5.1890    7.7620  -14.8450 C   0  0  0  0  0  0  0  0  0  0  0  0
   -3.8440    7.4970  -14.7120 C   0  0  0  0  0  0  0  0  0  0  0  0
    3.4620    5.1250  -12.0190 H   0  0  0  0  0  0  0  0  0  0  0  0
    1.2860    6.2190  -12.1650 H   0  0  0  0  0  0  0  0  0  0  0  0
    2.9460    9.1490  -14.7310 H   0  0  0  0  0  0  0  0  0  0  0  0
    5.0860    8.0530  -14.5620 H   0  0  0  0  0  0  0  0  0  0  0  0
   -0.5590    6.6760  -14.4520 H   0  0  0  0  0  0  0  0  0  0  0  0
   -2.4640   11.2520  -12.8250 H   0  0  0  0  0  0  0  0  0  0  0  0
    1.6910   10.3470  -11.9600 H   0  0  0  0  0  0  0  0  0  0  0  0
    0.0980   10.9230  -11.5730 H   0  0  0  0  0  0  0  0  0  0  0  0
    1.0280   11.4770  -14.3890 H   0  0  0  0  0  0  0  0  0  0  0  0
    1.9640   12.3200  -13.1840 H   0  0  0  0  0  0  0  0  0  0  0  0
   -1.1160   12.2500  -13.3740 H   0  0  0  0  0  0  0  0  0  0  0  0
   -0.1700   13.3870  -14.3270 H   0  0  0  0  0  0  0  0  0  0  0  0
   -1.1820   13.4330  -11.7640 H   0  0  0  0  0  0  0  0  0  0  0  0
    0.2910   13.7390  -10.1820 H   0  0  0  0  0  0  0  0  0  0  0  0
    0.8850   12.4360  -11.2120 H   0  0  0  0  0  0  0  0  0  0  0  0
    2.7880   13.5720  -11.6060 H   0  0  0  0  0  0  0  0  0  0  0  0
    2.2920   14.7510  -10.3870 H   0  0  0  0  0  0  0  0  0  0  0  0
    2.7320   16.1160  -12.1170 H   0  0  0  0  0  0  0  0  0  0  0  0
    2.3510   14.9450  -13.3830 H   0  0  0  0  0  0  0  0  0  0  0  0
    0.6910   16.6780  -13.4290 H   0  0  0  0  0  0  0  0  0  0  0  0
    0.5490   16.7360  -11.6650 H   0  0  0  0  0  0  0  0  0  0  0  0
   -0.9020   15.1040  -13.6660 H   0  0  0  0  0  0  0  0  0  0  0  0
   -1.3530   15.5910  -12.0260 H   0  0  0  0  0  0  0  0  0  0  0  0
   -5.1820   10.8470  -13.5120 H   0  0  0  0  0  0  0  0  0  0  0  0
   -6.7390    9.1940  -14.5120 H   0  0  0  0  0  0  0  0  0  0  0  0
   -5.8980    7.0740  -15.2730 H   0  0  0  0  0  0  0  0  0  0  0  0
   -3.4750    6.5560  -15.0500 H   0  0  0  0  0  0  0  0  0  0  0  0
  2  1  1  0  0  0  0
  2  3  1  0  0  0  0
  3 29  1  0  0  0  0
  4  3  2  0  0  0  0
  4 30  1  0  0  0  0
  5  4  1  0  0  0  0
  6  7  1  0  0  0  0
  6  5  2  0  0  0  0
  7  2  2  0  0  0  0
  8  5  1  0  0  0  0
  8 15  1  0  0  0  0
  9 10  1  0  0  0  0
  9  8  2  0  0  0  0
 11 10  1  0  0  0  0
 11 12  1  0  0  0  0
 12 13  1  0  0  0  0
 13 34  1  0  0  0  0
 14 10  1  1  0  0  0
 14 13  1  0  0  0  0
 14 15  1  0  0  0  0
 15 16  1  0  0  0  0
 16 35  1  0  0  0  0
 16 36  1  0  0  0  0
 17 38  1  0  0  0  0
 17 16  1  0  0  0  0
 18 17  1  0  0  0  0
 18 19  1  0  0  0  0
 19 41  1  0  0  0  0
 19 20  1  0  0  0  0
 20 42  1  0  0  0  0
 21 20  1  0  0  0  0
 21 45  1  0  0  0  0
 22 46  1  0  0  0  0
 22 21  1  0  0  0  0
 23 22  1  0  0  0  0
 23 49  1  0  0  0  0
 24 23  1  0  0  0  0
 24 19  1  0  0  0  0
 24 51  1  0  0  0  0
 25 12  2  0  0  0  0
 25 52  1  0  0  0  0
 26 25  1  0  0  0  0
 27 28  1  0  0  0  0
 27 26  2  0  0  0  0
 28 11  2  0  0  0  0
 31  6  1  0  0  0  0
 32  7  1  0  0  0  0
 33  9  1  0  0  0  0
 37 17  1  0  0  0  0
 39 18  1  0  0  0  0
 40 18  1  0  0  0  0
 43 20  1  0  0  0  0
 44 21  1  0  0  0  0
 47 22  1  0  0  0  0
 48 23  1  0  0  0  0
 50 24  1  0  0  0  0
 53 26  1  0  0  0  0
 54 27  1  0  0  0  0
 55 28  1  0  0  0  0
M  END
>  <Pose>
1

>  <Score>
-5.66

$$$$
