
 OpenBabel03222202113D

 50 53  0  0  0  0  0  0  0  0999 V2000
   17.1940   80.6520    9.2300 B   0  0  0  0  0  0  0  0  0  0  0  0
   18.6560   79.4230    9.4250 C   0  0  0  0  0  0  0  0  0  0  0  0
   18.5650   78.1880    8.8110 C   0  0  0  0  0  0  0  0  0  0  0  0
   19.6250   77.3220    8.9630 C   0  0  0  0  0  0  0  0  0  0  0  0
   20.7340   77.6890    9.7060 C   0  0  0  0  0  0  0  0  0  0  0  0
   20.8300   78.9210   10.3210 C   0  0  0  0  0  0  0  0  0  0  0  0
   19.7640   79.7820   10.1650 C   0  0  0  0  0  0  0  0  0  0  0  0
   19.8650   81.0370   10.7930 O   0  0  0  0  0  0  0  0  0  0  0  0
   22.0020   79.3190   11.1120 C   0  0  0  0  0  0  0  0  0  0  0  0
   21.9050   79.7570   12.3110 N   0  0  0  0  0  0  0  0  0  0  0  0
   23.0820   80.1330   13.0460 N   0  0  0  0  0  0  0  0  0  0  0  0
   22.8720   80.7920   14.2630 C   0  0  0  0  0  0  0  0  0  0  0  0
   23.4060   81.9790   14.3590 O   0  0  0  0  0  0  0  0  0  0  0  0
   22.1510   80.3710   15.4410 C   0  0  0  0  0  0  0  0  0  0  0  0
   21.4390   81.2500   16.2280 N   0  0  0  0  0  0  0  0  0  0  0  0
   20.9180   80.5760   17.2020 N   0  0  0  0  0  0  0  0  0  0  0  0
   21.2670   79.2650   17.0820 N   0  0  0  0  0  0  0  0  0  0  0  0
   22.0310   79.1070   16.0020 C   0  0  0  0  0  0  0  0  0  0  0  0
   22.6420   77.8860   15.4770 C   0  0  0  0  0  0  0  0  0  0  0  0
   23.5510   77.1550   16.2770 N   0  0  0  0  0  4  0  0  0  0  0  0
   24.4070   77.9990   17.0970 C   0  0  0  0  0  0  0  0  0  0  0  0
   25.0710   79.0390   16.2870 C   0  0  0  0  0  0  0  0  0  0  0  0
   25.4140   78.8000   15.0200 O   0  0  0  0  0  0  0  0  0  0  0  0
   25.1000   77.6080   14.4520 C   0  0  0  0  0  0  0  0  0  0  0  0
   24.5550   76.5610   15.3360 C   0  0  0  0  0  0  0  0  0  0  0  0
   20.7980   78.3200   18.0460 C   0  0  0  0  0  0  0  0  0  0  0  0
   21.4330   77.4290   18.7960 N   0  0  0  0  0  0  0  0  0  0  0  0
   20.5510   76.8390   19.5340 O   0  0  0  0  0  0  0  0  0  0  0  0
   19.3570   77.2930   19.3120 N   0  0  0  0  0  0  0  0  0  0  0  0
   19.4370   78.2340   18.3820 C   0  0  0  0  0  0  0  0  0  0  0  0
   18.4080   79.0220   17.8050 N   0  0  0  0  0  0  0  0  0  0  0  0
   19.4950   75.6150    8.1110 B   0  0  0  0  0  0  0  0  0  0  0  0
   17.4310   77.8520    8.0680 O   0  0  0  0  0  0  0  0  0  0  0  0
   21.5650   76.9900    9.8160 H   0  0  0  0  0  0  0  0  0  0  0  0
   20.1960   81.0890   11.7440 H   0  0  0  0  0  0  0  0  0  0  0  0
   22.9680   79.2410   10.6780 H   0  0  0  0  0  0  0  0  0  0  0  0
   23.9790   79.9010   12.6530 H   0  0  0  0  0  0  0  0  0  0  0  0
   23.1120   78.0770   14.4530 H   0  0  0  0  0  0  0  0  0  0  0  0
   21.7910   77.1670   15.2490 H   0  0  0  0  0  0  0  0  0  0  0  0
   23.1170   76.4050   16.7940 H   0  0  0  0  0  0  0  0  0  0  0  0
   25.2090   77.3050   17.4870 H   0  0  0  0  0  0  0  0  0  0  0  0
   23.9240   78.4400   17.9650 H   0  0  0  0  0  0  0  0  0  0  0  0
   25.9990   79.3550   16.8520 H   0  0  0  0  0  0  0  0  0  0  0  0
   24.4310   79.9700   16.3290 H   0  0  0  0  0  0  0  0  0  0  0  0
   24.4070   77.7830   13.6050 H   0  0  0  0  0  0  0  0  0  0  0  0
   26.0380   77.2000   13.9770 H   0  0  0  0  0  0  0  0  0  0  0  0
   25.3020   76.0680   15.9720 H   0  0  0  0  0  0  0  0  0  0  0  0
   23.9940   75.7990   14.7780 H   0  0  0  0  0  0  0  0  0  0  0  0
   17.7160   78.5750   17.1690 H   0  0  0  0  0  0  0  0  0  0  0  0
   18.3110   80.0610   17.9950 H   0  0  0  0  0  0  0  0  0  0  0  0
  1  2  1  0  0  0  0
  2  7  1  0  0  0  0
  3  4  1  0  0  0  0
  3  2  2  0  0  0  0
  4  5  2  0  0  0  0
  5 34  1  0  0  0  0
  5  6  1  0  0  0  0
  6  9  1  0  0  0  0
  7  6  2  0  0  0  0
  7  8  1  0  0  0  0
  8 35  1  0  0  0  0
  9 10  2  0  0  0  0
 10 11  1  0  0  0  0
 11 12  1  0  0  0  0
 12 13  2  0  0  0  0
 12 14  1  0  0  0  0
 14 18  2  0  0  0  0
 14 15  1  0  0  0  0
 15 16  2  0  0  0  0
 17 16  1  0  0  0  0
 17 26  1  0  0  0  0
 18 17  1  0  0  0  0
 19 18  1  0  0  0  0
 19 20  1  0  0  0  0
 20 40  1  0  0  0  0
 20 21  1  0  0  0  0
 21 41  1  0  0  0  0
 21 42  1  0  0  0  0
 22 44  1  0  0  0  0
 22 43  1  0  0  0  0
 22 21  1  0  0  0  0
 23 22  1  0  0  0  0
 24 23  1  0  0  0  0
 24 25  1  0  0  0  0
 25 47  1  0  0  0  0
 25 20  1  0  0  0  0
 26 30  1  0  0  0  0
 26 27  2  0  0  0  0
 27 28  1  0  0  0  0
 29 28  1  0  0  0  0
 30 29  2  0  0  0  0
 31 50  1  0  0  0  0
 31 30  1  0  0  0  0
 32  4  1  0  0  0  0
 33  3  1  0  0  0  0
 36  9  1  0  0  0  0
 37 11  1  0  0  0  0
 38 19  1  0  0  0  0
 39 19  1  0  0  0  0
 45 24  1  0  0  0  0
 46 24  1  0  0  0  0
 48 25  1  0  0  0  0
 49 31  1  0  0  0  0
M  END
>  <Pose>
1

>  <Score>
-8.07

$$$$
