
 OpenBabel03162216093D

 50 53  0  0  0  0  0  0  0  0999 V2000
   25.6610   78.6680   16.4880 B   0  0  0  0  0  0  0  0  0  0  0  0
   23.8880   78.3170   15.9230 C   0  0  0  0  0  0  0  0  0  0  0  0
   22.9480   77.9190   16.8290 C   0  0  0  0  0  0  0  0  0  0  0  0
   21.6540   77.6680   16.3820 C   0  0  0  0  0  0  0  0  0  0  0  0
   21.3480   77.8240   15.0340 C   0  0  0  0  0  0  0  0  0  0  0  0
   22.2850   78.2230   14.1180 C   0  0  0  0  0  0  0  0  0  0  0  0
   23.5620   78.4680   14.5740 C   0  0  0  0  0  0  0  0  0  0  0  0
   24.5020   78.8710   13.6380 O   0  0  0  0  0  0  0  0  0  0  0  0
   21.9460   78.3800   12.7130 C   0  0  0  0  0  0  0  0  0  0  0  0
   21.5750   79.4950   12.1910 N   0  0  0  0  0  0  0  0  0  0  0  0
   21.2630   79.5430   10.7900 N   0  0  0  0  0  0  0  0  0  0  0  0
   20.0170   79.0710   10.4020 C   0  0  0  0  0  0  0  0  0  0  0  0
   19.0310   79.3330   11.1880 O   0  0  0  0  0  0  0  0  0  0  0  0
   19.6550   78.3100    9.2200 C   0  0  0  0  0  0  0  0  0  0  0  0
   19.4550   78.8380    7.9700 N   0  0  0  0  0  0  0  0  0  0  0  0
   19.1480   77.8800    7.1390 N   0  0  0  0  0  0  0  0  0  0  0  0
   19.1220   76.7060    7.7450 N   0  0  0  0  0  0  0  0  0  0  0  0
   19.4330   76.9420    9.0310 C   0  0  0  0  0  0  0  0  0  0  0  0
   19.5010   75.9580   10.1150 C   0  0  0  0  0  0  0  0  0  0  0  0
   18.3470   75.0570   10.1860 N   0  0  0  0  0  0  0  0  0  0  0  0
   17.2560   75.7510   10.8980 C   0  0  0  0  0  0  0  0  0  0  0  0
   17.7850   76.3870   12.1360 C   0  0  0  0  0  0  0  0  0  0  0  0
   18.4380   75.4480   12.8950 O   0  0  0  0  0  0  0  0  0  0  0  0
   18.2780   74.1580   12.4610 C   0  0  0  0  0  0  0  0  0  0  0  0
   18.7180   73.9060   11.0430 C   0  0  0  0  0  0  0  0  0  0  0  0
   18.7880   75.4890    7.1010 C   0  0  0  0  0  0  0  0  0  0  0  0
   19.3270   74.2610    7.2550 N   0  0  0  0  0  0  0  0  0  0  0  0
   18.7170   73.4090    6.4750 O   0  0  0  0  0  0  0  0  0  0  0  0
   17.7770   74.0090    5.7910 N   0  0  0  0  0  0  0  0  0  0  0  0
   17.7920   75.3020    6.1550 C   0  0  0  0  0  0  0  0  0  0  0  0
   16.9200   76.2830    5.6360 N   0  0  0  0  0  0  0  0  0  0  0  0
   20.3250   77.1150   17.6160 B   0  0  0  0  0  0  0  0  0  0  0  0
   23.2320   77.7580   18.1770 O   0  0  0  0  0  0  0  0  0  0  0  0
   20.3530   77.6310   14.6910 H   0  0  0  0  0  0  0  0  0  0  0  0
   24.3250   79.6780   13.0540 H   0  0  0  0  0  0  0  0  0  0  0  0
   22.0020   77.5200   12.0500 H   0  0  0  0  0  0  0  0  0  0  0  0
   22.0140   79.9340   10.1730 H   0  0  0  0  0  0  0  0  0  0  0  0
   19.5790   76.4350   11.0950 H   0  0  0  0  0  0  0  0  0  0  0  0
   20.3630   75.2950    9.9570 H   0  0  0  0  0  0  0  0  0  0  0  0
   16.7420   76.4610   10.2320 H   0  0  0  0  0  0  0  0  0  0  0  0
   16.5300   74.9650   11.1750 H   0  0  0  0  0  0  0  0  0  0  0  0
   18.4630   77.2360   11.9430 H   0  0  0  0  0  0  0  0  0  0  0  0
   16.9040   76.7330   12.7530 H   0  0  0  0  0  0  0  0  0  0  0  0
   18.9590   73.5270   13.1090 H   0  0  0  0  0  0  0  0  0  0  0  0
   17.2480   73.7950   12.6630 H   0  0  0  0  0  0  0  0  0  0  0  0
   18.1430   73.0420   10.6840 H   0  0  0  0  0  0  0  0  0  0  0  0
   19.7840   73.7030   11.0270 H   0  0  0  0  0  0  0  0  0  0  0  0
   15.9180   76.2520    5.9000 H   0  0  0  0  0  0  0  0  0  0  0  0
   17.2400   77.0350    5.0000 H   0  0  0  0  0  0  0  0  0  0  0  0
   23.9980   77.1790   18.4810 H   0  0  0  0  0  0  0  0  0  0  0  0
  2  1  1  0  0  0  0
  2  3  1  0  0  0  0
  3 33  1  0  0  0  0
  4  3  2  0  0  0  0
  4 32  1  0  0  0  0
  5  4  1  0  0  0  0
  6  7  1  0  0  0  0
  6  5  2  0  0  0  0
  7  2  2  0  0  0  0
  8  7  1  0  0  0  0
  9  6  1  0  0  0  0
 10  9  2  0  0  0  0
 11 10  1  0  0  0  0
 12 11  1  0  0  0  0
 12 13  2  0  0  0  0
 14 12  1  0  0  0  0
 15 14  1  0  0  0  0
 16 17  1  0  0  0  0
 16 15  2  0  0  0  0
 17 18  1  0  0  0  0
 18 14  2  0  0  0  0
 18 19  1  0  0  0  0
 19 20  1  0  0  0  0
 19 38  1  0  0  0  0
 20 21  1  0  0  0  0
 20 25  1  0  0  0  0
 21 41  1  0  0  0  0
 21 22  1  0  0  0  0
 22 43  1  0  0  0  0
 22 23  1  0  0  0  0
 24 45  1  0  0  0  0
 24 23  1  0  0  0  0
 24 44  1  0  0  0  0
 25 24  1  0  0  0  0
 26 27  2  0  0  0  0
 26 17  1  0  0  0  0
 28 27  1  0  0  0  0
 29 30  2  0  0  0  0
 29 28  1  0  0  0  0
 30 26  1  0  0  0  0
 31 48  1  0  0  0  0
 31 30  1  0  0  0  0
 33 50  1  0  0  0  0
 34  5  1  0  0  0  0
 35  8  1  0  0  0  0
 36  9  1  0  0  0  0
 37 11  1  0  0  0  0
 39 19  1  0  0  0  0
 40 21  1  0  0  0  0
 42 22  1  0  0  0  0
 46 25  1  0  0  0  0
 47 25  1  0  0  0  0
 49 31  1  0  0  0  0
M  END
>  <Pose>
1

>  <Score>
-8.38

$$$$
