
 OpenBabel03222202113D

 52 55  0  0  0  0  0  0  0  0999 V2000
   17.7460   74.5620    5.5320 B   0  0  0  0  0  0  0  0  0  0  0  0
   17.7710   76.1880    6.5350 C   0  0  0  0  0  0  0  0  0  0  0  0
   16.7680   77.1060    6.2920 C   0  0  0  0  0  0  0  0  0  0  0  0
   16.7800   78.2800    7.0120 C   0  0  0  0  0  0  0  0  0  0  0  0
   17.7620   78.5400    7.9510 C   0  0  0  0  0  0  0  0  0  0  0  0
   18.7640   77.6330    8.2000 C   0  0  0  0  0  0  0  0  0  0  0  0
   18.7500   76.4570    7.4780 C   0  0  0  0  0  0  0  0  0  0  0  0
   19.7420   75.5350    7.7110 O   0  0  0  0  0  0  0  0  0  0  0  0
   19.7830   77.9320    9.1930 C   0  0  0  0  0  0  0  0  0  0  0  0
   19.5400   78.1590   10.4230 N   0  0  0  0  0  0  0  0  0  0  0  0
   20.5450   78.4460   11.3670 N   0  0  0  0  0  0  0  0  0  0  0  0
   20.6230   77.6670   12.5530 C   0  0  0  0  0  0  0  0  0  0  0  0
   21.5170   77.9470   13.4990 N   0  0  0  0  0  4  0  0  0  0  0  0
   21.6230   77.2230   14.6500 C   0  0  0  0  0  0  0  0  0  0  0  0
   20.7750   76.2060   14.7820 N   0  0  0  0  0  0  0  0  0  0  0  0
   19.8390   75.8510   13.8730 C   0  0  0  0  0  0  0  0  0  0  0  0
   19.8010   76.6300   12.7500 N   0  0  0  0  0  0  0  0  0  0  0  0
   18.9630   74.7660   14.0560 N   0  0  0  0  0  0  0  0  0  0  0  0
   18.9450   74.0390   15.2870 C   0  0  0  0  0  0  0  0  0  0  0  0
   19.0750   72.5540   14.9350 C   0  0  0  0  0  0  0  0  0  0  0  0
   19.2480   72.3570   13.5820 O   0  0  0  0  0  0  0  0  0  0  0  0
   18.2470   72.8750   12.7990 C   0  0  0  0  0  0  0  0  0  0  0  0
   18.0730   74.3750   13.0060 C   0  0  0  0  0  0  0  0  0  0  0  0
   22.5780   77.5380   15.6400 N   0  0  0  0  0  0  0  0  0  0  0  0
   22.1820   78.2270   16.8360 C   0  0  0  0  0  0  0  0  0  0  0  0
   23.1820   79.3510   17.0600 C   0  0  0  0  0  0  0  0  0  0  0  0
   24.4940   78.9170   16.9200 O   0  0  0  0  0  0  0  0  0  0  0  0
   24.7820   78.4390   15.6620 C   0  0  0  0  0  0  0  0  0  0  0  0
   23.9520   77.1660   15.4520 C   0  0  0  0  0  0  0  0  0  0  0  0
   15.3960   79.5620    6.6840 B   0  0  0  0  0  0  0  0  0  0  0  0
   15.7880   76.8270    5.3410 O   0  0  0  0  0  0  0  0  0  0  0  0
   17.7560   79.4800    8.5150 H   0  0  0  0  0  0  0  0  0  0  0  0
   19.7520   74.6400    7.2120 H   0  0  0  0  0  0  0  0  0  0  0  0
   20.8110   77.9660    8.8730 H   0  0  0  0  0  0  0  0  0  0  0  0
   21.1800   79.2190   11.1400 H   0  0  0  0  0  0  0  0  0  0  0  0
   17.9310   74.1550   15.7370 H   0  0  0  0  0  0  0  0  0  0  0  0
   19.7460   74.3690   15.9710 H   0  0  0  0  0  0  0  0  0  0  0  0
   18.2530   71.9590   15.3450 H   0  0  0  0  0  0  0  0  0  0  0  0
   20.0100   72.1940   15.4380 H   0  0  0  0  0  0  0  0  0  0  0  0
   17.2820   72.3410   12.9280 H   0  0  0  0  0  0  0  0  0  0  0  0
   18.5410   72.7340   11.7380 H   0  0  0  0  0  0  0  0  0  0  0  0
   18.2810   74.9470   12.0790 H   0  0  0  0  0  0  0  0  0  0  0  0
   17.0050   74.5560   13.2450 H   0  0  0  0  0  0  0  0  0  0  0  0
   21.1820   78.7240   16.7440 H   0  0  0  0  0  0  0  0  0  0  0  0
   22.2300   77.5700   17.7280 H   0  0  0  0  0  0  0  0  0  0  0  0
   22.9510   80.1930   16.3850 H   0  0  0  0  0  0  0  0  0  0  0  0
   23.0660   79.7090   18.1060 H   0  0  0  0  0  0  0  0  0  0  0  0
   24.4290   79.1630   14.9060 H   0  0  0  0  0  0  0  0  0  0  0  0
   25.8560   78.2310   15.6020 H   0  0  0  0  0  0  0  0  0  0  0  0
   24.2380   76.4910   16.3020 H   0  0  0  0  0  0  0  0  0  0  0  0
   24.1520   76.7140   14.4680 H   0  0  0  0  0  0  0  0  0  0  0  0
   15.2240   75.9990    5.4380 H   0  0  0  0  0  0  0  0  0  0  0  0
  1  2  1  0  0  0  0
  2  7  1  0  0  0  0
  3  2  2  0  0  0  0
  3  4  1  0  0  0  0
  4  5  2  0  0  0  0
  5  6  1  0  0  0  0
  5 32  1  0  0  0  0
  6  9  1  0  0  0  0
  7  8  1  0  0  0  0
  7  6  2  0  0  0  0
  9 10  2  0  0  0  0
 10 11  1  0  0  0  0
 11 12  1  0  0  0  0
 12 17  1  0  0  0  0
 12 13  2  0  0  0  0
 13 14  2  0  0  0  0
 14 15  1  0  0  0  0
 14 24  1  0  0  0  0
 16 18  1  0  0  0  0
 16 15  2  0  0  0  0
 17 16  1  0  0  0  0
 18 19  1  0  0  0  0
 19 36  1  0  0  0  0
 19 37  1  0  0  0  0
 20 19  1  0  0  0  0
 20 38  1  0  0  0  0
 20 39  1  0  0  0  0
 21 20  1  0  0  0  0
 22 40  1  0  0  0  0
 22 23  1  0  0  0  0
 22 21  1  0  0  0  0
 23 43  1  0  0  0  0
 23 18  1  0  0  0  0
 24 25  1  0  0  0  0
 25 26  1  0  0  0  0
 25 45  1  0  0  0  0
 26 47  1  0  0  0  0
 27 26  1  0  0  0  0
 28 27  1  0  0  0  0
 29 24  1  0  0  0  0
 29 28  1  0  0  0  0
 29 50  1  0  0  0  0
 30  4  1  0  0  0  0
 31 52  1  0  0  0  0
 31  3  1  0  0  0  0
 33  8  1  0  0  0  0
 34  9  1  0  0  0  0
 35 11  1  0  0  0  0
 41 22  1  0  0  0  0
 42 23  1  0  0  0  0
 44 25  1  0  0  0  0
 46 26  1  0  0  0  0
 48 28  1  0  0  0  0
 49 28  1  0  0  0  0
 51 29  1  0  0  0  0
M  END
>  <Pose>
1

>  <Score>
-7.35

$$$$
