
 OpenBabel03222202113D

 60 63  0  0  1  0  0  0  0  0999 V2000
   19.1970   79.4040   19.6780 B   0  0  0  0  0  0  0  0  0  0  0  0
   19.5820   81.2410   19.3060 C   0  0  0  0  0  0  0  0  0  0  0  0
   20.2780   81.5340   18.1230 C   0  0  0  0  0  0  0  0  0  0  0  0
   20.5430   82.8410   17.8740 C   0  0  0  0  0  0  0  0  0  0  0  0
   20.1490   83.8640   18.7460 C   0  0  0  0  0  0  0  0  0  0  0  0
   19.4680   83.5510   19.9000 C   0  0  0  0  0  0  0  0  0  0  0  0
   19.1880   82.2290   20.1720 C   0  0  0  0  0  0  0  0  0  0  0  0
   18.8820   84.8550   21.1590 B   0  0  0  0  0  0  0  0  0  0  0  0
   21.4520   83.3660   16.3100 B   0  0  0  0  0  0  0  0  0  0  0  0
   20.6410   80.5210   17.3060 O   0  0  0  0  0  0  0  0  0  0  0  0
   21.8750   79.8080   17.3360 C   0  0  0  0  0  0  0  0  0  0  0  0
   21.7220   78.4860   16.7120 C   0  0  1  0  0  0  0  0  0  0  0  0
   20.3570   78.1620   16.8090 O   0  0  0  0  0  0  0  0  0  0  0  0
   22.4760   77.9960   15.5700 C   0  0  0  0  0  0  0  0  0  0  0  0
   22.0100   78.1240   14.2350 N   0  0  0  0  0  0  0  0  0  0  0  0
   22.1970   79.2020   13.4280 C   0  0  0  0  0  0  0  0  0  0  0  0
   21.6110   78.9700   12.2130 C   0  0  0  0  0  0  0  0  0  0  0  0
   21.0820   77.7670   12.3050 N   0  0  0  0  0  0  0  0  0  0  0  0
   21.3030   77.2190   13.5320 C   0  0  0  0  0  0  0  0  0  0  0  0
   20.7260   75.9600   13.9230 N   0  0  0  0  0  0  0  0  0  0  0  0
   21.3470   74.9110   14.6360 C   0  0  0  0  0  0  0  0  0  0  0  0
   20.2760   73.8150   14.8880 C   0  0  0  0  0  0  0  0  0  0  0  0
   19.8930   73.3650   13.5640 N   0  0  0  0  0  4  0  0  0  0  0  0
   18.9460   74.4060   13.1190 C   0  0  0  0  0  0  0  0  0  0  0  0
   19.3120   75.7600   13.5790 C   0  0  0  0  0  0  0  0  0  0  0  0
   19.2200   72.0820   13.6080 C   0  0  0  0  0  0  0  0  0  0  0  0
   18.2920   71.9780   12.4170 C   0  0  0  0  0  0  0  0  0  0  0  0
   18.1820   70.6330   12.0410 O   0  0  0  0  0  0  0  0  0  0  0  0
   21.6030   79.8630   11.1760 N   0  0  0  0  0  0  0  0  0  0  0  0
   22.2120   81.0350   11.3920 C   0  0  0  0  0  0  0  0  0  0  0  0
   22.2040   81.8570   10.4330 O   0  0  0  0  0  0  0  0  0  0  0  0
   22.8000   81.3140   12.5710 N   0  0  0  0  0  0  0  0  0  0  0  0
   22.8160   80.4470   13.5960 C   0  0  0  0  0  0  0  0  0  0  0  0
   23.4190   80.7590   14.7930 O   0  0  0  0  0  0  0  0  0  0  0  0
   20.9560   79.5040    9.9220 C   0  0  0  0  0  0  0  0  0  0  0  0
   20.3710   84.8880   18.5260 H   0  0  0  0  0  0  0  0  0  0  0  0
   18.6460   81.9400   21.0820 H   0  0  0  0  0  0  0  0  0  0  0  0
   22.0000   79.6070   18.4570 H   0  0  0  0  0  0  0  0  0  0  0  0
   22.7480   80.3970   17.0920 H   0  0  0  0  0  0  0  0  0  0  0  0
   22.1110   77.7520   17.6050 H   0  0  0  0  0  0  0  0  0  0  0  0
   19.8300   78.5840   16.1070 H   0  0  0  0  0  0  0  0  0  0  0  0
   23.5910   78.2230   15.6510 H   0  0  0  0  0  0  0  0  0  0  0  0
   22.5530   76.8540   15.7840 H   0  0  0  0  0  0  0  0  0  0  0  0
   21.6280   75.1810   15.6860 H   0  0  0  0  0  0  0  0  0  0  0  0
   22.1170   74.3670   14.0820 H   0  0  0  0  0  0  0  0  0  0  0  0
   19.4090   74.2480   15.4220 H   0  0  0  0  0  0  0  0  0  0  0  0
   20.6870   72.9650   15.4340 H   0  0  0  0  0  0  0  0  0  0  0  0
   20.6720   73.3830   12.8720 H   0  0  0  0  0  0  0  0  0  0  0  0
   18.6640   74.2940   12.0690 H   0  0  0  0  0  0  0  0  0  0  0  0
   18.0000   74.1280   13.6870 H   0  0  0  0  0  0  0  0  0  0  0  0
   19.0360   76.4880   12.7940 H   0  0  0  0  0  0  0  0  0  0  0  0
   18.7620   76.0860   14.4960 H   0  0  0  0  0  0  0  0  0  0  0  0
   18.5830   71.9900   14.5260 H   0  0  0  0  0  0  0  0  0  0  0  0
   19.9280   71.2350   13.5380 H   0  0  0  0  0  0  0  0  0  0  0  0
   17.2650   72.3080   12.6860 H   0  0  0  0  0  0  0  0  0  0  0  0
   18.6820   72.5550   11.5320 H   0  0  0  0  0  0  0  0  0  0  0  0
   18.7530   70.0560   12.6190 H   0  0  0  0  0  0  0  0  0  0  0  0
   21.8050   79.2440    9.2240 H   0  0  0  0  0  0  0  0  0  0  0  0
   20.4220   78.5450   10.0660 H   0  0  0  0  0  0  0  0  0  0  0  0
   20.3530   80.2940    9.4820 H   0  0  0  0  0  0  0  0  0  0  0  0
  2  1  1  0  0  0  0
  2  7  1  0  0  0  0
  3  2  2  0  0  0  0
  4  3  1  0  0  0  0
  4  5  2  0  0  0  0
  5  6  1  0  0  0  0
  6  7  2  0  0  0  0
  6  8  1  0  0  0  0
  7 37  1  0  0  0  0
  9  4  1  0  0  0  0
 10 11  1  0  0  0  0
 10  3  1  0  0  0  0
 11 38  1  0  0  0  0
 12 13  1  0  0  0  0
 12 11  1  0  0  0  0
 12 40  1  1  0  0  0
 14 42  1  0  0  0  0
 14 43  1  0  0  0  0
 14 12  1  0  0  0  0
 15 14  1  0  0  0  0
 16 33  1  0  0  0  0
 16 15  1  0  0  0  0
 17 18  1  0  0  0  0
 17 16  2  0  0  0  0
 18 19  2  0  0  0  0
 19 20  1  0  0  0  0
 19 15  1  0  0  0  0
 20 21  1  0  0  0  0
 21 22  1  0  0  0  0
 21 44  1  0  0  0  0
 22 46  1  0  0  0  0
 22 47  1  0  0  0  0
 23 26  1  0  0  0  0
 23 22  1  0  0  0  0
 24 23  1  0  0  0  0
 24 25  1  0  0  0  0
 24 50  1  0  0  0  0
 25 20  1  0  0  0  0
 25 52  1  0  0  0  0
 26 53  1  0  0  0  0
 27 55  1  0  0  0  0
 27 26  1  0  0  0  0
 28 27  1  0  0  0  0
 28 57  1  0  0  0  0
 29 30  1  0  0  0  0
 29 17  1  0  0  0  0
 30 32  1  0  0  0  0
 31 30  2  0  0  0  0
 32 33  1  0  0  0  0
 33 34  2  0  0  0  0
 35 59  1  0  0  0  0
 35 29  1  0  0  0  0
 36  5  1  0  0  0  0
 39 11  1  0  0  0  0
 41 13  1  0  0  0  0
 45 21  1  0  0  0  0
 48 23  1  0  0  0  0
 49 24  1  0  0  0  0
 51 25  1  0  0  0  0
 54 26  1  0  0  0  0
 56 27  1  0  0  0  0
 58 35  1  0  0  0  0
 60 35  1  0  0  0  0
M  END
>  <Pose>
1

>  <Score>
-7.01

$$$$
