
 OpenBabel03222202113D

 43 46  0  0  0  0  0  0  0  0999 V2000
   18.7220   74.5540   12.8820 B   0  0  0  0  0  0  0  0  0  0  0  0
   19.3440   75.9200   11.7220 C   0  0  0  0  0  0  0  0  0  0  0  0
   20.1780   76.8940   12.2280 C   0  0  0  0  0  0  0  0  0  0  0  0
   20.6320   77.8810   11.4080 C   0  0  0  0  0  0  0  0  0  0  0  0
   20.2710   77.9320   10.0570 C   0  0  0  0  0  0  0  0  0  0  0  0
   19.4400   76.9490    9.5790 C   0  0  0  0  0  0  0  0  0  0  0  0
   18.9710   75.9450   10.3890 C   0  0  0  0  0  0  0  0  0  0  0  0
   18.9150   76.9700    7.7390 B   0  0  0  0  0  0  0  0  0  0  0  0
   21.5100   78.9110   11.9290 C   0  0  0  0  0  0  0  0  0  0  0  0
   21.1920   79.5120   13.0110 N   0  0  0  0  0  0  0  0  0  0  0  0
   21.9570   80.5080   13.5950 N   0  0  0  0  0  0  0  0  0  0  0  0
   23.0190   80.2790   14.5040 C   0  0  0  0  0  0  0  0  0  0  0  0
   24.0860   79.8290   14.0220 O   0  0  0  0  0  0  0  0  0  0  0  0
   22.9220   80.5370   15.9190 C   0  0  0  0  0  0  0  0  0  0  0  0
   22.3860   79.4810   16.7210 N   0  0  0  0  0  0  0  0  0  0  0  0
   21.2320   79.4900   17.4390 C   0  0  0  0  0  0  0  0  0  0  0  0
   21.0660   78.2910   18.0750 C   0  0  0  0  0  0  0  0  0  0  0  0
   22.1370   77.5570   17.7320 N   0  0  0  0  0  0  0  0  0  0  0  0
   22.9480   78.2840   16.9010 C   0  0  0  0  0  0  0  0  0  0  0  0
   24.1990   77.7820   16.3450 C   0  0  0  0  0  0  0  0  0  0  0  0
   24.3270   76.6910   15.5780 N   0  0  0  0  0  0  0  0  0  0  0  0
   25.6010   76.5420   15.2600 O   0  0  0  0  0  0  0  0  0  0  0  0
   26.3080   77.4910   15.7880 N   0  0  0  0  0  0  0  0  0  0  0  0
   25.4690   78.2930   16.4790 C   0  0  0  0  0  0  0  0  0  0  0  0
   25.8260   79.4520   17.2100 N   0  0  0  0  0  4  0  0  0  0  0  0
   19.9460   78.1050   18.8580 C   0  0  0  0  0  0  0  0  0  0  0  0
   18.9900   79.0940   19.0170 C   0  0  0  0  0  0  0  0  0  0  0  0
   19.1850   80.2970   18.3610 C   0  0  0  0  0  0  0  0  0  0  0  0
   20.3050   80.4860   17.5770 C   0  0  0  0  0  0  0  0  0  0  0  0
   20.5450   76.8590   13.5610 O   0  0  0  0  0  0  0  0  0  0  0  0
   20.6230   78.7060    9.3940 H   0  0  0  0  0  0  0  0  0  0  0  0
   18.3180   75.1590   10.0470 H   0  0  0  0  0  0  0  0  0  0  0  0
   22.4330   79.2030   11.4440 H   0  0  0  0  0  0  0  0  0  0  0  0
   21.7380   81.4980   13.3530 H   0  0  0  0  0  0  0  0  0  0  0  0
   23.9330   80.7740   16.3780 H   0  0  0  0  0  0  0  0  0  0  0  0
   22.3490   81.4710   16.0840 H   0  0  0  0  0  0  0  0  0  0  0  0
   26.5910   79.9820   16.7710 H   0  0  0  0  0  0  0  0  0  0  0  0
   26.1960   79.1080   18.1390 H   0  0  0  0  0  0  0  0  0  0  0  0
   25.0000   80.0700   17.4230 H   0  0  0  0  0  0  0  0  0  0  0  0
   19.8230   77.1470   19.3610 H   0  0  0  0  0  0  0  0  0  0  0  0
   18.1110   78.9140   19.6470 H   0  0  0  0  0  0  0  0  0  0  0  0
   18.4380   81.0730   18.4830 H   0  0  0  0  0  0  0  0  0  0  0  0
   20.4800   81.4220   17.0520 H   0  0  0  0  0  0  0  0  0  0  0  0
  2  3  1  0  0  0  0
  2  1  1  0  0  0  0
  3 30  1  0  0  0  0
  4  9  1  0  0  0  0
  4  3  2  0  0  0  0
  5  4  1  0  0  0  0
  6  5  2  0  0  0  0
  6  7  1  0  0  0  0
  7  2  2  0  0  0  0
  8  6  1  0  0  0  0
  9 10  2  0  0  0  0
 10 11  1  0  0  0  0
 11 12  1  0  0  0  0
 12 14  1  0  0  0  0
 13 12  2  0  0  0  0
 14 36  1  0  0  0  0
 14 35  1  0  0  0  0
 14 15  1  0  0  0  0
 15 19  1  0  0  0  0
 15 16  1  0  0  0  0
 16 29  2  0  0  0  0
 16 17  1  0  0  0  0
 17 26  2  0  0  0  0
 18 17  1  0  0  0  0
 19 18  2  0  0  0  0
 20 24  1  0  0  0  0
 20 19  1  0  0  0  0
 21 20  2  0  0  0  0
 22 21  1  0  0  0  0
 22 23  1  0  0  0  0
 23 24  2  0  0  0  0
 24 25  1  0  0  0  0
 25 39  1  0  0  0  0
 25 38  1  0  0  0  0
 26 27  1  0  0  0  0
 26 40  1  0  0  0  0
 27 41  1  0  0  0  0
 28 42  1  0  0  0  0
 28 27  2  0  0  0  0
 29 28  1  0  0  0  0
 31  5  1  0  0  0  0
 32  7  1  0  0  0  0
 33  9  1  0  0  0  0
 34 11  1  0  0  0  0
 37 25  1  0  0  0  0
 43 29  1  0  0  0  0
M  END
>  <Pose>
1

>  <Score>
-7.98

$$$$
