
 OpenBabel03222202113D

 50 53  0  0  0  0  0  0  0  0999 V2000
   19.5360   75.0330    9.1780 B   0  0  0  0  0  0  0  0  0  0  0  0
   19.0100   76.8440    8.9590 C   0  0  0  0  0  0  0  0  0  0  0  0
   18.2600   77.2210    7.8660 C   0  0  0  0  0  0  0  0  0  0  0  0
   17.8970   78.5810    7.7130 C   0  0  0  0  0  0  0  0  0  0  0  0
   18.3190   79.4580    8.6700 C   0  0  0  0  0  0  0  0  0  0  0  0
   19.0840   79.1180    9.7950 C   0  0  0  0  0  0  0  0  0  0  0  0
   19.4040   77.7820    9.8920 C   0  0  0  0  0  0  0  0  0  0  0  0
   19.4810   80.1240   10.7190 C   0  0  0  0  0  0  0  0  0  0  0  0
   20.2110   80.1570   11.6470 N   0  0  0  0  0  0  0  0  0  0  0  0
   20.9920   80.1020   12.6000 N   0  0  0  0  0  0  0  0  0  0  0  0
   21.8510   80.0450   13.6480 C   0  0  0  0  0  0  0  0  0  0  0  0
   22.8480   80.6640   14.0140 O   0  0  0  0  0  0  0  0  0  0  0  0
   21.4650   78.9060   14.6180 C   0  0  0  0  0  0  0  0  0  0  0  0
   22.2200   78.9420   15.8020 N   0  0  0  0  0  0  0  0  0  0  0  0
   23.6010   78.8430   15.7420 C   0  0  0  0  0  0  0  0  0  0  0  0
   24.0560   78.8780   17.0070 C   0  0  0  0  0  0  0  0  0  0  0  0
   22.9990   78.9910   17.7960 N   0  0  0  0  0  0  0  0  0  0  0  0
   21.8320   79.0340   17.0460 C   0  0  0  0  0  0  0  0  0  0  0  0
   20.5920   79.1400   17.7950 C   0  0  0  0  0  0  0  0  0  0  0  0
   19.6600   80.1460   17.5520 N   0  0  0  0  0  0  0  0  0  0  0  0
   18.6510   80.0130   18.3150 O   0  0  0  0  0  0  0  0  0  0  0  0
   18.7960   79.0010   19.0720 N   0  0  0  0  0  0  0  0  0  0  0  0
   20.0080   78.4210   18.7730 C   0  0  0  0  0  0  0  0  0  0  0  0
   20.4580   77.2550   19.4280 N   0  0  0  0  0  4  0  0  0  0  0  0
   25.4030   78.7970   17.3220 C   0  0  0  0  0  0  0  0  0  0  0  0
   26.2720   78.6780   16.2640 C   0  0  0  0  0  0  0  0  0  0  0  0
   25.8600   78.6400   14.9460 C   0  0  0  0  0  0  0  0  0  0  0  0
   24.4930   78.7240   14.6880 C   0  0  0  0  0  0  0  0  0  0  0  0
   17.1470   78.9310    6.6060 O   0  0  0  0  0  0  0  0  0  0  0  0
   15.7780   78.7260    6.5250 C   0  0  0  0  0  0  0  0  0  0  0  0
   14.9090   79.8900    6.9100 C   0  0  0  0  0  0  0  0  0  0  0  0
   17.8400   76.3500    6.9040 O   0  0  0  0  0  0  0  0  0  0  0  0
   18.0700   80.5010    8.5820 H   0  0  0  0  0  0  0  0  0  0  0  0
   19.9950   77.4400   10.7660 H   0  0  0  0  0  0  0  0  0  0  0  0
   19.0400   81.1770   10.5990 H   0  0  0  0  0  0  0  0  0  0  0  0
   21.4920   81.3850   12.3180 H   0  0  0  0  0  0  0  0  0  0  0  0
   21.7580   77.9520   14.0590 H   0  0  0  0  0  0  0  0  0  0  0  0
   20.3960   78.9310   14.7140 H   0  0  0  0  0  0  0  0  0  0  0  0
   20.8120   77.5380   20.4170 H   0  0  0  0  0  0  0  0  0  0  0  0
   21.3040   76.8960   18.9680 H   0  0  0  0  0  0  0  0  0  0  0  0
   19.6910   76.6220   19.6430 H   0  0  0  0  0  0  0  0  0  0  0  0
   25.6970   78.8370   18.3650 H   0  0  0  0  0  0  0  0  0  0  0  0
   27.3580   78.6120   16.4710 H   0  0  0  0  0  0  0  0  0  0  0  0
   26.5830   78.5410   14.1520 H   0  0  0  0  0  0  0  0  0  0  0  0
   24.1170   78.7020   13.6820 H   0  0  0  0  0  0  0  0  0  0  0  0
   15.5020   78.3890    5.4660 H   0  0  0  0  0  0  0  0  0  0  0  0
   15.4460   77.8460    7.1570 H   0  0  0  0  0  0  0  0  0  0  0  0
   14.2020   79.5620    7.6870 H   0  0  0  0  0  0  0  0  0  0  0  0
   15.5160   80.7210    7.2490 H   0  0  0  0  0  0  0  0  0  0  0  0
   14.2500   80.1720    6.0340 H   0  0  0  0  0  0  0  0  0  0  0  0
  2  1  1  0  0  0  0
  2  7  1  0  0  0  0
  3  2  2  0  0  0  0
  4  3  1  0  0  0  0
  4  5  2  0  0  0  0
  5  6  1  0  0  0  0
  6  7  2  0  0  0  0
  6  8  1  0  0  0  0
  7 34  1  0  0  0  0
  8  9  1  0  0  0  0
  9 10  1  0  0  0  0
 10 11  1  0  0  0  0
 11 12  2  0  0  0  0
 11 13  1  0  0  0  0
 13 38  1  0  0  0  0
 13 14  1  0  0  0  0
 14 18  1  0  0  0  0
 15 14  1  0  0  0  0
 15 16  1  0  0  0  0
 16 25  2  0  0  0  0
 16 17  1  0  0  0  0
 18 19  1  0  0  0  0
 18 17  2  0  0  0  0
 19 23  1  0  0  0  0
 20 19  2  0  0  0  0
 20 21  1  0  0  0  0
 21 22  1  0  0  0  0
 23 22  2  0  0  0  0
 23 24  1  0  0  0  0
 24 41  1  0  0  0  0
 24 39  1  0  0  0  0
 25 42  1  0  0  0  0
 26 43  1  0  0  0  0
 26 25  1  0  0  0  0
 27 26  2  0  0  0  0
 28 27  1  0  0  0  0
 28 15  2  0  0  0  0
 29  4  1  0  0  0  0
 30 29  1  0  0  0  0
 30 31  1  0  0  0  0
 30 47  1  0  0  0  0
 31 49  1  0  0  0  0
 31 48  1  0  0  0  0
 32  3  1  0  0  0  0
 33  5  1  0  0  0  0
 35  8  1  0  0  0  0
 36 10  1  0  0  0  0
 37 13  1  0  0  0  0
 40 24  1  0  0  0  0
 44 27  1  0  0  0  0
 45 28  1  0  0  0  0
 46 30  1  0  0  0  0
 50 31  1  0  0  0  0
M  END
>  <Pose>
1

>  <Score>
-7.60

$$$$
