
 OpenBabel03222202113D

 56 59  0  0  0  0  0  0  0  0999 V2000
   19.5780   76.9090    9.3350 B   0  0  0  0  0  0  0  0  0  0  0  0
   19.2100   75.8780   10.8940 C   0  0  0  0  0  0  0  0  0  0  0  0
   18.6090   74.6260   10.8160 C   0  0  0  0  0  0  0  0  0  0  0  0
   18.3400   73.8760   11.9380 C   0  0  0  0  0  0  0  0  0  0  0  0
   18.6880   74.4090   13.1560 C   0  0  0  0  0  0  0  0  0  0  0  0
   19.2880   75.6530   13.2720 C   0  0  0  0  0  0  0  0  0  0  0  0
   19.5390   76.3700   12.1230 C   0  0  0  0  0  0  0  0  0  0  0  0
   19.6670   76.2420   14.5460 C   0  0  0  0  0  0  0  0  0  0  0  0
   20.8900   76.4890   14.8400 N   0  0  0  0  0  0  0  0  0  0  0  0
   21.3360   77.0420   16.0150 N   0  0  0  0  0  0  0  0  0  0  0  0
   20.5870   77.1050   17.2110 C   0  0  0  0  0  0  0  0  0  0  0  0
   20.4030   76.0610   17.8670 O   0  0  0  0  0  0  0  0  0  0  0  0
   20.0240   78.3570   17.7000 C   0  0  0  0  0  0  0  0  0  0  0  0
   18.8070   78.5890   18.2090 N   0  0  0  0  0  0  0  0  0  0  0  0
   18.7000   79.8540   18.5310 N   0  0  0  0  0  0  0  0  0  0  0  0
   19.8380   80.5140   18.2500 N   0  0  0  0  0  0  0  0  0  0  0  0
   20.6720   79.6060   17.7340 C   0  0  0  0  0  0  0  0  0  0  0  0
   22.0550   79.7740   17.2840 C   0  0  0  0  0  0  0  0  0  0  0  0
   22.2650   80.5680   16.1000 N   0  0  0  0  0  0  0  0  0  0  0  0
   23.7060   80.8480   16.0940 C   0  0  0  0  0  0  0  0  0  0  0  0
   24.5740   79.6550   16.0180 C   0  0  0  0  0  0  0  0  0  0  0  0
   23.9810   78.6430   15.2790 O   0  0  0  0  0  0  0  0  0  0  0  0
   23.2150   79.2200   14.2890 C   0  0  0  0  0  0  0  0  0  0  0  0
   21.9480   79.7680   14.9140 C   0  0  0  0  0  0  0  0  0  0  0  0
   20.0200   81.9090   18.5150 C   0  0  0  0  0  0  0  0  0  0  0  0
   20.1670   82.9220   17.6460 N   0  0  0  0  0  0  0  0  0  0  0  0
   20.3000   84.0440   18.3120 O   0  0  0  0  0  0  0  0  0  0  0  0
   20.2480   83.8190   19.6030 N   0  0  0  0  0  0  0  0  0  0  0  0
   20.0730   82.4940   19.7570 C   0  0  0  0  0  0  0  0  0  0  0  0
   19.9640   81.8620   21.0230 N   0  0  0  0  0  0  0  0  0  0  0  0
   17.7440   72.6480   11.7840 O   0  0  0  0  0  0  0  0  0  0  0  0
   17.7050   71.6150   12.7140 C   0  0  0  0  0  0  0  0  0  0  0  0
   16.7350   70.5200   12.4040 C   0  0  0  0  0  0  0  0  0  0  0  0
   18.2780   74.1390    9.5550 O   0  0  0  0  0  0  0  0  0  0  0  0
   18.4860   73.8380   14.0480 H   0  0  0  0  0  0  0  0  0  0  0  0
   20.0120   77.3540   12.1960 H   0  0  0  0  0  0  0  0  0  0  0  0
   18.9020   76.4810   15.2730 H   0  0  0  0  0  0  0  0  0  0  0  0
   22.3160   77.4480   16.0160 H   0  0  0  0  0  0  0  0  0  0  0  0
   22.5070   78.7660   17.0870 H   0  0  0  0  0  0  0  0  0  0  0  0
   22.7000   80.1720   18.1280 H   0  0  0  0  0  0  0  0  0  0  0  0
   23.8890   81.5190   15.2540 H   0  0  0  0  0  0  0  0  0  0  0  0
   23.8870   81.3460   17.0880 H   0  0  0  0  0  0  0  0  0  0  0  0
   24.6780   79.2400   17.0640 H   0  0  0  0  0  0  0  0  0  0  0  0
   25.6100   79.8680   15.6870 H   0  0  0  0  0  0  0  0  0  0  0  0
   22.8900   78.4960   13.5140 H   0  0  0  0  0  0  0  0  0  0  0  0
   23.7930   80.0550   13.8480 H   0  0  0  0  0  0  0  0  0  0  0  0
   21.3290   78.9020   15.1870 H   0  0  0  0  0  0  0  0  0  0  0  0
   21.4950   80.4170   14.1480 H   0  0  0  0  0  0  0  0  0  0  0  0
   20.7030   81.2580   21.4370 H   0  0  0  0  0  0  0  0  0  0  0  0
   19.1020   81.9850   21.6130 H   0  0  0  0  0  0  0  0  0  0  0  0
   18.7180   71.1600   12.8650 H   0  0  0  0  0  0  0  0  0  0  0  0
   17.4120   72.0590   13.6980 H   0  0  0  0  0  0  0  0  0  0  0  0
   15.9510   70.4090   13.2040 H   0  0  0  0  0  0  0  0  0  0  0  0
   17.2100   69.5210   12.2690 H   0  0  0  0  0  0  0  0  0  0  0  0
   16.1710   70.7860   11.4820 H   0  0  0  0  0  0  0  0  0  0  0  0
   17.4460   74.4770    9.0860 H   0  0  0  0  0  0  0  0  0  0  0  0
  1  2  1  0  0  0  0
  2  7  1  0  0  0  0
  3  2  2  0  0  0  0
  3  4  1  0  0  0  0
  4  5  2  0  0  0  0
  5  6  1  0  0  0  0
  5 35  1  0  0  0  0
  6  8  1  0  0  0  0
  7 36  1  0  0  0  0
  7  6  2  0  0  0  0
  8  9  2  0  0  0  0
  8 37  1  0  0  0  0
  9 10  1  0  0  0  0
 10 38  1  0  0  0  0
 10 11  1  0  0  0  0
 11 13  1  0  0  0  0
 11 12  2  0  0  0  0
 13 17  2  0  0  0  0
 13 14  1  0  0  0  0
 14 15  2  0  0  0  0
 16 25  1  0  0  0  0
 16 15  1  0  0  0  0
 17 16  1  0  0  0  0
 18 17  1  0  0  0  0
 18 40  1  0  0  0  0
 19 18  1  0  0  0  0
 20 19  1  0  0  0  0
 20 42  1  0  0  0  0
 21 20  1  0  0  0  0
 21 43  1  0  0  0  0
 22 21  1  0  0  0  0
 23 24  1  0  0  0  0
 23 22  1  0  0  0  0
 24 47  1  0  0  0  0
 24 19  1  0  0  0  0
 25 29  1  0  0  0  0
 26 27  1  0  0  0  0
 26 25  2  0  0  0  0
 27 28  1  0  0  0  0
 28 29  2  0  0  0  0
 29 30  1  0  0  0  0
 30 49  1  0  0  0  0
 30 50  1  0  0  0  0
 31  4  1  0  0  0  0
 31 32  1  0  0  0  0
 32 51  1  0  0  0  0
 32 52  1  0  0  0  0
 33 32  1  0  0  0  0
 33 53  1  0  0  0  0
 34  3  1  0  0  0  0
 39 18  1  0  0  0  0
 41 20  1  0  0  0  0
 44 21  1  0  0  0  0
 45 23  1  0  0  0  0
 46 23  1  0  0  0  0
 48 24  1  0  0  0  0
 54 33  1  0  0  0  0
 55 33  1  0  0  0  0
 56 34  1  0  0  0  0
M  END
>  <Pose>
1

>  <Score>
-9.21

$$$$
