
 OpenBabel03222202113D

 53 56  0  0  0  0  0  0  0  0999 V2000
   17.4330   78.8530    7.0710 B   0  0  0  0  0  0  0  0  0  0  0  0
   18.2590   77.3140    7.8930 C   0  0  0  0  0  0  0  0  0  0  0  0
   18.5410   76.2150    7.1100 C   0  0  0  0  0  0  0  0  0  0  0  0
   19.1440   75.1190    7.6610 C   0  0  0  0  0  0  0  0  0  0  0  0
   19.4460   75.1570    9.0030 C   0  0  0  0  0  0  0  0  0  0  0  0
   19.1830   76.2320    9.8330 C   0  0  0  0  0  0  0  0  0  0  0  0
   18.5490   77.3570    9.1890 C   0  0  0  0  0  0  0  0  0  0  0  0
   19.4390   76.3730   11.1680 C   0  0  0  0  0  0  0  0  0  0  0  0
   19.3800   75.7840   12.3770 N   0  0  0  0  0  0  0  0  0  0  0  0
   20.0080   77.0170   13.1720 N   0  0  0  0  0  0  0  0  0  0  0  0
   20.6190   76.3670   14.3090 C   0  0  0  0  0  0  0  0  0  0  0  0
   21.6210   75.6690   14.1590 O   0  0  0  0  0  0  0  0  0  0  0  0
   20.1150   76.6040   15.6430 C   0  0  0  0  0  0  0  0  0  0  0  0
   19.0390   76.3140   16.2870 N   0  0  0  0  0  0  0  0  0  0  0  0
   18.8610   77.1690   17.2790 N   0  0  0  0  0  0  0  0  0  0  0  0
   19.8630   78.0370   17.2780 N   0  0  0  0  0  0  0  0  0  0  0  0
   20.7330   77.7850   16.3100 C   0  0  0  0  0  0  0  0  0  0  0  0
   21.8800   78.4580   15.7710 C   0  0  0  0  0  0  0  0  0  0  0  0
   23.1760   77.7820   15.8570 N   0  0  0  0  0  0  0  0  0  0  0  0
   23.8260   78.0070   17.1060 C   0  0  0  0  0  0  0  0  0  0  0  0
   24.2900   79.4180   17.3320 C   0  0  0  0  0  0  0  0  0  0  0  0
   25.4050   79.6690   16.5500 O   0  0  0  0  0  0  0  0  0  0  0  0
   25.4320   78.8180   15.4390 C   0  0  0  0  0  0  0  0  0  0  0  0
   24.0450   78.6230   14.9240 C   0  0  0  0  0  0  0  0  0  0  0  0
   19.7240   79.3090   17.9560 C   0  0  0  0  0  0  0  0  0  0  0  0
   19.8220   80.5200   17.5940 N   0  0  0  0  0  0  0  0  0  0  0  0
   19.6570   81.3700   18.6080 O   0  0  0  0  0  0  0  0  0  0  0  0
   19.4440   80.6510   19.6500 N   0  0  0  0  0  0  0  0  0  0  0  0
   19.4650   79.3500   19.3610 C   0  0  0  0  0  0  0  0  0  0  0  0
   19.2940   78.2610   20.2320 N   0  0  0  0  0  0  0  0  0  0  0  0
   19.4620   73.9910    6.8950 O   0  0  0  0  0  0  0  0  0  0  0  0
   20.5730   73.1680    7.3030 C   0  0  0  0  0  0  0  0  0  0  0  0
   18.2050   76.2310    5.7530 O   0  0  0  0  0  0  0  0  0  0  0  0
   19.9440   74.2720    9.4370 H   0  0  0  0  0  0  0  0  0  0  0  0
   18.3350   78.2420    9.7960 H   0  0  0  0  0  0  0  0  0  0  0  0
   19.8930   77.4460   11.4250 H   0  0  0  0  0  0  0  0  0  0  0  0
   19.8570   77.8270   12.7370 H   0  0  0  0  0  0  0  0  0  0  0  0
   21.8080   79.0180   14.8340 H   0  0  0  0  0  0  0  0  0  0  0  0
   22.1010   79.3700   16.5000 H   0  0  0  0  0  0  0  0  0  0  0  0
   23.1480   77.7100   17.9160 H   0  0  0  0  0  0  0  0  0  0  0  0
   24.7600   77.3560   17.1890 H   0  0  0  0  0  0  0  0  0  0  0  0
   23.5030   80.1690   17.2590 H   0  0  0  0  0  0  0  0  0  0  0  0
   24.6710   79.4680   18.3940 H   0  0  0  0  0  0  0  0  0  0  0  0
   26.0500   77.9440   15.5110 H   0  0  0  0  0  0  0  0  0  0  0  0
   25.9470   79.4630   14.6350 H   0  0  0  0  0  0  0  0  0  0  0  0
   24.0580   78.2100   13.9250 H   0  0  0  0  0  0  0  0  0  0  0  0
   23.5980   79.6610   14.9930 H   0  0  0  0  0  0  0  0  0  0  0  0
   19.2940   78.3590   21.2630 H   0  0  0  0  0  0  0  0  0  0  0  0
   19.1370   77.2600   19.8710 H   0  0  0  0  0  0  0  0  0  0  0  0
   20.6950   72.2980    6.6460 H   0  0  0  0  0  0  0  0  0  0  0  0
   21.5050   73.8370    7.2590 H   0  0  0  0  0  0  0  0  0  0  0  0
   20.4090   72.8750    8.3360 H   0  0  0  0  0  0  0  0  0  0  0  0
   18.7590   75.6300    5.1060 H   0  0  0  0  0  0  0  0  0  0  0  0
  1  2  1  0  0  0  0
  2  7  1  0  0  0  0
  3  4  1  0  0  0  0
  3  2  2  0  0  0  0
  4  5  2  0  0  0  0
  5 34  1  0  0  0  0
  5  6  1  0  0  0  0
  6  8  1  0  0  0  0
  7 35  1  0  0  0  0
  7  6  2  0  0  0  0
  8 36  1  0  0  0  0
  8  9  1  0  0  0  0
  9 10  1  0  0  0  0
 10 11  1  0  0  0  0
 11 13  1  0  0  0  0
 12 11  2  0  0  0  0
 13 14  1  0  0  0  0
 13 17  2  0  0  0  0
 14 15  2  0  0  0  0
 16 15  1  0  0  0  0
 16 25  1  0  0  0  0
 17 16  1  0  0  0  0
 18 19  1  0  0  0  0
 18 17  1  0  0  0  0
 18 39  1  0  0  0  0
 19 20  1  0  0  0  0
 20 41  1  0  0  0  0
 20 21  1  0  0  0  0
 20 40  1  0  0  0  0
 21 43  1  0  0  0  0
 22 21  1  0  0  0  0
 23 44  1  0  0  0  0
 23 22  1  0  0  0  0
 24 47  1  0  0  0  0
 24 23  1  0  0  0  0
 24 19  1  0  0  0  0
 25 29  1  0  0  0  0
 26 25  2  0  0  0  0
 26 27  1  0  0  0  0
 27 28  1  0  0  0  0
 29 28  2  0  0  0  0
 29 30  1  0  0  0  0
 30 48  1  0  0  0  0
 31 32  1  0  0  0  0
 31  4  1  0  0  0  0
 32 52  1  0  0  0  0
 33  3  1  0  0  0  0
 37 10  1  0  0  0  0
 38 18  1  0  0  0  0
 42 21  1  0  0  0  0
 45 23  1  0  0  0  0
 46 24  1  0  0  0  0
 49 30  1  0  0  0  0
 50 32  1  0  0  0  0
 51 32  1  0  0  0  0
 53 33  1  0  0  0  0
M  END
>  <Pose>
1

>  <Score>
-7.74

$$$$
