
 OpenBabel03222202113D

 39 42  0  0  1  0  0  0  0  0999 V2000
   18.2760   72.8200   12.7750 B   0  0  0  0  0  0  0  0  0  0  0  0
   18.9820   74.5520   13.1140 C   0  0  0  0  0  0  0  0  0  0  0  0
   19.1090   75.4550   12.0870 C   0  0  0  0  0  0  0  0  0  0  0  0
   19.6240   76.7040   12.3630 C   0  0  0  0  0  0  0  0  0  0  0  0
   20.0250   77.1070   13.6190 C   0  0  0  0  0  0  0  0  0  0  0  0
   19.8940   76.1960   14.6440 C   0  0  0  0  0  0  0  0  0  0  0  0
   19.3820   74.9410   14.3960 C   0  0  0  0  0  0  0  0  0  0  0  0
   20.2870   76.5130   16.0460 C   0  0  2  0  0  0  0  0  0  0  0  0
   19.2910   77.3050   16.6400 N   0  0  0  0  0  4  0  0  0  0  0  0
   19.6620   78.4270   17.4160 C   0  0  1  0  0  0  0  0  0  0  0  0
   21.0740   78.4150   17.9370 C   0  0  0  0  0  0  0  0  0  0  0  0
   22.0470   78.0070   16.8960 C   0  0  0  0  0  0  0  0  0  0  0  0
   23.3370   78.3830   16.6390 C   0  0  0  0  0  0  0  0  0  0  0  0
   23.7100   77.6470   15.5280 C   0  0  0  0  0  0  0  0  0  0  0  0
   22.6680   76.8620   15.1460 N   0  0  0  0  0  0  0  0  0  0  0  0
   21.6460   77.0800   15.9830 C   0  0  0  0  0  0  0  0  0  0  0  0
   24.9900   77.8420   15.0540 C   0  0  0  0  0  0  0  0  0  0  0  0
   25.8590   78.7270   15.6560 C   0  0  0  0  0  0  0  0  0  0  0  0
   25.4850   79.4610   16.7640 C   0  0  0  0  0  0  0  0  0  0  0  0
   24.2030   79.2770   17.2530 C   0  0  0  0  0  0  0  0  0  0  0  0
   19.4690   79.7160   16.6970 C   0  0  0  0  0  0  0  0  0  0  0  0
   18.3070   80.2490   16.6690 O   0  0  0  0  0  0  0  0  0  0  0  0
   20.5450   80.3190   16.0660 O   0  0  0  0  0  0  0  0  0  0  0  0
   19.7920   77.9410   10.9220 B   0  0  0  0  0  0  0  0  0  0  0  0
   18.7220   75.1200   10.7740 O   0  0  0  0  0  0  0  0  0  0  0  0
   20.4260   78.0660   13.8590 H   0  0  0  0  0  0  0  0  0  0  0  0
   19.2470   74.1720   15.1510 H   0  0  0  0  0  0  0  0  0  0  0  0
   20.3860   75.5180   16.5620 H   0  0  0  0  0  0  0  0  0  0  0  0
   18.5660   77.6220   15.9340 H   0  0  0  0  0  0  0  0  0  0  0  0
   18.7030   76.6680   17.2670 H   0  0  0  0  0  0  0  0  0  0  0  0
   19.0090   78.5210   18.3380 H   0  0  0  0  0  0  0  0  0  0  0  0
   21.2150   77.7490   18.8120 H   0  0  0  0  0  0  0  0  0  0  0  0
   21.3460   79.4410   18.2620 H   0  0  0  0  0  0  0  0  0  0  0  0
   22.7470   76.2260   14.3230 H   0  0  0  0  0  0  0  0  0  0  0  0
   25.3070   77.2810   14.1920 H   0  0  0  0  0  0  0  0  0  0  0  0
   26.8810   78.8780   15.2740 H   0  0  0  0  0  0  0  0  0  0  0  0
   26.1940   80.1460   17.2090 H   0  0  0  0  0  0  0  0  0  0  0  0
   23.8840   79.8400   18.1200 H   0  0  0  0  0  0  0  0  0  0  0  0
   17.7330   75.0600   10.5770 H   0  0  0  0  0  0  0  0  0  0  0  0
  1  2  1  0  0  0  0
  2  7  1  0  0  0  0
  3  4  1  0  0  0  0
  3  2  2  0  0  0  0
  4  5  2  0  0  0  0
  5 26  1  0  0  0  0
  5  6  1  0  0  0  0
  6  8  1  0  0  0  0
  7  6  2  0  0  0  0
  7 27  1  0  0  0  0
  8 28  1  1  0  0  0
  8  9  1  0  0  0  0
  9 30  1  0  0  0  0
  9 10  1  0  0  0  0
 10 11  1  0  0  0  0
 10 31  1  1  0  0  0
 11 33  1  0  0  0  0
 11 32  1  0  0  0  0
 12 11  1  0  0  0  0
 13 12  1  0  0  0  0
 13 20  1  0  0  0  0
 14 13  2  0  0  0  0
 15 14  1  0  0  0  0
 15 16  1  0  0  0  0
 16  8  1  0  0  0  0
 16 12  2  0  0  0  0
 17 14  1  0  0  0  0
 17 18  2  0  0  0  0
 18 19  1  0  0  0  0
 19 37  1  0  0  0  0
 19 20  2  0  0  0  0
 20 38  1  0  0  0  0
 21 10  1  0  0  0  0
 22 21  1  0  0  0  0
 23 21  2  0  0  0  0
 24  4  1  0  0  0  0
 25  3  1  0  0  0  0
 29  9  1  0  0  0  0
 34 15  1  0  0  0  0
 35 17  1  0  0  0  0
 36 18  1  0  0  0  0
 39 25  1  0  0  0  0
M  END
>  <Pose>
1

>  <Score>
-4.59

$$$$
