
 OpenBabel03222202113D

 40 43  0  0  0  0  0  0  0  0999 V2000
   24.4930   77.6410   15.9790 B   0  0  0  0  0  0  0  0  0  0  0  0
   23.4910   78.0950   14.4180 C   0  0  0  0  0  0  0  0  0  0  0  0
   22.2650   77.6620   14.0310 C   0  0  0  0  0  0  0  0  0  0  0  0
   21.9600   78.2490   12.8230 N   0  0  0  0  0  0  0  0  0  0  0  0
   22.9760   79.0080   12.5080 N   0  0  0  0  0  0  0  0  0  0  0  0
   23.9460   78.9740   13.4150 C   0  0  0  0  0  0  0  0  0  0  0  0
   20.7530   78.0620   12.0600 C   0  0  0  0  0  0  0  0  0  0  0  0
   21.3380   76.7450   14.7260 C   0  0  0  0  0  0  0  0  0  0  0  0
   20.8680   75.7710   14.0270 O   0  0  0  0  0  0  0  0  0  0  0  0
   20.9630   76.8850   16.0600 N   0  0  0  0  0  0  0  0  0  0  0  0
   20.7620   78.1160   16.7320 C   0  0  0  0  0  0  0  0  0  0  0  0
   20.2740   78.0520   18.0530 C   0  0  0  0  0  0  0  0  0  0  0  0
   19.9500   76.9810   18.8270 N   0  0  0  0  0  0  0  0  0  0  0  0
   19.5480   77.4450   19.9710 O   0  0  0  0  0  0  0  0  0  0  0  0
   19.5920   78.7400   19.9800 N   0  0  0  0  0  0  0  0  0  0  0  0
   20.0430   79.1790   18.7970 C   0  0  0  0  0  0  0  0  0  0  0  0
   20.2700   80.4480   18.3060 C   0  0  0  0  0  0  0  0  0  0  0  0
   20.7480   80.5070   17.0100 C   0  0  0  0  0  0  0  0  0  0  0  0
   20.9870   79.3680   16.2450 C   0  0  0  0  0  0  0  0  0  0  0  0
   20.0360   81.6140   19.0560 N   0  0  0  0  0  0  0  0  0  0  0  0
   20.2680   82.9080   18.4200 C   0  0  0  0  0  0  0  0  0  0  0  0
   20.1420   84.0400   19.4010 C   0  0  0  0  0  0  0  0  0  0  0  0
   20.6500   83.8160   20.6380 O   0  0  0  0  0  0  0  0  0  0  0  0
   20.6390   82.5430   21.1280 C   0  0  0  0  0  0  0  0  0  0  0  0
   19.5850   81.7260   20.4100 C   0  0  0  0  0  0  0  0  0  0  0  0
   24.8920   79.4700   13.4550 H   0  0  0  0  0  0  0  0  0  0  0  0
   19.8610   78.2120   12.7090 H   0  0  0  0  0  0  0  0  0  0  0  0
   20.7170   77.0310   11.6690 H   0  0  0  0  0  0  0  0  0  0  0  0
   20.7540   78.7570   11.2090 H   0  0  0  0  0  0  0  0  0  0  0  0
   20.8380   75.9730   16.5940 H   0  0  0  0  0  0  0  0  0  0  0  0
   20.9330   81.4920   16.6050 H   0  0  0  0  0  0  0  0  0  0  0  0
   21.3580   79.4890   15.2480 H   0  0  0  0  0  0  0  0  0  0  0  0
   21.2850   82.9640   17.9770 H   0  0  0  0  0  0  0  0  0  0  0  0
   19.5310   83.0860   17.6020 H   0  0  0  0  0  0  0  0  0  0  0  0
   20.6990   84.9110   18.9530 H   0  0  0  0  0  0  0  0  0  0  0  0
   19.0680   84.3680   19.4040 H   0  0  0  0  0  0  0  0  0  0  0  0
   21.6320   82.0760   20.8950 H   0  0  0  0  0  0  0  0  0  0  0  0
   20.4590   82.4770   22.2260 H   0  0  0  0  0  0  0  0  0  0  0  0
   18.6580   82.3750   20.3690 H   0  0  0  0  0  0  0  0  0  0  0  0
   19.2920   80.8320   20.9280 H   0  0  0  0  0  0  0  0  0  0  0  0
  2  1  1  0  0  0  0
  3  2  2  0  0  0  0
  3  8  1  0  0  0  0
  4  3  1  0  0  0  0
  5  4  1  0  0  0  0
  5  6  2  0  0  0  0
  6 26  1  0  0  0  0
  6  2  1  0  0  0  0
  7 27  1  0  0  0  0
  7  4  1  0  0  0  0
  8 10  1  0  0  0  0
  9  8  2  0  0  0  0
 10 30  1  0  0  0  0
 10 11  1  0  0  0  0
 11 12  1  0  0  0  0
 12 16  1  0  0  0  0
 12 13  2  0  0  0  0
 13 14  1  0  0  0  0
 14 15  1  0  0  0  0
 16 15  2  0  0  0  0
 17 16  1  0  0  0  0
 17 20  1  0  0  0  0
 18 17  2  0  0  0  0
 19 11  2  0  0  0  0
 19 18  1  0  0  0  0
 20 25  1  0  0  0  0
 21 20  1  0  0  0  0
 21 22  1  0  0  0  0
 22 36  1  0  0  0  0
 22 23  1  0  0  0  0
 23 24  1  0  0  0  0
 24 38  1  0  0  0  0
 25 40  1  0  0  0  0
 25 24  1  0  0  0  0
 28  7  1  0  0  0  0
 29  7  1  0  0  0  0
 31 18  1  0  0  0  0
 32 19  1  0  0  0  0
 33 21  1  0  0  0  0
 34 21  1  0  0  0  0
 35 22  1  0  0  0  0
 37 24  1  0  0  0  0
 39 25  1  0  0  0  0
M  END
>  <Pose>
1

>  <Score>
-6.92

$$$$
