
 OpenBabel03222202113D

 36 39  0  0  0  0  0  0  0  0999 V2000
   20.9570   77.0210   14.6840 B   0  0  0  0  0  0  0  0  0  0  0  0
   20.0670   75.4590   14.0900 C   0  0  0  0  0  0  0  0  0  0  0  0
   19.4590   75.4480   12.8290 C   0  0  0  0  0  0  0  0  0  0  0  0
   18.8200   74.3080   12.4160 C   0  0  0  0  0  0  0  0  0  0  0  0
   18.7700   73.1960   13.2130 C   0  0  0  0  0  0  0  0  0  0  0  0
   19.3800   73.2010   14.4800 C   0  0  0  0  0  0  0  0  0  0  0  0
   20.0230   74.3490   14.8970 C   0  0  0  0  0  0  0  0  0  0  0  0
   18.0860   72.0560   12.7240 N   0  0  0  0  0  0  0  0  0  0  0  0
   16.7730   71.9690   12.6430 N   0  0  0  0  0  0  0  0  0  0  0  0
   16.4100   70.8020   12.1530 N   0  0  0  0  0  0  0  0  0  0  0  0
   17.5050   70.1030   11.9050 N   0  0  0  0  0  0  0  0  0  0  0  0
   18.5340   70.8800   12.2600 C   0  0  0  0  0  0  0  0  0  0  0  0
   18.1540   74.2270   11.0610 C   0  0  0  0  0  0  0  0  0  0  0  0
   16.9880   73.7150   11.0570 O   0  0  0  0  0  0  0  0  0  0  0  0
   18.8370   74.6990    9.9650 N   0  0  0  0  0  0  0  0  0  0  0  0
   19.5140   75.1680    8.8760 C   0  0  0  0  0  0  0  0  0  0  0  0
   18.7040   76.1130    8.0040 C   0  0  0  0  0  0  0  0  0  0  0  0
   17.9030   75.7330    6.9850 N   0  0  0  0  0  0  0  0  0  0  0  0
   17.3320   76.8060    6.4210 C   0  0  0  0  0  0  0  0  0  0  0  0
   17.7900   77.8650    7.1060 N   0  0  0  0  0  0  0  0  0  0  0  0
   18.6240   77.4470    8.0690 N   0  0  0  0  0  0  0  0  0  0  0  0
   16.4540   76.6600    5.3380 C   0  0  0  0  0  0  0  0  0  0  0  0
   16.1700   75.4180    4.8450 C   0  0  0  0  0  0  0  0  0  0  0  0
   16.7580   74.3130    5.4270 C   0  0  0  0  0  0  0  0  0  0  0  0
   17.6230   74.4920    6.4960 C   0  0  0  0  0  0  0  0  0  0  0  0
   19.4850   76.3180   12.1890 H   0  0  0  0  0  0  0  0  0  0  0  0
   19.3200   72.3070   15.0750 H   0  0  0  0  0  0  0  0  0  0  0  0
   20.4930   74.3540   15.8760 H   0  0  0  0  0  0  0  0  0  0  0  0
   19.5660   70.6020   12.1790 H   0  0  0  0  0  0  0  0  0  0  0  0
   17.7410   75.4040    9.5700 H   0  0  0  0  0  0  0  0  0  0  0  0
   19.9310   74.3970    8.1650 H   0  0  0  0  0  0  0  0  0  0  0  0
   20.4360   75.7920    9.1090 H   0  0  0  0  0  0  0  0  0  0  0  0
   16.0280   77.5590    4.9200 H   0  0  0  0  0  0  0  0  0  0  0  0
   15.4870   75.2650    3.9960 H   0  0  0  0  0  0  0  0  0  0  0  0
   16.5770   73.3170    5.0930 H   0  0  0  0  0  0  0  0  0  0  0  0
   18.1050   73.6560    6.9770 H   0  0  0  0  0  0  0  0  0  0  0  0
  2  1  1  0  0  0  0
  2  7  1  0  0  0  0
  3  2  2  0  0  0  0
  4  3  1  0  0  0  0
  4  5  2  0  0  0  0
  5  6  1  0  0  0  0
  6  7  2  0  0  0  0
  6 27  1  0  0  0  0
  7 28  1  0  0  0  0
  8  5  1  0  0  0  0
  9  8  1  0  0  0  0
 10  9  2  0  0  0  0
 11 10  1  0  0  0  0
 11 12  2  0  0  0  0
 12  8  1  0  0  0  0
 13  4  1  0  0  0  0
 14 13  2  0  0  0  0
 15 13  1  0  0  0  0
 16 32  1  0  0  0  0
 16 15  1  0  0  0  0
 17 21  2  0  0  0  0
 17 16  1  0  0  0  0
 18 17  1  0  0  0  0
 19 18  1  0  0  0  0
 19 20  2  0  0  0  0
 20 21  1  0  0  0  0
 22 19  1  0  0  0  0
 23 22  2  0  0  0  0
 23 24  1  0  0  0  0
 24 25  2  0  0  0  0
 25 36  1  0  0  0  0
 25 18  1  0  0  0  0
 26  3  1  0  0  0  0
 29 12  1  0  0  0  0
 30 15  1  0  0  0  0
 31 16  1  0  0  0  0
 33 22  1  0  0  0  0
 34 23  1  0  0  0  0
 35 24  1  0  0  0  0
M  END
>  <Pose>
1

>  <Score>
-6.31

$$$$
