
 OpenBabel03222202113D

 48 51  0  0  0  0  0  0  0  0999 V2000
   23.8090   78.8070   15.5370 B   0  0  0  0  0  0  0  0  0  0  0  0
   22.0970   78.0410   15.8710 C   0  0  0  0  0  0  0  0  0  0  0  0
   21.5090   77.0750   15.1070 C   0  0  0  0  0  0  0  0  0  0  0  0
   20.2690   76.5360   15.3700 C   0  0  0  0  0  0  0  0  0  0  0  0
   19.5930   77.0240   16.4920 C   0  0  0  0  0  0  0  0  0  0  0  0
   20.1320   77.9920   17.2940 C   0  0  0  0  0  0  0  0  0  0  0  0
   21.3880   78.4980   16.9780 C   0  0  0  0  0  0  0  0  0  0  0  0
   18.3490   76.4970   16.7810 O   0  0  0  0  0  0  0  0  0  0  0  0
   17.1840   77.1630   16.3720 C   0  0  0  0  0  0  0  0  0  0  0  0
   19.6700   75.4970   14.5500 C   0  0  0  0  0  0  0  0  0  0  0  0
   19.5300   75.5180   13.2540 C   0  0  0  0  0  0  0  0  0  0  0  0
   19.9420   76.5590   12.4360 O   0  0  0  0  0  0  0  0  0  0  0  0
   19.6640   76.3090   11.1050 C   0  0  0  0  0  0  0  0  0  0  0  0
   19.0480   75.0870   10.9610 C   0  0  0  0  0  0  0  0  0  0  0  0
   18.6810   74.6400    9.7090 C   0  0  0  0  0  0  0  0  0  0  0  0
   18.9350   75.4280    8.6070 C   0  0  0  0  0  0  0  0  0  0  0  0
   19.5660   76.6760    8.7820 C   0  0  0  0  0  0  0  0  0  0  0  0
   19.9390   77.1370   10.0070 C   0  0  0  0  0  0  0  0  0  0  0  0
   20.6020   78.3900   10.2430 C   0  0  0  0  0  0  0  0  0  0  0  0
   22.0010   78.5180   10.2820 N   0  0  0  0  0  4  0  0  0  0  0  0
   22.5790   79.3780    9.2860 C   0  0  0  0  0  0  0  0  0  0  0  0
   22.5350   80.8450    9.6370 C   0  0  0  0  0  0  0  0  0  0  0  0
   21.8330   81.1150   10.8040 O   0  0  0  0  0  0  0  0  0  0  0  0
   22.4700   80.4050   11.8170 C   0  0  0  0  0  0  0  0  0  0  0  0
   22.4910   78.9260   11.6110 C   0  0  0  0  0  0  0  0  0  0  0  0
   19.7590   77.3660    7.5750 O   0  0  0  0  0  0  0  0  0  0  0  0
   18.9460   74.5490   12.3210 C   0  0  0  0  0  0  0  0  0  0  0  0
   18.4460   73.4490   12.6480 O   0  0  0  0  0  0  0  0  0  0  0  0
   22.0700   76.7180   14.2380 H   0  0  0  0  0  0  0  0  0  0  0  0
   19.6430   78.4090   18.1810 H   0  0  0  0  0  0  0  0  0  0  0  0
   21.8320   79.2760   17.6150 H   0  0  0  0  0  0  0  0  0  0  0  0
   16.3150   76.8510   17.0300 H   0  0  0  0  0  0  0  0  0  0  0  0
   16.9160   76.8340   15.3360 H   0  0  0  0  0  0  0  0  0  0  0  0
   17.2370   78.2660   16.4820 H   0  0  0  0  0  0  0  0  0  0  0  0
   19.2910   74.5970   15.0620 H   0  0  0  0  0  0  0  0  0  0  0  0
   18.1960   73.6700    9.6060 H   0  0  0  0  0  0  0  0  0  0  0  0
   18.6720   75.1320    7.6040 H   0  0  0  0  0  0  0  0  0  0  0  0
   20.2430   79.2040    9.5190 H   0  0  0  0  0  0  0  0  0  0  0  0
   20.2360   78.8610   11.2340 H   0  0  0  0  0  0  0  0  0  0  0  0
   22.4330   77.5780   10.1680 H   0  0  0  0  0  0  0  0  0  0  0  0
   23.6760   79.1020    9.2480 H   0  0  0  0  0  0  0  0  0  0  0  0
   22.1820   79.1750    8.2920 H   0  0  0  0  0  0  0  0  0  0  0  0
   23.5630   81.2840    9.7860 H   0  0  0  0  0  0  0  0  0  0  0  0
   22.1100   81.4170    8.7890 H   0  0  0  0  0  0  0  0  0  0  0  0
   21.8590   80.5850   12.7510 H   0  0  0  0  0  0  0  0  0  0  0  0
   23.4910   80.8470   12.0060 H   0  0  0  0  0  0  0  0  0  0  0  0
   21.9260   78.3660   12.3830 H   0  0  0  0  0  0  0  0  0  0  0  0
   23.5430   78.5880   11.7160 H   0  0  0  0  0  0  0  0  0  0  0  0
  1  2  1  0  0  0  0
  2  7  1  0  0  0  0
  3  4  1  0  0  0  0
  3  2  2  0  0  0  0
  4  5  2  0  0  0  0
  5  8  1  0  0  0  0
  5  6  1  0  0  0  0
  6 30  1  0  0  0  0
  7  6  2  0  0  0  0
  7 31  1  0  0  0  0
  9 34  1  0  0  0  0
  9  8  1  0  0  0  0
  9 32  1  0  0  0  0
 10 35  1  0  0  0  0
 10  4  1  0  0  0  0
 11 10  2  0  0  0  0
 12 11  1  0  0  0  0
 13 12  1  0  0  0  0
 14 13  1  0  0  0  0
 14 27  1  0  0  0  0
 15 14  2  0  0  0  0
 16 17  2  0  0  0  0
 16 15  1  0  0  0  0
 17 18  1  0  0  0  0
 18 19  1  0  0  0  0
 18 13  2  0  0  0  0
 19 20  1  0  0  0  0
 19 39  1  0  0  0  0
 20 25  1  0  0  0  0
 21 22  1  0  0  0  0
 21 20  1  0  0  0  0
 22 43  1  0  0  0  0
 22 23  1  0  0  0  0
 23 24  1  0  0  0  0
 24 46  1  0  0  0  0
 24 45  1  0  0  0  0
 25 48  1  0  0  0  0
 25 24  1  0  0  0  0
 25 47  1  0  0  0  0
 26 17  1  0  0  0  0
 27 28  2  0  0  0  0
 27 11  1  0  0  0  0
 29  3  1  0  0  0  0
 33  9  1  0  0  0  0
 36 15  1  0  0  0  0
 37 16  1  0  0  0  0
 38 19  1  0  0  0  0
 40 20  1  0  0  0  0
 41 21  1  0  0  0  0
 42 21  1  0  0  0  0
 44 22  1  0  0  0  0
M  END
>  <Pose>
1

>  <Score>
-6.09

$$$$
