
 OpenBabel03222202113D

 50 53  0  0  0  0  0  0  0  0999 V2000
   19.8030   77.8610    8.6100 B   0  0  0  0  0  0  0  0  0  0  0  0
   20.7730   78.9000    9.8750 C   0  0  0  0  0  0  0  0  0  0  0  0
   21.2890   78.3500   11.0410 C   0  0  0  0  0  0  0  0  0  0  0  0
   21.9870   79.0970   11.9540 C   0  0  0  0  0  0  0  0  0  0  0  0
   22.1830   80.4360   11.7090 C   0  0  0  0  0  0  0  0  0  0  0  0
   21.6760   80.9860   10.5590 C   0  0  0  0  0  0  0  0  0  0  0  0
   20.9670   80.2410    9.6250 C   0  0  0  0  0  0  0  0  0  0  0  0
   22.5160   78.4840   13.1680 C   0  0  0  0  0  0  0  0  0  0  0  0
   22.0390   77.4180   13.6360 O   0  0  0  0  0  0  0  0  0  0  0  0
   23.6330   79.1290   13.8610 C   0  0  0  0  0  0  0  0  0  0  0  0
   23.2880   79.7120   15.0980 N   0  0  0  0  0  0  0  0  0  0  0  0
   23.1490   78.8330   16.1990 C   0  0  0  0  0  0  0  0  0  0  0  0
   22.6780   79.4430   17.4630 C   0  0  0  0  0  0  0  0  0  0  0  0
   21.4820   80.1960   17.2590 N   0  0  0  0  0  0  0  0  0  0  0  0
   21.1810   80.6580   15.9350 C   0  0  0  0  0  0  0  0  0  0  0  0
   22.3960   80.8170   15.0500 C   0  0  0  0  0  0  0  0  0  0  0  0
   20.6000   80.5230   18.3230 C   0  0  0  0  0  0  0  0  0  0  0  0
   20.0970   79.5250   19.0470 C   0  0  0  0  0  0  0  0  0  0  0  0
   20.2190   78.1140   19.0340 N   0  0  0  0  0  0  0  0  0  0  0  0
   19.4030   77.6630   20.0960 N   0  0  0  0  0  0  0  0  0  0  0  0
   18.8070   78.7810   20.7260 C   0  0  0  0  0  0  0  0  0  0  0  0
   19.1840   79.9100   20.1460 C   0  0  0  0  0  0  0  0  0  0  0  0
   18.8890   81.2830   20.3780 N   0  0  0  0  0  0  0  0  0  0  0  0
   19.4030   82.2100   19.6480 C   0  0  0  0  0  0  0  0  0  0  0  0
   20.2780   81.9040   18.5880 N   0  0  0  0  0  0  0  0  0  0  0  0
   17.8780   78.7570   21.8870 C   0  0  0  0  0  0  0  0  0  0  0  0
   21.0080   77.3150   18.1290 C   0  0  0  0  0  0  0  0  0  0  0  0
   21.1000   77.2950   11.1740 H   0  0  0  0  0  0  0  0  0  0  0  0
   22.7420   81.0070   12.4520 H   0  0  0  0  0  0  0  0  0  0  0  0
   21.8180   82.0360   10.3470 H   0  0  0  0  0  0  0  0  0  0  0  0
   20.5750   80.7170    8.7130 H   0  0  0  0  0  0  0  0  0  0  0  0
   24.1010   79.9000   13.1930 H   0  0  0  0  0  0  0  0  0  0  0  0
   24.4730   78.3930   14.0410 H   0  0  0  0  0  0  0  0  0  0  0  0
   22.5670   77.9400   15.9060 H   0  0  0  0  0  0  0  0  0  0  0  0
   24.1890   78.4250   16.4050 H   0  0  0  0  0  0  0  0  0  0  0  0
   23.4720   80.1520   17.8230 H   0  0  0  0  0  0  0  0  0  0  0  0
   22.5960   78.6870   18.2690 H   0  0  0  0  0  0  0  0  0  0  0  0
   20.3520   80.1510   15.4300 H   0  0  0  0  0  0  0  0  0  0  0  0
   20.8010   81.7180   16.0850 H   0  0  0  0  0  0  0  0  0  0  0  0
   22.0250   80.9310   14.0100 H   0  0  0  0  0  0  0  0  0  0  0  0
   22.9720   81.7410   15.2780 H   0  0  0  0  0  0  0  0  0  0  0  0
   19.3030   76.6500   20.3200 H   0  0  0  0  0  0  0  0  0  0  0  0
   19.1340   83.2600   19.8780 H   0  0  0  0  0  0  0  0  0  0  0  0
   20.7150   82.6140   17.9750 H   0  0  0  0  0  0  0  0  0  0  0  0
   17.4680   77.7360   22.0060 H   0  0  0  0  0  0  0  0  0  0  0  0
   17.1200   79.5420   21.8350 H   0  0  0  0  0  0  0  0  0  0  0  0
   18.4980   78.9520   22.8050 H   0  0  0  0  0  0  0  0  0  0  0  0
   20.9170   77.5740   17.0780 H   0  0  0  0  0  0  0  0  0  0  0  0
   22.0450   77.2320   18.5170 H   0  0  0  0  0  0  0  0  0  0  0  0
   20.5620   76.2690   18.2010 H   0  0  0  0  0  0  0  0  0  0  0  0
  1  2  1  0  0  0  0
  2  3  1  0  0  0  0
  3 28  1  0  0  0  0
  3  4  2  0  0  0  0
  4  8  1  0  0  0  0
  5  4  1  0  0  0  0
  5 29  1  0  0  0  0
  6  5  2  0  0  0  0
  7  2  2  0  0  0  0
  7  6  1  0  0  0  0
  8  9  2  0  0  0  0
  8 10  1  0  0  0  0
 10 33  1  0  0  0  0
 10 11  1  0  0  0  0
 11 12  1  0  0  0  0
 12 35  1  0  0  0  0
 12 13  1  0  0  0  0
 13 36  1  0  0  0  0
 13 37  1  0  0  0  0
 14 13  1  0  0  0  0
 14 17  1  0  0  0  0
 15 39  1  0  0  0  0
 15 14  1  0  0  0  0
 16 11  1  0  0  0  0
 16 41  1  0  0  0  0
 16 15  1  0  0  0  0
 17 25  1  0  0  0  0
 17 18  2  0  0  0  0
 18 22  1  0  0  0  0
 19 18  1  0  0  0  0
 19 20  1  0  0  0  0
 20 42  1  0  0  0  0
 20 21  1  0  0  0  0
 21 26  1  0  0  0  0
 22 23  1  0  0  0  0
 22 21  2  0  0  0  0
 24 43  1  0  0  0  0
 24 23  2  0  0  0  0
 25 24  1  0  0  0  0
 26 45  1  0  0  0  0
 26 47  1  0  0  0  0
 27 50  1  0  0  0  0
 27 49  1  0  0  0  0
 27 19  1  0  0  0  0
 30  6  1  0  0  0  0
 31  7  1  0  0  0  0
 32 10  1  0  0  0  0
 34 12  1  0  0  0  0
 38 15  1  0  0  0  0
 40 16  1  0  0  0  0
 44 25  1  0  0  0  0
 46 26  1  0  0  0  0
 48 27  1  0  0  0  0
M  END
>  <Pose>
1

>  <Score>
-5.81

$$$$
