
 OpenBabel03222202113D

 42 45  0  0  1  0  0  0  0  0999 V2000
   17.7320   74.7220    5.5670 B   0  0  0  0  0  0  0  0  0  0  0  0
   18.6150   75.4900    7.0650 C   0  0  0  0  0  0  0  0  0  0  0  0
   18.4080   76.7890    7.4540 C   0  0  0  0  0  0  0  0  0  0  0  0
   19.0320   77.3680    8.5300 C   0  0  0  0  0  0  0  0  0  0  0  0
   19.9060   76.5800    9.2400 C   0  0  0  0  0  0  0  0  0  0  0  0
   20.1460   75.2470    8.8770 C   0  0  0  0  0  0  0  0  0  0  0  0
   19.4920   74.7050    7.7810 C   0  0  0  0  0  0  0  0  0  0  0  0
   18.8030   78.7460    8.9300 C   0  0  0  0  0  0  0  0  0  0  0  0
   17.6160   79.1850    8.7330 O   0  0  0  0  0  0  0  0  0  0  0  0
   19.7700   79.6000    9.5020 N   0  0  0  0  0  0  0  0  0  0  0  0
   20.7420   79.0840   10.3930 C   0  0  2  0  0  0  0  0  0  0  0  0
   20.2020   78.4160   11.6130 C   0  0  0  0  0  0  0  0  0  0  0  0
   21.3500   78.4390   12.5350 N   0  0  0  0  0  0  0  0  0  0  0  0
   22.3630   79.3460   12.0150 C   0  0  1  0  0  0  0  0  0  0  0  0
   21.6080   80.1830   11.0280 C   0  0  0  0  0  0  0  0  0  0  0  0
   22.9190   80.0930   13.1400 C   0  0  0  0  0  0  0  0  0  0  0  0
   23.2530   81.2770   13.0180 O   0  0  0  0  0  0  0  0  0  0  0  0
   23.0800   79.4450   14.4100 N   0  0  0  0  0  0  0  0  0  0  0  0
   22.9170   78.0120   14.4160 C   0  0  1  0  0  0  0  0  0  0  0  0
   23.0090   77.4900   15.7910 C   0  0  0  0  0  0  0  0  0  0  0  0
   23.6640   78.6390   16.5320 C   0  0  0  0  0  0  0  0  0  0  0  0
   23.3750   79.8710   15.7430 C   0  0  0  0  0  0  0  0  0  0  0  0
   21.5880   77.7560   13.7620 C   0  0  0  0  0  0  0  0  0  0  0  0
   20.7410   76.9860   14.2690 O   0  0  0  0  0  0  0  0  0  0  0  0
   17.7160   77.4180    6.8940 H   0  0  0  0  0  0  0  0  0  0  0  0
   20.4390   76.9540   10.1000 H   0  0  0  0  0  0  0  0  0  0  0  0
   20.8330   74.6270    9.4350 H   0  0  0  0  0  0  0  0  0  0  0  0
   19.7080   73.6740    7.5380 H   0  0  0  0  0  0  0  0  0  0  0  0
   19.7580   80.6080    9.2610 H   0  0  0  0  0  0  0  0  0  0  0  0
   21.4610   78.3900    9.9140 H   0  0  0  0  0  0  0  0  0  0  0  0
   19.4010   79.0930   12.0260 H   0  0  0  0  0  0  0  0  0  0  0  0
   19.8100   77.4110   11.4640 H   0  0  0  0  0  0  0  0  0  0  0  0
   23.1290   78.7110   11.4980 H   0  0  0  0  0  0  0  0  0  0  0  0
   20.9980   80.9120   11.5640 H   0  0  0  0  0  0  0  0  0  0  0  0
   22.2670   80.6190   10.2500 H   0  0  0  0  0  0  0  0  0  0  0  0
   23.6600   77.5530   13.7070 H   0  0  0  0  0  0  0  0  0  0  0  0
   23.7350   76.6390   15.8030 H   0  0  0  0  0  0  0  0  0  0  0  0
   22.0700   77.1580   16.2510 H   0  0  0  0  0  0  0  0  0  0  0  0
   24.7820   78.4910   16.5490 H   0  0  0  0  0  0  0  0  0  0  0  0
   23.2830   78.6410   17.5610 H   0  0  0  0  0  0  0  0  0  0  0  0
   22.5230   80.3960   16.2330 H   0  0  0  0  0  0  0  0  0  0  0  0
   24.2760   80.5500   15.7840 H   0  0  0  0  0  0  0  0  0  0  0  0
  1  2  1  0  0  0  0
  2  3  2  0  0  0  0
  2  7  1  0  0  0  0
  3  4  1  0  0  0  0
  4  8  1  0  0  0  0
  4  5  2  0  0  0  0
  5 26  1  0  0  0  0
  6  5  1  0  0  0  0
  6 27  1  0  0  0  0
  7  6  2  0  0  0  0
  8 10  1  0  0  0  0
  9  8  2  0  0  0  0
 10 11  1  0  0  0  0
 11 30  1  6  0  0  0
 11 15  1  0  0  0  0
 11 12  1  0  0  0  0
 12 31  1  0  0  0  0
 12 13  1  0  0  0  0
 13 23  1  0  0  0  0
 14 33  1  6  0  0  0
 14 13  1  0  0  0  0
 14 16  1  0  0  0  0
 15 34  1  0  0  0  0
 15 14  1  0  0  0  0
 16 18  1  0  0  0  0
 17 16  2  0  0  0  0
 18 19  1  0  0  0  0
 18 22  1  0  0  0  0
 19 36  1  6  0  0  0
 19 20  1  0  0  0  0
 20 37  1  0  0  0  0
 20 38  1  0  0  0  0
 20 21  1  0  0  0  0
 21 39  1  0  0  0  0
 21 40  1  0  0  0  0
 22 42  1  0  0  0  0
 22 41  1  0  0  0  0
 22 21  1  0  0  0  0
 23 24  2  0  0  0  0
 23 19  1  0  0  0  0
 25  3  1  0  0  0  0
 28  7  1  0  0  0  0
 29 10  1  0  0  0  0
 32 12  1  0  0  0  0
 35 15  1  0  0  0  0
M  END
>  <Pose>
1

>  <Score>
-5.79

$$$$
