
 OpenBabel03222202113D

 50 53  0  0  0  0  0  0  0  0999 V2000
   20.8150   82.6090   23.8580 B   0  0  0  0  0  0  0  0  0  0  0  0
   20.3830   82.4710   21.9970 C   0  0  0  0  0  0  0  0  0  0  0  0
   20.4010   81.2610   21.3470 C   0  0  0  0  0  0  0  0  0  0  0  0
   20.0980   81.1120   20.0050 C   0  0  0  0  0  0  0  0  0  0  0  0
   19.7640   82.2600   19.3200 C   0  0  0  0  0  0  0  0  0  0  0  0
   19.7350   83.5050   19.9430 C   0  0  0  0  0  0  0  0  0  0  0  0
   20.0460   83.6020   21.2820 C   0  0  0  0  0  0  0  0  0  0  0  0
   20.1250   79.8130   19.3460 C   0  0  0  0  0  0  0  0  0  0  0  0
   19.3420   78.8520   19.6440 N   0  0  0  0  0  0  0  0  0  0  0  0
   19.3480   77.5970   19.0300 N   0  0  0  0  0  0  0  0  0  0  0  0
   19.9520   77.3950   17.7580 C   0  0  0  0  0  0  0  0  0  0  0  0
   19.3590   76.6150   16.8490 N   0  0  0  0  0  4  0  0  0  0  0  0
   19.8850   76.3800   15.6150 C   0  0  0  0  0  0  0  0  0  0  0  0
   21.0610   76.9920   15.3570 N   0  0  0  0  0  0  0  0  0  0  0  0
   21.7060   77.7860   16.2280 C   0  0  0  0  0  0  0  0  0  0  0  0
   21.1110   77.9650   17.4330 N   0  0  0  0  0  0  0  0  0  0  0  0
   22.9300   78.4110   15.9340 N   0  0  0  0  0  0  0  0  0  0  0  0
   23.1090   79.8330   16.0500 C   0  0  0  0  0  0  0  0  0  0  0  0
   24.5300   80.0330   16.5930 C   0  0  0  0  0  0  0  0  0  0  0  0
   24.9260   78.9200   17.3310 O   0  0  0  0  0  0  0  0  0  0  0  0
   25.1330   77.7920   16.5790 C   0  0  0  0  0  0  0  0  0  0  0  0
   24.0510   77.6270   15.5020 C   0  0  0  0  0  0  0  0  0  0  0  0
   19.2390   75.5530   14.6700 N   0  0  0  0  0  0  0  0  0  0  0  0
   18.5610   76.1200   13.5390 C   0  0  0  0  0  0  0  0  0  0  0  0
   19.1310   75.4450   12.2960 C   0  0  0  0  0  0  0  0  0  0  0  0
   18.8700   74.0850   12.4370 O   0  0  0  0  0  0  0  0  0  0  0  0
   19.6000   73.5120   13.4630 C   0  0  0  0  0  0  0  0  0  0  0  0
   19.2410   74.1230   14.8140 C   0  0  0  0  0  0  0  0  0  0  0  0
   20.6640   80.3490   21.8860 H   0  0  0  0  0  0  0  0  0  0  0  0
   19.5130   82.2210   18.2610 H   0  0  0  0  0  0  0  0  0  0  0  0
   19.4740   84.4100   19.4090 H   0  0  0  0  0  0  0  0  0  0  0  0
   20.0160   84.5730   21.7440 H   0  0  0  0  0  0  0  0  0  0  0  0
   20.8530   79.6600   18.5620 H   0  0  0  0  0  0  0  0  0  0  0  0
   18.8930   76.8050   19.5290 H   0  0  0  0  0  0  0  0  0  0  0  0
   22.3650   80.3110   16.7170 H   0  0  0  0  0  0  0  0  0  0  0  0
   23.1080   80.2570   15.0320 H   0  0  0  0  0  0  0  0  0  0  0  0
   24.4730   80.8790   17.2960 H   0  0  0  0  0  0  0  0  0  0  0  0
   25.2440   80.2460   15.7900 H   0  0  0  0  0  0  0  0  0  0  0  0
   26.1340   77.6900   16.1590 H   0  0  0  0  0  0  0  0  0  0  0  0
   24.9850   76.9050   17.2650 H   0  0  0  0  0  0  0  0  0  0  0  0
   23.7480   76.5810   15.4060 H   0  0  0  0  0  0  0  0  0  0  0  0
   24.4760   78.0240   14.5310 H   0  0  0  0  0  0  0  0  0  0  0  0
   18.6400   77.2170   13.4810 H   0  0  0  0  0  0  0  0  0  0  0  0
   17.4900   75.7810   13.5950 H   0  0  0  0  0  0  0  0  0  0  0  0
   20.2250   75.5750   12.3430 H   0  0  0  0  0  0  0  0  0  0  0  0
   18.6750   75.8100   11.3750 H   0  0  0  0  0  0  0  0  0  0  0  0
   20.6780   73.6790   13.2210 H   0  0  0  0  0  0  0  0  0  0  0  0
   19.3700   72.4290   13.4690 H   0  0  0  0  0  0  0  0  0  0  0  0
   18.2100   73.7830   15.0430 H   0  0  0  0  0  0  0  0  0  0  0  0
   19.9570   73.7540   15.5660 H   0  0  0  0  0  0  0  0  0  0  0  0
  2  1  1  0  0  0  0
  3 29  1  0  0  0  0
  3  2  1  0  0  0  0
  4  3  2  0  0  0  0
  5  6  2  0  0  0  0
  5  4  1  0  0  0  0
  6  7  1  0  0  0  0
  7 32  1  0  0  0  0
  7  2  2  0  0  0  0
  8  9  2  0  0  0  0
  8  4  1  0  0  0  0
 10 34  1  0  0  0  0
 10  9  1  0  0  0  0
 11 10  1  0  0  0  0
 12 11  2  0  0  0  0
 13 12  2  0  0  0  0
 14 13  1  0  0  0  0
 14 15  2  0  0  0  0
 15 16  1  0  0  0  0
 16 11  1  0  0  0  0
 17 18  1  0  0  0  0
 17 15  1  0  0  0  0
 18 19  1  0  0  0  0
 18 35  1  0  0  0  0
 19 37  1  0  0  0  0
 19 20  1  0  0  0  0
 21 40  1  0  0  0  0
 21 20  1  0  0  0  0
 22 17  1  0  0  0  0
 22 21  1  0  0  0  0
 23 28  1  0  0  0  0
 23 13  1  0  0  0  0
 24 44  1  0  0  0  0
 24 23  1  0  0  0  0
 25 45  1  0  0  0  0
 25 26  1  0  0  0  0
 25 24  1  0  0  0  0
 26 27  1  0  0  0  0
 27 48  1  0  0  0  0
 27 28  1  0  0  0  0
 28 49  1  0  0  0  0
 28 50  1  0  0  0  0
 30  5  1  0  0  0  0
 31  6  1  0  0  0  0
 33  8  1  0  0  0  0
 36 18  1  0  0  0  0
 38 19  1  0  0  0  0
 39 21  1  0  0  0  0
 41 22  1  0  0  0  0
 42 22  1  0  0  0  0
 43 24  1  0  0  0  0
 46 25  1  0  0  0  0
 47 27  1  0  0  0  0
M  END
>  <Pose>
1

>  <Score>
-7.33

$$$$
