
 OpenBabel03222202113D

 61 64  0  0  1  0  0  0  0  0999 V2000
   20.5260   78.1860    9.4580 B   0  0  0  0  0  0  0  0  0  0  0  0
   19.7450   76.4440    9.4390 C   0  0  0  0  0  0  0  0  0  0  0  0
   19.2320   75.8300   10.5400 C   0  0  0  0  0  0  0  0  0  0  0  0
   18.6590   74.5700   10.5680 C   0  0  0  0  0  0  0  0  0  0  0  0
   18.6020   73.8710    9.3660 C   0  0  0  0  0  0  0  0  0  0  0  0
   19.1120   74.4650    8.2270 C   0  0  0  0  0  0  0  0  0  0  0  0
   19.6800   75.7270    8.2330 C   0  0  0  0  0  0  0  0  0  0  0  0
   18.1760   74.0530   11.8520 C   0  0  1  0  0  0  0  0  0  0  0  0
   18.3110   72.6460   11.9160 N   0  0  0  0  0  0  0  0  0  0  0  0
   19.2620   72.3020   12.9100 C   0  0  0  0  0  0  0  0  0  0  0  0
   19.6750   71.1240   13.1460 O   0  0  0  0  0  0  0  0  0  0  0  0
   19.6640   73.5080   13.6000 C   0  0  0  0  0  0  0  0  0  0  0  0
   20.5090   73.4860   14.5350 O   0  0  0  0  0  0  0  0  0  0  0  0
   18.9360   74.6100   13.0010 C   0  0  0  0  0  0  0  0  0  0  0  0
   19.0120   75.8590   13.4020 C   0  0  0  0  0  0  0  0  0  0  0  0
   18.3230   76.8280   12.7090 O   0  0  0  0  0  0  0  0  0  0  0  0
   19.7950   76.2290   14.5550 C   0  0  0  0  0  0  0  0  0  0  0  0
   21.0590   76.8390   14.4820 C   0  0  0  0  0  0  0  0  0  0  0  0
   21.4990   77.0850   15.7220 N   0  0  0  0  0  0  0  0  0  0  0  0
   20.5690   76.6560   16.5550 N   0  0  0  0  0  0  0  0  0  0  0  0
   19.5250   76.1360   15.8920 C   0  0  0  0  0  0  0  0  0  0  0  0
   22.7230   77.7020   16.0940 C   0  0  0  0  0  0  0  0  0  0  0  0
   22.6910   78.9870   16.6200 C   0  0  0  0  0  0  0  0  0  0  0  0
   23.8410   79.6430   17.0130 C   0  0  0  0  0  0  0  0  0  0  0  0
   25.0910   79.0340   16.8960 C   0  0  0  0  0  0  0  0  0  0  0  0
   25.1230   77.7540   16.3710 C   0  0  0  0  0  0  0  0  0  0  0  0
   23.9670   77.1240   15.9890 C   0  0  0  0  0  0  0  0  0  0  0  0
   21.7600   77.1470   13.2010 C   0  0  0  0  0  0  0  0  0  0  0  0
   17.5720   71.6390   11.1040 C   0  0  0  0  0  0  0  0  0  0  0  0
   16.8480   70.6850   12.0180 C   0  0  0  0  0  0  0  0  0  0  0  0
   15.7510   69.9260   11.3410 C   0  0  0  0  0  0  0  0  0  0  0  0
   15.3040   70.4430   10.0900 N   0  0  0  0  0  4  0  0  0  0  0  0
   15.1880   69.5070    9.0200 C   0  0  0  0  0  0  0  0  0  0  0  0
   13.9960   71.0990   10.2510 C   0  0  0  0  0  0  0  0  0  0  0  0
   19.2970   76.4140   11.4800 H   0  0  0  0  0  0  0  0  0  0  0  0
   18.1670   72.8880    9.3480 H   0  0  0  0  0  0  0  0  0  0  0  0
   19.0640   73.9110    7.2850 H   0  0  0  0  0  0  0  0  0  0  0  0
   20.0830   76.1940    7.3410 H   0  0  0  0  0  0  0  0  0  0  0  0
   17.0880   74.3060   11.9520 H   0  0  0  0  0  0  0  0  0  0  0  0
   18.6150   75.7250   16.3330 H   0  0  0  0  0  0  0  0  0  0  0  0
   21.6920   79.4470   16.7040 H   0  0  0  0  0  0  0  0  0  0  0  0
   23.7810   80.6430   17.4230 H   0  0  0  0  0  0  0  0  0  0  0  0
   25.9850   79.5760   17.2110 H   0  0  0  0  0  0  0  0  0  0  0  0
   26.1080   77.2910   16.2840 H   0  0  0  0  0  0  0  0  0  0  0  0
   24.0390   76.1230   15.5880 H   0  0  0  0  0  0  0  0  0  0  0  0
   21.0310   77.4940   12.4300 H   0  0  0  0  0  0  0  0  0  0  0  0
   22.3750   76.2980   12.8520 H   0  0  0  0  0  0  0  0  0  0  0  0
   22.4580   78.0060   13.3520 H   0  0  0  0  0  0  0  0  0  0  0  0
   16.9160   72.1490   10.3750 H   0  0  0  0  0  0  0  0  0  0  0  0
   18.3490   71.0220   10.5680 H   0  0  0  0  0  0  0  0  0  0  0  0
   17.6270   69.9020   12.2680 H   0  0  0  0  0  0  0  0  0  0  0  0
   16.5910   71.1240   12.9840 H   0  0  0  0  0  0  0  0  0  0  0  0
   14.8380   69.8540   12.0120 H   0  0  0  0  0  0  0  0  0  0  0  0
   16.0690   68.8510   11.2000 H   0  0  0  0  0  0  0  0  0  0  0  0
   15.9520   71.2300    9.7790 H   0  0  0  0  0  0  0  0  0  0  0  0
   14.1620   69.5120    8.5620 H   0  0  0  0  0  0  0  0  0  0  0  0
   15.5340   68.4760    9.2280 H   0  0  0  0  0  0  0  0  0  0  0  0
   15.8540   69.8580    8.1770 H   0  0  0  0  0  0  0  0  0  0  0  0
   14.0370   72.1620    9.9600 H   0  0  0  0  0  0  0  0  0  0  0  0
   13.7300   71.0280   11.3290 H   0  0  0  0  0  0  0  0  0  0  0  0
   13.2140   70.5320    9.6960 H   0  0  0  0  0  0  0  0  0  0  0  0
  2  1  1  0  0  0  0
  2  3  1  0  0  0  0
  3  4  2  0  0  0  0
  3 35  1  0  0  0  0
  4  8  1  0  0  0  0
  5  4  1  0  0  0  0
  6  7  1  0  0  0  0
  6  5  2  0  0  0  0
  7  2  2  0  0  0  0
  8  9  1  0  0  0  0
  8 39  1  1  0  0  0
  8 14  1  0  0  0  0
  9 10  1  0  0  0  0
 10 11  2  0  0  0  0
 10 12  1  0  0  0  0
 12 13  2  0  0  0  0
 14 15  2  0  0  0  0
 14 12  1  0  0  0  0
 15 17  1  0  0  0  0
 16 15  1  0  0  0  0
 17 21  1  0  0  0  0
 18 17  2  0  0  0  0
 18 19  1  0  0  0  0
 19 22  1  0  0  0  0
 19 20  1  0  0  0  0
 21 40  1  0  0  0  0
 21 20  2  0  0  0  0
 22 23  1  0  0  0  0
 23 41  1  0  0  0  0
 23 24  2  0  0  0  0
 24 42  1  0  0  0  0
 25 24  1  0  0  0  0
 25 43  1  0  0  0  0
 26 25  2  0  0  0  0
 27 22  2  0  0  0  0
 27 26  1  0  0  0  0
 28 48  1  0  0  0  0
 28 18  1  0  0  0  0
 29  9  1  0  0  0  0
 29 30  1  0  0  0  0
 30 51  1  0  0  0  0
 30 52  1  0  0  0  0
 31 53  1  0  0  0  0
 31 30  1  0  0  0  0
 32 34  1  0  0  0  0
 32 31  1  0  0  0  0
 33 57  1  0  0  0  0
 33 32  1  0  0  0  0
 34 60  1  0  0  0  0
 36  5  1  0  0  0  0
 37  6  1  0  0  0  0
 38  7  1  0  0  0  0
 44 26  1  0  0  0  0
 45 27  1  0  0  0  0
 46 28  1  0  0  0  0
 47 28  1  0  0  0  0
 49 29  1  0  0  0  0
 50 29  1  0  0  0  0
 54 31  1  0  0  0  0
 55 32  1  0  0  0  0
 56 33  1  0  0  0  0
 58 33  1  0  0  0  0
 59 34  1  0  0  0  0
 61 34  1  0  0  0  0
M  END
>  <Pose>
1

>  <Score>
-5.35

$$$$
