
 OpenBabel03222202113D

 63 66  0  0  1  0  0  0  0  0999 V2000
   25.7340   75.7560   15.0270 B   0  0  0  0  0  0  0  0  0  0  0  0
   25.2020   77.4420   15.7440 C   0  0  0  0  0  0  0  0  0  0  0  0
   24.0160   78.0150   15.3380 C   0  0  0  0  0  0  0  0  0  0  0  0
   23.5860   79.2400   15.8310 C   0  0  0  0  0  0  0  0  0  0  0  0
   24.4260   79.8450   16.7540 C   0  0  0  0  0  0  0  0  0  0  0  0
   25.6130   79.2790   17.1660 C   0  0  0  0  0  0  0  0  0  0  0  0
   26.0200   78.0630   16.6630 C   0  0  0  0  0  0  0  0  0  0  0  0
   22.3040   79.8470   15.3970 C   0  0  2  0  0  0  0  0  0  0  0  0
   21.2390   79.2960   16.2120 N   0  0  0  0  0  0  0  0  0  0  0  0
   20.9880   77.9920   15.7100 C   0  0  0  0  0  0  0  0  0  0  0  0
   20.5010   77.0190   16.3280 O   0  0  0  0  0  0  0  0  0  0  0  0
   21.4190   77.9880   14.2940 C   0  0  0  0  0  0  0  0  0  0  0  0
   21.3640   77.0360   13.4860 O   0  0  0  0  0  0  0  0  0  0  0  0
   21.9170   79.3330   14.0360 C   0  0  0  0  0  0  0  0  0  0  0  0
   21.9520   79.9220   12.8800 C   0  0  0  0  0  0  0  0  0  0  0  0
   22.4100   81.2550   12.8290 O   0  0  0  0  0  0  0  0  0  0  0  0
   21.5600   79.3280   11.6110 C   0  0  0  0  0  0  0  0  0  0  0  0
   22.2520   78.7970   10.5750 C   0  0  0  0  0  0  0  0  0  0  0  0
   21.3670   78.3380    9.6670 N   0  0  0  0  0  0  0  0  0  0  0  0
   20.1070   78.5490   10.0670 C   0  0  0  0  0  0  0  0  0  0  0  0
   20.1980   79.1690   11.2850 C   0  0  0  0  0  0  0  0  0  0  0  0
   19.0390   79.6030   12.1220 C   0  0  0  0  0  0  0  0  0  0  0  0
   18.8700   78.1880    9.3450 C   0  0  0  0  0  0  0  0  0  0  0  0
   17.9740   79.0350    9.2180 O   0  0  0  0  0  0  0  0  0  0  0  0
   18.7080   76.9230    8.8130 O   0  0  0  0  0  0  0  0  0  0  0  0
   19.3160   76.4920    7.6180 C   0  0  0  0  0  0  0  0  0  0  0  0
   23.7420   78.7480   10.3900 C   0  0  0  0  0  0  0  0  0  0  0  0
   20.5480   79.9450   17.3300 C   0  0  0  0  0  0  0  0  0  0  0  0
   20.3700   81.4260   17.0750 C   0  0  0  0  0  0  0  0  0  0  0  0
   19.9550   82.1650   18.2220 N   0  0  0  0  0  4  0  0  0  0  0  0
   20.5230   83.5060   18.2970 C   0  0  0  0  0  0  0  0  0  0  0  0
   19.6760   84.3030   19.2520 C   0  0  0  0  0  0  0  0  0  0  0  0
   19.0250   83.4490   20.1060 O   0  0  0  0  0  0  0  0  0  0  0  0
   19.8090   82.4160   20.5890 C   0  0  0  0  0  0  0  0  0  0  0  0
   20.3340   81.5170   19.4710 C   0  0  0  0  0  0  0  0  0  0  0  0
   23.3790   77.5260   14.6090 H   0  0  0  0  0  0  0  0  0  0  0  0
   24.1080   80.8060   17.1540 H   0  0  0  0  0  0  0  0  0  0  0  0
   26.2610   79.7670   17.8910 H   0  0  0  0  0  0  0  0  0  0  0  0
   26.9650   77.6030   16.9860 H   0  0  0  0  0  0  0  0  0  0  0  0
   22.3330   80.9510   15.4100 H   0  0  0  0  0  0  0  0  0  0  0  0
   21.6430   77.8720    8.7540 H   0  0  0  0  0  0  0  0  0  0  0  0
   18.3190   80.1940   11.5190 H   0  0  0  0  0  0  0  0  0  0  0  0
   19.4040   80.2730   12.9180 H   0  0  0  0  0  0  0  0  0  0  0  0
   18.4880   78.7530   12.5490 H   0  0  0  0  0  0  0  0  0  0  0  0
   20.3700   76.8380    7.5230 H   0  0  0  0  0  0  0  0  0  0  0  0
   18.7120   76.7860    6.7180 H   0  0  0  0  0  0  0  0  0  0  0  0
   19.3060   75.3710    7.6480 H   0  0  0  0  0  0  0  0  0  0  0  0
   24.1340   77.7280   10.5380 H   0  0  0  0  0  0  0  0  0  0  0  0
   24.2320   79.4630   11.0660 H   0  0  0  0  0  0  0  0  0  0  0  0
   23.9010   79.0710    9.3130 H   0  0  0  0  0  0  0  0  0  0  0  0
   19.5490   79.4910   17.4940 H   0  0  0  0  0  0  0  0  0  0  0  0
   21.1590   79.8630   18.2550 H   0  0  0  0  0  0  0  0  0  0  0  0
   19.6360   81.5430   16.2220 H   0  0  0  0  0  0  0  0  0  0  0  0
   21.3050   81.8780   16.7010 H   0  0  0  0  0  0  0  0  0  0  0  0
   18.9200   82.2170   18.2410 H   0  0  0  0  0  0  0  0  0  0  0  0
   21.5330   83.3870   18.7850 H   0  0  0  0  0  0  0  0  0  0  0  0
   20.6890   83.9720   17.3280 H   0  0  0  0  0  0  0  0  0  0  0  0
   20.2480   85.0500   19.8320 H   0  0  0  0  0  0  0  0  0  0  0  0
   18.8920   84.8750   18.6890 H   0  0  0  0  0  0  0  0  0  0  0  0
   19.1180   81.7730   21.2070 H   0  0  0  0  0  0  0  0  0  0  0  0
   20.6220   82.7530   21.2620 H   0  0  0  0  0  0  0  0  0  0  0  0
   19.9620   80.4950   19.5520 H   0  0  0  0  0  0  0  0  0  0  0  0
   21.4520   81.5390   19.5510 H   0  0  0  0  0  0  0  0  0  0  0  0
  1  2  1  0  0  0  0
  2  7  1  0  0  0  0
  3  2  2  0  0  0  0
  3  4  1  0  0  0  0
  4  5  2  0  0  0  0
  5 37  1  0  0  0  0
  5  6  1  0  0  0  0
  6 38  1  0  0  0  0
  7 39  1  0  0  0  0
  7  6  2  0  0  0  0
  8 40  1  1  0  0  0
  8  4  1  0  0  0  0
  8  9  1  0  0  0  0
  9 28  1  0  0  0  0
 10  9  1  0  0  0  0
 10 11  2  0  0  0  0
 12 10  1  0  0  0  0
 13 12  2  0  0  0  0
 14 12  1  0  0  0  0
 14  8  1  0  0  0  0
 15 14  2  0  0  0  0
 16 15  1  0  0  0  0
 17 15  1  0  0  0  0
 18 17  2  0  0  0  0
 19 20  1  0  0  0  0
 19 18  1  0  0  0  0
 20 21  2  0  0  0  0
 21 17  1  0  0  0  0
 21 22  1  0  0  0  0
 22 44  1  0  0  0  0
 22 43  1  0  0  0  0
 23 20  1  0  0  0  0
 24 23  2  0  0  0  0
 25 23  1  0  0  0  0
 26 47  1  0  0  0  0
 26 25  1  0  0  0  0
 27 48  1  0  0  0  0
 27 18  1  0  0  0  0
 27 49  1  0  0  0  0
 28 51  1  0  0  0  0
 28 52  1  0  0  0  0
 29 28  1  0  0  0  0
 29 30  1  0  0  0  0
 30 55  1  0  0  0  0
 30 31  1  0  0  0  0
 30 35  1  0  0  0  0
 31 56  1  0  0  0  0
 31 32  1  0  0  0  0
 32 58  1  0  0  0  0
 32 33  1  0  0  0  0
 33 34  1  0  0  0  0
 34 60  1  0  0  0  0
 34 61  1  0  0  0  0
 35 63  1  0  0  0  0
 35 62  1  0  0  0  0
 35 34  1  0  0  0  0
 36  3  1  0  0  0  0
 41 19  1  0  0  0  0
 42 22  1  0  0  0  0
 45 26  1  0  0  0  0
 46 26  1  0  0  0  0
 50 27  1  0  0  0  0
 53 29  1  0  0  0  0
 54 29  1  0  0  0  0
 57 31  1  0  0  0  0
 59 32  1  0  0  0  0
M  END
>  <Pose>
1

>  <Score>
-6.28

$$$$
