
 OpenBabel03222202113D

 63 66  0  0  1  0  0  0  0  0999 V2000
   25.3710   81.1930   15.2580 B   0  0  0  0  0  0  0  0  0  0  0  0
   24.3080   79.9140   16.1860 C   0  0  0  0  0  0  0  0  0  0  0  0
   22.9400   80.1100   16.3370 C   0  0  0  0  0  0  0  0  0  0  0  0
   22.1580   79.1940   17.0040 C   0  0  0  0  0  0  0  0  0  0  0  0
   22.7550   78.0690   17.5270 C   0  0  0  0  0  0  0  0  0  0  0  0
   24.1130   77.8680   17.3800 C   0  0  0  0  0  0  0  0  0  0  0  0
   24.9040   78.7790   16.7130 C   0  0  0  0  0  0  0  0  0  0  0  0
   20.7070   79.3830   17.1750 C   0  0  1  0  0  0  0  0  0  0  0  0
   19.9980   78.1470   17.4430 N   0  0  0  0  0  0  0  0  0  0  0  0
   19.8900   77.9230   18.8320 C   0  0  0  0  0  0  0  0  0  0  0  0
   19.6420   76.8770   19.4840 O   0  0  0  0  0  0  0  0  0  0  0  0
   20.1400   79.2400   19.4710 C   0  0  0  0  0  0  0  0  0  0  0  0
   20.1200   79.4230   20.7040 O   0  0  0  0  0  0  0  0  0  0  0  0
   20.3910   80.1910   18.4030 C   0  0  0  0  0  0  0  0  0  0  0  0
   20.3000   81.4930   18.4990 C   0  0  0  0  0  0  0  0  0  0  0  0
   20.5050   82.2800   17.3530 O   0  0  0  0  0  0  0  0  0  0  0  0
   20.0040   82.1550   19.7410 C   0  0  0  0  0  0  0  0  0  0  0  0
   20.8400   81.8620   20.8280 C   0  0  0  0  0  0  0  0  0  0  0  0
   20.6090   82.4150   22.0560 C   0  0  0  0  0  0  0  0  0  0  0  0
   19.5470   83.2820   22.2840 C   0  0  0  0  0  0  0  0  0  0  0  0
   18.7490   83.5510   21.2160 C   0  0  0  0  0  0  0  0  0  0  0  0
   18.9670   83.0010   19.9690 C   0  0  0  0  0  0  0  0  0  0  0  0
   19.3820   83.7980   23.5530 O   0  0  0  0  0  0  0  0  0  0  0  0
   18.9290   82.9780   24.6190 C   0  0  0  0  0  0  0  0  0  0  0  0
   21.5120   82.0910   23.2070 C   0  0  0  0  0  0  0  0  0  0  0  0
   19.4470   77.2320   16.4310 C   0  0  0  0  0  0  0  0  0  0  0  0
   20.5420   76.7670   15.5120 C   0  0  0  0  0  0  0  0  0  0  0  0
   20.0890   76.3220   14.1630 C   0  0  0  0  0  0  0  0  0  0  0  0
   19.3380   75.0860   14.1810 N   0  0  0  0  0  4  0  0  0  0  0  0
   18.3480   75.0410   13.1230 C   0  0  0  0  0  0  0  0  0  0  0  0
   18.6630   73.9460   12.1400 C   0  0  0  0  0  0  0  0  0  0  0  0
   18.6280   72.7220   12.8380 O   0  0  0  0  0  0  0  0  0  0  0  0
   19.6340   72.6790   13.8010 C   0  0  0  0  0  0  0  0  0  0  0  0
   20.3060   73.9950   14.0330 C   0  0  0  0  0  0  0  0  0  0  0  0
   22.4850   80.9880   15.9280 H   0  0  0  0  0  0  0  0  0  0  0  0
   22.1930   77.3100   18.0630 H   0  0  0  0  0  0  0  0  0  0  0  0
   24.5680   76.9810   17.7940 H   0  0  0  0  0  0  0  0  0  0  0  0
   25.9670   78.6230   16.6000 H   0  0  0  0  0  0  0  0  0  0  0  0
   20.2270   79.8200   16.2720 H   0  0  0  0  0  0  0  0  0  0  0  0
   21.6900   81.1780   20.6820 H   0  0  0  0  0  0  0  0  0  0  0  0
   17.9070   84.2250   21.3530 H   0  0  0  0  0  0  0  0  0  0  0  0
   18.2790   83.2200   19.1380 H   0  0  0  0  0  0  0  0  0  0  0  0
   19.0670   83.4560   25.5960 H   0  0  0  0  0  0  0  0  0  0  0  0
   19.4190   81.9740   24.6120 H   0  0  0  0  0  0  0  0  0  0  0  0
   17.8290   82.7650   24.5170 H   0  0  0  0  0  0  0  0  0  0  0  0
   21.4730   80.9770   23.3050 H   0  0  0  0  0  0  0  0  0  0  0  0
   21.1270   82.5220   24.1280 H   0  0  0  0  0  0  0  0  0  0  0  0
   22.5550   82.4310   23.0220 H   0  0  0  0  0  0  0  0  0  0  0  0
   18.6410   77.7260   15.8620 H   0  0  0  0  0  0  0  0  0  0  0  0
   19.0660   76.3260   16.9760 H   0  0  0  0  0  0  0  0  0  0  0  0
   21.2960   77.5840   15.3370 H   0  0  0  0  0  0  0  0  0  0  0  0
   21.0980   75.9030   15.9650 H   0  0  0  0  0  0  0  0  0  0  0  0
   21.0090   76.2200   13.5300 H   0  0  0  0  0  0  0  0  0  0  0  0
   19.4620   77.0710   13.6400 H   0  0  0  0  0  0  0  0  0  0  0  0
   18.8620   74.9030   15.0900 H   0  0  0  0  0  0  0  0  0  0  0  0
   18.3160   75.9970   12.5610 H   0  0  0  0  0  0  0  0  0  0  0  0
   17.3300   74.7930   13.5450 H   0  0  0  0  0  0  0  0  0  0  0  0
   17.9000   73.8780   11.3620 H   0  0  0  0  0  0  0  0  0  0  0  0
   19.6570   74.0840   11.6660 H   0  0  0  0  0  0  0  0  0  0  0  0
   19.2270   72.3270   14.7720 H   0  0  0  0  0  0  0  0  0  0  0  0
   20.4180   71.9650   13.4450 H   0  0  0  0  0  0  0  0  0  0  0  0
   20.7910   73.9220   15.0510 H   0  0  0  0  0  0  0  0  0  0  0  0
   21.0960   74.2420   13.3040 H   0  0  0  0  0  0  0  0  0  0  0  0
  1  2  1  0  0  0  0
  2  3  2  0  0  0  0
  2  7  1  0  0  0  0
  3  4  1  0  0  0  0
  4  8  1  0  0  0  0
  4  5  2  0  0  0  0
  5 36  1  0  0  0  0
  6  5  1  0  0  0  0
  6 37  1  0  0  0  0
  7  6  2  0  0  0  0
  8 39  1  6  0  0  0
  8  9  1  0  0  0  0
  8 14  1  0  0  0  0
  9 10  1  0  0  0  0
 10 12  1  0  0  0  0
 10 11  2  0  0  0  0
 12 13  2  0  0  0  0
 14 15  2  0  0  0  0
 14 12  1  0  0  0  0
 15 17  1  0  0  0  0
 16 15  1  0  0  0  0
 17 22  2  0  0  0  0
 17 18  1  0  0  0  0
 18 19  2  0  0  0  0
 19 20  1  0  0  0  0
 19 25  1  0  0  0  0
 20 23  1  0  0  0  0
 21 41  1  0  0  0  0
 21 20  2  0  0  0  0
 22 21  1  0  0  0  0
 23 24  1  0  0  0  0
 24 43  1  0  0  0  0
 25 46  1  0  0  0  0
 25 47  1  0  0  0  0
 26 50  1  0  0  0  0
 26  9  1  0  0  0  0
 27 52  1  0  0  0  0
 27 26  1  0  0  0  0
 28 29  1  0  0  0  0
 28 27  1  0  0  0  0
 29 55  1  0  0  0  0
 30 57  1  0  0  0  0
 30 29  1  0  0  0  0
 31 32  1  0  0  0  0
 31 30  1  0  0  0  0
 32 33  1  0  0  0  0
 33 34  1  0  0  0  0
 33 60  1  0  0  0  0
 34 29  1  0  0  0  0
 34 62  1  0  0  0  0
 35  3  1  0  0  0  0
 38  7  1  0  0  0  0
 40 18  1  0  0  0  0
 42 22  1  0  0  0  0
 44 24  1  0  0  0  0
 45 24  1  0  0  0  0
 48 25  1  0  0  0  0
 49 26  1  0  0  0  0
 51 27  1  0  0  0  0
 53 28  1  0  0  0  0
 54 28  1  0  0  0  0
 56 30  1  0  0  0  0
 58 31  1  0  0  0  0
 59 31  1  0  0  0  0
 61 33  1  0  0  0  0
 63 34  1  0  0  0  0
M  END
>  <Pose>
1

>  <Score>
-6.45

$$$$
