
 OpenBabel03222202113D

 56 59  0  0  1  0  0  0  0  0999 V2000
   20.1010   76.8470   16.1010 B   0  0  0  0  0  0  0  0  0  0  0  0
   19.7000   76.1950   14.3510 C   0  0  0  0  0  0  0  0  0  0  0  0
   20.3200   76.7280   13.2250 C   0  0  0  0  0  0  0  0  0  0  0  0
   20.0520   76.2790   11.9490 C   0  0  0  0  0  0  0  0  0  0  0  0
   19.1190   75.2570   11.8370 C   0  0  0  0  0  0  0  0  0  0  0  0
   18.4930   74.7160   12.9390 C   0  0  0  0  0  0  0  0  0  0  0  0
   18.7930   75.1950   14.1890 C   0  0  0  0  0  0  0  0  0  0  0  0
   20.7180   76.8510   10.7450 C   0  0  2  0  0  0  0  0  0  0  0  0
   21.0300   78.2410   10.8900 N   0  0  0  0  0  0  0  0  0  0  0  0
   19.9020   78.9560   10.4090 C   0  0  0  0  0  0  0  0  0  0  0  0
   19.6300   80.1560   10.6610 O   0  0  0  0  0  0  0  0  0  0  0  0
   19.0860   78.0610    9.5540 C   0  0  0  0  0  0  0  0  0  0  0  0
   18.0300   78.3320    8.9580 O   0  0  0  0  0  0  0  0  0  0  0  0
   19.7880   76.7920    9.5610 C   0  0  0  0  0  0  0  0  0  0  0  0
   19.6880   75.8070    8.6950 C   0  0  0  0  0  0  0  0  0  0  0  0
   20.4900   74.6940    8.8260 O   0  0  0  0  0  0  0  0  0  0  0  0
   18.7490   75.8510    7.6040 C   0  0  0  0  0  0  0  0  0  0  0  0
   17.9800   76.9160    7.2340 C   0  0  0  0  0  0  0  0  0  0  0  0
   17.1470   76.8300    6.1340 C   0  0  0  0  0  0  0  0  0  0  0  0
   17.0320   75.7020    5.3540 C   0  0  0  0  0  0  0  0  0  0  0  0
   17.8090   74.6260    5.7290 C   0  0  0  0  0  0  0  0  0  0  0  0
   18.6420   74.6910    6.8190 C   0  0  0  0  0  0  0  0  0  0  0  0
   16.1260   75.6350    4.1740 C   0  0  0  0  0  0  0  0  0  0  0  0
   22.2630   78.8500   11.4290 C   0  0  0  0  0  0  0  0  0  0  0  0
   21.9530   79.3270   12.8200 C   0  0  0  0  0  0  0  0  0  0  0  0
   23.0500   79.8780   13.5300 N   0  0  0  0  0  4  0  0  0  0  0  0
   22.7610   81.0160   14.3540 C   0  0  0  0  0  0  0  0  0  0  0  0
   22.4010   80.6760   15.7750 C   0  0  0  0  0  0  0  0  0  0  0  0
   23.1800   79.6810   16.3220 O   0  0  0  0  0  0  0  0  0  0  0  0
   23.1500   78.5250   15.5770 C   0  0  0  0  0  0  0  0  0  0  0  0
   23.7470   78.8290   14.2300 C   0  0  0  0  0  0  0  0  0  0  0  0
   21.0230   77.5060   13.3780 H   0  0  0  0  0  0  0  0  0  0  0  0
   18.8730   74.8710   10.8650 H   0  0  0  0  0  0  0  0  0  0  0  0
   17.7710   73.9200   12.8170 H   0  0  0  0  0  0  0  0  0  0  0  0
   18.2980   74.7670   15.0640 H   0  0  0  0  0  0  0  0  0  0  0  0
   21.6410   76.3000   10.5660 H   0  0  0  0  0  0  0  0  0  0  0  0
   18.0260   77.8100    7.8480 H   0  0  0  0  0  0  0  0  0  0  0  0
   16.5480   77.6910    5.8630 H   0  0  0  0  0  0  0  0  0  0  0  0
   17.7230   73.7230    5.1160 H   0  0  0  0  0  0  0  0  0  0  0  0
   19.2270   73.8070    7.0590 H   0  0  0  0  0  0  0  0  0  0  0  0
   16.0190   76.6380    3.6780 H   0  0  0  0  0  0  0  0  0  0  0  0
   16.6100   74.9930    3.3810 H   0  0  0  0  0  0  0  0  0  0  0  0
   15.1580   75.1850    4.3950 H   0  0  0  0  0  0  0  0  0  0  0  0
   23.0410   78.0580   11.5170 H   0  0  0  0  0  0  0  0  0  0  0  0
   22.5180   79.6430   10.7250 H   0  0  0  0  0  0  0  0  0  0  0  0
   21.4800   78.4490   13.3500 H   0  0  0  0  0  0  0  0  0  0  0  0
   21.1200   80.0670   12.7270 H   0  0  0  0  0  0  0  0  0  0  0  0
   23.7450   80.2120   12.7970 H   0  0  0  0  0  0  0  0  0  0  0  0
   21.9290   81.6290   13.9510 H   0  0  0  0  0  0  0  0  0  0  0  0
   23.6360   81.7000   14.4050 H   0  0  0  0  0  0  0  0  0  0  0  0
   22.5560   81.5920   16.4040 H   0  0  0  0  0  0  0  0  0  0  0  0
   21.3410   80.4070   15.9100 H   0  0  0  0  0  0  0  0  0  0  0  0
   22.1460   78.0640   15.5110 H   0  0  0  0  0  0  0  0  0  0  0  0
   23.8100   77.7800   16.0680 H   0  0  0  0  0  0  0  0  0  0  0  0
   23.7420   77.9390   13.5540 H   0  0  0  0  0  0  0  0  0  0  0  0
   24.8150   79.0930   14.3820 H   0  0  0  0  0  0  0  0  0  0  0  0
  2  1  1  0  0  0  0
  3 32  1  0  0  0  0
  3  2  2  0  0  0  0
  4  3  1  0  0  0  0
  5  4  2  0  0  0  0
  5  6  1  0  0  0  0
  6  7  2  0  0  0  0
  7  2  1  0  0  0  0
  7 35  1  0  0  0  0
  8 36  1  6  0  0  0
  8  9  1  0  0  0  0
  8  4  1  0  0  0  0
  9 24  1  0  0  0  0
 10 11  2  0  0  0  0
 10  9  1  0  0  0  0
 12 14  1  0  0  0  0
 12 10  1  0  0  0  0
 13 12  2  0  0  0  0
 14  8  1  0  0  0  0
 15 16  1  0  0  0  0
 15 14  2  0  0  0  0
 17 15  1  0  0  0  0
 18 17  1  0  0  0  0
 18 37  1  0  0  0  0
 19 18  2  0  0  0  0
 20 21  2  0  0  0  0
 20 19  1  0  0  0  0
 21 22  1  0  0  0  0
 22 40  1  0  0  0  0
 22 17  2  0  0  0  0
 23 43  1  0  0  0  0
 23 20  1  0  0  0  0
 24 44  1  0  0  0  0
 24 25  1  0  0  0  0
 25 46  1  0  0  0  0
 25 26  1  0  0  0  0
 26 31  1  0  0  0  0
 26 27  1  0  0  0  0
 27 50  1  0  0  0  0
 27 28  1  0  0  0  0
 28 52  1  0  0  0  0
 28 29  1  0  0  0  0
 28 51  1  0  0  0  0
 30 54  1  0  0  0  0
 30 29  1  0  0  0  0
 31 56  1  0  0  0  0
 31 30  1  0  0  0  0
 33  5  1  0  0  0  0
 34  6  1  0  0  0  0
 38 19  1  0  0  0  0
 39 21  1  0  0  0  0
 41 23  1  0  0  0  0
 42 23  1  0  0  0  0
 45 24  1  0  0  0  0
 47 25  1  0  0  0  0
 48 26  1  0  0  0  0
 49 27  1  0  0  0  0
 53 30  1  0  0  0  0
 55 31  1  0  0  0  0
M  END
>  <Pose>
1

>  <Score>
-5.36

$$$$
