
 OpenBabel03222202113D

 56 57  0  0  1  0  0  0  0  0999 V2000
   19.4740   78.9670   10.3040 B   0  0  0  0  0  0  0  0  0  0  0  0
   20.6760   78.7230   11.7550 C   0  0  0  0  0  0  0  0  0  0  0  0
   20.5790   77.6550   12.6370 C   0  0  0  0  0  0  0  0  0  0  0  0
   21.4520   77.4880   13.6880 C   0  0  0  0  0  0  0  0  0  0  0  0
   22.4380   78.4140   13.8540 C   0  0  0  0  0  0  0  0  0  0  0  0
   22.5460   79.4970   12.9700 C   0  0  0  0  0  0  0  0  0  0  0  0
   21.6720   79.6620   11.9200 C   0  0  0  0  0  0  0  0  0  0  0  0
   21.3070   76.3260   14.6010 C   0  0  1  0  0  0  0  0  0  0  0  0
   20.7910   76.7490   15.8930 N   0  0  0  0  0  0  0  0  0  0  0  0
   19.3560   76.6210   15.8330 C   0  0  0  0  0  0  0  0  0  0  0  0
   18.5540   77.1880   16.6160 O   0  0  0  0  0  0  0  0  0  0  0  0
   19.0550   75.7380   14.7260 C   0  0  0  0  0  0  0  0  0  0  0  0
   17.9150   75.3550   14.3140 O   0  0  0  0  0  0  0  0  0  0  0  0
   20.3200   75.3380   14.1270 C   0  0  0  0  0  0  0  0  0  0  0  0
   20.4890   74.3140   13.3030 C   0  0  0  0  0  0  0  0  0  0  0  0
   21.8070   74.1760   12.8190 O   0  0  0  0  0  0  0  0  0  0  0  0
   19.4440   73.3860   12.9050 C   0  0  0  0  0  0  0  0  0  0  0  0
   18.2950   73.7240   12.2300 C   0  0  0  0  0  0  0  0  0  0  0  0
   17.3510   72.7920   11.8470 C   0  0  0  0  0  0  0  0  0  0  0  0
   17.5280   71.4580   12.1360 C   0  0  0  0  0  0  0  0  0  0  0  0
   18.6760   71.1000   12.8140 C   0  0  0  0  0  0  0  0  0  0  0  0
   19.6150   72.0400   13.1920 C   0  0  0  0  0  0  0  0  0  0  0  0
   16.3350   70.2460   11.6570 Cl  0  0  0  0  0  0  0  0  0  0  0  0
   21.5660   77.2880   16.9630 C   0  0  0  0  0  0  0  0  0  0  0  0
   22.1390   78.6390   16.8310 C   0  0  0  0  0  0  0  0  0  0  0  0
   21.5770   79.7670   17.6130 C   0  0  0  0  0  0  0  0  0  0  0  0
   20.1980   79.7240   17.9660 N   0  0  0  0  0  4  0  0  0  0  0  0
   19.7820   78.3740   18.2490 C   0  0  0  0  0  0  0  0  0  0  0  0
   19.8800   78.0120   19.7170 C   0  0  0  0  0  0  0  0  0  0  0  0
   18.9780   78.7760   20.4600 O   0  0  0  0  0  0  0  0  0  0  0  0
   18.6880   79.9760   19.8090 C   0  0  0  0  0  0  0  0  0  0  0  0
   19.9780   80.4890   19.2320 C   0  0  0  0  0  0  0  0  0  0  0  0
   19.7920   76.9370   12.4860 H   0  0  0  0  0  0  0  0  0  0  0  0
   23.1380   78.3250   14.6550 H   0  0  0  0  0  0  0  0  0  0  0  0
   23.3200   80.2270   13.0950 H   0  0  0  0  0  0  0  0  0  0  0  0
   21.7530   80.5040   11.2280 H   0  0  0  0  0  0  0  0  0  0  0  0
   22.3110   75.8880   14.7780 H   0  0  0  0  0  0  0  0  0  0  0  0
   18.1020   74.7590   12.0000 H   0  0  0  0  0  0  0  0  0  0  0  0
   16.4480   73.0610   11.3150 H   0  0  0  0  0  0  0  0  0  0  0  0
   18.7970   70.0460   13.0330 H   0  0  0  0  0  0  0  0  0  0  0  0
   20.5150   71.7460   13.7280 H   0  0  0  0  0  0  0  0  0  0  0  0
   22.4260   76.5540   17.1190 H   0  0  0  0  0  0  0  0  0  0  0  0
   20.9230   77.2330   17.9130 H   0  0  0  0  0  0  0  0  0  0  0  0
   22.1930   78.9480   15.7190 H   0  0  0  0  0  0  0  0  0  0  0  0
   23.2580   78.6040   17.1090 H   0  0  0  0  0  0  0  0  0  0  0  0
   21.7390   80.7490   17.0850 H   0  0  0  0  0  0  0  0  0  0  0  0
   22.1620   79.8970   18.5860 H   0  0  0  0  0  0  0  0  0  0  0  0
   19.6000   80.2040   17.2990 H   0  0  0  0  0  0  0  0  0  0  0  0
   20.4020   77.6560   17.6710 H   0  0  0  0  0  0  0  0  0  0  0  0
   18.7330   78.2310   17.9360 H   0  0  0  0  0  0  0  0  0  0  0  0
   20.9270   78.1440   20.0540 H   0  0  0  0  0  0  0  0  0  0  0  0
   19.6200   76.9580   19.8250 H   0  0  0  0  0  0  0  0  0  0  0  0
   17.9480   79.7610   19.0200 H   0  0  0  0  0  0  0  0  0  0  0  0
   18.2490   80.6750   20.5540 H   0  0  0  0  0  0  0  0  0  0  0  0
   20.8340   80.2670   19.9010 H   0  0  0  0  0  0  0  0  0  0  0  0
   19.8900   81.5620   18.9730 H   0  0  0  0  0  0  0  0  0  0  0  0
  1  2  1  0  0  0  0
  2  7  2  0  0  0  0
  2  3  1  0  0  0  0
  3  4  2  0  0  0  0
  4  5  1  0  0  0  0
  4  8  1  0  0  0  0
  5 34  1  0  0  0  0
  6 35  1  0  0  0  0
  6  5  2  0  0  0  0
  7  6  1  0  0  0  0
  8 37  1  1  0  0  0
  8  9  1  0  0  0  0
 10  9  1  0  0  0  0
 10 11  2  0  0  0  0
 12 10  1  0  0  0  0
 13 12  2  0  0  0  0
 14  8  1  0  0  0  0
 14 12  1  0  0  0  0
 15 14  2  0  0  0  0
 16 15  1  0  0  0  0
 17 22  1  0  0  0  0
 17 15  1  0  0  0  0
 18 17  2  0  0  0  0
 19 20  2  0  0  0  0
 19 18  1  0  0  0  0
 20 21  1  0  0  0  0
 21 40  1  0  0  0  0
 21 22  2  0  0  0  0
 22 41  1  0  0  0  0
 23 20  1  0  0  0  0
 24 42  1  0  0  0  0
 24 43  1  0  0  0  0
 25 45  1  0  0  0  0
 25 26  1  0  0  0  0
 26 27  1  0  0  0  0
 26 47  1  0  0  0  0
 27 28  1  0  0  0  0
 27 32  1  0  0  0  0
 28 29  1  0  0  0  0
 29 52  1  0  0  0  0
 29 51  1  0  0  0  0
 29 30  1  0  0  0  0
 31 30  1  0  0  0  0
 31 54  1  0  0  0  0
 32 31  1  0  0  0  0
 32 55  1  0  0  0  0
 33  3  1  0  0  0  0
 36  7  1  0  0  0  0
 38 18  1  0  0  0  0
 39 19  1  0  0  0  0
 44 25  1  0  0  0  0
 46 26  1  0  0  0  0
 48 27  1  0  0  0  0
 49 28  1  0  0  0  0
 50 28  1  0  0  0  0
 53 31  1  0  0  0  0
 56 32  1  0  0  0  0
M  END
>  <Pose>
1

>  <Score>
-5.73

$$$$
