
 OpenBabel03222202113D

 57 60  0  0  1  0  0  0  0  0999 V2000
   20.2530   82.3090   10.4160 B   0  0  0  0  0  0  0  0  0  0  0  0
   21.2200   80.6740   10.3940 C   0  0  0  0  0  0  0  0  0  0  0  0
   20.8850   79.6700   11.3040 C   0  0  0  0  0  0  0  0  0  0  0  0
   21.5570   78.4940   11.3110 C   0  0  0  0  0  0  0  0  0  0  0  0
   22.5900   78.3200   10.3840 C   0  0  0  0  0  0  0  0  0  0  0  0
   22.9140   79.3030    9.4970 C   0  0  0  0  0  0  0  0  0  0  0  0
   22.2430   80.5070    9.4720 C   0  0  0  0  0  0  0  0  0  0  0  0
   21.2680   77.3820   12.2250 C   0  0  2  0  0  0  0  0  0  0  0  0
   19.9030   76.8950   12.1780 N   0  0  0  0  0  0  0  0  0  0  0  0
   19.7120   76.2010   13.4180 C   0  0  0  0  0  0  0  0  0  0  0  0
   18.9050   75.2850   13.6590 O   0  0  0  0  0  0  0  0  0  0  0  0
   20.6540   76.7710   14.3740 C   0  0  0  0  0  0  0  0  0  0  0  0
   20.8640   76.4890   15.5910 O   0  0  0  0  0  0  0  0  0  0  0  0
   21.3840   77.8050   13.6560 C   0  0  0  0  0  0  0  0  0  0  0  0
   22.0180   78.8250   14.1990 C   0  0  0  0  0  0  0  0  0  0  0  0
   22.7100   79.6620   13.3130 O   0  0  0  0  0  0  0  0  0  0  0  0
   22.0420   79.1370   15.6210 C   0  0  0  0  0  0  0  0  0  0  0  0
   21.0050   79.4700   16.4030 N   0  0  0  0  0  0  0  0  0  0  0  0
   21.4070   79.6480   17.6880 C   0  0  0  0  0  0  0  0  0  0  0  0
   22.7480   79.4110   17.6730 N   0  0  0  0  0  0  0  0  0  0  0  0
   23.1680   79.1030   16.4580 C   0  0  0  0  0  0  0  0  0  0  0  0
   24.5150   78.7690   15.9450 C   0  0  0  0  0  0  0  0  0  0  0  0
   20.5380   80.0100   18.7050 C   0  0  0  0  0  0  0  0  0  0  0  0
   19.2010   80.2060   18.4270 C   0  0  0  0  0  0  0  0  0  0  0  0
   18.7990   80.0240   17.1090 C   0  0  0  0  0  0  0  0  0  0  0  0
   19.6800   79.6680   16.1350 C   0  0  0  0  0  0  0  0  0  0  0  0
   18.9170   77.0490   11.1060 C   0  0  0  0  0  0  0  0  0  0  0  0
   19.4570   76.7540    9.7550 C   0  0  0  0  0  0  0  0  0  0  0  0
   18.8450   77.4170    8.5910 C   0  0  0  0  0  0  0  0  0  0  0  0
   17.8680   76.6760    7.8740 N   0  0  0  0  0  4  0  0  0  0  0  0
   18.5110   75.7390    6.9840 C   0  0  0  0  0  0  0  0  0  0  0  0
   17.1030   77.5910    7.0070 C   0  0  0  0  0  0  0  0  0  0  0  0
   20.0930   79.8680   11.9860 H   0  0  0  0  0  0  0  0  0  0  0  0
   23.1340   77.3850   10.3810 H   0  0  0  0  0  0  0  0  0  0  0  0
   23.7220   79.1730    8.7670 H   0  0  0  0  0  0  0  0  0  0  0  0
   22.5000   81.3030    8.7590 H   0  0  0  0  0  0  0  0  0  0  0  0
   21.9250   76.5290   12.0660 H   0  0  0  0  0  0  0  0  0  0  0  0
   25.2430   79.1160   16.7130 H   0  0  0  0  0  0  0  0  0  0  0  0
   24.7470   79.3650   15.0300 H   0  0  0  0  0  0  0  0  0  0  0  0
   24.6690   77.6920   15.7750 H   0  0  0  0  0  0  0  0  0  0  0  0
   20.9090   80.1380   19.7120 H   0  0  0  0  0  0  0  0  0  0  0  0
   18.4710   80.4890   19.1740 H   0  0  0  0  0  0  0  0  0  0  0  0
   17.7420   80.1740   16.8620 H   0  0  0  0  0  0  0  0  0  0  0  0
   19.3860   79.5270   15.0860 H   0  0  0  0  0  0  0  0  0  0  0  0
   17.9930   76.4860   11.3580 H   0  0  0  0  0  0  0  0  0  0  0  0
   18.6120   78.1130   11.1020 H   0  0  0  0  0  0  0  0  0  0  0  0
   20.5710   76.8690    9.7110 H   0  0  0  0  0  0  0  0  0  0  0  0
   19.3180   75.6400    9.6020 H   0  0  0  0  0  0  0  0  0  0  0  0
   18.3450   78.3510    8.9710 H   0  0  0  0  0  0  0  0  0  0  0  0
   19.6490   77.8130    7.9030 H   0  0  0  0  0  0  0  0  0  0  0  0
   17.1370   76.2310    8.4720 H   0  0  0  0  0  0  0  0  0  0  0  0
   18.2770   75.9160    5.9130 H   0  0  0  0  0  0  0  0  0  0  0  0
   19.6060   75.8570    7.0980 H   0  0  0  0  0  0  0  0  0  0  0  0
   18.2890   74.6850    7.2320 H   0  0  0  0  0  0  0  0  0  0  0  0
   16.5340   78.3220    7.6250 H   0  0  0  0  0  0  0  0  0  0  0  0
   17.8010   78.0950    6.2940 H   0  0  0  0  0  0  0  0  0  0  0  0
   16.3510   77.0420    6.4110 H   0  0  0  0  0  0  0  0  0  0  0  0
  2  1  1  0  0  0  0
  2  3  1  0  0  0  0
  3  4  2  0  0  0  0
  3 33  1  0  0  0  0
  4  8  1  0  0  0  0
  5  4  1  0  0  0  0
  6  5  2  0  0  0  0
  7  6  1  0  0  0  0
  7  2  2  0  0  0  0
  8 37  1  6  0  0  0
  8 14  1  0  0  0  0
  9  8  1  0  0  0  0
  9 10  1  0  0  0  0
 10 11  2  0  0  0  0
 10 12  1  0  0  0  0
 12 13  2  0  0  0  0
 14 15  2  0  0  0  0
 14 12  1  0  0  0  0
 15 17  1  0  0  0  0
 16 15  1  0  0  0  0
 17 18  1  0  0  0  0
 17 21  2  0  0  0  0
 18 19  1  0  0  0  0
 19 23  1  0  0  0  0
 20 19  2  0  0  0  0
 21 20  1  0  0  0  0
 22 21  1  0  0  0  0
 22 38  1  0  0  0  0
 23 41  1  0  0  0  0
 24 23  2  0  0  0  0
 24 42  1  0  0  0  0
 25 24  1  0  0  0  0
 26 18  1  0  0  0  0
 26 25  2  0  0  0  0
 27 45  1  0  0  0  0
 27  9  1  0  0  0  0
 28 27  1  0  0  0  0
 29 49  1  0  0  0  0
 29 28  1  0  0  0  0
 30 51  1  0  0  0  0
 30 29  1  0  0  0  0
 31 53  1  0  0  0  0
 31 54  1  0  0  0  0
 31 30  1  0  0  0  0
 32 55  1  0  0  0  0
 32 30  1  0  0  0  0
 34  5  1  0  0  0  0
 35  6  1  0  0  0  0
 36  7  1  0  0  0  0
 39 22  1  0  0  0  0
 40 22  1  0  0  0  0
 43 25  1  0  0  0  0
 44 26  1  0  0  0  0
 46 27  1  0  0  0  0
 47 28  1  0  0  0  0
 48 28  1  0  0  0  0
 50 29  1  0  0  0  0
 52 31  1  0  0  0  0
 56 32  1  0  0  0  0
 57 32  1  0  0  0  0
M  END
>  <Pose>
1

>  <Score>
-5.04

$$$$
