
 OpenBabel03222202113D

 53 56  0  0  1  0  0  0  0  0999 V2000
   25.4910   75.8660   15.0690 B   0  0  0  0  0  0  0  0  0  0  0  0
   24.6140   77.3770   15.8590 C   0  0  0  0  0  0  0  0  0  0  0  0
   23.2550   77.5940   15.6910 C   0  0  0  0  0  0  0  0  0  0  0  0
   22.5950   78.6700   16.2430 C   0  0  0  0  0  0  0  0  0  0  0  0
   23.3420   79.5580   16.9930 C   0  0  0  0  0  0  0  0  0  0  0  0
   24.7130   79.3550   17.1720 C   0  0  0  0  0  0  0  0  0  0  0  0
   25.3550   78.2680   16.6090 C   0  0  0  0  0  0  0  0  0  0  0  0
   21.1290   78.8520   16.0280 C   0  0  2  0  0  0  0  0  0  0  0  0
   20.4240   78.9940   17.2930 N   0  0  0  0  0  0  0  0  0  0  0  0
   20.4190   77.6460   17.8180 C   0  0  0  0  0  0  0  0  0  0  0  0
   20.3250   77.3160   19.0200 O   0  0  0  0  0  0  0  0  0  0  0  0
   20.5440   76.7110   16.7090 C   0  0  0  0  0  0  0  0  0  0  0  0
   20.5880   75.4540   16.6870 O   0  0  0  0  0  0  0  0  0  0  0  0
   20.6230   77.5320   15.5010 C   0  0  0  0  0  0  0  0  0  0  0  0
   20.3550   77.2180   14.2670 C   0  0  0  0  0  0  0  0  0  0  0  0
   20.5540   78.2030   13.2750 O   0  0  0  0  0  0  0  0  0  0  0  0
   19.8650   75.8950   13.9270 C   0  0  0  0  0  0  0  0  0  0  0  0
   18.7080   75.6810   13.3600 O   0  0  0  0  0  0  0  0  0  0  0  0
   18.5050   74.4070   13.1650 C   0  0  0  0  0  0  0  0  0  0  0  0
   19.5920   73.7290   13.6290 C   0  0  0  0  0  0  0  0  0  0  0  0
   20.4790   74.6900   14.1270 C   0  0  0  0  0  0  0  0  0  0  0  0
   19.8590   80.1450   17.9460 C   0  0  0  0  0  0  0  0  0  0  0  0
   20.5410   80.5080   19.2440 C   0  0  0  0  0  0  0  0  0  0  0  0
   19.6550   81.3790   20.0440 C   0  0  0  0  0  0  0  0  0  0  0  0
   20.2460   82.6250   20.4770 N   0  0  0  0  0  4  0  0  0  0  0  0
   20.1380   83.6640   19.4810 C   0  0  0  0  0  0  0  0  0  0  0  0
   18.9810   84.5820   19.6550 C   0  0  0  0  0  0  0  0  0  0  0  0
   18.7190   84.9700   20.9520 O   0  0  0  0  0  0  0  0  0  0  0  0
   18.6600   83.9130   21.8500 C   0  0  0  0  0  0  0  0  0  0  0  0
   19.8940   83.0490   21.7900 C   0  0  0  0  0  0  0  0  0  0  0  0
   22.6750   76.8890   15.0990 H   0  0  0  0  0  0  0  0  0  0  0  0
   22.8380   80.4040   17.4300 H   0  0  0  0  0  0  0  0  0  0  0  0
   25.2800   80.0530   17.7570 H   0  0  0  0  0  0  0  0  0  0  0  0
   26.4150   78.0860   16.7310 H   0  0  0  0  0  0  0  0  0  0  0  0
   20.8950   79.6000   15.2800 H   0  0  0  0  0  0  0  0  0  0  0  0
   17.6050   73.9930   12.7050 H   0  0  0  0  0  0  0  0  0  0  0  0
   19.7410   72.6670   13.6170 H   0  0  0  0  0  0  0  0  0  0  0  0
   21.4290   74.4500   14.5720 H   0  0  0  0  0  0  0  0  0  0  0  0
   19.9650   81.0440   17.2670 H   0  0  0  0  0  0  0  0  0  0  0  0
   18.7530   80.0540   18.0770 H   0  0  0  0  0  0  0  0  0  0  0  0
   21.4710   81.0750   19.0080 H   0  0  0  0  0  0  0  0  0  0  0  0
   20.7700   79.5270   19.7180 H   0  0  0  0  0  0  0  0  0  0  0  0
   19.3060   80.8880   20.9900 H   0  0  0  0  0  0  0  0  0  0  0  0
   18.7390   81.5940   19.4600 H   0  0  0  0  0  0  0  0  0  0  0  0
   21.2930   82.4090   20.5170 H   0  0  0  0  0  0  0  0  0  0  0  0
   21.0690   84.2740   19.4310 H   0  0  0  0  0  0  0  0  0  0  0  0
   20.0480   83.1710   18.4880 H   0  0  0  0  0  0  0  0  0  0  0  0
   19.2230   85.5330   19.0910 H   0  0  0  0  0  0  0  0  0  0  0  0
   18.0460   84.2160   19.1340 H   0  0  0  0  0  0  0  0  0  0  0  0
   18.6470   84.3710   22.8730 H   0  0  0  0  0  0  0  0  0  0  0  0
   17.7610   83.2980   21.7720 H   0  0  0  0  0  0  0  0  0  0  0  0
   20.7250   83.6960   22.2060 H   0  0  0  0  0  0  0  0  0  0  0  0
   19.8100   82.2190   22.4860 H   0  0  0  0  0  0  0  0  0  0  0  0
  1  2  1  0  0  0  0
  2  7  1  0  0  0  0
  3  2  2  0  0  0  0
  3  4  1  0  0  0  0
  4  5  2  0  0  0  0
  5  6  1  0  0  0  0
  5 32  1  0  0  0  0
  6 33  1  0  0  0  0
  7 34  1  0  0  0  0
  7  6  2  0  0  0  0
  8 35  1  6  0  0  0
  8  4  1  0  0  0  0
  8  9  1  0  0  0  0
  9 10  1  0  0  0  0
  9 22  1  0  0  0  0
 10 11  2  0  0  0  0
 12 10  1  0  0  0  0
 13 12  2  0  0  0  0
 14  8  1  0  0  0  0
 14 12  1  0  0  0  0
 15 14  2  0  0  0  0
 16 15  1  0  0  0  0
 17 21  2  0  0  0  0
 17 15  1  0  0  0  0
 18 17  1  0  0  0  0
 19 18  1  0  0  0  0
 19 20  2  0  0  0  0
 20 21  1  0  0  0  0
 21 38  1  0  0  0  0
 22 40  1  0  0  0  0
 22 23  1  0  0  0  0
 23 42  1  0  0  0  0
 23 24  1  0  0  0  0
 24 25  1  0  0  0  0
 24 43  1  0  0  0  0
 25 45  1  0  0  0  0
 25 30  1  0  0  0  0
 26 27  1  0  0  0  0
 26 25  1  0  0  0  0
 27 28  1  0  0  0  0
 28 29  1  0  0  0  0
 29 50  1  0  0  0  0
 30 29  1  0  0  0  0
 30 52  1  0  0  0  0
 30 53  1  0  0  0  0
 31  3  1  0  0  0  0
 36 19  1  0  0  0  0
 37 20  1  0  0  0  0
 39 22  1  0  0  0  0
 41 23  1  0  0  0  0
 44 24  1  0  0  0  0
 46 26  1  0  0  0  0
 47 26  1  0  0  0  0
 48 27  1  0  0  0  0
 49 27  1  0  0  0  0
 51 29  1  0  0  0  0
M  END
>  <Pose>
1

>  <Score>
-6.25

$$$$
