
 OpenBabel03222202113D

 58 61  0  0  1  0  0  0  0  0999 V2000
   21.4750   79.2620    9.8030 B   0  0  0  0  0  0  0  0  0  0  0  0
   22.0180   79.5880   11.6210 C   0  0  0  0  0  0  0  0  0  0  0  0
   22.0170   78.5730   12.5340 C   0  0  0  0  0  0  0  0  0  0  0  0
   22.3970   78.7400   13.8670 C   0  0  0  0  0  0  0  0  0  0  0  0
   22.7800   80.0170   14.2120 C   0  0  0  0  0  0  0  0  0  0  0  0
   22.7850   81.0610   13.2890 C   0  0  0  0  0  0  0  0  0  0  0  0
   22.4030   80.8400   11.9970 C   0  0  0  0  0  0  0  0  0  0  0  0
   22.3840   77.6040   14.8240 C   0  0  2  0  0  0  0  0  0  0  0  0
   23.6870   76.9990   15.0170 N   0  0  0  0  0  0  0  0  0  0  0  0
   23.8410   76.0510   13.9390 C   0  0  0  0  0  0  0  0  0  0  0  0
   24.9340   75.6160   13.5030 O   0  0  0  0  0  0  0  0  0  0  0  0
   22.4900   75.7140   13.4800 C   0  0  0  0  0  0  0  0  0  0  0  0
   22.1510   74.9260   12.5600 O   0  0  0  0  0  0  0  0  0  0  0  0
   21.5420   76.4680   14.2910 C   0  0  0  0  0  0  0  0  0  0  0  0
   20.2600   76.2120   14.4860 C   0  0  0  0  0  0  0  0  0  0  0  0
   19.5180   77.0560   15.2740 O   0  0  0  0  0  0  0  0  0  0  0  0
   19.6100   75.0360   13.8770 C   0  0  0  0  0  0  0  0  0  0  0  0
   20.1260   73.8390   13.8020 O   0  0  0  0  0  0  0  0  0  0  0  0
   19.3570   72.9800   13.2200 C   0  0  0  0  0  0  0  0  0  0  0  0
   18.2110   73.6500   12.8650 C   0  0  0  0  0  0  0  0  0  0  0  0
   18.3740   74.9540   13.2820 C   0  0  0  0  0  0  0  0  0  0  0  0
   17.2190   72.9460   12.2190 C   0  0  0  0  0  0  0  0  0  0  0  0
   17.3530   71.6040   11.9260 C   0  0  0  0  0  0  0  0  0  0  0  0
   18.5360   70.9620   12.3070 C   0  0  0  0  0  0  0  0  0  0  0  0
   19.5450   71.6300   12.9520 C   0  0  0  0  0  0  0  0  0  0  0  0
   20.6890   70.9630   13.3100 O   0  0  0  0  0  0  0  0  0  0  0  0
   21.9970   71.3230   13.0020 C   0  0  0  0  0  0  0  0  0  0  0  0
   24.6630   77.2750   16.0430 C   0  0  0  0  0  0  0  0  0  0  0  0
   25.0580   78.7320   16.0540 C   0  0  0  0  0  0  0  0  0  0  0  0
   26.1470   79.0840   17.0030 C   0  0  0  0  0  0  0  0  0  0  0  0
   27.3150   79.6470   16.4020 N   0  0  0  0  0  4  0  0  0  0  0  0
   27.2020   81.1050   16.3170 C   0  0  0  0  0  0  0  0  0  0  0  0
   27.5850   79.1120   15.1030 C   0  0  0  0  0  0  0  0  0  0  0  0
   21.7170   77.5700   12.2600 H   0  0  0  0  0  0  0  0  0  0  0  0
   23.0890   80.2640   15.1920 H   0  0  0  0  0  0  0  0  0  0  0  0
   23.0840   82.0650   13.5590 H   0  0  0  0  0  0  0  0  0  0  0  0
   22.3850   81.6180   11.2340 H   0  0  0  0  0  0  0  0  0  0  0  0
   21.9790   78.0090   15.7720 H   0  0  0  0  0  0  0  0  0  0  0  0
   17.6690   75.7570   13.1660 H   0  0  0  0  0  0  0  0  0  0  0  0
   16.3230   73.4810   11.9430 H   0  0  0  0  0  0  0  0  0  0  0  0
   16.5640   71.0690   11.4180 H   0  0  0  0  0  0  0  0  0  0  0  0
   18.5870   69.8950   12.0490 H   0  0  0  0  0  0  0  0  0  0  0  0
   22.1270   71.7980   12.0100 H   0  0  0  0  0  0  0  0  0  0  0  0
   22.7160   70.4740   13.0960 H   0  0  0  0  0  0  0  0  0  0  0  0
   22.3240   72.0900   13.7420 H   0  0  0  0  0  0  0  0  0  0  0  0
   24.2440   77.0080   17.0340 H   0  0  0  0  0  0  0  0  0  0  0  0
   25.5730   76.6860   15.8010 H   0  0  0  0  0  0  0  0  0  0  0  0
   25.3760   79.0380   15.0100 H   0  0  0  0  0  0  0  0  0  0  0  0
   24.1360   79.3600   16.2220 H   0  0  0  0  0  0  0  0  0  0  0  0
   26.3970   78.1510   17.5660 H   0  0  0  0  0  0  0  0  0  0  0  0
   25.7430   79.8130   17.7510 H   0  0  0  0  0  0  0  0  0  0  0  0
   28.1850   79.4920   16.9890 H   0  0  0  0  0  0  0  0  0  0  0  0
   28.2170   81.5200   16.1820 H   0  0  0  0  0  0  0  0  0  0  0  0
   26.4920   81.4220   15.5360 H   0  0  0  0  0  0  0  0  0  0  0  0
   26.7770   81.4990   17.2820 H   0  0  0  0  0  0  0  0  0  0  0  0
   27.7610   78.0220   15.1850 H   0  0  0  0  0  0  0  0  0  0  0  0
   26.7380   79.2830   14.4080 H   0  0  0  0  0  0  0  0  0  0  0  0
   28.4850   79.6370   14.6840 H   0  0  0  0  0  0  0  0  0  0  0  0
  1  2  1  0  0  0  0
  2  7  2  0  0  0  0
  2  3  1  0  0  0  0
  3  4  2  0  0  0  0
  4  5  1  0  0  0  0
  4  8  1  0  0  0  0
  5 35  1  0  0  0  0
  6 36  1  0  0  0  0
  6  5  2  0  0  0  0
  7  6  1  0  0  0  0
  8  9  1  0  0  0  0
  8 38  1  1  0  0  0
  9 28  1  0  0  0  0
 10  9  1  0  0  0  0
 11 10  2  0  0  0  0
 12 10  1  0  0  0  0
 12 14  1  0  0  0  0
 13 12  2  0  0  0  0
 14 15  2  0  0  0  0
 14  8  1  0  0  0  0
 15 16  1  0  0  0  0
 17 15  1  0  0  0  0
 18 17  1  0  0  0  0
 19 18  1  0  0  0  0
 20 19  2  0  0  0  0
 20 21  1  0  0  0  0
 21 17  2  0  0  0  0
 22 20  1  0  0  0  0
 23 22  2  0  0  0  0
 23 24  1  0  0  0  0
 24 25  2  0  0  0  0
 25 19  1  0  0  0  0
 25 26  1  0  0  0  0
 27 44  1  0  0  0  0
 27 26  1  0  0  0  0
 27 45  1  0  0  0  0
 28 29  1  0  0  0  0
 28 46  1  0  0  0  0
 29 49  1  0  0  0  0
 29 30  1  0  0  0  0
 30 50  1  0  0  0  0
 30 51  1  0  0  0  0
 31 52  1  0  0  0  0
 31 30  1  0  0  0  0
 32 31  1  0  0  0  0
 32 55  1  0  0  0  0
 33 56  1  0  0  0  0
 33 31  1  0  0  0  0
 34  3  1  0  0  0  0
 37  7  1  0  0  0  0
 39 21  1  0  0  0  0
 40 22  1  0  0  0  0
 41 23  1  0  0  0  0
 42 24  1  0  0  0  0
 43 27  1  0  0  0  0
 47 28  1  0  0  0  0
 48 29  1  0  0  0  0
 53 32  1  0  0  0  0
 54 32  1  0  0  0  0
 57 33  1  0  0  0  0
 58 33  1  0  0  0  0
M  END
>  <Pose>
1

>  <Score>
-4.50

$$$$
