
 OpenBabel03222202113D

 38 41  0  0  0  0  0  0  0  0999 V2000
   25.9310   78.6870   16.6500 B   0  0  0  0  0  0  0  0  0  0  0  0
   24.1830   79.0800   15.9990 C   0  0  0  0  0  0  0  0  0  0  0  0
   23.2230   78.0710   15.8660 C   0  0  0  0  0  0  0  0  0  0  0  0
   21.9640   78.3570   15.3970 C   0  0  0  0  0  0  0  0  0  0  0  0
   21.6800   79.6640   15.0630 C   0  0  0  0  0  0  0  0  0  0  0  0
   22.6310   80.6810   15.1920 C   0  0  0  0  0  0  0  0  0  0  0  0
   23.8890   80.3830   15.6630 C   0  0  0  0  0  0  0  0  0  0  0  0
   20.9450   77.3600   15.2410 N   0  0  0  0  0  0  0  0  0  0  0  0
   20.2140   76.7720   16.1510 N   0  0  0  0  0  0  0  0  0  0  0  0
   19.3840   75.9060   15.5950 N   0  0  0  0  0  0  0  0  0  0  0  0
   19.5810   75.9290   14.2550 C   0  0  0  0  0  0  0  0  0  0  0  0
   20.5750   76.8580   14.0510 C   0  0  0  0  0  0  0  0  0  0  0  0
   18.8950   75.1450   13.2350 C   0  0  0  0  0  0  0  0  0  0  0  0
   17.9860   74.3600   13.6020 O   0  0  0  0  0  0  0  0  0  0  0  0
   19.2080   75.2320   11.8630 N   0  0  0  0  0  0  0  0  0  0  0  0
   18.6080   74.4140   10.8340 C   0  0  0  0  0  0  0  0  0  0  0  0
   18.8520   74.9960    9.4680 C   0  0  0  0  0  0  0  0  0  0  0  0
   19.2200   76.2600    9.1500 N   0  0  0  0  0  0  0  0  0  0  0  0
   19.3330   76.3710    7.8220 C   0  0  0  0  0  0  0  0  0  0  0  0
   19.0270   75.1510    7.3200 N   0  0  0  0  0  0  0  0  0  0  0  0
   18.7380   74.3270    8.3070 N   0  0  0  0  0  0  0  0  0  0  0  0
   19.7420   77.7680    7.4280 C   0  0  0  0  0  0  0  0  0  0  0  0
   19.4030   78.5320    8.6900 C   0  0  0  0  0  0  0  0  0  0  0  0
   19.5210   77.5180    9.8120 C   0  0  0  0  0  0  0  0  0  0  0  0
   23.4480   77.0500   16.1270 H   0  0  0  0  0  0  0  0  0  0  0  0
   20.6930   79.8950   14.6940 H   0  0  0  0  0  0  0  0  0  0  0  0
   22.3960   81.7140   14.9240 H   0  0  0  0  0  0  0  0  0  0  0  0
   24.6300   81.1660   15.7650 H   0  0  0  0  0  0  0  0  0  0  0  0
   20.9840   77.1300   13.0840 H   0  0  0  0  0  0  0  0  0  0  0  0
   19.9230   75.9350   11.5700 H   0  0  0  0  0  0  0  0  0  0  0  0
   18.9820   73.3740   10.8880 H   0  0  0  0  0  0  0  0  0  0  0  0
   17.4870   74.4300   10.9650 H   0  0  0  0  0  0  0  0  0  0  0  0
   19.1800   78.1000    6.5520 H   0  0  0  0  0  0  0  0  0  0  0  0
   20.8520   77.8080    7.2900 H   0  0  0  0  0  0  0  0  0  0  0  0
   20.1360   79.3310    8.9130 H   0  0  0  0  0  0  0  0  0  0  0  0
   18.3660   78.9100    8.5700 H   0  0  0  0  0  0  0  0  0  0  0  0
   20.5120   77.5450   10.2910 H   0  0  0  0  0  0  0  0  0  0  0  0
   18.7700   77.7890   10.5800 H   0  0  0  0  0  0  0  0  0  0  0  0
  2  1  1  0  0  0  0
  3  2  1  0  0  0  0
  3 25  1  0  0  0  0
  4  3  2  0  0  0  0
  5  6  2  0  0  0  0
  5  4  1  0  0  0  0
  6  7  1  0  0  0  0
  7 28  1  0  0  0  0
  7  2  2  0  0  0  0
  8  4  1  0  0  0  0
  8  9  1  0  0  0  0
 10  9  2  0  0  0  0
 11 10  1  0  0  0  0
 12 11  2  0  0  0  0
 12  8  1  0  0  0  0
 13 14  2  0  0  0  0
 13 11  1  0  0  0  0
 15 13  1  0  0  0  0
 16 31  1  0  0  0  0
 16 32  1  0  0  0  0
 16 15  1  0  0  0  0
 17 16  1  0  0  0  0
 18 17  1  0  0  0  0
 18 24  1  0  0  0  0
 19 18  1  0  0  0  0
 20 19  2  0  0  0  0
 20 21  1  0  0  0  0
 21 17  2  0  0  0  0
 22 19  1  0  0  0  0
 22 23  1  0  0  0  0
 23 35  1  0  0  0  0
 23 24  1  0  0  0  0
 24 37  1  0  0  0  0
 24 38  1  0  0  0  0
 26  5  1  0  0  0  0
 27  6  1  0  0  0  0
 29 12  1  0  0  0  0
 30 15  1  0  0  0  0
 33 22  1  0  0  0  0
 34 22  1  0  0  0  0
 36 23  1  0  0  0  0
M  END
>  <Pose>
1

>  <Score>
-6.38

$$$$
