
 OpenBabel03222202113D

 37 40  0  0  1  0  0  0  0  0999 V2000
   19.9920   77.7890   18.8590 B   0  0  0  0  0  0  0  0  0  0  0  0
   20.5810   77.7930   17.0450 C   0  0  0  0  0  0  0  0  0  0  0  0
   20.0620   76.9500   16.0950 C   0  0  0  0  0  0  0  0  0  0  0  0
   20.4710   76.9340   14.7640 C   0  0  0  0  0  0  0  0  0  0  0  0
   21.4640   77.8440   14.4370 C   0  0  0  0  0  0  0  0  0  0  0  0
   21.9910   78.6930   15.3800 C   0  0  0  0  0  0  0  0  0  0  0  0
   21.5680   78.6950   16.7060 C   0  0  0  0  0  0  0  0  0  0  0  0
   19.9090   76.0460   13.8190 N   0  0  0  0  0  0  0  0  0  0  0  0
   19.6150   74.6410   13.9470 C   0  0  0  0  0  0  0  0  0  0  0  0
   20.1640   73.8850   14.7970 O   0  0  0  0  0  0  0  0  0  0  0  0
   18.6060   74.2690   12.9570 C   0  0  2  0  0  0  0  0  0  0  0  0
   18.6970   73.0340   12.3780 O   0  0  0  0  0  0  0  0  0  0  0  0
   18.2340   73.2800   11.0870 N   0  0  0  0  0  0  0  0  0  0  0  0
   18.7330   74.5300   10.6750 C   0  0  0  0  0  0  0  0  0  0  0  0
   18.9870   75.1840   11.8170 C   0  0  0  0  0  0  0  0  0  0  0  0
   19.5100   76.3750   12.4770 C   0  0  0  0  0  0  0  0  0  0  0  0
   19.5990   77.5070   11.9560 O   0  0  0  0  0  0  0  0  0  0  0  0
   18.8980   75.0580    9.3290 C   0  0  0  0  0  0  0  0  0  0  0  0
   18.3600   74.4770    8.1770 C   0  0  0  0  0  0  0  0  0  0  0  0
   18.6820   75.2290    7.1430 N   0  0  0  0  0  0  0  0  0  0  0  0
   19.3990   76.2610    7.5810 N   0  0  0  0  0  0  0  0  0  0  0  0
   19.5450   76.1800    8.8920 C   0  0  0  0  0  0  0  0  0  0  0  0
   18.3320   74.9920    5.7440 C   0  0  0  0  0  0  0  0  0  0  0  0
   17.5850   73.2160    8.1140 C   0  0  0  0  0  0  0  0  0  0  0  0
   19.2880   76.2340   16.3520 H   0  0  0  0  0  0  0  0  0  0  0  0
   21.8150   77.8680   13.4100 H   0  0  0  0  0  0  0  0  0  0  0  0
   22.7790   79.4230   15.1500 H   0  0  0  0  0  0  0  0  0  0  0  0
   21.9910   79.3640   17.4370 H   0  0  0  0  0  0  0  0  0  0  0  0
   17.5760   74.5040   13.3070 H   0  0  0  0  0  0  0  0  0  0  0  0
   17.6340   72.6570   10.5330 H   0  0  0  0  0  0  0  0  0  0  0  0
   20.0760   76.8720    9.5190 H   0  0  0  0  0  0  0  0  0  0  0  0
   17.8380   75.9050    5.3220 H   0  0  0  0  0  0  0  0  0  0  0  0
   19.2000   74.7030    5.1270 H   0  0  0  0  0  0  0  0  0  0  0  0
   17.5840   74.1620    5.7050 H   0  0  0  0  0  0  0  0  0  0  0  0
   17.6340   72.6640    9.0850 H   0  0  0  0  0  0  0  0  0  0  0  0
   16.5570   73.4720    7.8060 H   0  0  0  0  0  0  0  0  0  0  0  0
   18.0540   72.6040    7.3230 H   0  0  0  0  0  0  0  0  0  0  0  0
  2  1  1  0  0  0  0
  3 25  1  0  0  0  0
  3  2  2  0  0  0  0
  4  3  1  0  0  0  0
  5  4  2  0  0  0  0
  5  6  1  0  0  0  0
  6  7  2  0  0  0  0
  7  2  1  0  0  0  0
  7 28  1  0  0  0  0
  8  9  1  0  0  0  0
  8  4  1  0  0  0  0
  9 10  2  0  0  0  0
 11 29  1  1  0  0  0
 11  9  1  0  0  0  0
 12 11  1  0  0  0  0
 13 12  1  0  0  0  0
 14 13  1  0  0  0  0
 14 15  2  0  0  0  0
 15 16  1  0  0  0  0
 15 11  1  0  0  0  0
 16  8  1  0  0  0  0
 17 16  2  0  0  0  0
 18 14  1  0  0  0  0
 19 18  2  0  0  0  0
 20 21  1  0  0  0  0
 20 19  1  0  0  0  0
 21 22  2  0  0  0  0
 22 18  1  0  0  0  0
 22 31  1  0  0  0  0
 23 20  1  0  0  0  0
 24 19  1  0  0  0  0
 24 35  1  0  0  0  0
 26  5  1  0  0  0  0
 27  6  1  0  0  0  0
 30 13  1  0  0  0  0
 32 23  1  0  0  0  0
 33 23  1  0  0  0  0
 34 23  1  0  0  0  0
 36 24  1  0  0  0  0
 37 24  1  0  0  0  0
M  END
>  <Pose>
1

>  <Score>
-6.40

$$$$
