
 OpenBabel03222202113D

 50 53  0  0  0  0  0  0  0  0999 V2000
   19.5780   82.7080   20.4170 B   0  0  0  0  0  0  0  0  0  0  0  0
   19.7060   81.0730   19.4550 C   0  0  0  0  0  0  0  0  0  0  0  0
   19.6460   79.8600   20.1260 C   0  0  0  0  0  0  0  0  0  0  0  0
   19.7370   78.6530   19.4530 C   0  0  0  0  0  0  0  0  0  0  0  0
   19.8920   78.6010   18.0900 C   0  0  0  0  0  0  0  0  0  0  0  0
   19.9510   79.8170   17.4320 C   0  0  0  0  0  0  0  0  0  0  0  0
   19.8610   81.0240   18.0870 C   0  0  0  0  0  0  0  0  0  0  0  0
   19.9850   77.3300   17.3760 C   0  0  0  0  0  0  0  0  0  0  0  0
   18.9840   76.5960   17.3390 O   0  0  0  0  0  0  0  0  0  0  0  0
   21.2580   76.9200   16.7050 C   0  0  0  0  0  0  0  0  0  0  0  0
   21.4330   77.5210   15.4130 N   0  0  0  0  0  0  0  0  0  0  0  0
   22.0040   78.7050   15.1350 C   0  0  0  0  0  0  0  0  0  0  0  0
   21.9720   78.9290   13.7720 C   0  0  0  0  0  0  0  0  0  0  0  0
   21.3680   77.8510   13.2570 N   0  0  0  0  0  0  0  0  0  0  0  0
   21.0310   76.9820   14.2270 C   0  0  0  0  0  0  0  0  0  0  0  0
   20.3770   75.7320   14.1120 N   0  0  0  0  0  0  0  0  0  0  0  0
   19.1980   75.6380   13.3130 C   0  0  0  0  0  0  0  0  0  0  0  0
   18.7470   74.2780   12.9270 C   0  0  0  0  0  0  0  0  0  0  0  0
   19.1580   73.2150   13.7960 N   0  0  0  0  0  0  0  0  0  0  0  0
   20.5920   73.3190   13.9830 C   0  0  0  0  0  0  0  0  0  0  0  0
   20.9000   74.5840   14.7860 C   0  0  0  0  0  0  0  0  0  0  0  0
   18.4350   73.1700   15.0340 C   0  0  0  0  0  0  0  0  0  0  0  0
   22.4890   80.0620   13.2620 N   0  0  0  0  0  0  0  0  0  0  0  0
   23.0430   80.9860   14.0650 C   0  0  0  0  0  0  0  0  0  0  0  0
   23.5360   82.0560   13.6310 O   0  0  0  0  0  0  0  0  0  0  0  0
   23.0800   80.7780   15.4100 N   0  0  0  0  0  0  0  0  0  0  0  0
   22.5770   79.6620   15.9680 C   0  0  0  0  0  0  0  0  0  0  0  0
   22.6330   79.5030   17.2310 O   0  0  0  0  0  0  0  0  0  0  0  0
   22.4720   80.3260   11.8370 C   0  0  0  0  0  0  0  0  0  0  0  0
   19.5220   79.8970   21.2070 H   0  0  0  0  0  0  0  0  0  0  0  0
   19.6850   77.7090   20.0140 H   0  0  0  0  0  0  0  0  0  0  0  0
   20.0730   79.7960   16.3500 H   0  0  0  0  0  0  0  0  0  0  0  0
   19.9110   81.9550   17.5510 H   0  0  0  0  0  0  0  0  0  0  0  0
   22.1160   77.1050   17.3870 H   0  0  0  0  0  0  0  0  0  0  0  0
   21.2110   75.8210   16.5890 H   0  0  0  0  0  0  0  0  0  0  0  0
   18.3870   76.1390   13.9080 H   0  0  0  0  0  0  0  0  0  0  0  0
   19.3170   76.2400   12.3790 H   0  0  0  0  0  0  0  0  0  0  0  0
   19.0420   74.0200   11.8810 H   0  0  0  0  0  0  0  0  0  0  0  0
   17.6140   74.2710   12.9730 H   0  0  0  0  0  0  0  0  0  0  0  0
   21.0290   73.4950   12.9710 H   0  0  0  0  0  0  0  0  0  0  0  0
   21.0670   72.4610   14.4450 H   0  0  0  0  0  0  0  0  0  0  0  0
   20.5100   74.4810   15.8300 H   0  0  0  0  0  0  0  0  0  0  0  0
   22.0060   74.5920   14.8860 H   0  0  0  0  0  0  0  0  0  0  0  0
   18.1070   74.2150   15.3040 H   0  0  0  0  0  0  0  0  0  0  0  0
   19.0270   72.7450   15.8680 H   0  0  0  0  0  0  0  0  0  0  0  0
   17.4950   72.5890   14.9590 H   0  0  0  0  0  0  0  0  0  0  0  0
   23.5190   81.5230   16.0000 H   0  0  0  0  0  0  0  0  0  0  0  0
   23.2910   79.7190   11.3970 H   0  0  0  0  0  0  0  0  0  0  0  0
   21.5200   79.9510   11.4120 H   0  0  0  0  0  0  0  0  0  0  0  0
   22.6270   81.4030   11.6290 H   0  0  0  0  0  0  0  0  0  0  0  0
  2  3  1  0  0  0  0
  2  1  1  0  0  0  0
  3 30  1  0  0  0  0
  4 31  1  0  0  0  0
  4  3  2  0  0  0  0
  5  4  1  0  0  0  0
  6  7  1  0  0  0  0
  6  5  2  0  0  0  0
  7  2  2  0  0  0  0
  8  5  1  0  0  0  0
  9  8  2  0  0  0  0
 10  8  1  0  0  0  0
 10 34  1  0  0  0  0
 11 10  1  0  0  0  0
 12 11  1  0  0  0  0
 12 27  1  0  0  0  0
 13 12  2  0  0  0  0
 14 13  1  0  0  0  0
 14 15  2  0  0  0  0
 15 11  1  0  0  0  0
 16 15  1  0  0  0  0
 16 21  1  0  0  0  0
 17 36  1  0  0  0  0
 17 16  1  0  0  0  0
 18 39  1  0  0  0  0
 18 17  1  0  0  0  0
 18 19  1  0  0  0  0
 19 20  1  0  0  0  0
 19 22  1  0  0  0  0
 20 41  1  0  0  0  0
 20 21  1  0  0  0  0
 21 43  1  0  0  0  0
 21 42  1  0  0  0  0
 22 44  1  0  0  0  0
 22 45  1  0  0  0  0
 23 13  1  0  0  0  0
 23 24  1  0  0  0  0
 24 26  1  0  0  0  0
 25 24  2  0  0  0  0
 26 27  1  0  0  0  0
 26 47  1  0  0  0  0
 27 28  2  0  0  0  0
 29 23  1  0  0  0  0
 32  6  1  0  0  0  0
 33  7  1  0  0  0  0
 35 10  1  0  0  0  0
 37 17  1  0  0  0  0
 38 18  1  0  0  0  0
 40 20  1  0  0  0  0
 46 22  1  0  0  0  0
 48 29  1  0  0  0  0
 49 29  1  0  0  0  0
 50 29  1  0  0  0  0
M  END
>  <Pose>
1

>  <Score>
-6.20

$$$$
