
 OpenBabel03222202113D

 41 44  0  0  1  0  0  0  0  0999 V2000
   17.4820   71.3590   12.0750 B   0  0  0  0  0  0  0  0  0  0  0  0
   18.3490   72.8580   12.8770 C   0  0  0  0  0  0  0  0  0  0  0  0
   17.7990   74.1200   12.8130 C   0  0  0  0  0  0  0  0  0  0  0  0
   18.3860   75.2310   13.3750 C   0  0  0  0  0  0  0  0  0  0  0  0
   19.5800   75.1140   14.0400 C   0  0  0  0  0  0  0  0  0  0  0  0
   20.1430   73.8500   14.1120 C   0  0  0  0  0  0  0  0  0  0  0  0
   19.5480   72.7450   13.5470 C   0  0  0  0  0  0  0  0  0  0  0  0
   20.2460   76.2440   14.6470 C   0  0  0  0  0  0  0  0  0  0  0  0
   21.5170   76.2990   14.5790 O   0  0  0  0  0  0  0  0  0  0  0  0
   19.5800   77.3520   15.3450 C   0  0  1  0  0  0  0  0  0  0  0  0
   19.8070   77.2880   16.7810 N   0  0  0  0  0  0  0  0  0  0  0  0
   20.3810   76.4080   17.6750 N   0  0  0  0  0  0  0  0  0  0  0  0
   20.5490   76.6690   18.9230 C   0  0  0  0  0  0  0  0  0  0  0  0
   20.1140   77.9410   19.4520 C   0  0  0  0  0  0  0  0  0  0  0  0
   19.5330   78.8200   18.6700 C   0  0  0  0  0  0  0  0  0  0  0  0
   19.2900   78.5660   17.2620 C   0  0  1  0  0  0  0  0  0  0  0  0
   19.9200   79.5120   16.3020 C   0  0  2  0  0  0  0  0  0  0  0  0
   20.1920   78.7000   15.0310 C   0  0  1  0  0  0  0  0  0  0  0  0
   21.6500   78.6600   14.9420 C   0  0  0  0  0  0  0  0  0  0  0  0
   22.3190   77.8830   14.2060 O   0  0  0  0  0  0  0  0  0  0  0  0
   22.1890   79.6320   15.8160 N   0  0  0  0  0  0  0  0  0  0  0  0
   21.2080   80.0520   16.7560 C   0  0  0  0  0  0  0  0  0  0  0  0
   21.3970   80.7500   17.7810 O   0  0  0  0  0  0  0  0  0  0  0  0
   23.5380   80.1440   15.7800 C   0  0  0  0  0  0  0  0  0  0  0  0
   24.4950   79.3740   16.6380 C   0  0  0  0  0  0  0  0  0  0  0  0
   16.8450   74.2600   12.2910 H   0  0  0  0  0  0  0  0  0  0  0  0
   17.9220   76.2220   13.3120 H   0  0  0  0  0  0  0  0  0  0  0  0
   21.1010   73.7240   14.6390 H   0  0  0  0  0  0  0  0  0  0  0  0
   20.0200   71.7790   13.6240 H   0  0  0  0  0  0  0  0  0  0  0  0
   18.5270   77.3720   15.0760 H   0  0  0  0  0  0  0  0  0  0  0  0
   21.0180   75.9550   19.6170 H   0  0  0  0  0  0  0  0  0  0  0  0
   20.2790   78.1480   20.5130 H   0  0  0  0  0  0  0  0  0  0  0  0
   19.2230   79.7730   19.0850 H   0  0  0  0  0  0  0  0  0  0  0  0
   18.1740   78.4990   17.1070 H   0  0  0  0  0  0  0  0  0  0  0  0
   19.2550   80.3800   16.0970 H   0  0  0  0  0  0  0  0  0  0  0  0
   19.7010   79.2470   14.2190 H   0  0  0  0  0  0  0  0  0  0  0  0
   23.5920   81.2150   16.0830 H   0  0  0  0  0  0  0  0  0  0  0  0
   23.9510   80.1180   14.7350 H   0  0  0  0  0  0  0  0  0  0  0  0
   23.9970   78.8890   17.5070 H   0  0  0  0  0  0  0  0  0  0  0  0
   25.0660   78.6310   16.0280 H   0  0  0  0  0  0  0  0  0  0  0  0
   25.2720   80.0620   17.0640 H   0  0  0  0  0  0  0  0  0  0  0  0
  1  2  1  0  0  0  0
  2  7  1  0  0  0  0
  3  2  2  0  0  0  0
  3  4  1  0  0  0  0
  4  5  2  0  0  0  0
  5  6  1  0  0  0  0
  5  8  1  0  0  0  0
  6 28  1  0  0  0  0
  7 29  1  0  0  0  0
  7  6  2  0  0  0  0
  8 10  1  0  0  0  0
  9  8  2  0  0  0  0
 10 30  1  6  0  0  0
 10 11  1  0  0  0  0
 11 16  1  0  0  0  0
 11 12  1  0  0  0  0
 12 13  2  0  0  0  0
 13 14  1  0  0  0  0
 13 31  1  0  0  0  0
 14 32  1  0  0  0  0
 15 33  1  0  0  0  0
 15 14  2  0  0  0  0
 16 34  1  6  0  0  0
 16 15  1  0  0  0  0
 17 35  1  6  0  0  0
 17 22  1  0  0  0  0
 17 16  1  0  0  0  0
 18 36  1  6  0  0  0
 18 10  1  0  0  0  0
 18 17  1  0  0  0  0
 19 18  1  0  0  0  0
 19 21  1  0  0  0  0
 20 19  2  0  0  0  0
 21 22  1  0  0  0  0
 22 23  2  0  0  0  0
 24 21  1  0  0  0  0
 24 37  1  0  0  0  0
 24 25  1  0  0  0  0
 25 41  1  0  0  0  0
 25 39  1  0  0  0  0
 26  3  1  0  0  0  0
 27  4  1  0  0  0  0
 38 24  1  0  0  0  0
 40 25  1  0  0  0  0
M  END
>  <Pose>
1

>  <Score>
-4.84

$$$$
