
 OpenBabel03222202113D

 44 47  0  0  0  0  0  0  0  0999 V2000
   19.1290   77.9630    7.6760 B   0  0  0  0  0  0  0  0  0  0  0  0
   20.1450   78.6720    9.1470 C   0  0  0  0  0  0  0  0  0  0  0  0
   19.5370   79.4040   10.1410 C   0  0  0  0  0  0  0  0  0  0  0  0
   20.2670   79.9170   11.1970 C   0  0  0  0  0  0  0  0  0  0  0  0
   21.6330   79.7190   11.3060 C   0  0  0  0  0  0  0  0  0  0  0  0
   22.2370   78.9850   10.3090 C   0  0  0  0  0  0  0  0  0  0  0  0
   21.5050   78.4650    9.2380 C   0  0  0  0  0  0  0  0  0  0  0  0
   22.3720   80.2710   12.4370 C   0  0  0  0  0  0  0  0  0  0  0  0
   22.2340   79.7190   13.6480 C   0  0  0  0  0  0  0  0  0  0  0  0
   21.4170   78.6300   13.9030 O   0  0  0  0  0  0  0  0  0  0  0  0
   21.4600   78.2590   15.2430 C   0  0  0  0  0  0  0  0  0  0  0  0
   22.3100   79.1050   15.8880 C   0  0  0  0  0  0  0  0  0  0  0  0
   22.5380   78.9570   17.2400 C   0  0  0  0  0  0  0  0  0  0  0  0
   21.8810   77.9430   17.8860 C   0  0  0  0  0  0  0  0  0  0  0  0
   21.0060   77.0710   17.2250 C   0  0  0  0  0  0  0  0  0  0  0  0
   20.7660   77.2020   15.8800 C   0  0  0  0  0  0  0  0  0  0  0  0
   19.8790   76.3720   15.0560 C   0  0  0  0  0  0  0  0  0  0  0  0
   20.4620   75.4600   14.1500 N   0  0  0  0  0  4  0  0  0  0  0  0
   19.7680   74.1900   14.1190 C   0  0  0  0  0  0  0  0  0  0  0  0
   18.6190   74.2640   13.1320 C   0  0  0  0  0  0  0  0  0  0  0  0
   19.1430   74.1350   11.8550 O   0  0  0  0  0  0  0  0  0  0  0  0
   20.3910   74.7660   11.8380 C   0  0  0  0  0  0  0  0  0  0  0  0
   20.3790   75.9680   12.7690 C   0  0  0  0  0  0  0  0  0  0  0  0
   20.3770   76.0630   17.9570 O   0  0  0  0  0  0  0  0  0  0  0  0
   22.8360   80.0650   14.9070 C   0  0  0  0  0  0  0  0  0  0  0  0
   23.6480   81.0080   15.0900 O   0  0  0  0  0  0  0  0  0  0  0  0
   18.4670   79.5550   10.0470 H   0  0  0  0  0  0  0  0  0  0  0  0
   19.7790   80.4960   11.9790 H   0  0  0  0  0  0  0  0  0  0  0  0
   23.2920   78.8020   10.3460 H   0  0  0  0  0  0  0  0  0  0  0  0
   21.9680   77.8870    8.4480 H   0  0  0  0  0  0  0  0  0  0  0  0
   23.0450   81.1240   12.3610 H   0  0  0  0  0  0  0  0  0  0  0  0
   23.2130   79.6220   17.7680 H   0  0  0  0  0  0  0  0  0  0  0  0
   22.0390   77.8010   18.9390 H   0  0  0  0  0  0  0  0  0  0  0  0
   19.1170   77.0280   14.5740 H   0  0  0  0  0  0  0  0  0  0  0  0
   19.2790   75.7500   15.7920 H   0  0  0  0  0  0  0  0  0  0  0  0
   21.4820   75.3370   14.3160 H   0  0  0  0  0  0  0  0  0  0  0  0
   20.4250   73.3230   13.9220 H   0  0  0  0  0  0  0  0  0  0  0  0
   19.2970   74.0190   15.1100 H   0  0  0  0  0  0  0  0  0  0  0  0
   18.0980   75.2290   13.2750 H   0  0  0  0  0  0  0  0  0  0  0  0
   17.9310   73.4190   13.3990 H   0  0  0  0  0  0  0  0  0  0  0  0
   20.5800   75.0600   10.7890 H   0  0  0  0  0  0  0  0  0  0  0  0
   21.2080   74.0600   12.1260 H   0  0  0  0  0  0  0  0  0  0  0  0
   21.2830   76.5750   12.5490 H   0  0  0  0  0  0  0  0  0  0  0  0
   19.4810   76.5550   12.5820 H   0  0  0  0  0  0  0  0  0  0  0  0
  1  2  1  0  0  0  0
  2  7  2  0  0  0  0
  2  3  1  0  0  0  0
  3  4  2  0  0  0  0
  4  5  1  0  0  0  0
  4 28  1  0  0  0  0
  5  8  1  0  0  0  0
  6 29  1  0  0  0  0
  6  5  2  0  0  0  0
  7  6  1  0  0  0  0
  8  9  2  0  0  0  0
  9 10  1  0  0  0  0
  9 25  1  0  0  0  0
 10 11  1  0  0  0  0
 11 16  2  0  0  0  0
 11 12  1  0  0  0  0
 12 13  2  0  0  0  0
 13 32  1  0  0  0  0
 13 14  1  0  0  0  0
 14 33  1  0  0  0  0
 15 14  2  0  0  0  0
 15 24  1  0  0  0  0
 16 15  1  0  0  0  0
 17 35  1  0  0  0  0
 17 16  1  0  0  0  0
 18 36  1  0  0  0  0
 18 17  1  0  0  0  0
 19 18  1  0  0  0  0
 19 38  1  0  0  0  0
 20 39  1  0  0  0  0
 20 40  1  0  0  0  0
 20 19  1  0  0  0  0
 21 20  1  0  0  0  0
 22 21  1  0  0  0  0
 22 42  1  0  0  0  0
 22 23  1  0  0  0  0
 23 18  1  0  0  0  0
 25 26  2  0  0  0  0
 25 12  1  0  0  0  0
 27  3  1  0  0  0  0
 30  7  1  0  0  0  0
 31  8  1  0  0  0  0
 34 17  1  0  0  0  0
 37 19  1  0  0  0  0
 41 22  1  0  0  0  0
 43 23  1  0  0  0  0
 44 23  1  0  0  0  0
M  END
>  <Pose>
1

>  <Score>
-5.77

$$$$
