
 OpenBabel03222202113D

 41 44  0  0  0  0  0  0  0  0999 V2000
   24.7090   78.1130   11.8820 B   0  0  0  0  0  0  0  0  0  0  0  0
   23.7420   79.0460   13.2170 C   0  0  0  0  0  0  0  0  0  0  0  0
   24.1060   78.9160   14.5410 C   0  0  0  0  0  0  0  0  0  0  0  0
   23.4130   79.5850   15.5010 C   0  0  0  0  0  0  0  0  0  0  0  0
   22.3290   80.4140   15.2020 C   0  0  0  0  0  0  0  0  0  0  0  0
   22.0200   80.4970   13.8690 C   0  0  0  0  0  0  0  0  0  0  0  0
   22.6810   79.8470   12.8580 C   0  0  0  0  0  0  0  0  0  0  0  0
   21.5640   80.9470   16.3130 C   0  0  0  0  0  0  0  0  0  0  0  0
   20.9420   80.4610   17.3790 N   0  0  0  0  0  0  0  0  0  0  0  0
   20.3790   81.4610   18.1020 C   0  0  0  0  0  0  0  0  0  0  0  0
   20.6600   82.6020   17.4460 N   0  0  0  0  0  0  0  0  0  0  0  0
   21.3530   82.3260   16.3900 N   0  0  0  0  0  0  0  0  0  0  0  0
   19.7400   80.9990   19.1830 N   0  0  0  0  0  0  0  0  0  0  0  0
   19.8950   79.6710   19.1430 C   0  0  0  0  0  0  0  0  0  0  0  0
   20.6420   79.2960   18.0180 C   0  0  0  0  0  0  0  0  0  0  0  0
   20.8870   78.0230   17.7530 N   0  0  0  0  0  0  0  0  0  0  0  0
   20.3950   77.0900   18.6250 C   0  0  0  0  0  0  0  0  0  0  0  0
   20.6090   75.8740   18.4130 O   0  0  0  0  0  0  0  0  0  0  0  0
   19.6860   77.4170   19.7130 N   0  0  0  0  0  0  0  0  0  0  0  0
   19.4190   78.7030   19.9950 C   0  0  0  0  0  0  0  0  0  0  0  0
   18.7550   79.0480   21.0070 O   0  0  0  0  0  0  0  0  0  0  0  0
   21.5270   77.4900   16.5780 C   0  0  0  0  0  0  0  0  0  0  0  0
   19.0370   81.7680   20.1850 C   0  0  0  0  0  0  0  0  0  0  0  0
   19.8310   82.9630   20.6670 C   0  0  0  0  0  0  0  0  0  0  0  0
   19.3460   84.1540   20.1420 O   0  0  0  0  0  0  0  0  0  0  0  0
   18.4580   84.6890   21.0740 C   0  0  0  0  0  0  0  0  0  0  0  0
   24.9390   78.2860   14.8310 H   0  0  0  0  0  0  0  0  0  0  0  0
   23.7170   79.4690   16.5440 H   0  0  0  0  0  0  0  0  0  0  0  0
   21.1410   81.1110   13.5910 H   0  0  0  0  0  0  0  0  0  0  0  0
   22.3810   79.9630   11.8410 H   0  0  0  0  0  0  0  0  0  0  0  0
   19.3140   76.7080   20.3770 H   0  0  0  0  0  0  0  0  0  0  0  0
   21.1870   77.9710   15.6480 H   0  0  0  0  0  0  0  0  0  0  0  0
   22.6020   77.2930   16.6790 H   0  0  0  0  0  0  0  0  0  0  0  0
   21.1180   76.4130   16.4090 H   0  0  0  0  0  0  0  0  0  0  0  0
   18.7730   81.1630   21.0430 H   0  0  0  0  0  0  0  0  0  0  0  0
   18.1110   82.1320   19.6850 H   0  0  0  0  0  0  0  0  0  0  0  0
   20.8910   82.8470   20.3250 H   0  0  0  0  0  0  0  0  0  0  0  0
   19.8360   82.9630   21.7570 H   0  0  0  0  0  0  0  0  0  0  0  0
   18.9910   84.8790   22.0400 H   0  0  0  0  0  0  0  0  0  0  0  0
   17.5720   84.0440   21.2410 H   0  0  0  0  0  0  0  0  0  0  0  0
   18.0620   85.6790   20.7170 H   0  0  0  0  0  0  0  0  0  0  0  0
  1  2  1  0  0  0  0
  2  3  1  0  0  0  0
  3 27  1  0  0  0  0
  3  4  2  0  0  0  0
  4 28  1  0  0  0  0
  5  4  1  0  0  0  0
  5  8  1  0  0  0  0
  6  5  2  0  0  0  0
  7  2  2  0  0  0  0
  7  6  1  0  0  0  0
  8 12  2  0  0  0  0
  8  9  1  0  0  0  0
  9 15  1  0  0  0  0
  9 10  1  0  0  0  0
 10 13  1  0  0  0  0
 11 10  2  0  0  0  0
 12 11  1  0  0  0  0
 13 23  1  0  0  0  0
 14 13  1  0  0  0  0
 14 20  1  0  0  0  0
 15 14  2  0  0  0  0
 16 15  1  0  0  0  0
 16 17  1  0  0  0  0
 17 19  1  0  0  0  0
 18 17  2  0  0  0  0
 19 20  1  0  0  0  0
 19 31  1  0  0  0  0
 20 21  2  0  0  0  0
 22 33  1  0  0  0  0
 22 16  1  0  0  0  0
 23 24  1  0  0  0  0
 23 35  1  0  0  0  0
 24 38  1  0  0  0  0
 25 24  1  0  0  0  0
 25 26  1  0  0  0  0
 26 40  1  0  0  0  0
 26 39  1  0  0  0  0
 29  6  1  0  0  0  0
 30  7  1  0  0  0  0
 32 22  1  0  0  0  0
 34 22  1  0  0  0  0
 36 23  1  0  0  0  0
 37 24  1  0  0  0  0
 41 26  1  0  0  0  0
M  END
>  <Pose>
1

>  <Score>
-5.92

$$$$
