
 OpenBabel03222202113D

 57 60  0  0  0  0  0  0  0  0999 V2000
   16.4560   75.1830    4.6670 B   0  0  0  0  0  0  0  0  0  0  0  0
   17.4170   76.0450    6.0780 C   0  0  0  0  0  0  0  0  0  0  0  0
   18.4340   75.3680    6.6840 C   0  0  0  0  0  0  0  0  0  0  0  0
   19.1320   75.9770    7.7040 C   0  0  0  0  0  0  0  0  0  0  0  0
   18.8540   77.2640    8.1590 C   0  0  0  0  0  0  0  0  0  0  0  0
   17.8280   77.9220    7.5330 C   0  0  0  0  0  0  0  0  0  0  0  0
   17.1020   77.3230    6.4910 C   0  0  0  0  0  0  0  0  0  0  0  0
   19.5750   77.8920    9.2340 C   0  0  0  0  0  0  0  0  0  0  0  0
   19.4010   77.4780   10.5330 C   0  0  0  0  0  0  0  0  0  0  0  0
   20.0200   78.0400   11.5530 O   0  0  0  0  0  0  0  0  0  0  0  0
   20.8450   79.0420   11.3870 C   0  0  0  0  0  0  0  0  0  0  0  0
   21.0580   79.4950   10.1330 C   0  0  0  0  0  0  0  0  0  0  0  0
   21.9190   80.5510    9.9270 C   0  0  0  0  0  0  0  0  0  0  0  0
   22.5380   81.1120   11.0140 C   0  0  0  0  0  0  0  0  0  0  0  0
   22.3080   80.6320   12.3170 C   0  0  0  0  0  0  0  0  0  0  0  0
   21.4610   79.5890   12.5460 C   0  0  0  0  0  0  0  0  0  0  0  0
   21.1430   78.9750   13.8120 C   0  0  0  0  0  0  0  0  0  0  0  0
   21.8380   79.2490   15.0030 N   0  0  0  0  0  4  0  0  0  0  0  0
   22.7520   78.2190   15.3490 C   0  0  0  0  0  0  0  0  0  0  0  0
   23.0950   78.0070   16.7700 C   0  0  0  0  0  0  0  0  0  0  0  0
   22.1730   78.5630   17.6630 N   0  0  0  0  0  0  0  0  0  0  0  0
   21.6950   79.8530   17.4170 C   0  0  0  0  0  0  0  0  0  0  0  0
   21.1710   79.9780   16.0210 C   0  0  0  0  0  0  0  0  0  0  0  0
   21.7320   77.8360   18.7780 C   0  0  0  0  0  0  0  0  0  0  0  0
   23.0170   81.3210   13.2870 O   0  0  0  0  0  0  0  0  0  0  0  0
   20.4500   78.9580    9.0160 C   0  0  0  0  0  0  0  0  0  0  0  0
   20.6460   79.3740    7.8700 O   0  0  0  0  0  0  0  0  0  0  0  0
   18.4850   76.3540   10.7850 C   0  0  0  0  0  0  0  0  0  0  0  0
   17.2760   76.6190   11.0030 O   0  0  0  0  0  0  0  0  0  0  0  0
   18.8740   75.0500   10.7940 O   0  0  0  0  0  0  0  0  0  0  0  0
   18.5220   74.2050   11.8630 C   0  0  0  0  0  0  0  0  0  0  0  0
   18.9270   74.8560   13.1570 C   0  0  0  0  0  0  0  0  0  0  0  0
   18.6680   74.3530    6.3420 H   0  0  0  0  0  0  0  0  0  0  0  0
   19.9220   75.4480    8.1740 H   0  0  0  0  0  0  0  0  0  0  0  0
   17.5270   78.9220    7.8030 H   0  0  0  0  0  0  0  0  0  0  0  0
   16.2970   77.8420    6.0040 H   0  0  0  0  0  0  0  0  0  0  0  0
   22.0820   80.9040    8.9100 H   0  0  0  0  0  0  0  0  0  0  0  0
   23.2150   81.9350   10.8660 H   0  0  0  0  0  0  0  0  0  0  0  0
   21.1370   77.8200   13.6940 H   0  0  0  0  0  0  0  0  0  0  0  0
   20.0340   79.1410   14.0360 H   0  0  0  0  0  0  0  0  0  0  0  0
   22.5630   80.0440   14.6360 H   0  0  0  0  0  0  0  0  0  0  0  0
   22.3810   77.2450   14.9190 H   0  0  0  0  0  0  0  0  0  0  0  0
   23.7420   78.3330   14.7740 H   0  0  0  0  0  0  0  0  0  0  0  0
   24.1460   78.3750   17.0150 H   0  0  0  0  0  0  0  0  0  0  0  0
   23.1830   76.9010   17.0220 H   0  0  0  0  0  0  0  0  0  0  0  0
   22.4500   80.6690   17.5940 H   0  0  0  0  0  0  0  0  0  0  0  0
   20.8750   80.0860   18.1440 H   0  0  0  0  0  0  0  0  0  0  0  0
   20.0820   79.7780   16.0000 H   0  0  0  0  0  0  0  0  0  0  0  0
   21.1990   81.1050   15.8100 H   0  0  0  0  0  0  0  0  0  0  0  0
   20.6370   77.9780   18.9050 H   0  0  0  0  0  0  0  0  0  0  0  0
   21.8410   76.7330   18.5640 H   0  0  0  0  0  0  0  0  0  0  0  0
   22.2860   77.9910   19.7240 H   0  0  0  0  0  0  0  0  0  0  0  0
   17.4310   73.9530   11.8500 H   0  0  0  0  0  0  0  0  0  0  0  0
   19.0260   73.1990   11.7520 H   0  0  0  0  0  0  0  0  0  0  0  0
   19.4210   74.1220   13.8490 H   0  0  0  0  0  0  0  0  0  0  0  0
   19.5530   75.7380   12.9360 H   0  0  0  0  0  0  0  0  0  0  0  0
   17.9780   75.2320   13.6230 H   0  0  0  0  0  0  0  0  0  0  0  0
  1  2  1  0  0  0  0
  2  7  2  0  0  0  0
  2  3  1  0  0  0  0
  3  4  2  0  0  0  0
  4  5  1  0  0  0  0
  4 34  1  0  0  0  0
  5  8  1  0  0  0  0
  6 35  1  0  0  0  0
  6  5  2  0  0  0  0
  7  6  1  0  0  0  0
  8  9  2  0  0  0  0
  9 28  1  0  0  0  0
  9 10  1  0  0  0  0
 11 10  1  0  0  0  0
 11 16  1  0  0  0  0
 12 11  2  0  0  0  0
 13 12  1  0  0  0  0
 13 14  2  0  0  0  0
 14 15  1  0  0  0  0
 15 16  2  0  0  0  0
 15 25  1  0  0  0  0
 16 17  1  0  0  0  0
 17 40  1  0  0  0  0
 17 18  1  0  0  0  0
 18 19  1  0  0  0  0
 18 23  1  0  0  0  0
 19 20  1  0  0  0  0
 20 44  1  0  0  0  0
 20 45  1  0  0  0  0
 20 21  1  0  0  0  0
 21 24  1  0  0  0  0
 22 46  1  0  0  0  0
 22 21  1  0  0  0  0
 22 47  1  0  0  0  0
 23 22  1  0  0  0  0
 24 50  1  0  0  0  0
 24 52  1  0  0  0  0
 26  8  1  0  0  0  0
 26 12  1  0  0  0  0
 27 26  2  0  0  0  0
 28 30  1  0  0  0  0
 28 29  2  0  0  0  0
 30 31  1  0  0  0  0
 31 32  1  0  0  0  0
 32 57  1  0  0  0  0
 32 55  1  0  0  0  0
 33  3  1  0  0  0  0
 36  7  1  0  0  0  0
 37 13  1  0  0  0  0
 38 14  1  0  0  0  0
 39 17  1  0  0  0  0
 41 18  1  0  0  0  0
 42 19  1  0  0  0  0
 43 19  1  0  0  0  0
 48 23  1  0  0  0  0
 49 23  1  0  0  0  0
 51 24  1  0  0  0  0
 53 31  1  0  0  0  0
 54 31  1  0  0  0  0
 56 32  1  0  0  0  0
M  END
>  <Pose>
1

>  <Score>
-5.64

$$$$
