
 OpenBabel03222202113D

 58 62  0  0  1  0  0  0  0  0999 V2000
   22.7630   78.9780   17.2370 B   0  0  0  0  0  0  0  0  0  0  0  0
   21.7340   77.8360   16.0780 C   0  0  0  0  0  0  0  0  0  0  0  0
   22.0060   77.7370   14.7480 C   0  0  0  0  0  0  0  0  0  0  0  0
   21.2740   76.9260   13.9300 C   0  0  0  0  0  0  0  0  0  0  0  0
   20.2220   76.1660   14.4020 C   0  0  0  0  0  0  0  0  0  0  0  0
   19.9500   76.2630   15.7240 C   0  0  0  0  0  0  0  0  0  0  0  0
   20.7000   77.1000   16.5860 C   0  0  0  0  0  0  0  0  0  0  0  0
   19.4890   75.3400   13.4670 C   0  0  0  0  0  0  0  0  0  0  0  0
   18.9590   74.0860   13.8130 C   0  0  0  0  0  0  0  0  0  0  0  0
   18.3450   73.6210   12.7330 N   0  0  0  0  0  0  0  0  0  0  0  0
   17.6300   72.5220   12.3400 C   0  0  0  0  0  0  0  0  0  0  0  0
   17.2930   72.7590   11.0310 C   0  0  0  0  0  0  0  0  0  0  0  0
   17.7950   73.9400   10.7010 N   0  0  0  0  0  0  0  0  0  0  0  0
   18.4570   74.4920   11.7580 C   0  0  1  0  0  0  0  0  0  0  0  0
   19.1690   75.5750   12.1900 N   0  0  0  0  0  0  0  0  0  0  0  0
   19.4280   76.6870   11.3280 C   0  0  0  0  0  0  0  0  0  0  0  0
   19.5100   76.4190    9.8790 C   0  0  0  0  0  0  0  0  0  0  0  0
   19.0170   77.4510    8.9300 C   0  0  0  0  0  0  0  0  0  0  0  0
   20.1010   78.1840    8.3140 N   0  0  0  0  0  4  0  0  0  0  0  0
   20.6140   79.2360    9.1410 C   0  0  0  0  0  0  0  0  0  0  0  0
   19.7370   79.6200   10.2990 C   0  0  0  0  0  0  0  0  0  0  0  0
   20.1930   81.0220   10.7320 C   0  0  0  0  0  0  0  0  0  0  0  0
   21.6100   80.9400   11.1850 C   0  0  0  0  0  0  0  0  0  0  0  0
   22.5360   80.2960   10.1790 C   0  0  0  0  0  0  0  0  0  0  0  0
   21.9850   78.9370    9.7330 C   0  0  0  0  0  0  0  0  0  0  0  0
   16.5480   71.8360   10.2930 C   0  0  0  0  0  0  0  0  0  0  0  0
   16.1410   70.6590   10.8840 C   0  0  0  0  0  0  0  0  0  0  0  0
   16.4930   70.4450   12.1970 C   0  0  0  0  0  0  0  0  0  0  0  0
   17.2320   71.3590   12.9390 C   0  0  0  0  0  0  0  0  0  0  0  0
   22.8360   78.3250   14.3240 H   0  0  0  0  0  0  0  0  0  0  0  0
   21.5510   76.8900   12.8570 H   0  0  0  0  0  0  0  0  0  0  0  0
   19.1800   75.7530   16.2310 H   0  0  0  0  0  0  0  0  0  0  0  0
   20.4760   77.1710   17.6360 H   0  0  0  0  0  0  0  0  0  0  0  0
   19.0370   73.5880   14.7750 H   0  0  0  0  0  0  0  0  0  0  0  0
   17.6710   74.3610    9.7610 H   0  0  0  0  0  0  0  0  0  0  0  0
   20.2420   77.3110   11.6840 H   0  0  0  0  0  0  0  0  0  0  0  0
   18.4940   77.3800   11.4230 H   0  0  0  0  0  0  0  0  0  0  0  0
   20.6280   76.3340    9.6590 H   0  0  0  0  0  0  0  0  0  0  0  0
   19.1590   75.3850    9.5770 H   0  0  0  0  0  0  0  0  0  0  0  0
   18.3420   78.1990    9.3940 H   0  0  0  0  0  0  0  0  0  0  0  0
   18.5080   76.8960    8.0920 H   0  0  0  0  0  0  0  0  0  0  0  0
   20.8400   77.6290    7.8910 H   0  0  0  0  0  0  0  0  0  0  0  0
   19.6500   78.6930    7.4690 H   0  0  0  0  0  0  0  0  0  0  0  0
   20.7770   80.1810    8.5400 H   0  0  0  0  0  0  0  0  0  0  0  0
   18.6690   79.6020   10.0860 H   0  0  0  0  0  0  0  0  0  0  0  0
   19.9920   78.9580   11.1750 H   0  0  0  0  0  0  0  0  0  0  0  0
   20.0790   81.7180    9.8630 H   0  0  0  0  0  0  0  0  0  0  0  0
   19.5770   81.3520   11.5860 H   0  0  0  0  0  0  0  0  0  0  0  0
   21.9810   81.9730   11.3480 H   0  0  0  0  0  0  0  0  0  0  0  0
   21.6540   80.3950   12.1450 H   0  0  0  0  0  0  0  0  0  0  0  0
   23.5020   80.1340   10.6820 H   0  0  0  0  0  0  0  0  0  0  0  0
   22.6120   80.9510    9.3090 H   0  0  0  0  0  0  0  0  0  0  0  0
   21.8790   78.2870   10.6380 H   0  0  0  0  0  0  0  0  0  0  0  0
   22.6290   78.5360    8.9520 H   0  0  0  0  0  0  0  0  0  0  0  0
   16.2790   72.0120    9.2660 H   0  0  0  0  0  0  0  0  0  0  0  0
   15.5540   69.9080   10.3360 H   0  0  0  0  0  0  0  0  0  0  0  0
   16.1750   69.5290   12.6580 H   0  0  0  0  0  0  0  0  0  0  0  0
   17.5050   71.1910   13.9610 H   0  0  0  0  0  0  0  0  0  0  0  0
  2  7  1  0  0  0  0
  2  1  1  0  0  0  0
  3  2  2  0  0  0  0
  4  5  2  0  0  0  0
  4  3  1  0  0  0  0
  5  6  1  0  0  0  0
  6 32  1  0  0  0  0
  6  7  2  0  0  0  0
  7 33  1  0  0  0  0
  8  9  2  0  0  0  0
  8  5  1  0  0  0  0
  9 34  1  0  0  0  0
 10  9  1  0  0  0  0
 11 10  1  0  0  0  0
 11 29  1  0  0  0  0
 12 11  2  0  0  0  0
 13 12  1  0  0  0  0
 14 13  1  1  0  0  0
 14 15  1  0  0  0  0
 14 10  1  0  0  0  0
 15  8  1  0  0  0  0
 16 37  1  0  0  0  0
 16 36  1  0  0  0  0
 16 15  1  0  0  0  0
 17 16  1  0  0  0  0
 18 40  1  0  0  0  0
 18 17  1  0  0  0  0
 19 18  1  0  0  0  0
 19 20  1  0  0  0  0
 20 25  1  0  0  0  0
 20 21  1  0  0  0  0
 21 22  1  0  0  0  0
 21 46  1  0  0  0  0
 22 23  1  0  0  0  0
 22 48  1  0  0  0  0
 23 49  1  0  0  0  0
 23 50  1  0  0  0  0
 24 51  1  0  0  0  0
 24 23  1  0  0  0  0
 25 24  1  0  0  0  0
 25 53  1  0  0  0  0
 26 27  2  0  0  0  0
 26 12  1  0  0  0  0
 27 28  1  0  0  0  0
 28 57  1  0  0  0  0
 28 29  2  0  0  0  0
 29 58  1  0  0  0  0
 30  3  1  0  0  0  0
 31  4  1  0  0  0  0
 35 13  1  0  0  0  0
 38 17  1  0  0  0  0
 39 17  1  0  0  0  0
 41 18  1  0  0  0  0
 42 19  1  0  0  0  0
 43 19  1  0  0  0  0
 44 20  1  0  0  0  0
 45 21  1  0  0  0  0
 47 22  1  0  0  0  0
 52 24  1  0  0  0  0
 54 25  1  0  0  0  0
 55 26  1  0  0  0  0
 56 27  1  0  0  0  0
M  END
>  <Pose>
1

>  <Score>
-5.98

$$$$
