
 OpenBabel03222202113D

 61 65  0  0  1  0  0  0  0  0999 V2000
   17.8320   75.6540    5.5300 B   0  0  0  0  0  0  0  0  0  0  0  0
   18.4560   75.8780    7.3290 C   0  0  0  0  0  0  0  0  0  0  0  0
   18.7990   74.7950    8.0970 C   0  0  0  0  0  0  0  0  0  0  0  0
   19.2560   74.9610    9.4140 C   0  0  0  0  0  0  0  0  0  0  0  0
   19.3850   76.1780   10.0030 C   0  0  0  0  0  0  0  0  0  0  0  0
   19.0320   77.2670    9.2040 C   0  0  0  0  0  0  0  0  0  0  0  0
   18.5800   77.1130    7.9020 C   0  0  0  0  0  0  0  0  0  0  0  0
   19.8080   76.4310   11.3790 C   0  0  0  0  0  0  0  0  0  0  0  0
   20.9700   77.1510   11.7150 C   0  0  0  0  0  0  0  0  0  0  0  0
   21.0950   77.2610   13.0420 N   0  0  0  0  0  0  0  0  0  0  0  0
   21.8700   77.7640   14.0340 C   0  0  0  0  0  0  0  0  0  0  0  0
   21.2560   77.4180   15.2130 C   0  0  0  0  0  0  0  0  0  0  0  0
   20.1280   76.7170   14.9090 N   0  0  0  0  0  0  0  0  0  0  0  0
   20.0480   76.6320   13.5680 C   0  0  1  0  0  0  0  0  0  0  0  0
   19.2580   76.1230   12.5550 N   0  0  0  0  0  0  0  0  0  0  0  0
   18.0290   75.4020   12.8110 C   0  0  0  0  0  0  0  0  0  0  0  0
   18.2260   73.9280   13.0770 C   0  0  0  0  0  0  0  0  0  0  0  0
   18.8130   73.2300   11.8760 C   0  0  0  0  0  0  0  0  0  0  0  0
   18.9610   71.8070   12.0160 N   0  0  0  0  0  0  0  0  0  0  0  0
   18.6150   71.2420   10.7220 C   0  0  0  0  0  0  0  0  0  0  0  0
   17.7150   70.0650   10.7790 C   0  0  0  0  0  0  0  0  0  0  0  0
   16.5920   70.1710   11.6700 N   0  0  0  0  0  4  0  0  0  0  0  0
   16.7710   71.1600   12.7120 C   0  0  0  0  0  0  0  0  0  0  0  0
   18.2390   71.2000   13.0840 C   0  0  0  0  0  0  0  0  0  0  0  0
   15.3530   70.2580   10.9660 C   0  0  0  0  0  0  0  0  0  0  0  0
   15.3380   69.6820    9.5910 C   0  0  0  0  0  0  0  0  0  0  0  0
   14.3670   70.2380    8.7600 O   0  0  0  0  0  0  0  0  0  0  0  0
   21.8480   77.8140   16.3940 C   0  0  0  0  0  0  0  0  0  0  0  0
   23.0310   78.5410   16.4100 C   0  0  0  0  0  0  0  0  0  0  0  0
   23.6440   78.8870   15.2320 C   0  0  0  0  0  0  0  0  0  0  0  0
   23.0410   78.4840   14.0340 C   0  0  0  0  0  0  0  0  0  0  0  0
   18.7160   73.8020    7.6800 H   0  0  0  0  0  0  0  0  0  0  0  0
   19.5120   74.0610    9.9160 H   0  0  0  0  0  0  0  0  0  0  0  0
   19.1170   78.2490    9.6360 H   0  0  0  0  0  0  0  0  0  0  0  0
   18.3180   77.9810    7.3260 H   0  0  0  0  0  0  0  0  0  0  0  0
   21.6710   77.5580   10.9780 H   0  0  0  0  0  0  0  0  0  0  0  0
   19.4650   76.3290   15.6150 H   0  0  0  0  0  0  0  0  0  0  0  0
   17.5920   75.7990   13.8060 H   0  0  0  0  0  0  0  0  0  0  0  0
   17.2360   75.5730   12.1100 H   0  0  0  0  0  0  0  0  0  0  0  0
   19.0350   73.8840   13.8640 H   0  0  0  0  0  0  0  0  0  0  0  0
   17.3720   73.4120   13.5010 H   0  0  0  0  0  0  0  0  0  0  0  0
   19.8180   73.6350   11.6400 H   0  0  0  0  0  0  0  0  0  0  0  0
   18.1870   73.4920   10.9720 H   0  0  0  0  0  0  0  0  0  0  0  0
   18.2480   71.9870    9.9960 H   0  0  0  0  0  0  0  0  0  0  0  0
   19.5970   70.8840   10.2940 H   0  0  0  0  0  0  0  0  0  0  0  0
   18.3330   69.1370   10.9650 H   0  0  0  0  0  0  0  0  0  0  0  0
   17.3260   69.9080    9.7300 H   0  0  0  0  0  0  0  0  0  0  0  0
   16.5530   69.2410   12.1940 H   0  0  0  0  0  0  0  0  0  0  0  0
   16.2130   70.8380   13.6230 H   0  0  0  0  0  0  0  0  0  0  0  0
   16.4580   72.1660   12.4520 H   0  0  0  0  0  0  0  0  0  0  0  0
   18.6370   70.1630   13.2470 H   0  0  0  0  0  0  0  0  0  0  0  0
   18.3400   71.7180   14.0330 H   0  0  0  0  0  0  0  0  0  0  0  0
   14.9650   71.3140   10.8730 H   0  0  0  0  0  0  0  0  0  0  0  0
   14.5550   69.7310   11.5590 H   0  0  0  0  0  0  0  0  0  0  0  0
   16.3240   69.9720    9.1210 H   0  0  0  0  0  0  0  0  0  0  0  0
   15.3270   68.5770    9.5670 H   0  0  0  0  0  0  0  0  0  0  0  0
   14.7560   70.4490    7.8940 H   0  0  0  0  0  0  0  0  0  0  0  0
   21.3980   77.5620   17.3410 H   0  0  0  0  0  0  0  0  0  0  0  0
   23.4980   78.8530   17.3260 H   0  0  0  0  0  0  0  0  0  0  0  0
   24.5640   79.4530   15.2400 H   0  0  0  0  0  0  0  0  0  0  0  0
   23.5070   78.7450   13.0980 H   0  0  0  0  0  0  0  0  0  0  0  0
  1  2  1  0  0  0  0
  2  7  2  0  0  0  0
  2  3  1  0  0  0  0
  3  4  2  0  0  0  0
  4 33  1  0  0  0  0
  4  5  1  0  0  0  0
  5  8  1  0  0  0  0
  6 34  1  0  0  0  0
  6  5  2  0  0  0  0
  7  6  1  0  0  0  0
  8  9  2  0  0  0  0
  8 15  1  0  0  0  0
  9 10  1  0  0  0  0
 10 14  1  0  0  0  0
 10 11  1  0  0  0  0
 11 12  1  0  0  0  0
 12 28  2  0  0  0  0
 13 12  1  0  0  0  0
 13 37  1  0  0  0  0
 14 15  1  6  0  0  0
 14 13  1  0  0  0  0
 15 16  1  0  0  0  0
 16 17  1  0  0  0  0
 16 38  1  0  0  0  0
 17 41  1  0  0  0  0
 17 40  1  0  0  0  0
 18 19  1  0  0  0  0
 18 17  1  0  0  0  0
 19 24  1  0  0  0  0
 20 21  1  0  0  0  0
 20 19  1  0  0  0  0
 21 46  1  0  0  0  0
 21 22  1  0  0  0  0
 22 48  1  0  0  0  0
 22 23  1  0  0  0  0
 23 24  1  0  0  0  0
 23 49  1  0  0  0  0
 24 51  1  0  0  0  0
 24 52  1  0  0  0  0
 25 54  1  0  0  0  0
 25 22  1  0  0  0  0
 26 25  1  0  0  0  0
 27 26  1  0  0  0  0
 28 29  1  0  0  0  0
 28 58  1  0  0  0  0
 29 59  1  0  0  0  0
 30 60  1  0  0  0  0
 30 29  2  0  0  0  0
 31 11  2  0  0  0  0
 31 30  1  0  0  0  0
 32  3  1  0  0  0  0
 35  7  1  0  0  0  0
 36  9  1  0  0  0  0
 39 16  1  0  0  0  0
 42 18  1  0  0  0  0
 43 18  1  0  0  0  0
 44 20  1  0  0  0  0
 45 20  1  0  0  0  0
 47 21  1  0  0  0  0
 50 23  1  0  0  0  0
 53 25  1  0  0  0  0
 55 26  1  0  0  0  0
 56 26  1  0  0  0  0
 57 27  1  0  0  0  0
 61 31  1  0  0  0  0
M  END
>  <Pose>
1

>  <Score>
-5.45

$$$$
