
 OpenBabel03222202113D

 63 66  0  0  1  0  0  0  0  0999 V2000
   19.7840   77.5990   19.7030 B   0  0  0  0  0  0  0  0  0  0  0  0
   20.1500   77.1960   17.8610 C   0  0  0  0  0  0  0  0  0  0  0  0
   19.1560   76.6630   17.0710 C   0  0  0  0  0  0  0  0  0  0  0  0
   19.3960   76.3620   15.7270 C   0  0  0  0  0  0  0  0  0  0  0  0
   20.6300   76.5890   15.1570 C   0  0  0  0  0  0  0  0  0  0  0  0
   21.5960   77.1230   15.9800 C   0  0  0  0  0  0  0  0  0  0  0  0
   21.3770   77.4250   17.3030 C   0  0  0  0  0  0  0  0  0  0  0  0
   20.8780   76.2750   13.7480 C   0  0  2  0  0  0  0  0  0  0  0  0
   20.7050   77.4030   12.8740 N   0  0  0  0  0  0  0  0  0  0  0  0
   19.7720   77.1160   11.8490 C   0  0  0  0  0  0  0  0  0  0  0  0
   19.3960   77.8660   10.8960 O   0  0  0  0  0  0  0  0  0  0  0  0
   19.2550   75.7430   12.0410 C   0  0  0  0  0  0  0  0  0  0  0  0
   18.4150   75.1790   11.3040 O   0  0  0  0  0  0  0  0  0  0  0  0
   19.9250   75.2420   13.2220 C   0  0  0  0  0  0  0  0  0  0  0  0
   19.7290   74.0310   13.6940 C   0  0  0  0  0  0  0  0  0  0  0  0
   20.4900   73.6330   14.8140 O   0  0  0  0  0  0  0  0  0  0  0  0
   18.7970   73.0580   13.1820 C   0  0  0  0  0  0  0  0  0  0  0  0
   19.0710   71.7850   12.8230 C   0  0  0  0  0  0  0  0  0  0  0  0
   18.0720   70.9450   12.3780 C   0  0  0  0  0  0  0  0  0  0  0  0
   16.7530   71.3300   12.2710 C   0  0  0  0  0  0  0  0  0  0  0  0
   16.5000   72.6360   12.6440 C   0  0  0  0  0  0  0  0  0  0  0  0
   17.4660   73.4950   13.0880 C   0  0  0  0  0  0  0  0  0  0  0  0
   15.7520   70.4780   11.8220 O   0  0  0  0  0  0  0  0  0  0  0  0
   15.7400   70.0460   10.4690 C   0  0  0  0  0  0  0  0  0  0  0  0
   18.4270   69.5390   11.9910 C   0  0  0  0  0  0  0  0  0  0  0  0
   21.4130   78.6590   13.0380 C   0  0  0  0  0  0  0  0  0  0  0  0
   22.8960   78.4890   13.2230 C   0  0  0  0  0  0  0  0  0  0  0  0
   23.5150   79.6820   13.8830 C   0  0  0  0  0  0  0  0  0  0  0  0
   24.4420   79.3390   14.9210 N   0  0  0  0  0  4  0  0  0  0  0  0
   24.5450   77.9130   15.1510 C   0  0  0  0  0  0  0  0  0  0  0  0
   25.7340   77.7030   16.0940 C   0  0  0  0  0  0  0  0  0  0  0  0
   26.1640   78.9120   16.6190 O   0  0  0  0  0  0  0  0  0  0  0  0
   25.0810   79.6020   17.2070 C   0  0  0  0  0  0  0  0  0  0  0  0
   24.1160   80.0590   16.1190 C   0  0  0  0  0  0  0  0  0  0  0  0
   18.1820   76.4800   17.5040 H   0  0  0  0  0  0  0  0  0  0  0  0
   18.6190   75.9440   15.1050 H   0  0  0  0  0  0  0  0  0  0  0  0
   22.5790   77.3000   15.5130 H   0  0  0  0  0  0  0  0  0  0  0  0
   22.1640   77.8390   17.8990 H   0  0  0  0  0  0  0  0  0  0  0  0
   21.9290   75.9430   13.6420 H   0  0  0  0  0  0  0  0  0  0  0  0
   20.1120   71.4500   12.8730 H   0  0  0  0  0  0  0  0  0  0  0  0
   15.4440   72.9400   12.5550 H   0  0  0  0  0  0  0  0  0  0  0  0
   17.1910   74.5080   13.3650 H   0  0  0  0  0  0  0  0  0  0  0  0
   16.7140   69.5260   10.2750 H   0  0  0  0  0  0  0  0  0  0  0  0
   14.9420   69.3320   10.2610 H   0  0  0  0  0  0  0  0  0  0  0  0
   15.7410   70.9370    9.7800 H   0  0  0  0  0  0  0  0  0  0  0  0
   19.4530   69.4790   11.5750 H   0  0  0  0  0  0  0  0  0  0  0  0
   17.6570   69.1910   11.2790 H   0  0  0  0  0  0  0  0  0  0  0  0
   18.3030   68.9350   12.9200 H   0  0  0  0  0  0  0  0  0  0  0  0
   21.0140   79.1830   13.9410 H   0  0  0  0  0  0  0  0  0  0  0  0
   21.2590   79.3330   12.1690 H   0  0  0  0  0  0  0  0  0  0  0  0
   23.3500   78.2960   12.2220 H   0  0  0  0  0  0  0  0  0  0  0  0
   23.0380   77.6150   13.8870 H   0  0  0  0  0  0  0  0  0  0  0  0
   24.0740   80.3130   13.1610 H   0  0  0  0  0  0  0  0  0  0  0  0
   22.7070   80.3170   14.3000 H   0  0  0  0  0  0  0  0  0  0  0  0
   25.4120   79.6570   14.6230 H   0  0  0  0  0  0  0  0  0  0  0  0
   24.7920   77.4150   14.2120 H   0  0  0  0  0  0  0  0  0  0  0  0
   23.6580   77.5270   15.6670 H   0  0  0  0  0  0  0  0  0  0  0  0
   25.4960   76.9850   16.8910 H   0  0  0  0  0  0  0  0  0  0  0  0
   26.6140   77.2850   15.5320 H   0  0  0  0  0  0  0  0  0  0  0  0
   25.5460   80.5050   17.6760 H   0  0  0  0  0  0  0  0  0  0  0  0
   24.5950   79.0250   17.9970 H   0  0  0  0  0  0  0  0  0  0  0  0
   23.0650   79.8150   16.3890 H   0  0  0  0  0  0  0  0  0  0  0  0
   24.2690   81.1420   15.9060 H   0  0  0  0  0  0  0  0  0  0  0  0
  2  1  1  0  0  0  0
  3 35  1  0  0  0  0
  3  2  2  0  0  0  0
  4  3  1  0  0  0  0
  5  4  2  0  0  0  0
  5  6  1  0  0  0  0
  6  7  2  0  0  0  0
  7  2  1  0  0  0  0
  7 38  1  0  0  0  0
  8 39  1  6  0  0  0
  8  5  1  0  0  0  0
  9 26  1  0  0  0  0
  9  8  1  0  0  0  0
 10 12  1  0  0  0  0
 10  9  1  0  0  0  0
 11 10  2  0  0  0  0
 12 14  1  0  0  0  0
 13 12  2  0  0  0  0
 14 15  2  0  0  0  0
 14  8  1  0  0  0  0
 15 16  1  0  0  0  0
 17 15  1  0  0  0  0
 18 40  1  0  0  0  0
 18 17  2  0  0  0  0
 19 18  1  0  0  0  0
 20 19  2  0  0  0  0
 20 21  1  0  0  0  0
 21 22  2  0  0  0  0
 22 17  1  0  0  0  0
 22 42  1  0  0  0  0
 23 20  1  0  0  0  0
 24 23  1  0  0  0  0
 25 19  1  0  0  0  0
 25 48  1  0  0  0  0
 26 27  1  0  0  0  0
 26 49  1  0  0  0  0
 27 28  1  0  0  0  0
 27 52  1  0  0  0  0
 28 54  1  0  0  0  0
 28 29  1  0  0  0  0
 29 30  1  0  0  0  0
 29 34  1  0  0  0  0
 30 57  1  0  0  0  0
 30 31  1  0  0  0  0
 31 32  1  0  0  0  0
 31 58  1  0  0  0  0
 32 33  1  0  0  0  0
 33 60  1  0  0  0  0
 33 61  1  0  0  0  0
 34 62  1  0  0  0  0
 34 33  1  0  0  0  0
 36  4  1  0  0  0  0
 37  6  1  0  0  0  0
 41 21  1  0  0  0  0
 43 24  1  0  0  0  0
 44 24  1  0  0  0  0
 45 24  1  0  0  0  0
 46 25  1  0  0  0  0
 47 25  1  0  0  0  0
 50 26  1  0  0  0  0
 51 27  1  0  0  0  0
 53 28  1  0  0  0  0
 55 29  1  0  0  0  0
 56 30  1  0  0  0  0
 59 31  1  0  0  0  0
 63 34  1  0  0  0  0
M  END
>  <Pose>
1

>  <Score>
-6.77

$$$$
