
 OpenBabel03222202113D

 44 47  0  0  0  0  0  0  0  0999 V2000
   16.1330   69.9850   11.4220 B   0  0  0  0  0  0  0  0  0  0  0  0
   17.3410   71.2600   12.1730 C   0  0  0  0  0  0  0  0  0  0  0  0
   17.0360   72.5930   12.2420 C   0  0  0  0  0  0  0  0  0  0  0  0
   17.9330   73.5190   12.7930 C   0  0  0  0  0  0  0  0  0  0  0  0
   19.1590   73.1620   13.2950 C   0  0  0  0  0  0  0  0  0  0  0  0
   19.4390   71.7850   13.2100 C   0  0  0  0  0  0  0  0  0  0  0  0
   18.5700   70.8760   12.6730 C   0  0  0  0  0  0  0  0  0  0  0  0
   20.1300   74.0080   13.8380 N   0  0  0  0  0  0  0  0  0  0  0  0
   19.9670   75.3720   14.1120 C   0  0  0  0  0  0  0  0  0  0  0  0
   20.0870   76.2230   13.1440 O   0  0  0  0  0  0  0  0  0  0  0  0
   19.6660   76.0010   15.3970 C   0  0  0  0  0  0  0  0  0  0  0  0
   20.5740   77.1330   15.6480 N   0  0  0  0  0  0  0  0  0  0  0  0
   21.0050   77.9290   14.6740 N   0  0  0  0  0  0  0  0  0  0  0  0
   21.8700   78.9550   14.9170 C   0  0  0  0  0  0  0  0  0  0  0  0
   22.2980   79.1700   16.1700 N   0  0  0  0  0  0  0  0  0  0  0  0
   23.1830   80.3130   16.2140 C   0  0  0  0  0  0  0  0  0  0  0  0
   23.2990   80.8290   14.8100 C   0  0  0  0  0  0  0  0  0  0  0  0
   22.4900   79.8960   14.0490 N   0  0  0  0  0  0  0  0  0  0  0  0
   22.3710   79.9600   12.6400 C   0  0  0  0  0  0  0  0  0  0  0  0
   22.2070   78.8620   11.8390 C   0  0  0  0  0  0  0  0  0  0  0  0
   22.1090   78.9560   10.4620 C   0  0  0  0  0  0  0  0  0  0  0  0
   22.1770   80.1960    9.8560 C   0  0  0  0  0  0  0  0  0  0  0  0
   22.3390   81.2990   10.6340 C   0  0  0  0  0  0  0  0  0  0  0  0
   22.4360   81.1960   12.0050 C   0  0  0  0  0  0  0  0  0  0  0  0
   21.8980   78.4020   17.1930 C   0  0  0  0  0  0  0  0  0  0  0  0
   22.2990   78.6060   18.3640 O   0  0  0  0  0  0  0  0  0  0  0  0
   21.0240   77.3770   16.8910 C   0  0  0  0  0  0  0  0  0  0  0  0
   20.6200   76.6310   17.8180 O   0  0  0  0  0  0  0  0  0  0  0  0
   16.0820   72.9300   11.8610 H   0  0  0  0  0  0  0  0  0  0  0  0
   17.6450   74.5660   12.8400 H   0  0  0  0  0  0  0  0  0  0  0  0
   20.3960   71.4540   13.5940 H   0  0  0  0  0  0  0  0  0  0  0  0
   18.8020   69.8100   12.6090 H   0  0  0  0  0  0  0  0  0  0  0  0
   21.0790   73.5940   14.0620 H   0  0  0  0  0  0  0  0  0  0  0  0
   19.8160   75.3120   16.2630 H   0  0  0  0  0  0  0  0  0  0  0  0
   18.6350   76.3930   15.4100 H   0  0  0  0  0  0  0  0  0  0  0  0
   22.6510   81.1020   16.7960 H   0  0  0  0  0  0  0  0  0  0  0  0
   24.1700   80.0760   16.6750 H   0  0  0  0  0  0  0  0  0  0  0  0
   24.3760   80.6960   14.5230 H   0  0  0  0  0  0  0  0  0  0  0  0
   22.9670   81.8790   14.6750 H   0  0  0  0  0  0  0  0  0  0  0  0
   22.1540   77.9070   12.3040 H   0  0  0  0  0  0  0  0  0  0  0  0
   21.9840   78.0690    9.8530 H   0  0  0  0  0  0  0  0  0  0  0  0
   22.1000   80.2630    8.7630 H   0  0  0  0  0  0  0  0  0  0  0  0
   22.3960   82.2750   10.1880 H   0  0  0  0  0  0  0  0  0  0  0  0
   22.5650   82.0640   12.6020 H   0  0  0  0  0  0  0  0  0  0  0  0
  1  2  1  0  0  0  0
  2  3  2  0  0  0  0
  2  7  1  0  0  0  0
  3  4  1  0  0  0  0
  4 30  1  0  0  0  0
  4  5  2  0  0  0  0
  5  8  1  0  0  0  0
  6  5  1  0  0  0  0
  6 31  1  0  0  0  0
  7  6  2  0  0  0  0
  8 33  1  0  0  0  0
  8  9  1  0  0  0  0
  9 11  1  0  0  0  0
 10  9  2  0  0  0  0
 11 35  1  0  0  0  0
 11 12  1  0  0  0  0
 11 34  1  0  0  0  0
 12 27  1  0  0  0  0
 13 14  2  0  0  0  0
 13 12  1  0  0  0  0
 14 15  1  0  0  0  0
 15 16  1  0  0  0  0
 15 25  1  0  0  0  0
 16 37  1  0  0  0  0
 16 36  1  0  0  0  0
 17 16  1  0  0  0  0
 18 17  1  0  0  0  0
 18 14  1  0  0  0  0
 19 18  1  0  0  0  0
 20 40  1  0  0  0  0
 20 19  2  0  0  0  0
 21 20  1  0  0  0  0
 22 21  2  0  0  0  0
 22 23  1  0  0  0  0
 23 24  2  0  0  0  0
 24 44  1  0  0  0  0
 24 19  1  0  0  0  0
 25 26  2  0  0  0  0
 27 25  1  0  0  0  0
 27 28  2  0  0  0  0
 29  3  1  0  0  0  0
 32  7  1  0  0  0  0
 38 17  1  0  0  0  0
 39 17  1  0  0  0  0
 41 21  1  0  0  0  0
 42 22  1  0  0  0  0
 43 23  1  0  0  0  0
M  END
>  <Pose>
1

>  <Score>
-7.20

$$$$
