
 OpenBabel03222202113D

 44 47  0  0  0  0  0  0  0  0999 V2000
   16.5740   75.3780    4.5130 B   0  0  0  0  0  0  0  0  0  0  0  0
   17.5850   75.7530    6.0780 C   0  0  0  0  0  0  0  0  0  0  0  0
   17.6490   77.0060    6.6340 C   0  0  0  0  0  0  0  0  0  0  0  0
   18.4040   77.2280    7.7780 C   0  0  0  0  0  0  0  0  0  0  0  0
   19.1190   76.2370    8.4150 C   0  0  0  0  0  0  0  0  0  0  0  0
   19.0290   74.9660    7.8160 C   0  0  0  0  0  0  0  0  0  0  0  0
   18.2920   74.7460    6.6970 C   0  0  0  0  0  0  0  0  0  0  0  0
   19.9220   76.4150    9.5640 N   0  0  0  0  0  0  0  0  0  0  0  0
   19.4590   76.5450   10.8800 C   0  0  0  0  0  0  0  0  0  0  0  0
   19.3620   77.6660   11.4210 O   0  0  0  0  0  0  0  0  0  0  0  0
   19.0700   75.3090   11.6740 C   0  0  0  0  0  0  0  0  0  0  0  0
   19.0740   75.6460   13.0830 N   0  0  0  0  0  0  0  0  0  0  0  0
   18.0480   75.4430   13.9100 N   0  0  0  0  0  0  0  0  0  0  0  0
   18.3700   75.8530   15.1150 N   0  0  0  0  0  0  0  0  0  0  0  0
   19.6340   76.3370   15.0790 C   0  0  0  0  0  0  0  0  0  0  0  0
   20.0550   76.2020   13.8160 C   0  0  0  0  0  0  0  0  0  0  0  0
   21.3390   76.7030   13.8210 C   0  0  0  0  0  0  0  0  0  0  0  0
   22.0620   76.7380   12.7810 O   0  0  0  0  0  0  0  0  0  0  0  0
   21.7070   77.1340   15.0370 N   0  0  0  0  0  0  0  0  0  0  0  0
   20.6290   76.9040   15.8400 C   0  0  0  0  0  0  0  0  0  0  0  0
   20.6190   77.1900   17.0690 O   0  0  0  0  0  0  0  0  0  0  0  0
   22.9520   77.7180   15.4480 C   0  0  0  0  0  0  0  0  0  0  0  0
   24.1230   76.9920   15.4090 C   0  0  0  0  0  0  0  0  0  0  0  0
   25.3260   77.5500   15.7920 C   0  0  0  0  0  0  0  0  0  0  0  0
   25.4200   78.8570   16.2340 C   0  0  0  0  0  0  0  0  0  0  0  0
   24.2510   79.5860   16.2740 C   0  0  0  0  0  0  0  0  0  0  0  0
   23.0460   79.0210   15.8880 C   0  0  0  0  0  0  0  0  0  0  0  0
   26.7340   79.4290   16.6350 C   0  0  0  0  0  0  0  0  0  0  0  0
   17.1060   77.8070    6.1700 H   0  0  0  0  0  0  0  0  0  0  0  0
   18.4310   78.2410    8.2110 H   0  0  0  0  0  0  0  0  0  0  0  0
   19.5980   74.1650    8.3190 H   0  0  0  0  0  0  0  0  0  0  0  0
   18.2510   73.7430    6.2650 H   0  0  0  0  0  0  0  0  0  0  0  0
   20.9760   76.4480    9.3910 H   0  0  0  0  0  0  0  0  0  0  0  0
   19.7990   74.5120   11.4970 H   0  0  0  0  0  0  0  0  0  0  0  0
   18.0290   75.0380   11.3670 H   0  0  0  0  0  0  0  0  0  0  0  0
   17.1460   75.0210   13.6040 H   0  0  0  0  0  0  0  0  0  0  0  0
   17.7890   75.8340   15.9900 H   0  0  0  0  0  0  0  0  0  0  0  0
   24.0640   75.9650   15.0650 H   0  0  0  0  0  0  0  0  0  0  0  0
   26.2630   76.9810   15.7640 H   0  0  0  0  0  0  0  0  0  0  0  0
   24.2990   80.6240   16.6200 H   0  0  0  0  0  0  0  0  0  0  0  0
   22.1230   79.5930   15.9200 H   0  0  0  0  0  0  0  0  0  0  0  0
   27.2130   78.8490   17.4570 H   0  0  0  0  0  0  0  0  0  0  0  0
   26.5310   80.4400   17.0640 H   0  0  0  0  0  0  0  0  0  0  0  0
   27.4160   79.5610   15.7810 H   0  0  0  0  0  0  0  0  0  0  0  0
  1  2  1  0  0  0  0
  2  3  2  0  0  0  0
  2  7  1  0  0  0  0
  3  4  1  0  0  0  0
  4 30  1  0  0  0  0
  4  5  2  0  0  0  0
  5  8  1  0  0  0  0
  6 31  1  0  0  0  0
  6  5  1  0  0  0  0
  7  6  2  0  0  0  0
  8  9  1  0  0  0  0
  9 10  2  0  0  0  0
  9 11  1  0  0  0  0
 11 12  1  0  0  0  0
 12 16  1  0  0  0  0
 12 13  1  0  0  0  0
 13 14  1  0  0  0  0
 14 37  1  0  0  0  0
 15 14  1  0  0  0  0
 15 20  1  0  0  0  0
 16 17  1  0  0  0  0
 16 15  2  0  0  0  0
 17 19  1  0  0  0  0
 18 17  2  0  0  0  0
 19 22  1  0  0  0  0
 19 20  1  0  0  0  0
 20 21  2  0  0  0  0
 22 27  1  0  0  0  0
 23 22  2  0  0  0  0
 23 24  1  0  0  0  0
 24 25  2  0  0  0  0
 25 26  1  0  0  0  0
 25 28  1  0  0  0  0
 26 40  1  0  0  0  0
 27 41  1  0  0  0  0
 27 26  2  0  0  0  0
 28 43  1  0  0  0  0
 28 42  1  0  0  0  0
 29  3  1  0  0  0  0
 32  7  1  0  0  0  0
 33  8  1  0  0  0  0
 34 11  1  0  0  0  0
 35 11  1  0  0  0  0
 36 13  1  0  0  0  0
 38 23  1  0  0  0  0
 39 24  1  0  0  0  0
 44 28  1  0  0  0  0
M  END
>  <Pose>
1

>  <Score>
-6.59

$$$$
