
 OpenBabel03222202113D

 47 50  0  0  1  0  0  0  0  0999 V2000
   19.3760   84.5270   20.0500 B   0  0  0  0  0  0  0  0  0  0  0  0
   19.7500   82.7280   19.4970 C   0  0  0  0  0  0  0  0  0  0  0  0
   20.1620   82.4530   18.2160 C   0  0  0  0  0  0  0  0  0  0  0  0
   20.4240   81.1940   17.8150 C   0  0  0  0  0  0  0  0  0  0  0  0
   20.2840   80.0790   18.7010 C   0  0  0  0  0  0  0  0  0  0  0  0
   19.8700   80.3990   19.9750 C   0  0  0  0  0  0  0  0  0  0  0  0
   19.6050   81.6830   20.3830 C   0  0  0  0  0  0  0  0  0  0  0  0
   20.5040   78.8380   18.1590 N   0  0  0  0  0  0  0  0  0  0  0  0
   20.7140   77.6420   17.6350 C   0  0  0  0  0  0  0  0  0  0  0  0
   19.9850   76.5720   17.6510 O   0  0  0  0  0  0  0  0  0  0  0  0
   22.0170   77.3650   16.8540 C   0  0  2  0  0  0  0  0  0  0  0  0
   23.1070   77.9870   17.6760 C   0  0  0  0  0  0  0  0  0  0  0  0
   23.4590   79.3580   17.2860 C   0  0  0  0  0  0  0  0  0  0  0  0
   23.8750   80.1390   18.1850 O   0  0  0  0  0  0  0  0  0  0  0  0
   23.3280   79.7720   15.9380 N   0  0  0  0  0  0  0  0  0  0  0  0
   22.5620   79.0040   15.0340 C   0  0  0  0  0  0  0  0  0  0  0  0
   22.4600   79.4160   13.7330 N   0  0  0  0  0  0  0  0  0  0  0  0
   21.7640   78.7320   12.8230 C   0  0  0  0  0  0  0  0  0  0  0  0
   21.1540   77.6090   13.2220 N   0  0  0  0  0  0  0  0  0  0  0  0
   21.2220   77.1550   14.5080 C   0  0  0  0  0  0  0  0  0  0  0  0
   21.9360   77.8440   15.4680 C   0  0  0  0  0  0  0  0  0  0  0  0
   20.5440   75.9610   14.8870 N   0  0  0  0  0  0  0  0  0  0  0  0
   21.6690   79.1890   11.4540 N   0  0  0  0  0  0  0  0  0  0  0  0
   20.9210   78.3830   10.5530 C   0  0  0  0  0  0  0  0  0  0  0  0
   20.4800   79.0950    9.3070 C   0  0  0  0  0  0  0  0  0  0  0  0
   20.8150   80.4450    9.3190 O   0  0  0  0  0  0  0  0  0  0  0  0
   22.1560   80.6430    9.6190 C   0  0  0  0  0  0  0  0  0  0  0  0
   22.3310   80.4280   11.1000 C   0  0  0  0  0  0  0  0  0  0  0  0
   20.2720   83.2900   17.5140 H   0  0  0  0  0  0  0  0  0  0  0  0
   20.7470   80.9690   16.7950 H   0  0  0  0  0  0  0  0  0  0  0  0
   19.7290   79.5870   20.7130 H   0  0  0  0  0  0  0  0  0  0  0  0
   19.2790   81.9010   21.4070 H   0  0  0  0  0  0  0  0  0  0  0  0
   19.3450   78.9480   17.4510 H   0  0  0  0  0  0  0  0  0  0  0  0
   22.1680   76.2400   16.9010 H   0  0  0  0  0  0  0  0  0  0  0  0
   24.0120   77.3240   17.5990 H   0  0  0  0  0  0  0  0  0  0  0  0
   22.7760   77.9880   18.7480 H   0  0  0  0  0  0  0  0  0  0  0  0
   23.7940   80.6540   15.5780 H   0  0  0  0  0  0  0  0  0  0  0  0
   19.6650   75.6540   14.4600 H   0  0  0  0  0  0  0  0  0  0  0  0
   20.9640   75.3670   15.6470 H   0  0  0  0  0  0  0  0  0  0  0  0
   21.6020   77.5360   10.2510 H   0  0  0  0  0  0  0  0  0  0  0  0
   20.0800   77.9030   11.1160 H   0  0  0  0  0  0  0  0  0  0  0  0
   20.9070   78.6260    8.3860 H   0  0  0  0  0  0  0  0  0  0  0  0
   19.3830   79.0250    9.2240 H   0  0  0  0  0  0  0  0  0  0  0  0
   22.3700   81.7160    9.3410 H   0  0  0  0  0  0  0  0  0  0  0  0
   22.8010   79.9780    9.0150 H   0  0  0  0  0  0  0  0  0  0  0  0
   23.4030   80.4120   11.3980 H   0  0  0  0  0  0  0  0  0  0  0  0
   21.8770   81.3070   11.6300 H   0  0  0  0  0  0  0  0  0  0  0  0
  2  1  1  0  0  0  0
  2  7  1  0  0  0  0
  3  2  2  0  0  0  0
  4  3  1  0  0  0  0
  4  5  2  0  0  0  0
  5  6  1  0  0  0  0
  6  7  2  0  0  0  0
  6 31  1  0  0  0  0
  7 32  1  0  0  0  0
  8  5  1  0  0  0  0
  9 10  2  0  0  0  0
  9  8  1  0  0  0  0
 11 34  1  6  0  0  0
 11  9  1  0  0  0  0
 11 12  1  0  0  0  0
 12 36  1  0  0  0  0
 13 12  1  0  0  0  0
 13 14  2  0  0  0  0
 15 13  1  0  0  0  0
 16 21  2  0  0  0  0
 16 15  1  0  0  0  0
 17 16  1  0  0  0  0
 18 19  1  0  0  0  0
 18 17  2  0  0  0  0
 19 20  2  0  0  0  0
 20 22  1  0  0  0  0
 20 21  1  0  0  0  0
 21 11  1  0  0  0  0
 22 39  1  0  0  0  0
 23 18  1  0  0  0  0
 24 41  1  0  0  0  0
 24 23  1  0  0  0  0
 25 26  1  0  0  0  0
 25 24  1  0  0  0  0
 26 27  1  0  0  0  0
 27 28  1  0  0  0  0
 28 46  1  0  0  0  0
 28 23  1  0  0  0  0
 28 47  1  0  0  0  0
 29  3  1  0  0  0  0
 30  4  1  0  0  0  0
 33  8  1  0  0  0  0
 35 12  1  0  0  0  0
 37 15  1  0  0  0  0
 38 22  1  0  0  0  0
 40 24  1  0  0  0  0
 42 25  1  0  0  0  0
 43 25  1  0  0  0  0
 44 27  1  0  0  0  0
 45 27  1  0  0  0  0
M  END
>  <Pose>
1

>  <Score>
-6.57

$$$$
