
 OpenBabel03222202113D

 52 55  0  0  1  0  0  0  0  0999 V2000
   18.8440   84.9860   20.8970 B   0  0  0  0  0  0  0  0  0  0  0  0
   19.5940   83.4830   20.0240 C   0  0  0  0  0  0  0  0  0  0  0  0
   19.7510   82.2940   20.7140 C   0  0  0  0  0  0  0  0  0  0  0  0
   20.2790   81.1760   20.1610 C   0  0  0  0  0  0  0  0  0  0  0  0
   20.6900   81.2430   18.7910 C   0  0  0  0  0  0  0  0  0  0  0  0
   20.5200   82.4380   18.1340 C   0  0  0  0  0  0  0  0  0  0  0  0
   19.9810   83.5630   18.7170 C   0  0  0  0  0  0  0  0  0  0  0  0
   21.1470   80.0530   18.2820 N   0  0  0  0  0  0  0  0  0  0  0  0
   21.5970   78.8860   17.7820 C   0  0  0  0  0  0  0  0  0  0  0  0
   21.0780   77.6960   17.9250 O   0  0  0  0  0  0  0  0  0  0  0  0
   22.8210   78.7980   16.9400 C   0  0  2  0  0  0  0  0  0  0  0  0
   24.0560   79.4080   17.5770 C   0  0  0  0  0  0  0  0  0  0  0  0
   25.2470   78.9290   16.8120 C   0  0  0  0  0  0  0  0  0  0  0  0
   26.2150   78.4680   17.3900 O   0  0  0  0  0  0  0  0  0  0  0  0
   25.1820   79.0440   15.4160 N   0  0  0  0  0  0  0  0  0  0  0  0
   23.9360   79.1460   14.7560 C   0  0  0  0  0  0  0  0  0  0  0  0
   23.8620   79.3570   13.4260 N   0  0  0  0  0  0  0  0  0  0  0  0
   22.7370   79.5560   12.7370 C   0  0  0  0  0  0  0  0  0  0  0  0
   21.5990   79.5380   13.4780 N   0  0  0  0  0  0  0  0  0  0  0  0
   21.5970   79.3300   14.8200 C   0  0  0  0  0  0  0  0  0  0  0  0
   22.7460   79.1220   15.5210 C   0  0  0  0  0  0  0  0  0  0  0  0
   20.3840   79.3310   15.5040 O   0  0  0  0  0  0  0  0  0  0  0  0
   22.6830   79.7230   11.3340 N   0  0  0  0  0  0  0  0  0  0  0  0
   22.7390   78.6810   10.3420 C   0  0  0  0  0  0  0  0  0  0  0  0
   21.7730   79.0400    9.2160 C   0  0  0  0  0  0  0  0  0  0  0  0
   20.6130   79.8570    9.7030 C   0  0  2  0  0  0  0  0  0  0  0  0
   21.0630   81.1360   10.3170 C   0  0  0  0  0  0  0  0  0  0  0  0
   22.5340   81.0770   10.7880 C   0  0  0  0  0  0  0  0  0  0  0  0
   19.7150   79.0750   10.5850 C   0  0  0  0  0  0  0  0  0  0  0  0
   18.5460   79.4880   10.7360 O   0  0  0  0  0  0  0  0  0  0  0  0
   20.1060   77.9000   11.2640 N   0  0  0  0  0  0  0  0  0  0  0  0
   19.4330   82.2470   21.7740 H   0  0  0  0  0  0  0  0  0  0  0  0
   20.4020   80.2430   20.7140 H   0  0  0  0  0  0  0  0  0  0  0  0
   20.8090   82.5180   17.0840 H   0  0  0  0  0  0  0  0  0  0  0  0
   19.8570   84.4950   18.1760 H   0  0  0  0  0  0  0  0  0  0  0  0
   22.3610   80.6090   18.1010 H   0  0  0  0  0  0  0  0  0  0  0  0
   23.0720   77.6570   17.0410 H   0  0  0  0  0  0  0  0  0  0  0  0
   24.1940   79.0780   18.6240 H   0  0  0  0  0  0  0  0  0  0  0  0
   24.0330   80.5000   17.5530 H   0  0  0  0  0  0  0  0  0  0  0  0
   26.0400   79.0650   14.8020 H   0  0  0  0  0  0  0  0  0  0  0  0
   20.1250   78.5920   16.1540 H   0  0  0  0  0  0  0  0  0  0  0  0
   22.4300   77.7060   10.7550 H   0  0  0  0  0  0  0  0  0  0  0  0
   23.7260   78.5250    9.8750 H   0  0  0  0  0  0  0  0  0  0  0  0
   22.3210   79.4950    8.3760 H   0  0  0  0  0  0  0  0  0  0  0  0
   21.3720   78.0810    8.8090 H   0  0  0  0  0  0  0  0  0  0  0  0
   19.9970   80.1300    8.8020 H   0  0  0  0  0  0  0  0  0  0  0  0
   20.4430   81.3670   11.2300 H   0  0  0  0  0  0  0  0  0  0  0  0
   20.9550   82.0160    9.6590 H   0  0  0  0  0  0  0  0  0  0  0  0
   23.1830   81.2420    9.9280 H   0  0  0  0  0  0  0  0  0  0  0  0
   22.6200   81.8380   11.5860 H   0  0  0  0  0  0  0  0  0  0  0  0
   20.8390   77.2620   10.9020 H   0  0  0  0  0  0  0  0  0  0  0  0
   19.6410   77.6660   12.1660 H   0  0  0  0  0  0  0  0  0  0  0  0
  2  3  1  0  0  0  0
  2  1  1  0  0  0  0
  3 32  1  0  0  0  0
  4 33  1  0  0  0  0
  4  3  2  0  0  0  0
  5  4  1  0  0  0  0
  6  7  1  0  0  0  0
  6  5  2  0  0  0  0
  7  2  2  0  0  0  0
  8  5  1  0  0  0  0
  9 10  2  0  0  0  0
  9  8  1  0  0  0  0
 11 37  1  6  0  0  0
 11 12  1  0  0  0  0
 11  9  1  0  0  0  0
 12 38  1  0  0  0  0
 13 14  2  0  0  0  0
 13 12  1  0  0  0  0
 15 13  1  0  0  0  0
 16 15  1  0  0  0  0
 16 21  2  0  0  0  0
 17 16  1  0  0  0  0
 18 17  2  0  0  0  0
 18 19  1  0  0  0  0
 19 20  2  0  0  0  0
 20 22  1  0  0  0  0
 20 21  1  0  0  0  0
 21 11  1  0  0  0  0
 22 41  1  0  0  0  0
 23 18  1  0  0  0  0
 24 42  1  0  0  0  0
 24 23  1  0  0  0  0
 25 26  1  0  0  0  0
 25 24  1  0  0  0  0
 26 46  1  6  0  0  0
 26 27  1  0  0  0  0
 26 29  1  0  0  0  0
 27 28  1  0  0  0  0
 27 47  1  0  0  0  0
 28 23  1  0  0  0  0
 28 50  1  0  0  0  0
 29 30  2  0  0  0  0
 29 31  1  0  0  0  0
 31 52  1  0  0  0  0
 34  6  1  0  0  0  0
 35  7  1  0  0  0  0
 36  8  1  0  0  0  0
 39 12  1  0  0  0  0
 40 15  1  0  0  0  0
 43 24  1  0  0  0  0
 44 25  1  0  0  0  0
 45 25  1  0  0  0  0
 48 27  1  0  0  0  0
 49 28  1  0  0  0  0
 51 31  1  0  0  0  0
M  END
>  <Pose>
1

>  <Score>
-6.90

$$$$
