
 OpenBabel03222202113D

 42 45  0  0  0  0  0  0  0  0999 V2000
   19.3930   78.1110    7.6180 B   0  0  0  0  0  0  0  0  0  0  0  0
   20.1840   78.6880    9.2610 C   0  0  0  0  0  0  0  0  0  0  0  0
   19.4200   79.3130   10.2240 C   0  0  0  0  0  0  0  0  0  0  0  0
   20.0070   79.7220   11.4040 C   0  0  0  0  0  0  0  0  0  0  0  0
   21.3490   79.5380   11.6830 C   0  0  0  0  0  0  0  0  0  0  0  0
   22.1020   78.9090   10.7080 C   0  0  0  0  0  0  0  0  0  0  0  0
   21.5280   78.4940    9.5230 C   0  0  0  0  0  0  0  0  0  0  0  0
   21.9330   79.9720   12.9130 N   0  0  0  0  0  0  0  0  0  0  0  0
   22.6530   81.0540   13.0780 N   0  0  0  0  0  0  0  0  0  0  0  0
   23.0720   81.2060   14.3500 C   0  0  0  0  0  0  0  0  0  0  0  0
   22.5760   80.1330   15.0380 C   0  0  0  0  0  0  0  0  0  0  0  0
   21.8710   79.3790   14.1240 C   0  0  0  0  0  0  0  0  0  0  0  0
   21.1680   78.1450   14.3980 N   0  0  0  0  0  0  0  0  0  0  0  0
   20.7600   77.2230   13.5390 C   0  0  0  0  0  0  0  0  0  0  0  0
   20.1270   76.1950   14.1990 C   0  0  0  0  0  0  0  0  0  0  0  0
   20.1660   76.5390   15.5290 C   0  0  0  0  0  0  0  0  0  0  0  0
   20.8160   77.7490   15.6320 C   0  0  0  0  0  0  0  0  0  0  0  0
   22.7780   79.8780   16.4590 C   0  0  0  0  0  0  0  0  0  0  0  0
   21.9470   80.3940   17.2440 O   0  0  0  0  0  0  0  0  0  0  0  0
   23.8380   79.0960   16.9670 N   0  0  0  0  0  0  0  0  0  0  0  0
   23.6520   77.6730   17.1150 C   0  0  0  0  0  0  0  0  0  0  0  0
   24.5600   76.9840   16.1410 C   0  0  0  0  0  0  0  0  0  0  0  0
   25.6660   77.8360   15.7200 N   0  0  0  0  0  0  0  0  0  0  0  0
   26.1290   78.9330   16.5000 C   0  0  0  0  0  0  0  0  0  0  0  0
   27.3320   79.2840   16.4330 O   0  0  0  0  0  0  0  0  0  0  0  0
   25.1310   79.6060   17.3640 C   0  0  0  0  0  0  0  0  0  0  0  0
   18.3500   79.4750   10.0310 H   0  0  0  0  0  0  0  0  0  0  0  0
   19.3870   80.2110   12.1430 H   0  0  0  0  0  0  0  0  0  0  0  0
   23.1580   78.7630   10.9250 H   0  0  0  0  0  0  0  0  0  0  0  0
   22.1200   78.0070    8.7730 H   0  0  0  0  0  0  0  0  0  0  0  0
   23.6850   82.0390   14.7050 H   0  0  0  0  0  0  0  0  0  0  0  0
   20.8990   77.2620   12.4630 H   0  0  0  0  0  0  0  0  0  0  0  0
   19.6820   75.2910   13.7580 H   0  0  0  0  0  0  0  0  0  0  0  0
   19.7600   75.9600   16.3490 H   0  0  0  0  0  0  0  0  0  0  0  0
   21.0070   78.2910   16.5730 H   0  0  0  0  0  0  0  0  0  0  0  0
   22.6020   77.3590   17.0570 H   0  0  0  0  0  0  0  0  0  0  0  0
   24.0120   77.3820   18.1450 H   0  0  0  0  0  0  0  0  0  0  0  0
   23.9840   76.6430   15.2590 H   0  0  0  0  0  0  0  0  0  0  0  0
   25.0340   76.0680   16.5820 H   0  0  0  0  0  0  0  0  0  0  0  0
   26.1300   77.6110   14.7890 H   0  0  0  0  0  0  0  0  0  0  0  0
   25.3030   79.3170   18.4200 H   0  0  0  0  0  0  0  0  0  0  0  0
   25.1940   80.7050   17.3230 H   0  0  0  0  0  0  0  0  0  0  0  0
  1  2  1  0  0  0  0
  2  7  2  0  0  0  0
  2  3  1  0  0  0  0
  3  4  2  0  0  0  0
  4  5  1  0  0  0  0
  4 28  1  0  0  0  0
  5  8  1  0  0  0  0
  6 29  1  0  0  0  0
  6  5  2  0  0  0  0
  7  6  1  0  0  0  0
  8  9  1  0  0  0  0
  8 12  1  0  0  0  0
  9 10  2  0  0  0  0
 10 31  1  0  0  0  0
 10 11  1  0  0  0  0
 11 18  1  0  0  0  0
 12 13  1  0  0  0  0
 12 11  2  0  0  0  0
 13 17  1  0  0  0  0
 14 15  2  0  0  0  0
 14 13  1  0  0  0  0
 15 16  1  0  0  0  0
 16 17  2  0  0  0  0
 16 34  1  0  0  0  0
 17 35  1  0  0  0  0
 18 20  1  0  0  0  0
 18 19  2  0  0  0  0
 20 21  1  0  0  0  0
 20 26  1  0  0  0  0
 21 37  1  0  0  0  0
 22 39  1  0  0  0  0
 22 21  1  0  0  0  0
 23 22  1  0  0  0  0
 23 24  1  0  0  0  0
 24 26  1  0  0  0  0
 25 24  2  0  0  0  0
 26 41  1  0  0  0  0
 27  3  1  0  0  0  0
 30  7  1  0  0  0  0
 32 14  1  0  0  0  0
 33 15  1  0  0  0  0
 36 21  1  0  0  0  0
 38 22  1  0  0  0  0
 40 23  1  0  0  0  0
 42 26  1  0  0  0  0
M  END
>  <Pose>
1

>  <Score>
-6.51

$$$$
