
 OpenBabel03222202113D

 47 50  0  0  1  0  0  0  0  0999 V2000
   17.5780   74.8150    6.1710 B   0  0  0  0  0  0  0  0  0  0  0  0
   18.5340   76.0410    7.2890 C   0  0  0  0  0  0  0  0  0  0  0  0
   18.5370   77.3860    7.0410 C   0  0  0  0  0  0  0  0  0  0  0  0
   19.2380   78.2770    7.8610 C   0  0  0  0  0  0  0  0  0  0  0  0
   19.9450   77.8410    8.9440 C   0  0  0  0  0  0  0  0  0  0  0  0
   19.9450   76.4990    9.1960 C   0  0  0  0  0  0  0  0  0  0  0  0
   19.2470   75.5970    8.3790 C   0  0  0  0  0  0  0  0  0  0  0  0
   20.6620   78.7470    9.7860 N   0  0  0  0  0  0  0  0  0  0  0  0
   20.2920   79.2750   11.0550 C   0  0  0  0  0  0  0  0  0  0  0  0
   19.1850   79.1020   11.6080 O   0  0  0  0  0  0  0  0  0  0  0  0
   21.3860   80.0600   11.6460 C   0  0  2  0  0  0  0  0  0  0  0  0
   22.1900   80.4610   10.4140 C   0  0  0  0  0  0  0  0  0  0  0  0
   21.9530   79.3110    9.4860 C   0  0  0  0  0  0  0  0  0  0  0  0
   22.8020   78.9870    8.6350 O   0  0  0  0  0  0  0  0  0  0  0  0
   22.2240   79.3430   12.5800 N   0  0  0  0  0  4  0  0  0  0  0  0
   22.9790   80.2280   13.4350 C   0  0  0  0  0  0  0  0  0  0  0  0
   22.3630   80.4550   14.7970 C   0  0  0  0  0  0  0  0  0  0  0  0
   21.8260   79.2340   15.3410 N   0  0  0  0  0  0  0  0  0  0  0  0
   22.1930   78.0430   14.6110 C   0  0  0  0  0  0  0  0  0  0  0  0
   21.5740   78.2550   13.2160 C   0  0  0  0  0  0  0  0  0  0  0  0
   20.9990   79.1780   16.4680 C   0  0  0  0  0  0  0  0  0  0  0  0
   20.5350   78.0220   17.0630 C   0  0  0  0  0  0  0  0  0  0  0  0
   19.6960   78.0240   18.1660 C   0  0  0  0  0  0  0  0  0  0  0  0
   19.2890   79.2090   18.7170 C   0  0  0  0  0  0  0  0  0  0  0  0
   19.7220   80.3960   18.1610 C   0  0  0  0  0  0  0  0  0  0  0  0
   20.5600   80.3680   17.0600 C   0  0  0  0  0  0  0  0  0  0  0  0
   18.4460   79.2810   19.8260 O   0  0  0  0  0  0  0  0  0  0  0  0
   17.9900   77.7500    6.1990 H   0  0  0  0  0  0  0  0  0  0  0  0
   19.1810   79.3000    7.5890 H   0  0  0  0  0  0  0  0  0  0  0  0
   20.4600   76.0460   10.0050 H   0  0  0  0  0  0  0  0  0  0  0  0
   19.2500   74.5390    8.5850 H   0  0  0  0  0  0  0  0  0  0  0  0
   21.0350   81.0240   12.0820 H   0  0  0  0  0  0  0  0  0  0  0  0
   21.8290   81.4130    9.9910 H   0  0  0  0  0  0  0  0  0  0  0  0
   23.2550   80.5290   10.7000 H   0  0  0  0  0  0  0  0  0  0  0  0
   22.9770   78.9020   11.9510 H   0  0  0  0  0  0  0  0  0  0  0  0
   23.0480   81.2160   12.9300 H   0  0  0  0  0  0  0  0  0  0  0  0
   24.0250   79.8770   13.5830 H   0  0  0  0  0  0  0  0  0  0  0  0
   23.2130   80.7660   15.4740 H   0  0  0  0  0  0  0  0  0  0  0  0
   21.6880   81.2940   14.7190 H   0  0  0  0  0  0  0  0  0  0  0  0
   23.2940   78.0340   14.4820 H   0  0  0  0  0  0  0  0  0  0  0  0
   21.8730   77.1020   15.0260 H   0  0  0  0  0  0  0  0  0  0  0  0
   20.4900   78.5010   13.3310 H   0  0  0  0  0  0  0  0  0  0  0  0
   21.6660   77.3440   12.6110 H   0  0  0  0  0  0  0  0  0  0  0  0
   20.8610   77.0590   16.6330 H   0  0  0  0  0  0  0  0  0  0  0  0
   19.3800   77.0960   18.5710 H   0  0  0  0  0  0  0  0  0  0  0  0
   19.4160   81.3520   18.5710 H   0  0  0  0  0  0  0  0  0  0  0  0
   20.9160   81.2900   16.6010 H   0  0  0  0  0  0  0  0  0  0  0  0
  1  2  1  0  0  0  0
  2  7  1  0  0  0  0
  3  2  2  0  0  0  0
  3  4  1  0  0  0  0
  4  5  2  0  0  0  0
  5  6  1  0  0  0  0
  5  8  1  0  0  0  0
  6 30  1  0  0  0  0
  7 31  1  0  0  0  0
  7  6  2  0  0  0  0
  8  9  1  0  0  0  0
  9 10  2  0  0  0  0
  9 11  1  0  0  0  0
 11 32  1  1  0  0  0
 11 15  1  0  0  0  0
 12 34  1  0  0  0  0
 12 11  1  0  0  0  0
 13  8  1  0  0  0  0
 13 12  1  0  0  0  0
 14 13  2  0  0  0  0
 15 20  1  0  0  0  0
 15 16  1  0  0  0  0
 16 37  1  0  0  0  0
 16 17  1  0  0  0  0
 17 18  1  0  0  0  0
 17 38  1  0  0  0  0
 18 21  1  0  0  0  0
 19 41  1  0  0  0  0
 19 18  1  0  0  0  0
 20 42  1  0  0  0  0
 20 19  1  0  0  0  0
 21 26  2  0  0  0  0
 21 22  1  0  0  0  0
 22 23  2  0  0  0  0
 23 45  1  0  0  0  0
 23 24  1  0  0  0  0
 24 27  1  0  0  0  0
 25 46  1  0  0  0  0
 25 24  2  0  0  0  0
 26 25  1  0  0  0  0
 28  3  1  0  0  0  0
 29  4  1  0  0  0  0
 33 12  1  0  0  0  0
 35 15  1  0  0  0  0
 36 16  1  0  0  0  0
 39 17  1  0  0  0  0
 40 19  1  0  0  0  0
 43 20  1  0  0  0  0
 44 22  1  0  0  0  0
 47 26  1  0  0  0  0
M  END
>  <Pose>
1

>  <Score>
-7.40

$$$$
