
 OpenBabel03222202113D

 50 53  0  0  0  0  0  0  0  0999 V2000
   16.7630   75.4430    5.4910 B   0  0  0  0  0  0  0  0  0  0  0  0
   17.8210   76.4070    6.7430 C   0  0  0  0  0  0  0  0  0  0  0  0
   18.9420   75.8780    7.3490 C   0  0  0  0  0  0  0  0  0  0  0  0
   19.6780   76.5930    8.2410 C   0  0  0  0  0  0  0  0  0  0  0  0
   19.3300   77.8910    8.5810 C   0  0  0  0  0  0  0  0  0  0  0  0
   18.2180   78.4290    7.9860 C   0  0  0  0  0  0  0  0  0  0  0  0
   17.4870   77.6970    7.0900 C   0  0  0  0  0  0  0  0  0  0  0  0
   20.1260   78.6090    9.5200 N   0  0  0  0  0  0  0  0  0  0  0  0
   20.3680   78.1810   10.7850 C   0  0  0  0  0  0  0  0  0  0  0  0
   19.9350   77.1070   11.3070 O   0  0  0  0  0  0  0  0  0  0  0  0
   21.1700   79.0990   11.4400 C   0  0  0  0  0  0  0  0  0  0  0  0
   21.4000   80.0680   10.5570 C   0  0  0  0  0  0  0  0  0  0  0  0
   22.1850   80.9820   11.1750 N   0  0  0  0  0  0  0  0  0  0  0  0
   22.4100   80.5430   12.4100 N   0  0  0  0  0  0  0  0  0  0  0  0
   21.8020   79.3900   12.6090 N   0  0  0  0  0  0  0  0  0  0  0  0
   21.7750   78.5530   13.8030 C   0  0  0  0  0  0  0  0  0  0  0  0
   23.0760   78.7190   14.5500 C   0  0  0  0  0  0  0  0  0  0  0  0
   24.0520   78.9020   13.7810 O   0  0  0  0  0  0  0  0  0  0  0  0
   23.0920   78.6580   15.9420 N   0  0  0  0  0  0  0  0  0  0  0  0
   22.0710   79.0770   16.8300 C   0  0  0  0  0  0  0  0  0  0  0  0
   21.5410   80.3450   16.8880 C   0  0  0  0  0  0  0  0  0  0  0  0
   20.5300   80.6820   17.7980 C   0  0  0  0  0  0  0  0  0  0  0  0
   20.0200   79.7550   18.6760 C   0  0  0  0  0  0  0  0  0  0  0  0
   20.5420   78.4850   18.6270 C   0  0  0  0  0  0  0  0  0  0  0  0
   21.5390   78.1560   17.7290 C   0  0  0  0  0  0  0  0  0  0  0  0
   18.9680   80.1510   19.6060 C   0  0  0  0  0  0  0  0  0  0  0  0
   18.0740   79.3120   19.8800 O   0  0  0  0  0  0  0  0  0  0  0  0
   18.8850   81.3780   20.2020 O   0  0  0  0  0  0  0  0  0  0  0  0
   19.9420   82.2690   20.4140 C   0  0  0  0  0  0  0  0  0  0  0  0
   19.3670   83.6800   20.2270 C   0  0  0  0  0  0  0  0  0  0  0  0
   20.7630   79.7800    9.3730 C   0  0  0  0  0  0  0  0  0  0  0  0
   20.7630   80.4680    8.3290 O   0  0  0  0  0  0  0  0  0  0  0  0
   19.2130   74.8630    7.0830 H   0  0  0  0  0  0  0  0  0  0  0  0
   20.5660   76.1330    8.7030 H   0  0  0  0  0  0  0  0  0  0  0  0
   17.9180   79.4400    8.2280 H   0  0  0  0  0  0  0  0  0  0  0  0
   16.5950   78.1160    6.6060 H   0  0  0  0  0  0  0  0  0  0  0  0
   22.5400   81.8620   10.7490 H   0  0  0  0  0  0  0  0  0  0  0  0
   22.9830   81.0430   13.1120 H   0  0  0  0  0  0  0  0  0  0  0  0
   20.9090   78.7890   14.4490 H   0  0  0  0  0  0  0  0  0  0  0  0
   21.6480   77.5080   13.4510 H   0  0  0  0  0  0  0  0  0  0  0  0
   23.9790   78.2480   16.3760 H   0  0  0  0  0  0  0  0  0  0  0  0
   21.9190   81.0860   16.2160 H   0  0  0  0  0  0  0  0  0  0  0  0
   20.1350   81.7000   17.8130 H   0  0  0  0  0  0  0  0  0  0  0  0
   20.1300   77.7580   19.3280 H   0  0  0  0  0  0  0  0  0  0  0  0
   21.9320   77.1290   17.7190 H   0  0  0  0  0  0  0  0  0  0  0  0
   20.3600   82.2350   21.4390 H   0  0  0  0  0  0  0  0  0  0  0  0
   20.7860   82.1490   19.7090 H   0  0  0  0  0  0  0  0  0  0  0  0
   18.6970   83.9000   21.1090 H   0  0  0  0  0  0  0  0  0  0  0  0
   18.7260   83.7340   19.3320 H   0  0  0  0  0  0  0  0  0  0  0  0
   20.1480   84.4370   20.1430 H   0  0  0  0  0  0  0  0  0  0  0  0
  1  2  1  0  0  0  0
  2  7  2  0  0  0  0
  2  3  1  0  0  0  0
  3  4  2  0  0  0  0
  4  5  1  0  0  0  0
  4 34  1  0  0  0  0
  5  8  1  0  0  0  0
  6 35  1  0  0  0  0
  6  5  2  0  0  0  0
  7  6  1  0  0  0  0
  8  9  1  0  0  0  0
  9 10  2  0  0  0  0
  9 11  1  0  0  0  0
 11 15  1  0  0  0  0
 12 13  1  0  0  0  0
 12 11  2  0  0  0  0
 13 14  1  0  0  0  0
 14 15  1  0  0  0  0
 14 38  1  0  0  0  0
 15 16  1  0  0  0  0
 16 39  1  0  0  0  0
 16 17  1  0  0  0  0
 17 19  1  0  0  0  0
 18 17  2  0  0  0  0
 19 41  1  0  0  0  0
 19 20  1  0  0  0  0
 20 21  2  0  0  0  0
 20 25  1  0  0  0  0
 21 22  1  0  0  0  0
 22 43  1  0  0  0  0
 22 23  2  0  0  0  0
 23 26  1  0  0  0  0
 24 23  1  0  0  0  0
 24 44  1  0  0  0  0
 25 24  2  0  0  0  0
 26 27  2  0  0  0  0
 26 28  1  0  0  0  0
 28 29  1  0  0  0  0
 29 46  1  0  0  0  0
 30 29  1  0  0  0  0
 30 48  1  0  0  0  0
 31  8  1  0  0  0  0
 31 12  1  0  0  0  0
 32 31  2  0  0  0  0
 33  3  1  0  0  0  0
 36  7  1  0  0  0  0
 37 13  1  0  0  0  0
 40 16  1  0  0  0  0
 42 21  1  0  0  0  0
 45 25  1  0  0  0  0
 47 29  1  0  0  0  0
 49 30  1  0  0  0  0
 50 30  1  0  0  0  0
M  END
>  <Pose>
1

>  <Score>
-7.00

$$$$
