
 OpenBabel03222202113D

 48 51  0  0  0  0  0  0  0  0999 V2000
   19.8040   86.3480   20.6410 B   0  0  0  0  0  0  0  0  0  0  0  0
   19.9350   84.5060   20.1620 C   0  0  0  0  0  0  0  0  0  0  0  0
   19.8700   83.4960   21.1000 C   0  0  0  0  0  0  0  0  0  0  0  0
   19.9640   82.1620   20.7340 C   0  0  0  0  0  0  0  0  0  0  0  0
   20.1260   81.7750   19.4200 C   0  0  0  0  0  0  0  0  0  0  0  0
   20.1930   82.7850   18.4770 C   0  0  0  0  0  0  0  0  0  0  0  0
   20.1000   84.1120   18.8400 C   0  0  0  0  0  0  0  0  0  0  0  0
   20.2220   80.4160   19.0020 N   0  0  0  0  0  0  0  0  0  0  0  0
   20.9250   79.9140   17.9490 C   0  0  0  0  0  0  0  0  0  0  0  0
   21.6170   80.6170   17.1750 O   0  0  0  0  0  0  0  0  0  0  0  0
   20.7680   78.5470   17.8590 C   0  0  0  0  0  0  0  0  0  0  0  0
   19.9670   78.2090   18.8590 C   0  0  0  0  0  0  0  0  0  0  0  0
   19.7940   76.8760   18.7960 N   0  0  0  0  0  0  0  0  0  0  0  0
   20.4880   76.4210   17.7630 N   0  0  0  0  0  0  0  0  0  0  0  0
   21.1010   77.4240   17.1640 N   0  0  0  0  0  0  0  0  0  0  0  0
   21.9430   77.3830   16.0040 C   0  0  0  0  0  0  0  0  0  0  0  0
   21.1900   77.1000   14.7250 C   0  0  0  0  0  0  0  0  0  0  0  0
   21.7240   77.5270   13.6790 O   0  0  0  0  0  0  0  0  0  0  0  0
   19.9830   76.4050   14.7200 N   0  0  0  0  0  0  0  0  0  0  0  0
   19.5810   75.2930   13.9600 C   0  0  0  0  0  0  0  0  0  0  0  0
   18.6540   75.4490   12.9300 C   0  0  0  0  0  0  0  0  0  0  0  0
   18.2210   74.3910   12.1760 C   0  0  0  0  0  0  0  0  0  0  0  0
   18.7050   73.1060   12.4250 C   0  0  0  0  0  0  0  0  0  0  0  0
   19.6170   72.9850   13.4450 C   0  0  0  0  0  0  0  0  0  0  0  0
   20.0560   74.0450   14.2030 C   0  0  0  0  0  0  0  0  0  0  0  0
   18.2400   72.0710   11.6470 O   0  0  0  0  0  0  0  0  0  0  0  0
   17.6730   70.8820   12.0920 C   0  0  0  0  0  0  0  0  0  0  0  0
   16.2700   70.6610   11.6410 C   0  0  0  0  0  0  0  0  0  0  0  0
   19.6330   79.3470   19.5570 C   0  0  0  0  0  0  0  0  0  0  0  0
   18.8830   79.4180   20.5810 O   0  0  0  0  0  0  0  0  0  0  0  0
   19.7420   83.8000   22.1370 H   0  0  0  0  0  0  0  0  0  0  0  0
   19.9130   81.3750   21.4690 H   0  0  0  0  0  0  0  0  0  0  0  0
   20.3220   82.4770   17.4450 H   0  0  0  0  0  0  0  0  0  0  0  0
   20.1540   84.8800   18.0850 H   0  0  0  0  0  0  0  0  0  0  0  0
   19.2300   76.2780   19.4250 H   0  0  0  0  0  0  0  0  0  0  0  0
   20.5380   75.4010   17.4730 H   0  0  0  0  0  0  0  0  0  0  0  0
   22.4600   78.3700   15.8680 H   0  0  0  0  0  0  0  0  0  0  0  0
   22.7250   76.5780   16.0650 H   0  0  0  0  0  0  0  0  0  0  0  0
   19.2350   76.7780   15.4040 H   0  0  0  0  0  0  0  0  0  0  0  0
   18.2670   76.4300   12.7200 H   0  0  0  0  0  0  0  0  0  0  0  0
   17.4900   74.5480   11.3720 H   0  0  0  0  0  0  0  0  0  0  0  0
   20.0170   72.0120   13.6730 H   0  0  0  0  0  0  0  0  0  0  0  0
   20.7920   73.8790   15.0020 H   0  0  0  0  0  0  0  0  0  0  0  0
   18.2900   70.0290   11.6750 H   0  0  0  0  0  0  0  0  0  0  0  0
   17.7140   70.7900   13.1980 H   0  0  0  0  0  0  0  0  0  0  0  0
   16.1280   69.8120   10.9430 H   0  0  0  0  0  0  0  0  0  0  0  0
   15.6110   70.4340   12.5120 H   0  0  0  0  0  0  0  0  0  0  0  0
   15.8020   71.5580   11.1560 H   0  0  0  0  0  0  0  0  0  0  0  0
  2  1  1  0  0  0  0
  2  3  1  0  0  0  0
  3 31  1  0  0  0  0
  4  3  2  0  0  0  0
  4 32  1  0  0  0  0
  5  4  1  0  0  0  0
  6  7  1  0  0  0  0
  6  5  2  0  0  0  0
  7  2  2  0  0  0  0
  8  5  1  0  0  0  0
  8 29  1  0  0  0  0
  9  8  1  0  0  0  0
 10  9  2  0  0  0  0
 11  9  1  0  0  0  0
 11 12  2  0  0  0  0
 12 29  1  0  0  0  0
 13 12  1  0  0  0  0
 13 35  1  0  0  0  0
 14 13  1  0  0  0  0
 15 14  1  0  0  0  0
 15 11  1  0  0  0  0
 16 38  1  0  0  0  0
 16 15  1  0  0  0  0
 17 16  1  0  0  0  0
 18 17  2  0  0  0  0
 19 17  1  0  0  0  0
 19 39  1  0  0  0  0
 20 25  1  0  0  0  0
 20 19  1  0  0  0  0
 21 20  2  0  0  0  0
 22 23  2  0  0  0  0
 22 21  1  0  0  0  0
 23 24  1  0  0  0  0
 24 42  1  0  0  0  0
 24 25  2  0  0  0  0
 25 43  1  0  0  0  0
 26 27  1  0  0  0  0
 26 23  1  0  0  0  0
 27 45  1  0  0  0  0
 28 27  1  0  0  0  0
 28 47  1  0  0  0  0
 29 30  2  0  0  0  0
 33  6  1  0  0  0  0
 34  7  1  0  0  0  0
 36 14  1  0  0  0  0
 37 16  1  0  0  0  0
 40 21  1  0  0  0  0
 41 22  1  0  0  0  0
 44 27  1  0  0  0  0
 46 28  1  0  0  0  0
 48 28  1  0  0  0  0
M  END
>  <Pose>
1

>  <Score>
-7.86

$$$$
