
 OpenBabel03222202113D

 36 39  0  0  0  0  0  0  0  0999 V2000
   17.0320   84.8440   22.1840 B   0  0  0  0  0  0  0  0  0  0  0  0
   17.8620   83.3620   21.3000 C   0  0  0  0  0  0  0  0  0  0  0  0
   19.1810   83.4040   20.8990 C   0  0  0  0  0  0  0  0  0  0  0  0
   19.7710   82.3190   20.2570 C   0  0  0  0  0  0  0  0  0  0  0  0
   19.0570   81.1670   20.0020 C   0  0  0  0  0  0  0  0  0  0  0  0
   17.7390   81.1390   20.4090 C   0  0  0  0  0  0  0  0  0  0  0  0
   17.1440   82.2110   21.0460 C   0  0  0  0  0  0  0  0  0  0  0  0
   19.6350   80.0320   19.3440 N   0  0  0  0  0  0  0  0  0  0  0  0
   20.1850   80.0240   18.1090 C   0  0  0  0  0  0  0  0  0  0  0  0
   20.2950   81.0030   17.3030 O   0  0  0  0  0  0  0  0  0  0  0  0
   20.6460   78.7620   17.7840 C   0  0  0  0  0  0  0  0  0  0  0  0
   20.3660   78.0060   18.8480 C   0  0  0  0  0  0  0  0  0  0  0  0
   20.8180   76.7680   18.5340 N   0  0  0  0  0  0  0  0  0  0  0  0
   21.3450   76.8090   17.3210 N   0  0  0  0  0  0  0  0  0  0  0  0
   21.2530   78.0340   16.8310 N   0  0  0  0  0  0  0  0  0  0  0  0
   21.7090   78.4810   15.5480 C   0  0  0  0  0  0  0  0  0  0  0  0
   21.5540   77.6970   14.4240 C   0  0  0  0  0  0  0  0  0  0  0  0
   21.9850   78.1030   13.1670 C   0  0  0  0  0  0  0  0  0  0  0  0
   22.5920   79.3310   13.0100 C   0  0  0  0  0  0  0  0  0  0  0  0
   22.7480   80.1170   14.1320 C   0  0  0  0  0  0  0  0  0  0  0  0
   22.3170   79.7090   15.3840 C   0  0  0  0  0  0  0  0  0  0  0  0
   23.0450   79.7760   11.7340 N   0  0  0  0  0  0  0  0  0  0  0  0
   23.7320   79.0560   10.9860 O   0  0  0  0  0  0  0  0  0  0  0  0
   22.7210   81.0270   11.3140 O   0  0  0  0  0  0  0  0  0  0  0  0
   19.7460   78.7760   19.8090 C   0  0  0  0  0  0  0  0  0  0  0  0
   19.3340   78.4210   20.9410 O   0  0  0  0  0  0  0  0  0  0  0  0
   19.7350   84.3180   21.1050 H   0  0  0  0  0  0  0  0  0  0  0  0
   20.7900   82.3490   19.9470 H   0  0  0  0  0  0  0  0  0  0  0  0
   17.1610   80.2340   20.2140 H   0  0  0  0  0  0  0  0  0  0  0  0
   16.0970   82.1750   21.3630 H   0  0  0  0  0  0  0  0  0  0  0  0
   20.7480   75.9310   19.1690 H   0  0  0  0  0  0  0  0  0  0  0  0
   21.7820   76.0130   16.7870 H   0  0  0  0  0  0  0  0  0  0  0  0
   21.0820   76.7340   14.5250 H   0  0  0  0  0  0  0  0  0  0  0  0
   21.8540   77.4660   12.2850 H   0  0  0  0  0  0  0  0  0  0  0  0
   23.2250   81.0760   13.9900 H   0  0  0  0  0  0  0  0  0  0  0  0
   22.4440   80.3320   16.2560 H   0  0  0  0  0  0  0  0  0  0  0  0
  2  1  1  0  0  0  0
  3 27  1  0  0  0  0
  3  2  2  0  0  0  0
  4  3  1  0  0  0  0
  5  4  2  0  0  0  0
  5  6  1  0  0  0  0
  6  7  2  0  0  0  0
  7  2  1  0  0  0  0
  7 30  1  0  0  0  0
  8 25  1  0  0  0  0
  8  5  1  0  0  0  0
  9  8  1  0  0  0  0
 10  9  2  0  0  0  0
 11  9  1  0  0  0  0
 11 12  2  0  0  0  0
 12 25  1  0  0  0  0
 13 12  1  0  0  0  0
 13 31  1  0  0  0  0
 14 13  1  0  0  0  0
 15 14  1  0  0  0  0
 15 11  1  0  0  0  0
 16 15  1  0  0  0  0
 17 33  1  0  0  0  0
 17 16  2  0  0  0  0
 18 17  1  0  0  0  0
 19 18  2  0  0  0  0
 19 20  1  0  0  0  0
 20 21  2  0  0  0  0
 21 16  1  0  0  0  0
 21 36  1  0  0  0  0
 22 19  1  0  0  0  0
 23 22  2  0  0  0  0
 24 22  2  0  0  0  0
 25 26  2  0  0  0  0
 28  4  1  0  0  0  0
 29  6  1  0  0  0  0
 32 14  1  0  0  0  0
 34 18  1  0  0  0  0
 35 20  1  0  0  0  0
M  END
>  <Pose>
1

>  <Score>
-5.93

$$$$
