
 OpenBabel03222202113D

 45 48  0  0  1  0  0  0  0  0999 V2000
   17.7240   72.4470   12.2290 B   0  0  0  0  0  0  0  0  0  0  0  0
   18.6520   74.1110   12.3320 C   0  0  0  0  0  0  0  0  0  0  0  0
   19.4280   74.3740   13.4280 C   0  0  0  0  0  0  0  0  0  0  0  0
   20.1070   75.5840   13.5100 C   0  0  0  0  0  0  0  0  0  0  0  0
   20.0210   76.5320   12.5160 C   0  0  0  0  0  0  0  0  0  0  0  0
   19.2340   76.2470   11.4220 C   0  0  0  0  0  0  0  0  0  0  0  0
   18.5490   75.0480   11.3170 C   0  0  0  0  0  0  0  0  0  0  0  0
   20.7510   77.7390   12.6840 N   0  0  0  0  0  0  0  0  0  0  0  0
   20.8300   78.6970   11.6120 C   0  0  0  0  0  0  0  0  0  0  0  0
   20.2470   78.4570   10.5190 O   0  0  0  0  0  0  0  0  0  0  0  0
   21.5710   79.8720   11.8540 N   0  0  0  0  0  0  0  0  0  0  0  0
   22.1640   80.1340   12.9440 C   0  0  0  0  0  0  0  0  0  0  0  0
   22.1930   79.2720   14.1510 C   0  0  1  0  0  0  0  0  0  0  0  0
   23.6180   79.0310   14.5160 C   0  0  0  0  0  0  0  0  0  0  0  0
   23.9020   78.7910   15.8850 N   0  0  0  0  0  4  0  0  0  0  0  0
   22.7870   78.5620   16.7160 C   0  0  0  0  0  0  0  0  0  0  0  0
   21.5670   79.2000   16.4590 C   0  0  0  0  0  0  0  0  0  0  0  0
   20.4980   78.9660   17.2760 C   0  0  0  0  0  0  0  0  0  0  0  0
   20.5380   78.1220   18.3630 C   0  0  0  0  0  0  0  0  0  0  0  0
   21.7410   77.4960   18.6120 C   0  0  0  0  0  0  0  0  0  0  0  0
   22.8460   77.7140   17.8000 C   0  0  0  0  0  0  0  0  0  0  0  0
   19.3550   77.8920   19.2260 C   0  0  0  0  0  0  0  0  0  0  0  0
   21.5670   80.1000   15.2770 C   0  0  0  0  0  0  0  0  0  0  0  0
   24.7700   79.8290   16.4650 C   0  0  0  0  0  0  0  0  0  0  0  0
   21.4190   78.0370   13.9050 C   0  0  0  0  0  0  0  0  0  0  0  0
   21.3110   77.1470   14.8110 O   0  0  0  0  0  0  0  0  0  0  0  0
   22.8710   81.3520   13.0490 O   0  0  0  0  0  0  0  0  0  0  0  0
   19.4900   73.6220   14.2040 H   0  0  0  0  0  0  0  0  0  0  0  0
   20.7050   75.7290   14.4040 H   0  0  0  0  0  0  0  0  0  0  0  0
   19.1440   76.9710   10.6200 H   0  0  0  0  0  0  0  0  0  0  0  0
   17.9260   74.7960   10.4740 H   0  0  0  0  0  0  0  0  0  0  0  0
   24.0080   78.2310   13.8450 H   0  0  0  0  0  0  0  0  0  0  0  0
   24.1960   79.9530   14.2110 H   0  0  0  0  0  0  0  0  0  0  0  0
   24.4940   77.9080   15.9360 H   0  0  0  0  0  0  0  0  0  0  0  0
   19.5650   79.4800   17.0440 H   0  0  0  0  0  0  0  0  0  0  0  0
   21.8150   76.8240   19.4610 H   0  0  0  0  0  0  0  0  0  0  0  0
   23.7760   77.2130   18.0160 H   0  0  0  0  0  0  0  0  0  0  0  0
   19.6030   77.5330   20.2210 H   0  0  0  0  0  0  0  0  0  0  0  0
   18.7340   78.8080   19.2070 H   0  0  0  0  0  0  0  0  0  0  0  0
   18.7490   77.0960   18.7040 H   0  0  0  0  0  0  0  0  0  0  0  0
   20.5580   80.4450   15.0090 H   0  0  0  0  0  0  0  0  0  0  0  0
   22.2750   80.9260   15.4740 H   0  0  0  0  0  0  0  0  0  0  0  0
   24.1810   80.6510   16.9050 H   0  0  0  0  0  0  0  0  0  0  0  0
   25.4730   80.1760   15.6870 H   0  0  0  0  0  0  0  0  0  0  0  0
   25.3540   79.3700   17.2890 H   0  0  0  0  0  0  0  0  0  0  0  0
  1  2  1  0  0  0  0
  2  3  1  0  0  0  0
  3  4  2  0  0  0  0
  3 28  1  0  0  0  0
  4 29  1  0  0  0  0
  5  8  1  0  0  0  0
  5  4  1  0  0  0  0
  6  5  2  0  0  0  0
  7  6  1  0  0  0  0
  7  2  2  0  0  0  0
  8 25  1  0  0  0  0
  9 11  1  0  0  0  0
  9  8  1  0  0  0  0
 10  9  2  0  0  0  0
 11 12  1  0  0  0  0
 12 27  2  0  0  0  0
 13 12  1  6  0  0  0
 13 14  1  0  0  0  0
 13 23  1  0  0  0  0
 14 15  1  0  0  0  0
 15 34  1  0  0  0  0
 15 24  1  0  0  0  0
 15 16  1  0  0  0  0
 16 21  1  0  0  0  0
 17 16  2  0  0  0  0
 17 18  1  0  0  0  0
 18 19  2  0  0  0  0
 19 20  1  0  0  0  0
 19 22  1  0  0  0  0
 20 36  1  0  0  0  0
 21 37  1  0  0  0  0
 21 20  2  0  0  0  0
 22 38  1  0  0  0  0
 23 42  1  0  0  0  0
 23 17  1  0  0  0  0
 24 43  1  0  0  0  0
 24 45  1  0  0  0  0
 25 13  1  0  0  0  0
 25 26  2  0  0  0  0
 30  6  1  0  0  0  0
 31  7  1  0  0  0  0
 32 14  1  0  0  0  0
 33 14  1  0  0  0  0
 35 18  1  0  0  0  0
 39 22  1  0  0  0  0
 40 22  1  0  0  0  0
 41 23  1  0  0  0  0
 44 24  1  0  0  0  0
M  END
>  <Pose>
1

>  <Score>
-4.63

$$$$
