
 OpenBabel03222202113D

 50 53  0  0  0  0  0  0  0  0999 V2000
   17.7810   75.8610    6.5590 B   0  0  0  0  0  0  0  0  0  0  0  0
   18.8080   76.9030    7.7930 C   0  0  0  0  0  0  0  0  0  0  0  0
   18.6410   78.2760    7.8720 C   0  0  0  0  0  0  0  0  0  0  0  0
   19.3860   79.0200    8.7660 C   0  0  0  0  0  0  0  0  0  0  0  0
   20.3140   78.4390    9.6060 C   0  0  0  0  0  0  0  0  0  0  0  0
   20.4920   77.0730    9.5400 C   0  0  0  0  0  0  0  0  0  0  0  0
   19.7390   76.3450    8.6410 C   0  0  0  0  0  0  0  0  0  0  0  0
   21.0470   79.2340   10.4940 N   0  0  0  0  0  0  0  0  0  0  0  0
   21.5820   80.4830   10.0500 C   0  0  0  0  0  0  0  0  0  0  0  0
   21.3610   80.8190    8.8430 O   0  0  0  0  0  0  0  0  0  0  0  0
   22.3250   81.2880   10.9480 N   0  0  0  0  0  0  0  0  0  0  0  0
   22.5850   80.9320   12.3020 C   0  0  0  0  0  0  0  0  0  0  0  0
   23.2510   81.6710   13.0790 O   0  0  0  0  0  0  0  0  0  0  0  0
   22.0470   79.6500   12.7940 C   0  0  0  0  0  0  0  0  0  0  0  0
   22.2560   79.2620   14.0430 C   0  0  0  0  0  0  0  0  0  0  0  0
   21.7250   78.0220   14.4870 N   0  0  0  0  0  0  0  0  0  0  0  0
   21.3350   77.7370   15.7850 N   0  0  0  0  0  0  0  0  0  0  0  0
   20.9020   78.7080   16.7300 C   0  0  0  0  0  0  0  0  0  0  0  0
   20.3180   78.4360   17.9020 N   0  0  0  0  0  0  0  0  0  0  0  0
   20.0430   79.5840   18.5440 C   0  0  0  0  0  0  0  0  0  0  0  0
   20.4770   80.6230   17.7320 C   0  0  0  0  0  0  0  0  0  0  0  0
   20.9870   80.0370   16.6500 N   0  0  0  0  0  0  0  0  0  0  0  0
   20.3400   81.9100   18.0990 N   0  0  0  0  0  0  0  0  0  0  0  0
   19.7740   82.1880   19.2730 C   0  0  0  0  0  0  0  0  0  0  0  0
   19.6260   83.3890   19.6570 O   0  0  0  0  0  0  0  0  0  0  0  0
   19.3270   81.2190   20.1170 N   0  0  0  0  0  0  0  0  0  0  0  0
   19.4690   79.9280   19.7380 C   0  0  0  0  0  0  0  0  0  0  0  0
   19.0590   79.0360   20.5090 O   0  0  0  0  0  0  0  0  0  0  0  0
   18.7230   81.5720   21.3770 C   0  0  0  0  0  0  0  0  0  0  0  0
   20.8110   82.9280   17.2080 C   0  0  0  0  0  0  0  0  0  0  0  0
   19.9860   77.1340   18.4910 C   0  0  0  0  0  0  0  0  0  0  0  0
   21.2860   78.8450   11.8460 C   0  0  0  0  0  0  0  0  0  0  0  0
   20.8080   77.7430   12.2200 O   0  0  0  0  0  0  0  0  0  0  0  0
   17.9070   78.7080    7.2050 H   0  0  0  0  0  0  0  0  0  0  0  0
   19.1890   80.0970    8.7590 H   0  0  0  0  0  0  0  0  0  0  0  0
   21.2170   76.5510   10.1840 H   0  0  0  0  0  0  0  0  0  0  0  0
   19.9080   75.2780    8.6190 H   0  0  0  0  0  0  0  0  0  0  0  0
   22.6990   82.1950   10.5830 H   0  0  0  0  0  0  0  0  0  0  0  0
   22.8150   79.8530   14.7350 H   0  0  0  0  0  0  0  0  0  0  0  0
   21.6330   77.2780   13.7440 H   0  0  0  0  0  0  0  0  0  0  0  0
   21.3760   76.7100   16.0480 H   0  0  0  0  0  0  0  0  0  0  0  0
   18.8820   82.6550   21.5590 H   0  0  0  0  0  0  0  0  0  0  0  0
   19.2150   81.0480   22.2260 H   0  0  0  0  0  0  0  0  0  0  0  0
   17.6470   81.3250   21.3590 H   0  0  0  0  0  0  0  0  0  0  0  0
   20.0050   83.3610   16.5820 H   0  0  0  0  0  0  0  0  0  0  0  0
   21.3140   83.7120   17.8110 H   0  0  0  0  0  0  0  0  0  0  0  0
   21.5780   82.5150   16.5200 H   0  0  0  0  0  0  0  0  0  0  0  0
   20.8250   76.8570   19.1910 H   0  0  0  0  0  0  0  0  0  0  0  0
   19.0760   77.1780   19.0890 H   0  0  0  0  0  0  0  0  0  0  0  0
   19.9710   76.3640   17.6950 H   0  0  0  0  0  0  0  0  0  0  0  0
  1  2  1  0  0  0  0
  2  3  2  0  0  0  0
  2  7  1  0  0  0  0
  3  4  1  0  0  0  0
  4  5  2  0  0  0  0
  5  8  1  0  0  0  0
  6  5  1  0  0  0  0
  6 36  1  0  0  0  0
  7  6  2  0  0  0  0
  8 32  1  0  0  0  0
  9  8  1  0  0  0  0
  9 11  1  0  0  0  0
 10  9  2  0  0  0  0
 11 12  1  0  0  0  0
 12 14  1  0  0  0  0
 12 13  2  0  0  0  0
 14 15  2  0  0  0  0
 15 16  1  0  0  0  0
 15 39  1  0  0  0  0
 16 17  1  0  0  0  0
 17 41  1  0  0  0  0
 17 18  1  0  0  0  0
 18 19  1  0  0  0  0
 19 31  1  0  0  0  0
 19 20  1  0  0  0  0
 20 27  1  0  0  0  0
 21 23  1  0  0  0  0
 21 20  2  0  0  0  0
 22 18  2  0  0  0  0
 22 21  1  0  0  0  0
 23 24  1  0  0  0  0
 24 25  2  0  0  0  0
 24 26  1  0  0  0  0
 26 29  1  0  0  0  0
 27 26  1  0  0  0  0
 27 28  2  0  0  0  0
 29 42  1  0  0  0  0
 29 43  1  0  0  0  0
 30 46  1  0  0  0  0
 30 23  1  0  0  0  0
 31 49  1  0  0  0  0
 31 48  1  0  0  0  0
 32 33  2  0  0  0  0
 32 14  1  0  0  0  0
 34  3  1  0  0  0  0
 35  4  1  0  0  0  0
 37  7  1  0  0  0  0
 38 11  1  0  0  0  0
 40 16  1  0  0  0  0
 44 29  1  0  0  0  0
 45 30  1  0  0  0  0
 47 30  1  0  0  0  0
 50 31  1  0  0  0  0
M  END
>  <Pose>
1

>  <Score>
-7.43

$$$$
