
 OpenBabel03222202113D

 44 47  0  0  0  0  0  0  0  0999 V2000
   22.7120   78.8570   17.6060 B   0  0  0  0  0  0  0  0  0  0  0  0
   21.7120   77.9560   16.2850 C   0  0  0  0  0  0  0  0  0  0  0  0
   22.1480   77.8420   14.9820 C   0  0  0  0  0  0  0  0  0  0  0  0
   21.3890   77.1690   14.0220 C   0  0  0  0  0  0  0  0  0  0  0  0
   20.1840   76.6060   14.3730 C   0  0  0  0  0  0  0  0  0  0  0  0
   19.7810   76.7400   15.6820 C   0  0  0  0  0  0  0  0  0  0  0  0
   20.5040   77.3930   16.6440 C   0  0  0  0  0  0  0  0  0  0  0  0
   19.3450   75.9080   13.4750 N   0  0  0  0  0  0  0  0  0  0  0  0
   18.4690   74.8730   13.9860 C   0  0  0  0  0  0  0  0  0  0  0  0
   17.6860   74.1740   12.8990 C   0  0  0  0  0  0  0  0  0  0  0  0
   18.6720   73.8850   11.7560 C   0  0  0  0  0  0  0  0  0  0  0  0
   18.9700   75.1740   11.1890 N   0  0  0  0  0  0  0  0  0  0  0  0
   19.3030   76.1600   12.0760 C   0  0  0  0  0  0  0  0  0  0  0  0
   19.5470   77.2870   11.3870 N   0  0  0  0  0  0  0  0  0  0  0  0
   19.3640   76.9850   10.0770 C   0  0  0  0  0  0  0  0  0  0  0  0
   19.0010   75.6540    9.9420 C   0  0  0  0  0  0  0  0  0  0  0  0
   18.7590   75.1120    8.6960 C   0  0  0  0  0  0  0  0  0  0  0  0
   18.4270   73.8820    8.6150 O   0  0  0  0  0  0  0  0  0  0  0  0
   18.8790   75.8880    7.6040 N   0  0  0  0  0  0  0  0  0  0  0  0
   19.2330   77.1760    7.7630 C   0  0  0  0  0  0  0  0  0  0  0  0
   19.3340   77.8680    6.7140 O   0  0  0  0  0  0  0  0  0  0  0  0
   19.4710   77.7200    8.9560 N   0  0  0  0  0  0  0  0  0  0  0  0
   19.8520   79.1190    9.0900 C   0  0  0  0  0  0  0  0  0  0  0  0
   18.6280   75.3270    6.2880 C   0  0  0  0  0  0  0  0  0  0  0  0
   17.1480   75.3290    6.0440 C   0  0  0  0  0  0  0  0  0  0  0  0
   16.5900   76.3220    5.5210 O   0  0  0  0  0  0  0  0  0  0  0  0
   16.3430   74.2210    6.3920 N   0  0  0  0  0  0  0  0  0  0  0  0
   23.0950   78.2780   14.6810 H   0  0  0  0  0  0  0  0  0  0  0  0
   21.7700   77.1020   13.0140 H   0  0  0  0  0  0  0  0  0  0  0  0
   18.8250   76.3060   16.0130 H   0  0  0  0  0  0  0  0  0  0  0  0
   20.1350   77.4650   17.6560 H   0  0  0  0  0  0  0  0  0  0  0  0
   19.0990   74.0730   14.4730 H   0  0  0  0  0  0  0  0  0  0  0  0
   17.7930   75.2590   14.7840 H   0  0  0  0  0  0  0  0  0  0  0  0
   16.8740   74.8520   12.5190 H   0  0  0  0  0  0  0  0  0  0  0  0
   17.2910   73.2320   13.2690 H   0  0  0  0  0  0  0  0  0  0  0  0
   18.2690   73.1700   11.0380 H   0  0  0  0  0  0  0  0  0  0  0  0
   19.6040   73.5200   12.2720 H   0  0  0  0  0  0  0  0  0  0  0  0
   19.7230   79.4680   10.1130 H   0  0  0  0  0  0  0  0  0  0  0  0
   20.8540   79.2830    8.6600 H   0  0  0  0  0  0  0  0  0  0  0  0
   19.1340   79.6840    8.4300 H   0  0  0  0  0  0  0  0  0  0  0  0
   19.0270   74.3030    6.2230 H   0  0  0  0  0  0  0  0  0  0  0  0
   19.1010   75.9730    5.5350 H   0  0  0  0  0  0  0  0  0  0  0  0
   16.5200   73.2570    6.0270 H   0  0  0  0  0  0  0  0  0  0  0  0
   15.5240   74.3230    7.0410 H   0  0  0  0  0  0  0  0  0  0  0  0
  2  7  1  0  0  0  0
  2  1  1  0  0  0  0
  3  2  2  0  0  0  0
  4  5  2  0  0  0  0
  4  3  1  0  0  0  0
  5  6  1  0  0  0  0
  6 30  1  0  0  0  0
  6  7  2  0  0  0  0
  7 31  1  0  0  0  0
  8  9  1  0  0  0  0
  8  5  1  0  0  0  0
  9 32  1  0  0  0  0
  9 33  1  0  0  0  0
 10 35  1  0  0  0  0
 10  9  1  0  0  0  0
 11 37  1  0  0  0  0
 11 10  1  0  0  0  0
 12 11  1  0  0  0  0
 12 13  1  0  0  0  0
 13  8  1  0  0  0  0
 14 13  2  0  0  0  0
 15 14  1  0  0  0  0
 16 15  2  0  0  0  0
 16 12  1  0  0  0  0
 17 16  1  0  0  0  0
 18 17  2  0  0  0  0
 19 20  1  0  0  0  0
 19 17  1  0  0  0  0
 20 22  1  0  0  0  0
 21 20  2  0  0  0  0
 22 23  1  0  0  0  0
 22 15  1  0  0  0  0
 23 38  1  0  0  0  0
 24 19  1  0  0  0  0
 25 24  1  0  0  0  0
 25 27  1  0  0  0  0
 26 25  2  0  0  0  0
 27 44  1  0  0  0  0
 28  3  1  0  0  0  0
 29  4  1  0  0  0  0
 34 10  1  0  0  0  0
 36 11  1  0  0  0  0
 39 23  1  0  0  0  0
 40 23  1  0  0  0  0
 41 24  1  0  0  0  0
 42 24  1  0  0  0  0
 43 27  1  0  0  0  0
M  END
>  <Pose>
1

>  <Score>
-7.80

$$$$
