
 OpenBabel03222202113D

 56 59  0  0  1  0  0  0  0  0999 V2000
   19.1470   84.7810   20.7970 B   0  0  0  0  0  0  0  0  0  0  0  0
   19.1480   83.0300   20.0600 C   0  0  0  0  0  0  0  0  0  0  0  0
   20.0640   82.1200   20.5150 C   0  0  0  0  0  0  0  0  0  0  0  0
   20.0680   80.8490   19.9830 C   0  0  0  0  0  0  0  0  0  0  0  0
   19.1780   80.4550   19.0030 C   0  0  0  0  0  0  0  0  0  0  0  0
   18.2460   81.4180   18.5540 C   0  0  0  0  0  0  0  0  0  0  0  0
   18.2460   82.6660   19.0800 C   0  0  0  0  0  0  0  0  0  0  0  0
   19.1350   79.2610   18.4640 O   0  0  0  0  0  0  0  0  0  0  0  0
   19.1680   78.3780   17.4890 C   0  0  0  0  0  0  0  0  0  0  0  0
   20.3110   77.4140   17.5260 C   0  0  1  0  0  0  0  0  0  0  0  0
   20.2420   76.7260   18.7460 O   0  0  0  0  0  0  0  0  0  0  0  0
   20.4520   76.4830   16.3580 C   0  0  0  0  0  0  0  0  0  0  0  0
   20.8950   77.0940   15.1240 N   0  0  0  0  0  0  0  0  0  0  0  0
   21.6500   78.2120   15.0160 C   0  0  0  0  0  0  0  0  0  0  0  0
   21.8040   78.5050   13.6800 C   0  0  0  0  0  0  0  0  0  0  0  0
   21.1470   77.5610   13.0390 N   0  0  0  0  0  0  0  0  0  0  0  0
   20.5690   76.6610   13.8960 C   0  0  0  0  0  0  0  0  0  0  0  0
   19.8520   75.4900   13.4590 N   0  0  0  0  0  0  0  0  0  0  0  0
   19.2010   75.6570   12.1400 C   0  0  0  0  0  0  0  0  0  0  0  0
   18.7220   74.4040   11.5280 C   0  0  0  0  0  0  0  0  0  0  0  0
   18.2340   73.4450   12.4870 N   0  0  0  0  0  0  0  0  0  0  0  0
   19.3550   73.0920   13.3000 C   0  0  0  0  0  0  0  0  0  0  0  0
   19.8060   74.2630   14.1720 C   0  0  0  0  0  0  0  0  0  0  0  0
   17.0850   73.9060   13.1930 C   0  0  0  0  0  0  0  0  0  0  0  0
   22.5120   79.5730   13.2100 N   0  0  0  0  0  0  0  0  0  0  0  0
   23.0850   80.3730   14.1110 C   0  0  0  0  0  0  0  0  0  0  0  0
   23.7430   81.3640   13.6950 O   0  0  0  0  0  0  0  0  0  0  0  0
   22.9540   80.1120   15.4180 N   0  0  0  0  0  0  0  0  0  0  0  0
   22.2580   79.0620   15.9140 C   0  0  0  0  0  0  0  0  0  0  0  0
   22.1550   78.8450   17.1300 O   0  0  0  0  0  0  0  0  0  0  0  0
   22.6110   79.8050   11.7690 C   0  0  0  0  0  0  0  0  0  0  0  0
   20.7760   82.3980   21.2900 H   0  0  0  0  0  0  0  0  0  0  0  0
   20.8150   80.1810   20.3690 H   0  0  0  0  0  0  0  0  0  0  0  0
   17.5480   81.1210   17.7890 H   0  0  0  0  0  0  0  0  0  0  0  0
   17.5070   83.3940   18.7180 H   0  0  0  0  0  0  0  0  0  0  0  0
   18.1870   77.7630   17.3890 H   0  0  0  0  0  0  0  0  0  0  0  0
   19.2460   78.8650   16.4360 H   0  0  0  0  0  0  0  0  0  0  0  0
   21.2670   78.0330   17.5080 H   0  0  0  0  0  0  0  0  0  0  0  0
   19.3270   76.3050   18.8280 H   0  0  0  0  0  0  0  0  0  0  0  0
   19.5850   75.8080   16.2500 H   0  0  0  0  0  0  0  0  0  0  0  0
   21.2710   75.7610   16.6860 H   0  0  0  0  0  0  0  0  0  0  0  0
   18.4240   76.4520   12.2300 H   0  0  0  0  0  0  0  0  0  0  0  0
   19.9800   76.1020   11.4540 H   0  0  0  0  0  0  0  0  0  0  0  0
   17.9850   74.6490   10.7520 H   0  0  0  0  0  0  0  0  0  0  0  0
   19.5930   73.8950   11.0190 H   0  0  0  0  0  0  0  0  0  0  0  0
   19.0770   72.2450   13.9770 H   0  0  0  0  0  0  0  0  0  0  0  0
   20.1710   72.7430   12.6680 H   0  0  0  0  0  0  0  0  0  0  0  0
   20.8860   73.9910   14.3970 H   0  0  0  0  0  0  0  0  0  0  0  0
   19.1530   74.2060   15.0480 H   0  0  0  0  0  0  0  0  0  0  0  0
   16.1790   73.3710   12.7880 H   0  0  0  0  0  0  0  0  0  0  0  0
   17.1130   73.7610   14.2870 H   0  0  0  0  0  0  0  0  0  0  0  0
   16.8530   74.9910   13.0310 H   0  0  0  0  0  0  0  0  0  0  0  0
   23.4160   80.7590   16.0910 H   0  0  0  0  0  0  0  0  0  0  0  0
   22.8940   80.8360   11.5410 H   0  0  0  0  0  0  0  0  0  0  0  0
   21.5880   79.6630   11.3560 H   0  0  0  0  0  0  0  0  0  0  0  0
   23.3320   79.1110   11.3080 H   0  0  0  0  0  0  0  0  0  0  0  0
  2  3  1  0  0  0  0
  2  1  1  0  0  0  0
  3 32  1  0  0  0  0
  4 33  1  0  0  0  0
  4  3  2  0  0  0  0
  5  4  1  0  0  0  0
  6  5  2  0  0  0  0
  6  7  1  0  0  0  0
  7  2  2  0  0  0  0
  8  5  1  0  0  0  0
  9 10  1  0  0  0  0
  9  8  1  0  0  0  0
 10 38  1  1  0  0  0
 10 11  1  0  0  0  0
 11 39  1  0  0  0  0
 12 41  1  0  0  0  0
 12 10  1  0  0  0  0
 13 12  1  0  0  0  0
 14 13  1  0  0  0  0
 14 29  1  0  0  0  0
 15 14  2  0  0  0  0
 16 15  1  0  0  0  0
 16 17  2  0  0  0  0
 17 13  1  0  0  0  0
 18 17  1  0  0  0  0
 18 23  1  0  0  0  0
 19 42  1  0  0  0  0
 19 18  1  0  0  0  0
 20 19  1  0  0  0  0
 20 21  1  0  0  0  0
 21 24  1  0  0  0  0
 21 22  1  0  0  0  0
 22 46  1  0  0  0  0
 22 23  1  0  0  0  0
 23 48  1  0  0  0  0
 23 49  1  0  0  0  0
 24 51  1  0  0  0  0
 25 15  1  0  0  0  0
 25 26  1  0  0  0  0
 26 28  1  0  0  0  0
 27 26  2  0  0  0  0
 28 29  1  0  0  0  0
 28 53  1  0  0  0  0
 29 30  2  0  0  0  0
 31 25  1  0  0  0  0
 34  6  1  0  0  0  0
 35  7  1  0  0  0  0
 36  9  1  0  0  0  0
 37  9  1  0  0  0  0
 40 12  1  0  0  0  0
 43 19  1  0  0  0  0
 44 20  1  0  0  0  0
 45 20  1  0  0  0  0
 47 22  1  0  0  0  0
 50 24  1  0  0  0  0
 52 24  1  0  0  0  0
 54 31  1  0  0  0  0
 55 31  1  0  0  0  0
 56 31  1  0  0  0  0
M  END
>  <Pose>
1

>  <Score>
-6.78

$$$$
