
 OpenBabel03222202113D

 39 43  0  0  1  0  0  0  0  0999 V2000
   19.7590   77.8330   19.6090 B   0  0  0  0  0  0  0  0  0  0  0  0
   19.9650   79.6680   19.1070 C   0  0  0  0  0  0  0  0  0  0  0  0
   19.6570   80.6750   20.0030 C   0  0  0  0  0  0  0  0  0  0  0  0
   19.7940   82.0030   19.6540 C   0  0  0  0  0  0  0  0  0  0  0  0
   20.2270   82.4350   18.4220 C   0  0  0  0  0  0  0  0  0  0  0  0
   20.5280   81.4340   17.5400 C   0  0  0  0  0  0  0  0  0  0  0  0
   20.4110   80.0740   17.8380 C   0  0  0  0  0  0  0  0  0  0  0  0
   20.6000   79.0370   16.8230 C   0  0  0  0  0  0  0  0  0  0  0  0
   21.8740   78.7890   16.2910 N   0  0  2  0  0  4  0  0  0  0  0  0
   22.7410   79.0850   17.4880 C   0  0  0  0  0  0  0  0  0  0  0  0
   24.1070   79.2170   17.2050 N   0  0  2  0  0  0  0  0  0  0  0  0
   24.2420   80.2590   16.2020 C   0  0  0  0  0  0  0  0  0  0  0  0
   23.5950   79.7840   15.0030 N   0  0  2  0  0  0  0  0  0  0  0  0
   22.1830   79.6860   15.1790 C   0  0  0  0  0  0  0  0  0  0  0  0
   24.0950   78.4840   14.5410 C   0  0  0  0  0  0  0  0  0  0  0  0
   23.7760   77.5150   15.5770 N   0  0  2  0  0  0  0  0  0  0  0  0
   22.3270   77.4990   15.8740 C   0  0  0  0  0  0  0  0  0  0  0  0
   24.5530   77.9020   16.7300 C   0  0  0  0  0  0  0  0  0  0  0  0
   20.2030   83.8190   18.4950 O   0  0  0  0  0  0  0  0  0  0  0  0
   19.1850   84.1920   19.4650 C   0  0  0  0  0  0  0  0  0  0  0  0
   19.5230   83.1620   20.4430 O   0  0  0  0  0  0  0  0  0  0  0  0
   19.3040   80.3200   20.9410 H   0  0  0  0  0  0  0  0  0  0  0  0
   20.8900   81.7540   16.5200 H   0  0  0  0  0  0  0  0  0  0  0  0
   19.9710   79.3750   15.9020 H   0  0  0  0  0  0  0  0  0  0  0  0
   20.0130   78.1520   17.1770 H   0  0  0  0  0  0  0  0  0  0  0  0
   22.5640   78.1550   18.1100 H   0  0  0  0  0  0  0  0  0  0  0  0
   22.3450   79.9150   18.0630 H   0  0  0  0  0  0  0  0  0  0  0  0
   25.2650   80.6050   16.0260 H   0  0  0  0  0  0  0  0  0  0  0  0
   23.5970   81.1050   16.5850 H   0  0  0  0  0  0  0  0  0  0  0  0
   21.7700   80.6720   15.2440 H   0  0  0  0  0  0  0  0  0  0  0  0
   21.8030   79.1040   14.2800 H   0  0  0  0  0  0  0  0  0  0  0  0
   23.6550   78.2910   13.5720 H   0  0  0  0  0  0  0  0  0  0  0  0
   25.1970   78.5770   14.5360 H   0  0  0  0  0  0  0  0  0  0  0  0
   22.1760   76.6710   16.6090 H   0  0  0  0  0  0  0  0  0  0  0  0
   21.8280   77.2290   14.9020 H   0  0  0  0  0  0  0  0  0  0  0  0
   24.4890   77.2160   17.5590 H   0  0  0  0  0  0  0  0  0  0  0  0
   25.5870   78.0620   16.3510 H   0  0  0  0  0  0  0  0  0  0  0  0
   18.1580   83.8560   19.1400 H   0  0  0  0  0  0  0  0  0  0  0  0
   19.2810   85.1870   19.8360 H   0  0  0  0  0  0  0  0  0  0  0  0
  2  1  1  0  0  0  0
  2  3  1  0  0  0  0
  3 22  1  0  0  0  0
  4  3  2  0  0  0  0
  4 21  1  0  0  0  0
  5 19  1  0  0  0  0
  5  4  1  0  0  0  0
  6  7  1  0  0  0  0
  6  5  2  0  0  0  0
  7  2  2  0  0  0  0
  8 25  1  0  0  0  0
  8  7  1  0  0  0  0
  9  8  1  1  0  0  0
  9 10  1  0  0  0  0
 10 27  1  0  0  0  0
 10 26  1  0  0  0  0
 11 12  1  6  0  0  0
 11 10  1  0  0  0  0
 12 29  1  0  0  0  0
 13 15  1  1  0  0  0
 13 14  1  0  0  0  0
 13 12  1  0  0  0  0
 14 30  1  0  0  0  0
 14  9  1  0  0  0  0
 16 15  1  6  0  0  0
 16 17  1  0  0  0  0
 16 18  1  0  0  0  0
 17  9  1  0  0  0  0
 17 34  1  0  0  0  0
 18 11  1  0  0  0  0
 18 36  1  0  0  0  0
 19 20  1  0  0  0  0
 20 39  1  0  0  0  0
 20 21  1  0  0  0  0
 23  6  1  0  0  0  0
 24  8  1  0  0  0  0
 28 12  1  0  0  0  0
 31 14  1  0  0  0  0
 32 15  1  0  0  0  0
 33 15  1  0  0  0  0
 35 17  1  0  0  0  0
 37 18  1  0  0  0  0
 38 20  1  0  0  0  0
M  END
>  <Pose>
1

>  <Score>
-5.43

$$$$
