
 OpenBabel03222202113D

 44 47  0  0  1  0  0  0  0  0999 V2000
   22.4320   78.3610   13.9300 B   0  0  0  0  0  0  0  0  0  0  0  0
   21.3910   77.9640   15.4630 C   0  0  0  0  0  0  0  0  0  0  0  0
   21.5380   78.7140   16.6150 C   0  0  0  0  0  0  0  0  0  0  0  0
   20.7940   78.4580   17.7690 C   0  0  0  0  0  0  0  0  0  0  0  0
   19.8810   77.4070   17.7300 C   0  0  0  0  0  0  0  0  0  0  0  0
   19.7520   76.6730   16.5690 C   0  0  0  0  0  0  0  0  0  0  0  0
   20.4910   76.9230   15.4150 C   0  0  0  0  0  0  0  0  0  0  0  0
   20.3170   76.1150   14.2260 C   0  0  0  0  0  0  0  0  0  0  0  0
   19.1760   75.7220   13.8480 N   0  0  0  0  0  0  0  0  0  0  0  0
   18.8540   74.9520   12.7480 N   0  0  0  0  0  0  0  0  0  0  0  0
   19.0610   75.3910   11.4220 C   0  0  0  0  0  0  0  0  0  0  0  0
   19.4690   76.6620   11.2690 N   0  0  0  0  0  0  0  0  0  0  0  0
   19.7360   77.2070   10.0520 C   0  0  1  0  0  0  0  0  0  0  0  0
   19.5670   76.4010    9.0040 N   0  0  0  0  0  0  0  0  0  0  0  0
   19.1670   75.1350    9.0880 C   0  0  0  0  0  0  0  0  0  0  0  0
   18.9120   74.6360   10.3340 N   0  0  0  0  0  0  0  0  0  0  0  0
   19.0020   74.3230    7.9790 O   0  0  0  0  0  0  0  0  0  0  0  0
   18.1540   74.7070    6.9300 C   0  0  0  0  0  0  0  0  0  0  0  0
   20.1450   78.5400    9.9810 N   0  0  0  0  0  0  0  0  0  0  0  0
   19.3760   79.5960   10.5950 C   0  0  0  0  0  0  0  0  0  0  0  0
   20.2000   80.8590   10.7380 C   0  0  0  0  0  0  0  0  0  0  0  0
   21.5220   80.6770   10.9780 O   0  0  0  0  0  0  0  0  0  0  0  0
   22.1770   79.6570   10.3620 C   0  0  0  0  0  0  0  0  0  0  0  0
   21.3630   78.9140    9.3070 C   0  0  0  0  0  0  0  0  0  0  0  0
   19.2870   77.3610   18.9710 O   0  0  0  0  0  0  0  0  0  0  0  0
   19.9240   78.2440   19.8730 C   0  0  0  0  0  0  0  0  0  0  0  0
   20.7320   79.0250   19.0320 O   0  0  0  0  0  0  0  0  0  0  0  0
   22.2600   79.5420   16.6390 H   0  0  0  0  0  0  0  0  0  0  0  0
   19.0160   75.8540   16.5940 H   0  0  0  0  0  0  0  0  0  0  0  0
   21.1760   75.8360   13.6470 H   0  0  0  0  0  0  0  0  0  0  0  0
   18.4420   74.0070   12.9030 H   0  0  0  0  0  0  0  0  0  0  0  0
   17.2260   74.0780    7.0070 H   0  0  0  0  0  0  0  0  0  0  0  0
   18.5880   74.4660    5.9260 H   0  0  0  0  0  0  0  0  0  0  0  0
   17.9430   75.7960    6.9470 H   0  0  0  0  0  0  0  0  0  0  0  0
   18.8850   79.3290   11.5390 H   0  0  0  0  0  0  0  0  0  0  0  0
   18.5440   79.8550    9.8680 H   0  0  0  0  0  0  0  0  0  0  0  0
   20.0630   81.5590    9.8640 H   0  0  0  0  0  0  0  0  0  0  0  0
   19.7560   81.4190   11.6140 H   0  0  0  0  0  0  0  0  0  0  0  0
   23.1840   79.9460    9.9780 H   0  0  0  0  0  0  0  0  0  0  0  0
   22.3770   78.8740   11.1530 H   0  0  0  0  0  0  0  0  0  0  0  0
   21.0590   79.6520    8.5210 H   0  0  0  0  0  0  0  0  0  0  0  0
   21.9590   78.0940    8.9180 H   0  0  0  0  0  0  0  0  0  0  0  0
   20.4900   77.7250   20.6730 H   0  0  0  0  0  0  0  0  0  0  0  0
   19.1170   78.8860   20.3000 H   0  0  0  0  0  0  0  0  0  0  0  0
  1  2  1  0  0  0  0
  2  3  1  0  0  0  0
  3 28  1  0  0  0  0
  3  4  2  0  0  0  0
  4 27  1  0  0  0  0
  5  4  1  0  0  0  0
  5 25  1  0  0  0  0
  6 29  1  0  0  0  0
  6  5  2  0  0  0  0
  7  2  2  0  0  0  0
  7  6  1  0  0  0  0
  8  7  1  0  0  0  0
  9  8  2  0  0  0  0
 10 31  1  0  0  0  0
 10  9  1  0  0  0  0
 11 10  1  0  0  0  0
 12 11  2  0  0  0  0
 13 19  1  6  0  0  0
 13 12  1  0  0  0  0
 14 15  2  0  0  0  0
 14 13  1  0  0  0  0
 15 16  2  0  0  0  0
 16 11  1  0  0  0  0
 17 15  1  0  0  0  0
 18 34  1  0  0  0  0
 18 32  1  0  0  0  0
 18 17  1  0  0  0  0
 19 20  1  0  0  0  0
 20 21  1  0  0  0  0
 20 35  1  0  0  0  0
 21 22  1  0  0  0  0
 21 38  1  0  0  0  0
 23 22  1  0  0  0  0
 23 40  1  0  0  0  0
 24 19  1  0  0  0  0
 24 23  1  0  0  0  0
 25 26  1  0  0  0  0
 26 44  1  0  0  0  0
 26 43  1  0  0  0  0
 27 26  1  0  0  0  0
 30  8  1  0  0  0  0
 33 18  1  0  0  0  0
 36 20  1  0  0  0  0
 37 21  1  0  0  0  0
 39 23  1  0  0  0  0
 41 24  1  0  0  0  0
 42 24  1  0  0  0  0
M  END
>  <Pose>
1

>  <Score>
-7.08

$$$$
