
 OpenBabel03222202113D

 53 57  0  0  1  0  0  0  0  0999 V2000
   19.7410   78.1030   20.2060 B   0  0  0  0  0  0  0  0  0  0  0  0
   19.9320   79.8670   19.5310 C   0  0  0  0  0  0  0  0  0  0  0  0
   19.9620   80.9610   20.3630 C   0  0  0  0  0  0  0  0  0  0  0  0
   20.0990   82.2280   19.8910 C   0  0  0  0  0  0  0  0  0  0  0  0
   20.2120   82.4360   18.5330 C   0  0  0  0  0  0  0  0  0  0  0  0
   20.1840   81.3370   17.6670 C   0  0  0  0  0  0  0  0  0  0  0  0
   20.0440   80.0460   18.1450 C   0  0  0  0  0  0  0  0  0  0  0  0
   20.0070   78.8930   17.3230 N   0  0  0  0  0  0  0  0  0  0  0  0
   21.0180   77.9140   17.2430 C   0  0  0  0  0  0  0  0  0  0  0  0
   20.9260   76.7410   17.6400 O   0  0  0  0  0  0  0  0  0  0  0  0
   22.3350   78.3220   16.6220 C   0  0  0  0  0  0  0  0  0  0  0  0
   22.2250   78.4600   15.1880 N   0  0  0  0  0  0  0  0  0  0  0  0
   22.0550   77.2860   14.4730 C   0  0  0  0  0  0  0  0  0  0  0  0
   22.5660   77.1640   13.0890 C   0  0  0  0  0  0  0  0  0  0  0  0
   22.7950   78.4770   12.5600 N   0  0  0  0  0  0  0  0  0  0  0  0
   23.6620   79.2950   13.3700 C   0  0  0  0  0  0  0  0  0  0  0  0
   22.9210   79.5650   14.6540 C   0  0  0  0  0  0  0  0  0  0  0  0
   22.2640   79.0050   11.3710 C   0  0  1  0  0  0  0  0  0  0  0  0
   22.9390   79.8500   10.5520 N   0  0  0  0  0  0  0  0  0  0  0  0
   22.4040   80.3380    9.4180 C   0  0  0  0  0  0  0  0  0  0  0  0
   21.1570   80.0050    9.0390 N   0  0  0  0  0  0  0  0  0  0  0  0
   20.4130   79.1700    9.7910 C   0  0  0  0  0  0  0  0  0  0  0  0
   19.1570   78.6710    9.6600 N   0  0  0  0  0  0  0  0  0  0  0  0
   18.9560   77.8960   10.7100 N   0  0  0  0  0  0  0  0  0  0  0  0
   20.0190   77.8670   11.5160 C   0  0  0  0  0  0  0  0  0  0  0  0
   20.9720   78.6800   10.9450 C   0  0  0  0  0  0  0  0  0  0  0  0
   18.2330   78.9570    8.5600 C   0  0  0  0  0  0  0  0  0  0  0  0
   20.3500   83.7230   18.0800 O   0  0  0  0  0  0  0  0  0  0  0  0
   19.9140   84.8610   18.7830 C   0  0  0  0  0  0  0  0  0  0  0  0
   19.5470   84.5730   20.2040 C   0  0  0  0  0  0  0  0  0  0  0  0
   20.1340   83.3600   20.6940 O   0  0  0  0  0  0  0  0  0  0  0  0
   19.8760   80.8070   21.4320 H   0  0  0  0  0  0  0  0  0  0  0  0
   20.2740   81.5360   16.6220 H   0  0  0  0  0  0  0  0  0  0  0  0
   19.1410   78.7530   16.7140 H   0  0  0  0  0  0  0  0  0  0  0  0
   22.5750   79.3060   17.0660 H   0  0  0  0  0  0  0  0  0  0  0  0
   23.1160   77.5990   16.9290 H   0  0  0  0  0  0  0  0  0  0  0  0
   22.4970   76.4280   15.0660 H   0  0  0  0  0  0  0  0  0  0  0  0
   20.9540   77.0190   14.4620 H   0  0  0  0  0  0  0  0  0  0  0  0
   23.5240   76.5900   13.0390 H   0  0  0  0  0  0  0  0  0  0  0  0
   21.8550   76.5670   12.4820 H   0  0  0  0  0  0  0  0  0  0  0  0
   23.9550   80.2240   12.8780 H   0  0  0  0  0  0  0  0  0  0  0  0
   24.5880   78.7290   13.6550 H   0  0  0  0  0  0  0  0  0  0  0  0
   22.2220   80.4170   14.5210 H   0  0  0  0  0  0  0  0  0  0  0  0
   23.6790   79.9000   15.3960 H   0  0  0  0  0  0  0  0  0  0  0  0
   23.0370   81.0070    8.8410 H   0  0  0  0  0  0  0  0  0  0  0  0
   20.1860   77.3400   12.4460 H   0  0  0  0  0  0  0  0  0  0  0  0
   17.7390   78.0430    8.1810 H   0  0  0  0  0  0  0  0  0  0  0  0
   17.4210   79.6500    8.8790 H   0  0  0  0  0  0  0  0  0  0  0  0
   18.8030   79.4860    7.7660 H   0  0  0  0  0  0  0  0  0  0  0  0
   20.7050   85.6550   18.7050 H   0  0  0  0  0  0  0  0  0  0  0  0
   19.0030   85.2600   18.2520 H   0  0  0  0  0  0  0  0  0  0  0  0
   18.4340   84.4100   20.2610 H   0  0  0  0  0  0  0  0  0  0  0  0
   19.7660   85.4100   20.8780 H   0  0  0  0  0  0  0  0  0  0  0  0
  2  1  1  0  0  0  0
  2  3  1  0  0  0  0
  3 32  1  0  0  0  0
  4  3  2  0  0  0  0
  4 31  1  0  0  0  0
  5  4  1  0  0  0  0
  6  7  1  0  0  0  0
  6  5  2  0  0  0  0
  7  2  2  0  0  0  0
  8  7  1  0  0  0  0
  9  8  1  0  0  0  0
  9 10  2  0  0  0  0
 11 36  1  0  0  0  0
 11 35  1  0  0  0  0
 11  9  1  0  0  0  0
 12 11  1  0  0  0  0
 13 37  1  0  0  0  0
 13 12  1  0  0  0  0
 14 13  1  0  0  0  0
 15 14  1  0  0  0  0
 15 16  1  0  0  0  0
 16 42  1  0  0  0  0
 16 17  1  0  0  0  0
 17 12  1  0  0  0  0
 17 44  1  0  0  0  0
 18 15  1  6  0  0  0
 19 18  1  0  0  0  0
 20 19  2  0  0  0  0
 21 20  1  0  0  0  0
 21 22  1  0  0  0  0
 22 26  2  0  0  0  0
 23 22  1  0  0  0  0
 23 24  1  0  0  0  0
 24 25  2  0  0  0  0
 25 46  1  0  0  0  0
 26 18  1  0  0  0  0
 26 25  1  0  0  0  0
 27 48  1  0  0  0  0
 27 23  1  0  0  0  0
 28  5  1  0  0  0  0
 28 29  1  0  0  0  0
 29 30  1  0  0  0  0
 30 52  1  0  0  0  0
 30 31  1  0  0  0  0
 30 53  1  0  0  0  0
 33  6  1  0  0  0  0
 34  8  1  0  0  0  0
 38 13  1  0  0  0  0
 39 14  1  0  0  0  0
 40 14  1  0  0  0  0
 41 16  1  0  0  0  0
 43 17  1  0  0  0  0
 45 20  1  0  0  0  0
 47 27  1  0  0  0  0
 49 27  1  0  0  0  0
 50 29  1  0  0  0  0
 51 29  1  0  0  0  0
M  END
>  <Pose>
1

>  <Score>
-7.22

$$$$
