
 OpenBabel03222202113D

 49 52  0  0  0  0  0  0  0  0999 V2000
   13.6880   80.8580    7.3540 B   0  0  0  0  0  0  0  0  0  0  0  0
   15.3300   79.8940    7.4640 C   0  0  0  0  0  0  0  0  0  0  0  0
   16.1230   80.0500    8.5820 C   0  0  0  0  0  0  0  0  0  0  0  0
   17.3220   79.3730    8.7120 C   0  0  0  0  0  0  0  0  0  0  0  0
   17.7000   78.5350    7.6810 C   0  0  0  0  0  0  0  0  0  0  0  0
   16.8990   78.3870    6.5670 C   0  0  0  0  0  0  0  0  0  0  0  0
   15.7010   79.0580    6.4310 C   0  0  0  0  0  0  0  0  0  0  0  0
   18.9770   77.9510    8.0510 C   0  0  0  0  0  0  0  0  0  0  0  0
   19.6160   77.1260    7.3220 O   0  0  0  0  0  0  0  0  0  0  0  0
   19.3470   78.4610    9.3240 N   0  0  0  0  0  0  0  0  0  0  0  0
   18.3480   79.3460    9.7660 C   0  0  0  0  0  0  0  0  0  0  0  0
   18.3080   79.9990   10.8440 O   0  0  0  0  0  0  0  0  0  0  0  0
   20.5710   78.0890    9.9990 C   0  0  0  0  0  0  0  0  0  0  0  0
   21.2350   79.2190   10.6930 C   0  0  0  0  0  0  0  0  0  0  0  0
   21.4900   78.8560   12.1290 C   0  0  0  0  0  0  0  0  0  0  0  0
   22.8850   79.0780   12.5750 C   0  0  0  0  0  0  0  0  0  0  0  0
   23.8830   78.9800   11.8160 O   0  0  0  0  0  0  0  0  0  0  0  0
   23.1660   79.4280   13.9450 N   0  0  0  0  0  0  0  0  0  0  0  0
   22.5520   80.5840   14.5560 C   0  0  0  0  0  0  0  0  0  0  0  0
   22.0460   80.3300   15.9370 C   0  0  0  0  0  0  0  0  0  0  0  0
   22.2710   78.9870   16.4150 N   0  0  0  0  0  0  0  0  0  0  0  0
   23.3610   78.1440   16.0040 C   0  0  0  0  0  0  0  0  0  0  0  0
   24.0690   78.6480   14.7700 C   0  0  0  0  0  0  0  0  0  0  0  0
   21.3420   78.4560   17.3670 C   0  0  0  0  0  0  0  0  0  0  0  0
   20.6110   79.2670   18.1780 N   0  0  0  0  0  0  0  0  0  0  0  0
   19.7380   78.8140   19.0760 C   0  0  0  0  0  0  0  0  0  0  0  0
   19.5560   77.4450   19.2000 C   0  0  0  0  0  0  0  0  0  0  0  0
   20.2680   76.6080   18.4070 N   0  0  0  0  0  0  0  0  0  0  0  0
   21.1400   77.1030   17.5130 C   0  0  0  0  0  0  0  0  0  0  0  0
   15.8590   80.7000    9.4150 H   0  0  0  0  0  0  0  0  0  0  0  0
   17.2390   77.7180    5.7840 H   0  0  0  0  0  0  0  0  0  0  0  0
   15.1000   78.9190    5.5450 H   0  0  0  0  0  0  0  0  0  0  0  0
   21.2480   77.6610    9.2440 H   0  0  0  0  0  0  0  0  0  0  0  0
   20.2890   77.3050   10.7650 H   0  0  0  0  0  0  0  0  0  0  0  0
   20.7080   80.1840   10.5940 H   0  0  0  0  0  0  0  0  0  0  0  0
   22.2510   79.4190   10.2370 H   0  0  0  0  0  0  0  0  0  0  0  0
   20.8120   79.4050   12.8240 H   0  0  0  0  0  0  0  0  0  0  0  0
   21.2630   77.7810   12.2870 H   0  0  0  0  0  0  0  0  0  0  0  0
   21.7780   81.0110   13.8890 H   0  0  0  0  0  0  0  0  0  0  0  0
   23.3590   81.3690   14.6060 H   0  0  0  0  0  0  0  0  0  0  0  0
   22.5440   81.0120   16.6840 H   0  0  0  0  0  0  0  0  0  0  0  0
   20.9620   80.5710   16.0130 H   0  0  0  0  0  0  0  0  0  0  0  0
   24.0880   78.0750   16.8170 H   0  0  0  0  0  0  0  0  0  0  0  0
   22.9090   77.1540   15.7260 H   0  0  0  0  0  0  0  0  0  0  0  0
   24.5500   77.8290   14.1990 H   0  0  0  0  0  0  0  0  0  0  0  0
   24.8640   79.3730   15.1130 H   0  0  0  0  0  0  0  0  0  0  0  0
   19.1640   79.4750   19.7130 H   0  0  0  0  0  0  0  0  0  0  0  0
   18.8640   77.0470   19.9090 H   0  0  0  0  0  0  0  0  0  0  0  0
   21.6900   76.4090   16.8990 H   0  0  0  0  0  0  0  0  0  0  0  0
  1  2  1  0  0  0  0
  2  3  1  0  0  0  0
  3  4  2  0  0  0  0
  3 30  1  0  0  0  0
  4 11  1  0  0  0  0
  5  8  1  0  0  0  0
  5  4  1  0  0  0  0
  6  5  2  0  0  0  0
  7  6  1  0  0  0  0
  7  2  2  0  0  0  0
  8 10  1  0  0  0  0
  9  8  2  0  0  0  0
 10 11  1  0  0  0  0
 10 13  1  0  0  0  0
 11 12  2  0  0  0  0
 13 14  1  0  0  0  0
 13 34  1  0  0  0  0
 14 15  1  0  0  0  0
 15 38  1  0  0  0  0
 15 16  1  0  0  0  0
 15 37  1  0  0  0  0
 16 18  1  0  0  0  0
 17 16  2  0  0  0  0
 18 19  1  0  0  0  0
 18 23  1  0  0  0  0
 19 40  1  0  0  0  0
 19 20  1  0  0  0  0
 20 42  1  0  0  0  0
 20 21  1  0  0  0  0
 20 41  1  0  0  0  0
 21 24  1  0  0  0  0
 22 21  1  0  0  0  0
 22 43  1  0  0  0  0
 23 46  1  0  0  0  0
 23 22  1  0  0  0  0
 24 29  2  0  0  0  0
 24 25  1  0  0  0  0
 25 26  2  0  0  0  0
 26 27  1  0  0  0  0
 26 47  1  0  0  0  0
 27 48  1  0  0  0  0
 28 27  2  0  0  0  0
 29 28  1  0  0  0  0
 31  6  1  0  0  0  0
 32  7  1  0  0  0  0
 33 13  1  0  0  0  0
 35 14  1  0  0  0  0
 36 14  1  0  0  0  0
 39 19  1  0  0  0  0
 44 22  1  0  0  0  0
 45 23  1  0  0  0  0
 49 29  1  0  0  0  0
M  END
>  <Pose>
1

>  <Score>
-7.20

$$$$
