
 OpenBabel03222202113D

 36 39  0  0  1  0  0  0  0  0999 V2000
   19.0790   75.1970   13.4940 B   0  0  0  0  0  0  0  0  0  0  0  0
   20.4930   76.0000   14.5280 C   0  0  0  0  0  0  0  0  0  0  0  0
   20.2320   77.0010   15.4260 C   0  0  0  0  0  0  0  0  0  0  0  0
   21.2600   77.5600   16.1550 C   0  0  0  0  0  0  0  0  0  0  0  0
   22.5240   77.0780   15.9430 C   0  0  0  0  0  0  0  0  0  0  0  0
   22.7910   76.0480   15.0190 C   0  0  0  0  0  0  0  0  0  0  0  0
   21.7580   75.5040   14.3040 C   0  0  0  0  0  0  0  0  0  0  0  0
   23.4730   77.7520   16.7650 N   0  0  0  0  0  0  0  0  0  0  0  0
   22.7840   78.7010   17.5300 C   0  0  0  0  0  0  0  0  0  0  0  0
   23.3160   79.4840   18.3750 O   0  0  0  0  0  0  0  0  0  0  0  0
   21.3210   78.6300   17.1800 C   0  0  2  0  0  0  0  0  0  0  0  0
   20.6320   78.2790   18.4160 C   0  0  0  0  0  0  0  0  0  0  0  0
   19.7400   79.1300   18.9930 C   0  0  0  0  0  0  0  0  0  0  0  0
   19.2810   78.5080   20.1190 N   0  0  0  0  0  0  0  0  0  0  0  0
   19.8490   77.3280   20.2510 N   0  0  0  0  0  0  0  0  0  0  0  0
   20.6850   77.1450   19.2310 C   0  0  0  0  0  0  0  0  0  0  0  0
   21.5630   75.9720   18.9260 C   0  0  0  0  0  0  0  0  0  0  0  0
   19.4260   80.3800   18.4500 O   0  0  0  0  0  0  0  0  0  0  0  0
   20.0860   80.7120   17.2720 C   0  0  0  0  0  0  0  0  0  0  0  0
   20.9520   79.9380   16.6710 C   0  0  0  0  0  0  0  0  0  0  0  0
   21.5540   80.4520   15.4290 C   0  0  0  0  0  0  0  0  0  0  0  0
   22.0310   80.8390   14.4350 N   0  0  0  0  0  0  0  0  0  0  0  0
   19.8000   82.0010   16.6590 N   0  0  0  0  0  0  0  0  0  0  0  0
   24.9220   77.5050   16.8110 C   0  0  0  0  0  0  0  0  0  0  0  0
   19.2300   77.3680   15.5800 H   0  0  0  0  0  0  0  0  0  0  0  0
   23.7910   75.6700   14.8550 H   0  0  0  0  0  0  0  0  0  0  0  0
   21.9370   74.6990   13.5760 H   0  0  0  0  0  0  0  0  0  0  0  0
   19.7060   76.6130   21.0100 H   0  0  0  0  0  0  0  0  0  0  0  0
   21.3870   75.2330   19.7490 H   0  0  0  0  0  0  0  0  0  0  0  0
   21.2340   75.4470   17.9960 H   0  0  0  0  0  0  0  0  0  0  0  0
   22.6240   76.2170   18.9480 H   0  0  0  0  0  0  0  0  0  0  0  0
   20.6030   82.6600   16.6410 H   0  0  0  0  0  0  0  0  0  0  0  0
   18.8900   82.2510   16.2770 H   0  0  0  0  0  0  0  0  0  0  0  0
   25.4270   78.4490   16.5250 H   0  0  0  0  0  0  0  0  0  0  0  0
   25.1480   77.3350   17.8900 H   0  0  0  0  0  0  0  0  0  0  0  0
   25.2040   76.6450   16.2040 H   0  0  0  0  0  0  0  0  0  0  0  0
  1  2  1  0  0  0  0
  2  3  1  0  0  0  0
  3 25  1  0  0  0  0
  3  4  2  0  0  0  0
  5  4  1  0  0  0  0
  5  8  1  0  0  0  0
  6  5  2  0  0  0  0
  7  2  2  0  0  0  0
  7  6  1  0  0  0  0
  8 24  1  0  0  0  0
  8  9  1  0  0  0  0
  9 10  2  0  0  0  0
 11  4  1  6  0  0  0
 11  9  1  0  0  0  0
 11 12  1  0  0  0  0
 12 13  1  0  0  0  0
 12 16  2  0  0  0  0
 13 14  2  0  0  0  0
 14 15  1  0  0  0  0
 15 28  1  0  0  0  0
 16 15  1  0  0  0  0
 17 31  1  0  0  0  0
 17 16  1  0  0  0  0
 17 29  1  0  0  0  0
 18 13  1  0  0  0  0
 19 18  1  0  0  0  0
 20 11  1  0  0  0  0
 20 19  2  0  0  0  0
 21 20  1  0  0  0  0
 22 21  3  0  0  0  0
 23 19  1  0  0  0  0
 24 35  1  0  0  0  0
 26  6  1  0  0  0  0
 27  7  1  0  0  0  0
 30 17  1  0  0  0  0
 32 23  1  0  0  0  0
 33 23  1  0  0  0  0
 34 24  1  0  0  0  0
 36 24  1  0  0  0  0
M  END
>  <Pose>
1

>  <Score>
-4.95

$$$$
