
 OpenBabel03222202113D

 41 44  0  0  1  0  0  0  0  0999 V2000
   26.9470   76.2990   15.2140 B   0  0  0  0  0  0  0  0  0  0  0  0
   25.6470   77.5860   15.7260 C   0  0  0  0  0  0  0  0  0  0  0  0
   24.4130   77.6850   15.1280 C   0  0  0  0  0  0  0  0  0  0  0  0
   23.5140   78.6590   15.5620 C   0  0  0  0  0  0  0  0  0  0  0  0
   23.7900   79.5310   16.5610 C   0  0  0  0  0  0  0  0  0  0  0  0
   25.0450   79.4300   17.1690 C   0  0  0  0  0  0  0  0  0  0  0  0
   25.9450   78.4750   16.7530 C   0  0  0  0  0  0  0  0  0  0  0  0
   22.7150   80.4150   16.8100 N   0  0  0  0  0  0  0  0  0  0  0  0
   21.6800   80.0890   15.9120 C   0  0  0  0  0  0  0  0  0  0  0  0
   20.5570   80.6590   15.8320 O   0  0  0  0  0  0  0  0  0  0  0  0
   22.1310   78.9490   15.0650 C   0  0  1  0  0  0  0  0  0  0  0  0
   22.1880   79.3550   13.6380 C   0  0  0  0  0  0  0  0  0  0  0  0
   21.5980   78.6970   12.7070 C   0  0  0  0  0  0  0  0  0  0  0  0
   20.8210   77.4950   12.9650 N   0  0  0  0  0  0  0  0  0  0  0  0
   20.7590   77.0970   14.3190 C   0  0  0  0  0  0  0  0  0  0  0  0
   21.3500   77.7510   15.2810 C   0  0  0  0  0  0  0  0  0  0  0  0
   21.1960   77.2210   16.6300 C   0  0  0  0  0  0  0  0  0  0  0  0
   21.0530   76.7960   17.6980 N   0  0  0  0  0  0  0  0  0  0  0  0
   19.9940   75.9010   14.6370 N   0  0  0  0  0  0  0  0  0  0  0  0
   21.8590   79.3760   11.4000 C   0  0  0  0  0  0  0  0  0  0  0  0
   22.6460   80.4670   11.7040 O   0  0  0  0  0  0  0  0  0  0  0  0
   22.8970   80.5330   13.0410 C   0  0  0  0  0  0  0  0  0  0  0  0
   23.5720   81.3780   13.7040 O   0  0  0  0  0  0  0  0  0  0  0  0
   20.5450   79.7430   10.7370 C   0  0  0  0  0  0  0  0  0  0  0  0
   22.6480   78.4690   10.4730 C   0  0  0  0  0  0  0  0  0  0  0  0
   22.6480   81.4910   17.8110 C   0  0  0  0  0  0  0  0  0  0  0  0
   24.1790   76.9980   14.3320 H   0  0  0  0  0  0  0  0  0  0  0  0
   25.2630   80.1300   17.9680 H   0  0  0  0  0  0  0  0  0  0  0  0
   26.9070   78.4320   17.2530 H   0  0  0  0  0  0  0  0  0  0  0  0
   20.3660   77.0030   12.1770 H   0  0  0  0  0  0  0  0  0  0  0  0
   19.0430   75.8280   14.2220 H   0  0  0  0  0  0  0  0  0  0  0  0
   20.3760   75.1640   15.2450 H   0  0  0  0  0  0  0  0  0  0  0  0
   20.2880   80.8210   10.8900 H   0  0  0  0  0  0  0  0  0  0  0  0
   20.6060   79.4860    9.6640 H   0  0  0  0  0  0  0  0  0  0  0  0
   19.7640   79.1180   11.1960 H   0  0  0  0  0  0  0  0  0  0  0  0
   23.7290   78.5910   10.6810 H   0  0  0  0  0  0  0  0  0  0  0  0
   22.4310   78.7070    9.4160 H   0  0  0  0  0  0  0  0  0  0  0  0
   22.3830   77.4040   10.6260 H   0  0  0  0  0  0  0  0  0  0  0  0
   21.8750   81.2040   18.5740 H   0  0  0  0  0  0  0  0  0  0  0  0
   23.6140   81.5560   18.3590 H   0  0  0  0  0  0  0  0  0  0  0  0
   22.3990   82.4530   17.3620 H   0  0  0  0  0  0  0  0  0  0  0  0
  1  2  1  0  0  0  0
  2  7  1  0  0  0  0
  3  4  1  0  0  0  0
  3  2  2  0  0  0  0
  4  5  2  0  0  0  0
  5  8  1  0  0  0  0
  5  6  1  0  0  0  0
  6 28  1  0  0  0  0
  7  6  2  0  0  0  0
  7 29  1  0  0  0  0
  8 26  1  0  0  0  0
  9  8  1  0  0  0  0
 10  9  2  0  0  0  0
 11 12  1  6  0  0  0
 11 16  1  0  0  0  0
 11  4  1  0  0  0  0
 11  9  1  0  0  0  0
 13 14  1  0  0  0  0
 13 12  2  0  0  0  0
 14 15  1  0  0  0  0
 15 19  1  0  0  0  0
 15 16  2  0  0  0  0
 16 17  1  0  0  0  0
 17 18  3  0  0  0  0
 19 32  1  0  0  0  0
 20 21  1  0  0  0  0
 20 13  1  0  0  0  0
 21 22  1  0  0  0  0
 22 12  1  0  0  0  0
 22 23  2  0  0  0  0
 24 33  1  0  0  0  0
 24 35  1  0  0  0  0
 24 20  1  0  0  0  0
 25 38  1  0  0  0  0
 25 36  1  0  0  0  0
 25 20  1  0  0  0  0
 26 40  1  0  0  0  0
 26 39  1  0  0  0  0
 27  3  1  0  0  0  0
 30 14  1  0  0  0  0
 31 19  1  0  0  0  0
 34 24  1  0  0  0  0
 37 25  1  0  0  0  0
 41 26  1  0  0  0  0
M  END
>  <Pose>
1

>  <Score>
-4.66

$$$$
