
 OpenBabel03222202113D

 46 49  0  0  0  0  0  0  0  0999 V2000
   23.1040   79.6620   13.5690 B   0  0  0  0  0  0  0  0  0  0  0  0
   22.0900   79.4980   11.9530 C   0  0  0  0  0  0  0  0  0  0  0  0
   21.2760   78.3870   11.7380 C   0  0  0  0  0  0  0  0  0  0  0  0
   20.5270   78.2120   10.5940 C   0  0  0  0  0  0  0  0  0  0  0  0
   20.6080   79.2000    9.6410 C   0  0  0  0  0  0  0  0  0  0  0  0
   21.4160   80.3320    9.8250 C   0  0  0  0  0  0  0  0  0  0  0  0
   22.1440   80.4620   10.9790 C   0  0  0  0  0  0  0  0  0  0  0  0
   19.7690   78.8200    8.5590 N   0  0  0  0  0  0  0  0  0  0  0  0
   19.1480   77.5760    8.8290 C   0  0  0  0  0  0  0  0  0  0  0  0
   18.3460   76.9290    8.1130 O   0  0  0  0  0  0  0  0  0  0  0  0
   19.6210   77.1460   10.1540 C   0  0  0  0  0  0  0  0  0  0  0  0
   19.2790   76.0370   10.7740 C   0  0  0  0  0  0  0  0  0  0  0  0
   19.7380   75.6420   12.0380 N   0  0  0  0  0  0  0  0  0  0  0  0
   19.4690   76.3210   13.2120 N   0  0  0  0  0  0  0  0  0  0  0  0
   20.2910   76.2520   14.3690 C   0  0  0  0  0  0  0  0  0  0  0  0
   20.5210   75.1240   14.8330 O   0  0  0  0  0  0  0  0  0  0  0  0
   20.8720   77.4450   15.0230 C   0  0  0  0  0  0  0  0  0  0  0  0
   20.4520   77.5870   16.3390 N   0  0  0  0  0  0  0  0  0  0  0  0
   20.2980   78.6570   17.1170 C   0  0  0  0  0  0  0  0  0  0  0  0
   19.9080   78.2390   18.3830 C   0  0  0  0  0  0  0  0  0  0  0  0
   19.8330   76.8950   18.3400 N   0  0  0  0  0  0  0  0  0  0  0  0
   20.1550   76.5060   17.1270 C   0  0  0  0  0  0  0  0  0  0  0  0
   19.6730   79.1690   19.3750 C   0  0  0  0  0  0  0  0  0  0  0  0
   19.3240   78.7600   20.5130 O   0  0  0  0  0  0  0  0  0  0  0  0
   19.8340   80.4470   19.0660 N   0  0  0  0  0  0  0  0  0  0  0  0
   20.2090   80.8410   17.8360 C   0  0  0  0  0  0  0  0  0  0  0  0
   20.3480   82.0610   17.5850 O   0  0  0  0  0  0  0  0  0  0  0  0
   20.4530   79.9630   16.8220 N   0  0  0  0  0  0  0  0  0  0  0  0
   20.8170   80.4170   15.5100 C   0  0  0  0  0  0  0  0  0  0  0  0
   19.5990   81.4810   20.0880 C   0  0  0  0  0  0  0  0  0  0  0  0
   21.2240   77.6300   12.5030 H   0  0  0  0  0  0  0  0  0  0  0  0
   21.4530   81.0840    9.0570 H   0  0  0  0  0  0  0  0  0  0  0  0
   22.7710   81.3540   11.1060 H   0  0  0  0  0  0  0  0  0  0  0  0
   19.6200   79.3710    7.6820 H   0  0  0  0  0  0  0  0  0  0  0  0
   18.5870   75.3740   10.2740 H   0  0  0  0  0  0  0  0  0  0  0  0
   20.3230   74.7630   12.0650 H   0  0  0  0  0  0  0  0  0  0  0  0
   18.6170   76.9200   13.2710 H   0  0  0  0  0  0  0  0  0  0  0  0
   21.9260   77.4560   14.7760 H   0  0  0  0  0  0  0  0  0  0  0  0
   20.4540   78.3240   14.4190 H   0  0  0  0  0  0  0  0  0  0  0  0
   20.1730   75.4720   16.8180 H   0  0  0  0  0  0  0  0  0  0  0  0
   20.9280   81.5540   15.6110 H   0  0  0  0  0  0  0  0  0  0  0  0
   21.7880   80.1410   15.1320 H   0  0  0  0  0  0  0  0  0  0  0  0
   19.9660   80.3860   14.7900 H   0  0  0  0  0  0  0  0  0  0  0  0
   20.1360   81.1800   21.0100 H   0  0  0  0  0  0  0  0  0  0  0  0
   18.5210   81.5350   20.3550 H   0  0  0  0  0  0  0  0  0  0  0  0
   19.9480   82.4740   19.7420 H   0  0  0  0  0  0  0  0  0  0  0  0
  2  1  1  0  0  0  0
  3  2  1  0  0  0  0
  3 31  1  0  0  0  0
  4  3  2  0  0  0  0
  5  6  2  0  0  0  0
  5  4  1  0  0  0  0
  6  7  1  0  0  0  0
  7 33  1  0  0  0  0
  7  2  2  0  0  0  0
  8  9  1  0  0  0  0
  8  5  1  0  0  0  0
  9 11  1  0  0  0  0
 10  9  2  0  0  0  0
 11  4  1  0  0  0  0
 11 12  2  0  0  0  0
 12 13  1  0  0  0  0
 13 36  1  0  0  0  0
 13 14  1  0  0  0  0
 14 37  1  0  0  0  0
 14 15  1  0  0  0  0
 15 16  2  0  0  0  0
 15 17  1  0  0  0  0
 17 18  1  0  0  0  0
 18 19  1  0  0  0  0
 18 22  1  0  0  0  0
 19 20  2  0  0  0  0
 20 23  1  0  0  0  0
 21 20  1  0  0  0  0
 22 21  2  0  0  0  0
 23 24  2  0  0  0  0
 25 23  1  0  0  0  0
 25 30  1  0  0  0  0
 26 25  1  0  0  0  0
 27 26  2  0  0  0  0
 28 19  1  0  0  0  0
 28 26  1  0  0  0  0
 29 41  1  0  0  0  0
 29 28  1  0  0  0  0
 30 45  1  0  0  0  0
 30 44  1  0  0  0  0
 32  6  1  0  0  0  0
 34  8  1  0  0  0  0
 35 12  1  0  0  0  0
 38 17  1  0  0  0  0
 39 17  1  0  0  0  0
 40 22  1  0  0  0  0
 42 29  1  0  0  0  0
 43 29  1  0  0  0  0
 46 30  1  0  0  0  0
M  END
>  <Pose>
1

>  <Score>
-7.02

$$$$
