
 OpenBabel03222202113D

 38 41  0  0  1  0  0  0  0  0999 V2000
   27.1250   76.5040   15.3610 B   0  0  0  0  0  0  0  0  0  0  0  0
   25.7790   77.7630   15.8170 C   0  0  0  0  0  0  0  0  0  0  0  0
   24.5300   77.7770   15.1870 C   0  0  0  0  0  0  0  0  0  0  0  0
   23.5650   78.6890   15.5230 C   0  0  0  0  0  0  0  0  0  0  0  0
   23.8240   79.6100   16.4950 C   0  0  0  0  0  0  0  0  0  0  0  0
   25.0600   79.6370   17.1550 C   0  0  0  0  0  0  0  0  0  0  0  0
   26.0090   78.7100   16.7980 C   0  0  0  0  0  0  0  0  0  0  0  0
   22.7080   80.4600   16.6960 N   0  0  0  0  0  0  0  0  0  0  0  0
   21.7010   80.0500   15.8050 C   0  0  0  0  0  0  0  0  0  0  0  0
   20.5500   80.5390   15.6580 O   0  0  0  0  0  0  0  0  0  0  0  0
   22.1980   78.9020   15.0140 C   0  0  1  0  0  0  0  0  0  0  0  0
   22.2220   79.2700   13.5610 C   0  0  0  0  0  0  0  0  0  0  0  0
   21.6180   78.6160   12.6040 C   0  0  0  0  0  0  0  0  0  0  0  0
   20.8750   77.4610   12.9470 N   0  0  0  0  0  0  0  0  0  0  0  0
   20.7950   77.0360   14.2990 C   0  0  0  0  0  0  0  0  0  0  0  0
   21.3990   77.6890   15.2610 C   0  0  0  0  0  0  0  0  0  0  0  0
   21.2660   77.1830   16.6300 C   0  0  0  0  0  0  0  0  0  0  0  0
   21.1470   76.7970   17.7140 N   0  0  0  0  0  0  0  0  0  0  0  0
   20.0260   75.8470   14.6270 N   0  0  0  0  0  0  0  0  0  0  0  0
   21.8900   79.3040   11.3190 C   0  0  0  0  0  0  0  0  0  0  0  0
   22.7020   80.4130   11.6090 O   0  0  0  0  0  0  0  0  0  0  0  0
   22.9250   80.4230   12.9720 C   0  0  0  0  0  0  0  0  0  0  0  0
   23.6240   81.2920   13.5970 O   0  0  0  0  0  0  0  0  0  0  0  0
   20.5990   79.8640   10.7190 C   0  0  0  0  0  0  0  0  0  0  0  0
   22.5600   78.3650   10.3250 C   0  0  0  0  0  0  0  0  0  0  0  0
   24.3760   77.0250   14.4230 H   0  0  0  0  0  0  0  0  0  0  0  0
   25.3010   80.3460   17.9250 H   0  0  0  0  0  0  0  0  0  0  0  0
   26.9710   78.7290   17.3100 H   0  0  0  0  0  0  0  0  0  0  0  0
   22.6610   81.2600   17.4020 H   0  0  0  0  0  0  0  0  0  0  0  0
   20.3690   76.8950   12.2190 H   0  0  0  0  0  0  0  0  0  0  0  0
   18.9940   75.8330   14.6740 H   0  0  0  0  0  0  0  0  0  0  0  0
   20.5470   74.9770   14.8210 H   0  0  0  0  0  0  0  0  0  0  0  0
   20.9170   80.6780   10.0330 H   0  0  0  0  0  0  0  0  0  0  0  0
   20.0760   79.1170   10.1150 H   0  0  0  0  0  0  0  0  0  0  0  0
   19.9950   80.3190   11.5110 H   0  0  0  0  0  0  0  0  0  0  0  0
   21.8870   78.1540    9.4620 H   0  0  0  0  0  0  0  0  0  0  0  0
   23.4850   78.8890    9.9650 H   0  0  0  0  0  0  0  0  0  0  0  0
   22.8750   77.4430   10.8360 H   0  0  0  0  0  0  0  0  0  0  0  0
  1  2  1  0  0  0  0
  2  7  1  0  0  0  0
  3  4  1  0  0  0  0
  3  2  2  0  0  0  0
  4  5  2  0  0  0  0
  5  8  1  0  0  0  0
  5  6  1  0  0  0  0
  6 27  1  0  0  0  0
  7  6  2  0  0  0  0
  7 28  1  0  0  0  0
  8 29  1  0  0  0  0
  9  8  1  0  0  0  0
 10  9  2  0  0  0  0
 11 12  1  6  0  0  0
 11 16  1  0  0  0  0
 11  4  1  0  0  0  0
 11  9  1  0  0  0  0
 13 14  1  0  0  0  0
 13 12  2  0  0  0  0
 14 15  1  0  0  0  0
 15 19  1  0  0  0  0
 15 16  2  0  0  0  0
 16 17  1  0  0  0  0
 17 18  3  0  0  0  0
 19 31  1  0  0  0  0
 19 32  1  0  0  0  0
 20 21  1  0  0  0  0
 20 13  1  0  0  0  0
 21 22  1  0  0  0  0
 22 12  1  0  0  0  0
 22 23  2  0  0  0  0
 24 20  1  0  0  0  0
 24 35  1  0  0  0  0
 25 38  1  0  0  0  0
 25 20  1  0  0  0  0
 26  3  1  0  0  0  0
 30 14  1  0  0  0  0
 33 24  1  0  0  0  0
 34 24  1  0  0  0  0
 36 25  1  0  0  0  0
 37 25  1  0  0  0  0
M  END
>  <Pose>
1

>  <Score>
-4.93

$$$$
