
 OpenBabel03222202113D

 49 52  0  0  1  0  0  0  0  0999 V2000
   20.4520   78.2960    9.2420 B   0  0  0  0  0  0  0  0  0  0  0  0
   21.3780   79.2490   10.6110 C   0  0  0  0  0  0  0  0  0  0  0  0
   21.5830   78.6840   11.8440 C   0  0  0  0  0  0  0  0  0  0  0  0
   22.2650   79.3780   12.8600 C   0  0  0  0  0  0  0  0  0  0  0  0
   22.7460   80.6410   12.6550 C   0  0  0  0  0  0  0  0  0  0  0  0
   22.5370   81.2180   11.3940 C   0  0  0  0  0  0  0  0  0  0  0  0
   21.8680   80.5220   10.4150 C   0  0  0  0  0  0  0  0  0  0  0  0
   23.3940   81.1330   13.8190 N   0  0  0  0  0  0  0  0  0  0  0  0
   23.3120   80.1240   14.8060 C   0  0  0  0  0  0  0  0  0  0  0  0
   23.8090   80.2730   15.9710 O   0  0  0  0  0  0  0  0  0  0  0  0
   22.6020   78.9860   14.2470 C   0  0  2  0  0  0  0  0  0  0  0  0
   23.3590   77.7500   14.2930 N   0  0  0  0  0  0  0  0  0  0  0  0
   23.0370   77.1400   15.5700 C   0  0  1  0  0  0  0  0  0  0  0  0
   21.5590   77.3850   15.6690 C   0  0  2  0  0  0  0  0  0  0  0  0
   21.3490   78.7280   15.0570 C   0  0  1  0  0  0  0  0  0  0  0  0
   21.1900   79.6620   16.1830 C   0  0  0  0  0  0  0  0  0  0  0  0
   21.2660   80.9340   16.1820 O   0  0  0  0  0  0  0  0  0  0  0  0
   20.9220   78.9300   17.3720 N   0  0  0  0  0  0  0  0  0  0  0  0
   21.1040   77.5620   17.0650 C   0  0  0  0  0  0  0  0  0  0  0  0
   20.9150   76.5850   17.8510 O   0  0  0  0  0  0  0  0  0  0  0  0
   20.5340   79.4740   18.6580 C   0  0  0  0  0  0  0  0  0  0  0  0
   19.2000   80.1470   18.6150 C   0  0  0  0  0  0  0  0  0  0  0  0
   19.0100   80.8430   19.9690 C   0  0  0  0  0  0  0  0  0  0  0  0
   19.8760   82.0690   20.0550 C   0  0  0  0  0  0  0  0  0  0  0  0
   23.3960   75.6880   15.5270 C   0  0  2  0  0  0  0  0  0  0  0  0
   24.7540   75.5930   15.1980 O   0  0  0  0  0  0  0  0  0  0  0  0
   22.6240   74.9930   14.4320 C   0  0  0  0  0  0  0  0  0  0  0  0
   21.2210   77.6740   12.0730 H   0  0  0  0  0  0  0  0  0  0  0  0
   22.9200   82.2260   11.2260 H   0  0  0  0  0  0  0  0  0  0  0  0
   21.7000   80.9600    9.4340 H   0  0  0  0  0  0  0  0  0  0  0  0
   23.8370   82.0860   13.8790 H   0  0  0  0  0  0  0  0  0  0  0  0
   24.3760   77.8960   14.1590 H   0  0  0  0  0  0  0  0  0  0  0  0
   23.5210   77.6520   16.4170 H   0  0  0  0  0  0  0  0  0  0  0  0
   20.9600   76.6160   15.1400 H   0  0  0  0  0  0  0  0  0  0  0  0
   20.4370   78.7140   14.4080 H   0  0  0  0  0  0  0  0  0  0  0  0
   20.5020   78.7030   19.4510 H   0  0  0  0  0  0  0  0  0  0  0  0
   21.3020   80.2190   18.9680 H   0  0  0  0  0  0  0  0  0  0  0  0
   18.3840   79.3820   18.5700 H   0  0  0  0  0  0  0  0  0  0  0  0
   19.0460   80.8330   17.7850 H   0  0  0  0  0  0  0  0  0  0  0  0
   17.9370   81.1650   19.9790 H   0  0  0  0  0  0  0  0  0  0  0  0
   19.1590   80.1400   20.8020 H   0  0  0  0  0  0  0  0  0  0  0  0
   20.8270   81.9750   19.5100 H   0  0  0  0  0  0  0  0  0  0  0  0
   19.3460   82.9590   19.6190 H   0  0  0  0  0  0  0  0  0  0  0  0
   20.0330   82.3150   21.1230 H   0  0  0  0  0  0  0  0  0  0  0  0
   23.1790   75.2050   16.5020 H   0  0  0  0  0  0  0  0  0  0  0  0
   25.0610   74.6510   15.2320 H   0  0  0  0  0  0  0  0  0  0  0  0
   21.6190   74.7160   14.8080 H   0  0  0  0  0  0  0  0  0  0  0  0
   22.5810   75.6680   13.5670 H   0  0  0  0  0  0  0  0  0  0  0  0
   23.1600   74.0340   14.2140 H   0  0  0  0  0  0  0  0  0  0  0  0
  1  2  1  0  0  0  0
  2  3  1  0  0  0  0
  3 28  1  0  0  0  0
  3  4  2  0  0  0  0
  5  4  1  0  0  0  0
  5  8  1  0  0  0  0
  6  5  2  0  0  0  0
  7  2  2  0  0  0  0
  7  6  1  0  0  0  0
  8 31  1  0  0  0  0
  8  9  1  0  0  0  0
  9 10  2  0  0  0  0
 11  4  1  6  0  0  0
 11 12  1  0  0  0  0
 11  9  1  0  0  0  0
 11 15  1  0  0  0  0
 12 13  1  0  0  0  0
 13 14  1  0  0  0  0
 13 33  1  1  0  0  0
 14 34  1  6  0  0  0
 14 19  1  0  0  0  0
 15 35  1  6  0  0  0
 15 14  1  0  0  0  0
 15 16  1  0  0  0  0
 16 18  1  0  0  0  0
 17 16  2  0  0  0  0
 18 21  1  0  0  0  0
 19 18  1  0  0  0  0
 19 20  2  0  0  0  0
 21 37  1  0  0  0  0
 21 36  1  0  0  0  0
 22 21  1  0  0  0  0
 22 23  1  0  0  0  0
 23 40  1  0  0  0  0
 23 24  1  0  0  0  0
 23 41  1  0  0  0  0
 24 44  1  0  0  0  0
 25 13  1  0  0  0  0
 25 45  1  1  0  0  0
 26 46  1  0  0  0  0
 26 25  1  0  0  0  0
 27 47  1  0  0  0  0
 27 25  1  0  0  0  0
 29  6  1  0  0  0  0
 30  7  1  0  0  0  0
 32 12  1  0  0  0  0
 38 22  1  0  0  0  0
 39 22  1  0  0  0  0
 42 24  1  0  0  0  0
 43 24  1  0  0  0  0
 48 27  1  0  0  0  0
 49 27  1  0  0  0  0
M  END
>  <Pose>
1

>  <Score>
-5.96

$$$$
