
 OpenBabel03222202113D

 39 42  0  0  1  0  0  0  0  0999 V2000
   17.8900   74.9180    4.8430 B   0  0  0  0  0  0  0  0  0  0  0  0
   18.3410   75.4030    6.6290 C   0  0  0  0  0  0  0  0  0  0  0  0
   18.4260   76.7290    6.9390 C   0  0  0  0  0  0  0  0  0  0  0  0
   18.7520   77.1100    8.2300 C   0  0  0  0  0  0  0  0  0  0  0  0
   18.9920   76.1500    9.2050 C   0  0  0  0  0  0  0  0  0  0  0  0
   18.9100   74.8050    8.9070 C   0  0  0  0  0  0  0  0  0  0  0  0
   18.5840   74.4730    7.6110 C   0  0  0  0  0  0  0  0  0  0  0  0
   19.3310   76.4190   10.5500 N   0  0  0  0  0  0  0  0  0  0  0  0
   19.1130   75.5130   11.5110 N   0  0  0  0  0  0  0  0  0  0  0  0
   19.5290   76.0610   12.6210 N   0  0  0  0  0  0  0  0  0  0  0  0
   19.9990   77.2760   12.3890 N   0  0  0  0  0  0  0  0  0  0  0  0
   19.8750   77.5150   11.0520 C   0  0  0  0  0  0  0  0  0  0  0  0
   20.3170   78.8140   10.4370 C   0  0  2  0  0  0  0  0  0  0  0  0
   19.3420   79.2780    9.4530 N   0  0  0  0  0  0  0  0  0  0  0  0
   18.7880   78.5730    8.3480 C   0  0  0  0  0  0  0  0  0  0  0  0
   18.2930   79.2470    7.4020 O   0  0  0  0  0  0  0  0  0  0  0  0
   21.5730   78.5040    9.6690 C   0  0  0  0  0  0  0  0  0  0  0  0
   22.3500   79.7600    9.4440 C   0  0  0  0  0  0  0  0  0  0  0  0
   22.7190   80.2350   10.6750 O   0  0  0  0  0  0  0  0  0  0  0  0
   21.6940   80.6580   11.4780 C   0  0  0  0  0  0  0  0  0  0  0  0
   20.4800   79.8330   11.5030 C   0  0  0  0  0  0  0  0  0  0  0  0
   23.6440   79.4270    8.6910 C   0  0  0  0  0  0  0  0  0  0  0  0
   21.6230   80.7740    8.6020 C   0  0  0  0  0  0  0  0  0  0  0  0
   18.2500   77.5250    6.2240 H   0  0  0  0  0  0  0  0  0  0  0  0
   19.1040   74.0870    9.6920 H   0  0  0  0  0  0  0  0  0  0  0  0
   18.5170   73.4270    7.3650 H   0  0  0  0  0  0  0  0  0  0  0  0
   18.9860   80.2760    9.5590 H   0  0  0  0  0  0  0  0  0  0  0  0
   21.2770   78.0810    8.6810 H   0  0  0  0  0  0  0  0  0  0  0  0
   22.2260   77.7990   10.2240 H   0  0  0  0  0  0  0  0  0  0  0  0
   21.4670   81.7230   11.1720 H   0  0  0  0  0  0  0  0  0  0  0  0
   22.1310   80.7790   12.5150 H   0  0  0  0  0  0  0  0  0  0  0  0
   20.3910   79.3480   12.5220 H   0  0  0  0  0  0  0  0  0  0  0  0
   19.5840   80.5220   11.4780 H   0  0  0  0  0  0  0  0  0  0  0  0
   24.0430   78.4440    8.9870 H   0  0  0  0  0  0  0  0  0  0  0  0
   24.3580   80.2500    8.7300 H   0  0  0  0  0  0  0  0  0  0  0  0
   23.3290   79.3240    7.6130 H   0  0  0  0  0  0  0  0  0  0  0  0
   22.4000   81.4100    8.0840 H   0  0  0  0  0  0  0  0  0  0  0  0
   21.0230   81.4910    9.1950 H   0  0  0  0  0  0  0  0  0  0  0  0
   21.0500   80.3010    7.7940 H   0  0  0  0  0  0  0  0  0  0  0  0
  1  2  1  0  0  0  0
  2  3  2  0  0  0  0
  2  7  1  0  0  0  0
  3  4  1  0  0  0  0
  4 15  1  0  0  0  0
  4  5  2  0  0  0  0
  5  8  1  0  0  0  0
  6  5  1  0  0  0  0
  6 25  1  0  0  0  0
  7  6  2  0  0  0  0
  8 12  1  0  0  0  0
  8  9  1  0  0  0  0
  9 10  2  0  0  0  0
 11 10  1  0  0  0  0
 12 11  2  0  0  0  0
 13 12  1  1  0  0  0
 13 21  1  0  0  0  0
 14 27  1  0  0  0  0
 14 13  1  0  0  0  0
 15 14  1  0  0  0  0
 16 15  2  0  0  0  0
 17 29  1  0  0  0  0
 17 13  1  0  0  0  0
 18 17  1  0  0  0  0
 18 19  1  0  0  0  0
 19 20  1  0  0  0  0
 20 21  1  0  0  0  0
 20 31  1  0  0  0  0
 21 32  1  0  0  0  0
 22 35  1  0  0  0  0
 22 34  1  0  0  0  0
 22 18  1  0  0  0  0
 23 38  1  0  0  0  0
 23 18  1  0  0  0  0
 24  3  1  0  0  0  0
 26  7  1  0  0  0  0
 28 17  1  0  0  0  0
 30 20  1  0  0  0  0
 33 21  1  0  0  0  0
 36 22  1  0  0  0  0
 37 23  1  0  0  0  0
 39 23  1  0  0  0  0
M  END
>  <Pose>
1

>  <Score>
-5.47

$$$$
