
 OpenBabel03222202113D

 37 40  0  0  0  0  0  0  0  0999 V2000
   18.6990   84.6040   21.8580 B   0  0  0  0  0  0  0  0  0  0  0  0
   19.1080   82.8810   21.1180 C   0  0  0  0  0  0  0  0  0  0  0  0
   19.5640   82.7680   19.8210 C   0  0  0  0  0  0  0  0  0  0  0  0
   19.8560   81.5280   19.2940 C   0  0  0  0  0  0  0  0  0  0  0  0
   19.7140   80.3560   20.0140 C   0  0  0  0  0  0  0  0  0  0  0  0
   19.2520   80.4880   21.3210 C   0  0  0  0  0  0  0  0  0  0  0  0
   18.9580   81.7260   21.8550 C   0  0  0  0  0  0  0  0  0  0  0  0
   19.9650   79.0240   19.6310 N   0  0  0  0  0  0  0  0  0  0  0  0
   19.5440   77.9750   20.3190 N   0  0  0  0  0  0  0  0  0  0  0  0
   19.9520   76.8870   19.6850 N   0  0  0  0  0  0  0  0  0  0  0  0
   20.6170   77.2500   18.6150 N   0  0  0  0  0  0  0  0  0  0  0  0
   20.6470   78.6040   18.5460 C   0  0  0  0  0  0  0  0  0  0  0  0
   21.3330   79.2800   17.4430 C   0  0  0  0  0  0  0  0  0  0  0  0
   20.8430   80.5630   17.0760 N   0  0  0  0  0  0  0  0  0  0  0  0
   20.3270   81.5890   17.9090 C   0  0  0  0  0  0  0  0  0  0  0  0
   20.2350   82.7560   17.4410 O   0  0  0  0  0  0  0  0  0  0  0  0
   22.8310   79.4560   17.7350 C   0  0  0  0  0  0  0  0  0  0  0  0
   23.5920   79.3520   16.4370 C   0  0  0  0  0  0  0  0  0  0  0  0
   23.6770   77.9500   16.0960 N   0  0  0  0  0  0  0  0  0  0  0  0
   22.3710   77.3570   16.2150 C   0  0  0  0  0  0  0  0  0  0  0  0
   21.2560   78.3740   16.2190 C   0  0  0  0  0  0  0  0  0  0  0  0
   24.6370   77.3300   17.0070 C   0  0  0  0  0  0  0  0  0  0  0  0
   19.7040   83.6370   19.1860 H   0  0  0  0  0  0  0  0  0  0  0  0
   19.1380   79.5760   21.8890 H   0  0  0  0  0  0  0  0  0  0  0  0
   18.6030   81.7970   22.8700 H   0  0  0  0  0  0  0  0  0  0  0  0
   20.8680   80.7760   16.0580 H   0  0  0  0  0  0  0  0  0  0  0  0
   23.0240   80.4920   18.1280 H   0  0  0  0  0  0  0  0  0  0  0  0
   23.1500   78.7580   18.5040 H   0  0  0  0  0  0  0  0  0  0  0  0
   23.0200   79.8780   15.6570 H   0  0  0  0  0  0  0  0  0  0  0  0
   24.5740   79.8210   16.5160 H   0  0  0  0  0  0  0  0  0  0  0  0
   22.3600   76.7020   17.0900 H   0  0  0  0  0  0  0  0  0  0  0  0
   22.2160   76.7180   15.3240 H   0  0  0  0  0  0  0  0  0  0  0  0
   21.2430   78.9220   15.2780 H   0  0  0  0  0  0  0  0  0  0  0  0
   20.3030   77.8080   16.2960 H   0  0  0  0  0  0  0  0  0  0  0  0
   24.0720   76.5760   17.5990 H   0  0  0  0  0  0  0  0  0  0  0  0
   25.4870   76.8680   16.4630 H   0  0  0  0  0  0  0  0  0  0  0  0
   25.0850   78.0850   17.6980 H   0  0  0  0  0  0  0  0  0  0  0  0
  2  7  1  0  0  0  0
  2  1  1  0  0  0  0
  3  2  2  0  0  0  0
  4  3  1  0  0  0  0
  4  5  2  0  0  0  0
  5  6  1  0  0  0  0
  6  7  2  0  0  0  0
  6 24  1  0  0  0  0
  7 25  1  0  0  0  0
  8  5  1  0  0  0  0
  8  9  1  0  0  0  0
 10  9  2  0  0  0  0
 11 10  1  0  0  0  0
 12 11  2  0  0  0  0
 12  8  1  0  0  0  0
 13 17  1  0  0  0  0
 13 12  1  0  0  0  0
 14 13  1  0  0  0  0
 14 15  1  0  0  0  0
 15  4  1  0  0  0  0
 16 15  2  0  0  0  0
 17 27  1  0  0  0  0
 17 28  1  0  0  0  0
 18 30  1  0  0  0  0
 18 17  1  0  0  0  0
 19 20  1  0  0  0  0
 19 18  1  0  0  0  0
 19 22  1  0  0  0  0
 20 21  1  0  0  0  0
 20 31  1  0  0  0  0
 21 34  1  0  0  0  0
 21 13  1  0  0  0  0
 22 35  1  0  0  0  0
 22 37  1  0  0  0  0
 23  3  1  0  0  0  0
 26 14  1  0  0  0  0
 29 18  1  0  0  0  0
 32 20  1  0  0  0  0
 33 21  1  0  0  0  0
 36 22  1  0  0  0  0
M  END
>  <Pose>
1

>  <Score>
-5.69

$$$$
