
 OpenBabel03222202113D

 44 47  0  0  0  0  0  0  0  0999 V2000
   17.6400   74.2720    5.4440 B   0  0  0  0  0  0  0  0  0  0  0  0
   17.7740   75.8390    6.5000 C   0  0  0  0  0  0  0  0  0  0  0  0
   18.7500   75.9750    7.4700 C   0  0  0  0  0  0  0  0  0  0  0  0
   18.8920   77.1040    8.2560 C   0  0  0  0  0  0  0  0  0  0  0  0
   18.0080   78.1430    8.0490 C   0  0  0  0  0  0  0  0  0  0  0  0
   17.0080   78.0640    7.0910 C   0  0  0  0  0  0  0  0  0  0  0  0
   16.9000   76.9230    6.3320 C   0  0  0  0  0  0  0  0  0  0  0  0
   18.1230   79.2440    8.7940 O   0  0  0  0  0  0  0  0  0  0  0  0
   19.0220   79.3900    9.7030 C   0  0  0  0  0  0  0  0  0  0  0  0
   19.1390   80.4360   10.4140 O   0  0  0  0  0  0  0  0  0  0  0  0
   19.9340   78.3890    9.9590 C   0  0  0  0  0  0  0  0  0  0  0  0
   19.8610   77.2300    9.2200 C   0  0  0  0  0  0  0  0  0  0  0  0
   20.9350   78.5390   11.0140 C   0  0  0  0  0  0  0  0  0  0  0  0
   22.0140   79.3950   10.8590 C   0  0  0  0  0  0  0  0  0  0  0  0
   22.9180   79.5690   11.8860 C   0  0  0  0  0  0  0  0  0  0  0  0
   23.8790   80.3720   11.6700 O   0  0  0  0  0  0  0  0  0  0  0  0
   22.7770   78.9350   13.0090 O   0  0  0  0  0  0  0  0  0  0  0  0
   21.8070   78.1310   13.2160 C   0  0  0  0  0  0  0  0  0  0  0  0
   20.8370   77.8950   12.2220 C   0  0  0  0  0  0  0  0  0  0  0  0
   19.8180   77.0210   12.4670 C   0  0  0  0  0  0  0  0  0  0  0  0
   19.7800   76.3940   13.7170 C   0  0  0  0  0  0  0  0  0  0  0  0
   20.7450   76.6500   14.6720 C   0  0  0  0  0  0  0  0  0  0  0  0
   21.7870   77.5230   14.4570 C   0  0  0  0  0  0  0  0  0  0  0  0
   22.6950   77.8140   15.5350 C   0  0  0  0  0  0  0  0  0  0  0  0
   23.7920   77.0060   15.8830 N   0  0  0  0  0  4  0  0  0  0  0  0
   24.6070   76.4950   14.8160 C   0  0  0  0  0  0  0  0  0  0  0  0
   24.5970   77.5930   16.9850 C   0  0  0  0  0  0  0  0  0  0  0  0
   20.6110   75.9690   15.9010 O   0  0  0  0  0  0  0  0  0  0  0  0
   19.4750   75.1660    7.6450 H   0  0  0  0  0  0  0  0  0  0  0  0
   16.3460   78.9100    6.9910 H   0  0  0  0  0  0  0  0  0  0  0  0
   16.1430   76.7910    5.5670 H   0  0  0  0  0  0  0  0  0  0  0  0
   20.5490   76.3750    9.3880 H   0  0  0  0  0  0  0  0  0  0  0  0
   22.1230   79.9080    9.9060 H   0  0  0  0  0  0  0  0  0  0  0  0
   19.0760   76.7960   11.7120 H   0  0  0  0  0  0  0  0  0  0  0  0
   18.9560   75.7150   13.8830 H   0  0  0  0  0  0  0  0  0  0  0  0
   22.0410   77.8590   16.4880 H   0  0  0  0  0  0  0  0  0  0  0  0
   23.0400   78.8860   15.4820 H   0  0  0  0  0  0  0  0  0  0  0  0
   23.3970   76.1270   16.3280 H   0  0  0  0  0  0  0  0  0  0  0  0
   25.5480   77.0800   14.6430 H   0  0  0  0  0  0  0  0  0  0  0  0
   24.0630   76.3220   13.8600 H   0  0  0  0  0  0  0  0  0  0  0  0
   25.0300   75.4590   15.0510 H   0  0  0  0  0  0  0  0  0  0  0  0
   24.1970   78.6010   17.2720 H   0  0  0  0  0  0  0  0  0  0  0  0
   24.4810   77.0210   17.9430 H   0  0  0  0  0  0  0  0  0  0  0  0
   25.6620   77.5660   16.7440 H   0  0  0  0  0  0  0  0  0  0  0  0
  1  2  1  0  0  0  0
  2  3  1  0  0  0  0
  3 29  1  0  0  0  0
  3  4  2  0  0  0  0
  4 12  1  0  0  0  0
  5  4  1  0  0  0  0
  5  8  1  0  0  0  0
  6  5  2  0  0  0  0
  7  2  2  0  0  0  0
  7  6  1  0  0  0  0
  8  9  1  0  0  0  0
  9 11  1  0  0  0  0
  9 10  2  0  0  0  0
 11 13  1  0  0  0  0
 12 32  1  0  0  0  0
 12 11  2  0  0  0  0
 13 19  1  0  0  0  0
 14 13  2  0  0  0  0
 14 15  1  0  0  0  0
 15 17  1  0  0  0  0
 16 15  2  0  0  0  0
 17 18  1  0  0  0  0
 18 23  1  0  0  0  0
 19 20  1  0  0  0  0
 19 18  2  0  0  0  0
 20 21  2  0  0  0  0
 21 35  1  0  0  0  0
 21 22  1  0  0  0  0
 22 28  1  0  0  0  0
 23 22  2  0  0  0  0
 23 24  1  0  0  0  0
 24 25  1  0  0  0  0
 24 36  1  0  0  0  0
 25 38  1  0  0  0  0
 25 27  1  0  0  0  0
 26 41  1  0  0  0  0
 26 25  1  0  0  0  0
 27 42  1  0  0  0  0
 27 43  1  0  0  0  0
 30  6  1  0  0  0  0
 31  7  1  0  0  0  0
 33 14  1  0  0  0  0
 34 20  1  0  0  0  0
 37 24  1  0  0  0  0
 39 26  1  0  0  0  0
 40 26  1  0  0  0  0
 44 27  1  0  0  0  0
M  END
>  <Pose>
1

>  <Score>
-5.99

$$$$
