
 OpenBabel03222202113D

 50 53  0  0  0  0  0  0  0  0999 V2000
   19.7710   77.9230   19.8500 B   0  0  0  0  0  0  0  0  0  0  0  0
   20.3460   78.7490   18.2170 C   0  0  0  0  0  0  0  0  0  0  0  0
   20.9640   78.0350   17.2220 C   0  0  0  0  0  0  0  0  0  0  0  0
   21.3800   78.6440   16.0360 C   0  0  0  0  0  0  0  0  0  0  0  0
   21.1710   79.9830   15.8500 C   0  0  0  0  0  0  0  0  0  0  0  0
   21.6650   80.3300   14.6210 N   0  0  0  0  0  0  0  0  0  0  0  0
   22.1890   79.2730   13.9960 C   0  0  0  0  0  0  0  0  0  0  0  0
   22.0030   78.2010   14.9040 C   0  0  0  0  0  0  0  0  0  0  0  0
   22.8320   79.1280   12.7040 C   0  0  0  0  0  0  0  0  0  0  0  0
   24.0690   78.7630   12.6730 O   0  0  0  0  0  0  0  0  0  0  0  0
   22.2350   79.3500   11.4630 N   0  0  0  0  0  0  0  0  0  0  0  0
   22.8220   79.0940   10.1750 C   0  0  0  0  0  0  0  0  0  0  0  0
   21.8520   79.4020    9.0270 C   0  0  0  0  0  0  0  0  0  0  0  0
   20.5700   78.7830    9.3250 N   0  0  0  0  0  0  0  0  0  0  0  0
   20.0150   78.8740   10.6760 C   0  0  0  0  0  0  0  0  0  0  0  0
   20.8620   79.9180   11.4100 C   0  0  0  0  0  0  0  0  0  0  0  0
   19.8450   78.0870    8.3330 C   0  0  0  0  0  0  0  0  0  0  0  0
   20.4890   77.2940    7.6040 O   0  0  0  0  0  0  0  0  0  0  0  0
   18.4140   78.3110    8.2030 C   0  0  0  0  0  0  0  0  0  0  0  0
   17.9810   78.7580    6.8980 N   0  0  0  0  0  0  0  0  0  0  0  0
   16.6080   79.2580    6.9990 C   0  0  0  0  0  0  0  0  0  0  0  0
   15.6250   78.2130    6.6000 C   0  0  0  0  0  0  0  0  0  0  0  0
   16.0610   76.9500    6.9930 O   0  0  0  0  0  0  0  0  0  0  0  0
   17.1670   76.5400    6.2450 C   0  0  0  0  0  0  0  0  0  0  0  0
   18.0510   77.7140    5.8910 C   0  0  0  0  0  0  0  0  0  0  0  0
   20.5490   80.7100   16.8470 C   0  0  0  0  0  0  0  0  0  0  0  0
   20.1390   80.0970   18.0220 C   0  0  0  0  0  0  0  0  0  0  0  0
   21.1410   76.9750   17.3420 H   0  0  0  0  0  0  0  0  0  0  0  0
   21.6040   81.3010   14.2820 H   0  0  0  0  0  0  0  0  0  0  0  0
   22.3090   77.1920   14.7230 H   0  0  0  0  0  0  0  0  0  0  0  0
   23.0670   77.9980   10.1450 H   0  0  0  0  0  0  0  0  0  0  0  0
   23.6870   79.7520   10.0020 H   0  0  0  0  0  0  0  0  0  0  0  0
   21.7060   80.4910    8.9150 H   0  0  0  0  0  0  0  0  0  0  0  0
   22.2790   78.9910    8.1140 H   0  0  0  0  0  0  0  0  0  0  0  0
   18.9620   79.2330   10.6540 H   0  0  0  0  0  0  0  0  0  0  0  0
   20.0870   77.9350   11.2370 H   0  0  0  0  0  0  0  0  0  0  0  0
   20.8720   80.8760   10.8740 H   0  0  0  0  0  0  0  0  0  0  0  0
   20.4830   80.0690   12.4200 H   0  0  0  0  0  0  0  0  0  0  0  0
   18.1390   79.1390    8.9140 H   0  0  0  0  0  0  0  0  0  0  0  0
   17.7930   77.4410    8.5040 H   0  0  0  0  0  0  0  0  0  0  0  0
   16.4100   79.5440    8.0600 H   0  0  0  0  0  0  0  0  0  0  0  0
   16.5330   80.1710    6.3760 H   0  0  0  0  0  0  0  0  0  0  0  0
   14.6760   78.4130    7.1490 H   0  0  0  0  0  0  0  0  0  0  0  0
   15.4220   78.1950    5.5010 H   0  0  0  0  0  0  0  0  0  0  0  0
   17.6730   75.7350    6.7820 H   0  0  0  0  0  0  0  0  0  0  0  0
   16.7770   76.1190    5.2970 H   0  0  0  0  0  0  0  0  0  0  0  0
   19.0620   77.3770    5.7190 H   0  0  0  0  0  0  0  0  0  0  0  0
   17.6510   78.1600    4.9560 H   0  0  0  0  0  0  0  0  0  0  0  0
   20.3830   81.7800   16.6970 H   0  0  0  0  0  0  0  0  0  0  0  0
   19.6440   80.6700   18.8150 H   0  0  0  0  0  0  0  0  0  0  0  0
  2  1  1  0  0  0  0
  3 28  1  0  0  0  0
  3  2  2  0  0  0  0
  4  3  1  0  0  0  0
  5  4  2  0  0  0  0
  5 26  1  0  0  0  0
  6  5  1  0  0  0  0
  7  6  1  0  0  0  0
  7  8  2  0  0  0  0
  8  4  1  0  0  0  0
  9  7  1  0  0  0  0
 10  9  2  0  0  0  0
 11  9  1  0  0  0  0
 12 11  1  0  0  0  0
 13 14  1  0  0  0  0
 13 12  1  0  0  0  0
 14 15  1  0  0  0  0
 15 36  1  0  0  0  0
 15 16  1  0  0  0  0
 16 11  1  0  0  0  0
 16 38  1  0  0  0  0
 17 14  1  0  0  0  0
 18 17  2  0  0  0  0
 19 17  1  0  0  0  0
 19 40  1  0  0  0  0
 19 39  1  0  0  0  0
 20 21  1  0  0  0  0
 20 19  1  0  0  0  0
 21 41  1  0  0  0  0
 22 23  1  0  0  0  0
 22 21  1  0  0  0  0
 22 43  1  0  0  0  0
 24 45  1  0  0  0  0
 24 23  1  0  0  0  0
 25 24  1  0  0  0  0
 25 20  1  0  0  0  0
 26 27  2  0  0  0  0
 27  2  1  0  0  0  0
 27 50  1  0  0  0  0
 29  6  1  0  0  0  0
 30  8  1  0  0  0  0
 31 12  1  0  0  0  0
 32 12  1  0  0  0  0
 33 13  1  0  0  0  0
 34 13  1  0  0  0  0
 35 15  1  0  0  0  0
 37 16  1  0  0  0  0
 42 21  1  0  0  0  0
 44 22  1  0  0  0  0
 46 24  1  0  0  0  0
 47 25  1  0  0  0  0
 48 25  1  0  0  0  0
 49 26  1  0  0  0  0
M  END
>  <Pose>
1

>  <Score>
-6.41

$$$$
