
 OpenBabel03222202113D

 41 44  0  0  0  0  0  0  0  0999 V2000
   19.2780   83.6620   20.8890 B   0  0  0  0  0  0  0  0  0  0  0  0
   19.4400   81.9670   20.0410 C   0  0  0  0  0  0  0  0  0  0  0  0
   20.1220   81.8210   18.8510 C   0  0  0  0  0  0  0  0  0  0  0  0
   20.2490   80.5980   18.2230 C   0  0  0  0  0  0  0  0  0  0  0  0
   19.6660   79.4970   18.8210 C   0  0  0  0  0  0  0  0  0  0  0  0
   19.9400   78.4600   18.0090 N   0  0  0  0  0  0  0  0  0  0  0  0
   20.6650   78.8610   16.9350 C   0  0  0  0  0  0  0  0  0  0  0  0
   20.8720   80.2180   17.0540 C   0  0  0  0  0  0  0  0  0  0  0  0
   21.5750   80.8470   16.0920 N   0  0  0  0  0  0  0  0  0  0  0  0
   22.0780   80.1900   15.0290 C   0  0  0  0  0  0  0  0  0  0  0  0
   21.8930   78.8710   14.8870 N   0  0  0  0  0  0  0  0  0  0  0  0
   21.1950   78.2260   15.8340 C   0  0  0  0  0  0  0  0  0  0  0  0
   21.0120   76.9880   15.7180 O   0  0  0  0  0  0  0  0  0  0  0  0
   22.4380   78.1460   13.7260 C   0  0  0  0  0  0  0  0  0  0  0  0
   22.8710   79.0980   12.6790 C   0  0  0  0  0  0  0  0  0  0  0  0
   22.1580   79.0700   11.4540 N   0  0  0  0  0  0  0  0  0  0  0  0
   22.7300   79.8300   10.3970 C   0  0  0  0  0  0  0  0  0  0  0  0
   22.1320   81.2000   10.2510 C   0  0  0  0  0  0  0  0  0  0  0  0
   20.7090   81.2160   10.5120 N   0  0  0  0  0  0  0  0  0  0  0  0
   20.1470   79.8770   10.4490 C   0  0  0  0  0  0  0  0  0  0  0  0
   20.7470   79.1080   11.6010 C   0  0  0  0  0  0  0  0  0  0  0  0
   18.9850   79.6570   20.0130 C   0  0  0  0  0  0  0  0  0  0  0  0
   18.8530   80.8760   20.6480 C   0  0  0  0  0  0  0  0  0  0  0  0
   20.5820   82.6780   18.3730 H   0  0  0  0  0  0  0  0  0  0  0  0
   19.6490   77.4770   18.1600 H   0  0  0  0  0  0  0  0  0  0  0  0
   22.6440   80.7150   14.2610 H   0  0  0  0  0  0  0  0  0  0  0  0
   21.5950   77.5100   13.3740 H   0  0  0  0  0  0  0  0  0  0  0  0
   23.2020   77.4830   14.1200 H   0  0  0  0  0  0  0  0  0  0  0  0
   22.8620   80.1310   13.0800 H   0  0  0  0  0  0  0  0  0  0  0  0
   23.9530   78.8810   12.4400 H   0  0  0  0  0  0  0  0  0  0  0  0
   23.8290   79.9100   10.5030 H   0  0  0  0  0  0  0  0  0  0  0  0
   22.5360   79.2950    9.4420 H   0  0  0  0  0  0  0  0  0  0  0  0
   22.3000   81.6340    9.2460 H   0  0  0  0  0  0  0  0  0  0  0  0
   22.6050   81.8850   10.9830 H   0  0  0  0  0  0  0  0  0  0  0  0
   20.4770   81.6760   11.4220 H   0  0  0  0  0  0  0  0  0  0  0  0
   20.4640   79.4210    9.5020 H   0  0  0  0  0  0  0  0  0  0  0  0
   19.0490   80.0020   10.5450 H   0  0  0  0  0  0  0  0  0  0  0  0
   20.3850   78.0430   11.5420 H   0  0  0  0  0  0  0  0  0  0  0  0
   20.4010   79.5420   12.5600 H   0  0  0  0  0  0  0  0  0  0  0  0
   18.5270   78.7880   20.4830 H   0  0  0  0  0  0  0  0  0  0  0  0
   18.3150   80.9980   21.5910 H   0  0  0  0  0  0  0  0  0  0  0  0
  2 23  1  0  0  0  0
  2  1  1  0  0  0  0
  3  2  2  0  0  0  0
  4  5  2  0  0  0  0
  4  3  1  0  0  0  0
  5 22  1  0  0  0  0
  6 25  1  0  0  0  0
  6  5  1  0  0  0  0
  7  8  2  0  0  0  0
  7  6  1  0  0  0  0
  8  4  1  0  0  0  0
  9  8  1  0  0  0  0
 10  9  2  0  0  0  0
 11 10  1  0  0  0  0
 11 12  1  0  0  0  0
 12  7  1  0  0  0  0
 13 12  2  0  0  0  0
 14 28  1  0  0  0  0
 14 11  1  0  0  0  0
 15 29  1  0  0  0  0
 15 14  1  0  0  0  0
 16 21  1  0  0  0  0
 16 15  1  0  0  0  0
 17 31  1  0  0  0  0
 17 16  1  0  0  0  0
 18 17  1  0  0  0  0
 18 19  1  0  0  0  0
 18 34  1  0  0  0  0
 19 35  1  0  0  0  0
 20 19  1  0  0  0  0
 20 37  1  0  0  0  0
 20 21  1  0  0  0  0
 21 39  1  0  0  0  0
 22 40  1  0  0  0  0
 22 23  2  0  0  0  0
 23 41  1  0  0  0  0
 24  3  1  0  0  0  0
 26 10  1  0  0  0  0
 27 14  1  0  0  0  0
 30 15  1  0  0  0  0
 32 17  1  0  0  0  0
 33 18  1  0  0  0  0
 36 20  1  0  0  0  0
 38 21  1  0  0  0  0
M  END
>  <Pose>
1

>  <Score>
-5.70

$$$$
