
 OpenBabel03222202113D

 37 40  0  0  0  0  0  0  0  0999 V2000
   19.8620   80.6200   19.4810 B   0  0  0  0  0  0  0  0  0  0  0  0
   20.5390   79.7560   17.9250 C   0  0  0  0  0  0  0  0  0  0  0  0
   21.6190   80.3110   17.2710 C   0  0  0  0  0  0  0  0  0  0  0  0
   22.1400   79.7000   16.1230 C   0  0  0  0  0  0  0  0  0  0  0  0
   21.5540   78.5580   15.6830 C   0  0  0  0  0  0  0  0  0  0  0  0
   20.4750   77.9660   16.3020 C   0  0  0  0  0  0  0  0  0  0  0  0
   19.9820   78.5830   17.4230 C   0  0  0  0  0  0  0  0  0  0  0  0
   19.9820   76.8140   15.7490 C   0  0  0  0  0  0  0  0  0  0  0  0
   19.0090   76.2710   16.2980 O   0  0  0  0  0  0  0  0  0  0  0  0
   20.5240   76.2370   14.6110 C   0  0  0  0  0  0  0  0  0  0  0  0
   21.6030   76.8790   14.0410 C   0  0  0  0  0  0  0  0  0  0  0  0
   22.1040   78.0340   14.5860 N   0  0  0  0  0  0  0  0  0  0  0  0
   23.2010   78.8930   14.2020 C   0  0  0  0  0  0  0  0  0  0  0  0
   23.2500   80.0130   15.2060 C   0  0  0  0  0  0  0  0  0  0  0  0
   19.9880   75.0090   14.0360 C   0  0  0  0  0  0  0  0  0  0  0  0
   20.3310   73.9070   14.5210 O   0  0  0  0  0  0  0  0  0  0  0  0
   19.0780   75.0530   12.9280 N   0  0  0  0  0  0  0  0  0  0  0  0
   17.9690   74.1310   12.8110 C   0  0  0  0  0  0  0  0  0  0  0  0
   18.1030   73.4780   11.4300 C   0  0  0  0  0  0  0  0  0  0  0  0
   18.1980   74.4580   10.4710 O   0  0  0  0  0  0  0  0  0  0  0  0
   19.3340   75.2350   10.5670 C   0  0  0  0  0  0  0  0  0  0  0  0
   19.2350   76.0320   11.8710 C   0  0  0  0  0  0  0  0  0  0  0  0
   22.0990   81.2190   17.6060 H   0  0  0  0  0  0  0  0  0  0  0  0
   19.1440   78.1410   17.9200 H   0  0  0  0  0  0  0  0  0  0  0  0
   22.0910   76.5080   13.1560 H   0  0  0  0  0  0  0  0  0  0  0  0
   23.0000   79.3230   13.1790 H   0  0  0  0  0  0  0  0  0  0  0  0
   24.1630   78.3400   14.1520 H   0  0  0  0  0  0  0  0  0  0  0  0
   24.2370   80.0370   15.7250 H   0  0  0  0  0  0  0  0  0  0  0  0
   23.0470   81.0100   14.7210 H   0  0  0  0  0  0  0  0  0  0  0  0
   17.0180   74.7340   12.7410 H   0  0  0  0  0  0  0  0  0  0  0  0
   17.9360   73.3790   13.6080 H   0  0  0  0  0  0  0  0  0  0  0  0
   17.2440   72.8370   11.2100 H   0  0  0  0  0  0  0  0  0  0  0  0
   19.0060   72.8560   11.4020 H   0  0  0  0  0  0  0  0  0  0  0  0
   19.3030   75.9790    9.7460 H   0  0  0  0  0  0  0  0  0  0  0  0
   20.2800   74.6370   10.5660 H   0  0  0  0  0  0  0  0  0  0  0  0
   18.2430   76.5650   11.7980 H   0  0  0  0  0  0  0  0  0  0  0  0
   20.0770   76.7070   12.0110 H   0  0  0  0  0  0  0  0  0  0  0  0
  2  1  1  0  0  0  0
  3 23  1  0  0  0  0
  3  2  2  0  0  0  0
  4  3  1  0  0  0  0
  5  4  2  0  0  0  0
  5  6  1  0  0  0  0
  6  7  2  0  0  0  0
  7 24  1  0  0  0  0
  7  2  1  0  0  0  0
  8  9  2  0  0  0  0
  8  6  1  0  0  0  0
 10  8  1  0  0  0  0
 11 12  1  0  0  0  0
 11 10  2  0  0  0  0
 12  5  1  0  0  0  0
 13 12  1  0  0  0  0
 13 14  1  0  0  0  0
 14 28  1  0  0  0  0
 14  4  1  0  0  0  0
 15 16  2  0  0  0  0
 15 10  1  0  0  0  0
 17 15  1  0  0  0  0
 18 17  1  0  0  0  0
 18 31  1  0  0  0  0
 19 18  1  0  0  0  0
 20 21  1  0  0  0  0
 20 19  1  0  0  0  0
 21 22  1  0  0  0  0
 22 37  1  0  0  0  0
 22 17  1  0  0  0  0
 25 11  1  0  0  0  0
 26 13  1  0  0  0  0
 27 13  1  0  0  0  0
 29 14  1  0  0  0  0
 30 18  1  0  0  0  0
 32 19  1  0  0  0  0
 33 19  1  0  0  0  0
 34 21  1  0  0  0  0
 35 21  1  0  0  0  0
 36 22  1  0  0  0  0
M  END
>  <Pose>
1

>  <Score>
-5.74

$$$$
