
 OpenBabel03222202113D

 58 61  0  0  0  0  0  0  0  0999 V2000
   18.3580   74.6850    7.1200 B   0  0  0  0  0  0  0  0  0  0  0  0
   18.7730   75.0550    8.9610 C   0  0  0  0  0  0  0  0  0  0  0  0
   18.4720   74.2790   10.0470 C   0  0  0  0  0  0  0  0  0  0  0  0
   18.9440   74.9120   11.1260 N   0  0  0  0  0  0  0  0  0  0  0  0
   19.5130   76.0270   10.7520 N   0  0  0  0  0  0  0  0  0  0  0  0
   19.4510   76.1980    9.3990 C   0  0  0  0  0  0  0  0  0  0  0  0
   19.9550   77.2830    8.5960 C   0  0  0  0  0  0  0  0  0  0  0  0
   20.3000   76.9740    7.3990 O   0  0  0  0  0  0  0  0  0  0  0  0
   20.0990   78.5900    8.9810 N   0  0  0  0  0  0  0  0  0  0  0  0
   19.3330   79.2560    9.9880 C   0  0  0  0  0  0  0  0  0  0  0  0
   20.2020   79.4810   11.1820 C   0  0  0  0  0  0  0  0  0  0  0  0
   21.6070   79.5770   10.8100 N   0  0  0  0  0  0  0  0  0  0  0  0
   22.0500   79.9160    9.4980 C   0  0  0  0  0  0  0  0  0  0  0  0
   21.1210   79.4680    8.3740 C   0  0  0  0  0  0  0  0  0  0  0  0
   22.5070   79.2360   11.8750 C   0  0  0  0  0  0  0  0  0  0  0  0
   23.7320   78.9560   11.5380 O   0  0  0  0  0  0  0  0  0  0  0  0
   22.1580   79.1850   13.2520 C   0  0  0  0  0  0  0  0  0  0  0  0
   22.4660   80.1990   14.1500 N   0  0  0  0  0  0  0  0  0  0  0  0
   22.0860   79.8620   15.3390 N   0  0  0  0  0  0  0  0  0  0  0  0
   21.5210   78.6580   15.3430 C   0  0  0  0  0  0  0  0  0  0  0  0
   21.5700   78.2280   14.0020 C   0  0  0  0  0  0  0  0  0  0  0  0
   20.9410   77.9110   16.4450 C   0  0  0  0  0  0  0  0  0  0  0  0
   20.4580   76.7580   16.1580 O   0  0  0  0  0  0  0  0  0  0  0  0
   20.8680   78.3410   17.7610 N   0  0  0  0  0  0  0  0  0  0  0  0
   20.7910   77.3240   18.8150 C   0  0  0  0  0  0  0  0  0  0  0  0
   19.5790   77.6850   19.6470 C   0  0  0  0  0  0  0  0  0  0  0  0
   19.9040   78.9050   20.2670 O   0  0  0  0  0  0  0  0  0  0  0  0
   19.8910   79.9150   19.3460 C   0  0  0  0  0  0  0  0  0  0  0  0
   20.8400   79.7090   18.1720 C   0  0  0  0  0  0  0  0  0  0  0  0
   23.1110   81.4470   13.8170 C   0  0  0  0  0  0  0  0  0  0  0  0
   18.7890   74.3630   12.4680 C   0  0  0  0  0  0  0  0  0  0  0  0
   17.3490   74.1500   12.8520 C   0  0  0  0  0  0  0  0  0  0  0  0
   17.9420   73.3280   10.0130 H   0  0  0  0  0  0  0  0  0  0  0  0
   19.0710   80.2890    9.6010 H   0  0  0  0  0  0  0  0  0  0  0  0
   18.4220   78.7360   10.3250 H   0  0  0  0  0  0  0  0  0  0  0  0
   20.1300   78.6270   11.9120 H   0  0  0  0  0  0  0  0  0  0  0  0
   19.8590   80.4270   11.6670 H   0  0  0  0  0  0  0  0  0  0  0  0
   22.9580   79.2480    9.3200 H   0  0  0  0  0  0  0  0  0  0  0  0
   22.3600   80.9430    9.3280 H   0  0  0  0  0  0  0  0  0  0  0  0
   21.6140   78.9660    7.5520 H   0  0  0  0  0  0  0  0  0  0  0  0
   20.5860   80.3590    8.0200 H   0  0  0  0  0  0  0  0  0  0  0  0
   21.2080   77.2660   13.7050 H   0  0  0  0  0  0  0  0  0  0  0  0
   21.7280   77.4320   19.4010 H   0  0  0  0  0  0  0  0  0  0  0  0
   20.6920   76.3110   18.4190 H   0  0  0  0  0  0  0  0  0  0  0  0
   18.7210   77.8480   18.9800 H   0  0  0  0  0  0  0  0  0  0  0  0
   19.3990   76.9090   20.4240 H   0  0  0  0  0  0  0  0  0  0  0  0
   18.8650   80.0170   18.9300 H   0  0  0  0  0  0  0  0  0  0  0  0
   20.1140   80.8730   19.8470 H   0  0  0  0  0  0  0  0  0  0  0  0
   20.4420   80.3340   17.3500 H   0  0  0  0  0  0  0  0  0  0  0  0
   21.8440   80.0380   18.4710 H   0  0  0  0  0  0  0  0  0  0  0  0
   24.1830   81.3330   13.6520 H   0  0  0  0  0  0  0  0  0  0  0  0
   22.6090   81.9230   12.9420 H   0  0  0  0  0  0  0  0  0  0  0  0
   22.9750   82.1580   14.6550 H   0  0  0  0  0  0  0  0  0  0  0  0
   19.3380   73.3990   12.5710 H   0  0  0  0  0  0  0  0  0  0  0  0
   19.2430   75.0530   13.2170 H   0  0  0  0  0  0  0  0  0  0  0  0
   16.7620   73.7900   11.9790 H   0  0  0  0  0  0  0  0  0  0  0  0
   17.3180   73.3430   13.6140 H   0  0  0  0  0  0  0  0  0  0  0  0
   16.9430   75.0700   13.3100 H   0  0  0  0  0  0  0  0  0  0  0  0
  1  2  1  0  0  0  0
  2  6  1  0  0  0  0
  2  3  2  0  0  0  0
  3  4  1  0  0  0  0
  4 31  1  0  0  0  0
  5  4  1  0  0  0  0
  6  5  2  0  0  0  0
  7  9  1  0  0  0  0
  7  6  1  0  0  0  0
  8  7  2  0  0  0  0
  9 10  1  0  0  0  0
 10 35  1  0  0  0  0
 10 11  1  0  0  0  0
 11 37  1  0  0  0  0
 11 36  1  0  0  0  0
 12 11  1  0  0  0  0
 12 15  1  0  0  0  0
 13 12  1  0  0  0  0
 14  9  1  0  0  0  0
 14 13  1  0  0  0  0
 15 17  1  0  0  0  0
 16 15  2  0  0  0  0
 17 21  2  0  0  0  0
 17 18  1  0  0  0  0
 18 19  1  0  0  0  0
 19 20  2  0  0  0  0
 20 22  1  0  0  0  0
 21 20  1  0  0  0  0
 22 24  1  0  0  0  0
 23 22  2  0  0  0  0
 24 29  1  0  0  0  0
 24 25  1  0  0  0  0
 25 43  1  0  0  0  0
 25 26  1  0  0  0  0
 26 27  1  0  0  0  0
 26 46  1  0  0  0  0
 28 48  1  0  0  0  0
 28 27  1  0  0  0  0
 29 50  1  0  0  0  0
 29 28  1  0  0  0  0
 30 18  1  0  0  0  0
 30 53  1  0  0  0  0
 31 54  1  0  0  0  0
 31 32  1  0  0  0  0
 31 55  1  0  0  0  0
 32 58  1  0  0  0  0
 32 57  1  0  0  0  0
 33  3  1  0  0  0  0
 34 10  1  0  0  0  0
 38 13  1  0  0  0  0
 39 13  1  0  0  0  0
 40 14  1  0  0  0  0
 41 14  1  0  0  0  0
 42 21  1  0  0  0  0
 44 25  1  0  0  0  0
 45 26  1  0  0  0  0
 47 28  1  0  0  0  0
 49 29  1  0  0  0  0
 51 30  1  0  0  0  0
 52 30  1  0  0  0  0
 56 32  1  0  0  0  0
M  END
>  <Pose>
1

>  <Score>
-7.34

$$$$
