
 OpenBabel03222202113D

 38 41  0  0  0  0  0  0  0  0999 V2000
   17.6370   71.6000   12.4160 B   0  0  0  0  0  0  0  0  0  0  0  0
   18.6370   73.1210   13.0070 C   0  0  0  0  0  0  0  0  0  0  0  0
   19.8360   72.9570   13.6630 C   0  0  0  0  0  0  0  0  0  0  0  0
   20.5130   74.0240   14.0640 N   0  0  0  0  0  0  0  0  0  0  0  0
   20.1200   75.3030   13.8800 C   0  0  0  0  0  0  0  0  0  0  0  0
   18.9300   75.4590   13.2300 N   0  0  0  0  0  0  0  0  0  0  0  0
   18.2020   74.4120   12.8010 C   0  0  0  0  0  0  0  0  0  0  0  0
   20.8510   76.4150   14.3130 N   0  0  0  0  0  0  0  0  0  0  0  0
   21.3210   76.9190   15.5710 C   0  0  0  0  0  0  0  0  0  0  0  0
   22.5360   77.3880   14.7950 C   0  0  0  0  0  0  0  0  0  0  0  0
   21.4700   77.5660   13.7200 C   0  0  0  0  0  0  0  0  0  0  0  0
   23.1670   78.6560   15.2780 C   0  0  0  0  0  0  0  0  0  0  0  0
   22.2700   79.2670   16.2220 N   0  0  0  0  0  0  0  0  0  0  0  0
   21.7240   78.5160   17.2640 N   0  0  0  0  0  0  0  0  0  0  0  0
   20.8340   79.0750   18.2200 C   0  0  0  0  0  0  0  0  0  0  0  0
   20.3470   78.3200   19.1860 C   0  0  0  0  0  0  0  0  0  0  0  0
   20.1550   77.0780   19.9600 C   0  0  0  0  0  0  0  0  0  0  0  0
   19.4500   78.2700   20.4060 C   0  0  0  0  0  0  0  0  0  0  0  0
   20.4590   80.4730   18.1400 C   0  0  0  0  0  0  0  0  0  0  0  0
   20.9640   81.2050   17.1600 C   0  0  0  0  0  0  0  0  0  0  0  0
   21.8910   80.6330   16.1610 C   0  0  0  0  0  0  0  0  0  0  0  0
   22.3570   81.3520   15.2370 O   0  0  0  0  0  0  0  0  0  0  0  0
   20.1650   71.9340   13.8170 H   0  0  0  0  0  0  0  0  0  0  0  0
   17.2570   74.5240   12.2830 H   0  0  0  0  0  0  0  0  0  0  0  0
   20.7780   77.8340   15.9420 H   0  0  0  0  0  0  0  0  0  0  0  0
   21.5290   76.1740   16.3570 H   0  0  0  0  0  0  0  0  0  0  0  0
   23.2070   76.5500   14.5850 H   0  0  0  0  0  0  0  0  0  0  0  0
   20.9300   78.5260   13.8630 H   0  0  0  0  0  0  0  0  0  0  0  0
   21.8330   77.4500   12.6840 H   0  0  0  0  0  0  0  0  0  0  0  0
   23.3420   79.3480   14.4230 H   0  0  0  0  0  0  0  0  0  0  0  0
   24.1220   78.4850   15.7730 H   0  0  0  0  0  0  0  0  0  0  0  0
   22.0040   77.4940   17.3150 H   0  0  0  0  0  0  0  0  0  0  0  0
   19.5350   76.2650   19.5100 H   0  0  0  0  0  0  0  0  0  0  0  0
   20.9720   76.6850   20.5850 H   0  0  0  0  0  0  0  0  0  0  0  0
   18.3510   78.3480   20.2080 H   0  0  0  0  0  0  0  0  0  0  0  0
   19.8160   78.8710   21.2700 H   0  0  0  0  0  0  0  0  0  0  0  0
   19.7660   80.9260   18.8760 H   0  0  0  0  0  0  0  0  0  0  0  0
   20.6750   82.2430   17.1130 H   0  0  0  0  0  0  0  0  0  0  0  0
  1  2  1  0  0  0  0
  2  3  2  0  0  0  0
  3 23  1  0  0  0  0
  3  4  1  0  0  0  0
  5  4  2  0  0  0  0
  5  8  1  0  0  0  0
  6  5  1  0  0  0  0
  7  2  1  0  0  0  0
  7  6  2  0  0  0  0
  8  9  1  0  0  0  0
  9 25  1  0  0  0  0
  9 26  1  0  0  0  0
 10 12  1  0  0  0  0
 10  9  1  0  0  0  0
 11 28  1  0  0  0  0
 11  8  1  0  0  0  0
 11 10  1  0  0  0  0
 12 31  1  0  0  0  0
 12 13  1  0  0  0  0
 13 14  1  0  0  0  0
 14 32  1  0  0  0  0
 14 15  1  0  0  0  0
 15 16  2  0  0  0  0
 16 17  1  0  0  0  0
 16 18  1  0  0  0  0
 17 18  1  0  0  0  0
 17 34  1  0  0  0  0
 18 36  1  0  0  0  0
 19 15  1  0  0  0  0
 19 37  1  0  0  0  0
 20 19  2  0  0  0  0
 21 13  1  0  0  0  0
 21 20  1  0  0  0  0
 22 21  2  0  0  0  0
 24  7  1  0  0  0  0
 27 10  1  0  0  0  0
 29 11  1  0  0  0  0
 30 12  1  0  0  0  0
 33 17  1  0  0  0  0
 35 18  1  0  0  0  0
 38 20  1  0  0  0  0
M  END
>  <Pose>
1

>  <Score>
-5.89

$$$$
