
 OpenBabel03222202113D

 43 46  0  0  0  0  0  0  0  0999 V2000
   16.1630   70.5610   11.6740 B   0  0  0  0  0  0  0  0  0  0  0  0
   17.6760   71.5370   12.3110 C   0  0  0  0  0  0  0  0  0  0  0  0
   18.7820   70.8840   12.7570 C   0  0  0  0  0  0  0  0  0  0  0  0
   19.8450   71.5510   13.2030 N   0  0  0  0  0  0  0  0  0  0  0  0
   19.8300   72.8920   13.2160 C   0  0  0  0  0  0  0  0  0  0  0  0
   18.7270   73.6120   12.7720 C   0  0  0  0  0  0  0  0  0  0  0  0
   17.6250   72.9300   12.3080 C   0  0  0  0  0  0  0  0  0  0  0  0
   18.8000   75.0530   12.8150 C   0  0  0  0  0  0  0  0  0  0  0  0
   18.8580   75.7190   11.7680 O   0  0  0  0  0  0  0  0  0  0  0  0
   18.8090   75.7700   14.1070 N   0  0  0  0  0  0  0  0  0  0  0  0
   20.0170   75.7320   14.8090 C   0  0  0  0  0  0  0  0  0  0  0  0
   20.5430   76.7920   15.6430 C   0  0  0  0  0  0  0  0  0  0  0  0
   19.5810   77.2090   16.6300 C   0  0  0  0  0  0  0  0  0  0  0  0
   19.8890   78.1970   17.4920 C   0  0  0  0  0  0  0  0  0  0  0  0
   21.1410   78.8360   17.4480 C   0  0  0  0  0  0  0  0  0  0  0  0
   22.0710   78.4490   16.5140 C   0  0  0  0  0  0  0  0  0  0  0  0
   21.7630   77.4190   15.6120 C   0  0  0  0  0  0  0  0  0  0  0  0
   22.7890   76.9240   14.6590 C   0  0  0  0  0  0  0  0  0  0  0  0
   24.2140   77.3130   15.0390 C   0  0  0  0  0  0  0  0  0  0  0  0
   24.3070   78.7060   15.4090 N   0  0  0  0  0  0  0  0  0  0  0  0
   23.3690   79.1110   16.4150 C   0  0  0  0  0  0  0  0  0  0  0  0
   23.7290   80.0360   17.1720 O   0  0  0  0  0  0  0  0  0  0  0  0
   25.2640   79.6140   14.8120 C   0  0  0  0  0  0  0  0  0  0  0  0
   21.3710   79.8140   18.3430 O   0  0  0  0  0  0  0  0  0  0  0  0
   18.7740   78.3820   18.3240 O   0  0  0  0  0  0  0  0  0  0  0  0
   17.6680   77.6710   17.8090 C   0  0  0  0  0  0  0  0  0  0  0  0
   18.2830   76.7710   16.9090 O   0  0  0  0  0  0  0  0  0  0  0  0
   18.8570   69.7840   12.7730 H   0  0  0  0  0  0  0  0  0  0  0  0
   20.6790   73.4700   13.5730 H   0  0  0  0  0  0  0  0  0  0  0  0
   16.7570   73.4580   11.9540 H   0  0  0  0  0  0  0  0  0  0  0  0
   17.8840   76.1710   14.3180 H   0  0  0  0  0  0  0  0  0  0  0  0
   19.9850   74.7520   15.4500 H   0  0  0  0  0  0  0  0  0  0  0  0
   20.8500   75.3790   14.0660 H   0  0  0  0  0  0  0  0  0  0  0  0
   22.6460   77.2740   13.6320 H   0  0  0  0  0  0  0  0  0  0  0  0
   22.8350   75.8080   14.6750 H   0  0  0  0  0  0  0  0  0  0  0  0
   24.8310   77.0860   14.1340 H   0  0  0  0  0  0  0  0  0  0  0  0
   24.5010   76.6590   15.8920 H   0  0  0  0  0  0  0  0  0  0  0  0
   24.8670   79.8690   13.7990 H   0  0  0  0  0  0  0  0  0  0  0  0
   26.2350   79.1060   14.6740 H   0  0  0  0  0  0  0  0  0  0  0  0
   25.3110   80.5400   15.3980 H   0  0  0  0  0  0  0  0  0  0  0  0
   22.1640   80.0660   18.8250 H   0  0  0  0  0  0  0  0  0  0  0  0
   17.1050   77.1420   18.6070 H   0  0  0  0  0  0  0  0  0  0  0  0
   17.0140   78.4000   17.3060 H   0  0  0  0  0  0  0  0  0  0  0  0
  1  2  1  0  0  0  0
  2  3  1  0  0  0  0
  3 28  1  0  0  0  0
  3  4  2  0  0  0  0
  4  5  1  0  0  0  0
  5 29  1  0  0  0  0
  6  8  1  0  0  0  0
  6  5  2  0  0  0  0
  7  2  2  0  0  0  0
  7  6  1  0  0  0  0
  8 10  1  0  0  0  0
  9  8  2  0  0  0  0
 10 31  1  0  0  0  0
 10 11  1  0  0  0  0
 11 32  1  0  0  0  0
 11 12  1  0  0  0  0
 12 13  1  0  0  0  0
 13 27  1  0  0  0  0
 13 14  2  0  0  0  0
 14 25  1  0  0  0  0
 15 14  1  0  0  0  0
 15 24  1  0  0  0  0
 16 15  2  0  0  0  0
 17 12  2  0  0  0  0
 17 16  1  0  0  0  0
 18 35  1  0  0  0  0
 18 19  1  0  0  0  0
 18 17  1  0  0  0  0
 19 20  1  0  0  0  0
 19 37  1  0  0  0  0
 20 21  1  0  0  0  0
 21 16  1  0  0  0  0
 21 22  2  0  0  0  0
 23 40  1  0  0  0  0
 23 20  1  0  0  0  0
 24 41  1  0  0  0  0
 26 25  1  0  0  0  0
 26 42  1  0  0  0  0
 27 26  1  0  0  0  0
 30  7  1  0  0  0  0
 33 11  1  0  0  0  0
 34 18  1  0  0  0  0
 36 19  1  0  0  0  0
 38 23  1  0  0  0  0
 39 23  1  0  0  0  0
 43 26  1  0  0  0  0
M  END
>  <Pose>
1

>  <Score>
-6.55

$$$$
