
 OpenBabel03222202113D

 40 43  0  0  1  0  0  0  0  0999 V2000
   18.9520   76.2060    7.6270 B   0  0  0  0  0  0  0  0  0  0  0  0
   19.3590   77.6140    8.8410 C   0  0  0  0  0  0  0  0  0  0  0  0
   18.4610   78.6410    9.0030 C   0  0  0  0  0  0  0  0  0  0  0  0
   18.7350   79.6520    9.8660 N   0  0  0  0  0  0  0  0  0  0  0  0
   19.8730   79.6730   10.5670 C   0  0  0  0  0  0  0  0  0  0  0  0
   20.8450   78.6680   10.4650 C   0  0  0  0  0  0  0  0  0  0  0  0
   20.5300   77.6610    9.5820 C   0  0  0  0  0  0  0  0  0  0  0  0
   22.0500   78.7330   11.2580 C   0  0  0  0  0  0  0  0  0  0  0  0
   23.1480   78.7350   10.5890 O   0  0  0  0  0  0  0  0  0  0  0  0
   22.1480   78.7940   12.6610 N   0  0  0  0  0  0  0  0  0  0  0  0
   21.6210   78.1430   13.8200 C   0  0  0  0  0  0  0  0  0  0  0  0
   22.9180   78.5400   14.5470 C   0  0  0  0  0  0  0  0  0  0  0  0
   22.8960   79.6690   13.5880 C   0  0  0  0  0  0  0  0  0  0  0  0
   22.6830   78.8410   15.9320 N   0  0  0  0  0  0  0  0  0  0  0  0
   23.3060   78.2560   17.0920 C   0  0  0  0  0  0  0  0  0  0  0  0
   24.4300   77.7250   17.1030 O   0  0  0  0  0  0  0  0  0  0  0  0
   22.3210   78.4400   18.2130 C   0  0  1  0  0  0  0  0  0  0  0  0
   21.8080   79.8240   17.8900 C   0  0  2  0  0  0  0  0  0  0  0  0
   20.4710   80.0740   18.5310 C   0  0  0  0  0  0  0  0  0  0  0  0
   19.4910   79.0610   18.0540 C   0  0  0  0  0  0  0  0  0  0  0  0
   19.9240   77.8320   17.8620 C   0  0  0  0  0  0  0  0  0  0  0  0
   21.3000   77.3630   18.0770 C   0  0  0  0  0  0  0  0  0  0  0  0
   21.7570   79.8070   16.4150 C   0  0  0  0  0  0  0  0  0  0  0  0
   20.9980   80.5490   15.7450 O   0  0  0  0  0  0  0  0  0  0  0  0
   17.5410   78.6180    8.4320 H   0  0  0  0  0  0  0  0  0  0  0  0
   20.0480   80.4950   11.2390 H   0  0  0  0  0  0  0  0  0  0  0  0
   21.2020   76.8520    9.4440 H   0  0  0  0  0  0  0  0  0  0  0  0
   21.5940   77.0330   13.8340 H   0  0  0  0  0  0  0  0  0  0  0  0
   20.7100   78.6220   14.2590 H   0  0  0  0  0  0  0  0  0  0  0  0
   23.7210   77.8280   14.3300 H   0  0  0  0  0  0  0  0  0  0  0  0
   22.2350   80.5220   13.8410 H   0  0  0  0  0  0  0  0  0  0  0  0
   23.8600   80.0030   13.1650 H   0  0  0  0  0  0  0  0  0  0  0  0
   22.8340   78.4160   19.1950 H   0  0  0  0  0  0  0  0  0  0  0  0
   22.5300   80.5630   18.2910 H   0  0  0  0  0  0  0  0  0  0  0  0
   20.1640   81.1060   18.3180 H   0  0  0  0  0  0  0  0  0  0  0  0
   20.6070   79.9280   19.6270 H   0  0  0  0  0  0  0  0  0  0  0  0
   18.4590   79.3790   17.8840 H   0  0  0  0  0  0  0  0  0  0  0  0
   19.1950   77.0930   17.5100 H   0  0  0  0  0  0  0  0  0  0  0  0
   21.5370   76.6470   17.2380 H   0  0  0  0  0  0  0  0  0  0  0  0
   21.2900   76.7240   18.9860 H   0  0  0  0  0  0  0  0  0  0  0  0
  1  2  1  0  0  0  0
  2  3  2  0  0  0  0
  2  7  1  0  0  0  0
  3  4  1  0  0  0  0
  4  5  2  0  0  0  0
  5 26  1  0  0  0  0
  6  5  1  0  0  0  0
  6  8  1  0  0  0  0
  7  6  2  0  0  0  0
  8 10  1  0  0  0  0
  9  8  2  0  0  0  0
 10 13  1  0  0  0  0
 10 11  1  0  0  0  0
 11 28  1  0  0  0  0
 11 29  1  0  0  0  0
 11 12  1  0  0  0  0
 12 14  1  0  0  0  0
 13 31  1  0  0  0  0
 13 12  1  0  0  0  0
 14 23  1  0  0  0  0
 14 15  1  0  0  0  0
 15 16  2  0  0  0  0
 15 17  1  0  0  0  0
 17 33  1  1  0  0  0
 18 17  1  0  0  0  0
 18 34  1  1  0  0  0
 18 19  1  0  0  0  0
 19 36  1  0  0  0  0
 20 19  1  0  0  0  0
 21 20  2  0  0  0  0
 21 22  1  0  0  0  0
 22 17  1  0  0  0  0
 22 40  1  0  0  0  0
 23 18  1  0  0  0  0
 24 23  2  0  0  0  0
 25  3  1  0  0  0  0
 27  7  1  0  0  0  0
 30 12  1  0  0  0  0
 32 13  1  0  0  0  0
 35 19  1  0  0  0  0
 37 20  1  0  0  0  0
 38 21  1  0  0  0  0
 39 22  1  0  0  0  0
M  END
>  <Pose>
1

>  <Score>
-6.10

$$$$
