
 OpenBabel03222202113D

 37 40  0  0  1  0  0  0  0  0999 V2000
   19.5420   76.8300    8.3840 B   0  0  0  0  0  0  0  0  0  0  0  0
   19.8340   78.2510    9.6450 C   0  0  0  0  0  0  0  0  0  0  0  0
   18.8720   79.2270    9.7670 C   0  0  0  0  0  0  0  0  0  0  0  0
   19.0980   80.2060   10.6510 N   0  0  0  0  0  0  0  0  0  0  0  0
   20.2300   80.2560   11.4120 C   0  0  0  0  0  0  0  0  0  0  0  0
   21.2230   79.3130   11.3360 C   0  0  0  0  0  0  0  0  0  0  0  0
   20.9760   78.2880   10.4040 C   0  0  0  0  0  0  0  0  0  0  0  0
   22.4500   79.2940   12.0930 C   0  0  0  0  0  0  0  0  0  0  0  0
   23.5060   78.8970   11.5090 O   0  0  0  0  0  0  0  0  0  0  0  0
   22.5350   79.6890   13.4340 N   0  0  0  0  0  0  0  0  0  0  0  0
   21.7650   80.3550   14.4510 C   0  0  0  0  0  0  0  0  0  0  0  0
   22.9490   80.4030   15.4050 C   0  0  0  0  0  0  0  0  0  0  0  0
   23.6210   79.5020   14.4150 C   0  0  0  0  0  0  0  0  0  0  0  0
   22.7510   79.8790   16.6810 O   0  0  0  0  0  0  0  0  0  0  0  0
   21.5360   79.5510   17.2470 C   0  0  2  0  0  0  0  0  0  0  0  0
   20.9920   80.3560   18.1560 C   0  0  0  0  0  0  0  0  0  0  0  0
   19.7120   80.0650   18.7890 C   0  0  0  0  0  0  0  0  0  0  0  0
   19.2010   80.8880   19.6880 C   0  0  0  0  0  0  0  0  0  0  0  0
   19.0460   78.8720   18.4040 N   0  0  0  0  0  0  0  0  0  0  0  0
   19.6570   78.0220   17.4210 C   0  0  0  0  0  0  0  0  0  0  0  0
   20.8380   78.3460   16.8760 N   0  0  0  0  0  0  0  0  0  0  0  0
   21.1840   77.3940   16.0020 N   0  0  0  0  0  0  0  0  0  0  0  0
   20.2090   76.4790   16.0120 C   0  0  0  0  0  0  0  0  0  0  0  0
   19.2690   76.8610   16.8830 N   0  0  0  0  0  0  0  0  0  0  0  0
   17.9530   79.2080    9.1630 H   0  0  0  0  0  0  0  0  0  0  0  0
   20.3640   81.0690   12.1230 H   0  0  0  0  0  0  0  0  0  0  0  0
   21.7220   77.5130   10.2960 H   0  0  0  0  0  0  0  0  0  0  0  0
   21.4670   81.4050   14.1910 H   0  0  0  0  0  0  0  0  0  0  0  0
   20.9340   79.7230   14.7850 H   0  0  0  0  0  0  0  0  0  0  0  0
   23.3940   81.4290   15.4700 H   0  0  0  0  0  0  0  0  0  0  0  0
   23.6500   78.4480   14.6850 H   0  0  0  0  0  0  0  0  0  0  0  0
   24.5920   79.8750   14.0650 H   0  0  0  0  0  0  0  0  0  0  0  0
   21.5500   81.2650   18.4300 H   0  0  0  0  0  0  0  0  0  0  0  0
   18.2590   80.6430   20.1330 H   0  0  0  0  0  0  0  0  0  0  0  0
   19.7030   81.7790   19.9730 H   0  0  0  0  0  0  0  0  0  0  0  0
   18.1370   78.6550   18.8460 H   0  0  0  0  0  0  0  0  0  0  0  0
   20.1510   75.5560   15.4210 H   0  0  0  0  0  0  0  0  0  0  0  0
  1  2  1  0  0  0  0
  2  3  2  0  0  0  0
  2  7  1  0  0  0  0
  3  4  1  0  0  0  0
  4  5  2  0  0  0  0
  5 26  1  0  0  0  0
  6  5  1  0  0  0  0
  6  8  1  0  0  0  0
  7  6  2  0  0  0  0
  8 10  1  0  0  0  0
  9  8  2  0  0  0  0
 10 13  1  0  0  0  0
 10 11  1  0  0  0  0
 11 29  1  0  0  0  0
 11 12  1  0  0  0  0
 12 30  1  0  0  0  0
 12 14  1  0  0  0  0
 13 31  1  0  0  0  0
 13 12  1  0  0  0  0
 15 14  1  1  0  0  0
 15 16  1  0  0  0  0
 16 33  1  0  0  0  0
 16 17  2  0  0  0  0
 17 18  1  0  0  0  0
 18 35  1  0  0  0  0
 18 34  1  0  0  0  0
 19 17  1  0  0  0  0
 19 36  1  0  0  0  0
 20 19  1  0  0  0  0
 21 15  1  0  0  0  0
 21 20  1  0  0  0  0
 22 23  2  0  0  0  0
 22 21  1  0  0  0  0
 23 24  1  0  0  0  0
 24 20  2  0  0  0  0
 25  3  1  0  0  0  0
 27  7  1  0  0  0  0
 28 11  1  0  0  0  0
 32 13  1  0  0  0  0
 37 23  1  0  0  0  0
M  END
>  <Pose>
1

>  <Score>
-6.66

$$$$
