
 OpenBabel03222202113D

 31 34  0  0  0  0  0  0  0  0999 V2000
   24.1530   78.6740   16.6470 B   0  0  0  0  0  0  0  0  0  0  0  0
   22.2770   78.4810   17.0160 C   0  0  0  0  0  0  0  0  0  0  0  0
   21.5640   77.5960   16.2350 C   0  0  0  0  0  0  0  0  0  0  0  0
   20.2230   77.4570   16.4980 C   0  0  0  0  0  0  0  0  0  0  0  0
   19.6220   78.1950   17.5200 C   0  0  0  0  0  0  0  0  0  0  0  0
   20.3250   79.0800   18.3040 C   0  0  0  0  0  0  0  0  0  0  0  0
   21.6890   79.2130   18.0270 C   0  0  0  0  0  0  0  0  0  0  0  0
   19.7130   79.8750   19.3990 C   0  0  0  0  0  0  0  0  0  0  0  0
   20.5270   81.0370   19.6610 N   0  0  0  0  0  0  0  0  0  0  0  0
   19.9900   82.0720   20.5050 C   0  0  0  0  0  0  0  0  0  0  0  0
   19.0840   82.9430   20.0400 N   0  0  0  0  0  0  0  0  0  0  0  0
   18.5870   83.9070   20.8350 C   0  0  0  0  0  0  0  0  0  0  0  0
   18.9950   84.0330   22.1600 C   0  0  0  0  0  0  0  0  0  0  0  0
   19.8960   83.1630   22.6150 N   0  0  0  0  0  0  0  0  0  0  0  0
   20.4000   82.1880   21.8150 C   0  0  0  0  0  0  0  0  0  0  0  0
   21.2750   81.4750   22.5420 N   0  0  0  0  0  0  0  0  0  0  0  0
   21.3420   81.9640   23.7690 N   0  0  0  0  0  0  0  0  0  0  0  0
   20.4960   82.9970   23.8080 C   0  0  0  0  0  0  0  0  0  0  0  0
   19.7390   76.5180   15.5850 O   0  0  0  0  0  0  0  0  0  0  0  0
   20.6490   76.5010   14.4740 C   0  0  0  0  0  0  0  0  0  0  0  0
   21.8790   76.7420   15.1710 O   0  0  0  0  0  0  0  0  0  0  0  0
   18.5740   78.0580   17.6870 H   0  0  0  0  0  0  0  0  0  0  0  0
   22.2960   79.8900   18.6050 H   0  0  0  0  0  0  0  0  0  0  0  0
   19.7260   79.2520   20.3350 H   0  0  0  0  0  0  0  0  0  0  0  0
   18.6590   80.1420   19.1780 H   0  0  0  0  0  0  0  0  0  0  0  0
   21.4760   81.1420   19.2630 H   0  0  0  0  0  0  0  0  0  0  0  0
   17.8590   84.6180   20.4870 H   0  0  0  0  0  0  0  0  0  0  0  0
   18.5960   84.8030   22.7890 H   0  0  0  0  0  0  0  0  0  0  0  0
   20.3400   83.6000   24.7020 H   0  0  0  0  0  0  0  0  0  0  0  0
   20.6450   75.5500   13.9450 H   0  0  0  0  0  0  0  0  0  0  0  0
   20.4540   77.3890   13.8420 H   0  0  0  0  0  0  0  0  0  0  0  0
  1  2  1  0  0  0  0
  2  7  1  0  0  0  0
  3  4  1  0  0  0  0
  3  2  2  0  0  0  0
  4  5  2  0  0  0  0
  5 22  1  0  0  0  0
  5  6  1  0  0  0  0
  6  8  1  0  0  0  0
  7  6  2  0  0  0  0
  7 23  1  0  0  0  0
  8  9  1  0  0  0  0
  8 24  1  0  0  0  0
  9 10  1  0  0  0  0
 10 15  1  0  0  0  0
 11 10  2  0  0  0  0
 11 12  1  0  0  0  0
 12 13  2  0  0  0  0
 13 14  1  0  0  0  0
 13 28  1  0  0  0  0
 14 18  1  0  0  0  0
 15 16  2  0  0  0  0
 15 14  1  0  0  0  0
 16 17  1  0  0  0  0
 17 18  2  0  0  0  0
 18 29  1  0  0  0  0
 19  4  1  0  0  0  0
 20 21  1  0  0  0  0
 20 19  1  0  0  0  0
 21  3  1  0  0  0  0
 25  8  1  0  0  0  0
 26  9  1  0  0  0  0
 27 12  1  0  0  0  0
 30 20  1  0  0  0  0
 31 20  1  0  0  0  0
M  END
>  <Pose>
1

>  <Score>
-5.95

$$$$
