
 OpenBabel03222202113D

 56 55  0  0  1  0  0  0  0  0999 V2000
   25.4430   78.6000   16.8100 B   0  0  0  0  0  0  0  0  0  0  0  0
   23.8840   79.3180   15.9990 C   0  0  0  0  0  0  0  0  0  0  0  0
   22.7490   79.5530   16.7870 C   0  0  0  0  0  0  0  0  0  0  0  0
   21.6060   80.0740   16.2630 C   0  0  0  0  0  0  0  0  0  0  0  0
   21.5740   80.3750   14.9130 C   0  0  0  0  0  0  0  0  0  0  0  0
   22.6960   80.1460   14.1230 C   0  0  0  0  0  0  0  0  0  0  0  0
   23.8500   79.6200   14.6560 C   0  0  0  0  0  0  0  0  0  0  0  0
   22.7030   80.4570   12.6650 C   0  0  0  0  0  0  0  0  0  0  0  0
   20.4280   80.3530   17.1280 C   0  0  1  0  0  0  0  0  0  0  0  0
   20.2400   79.4670   18.3070 C   0  0  2  0  0  0  0  0  0  0  0  0
   21.5060   78.6180   18.5730 C   0  0  0  0  0  0  0  0  0  0  0  0
   22.6870   79.2770   18.1460 O   0  0  0  0  0  0  0  0  0  0  0  0
   19.1730   78.4100   18.0890 C   0  0  0  0  0  0  0  0  0  0  0  0
   19.4170   77.1580   18.7720 N   0  0  0  0  0  0  0  0  0  0  0  0
   20.8590   76.9440   18.9000 C   0  0  0  0  0  0  0  0  0  0  0  0
   21.0890   75.4850   19.0440 C   0  0  0  0  0  0  0  0  0  0  0  0
   19.7570   74.8770   18.7610 C   0  0  0  0  0  0  0  0  0  0  0  0
   19.0730   75.9980   17.9670 C   0  0  0  0  0  0  0  0  0  0  0  0
   20.0590   80.2250   19.5660 C   0  0  0  0  0  0  0  0  0  0  0  0
   20.7200   81.3320   20.0310 N   0  0  0  0  0  4  0  0  0  0  0  0
   20.0850   82.5630   19.5080 C   0  0  0  0  0  0  0  0  0  0  0  0
   20.2140   83.5880   20.5660 C   0  0  0  0  0  0  0  0  0  0  0  0
   20.3610   82.8600   21.8470 C   0  0  0  0  0  0  0  0  0  0  0  0
   20.9020   81.4990   21.4130 C   0  0  0  0  0  0  0  0  0  0  0  0
   20.6200   81.7210   17.4720 O   0  0  0  0  0  0  0  0  0  0  0  0
   20.7120   80.7850   14.4330 H   0  0  0  0  0  0  0  0  0  0  0  0
   24.7380   79.4300   14.0770 H   0  0  0  0  0  0  0  0  0  0  0  0
   21.6820   80.4550   12.2430 H   0  0  0  0  0  0  0  0  0  0  0  0
   23.2070   81.4510   12.5330 H   0  0  0  0  0  0  0  0  0  0  0  0
   23.3690   79.7300   12.1220 H   0  0  0  0  0  0  0  0  0  0  0  0
   19.5180   80.3860   16.4600 H   0  0  0  0  0  0  0  0  0  0  0  0
   21.4040   77.5960   18.2120 H   0  0  0  0  0  0  0  0  0  0  0  0
   21.6060   78.5230   19.6880 H   0  0  0  0  0  0  0  0  0  0  0  0
   18.2110   78.7990   18.5560 H   0  0  0  0  0  0  0  0  0  0  0  0
   18.8940   78.1930   17.0750 H   0  0  0  0  0  0  0  0  0  0  0  0
   18.9360   77.0440   19.6750 H   0  0  0  0  0  0  0  0  0  0  0  0
   21.3090   77.4930   19.7200 H   0  0  0  0  0  0  0  0  0  0  0  0
   21.3040   77.3310   17.9490 H   0  0  0  0  0  0  0  0  0  0  0  0
   21.5130   75.2290   20.0260 H   0  0  0  0  0  0  0  0  0  0  0  0
   21.8460   75.1340   18.2840 H   0  0  0  0  0  0  0  0  0  0  0  0
   19.2020   74.7590   19.7310 H   0  0  0  0  0  0  0  0  0  0  0  0
   19.7850   73.9470   18.1800 H   0  0  0  0  0  0  0  0  0  0  0  0
   19.5610   76.0470   16.9680 H   0  0  0  0  0  0  0  0  0  0  0  0
   18.0110   75.7930   17.8790 H   0  0  0  0  0  0  0  0  0  0  0  0
   18.9160   80.4880   19.6690 H   0  0  0  0  0  0  0  0  0  0  0  0
   20.0760   79.4670   20.4570 H   0  0  0  0  0  0  0  0  0  0  0  0
   21.7110   81.4450   19.5370 H   0  0  0  0  0  0  0  0  0  0  0  0
   20.6270   82.9560   18.6080 H   0  0  0  0  0  0  0  0  0  0  0  0
   19.0600   82.4080   19.1740 H   0  0  0  0  0  0  0  0  0  0  0  0
   21.1050   84.2410   20.4180 H   0  0  0  0  0  0  0  0  0  0  0  0
   19.3050   84.2410   20.6350 H   0  0  0  0  0  0  0  0  0  0  0  0
   21.1030   83.3150   22.5250 H   0  0  0  0  0  0  0  0  0  0  0  0
   19.4080   82.7540   22.4180 H   0  0  0  0  0  0  0  0  0  0  0  0
   20.4370   80.7920   22.0910 H   0  0  0  0  0  0  0  0  0  0  0  0
   22.0130   81.4640   21.6920 H   0  0  0  0  0  0  0  0  0  0  0  0
   21.5630   81.9240   17.5940 H   0  0  0  0  0  0  0  0  0  0  0  0
  2  3  1  0  0  0  0
  2  1  1  0  0  0  0
  3 12  1  0  0  0  0
  4  3  2  0  0  0  0
  4  9  1  0  0  0  0
  5  4  1  0  0  0  0
  6  7  1  0  0  0  0
  6  5  2  0  0  0  0
  7  2  2  0  0  0  0
  8  6  1  0  0  0  0
  9 31  1  6  0  0  0
  9 25  1  0  0  0  0
  9 10  1  0  0  0  0
 10 13  1  6  0  0  0
 10 19  1  0  0  0  0
 11 33  1  0  0  0  0
 12 11  1  0  0  0  0
 13 34  1  0  0  0  0
 13 14  1  0  0  0  0
 14 36  1  0  0  0  0
 15 37  1  0  0  0  0
 16 39  1  0  0  0  0
 17 16  1  0  0  0  0
 17 41  1  0  0  0  0
 18 17  1  0  0  0  0
 18 14  1  0  0  0  0
 19 45  1  0  0  0  0
 19 20  1  0  0  0  0
 19 46  1  0  0  0  0
 20 24  1  0  0  0  0
 21 20  1  0  0  0  0
 21 22  1  0  0  0  0
 22 51  1  0  0  0  0
 22 23  1  0  0  0  0
 23 53  1  0  0  0  0
 23 52  1  0  0  0  0
 24 55  1  0  0  0  0
 24 23  1  0  0  0  0
 24 54  1  0  0  0  0
 25 56  1  0  0  0  0
 26  5  1  0  0  0  0
 27  7  1  0  0  0  0
 28  8  1  0  0  0  0
 29  8  1  0  0  0  0
 30  8  1  0  0  0  0
 32 11  1  0  0  0  0
 35 13  1  0  0  0  0
 40 16  1  0  0  0  0
 42 17  1  0  0  0  0
 43 18  1  0  0  0  0
 44 18  1  0  0  0  0
 47 20  1  0  0  0  0
 48 21  1  0  0  0  0
 49 21  1  0  0  0  0
 50 22  1  0  0  0  0
M  END
>  <Pose>
1

>  <Score>
-4.27

$$$$
