
 OpenBabel03222202113D

 56 59  0  0  1  0  0  0  0  0999 V2000
   18.4970   79.0200    8.6470 B   0  0  0  0  0  0  0  0  0  0  0  0
   18.8440   77.1880    8.2730 C   0  0  0  0  0  0  0  0  0  0  0  0
   18.0300   76.5130    7.3840 C   0  0  0  0  0  0  0  0  0  0  0  0
   18.2590   75.1840    7.0930 C   0  0  0  0  0  0  0  0  0  0  0  0
   19.3240   74.5770    7.7260 C   0  0  0  0  0  0  0  0  0  0  0  0
   20.1330   75.2580    8.6130 C   0  0  0  0  0  0  0  0  0  0  0  0
   19.9120   76.5880    8.9110 C   0  0  0  0  0  0  0  0  0  0  0  0
   20.7210   77.2870    9.8050 O   0  0  0  0  0  0  0  0  0  0  0  0
   21.5050   78.3460    9.2900 C   0  0  0  0  0  0  0  0  0  0  0  0
   22.4410   78.9150   10.3270 C   0  0  2  0  0  0  0  0  0  0  0  0
   23.5220   78.1100   10.5760 O   0  0  0  0  0  0  0  0  0  0  0  0
   21.7010   79.2740   11.5690 C   0  0  0  0  0  0  0  0  0  0  0  0
   22.2890   78.7390   12.7770 N   0  0  0  0  0  4  0  0  0  0  0  0
   21.3580   77.7540   13.2980 C   0  0  0  0  0  0  0  0  0  0  0  0
   21.7410   77.2920   14.7110 C   0  0  0  0  0  0  0  0  0  0  0  0
   21.7980   78.4260   15.5630 N   0  0  0  0  0  0  0  0  0  0  0  0
   21.5490   79.7180   14.8910 C   0  0  0  0  0  0  0  0  0  0  0  0
   22.4740   79.8280   13.7250 C   0  0  0  0  0  0  0  0  0  0  0  0
   22.0620   78.3930   16.9370 C   0  0  0  0  0  0  0  0  0  0  0  0
   23.3500   78.2850   17.2180 O   0  0  0  0  0  0  0  0  0  0  0  0
   21.2100   78.4520   18.0810 C   0  0  0  0  0  0  0  0  0  0  0  0
   20.5530   79.5510   18.5560 C   0  0  0  0  0  0  0  0  0  0  0  0
   19.7370   79.5400   19.6790 C   0  0  0  0  0  0  0  0  0  0  0  0
   19.5530   78.3890   20.3760 C   0  0  0  0  0  0  0  0  0  0  0  0
   20.2040   77.2610   19.9220 C   0  0  0  0  0  0  0  0  0  0  0  0
   21.0110   77.2720   18.8120 C   0  0  0  0  0  0  0  0  0  0  0  0
   17.4430   74.5080    6.2020 C   0  0  0  0  0  0  0  0  0  0  0  0
   16.3780   75.1150    5.5680 C   0  0  0  0  0  0  0  0  0  0  0  0
   16.1480   76.4450    5.8590 C   0  0  0  0  0  0  0  0  0  0  0  0
   16.9620   77.1200    6.7480 C   0  0  0  0  0  0  0  0  0  0  0  0
   19.5110   73.5330    7.5030 H   0  0  0  0  0  0  0  0  0  0  0  0
   20.9730   74.7750    9.1100 H   0  0  0  0  0  0  0  0  0  0  0  0
   22.1030   77.9330    8.4530 H   0  0  0  0  0  0  0  0  0  0  0  0
   20.8060   79.1190    8.9020 H   0  0  0  0  0  0  0  0  0  0  0  0
   22.8230   79.8850    9.8940 H   0  0  0  0  0  0  0  0  0  0  0  0
   23.4870   77.2300   10.1600 H   0  0  0  0  0  0  0  0  0  0  0  0
   20.6710   78.8300   11.4990 H   0  0  0  0  0  0  0  0  0  0  0  0
   21.6410   80.3690   11.6940 H   0  0  0  0  0  0  0  0  0  0  0  0
   23.2020   78.2600   12.6240 H   0  0  0  0  0  0  0  0  0  0  0  0
   20.3220   78.1230   13.2400 H   0  0  0  0  0  0  0  0  0  0  0  0
   21.4490   76.8540   12.6540 H   0  0  0  0  0  0  0  0  0  0  0  0
   20.9110   76.6340   15.0270 H   0  0  0  0  0  0  0  0  0  0  0  0
   22.6710   76.6990   14.6270 H   0  0  0  0  0  0  0  0  0  0  0  0
   20.5080   79.6720   14.5270 H   0  0  0  0  0  0  0  0  0  0  0  0
   21.7050   80.5490   15.5750 H   0  0  0  0  0  0  0  0  0  0  0  0
   23.5190   79.8740   14.0920 H   0  0  0  0  0  0  0  0  0  0  0  0
   22.2730   80.8140   13.2340 H   0  0  0  0  0  0  0  0  0  0  0  0
   20.6370   80.4930   18.0750 H   0  0  0  0  0  0  0  0  0  0  0  0
   19.2400   80.4510   20.0050 H   0  0  0  0  0  0  0  0  0  0  0  0
   18.9260   78.3440   21.2550 H   0  0  0  0  0  0  0  0  0  0  0  0
   20.0570   76.3450   20.4800 H   0  0  0  0  0  0  0  0  0  0  0  0
   21.4710   76.3320   18.5480 H   0  0  0  0  0  0  0  0  0  0  0  0
   17.6210   73.4660    5.9730 H   0  0  0  0  0  0  0  0  0  0  0  0
   15.7580   74.5580    4.8750 H   0  0  0  0  0  0  0  0  0  0  0  0
   15.3070   76.9170    5.3560 H   0  0  0  0  0  0  0  0  0  0  0  0
   16.7800   78.1640    6.9750 H   0  0  0  0  0  0  0  0  0  0  0  0
  2  1  1  0  0  0  0
  2  7  1  0  0  0  0
  3  2  2  0  0  0  0
  4  3  1  0  0  0  0
  4  5  2  0  0  0  0
  5  6  1  0  0  0  0
  6  7  2  0  0  0  0
  6 32  1  0  0  0  0
  7  8  1  0  0  0  0
  9  8  1  0  0  0  0
  9 10  1  0  0  0  0
 10 35  1  6  0  0  0
 10 11  1  0  0  0  0
 10 12  1  0  0  0  0
 12 38  1  0  0  0  0
 12 13  1  0  0  0  0
 13 14  1  0  0  0  0
 13 18  1  0  0  0  0
 14 15  1  0  0  0  0
 15 42  1  0  0  0  0
 15 16  1  0  0  0  0
 16 19  1  0  0  0  0
 17 16  1  0  0  0  0
 17 45  1  0  0  0  0
 18 46  1  0  0  0  0
 18 17  1  0  0  0  0
 19 20  2  0  0  0  0
 19 21  1  0  0  0  0
 21 22  2  0  0  0  0
 21 26  1  0  0  0  0
 22 23  1  0  0  0  0
 23 49  1  0  0  0  0
 23 24  2  0  0  0  0
 24 50  1  0  0  0  0
 25 24  1  0  0  0  0
 25 51  1  0  0  0  0
 26 25  2  0  0  0  0
 27  4  1  0  0  0  0
 28 29  1  0  0  0  0
 28 27  2  0  0  0  0
 29 30  2  0  0  0  0
 30 56  1  0  0  0  0
 30  3  1  0  0  0  0
 31  5  1  0  0  0  0
 33  9  1  0  0  0  0
 34  9  1  0  0  0  0
 36 11  1  0  0  0  0
 37 12  1  0  0  0  0
 39 13  1  0  0  0  0
 40 14  1  0  0  0  0
 41 14  1  0  0  0  0
 43 15  1  0  0  0  0
 44 17  1  0  0  0  0
 47 18  1  0  0  0  0
 48 22  1  0  0  0  0
 52 26  1  0  0  0  0
 53 27  1  0  0  0  0
 54 28  1  0  0  0  0
 55 29  1  0  0  0  0
M  END
>  <Pose>
1

>  <Score>
-6.92

$$$$
