
 OpenBabel03222202113D

 37 40  0  0  1  0  0  0  0  0999 V2000
   20.6350   76.8450   15.1400 B   0  0  0  0  0  0  0  0  0  0  0  0
   21.5510   78.1430   14.0910 C   0  0  0  0  0  0  0  0  0  0  0  0
   21.8610   78.0640   12.7780 N   0  0  0  0  0  0  0  0  0  0  0  0
   22.4700   79.1500   12.3620 N   0  0  0  0  0  0  0  0  0  0  0  0
   22.5620   79.9610   13.4310 C   0  0  0  0  0  0  0  0  0  0  0  0
   23.0710   81.1890   13.5740 N   0  0  0  0  0  0  0  0  0  0  0  0
   23.0380   81.8300   14.7560 C   0  0  0  0  0  0  0  0  0  0  0  0
   22.4890   81.2480   15.8370 N   0  0  0  0  0  0  0  0  0  0  0  0
   21.9480   79.9930   15.7680 C   0  0  0  0  0  0  0  0  0  0  0  0
   21.9890   79.3590   14.5580 C   0  0  0  0  0  0  0  0  0  0  0  0
   21.4280   79.3990   16.9680 N   0  0  0  0  0  0  0  0  0  0  0  0
   22.2480   78.6270   17.8480 C   0  0  1  0  0  0  0  0  0  0  0  0
   21.5080   77.5610   18.5580 C   0  0  0  0  0  0  0  0  0  0  0  0
   20.1430   77.5680   18.4560 O   0  0  0  0  0  0  0  0  0  0  0  0
   19.6060   78.8510   18.4410 C   0  0  0  0  0  0  0  0  0  0  0  0
   20.0460   79.6380   17.2490 C   0  0  0  0  0  0  0  0  0  0  0  0
   23.4760   78.1490   17.1730 C   0  0  0  0  0  0  0  0  0  0  0  0
   23.5560   77.1190   16.3290 N   0  0  0  0  0  0  0  0  0  0  0  0
   24.8640   77.0330   15.9510 C   0  0  0  0  0  0  0  0  0  0  0  0
   25.5120   78.0230   16.5910 N   0  0  0  0  0  0  0  0  0  0  0  0
   24.6560   78.6780   17.3190 O   0  0  0  0  0  0  0  0  0  0  0  0
   25.4660   76.0510   15.0210 C   0  0  0  0  0  0  0  0  0  0  0  0
   22.9420   79.4040   11.0130 C   0  0  0  0  0  0  0  0  0  0  0  0
   23.4760   82.8340   14.7920 H   0  0  0  0  0  0  0  0  0  0  0  0
   22.5570   79.3710   18.6780 H   0  0  0  0  0  0  0  0  0  0  0  0
   21.8290   77.4610   19.6410 H   0  0  0  0  0  0  0  0  0  0  0  0
   21.8520   76.5750   18.1200 H   0  0  0  0  0  0  0  0  0  0  0  0
   18.5010   78.7320   18.3830 H   0  0  0  0  0  0  0  0  0  0  0  0
   19.7970   79.3890   19.4020 H   0  0  0  0  0  0  0  0  0  0  0  0
   19.3900   79.4740   16.3600 H   0  0  0  0  0  0  0  0  0  0  0  0
   19.9630   80.7510   17.4470 H   0  0  0  0  0  0  0  0  0  0  0  0
   24.8930   75.0840   15.1090 H   0  0  0  0  0  0  0  0  0  0  0  0
   26.5170   75.8230   15.2730 H   0  0  0  0  0  0  0  0  0  0  0  0
   25.3950   76.3820   13.9560 H   0  0  0  0  0  0  0  0  0  0  0  0
   23.0030   78.4460   10.4610 H   0  0  0  0  0  0  0  0  0  0  0  0
   23.9640   79.8540   11.0640 H   0  0  0  0  0  0  0  0  0  0  0  0
   22.2320   80.0520   10.4390 H   0  0  0  0  0  0  0  0  0  0  0  0
  2 10  1  0  0  0  0
  2  1  1  0  0  0  0
  3  2  2  0  0  0  0
  4  3  1  0  0  0  0
  4  5  1  0  0  0  0
  5  6  1  0  0  0  0
  5 10  2  0  0  0  0
  6  7  2  0  0  0  0
  7 24  1  0  0  0  0
  7  8  1  0  0  0  0
  9  8  2  0  0  0  0
  9 11  1  0  0  0  0
 10  9  1  0  0  0  0
 11 16  1  0  0  0  0
 11 12  1  0  0  0  0
 12 13  1  0  0  0  0
 12 25  1  1  0  0  0
 13 26  1  0  0  0  0
 14 13  1  0  0  0  0
 15 14  1  0  0  0  0
 15 29  1  0  0  0  0
 16 31  1  0  0  0  0
 16 15  1  0  0  0  0
 17 21  1  0  0  0  0
 17 12  1  0  0  0  0
 18 17  2  0  0  0  0
 19 18  1  0  0  0  0
 19 20  2  0  0  0  0
 20 21  1  0  0  0  0
 22 32  1  0  0  0  0
 22 33  1  0  0  0  0
 22 19  1  0  0  0  0
 23 36  1  0  0  0  0
 23  4  1  0  0  0  0
 27 13  1  0  0  0  0
 28 15  1  0  0  0  0
 30 16  1  0  0  0  0
 34 22  1  0  0  0  0
 35 23  1  0  0  0  0
 37 23  1  0  0  0  0
M  END
>  <Pose>
1

>  <Score>
-6.10

$$$$
