
 OpenBabel03222202113D

 35 38  0  0  0  0  0  0  0  0999 V2000
   23.5430   81.0610   15.0980 B   0  0  0  0  0  0  0  0  0  0  0  0
   22.6610   80.0980   13.7130 C   0  0  0  0  0  0  0  0  0  0  0  0
   22.6850   80.4060   12.3830 N   0  0  0  0  0  0  0  0  0  0  0  0
   21.9850   79.5100   11.7310 N   0  0  0  0  0  0  0  0  0  0  0  0
   21.4870   78.6050   12.5890 C   0  0  0  0  0  0  0  0  0  0  0  0
   20.7310   77.5040   12.4460 N   0  0  0  0  0  0  0  0  0  0  0  0
   20.3770   76.7540   13.4860 C   0  0  0  0  0  0  0  0  0  0  0  0
   20.7750   77.0920   14.7090 N   0  0  0  0  0  0  0  0  0  0  0  0
   21.5490   78.1970   14.9680 C   0  0  0  0  0  0  0  0  0  0  0  0
   21.9060   78.9570   13.8830 C   0  0  0  0  0  0  0  0  0  0  0  0
   21.9080   78.5320   16.2740 N   0  0  0  0  0  0  0  0  0  0  0  0
   21.8690   79.9030   16.7340 C   0  0  0  0  0  0  0  0  0  0  0  0
   20.6710   80.0260   17.6990 C   0  0  0  0  0  0  0  0  0  0  0  0
   20.5620   78.7890   18.5010 C   0  0  0  0  0  0  0  0  0  0  0  0
   19.7260   78.5670   19.5420 N   0  0  0  0  0  0  0  0  0  0  0  0
   19.9480   77.3190   19.9870 C   0  0  0  0  0  0  0  0  0  0  0  0
   20.9020   76.7350   19.2640 N   0  0  0  0  0  0  0  0  0  0  0  0
   21.2840   77.6450   18.3420 C   0  0  0  0  0  0  0  0  0  0  0  0
   22.3030   77.5660   17.2660 C   0  0  0  0  0  0  0  0  0  0  0  0
   18.7530   79.4640   20.1110 C   0  0  0  0  0  0  0  0  0  0  0  0
   21.7320   79.4340   10.2840 C   0  0  0  0  0  0  0  0  0  0  0  0
   19.7760   75.8850   13.3370 H   0  0  0  0  0  0  0  0  0  0  0  0
   21.7030   80.6430   15.9420 H   0  0  0  0  0  0  0  0  0  0  0  0
   22.7940   80.1920   17.2870 H   0  0  0  0  0  0  0  0  0  0  0  0
   19.7310   80.1910   17.1390 H   0  0  0  0  0  0  0  0  0  0  0  0
   20.8640   80.9300   18.3050 H   0  0  0  0  0  0  0  0  0  0  0  0
   19.4400   76.8140   20.8230 H   0  0  0  0  0  0  0  0  0  0  0  0
   22.4190   76.5440   16.8570 H   0  0  0  0  0  0  0  0  0  0  0  0
   23.2670   77.9200   17.7380 H   0  0  0  0  0  0  0  0  0  0  0  0
   17.7990   78.9420   20.3370 H   0  0  0  0  0  0  0  0  0  0  0  0
   19.1260   79.8500   21.0910 H   0  0  0  0  0  0  0  0  0  0  0  0
   18.5140   80.2960   19.4080 H   0  0  0  0  0  0  0  0  0  0  0  0
   22.0450   78.4420    9.9030 H   0  0  0  0  0  0  0  0  0  0  0  0
   22.2650   80.2590    9.7820 H   0  0  0  0  0  0  0  0  0  0  0  0
   20.6450   79.5870   10.0940 H   0  0  0  0  0  0  0  0  0  0  0  0
  2 10  1  0  0  0  0
  2  1  1  0  0  0  0
  3  2  2  0  0  0  0
  4  3  1  0  0  0  0
  4  5  1  0  0  0  0
  5 10  2  0  0  0  0
  6  5  1  0  0  0  0
  6  7  2  0  0  0  0
  7  8  1  0  0  0  0
  8  9  2  0  0  0  0
  9 11  1  0  0  0  0
 10  9  1  0  0  0  0
 11 12  1  0  0  0  0
 11 19  1  0  0  0  0
 12 24  1  0  0  0  0
 12 13  1  0  0  0  0
 13 26  1  0  0  0  0
 13 14  1  0  0  0  0
 14 15  1  0  0  0  0
 15 16  1  0  0  0  0
 15 20  1  0  0  0  0
 16 27  1  0  0  0  0
 17 16  2  0  0  0  0
 18 14  2  0  0  0  0
 18 17  1  0  0  0  0
 19 29  1  0  0  0  0
 19 18  1  0  0  0  0
 20 30  1  0  0  0  0
 20 31  1  0  0  0  0
 21  4  1  0  0  0  0
 22  7  1  0  0  0  0
 23 12  1  0  0  0  0
 25 13  1  0  0  0  0
 28 19  1  0  0  0  0
 32 20  1  0  0  0  0
 33 21  1  0  0  0  0
 34 21  1  0  0  0  0
 35 21  1  0  0  0  0
M  END
>  <Pose>
1

>  <Score>
-5.38

$$$$
