
 OpenBabel03222202113D

 49 52  0  0  1  0  0  0  0  0999 V2000
   17.8980   74.8150    5.9320 B   0  0  0  0  0  0  0  0  0  0  0  0
   18.2950   76.2970    7.0950 C   0  0  0  0  0  0  0  0  0  0  0  0
   18.9870   76.2320    8.2030 O   0  0  0  0  0  0  0  0  0  0  0  0
   19.0770   77.4360    8.7690 C   0  0  0  0  0  0  0  0  0  0  0  0
   18.3910   78.3080    7.9530 C   0  0  0  0  0  0  0  0  0  0  0  0
   17.8870   77.6050    6.8880 C   0  0  0  0  0  0  0  0  0  0  0  0
   19.7780   77.7210   10.0110 C   0  0  0  0  0  0  0  0  0  0  0  0
   19.5070   77.0660   11.0390 O   0  0  0  0  0  0  0  0  0  0  0  0
   20.7590   78.7270   10.0670 N   0  0  0  0  0  0  0  0  0  0  0  0
   21.9200   78.6610   10.9320 C   0  0  1  0  0  0  0  0  0  0  0  0
   23.1450   78.8050   10.1030 C   0  0  0  0  0  0  0  0  0  0  0  0
   21.8180   79.5860   12.0730 C   0  0  0  0  0  0  0  0  0  0  0  0
   21.0310   80.5840   11.9150 O   0  0  0  0  0  0  0  0  0  0  0  0
   22.4820   79.4910   13.3010 N   0  0  0  0  0  0  0  0  0  0  0  0
   22.5760   80.5960   14.2330 C   0  0  0  0  0  0  0  0  0  0  0  0
   21.8870   80.1910   15.4990 C   0  0  0  0  0  0  0  0  0  0  0  0
   22.3850   78.8800   16.0180 C   0  0  1  0  0  0  0  0  0  0  0  0
   22.8600   79.0740   17.3770 N   0  0  0  0  0  0  0  0  0  0  0  0
   21.7200   79.4290   18.2020 C   0  0  0  0  0  0  0  0  0  0  0  0
   21.0210   78.1110   18.5510 C   0  0  0  0  0  0  0  0  0  0  0  0
   20.6850   77.4790   17.2530 C   0  0  0  0  0  0  0  0  0  0  0  0
   19.7810   76.5190   16.9750 N   0  0  0  0  0  0  0  0  0  0  0  0
   19.8450   76.2810   15.6560 C   0  0  0  0  0  0  0  0  0  0  0  0
   20.7830   77.0890   15.1300 N   0  0  0  0  0  0  0  0  0  0  0  0
   21.3260   77.8490   16.0960 C   0  0  0  0  0  0  0  0  0  0  0  0
   23.5510   78.3950   15.1580 C   0  0  0  0  0  0  0  0  0  0  0  0
   23.1360   78.2670   13.7290 C   0  0  0  0  0  0  0  0  0  0  0  0
   18.2860   79.3570    8.1480 H   0  0  0  0  0  0  0  0  0  0  0  0
   17.2960   77.9770    6.0510 H   0  0  0  0  0  0  0  0  0  0  0  0
   20.6550   79.5670    9.4610 H   0  0  0  0  0  0  0  0  0  0  0  0
   21.9370   77.6180   11.3650 H   0  0  0  0  0  0  0  0  0  0  0  0
   22.8470   78.9180    9.0400 H   0  0  0  0  0  0  0  0  0  0  0  0
   23.8260   77.9290   10.1090 H   0  0  0  0  0  0  0  0  0  0  0  0
   23.7120   79.7380   10.3310 H   0  0  0  0  0  0  0  0  0  0  0  0
   22.2250   81.5430   13.8150 H   0  0  0  0  0  0  0  0  0  0  0  0
   23.6660   80.7810   14.4720 H   0  0  0  0  0  0  0  0  0  0  0  0
   22.1090   81.0010   16.2540 H   0  0  0  0  0  0  0  0  0  0  0  0
   20.7890   80.2070   15.3460 H   0  0  0  0  0  0  0  0  0  0  0  0
   23.5270   79.8930   17.4340 H   0  0  0  0  0  0  0  0  0  0  0  0
   21.9860   80.0070   19.0910 H   0  0  0  0  0  0  0  0  0  0  0  0
   20.9570   80.0030   17.6080 H   0  0  0  0  0  0  0  0  0  0  0  0
   21.7880   77.4550   19.0350 H   0  0  0  0  0  0  0  0  0  0  0  0
   20.1490   78.2770   19.1900 H   0  0  0  0  0  0  0  0  0  0  0  0
   19.1240   76.0170   17.6240 H   0  0  0  0  0  0  0  0  0  0  0  0
   19.2640   75.5760   15.0940 H   0  0  0  0  0  0  0  0  0  0  0  0
   23.8380   77.3970   15.5650 H   0  0  0  0  0  0  0  0  0  0  0  0
   24.3840   79.0860   15.3260 H   0  0  0  0  0  0  0  0  0  0  0  0
   24.0870   78.2170   13.1200 H   0  0  0  0  0  0  0  0  0  0  0  0
   22.5450   77.3720   13.5110 H   0  0  0  0  0  0  0  0  0  0  0  0
  1  2  1  0  0  0  0
  2  3  1  0  0  0  0
  3  4  1  0  0  0  0
  4  7  1  0  0  0  0
  5 28  1  0  0  0  0
  5  4  2  0  0  0  0
  6  2  2  0  0  0  0
  6  5  1  0  0  0  0
  7  9  1  0  0  0  0
  7  8  2  0  0  0  0
  9 10  1  0  0  0  0
 10 31  1  1  0  0  0
 10 12  1  0  0  0  0
 11 33  1  0  0  0  0
 11 34  1  0  0  0  0
 11 10  1  0  0  0  0
 12 14  1  0  0  0  0
 13 12  2  0  0  0  0
 14 27  1  0  0  0  0
 14 15  1  0  0  0  0
 15 36  1  0  0  0  0
 15 16  1  0  0  0  0
 16 17  1  0  0  0  0
 16 37  1  0  0  0  0
 17 25  1  6  0  0  0
 17 18  1  0  0  0  0
 18 39  1  0  0  0  0
 18 19  1  0  0  0  0
 19 20  1  0  0  0  0
 19 40  1  0  0  0  0
 20 42  1  0  0  0  0
 20 43  1  0  0  0  0
 21 20  1  0  0  0  0
 22 21  1  0  0  0  0
 22 44  1  0  0  0  0
 23 22  1  0  0  0  0
 24 23  2  0  0  0  0
 24 25  1  0  0  0  0
 25 21  2  0  0  0  0
 26 47  1  0  0  0  0
 26 46  1  0  0  0  0
 26 17  1  0  0  0  0
 27 26  1  0  0  0  0
 29  6  1  0  0  0  0
 30  9  1  0  0  0  0
 32 11  1  0  0  0  0
 35 15  1  0  0  0  0
 38 16  1  0  0  0  0
 41 19  1  0  0  0  0
 45 23  1  0  0  0  0
 48 27  1  0  0  0  0
 49 27  1  0  0  0  0
M  END
>  <Pose>
1

>  <Score>
-7.03

$$$$
