
 OpenBabel03222202113D

 53 56  0  0  0  0  0  0  0  0999 V2000
   18.7470   75.1000    7.2520 B   0  0  0  0  0  0  0  0  0  0  0  0
   18.6320   76.8950    7.8990 C   0  0  0  0  0  0  0  0  0  0  0  0
   19.0810   77.3250    9.0510 O   0  0  0  0  0  0  0  0  0  0  0  0
   18.8610   78.6040    9.2230 C   0  0  0  0  0  0  0  0  0  0  0  0
   18.2180   79.0420    8.0910 C   0  0  0  0  0  0  0  0  0  0  0  0
   18.0680   77.9710    7.2480 C   0  0  0  0  0  0  0  0  0  0  0  0
   19.2340   79.4160   10.4050 C   0  0  0  0  0  0  0  0  0  0  0  0
   18.4390   80.2590   10.8460 O   0  0  0  0  0  0  0  0  0  0  0  0
   20.5000   79.2150   11.0170 N   0  0  0  0  0  0  0  0  0  0  0  0
   20.7280   78.0690   11.8940 C   0  0  0  0  0  0  0  0  0  0  0  0
   22.1430   78.1270   12.4670 C   0  0  0  0  0  0  0  0  0  0  0  0
   22.3330   79.4590   13.0070 N   0  0  0  0  0  0  0  0  0  0  0  0
   22.1630   80.5870   12.1330 C   0  0  0  0  0  0  0  0  0  0  0  0
   21.6150   80.1170   10.8110 C   0  0  0  0  0  0  0  0  0  0  0  0
   22.6850   79.6650   14.3810 C   0  0  0  0  0  0  0  0  0  0  0  0
   23.8560   79.2420   14.8790 N   0  0  0  0  0  0  0  0  0  0  0  0
   24.1570   79.4470   16.1660 C   0  0  0  0  0  0  0  0  0  0  0  0
   23.3070   80.0770   17.0010 N   0  0  0  0  0  0  0  0  0  0  0  0
   22.1170   80.5260   16.5660 C   0  0  0  0  0  0  0  0  0  0  0  0
   21.8260   80.3050   15.2360 C   0  0  0  0  0  0  0  0  0  0  0  0
   21.1900   81.1930   17.4050 N   0  0  0  0  0  0  0  0  0  0  0  0
   21.5100   82.4910   17.9620 C   0  0  0  0  0  0  0  0  0  0  0  0
   20.2300   83.0620   18.5350 C   0  0  0  0  0  0  0  0  0  0  0  0
   19.7630   82.1930   19.5800 N   0  0  0  0  0  0  0  0  0  0  0  0
   19.7390   80.8030   19.2460 C   0  0  0  0  0  0  0  0  0  0  0  0
   19.8970   80.6330   17.7500 C   0  0  0  0  0  0  0  0  0  0  0  0
   20.4370   82.5000   20.8160 C   0  0  0  0  0  0  0  0  0  0  0  0
   25.4560   78.9760   16.7070 C   0  0  0  0  0  0  0  0  0  0  0  0
   17.8850   80.0460    7.8870 H   0  0  0  0  0  0  0  0  0  0  0  0
   17.5980   77.9490    6.2500 H   0  0  0  0  0  0  0  0  0  0  0  0
   20.5720   77.1220   11.3550 H   0  0  0  0  0  0  0  0  0  0  0  0
   19.9950   78.1090   12.7270 H   0  0  0  0  0  0  0  0  0  0  0  0
   22.2630   77.3790   13.2530 H   0  0  0  0  0  0  0  0  0  0  0  0
   22.8380   77.9630   11.6150 H   0  0  0  0  0  0  0  0  0  0  0  0
   21.4940   81.3480   12.6060 H   0  0  0  0  0  0  0  0  0  0  0  0
   23.1750   81.0390   11.9310 H   0  0  0  0  0  0  0  0  0  0  0  0
   21.3580   80.9620   10.1590 H   0  0  0  0  0  0  0  0  0  0  0  0
   22.4220   79.5240   10.3140 H   0  0  0  0  0  0  0  0  0  0  0  0
   20.8810   80.6480   14.8390 H   0  0  0  0  0  0  0  0  0  0  0  0
   22.2610   82.3810   18.7550 H   0  0  0  0  0  0  0  0  0  0  0  0
   21.9080   83.1170   17.1360 H   0  0  0  0  0  0  0  0  0  0  0  0
   20.4840   84.0470   18.9650 H   0  0  0  0  0  0  0  0  0  0  0  0
   19.4890   83.1960   17.7290 H   0  0  0  0  0  0  0  0  0  0  0  0
   18.7830   80.3370   19.5570 H   0  0  0  0  0  0  0  0  0  0  0  0
   20.5550   80.2530   19.7410 H   0  0  0  0  0  0  0  0  0  0  0  0
   19.1190   81.2500   17.2360 H   0  0  0  0  0  0  0  0  0  0  0  0
   19.8460   79.5700   17.4450 H   0  0  0  0  0  0  0  0  0  0  0  0
   21.0160   83.4250   20.7560 H   0  0  0  0  0  0  0  0  0  0  0  0
   19.6560   82.6220   21.6110 H   0  0  0  0  0  0  0  0  0  0  0  0
   21.0980   81.6540   21.1000 H   0  0  0  0  0  0  0  0  0  0  0  0
   25.8180   79.7140   17.4510 H   0  0  0  0  0  0  0  0  0  0  0  0
   25.3280   77.9860   17.1910 H   0  0  0  0  0  0  0  0  0  0  0  0
   26.2090   78.9500   15.9000 H   0  0  0  0  0  0  0  0  0  0  0  0
  1  2  1  0  0  0  0
  2  3  1  0  0  0  0
  3  4  1  0  0  0  0
  4  7  1  0  0  0  0
  5  4  2  0  0  0  0
  6  2  2  0  0  0  0
  6  5  1  0  0  0  0
  7  8  2  0  0  0  0
  7  9  1  0  0  0  0
  9 10  1  0  0  0  0
 10 11  1  0  0  0  0
 10 32  1  0  0  0  0
 11 12  1  0  0  0  0
 11 33  1  0  0  0  0
 12 15  1  0  0  0  0
 13 35  1  0  0  0  0
 13 12  1  0  0  0  0
 14  9  1  0  0  0  0
 14 13  1  0  0  0  0
 15 16  1  0  0  0  0
 15 20  2  0  0  0  0
 16 17  2  0  0  0  0
 17 28  1  0  0  0  0
 17 18  1  0  0  0  0
 19 18  2  0  0  0  0
 19 21  1  0  0  0  0
 20 19  1  0  0  0  0
 21 26  1  0  0  0  0
 21 22  1  0  0  0  0
 22 23  1  0  0  0  0
 22 40  1  0  0  0  0
 23 42  1  0  0  0  0
 23 24  1  0  0  0  0
 24 27  1  0  0  0  0
 25 44  1  0  0  0  0
 25 24  1  0  0  0  0
 25 45  1  0  0  0  0
 26 25  1  0  0  0  0
 27 50  1  0  0  0  0
 27 49  1  0  0  0  0
 28 52  1  0  0  0  0
 28 51  1  0  0  0  0
 29  5  1  0  0  0  0
 30  6  1  0  0  0  0
 31 10  1  0  0  0  0
 34 11  1  0  0  0  0
 36 13  1  0  0  0  0
 37 14  1  0  0  0  0
 38 14  1  0  0  0  0
 39 20  1  0  0  0  0
 41 22  1  0  0  0  0
 43 23  1  0  0  0  0
 46 26  1  0  0  0  0
 47 26  1  0  0  0  0
 48 27  1  0  0  0  0
 53 28  1  0  0  0  0
M  END
>  <Pose>
1

>  <Score>
-6.68

$$$$
