
 OpenBabel03222202113D

 43 46  0  0  0  0  0  0  0  0999 V2000
   16.4850   70.5200   11.9640 B   0  0  0  0  0  0  0  0  0  0  0  0
   17.6760   71.9870   12.1320 C   0  0  0  0  0  0  0  0  0  0  0  0
   17.7460   73.0670   11.4160 O   0  0  0  0  0  0  0  0  0  0  0  0
   18.6960   73.8720   11.8190 C   0  0  0  0  0  0  0  0  0  0  0  0
   19.3010   73.2560   12.8980 C   0  0  0  0  0  0  0  0  0  0  0  0
   18.6630   72.0440   13.1180 C   0  0  0  0  0  0  0  0  0  0  0  0
   19.0680   75.1670   11.2600 C   0  0  0  0  0  0  0  0  0  0  0  0
   19.5190   75.4310   10.0140 N   0  0  0  0  0  0  0  0  0  0  0  0
   19.7420   76.7090    9.8930 O   0  0  0  0  0  0  0  0  0  0  0  0
   19.4600   77.3260   11.0120 C   0  0  0  0  0  0  0  0  0  0  0  0
   19.0440   76.3730   11.8540 N   0  0  0  0  0  0  0  0  0  0  0  0
   19.6040   78.7640   11.2000 C   0  0  0  0  0  0  0  0  0  0  0  0
   18.7350   79.5600   10.7060 O   0  0  0  0  0  0  0  0  0  0  0  0
   20.6930   79.3260   11.9230 N   0  0  0  0  0  0  0  0  0  0  0  0
   21.9180   79.6740   11.2880 C   0  0  0  0  0  0  0  0  0  0  0  0
   23.0040   80.0580   12.2700 C   0  0  0  0  0  0  0  0  0  0  0  0
   23.6560   78.8810   12.8240 N   0  0  0  0  0  0  0  0  0  0  0  0
   23.7500   78.7470   14.2200 C   0  0  0  0  0  0  0  0  0  0  0  0
   24.7440   78.0510   14.6380 O   0  0  0  0  0  0  0  0  0  0  0  0
   22.8730   79.2920   15.2250 C   0  0  0  0  0  0  0  0  0  0  0  0
   22.0870   78.4140   15.9710 C   0  0  0  0  0  0  0  0  0  0  0  0
   21.2500   78.9060   16.9410 C   0  0  0  0  0  0  0  0  0  0  0  0
   21.1830   80.2450   17.1750 C   0  0  0  0  0  0  0  0  0  0  0  0
   20.3300   80.7400   18.1640 C   0  0  0  0  0  0  0  0  0  0  0  0
   19.5410   79.9080   18.9210 C   0  0  0  0  0  0  0  0  0  0  0  0
   19.6130   78.5600   18.6790 C   0  0  0  0  0  0  0  0  0  0  0  0
   20.4490   78.0560   17.7080 C   0  0  0  0  0  0  0  0  0  0  0  0
   21.9290   81.0380   16.4620 O   0  0  0  0  0  0  0  0  0  0  0  0
   22.7600   80.6290   15.5100 C   0  0  0  0  0  0  0  0  0  0  0  0
   23.4220   81.4990   14.8960 O   0  0  0  0  0  0  0  0  0  0  0  0
   20.1140   73.6780   13.4360 H   0  0  0  0  0  0  0  0  0  0  0  0
   18.8910   71.3130   13.8890 H   0  0  0  0  0  0  0  0  0  0  0  0
   20.5830   79.4810   12.9430 H   0  0  0  0  0  0  0  0  0  0  0  0
   21.7230   80.5890   10.6640 H   0  0  0  0  0  0  0  0  0  0  0  0
   22.2590   78.8940   10.5800 H   0  0  0  0  0  0  0  0  0  0  0  0
   23.7800   80.6070   11.6960 H   0  0  0  0  0  0  0  0  0  0  0  0
   22.6200   80.7380   13.0530 H   0  0  0  0  0  0  0  0  0  0  0  0
   24.0490   78.1390   12.2160 H   0  0  0  0  0  0  0  0  0  0  0  0
   22.1270   77.3360   15.7970 H   0  0  0  0  0  0  0  0  0  0  0  0
   20.3010   81.8050   18.3250 H   0  0  0  0  0  0  0  0  0  0  0  0
   18.8970   80.3320   19.6740 H   0  0  0  0  0  0  0  0  0  0  0  0
   18.9980   77.8990   19.2670 H   0  0  0  0  0  0  0  0  0  0  0  0
   20.5120   76.9980   17.5110 H   0  0  0  0  0  0  0  0  0  0  0  0
  1  2  1  0  0  0  0
  2  6  2  0  0  0  0
  3  4  1  0  0  0  0
  3  2  1  0  0  0  0
  4  5  2  0  0  0  0
  5  6  1  0  0  0  0
  5 31  1  0  0  0  0
  6 32  1  0  0  0  0
  7  4  1  0  0  0  0
  7 11  1  0  0  0  0
  8  7  2  0  0  0  0
  9  8  1  0  0  0  0
  9 10  1  0  0  0  0
 10 12  1  0  0  0  0
 10 11  2  0  0  0  0
 12 14  1  0  0  0  0
 13 12  2  0  0  0  0
 14 33  1  0  0  0  0
 15 14  1  0  0  0  0
 15 16  1  0  0  0  0
 16 17  1  0  0  0  0
 16 37  1  0  0  0  0
 17 18  1  0  0  0  0
 18 19  2  0  0  0  0
 18 20  1  0  0  0  0
 20 29  1  0  0  0  0
 20 21  2  0  0  0  0
 21 22  1  0  0  0  0
 22 23  2  0  0  0  0
 22 27  1  0  0  0  0
 23 24  1  0  0  0  0
 24 40  1  0  0  0  0
 24 25  2  0  0  0  0
 25 41  1  0  0  0  0
 26 25  1  0  0  0  0
 26 42  1  0  0  0  0
 27 26  2  0  0  0  0
 28 23  1  0  0  0  0
 29 28  1  0  0  0  0
 30 29  2  0  0  0  0
 34 15  1  0  0  0  0
 35 15  1  0  0  0  0
 36 16  1  0  0  0  0
 38 17  1  0  0  0  0
 39 21  1  0  0  0  0
 43 27  1  0  0  0  0
M  END
>  <Pose>
1

>  <Score>
-7.85

$$$$
