
 OpenBabel03222202113D

 64 67  0  0  1  0  0  0  0  0999 V2000
   16.3690   75.4670    3.0630 B   0  0  0  0  0  0  0  0  0  0  0  0
   16.0330   75.8220    4.8920 C   0  0  0  0  0  0  0  0  0  0  0  0
   17.0360   76.4220    5.6540 C   0  0  0  0  0  0  0  0  0  0  0  0
   16.8720   76.7030    6.9480 N   0  0  0  0  0  0  0  0  0  0  0  0
   15.6620   76.3700    7.4920 C   0  0  0  0  0  0  0  0  0  0  0  0
   15.4580   76.6160    8.7120 O   0  0  0  0  0  0  0  0  0  0  0  0
   14.6770   75.7930    6.7840 N   0  0  0  0  0  0  0  0  0  0  0  0
   14.8280   75.5030    5.4790 C   0  0  0  0  0  0  0  0  0  0  0  0
   13.8950   74.9560    4.8070 O   0  0  0  0  0  0  0  0  0  0  0  0
   17.8300   77.3040    7.7840 C   0  0  1  0  0  0  0  0  0  0  0  0
   18.8950   76.3120    8.2820 C   0  0  1  0  0  0  0  0  0  0  0  0
   19.4710   76.9880    9.5340 C   0  0  0  0  0  0  0  0  0  0  0  0
   19.9020   78.3950    9.2280 C   0  0  2  0  0  0  0  0  0  0  0  0
   19.8270   78.6050    7.8720 O   0  0  0  0  0  0  0  0  0  0  0  0
   18.5460   78.5100    7.3340 C   0  0  0  0  0  0  0  0  0  0  0  0
   21.3750   78.4790    9.6040 C   0  0  0  0  0  0  0  0  0  0  0  0
   21.5070   78.7780   11.0760 C   0  0  0  0  0  0  0  0  0  0  0  0
   20.2810   78.3860   11.7910 N   0  0  0  0  0  0  0  0  0  0  0  0
   19.1190   79.1670   11.4860 C   0  0  0  0  0  0  0  0  0  0  0  0
   19.1790   79.4500    9.9870 C   0  0  0  0  0  0  0  0  0  0  0  0
   20.2410   77.3070   12.6730 C   0  0  0  0  0  0  0  0  0  0  0  0
   19.4510   76.3070   12.4620 O   0  0  0  0  0  0  0  0  0  0  0  0
   21.0640   77.2230   13.8690 C   0  0  1  0  0  0  0  0  0  0  0  0
   20.7880   76.0130   14.6040 N   0  0  0  0  0  0  0  0  0  0  0  0
   20.0970   74.8810   14.1880 C   0  0  0  0  0  0  0  0  0  0  0  0
   20.5720   73.7300   14.1040 O   0  0  0  0  0  0  0  0  0  0  0  0
   18.6370   74.9710   13.7850 C   0  0  0  0  0  0  0  0  0  0  0  0
   22.5860   77.2610   13.5240 C   0  0  0  0  0  0  0  0  0  0  0  0
   23.3540   77.7230   14.6940 C   0  0  0  0  0  0  0  0  0  0  0  0
   23.7480   77.0560   15.7670 N   0  0  0  0  0  0  0  0  0  0  0  0
   24.4430   77.8540   16.6230 C   0  0  0  0  0  0  0  0  0  0  0  0
   24.4800   79.0730   16.0520 N   0  0  0  0  0  0  0  0  0  0  0  0
   23.8210   79.0140   14.8750 C   0  0  0  0  0  0  0  0  0  0  0  0
   18.3470   75.1020    8.6470 O   0  0  0  0  0  0  0  0  0  0  0  0
   19.9430   76.0710    7.2420 C   0  0  0  0  0  0  0  0  0  0  0  0
   17.9920   76.6780    5.2140 H   0  0  0  0  0  0  0  0  0  0  0  0
   13.7740   75.5690    7.2790 H   0  0  0  0  0  0  0  0  0  0  0  0
   17.2920   77.6000    8.7400 H   0  0  0  0  0  0  0  0  0  0  0  0
   20.2890   76.3410    9.9080 H   0  0  0  0  0  0  0  0  0  0  0  0
   18.6520   76.9580   10.2760 H   0  0  0  0  0  0  0  0  0  0  0  0
   18.0060   79.4470    7.6650 H   0  0  0  0  0  0  0  0  0  0  0  0
   18.6730   78.6520    6.2460 H   0  0  0  0  0  0  0  0  0  0  0  0
   21.9260   77.5590    9.3950 H   0  0  0  0  0  0  0  0  0  0  0  0
   21.8200   79.2800    8.9770 H   0  0  0  0  0  0  0  0  0  0  0  0
   21.6300   79.8630   11.2890 H   0  0  0  0  0  0  0  0  0  0  0  0
   22.3400   78.2280   11.5340 H   0  0  0  0  0  0  0  0  0  0  0  0
   18.1500   78.6730   11.7340 H   0  0  0  0  0  0  0  0  0  0  0  0
   19.1570   80.1100   12.0610 H   0  0  0  0  0  0  0  0  0  0  0  0
   18.1480   79.6410    9.6790 H   0  0  0  0  0  0  0  0  0  0  0  0
   19.7420   80.4000    9.8780 H   0  0  0  0  0  0  0  0  0  0  0  0
   20.9990   78.0750   14.5870 H   0  0  0  0  0  0  0  0  0  0  0  0
   21.1710   76.0070   15.5990 H   0  0  0  0  0  0  0  0  0  0  0  0
   18.4010   74.2540   12.9970 H   0  0  0  0  0  0  0  0  0  0  0  0
   18.0050   74.7570   14.6740 H   0  0  0  0  0  0  0  0  0  0  0  0
   18.4140   75.9980   13.4570 H   0  0  0  0  0  0  0  0  0  0  0  0
   22.9370   76.2850   13.2120 H   0  0  0  0  0  0  0  0  0  0  0  0
   22.7150   77.9770   12.6700 H   0  0  0  0  0  0  0  0  0  0  0  0
   24.8730   77.5470   17.5740 H   0  0  0  0  0  0  0  0  0  0  0  0
   24.9540   79.8990   16.4920 H   0  0  0  0  0  0  0  0  0  0  0  0
   23.7040   79.8630   14.2180 H   0  0  0  0  0  0  0  0  0  0  0  0
   17.4090   75.0620    8.3310 H   0  0  0  0  0  0  0  0  0  0  0  0
   19.9570   75.0020    6.8880 H   0  0  0  0  0  0  0  0  0  0  0  0
   19.7940   76.6810    6.3170 H   0  0  0  0  0  0  0  0  0  0  0  0
   20.9460   76.2920    7.6100 H   0  0  0  0  0  0  0  0  0  0  0  0
  1  2  1  0  0  0  0
  2  8  1  0  0  0  0
  2  3  2  0  0  0  0
  3  4  1  0  0  0  0
  4  5  1  0  0  0  0
  4 10  1  0  0  0  0
  5  6  2  0  0  0  0
  7 37  1  0  0  0  0
  7  5  1  0  0  0  0
  8  7  1  0  0  0  0
  9  8  2  0  0  0  0
 10 11  1  0  0  0  0
 10 38  1  1  0  0  0
 11 34  1  1  0  0  0
 11 12  1  0  0  0  0
 12 39  1  0  0  0  0
 12 40  1  0  0  0  0
 13 14  1  6  0  0  0
 13 12  1  0  0  0  0
 13 16  1  0  0  0  0
 13 20  1  0  0  0  0
 15 41  1  0  0  0  0
 15 10  1  0  0  0  0
 15 14  1  0  0  0  0
 16 17  1  0  0  0  0
 17 45  1  0  0  0  0
 17 46  1  0  0  0  0
 17 18  1  0  0  0  0
 18 21  1  0  0  0  0
 19 47  1  0  0  0  0
 19 18  1  0  0  0  0
 19 48  1  0  0  0  0
 20 19  1  0  0  0  0
 21 23  1  0  0  0  0
 22 21  2  0  0  0  0
 23 51  1  1  0  0  0
 23 24  1  0  0  0  0
 24 52  1  0  0  0  0
 25 24  1  0  0  0  0
 26 25  2  0  0  0  0
 27 25  1  0  0  0  0
 27 54  1  0  0  0  0
 28 23  1  0  0  0  0
 28 29  1  0  0  0  0
 29 33  2  0  0  0  0
 29 30  1  0  0  0  0
 30 31  2  0  0  0  0
 31 58  1  0  0  0  0
 32 59  1  0  0  0  0
 32 31  1  0  0  0  0
 33 32  1  0  0  0  0
 35 64  1  0  0  0  0
 35 11  1  0  0  0  0
 36  3  1  0  0  0  0
 42 15  1  0  0  0  0
 43 16  1  0  0  0  0
 44 16  1  0  0  0  0
 49 20  1  0  0  0  0
 50 20  1  0  0  0  0
 53 27  1  0  0  0  0
 55 27  1  0  0  0  0
 56 28  1  0  0  0  0
 57 28  1  0  0  0  0
 60 33  1  0  0  0  0
 61 34  1  0  0  0  0
 62 35  1  0  0  0  0
 63 35  1  0  0  0  0
M  END
>  <Pose>
1

>  <Score>
-6.48

$$$$
