
 OpenBabel03222202113D

 41 44  0  0  1  0  0  0  0  0999 V2000
   16.3490   70.5490   11.7140 B   0  0  0  0  0  0  0  0  0  0  0  0
   17.7180   71.6590   12.4650 C   0  0  0  0  0  0  0  0  0  0  0  0
   17.4900   72.9750   12.8000 C   0  0  0  0  0  0  0  0  0  0  0  0
   18.4610   73.7680   13.3350 N   0  0  0  0  0  0  0  0  0  0  0  0
   19.6820   73.2420   13.5410 C   0  0  0  0  0  0  0  0  0  0  0  0
   20.4710   74.1930   14.0700 N   0  0  0  0  0  0  0  0  0  0  0  0
   19.7680   75.3320   14.2090 C   0  0  0  0  0  0  0  0  0  0  0  0
   18.5020   75.0500   13.7420 C   0  0  0  0  0  0  0  0  0  0  0  0
   20.2440   76.6310   14.7490 C   0  0  0  0  0  0  0  0  0  0  0  0
   21.4710   77.0470   14.1070 N   0  0  0  0  0  0  0  0  0  0  0  0
   22.0220   78.3020   14.4100 C   0  0  0  0  0  0  0  0  0  0  0  0
   21.5570   79.3330   13.8800 O   0  0  0  0  0  0  0  0  0  0  0  0
   23.1490   78.4170   15.3530 C   0  0  1  0  0  0  0  0  0  0  0  0
   22.8610   79.4670   16.3970 C   0  0  0  0  0  0  0  0  0  0  0  0
   21.6670   79.0440   17.1030 N   0  0  0  0  0  0  0  0  0  0  0  0
   21.4550   77.7400   17.3460 C   0  0  0  0  0  0  0  0  0  0  0  0
   20.2840   77.6510   18.0080 N   0  0  0  0  0  0  0  0  0  0  0  0
   19.7870   78.8410   18.1720 N   0  0  0  0  0  0  0  0  0  0  0  0
   20.6360   79.7150   17.6160 C   0  0  0  0  0  0  0  0  0  0  0  0
   20.3880   81.1900   17.6120 C   0  0  0  0  0  0  0  0  0  0  0  0
   22.3630   76.6540   16.9440 C   0  0  0  0  0  0  0  0  0  0  0  0
   23.4180   77.0760   15.9840 C   0  0  0  0  0  0  0  0  0  0  0  0
   19.9440   71.9150   13.2130 C   0  0  0  0  0  0  0  0  0  0  0  0
   18.9670   71.1160   12.6730 C   0  0  0  0  0  0  0  0  0  0  0  0
   16.5180   73.3850   12.6330 H   0  0  0  0  0  0  0  0  0  0  0  0
   17.6350   75.6930   13.6780 H   0  0  0  0  0  0  0  0  0  0  0  0
   19.4320   77.3900   14.6390 H   0  0  0  0  0  0  0  0  0  0  0  0
   20.4200   76.5310   15.8550 H   0  0  0  0  0  0  0  0  0  0  0  0
   21.9520   76.4320   13.4240 H   0  0  0  0  0  0  0  0  0  0  0  0
   24.0610   78.6780   14.7650 H   0  0  0  0  0  0  0  0  0  0  0  0
   23.7210   79.5060   17.1080 H   0  0  0  0  0  0  0  0  0  0  0  0
   22.7330   80.4440   15.8900 H   0  0  0  0  0  0  0  0  0  0  0  0
   20.9910   81.6690   16.8360 H   0  0  0  0  0  0  0  0  0  0  0  0
   19.3080   81.4010   17.3840 H   0  0  0  0  0  0  0  0  0  0  0  0
   20.5940   81.5830   18.6280 H   0  0  0  0  0  0  0  0  0  0  0  0
   22.8790   76.2370   17.8530 H   0  0  0  0  0  0  0  0  0  0  0  0
   21.7460   75.8190   16.5510 H   0  0  0  0  0  0  0  0  0  0  0  0
   23.4800   76.3240   15.1510 H   0  0  0  0  0  0  0  0  0  0  0  0
   24.4270   77.1070   16.4500 H   0  0  0  0  0  0  0  0  0  0  0  0
   20.9460   71.5530   13.4030 H   0  0  0  0  0  0  0  0  0  0  0  0
   19.2190   70.0870   12.4330 H   0  0  0  0  0  0  0  0  0  0  0  0
  1  2  1  0  0  0  0
  2 24  1  0  0  0  0
  2  3  2  0  0  0  0
  3  4  1  0  0  0  0
  4  5  1  0  0  0  0
  4  8  1  0  0  0  0
  5  6  2  0  0  0  0
  6  7  1  0  0  0  0
  7  9  1  0  0  0  0
  8  7  2  0  0  0  0
  9 28  1  0  0  0  0
 10 11  1  0  0  0  0
 10  9  1  0  0  0  0
 11 13  1  0  0  0  0
 12 11  2  0  0  0  0
 13 30  1  6  0  0  0
 13 22  1  0  0  0  0
 13 14  1  0  0  0  0
 14 15  1  0  0  0  0
 14 31  1  0  0  0  0
 15 16  1  0  0  0  0
 15 19  1  0  0  0  0
 16 17  2  0  0  0  0
 17 18  1  0  0  0  0
 19 18  2  0  0  0  0
 20 19  1  0  0  0  0
 20 35  1  0  0  0  0
 21 16  1  0  0  0  0
 21 36  1  0  0  0  0
 22 39  1  0  0  0  0
 22 21  1  0  0  0  0
 23 40  1  0  0  0  0
 23  5  1  0  0  0  0
 24 23  2  0  0  0  0
 25  3  1  0  0  0  0
 26  8  1  0  0  0  0
 27  9  1  0  0  0  0
 29 10  1  0  0  0  0
 32 14  1  0  0  0  0
 33 20  1  0  0  0  0
 34 20  1  0  0  0  0
 37 21  1  0  0  0  0
 38 22  1  0  0  0  0
 41 24  1  0  0  0  0
M  END
>  <Pose>
1

>  <Score>
-6.39

$$$$
