
 OpenBabel03222202113D

 37 40  0  0  1  0  0  0  0  0999 V2000
   16.0530   70.2430   11.4210 B   0  0  0  0  0  0  0  0  0  0  0  0
   17.4570   71.2890   12.2120 C   0  0  0  0  0  0  0  0  0  0  0  0
   17.3040   72.6360   12.4540 C   0  0  0  0  0  0  0  0  0  0  0  0
   18.2870   73.3890   13.0130 N   0  0  0  0  0  0  0  0  0  0  0  0
   18.3900   74.6670   13.3410 N   0  0  0  0  0  0  0  0  0  0  0  0
   19.5850   74.9490   13.8770 C   0  0  0  0  0  0  0  0  0  0  0  0
   20.2550   73.7250   13.8690 C   0  0  0  0  0  0  0  0  0  0  0  0
   19.4340   72.7580   13.3260 C   0  0  0  0  0  0  0  0  0  0  0  0
   19.5960   71.4290   13.0920 N   0  0  0  0  0  0  0  0  0  0  0  0
   18.6400   70.6660   12.5420 C   0  0  0  0  0  0  0  0  0  0  0  0
   20.1200   76.2230   14.3760 C   0  0  0  0  0  0  0  0  0  0  0  0
   20.1940   76.4140   15.6200 O   0  0  0  0  0  0  0  0  0  0  0  0
   20.5640   77.2580   13.5140 N   0  0  0  0  0  0  0  0  0  0  0  0
   19.7650   77.6610   12.4160 C   0  0  0  0  0  0  0  0  0  0  0  0
   20.5370   78.2320   11.2860 C   0  0  2  0  0  0  0  0  0  0  0  0
   21.9570   78.3180   11.4760 N   0  0  2  0  0  0  0  0  0  0  0  0
   22.2870   78.8770   12.7740 C   0  0  0  0  0  0  0  0  0  0  0  0
   21.8360   77.8610   13.8060 C   0  0  0  0  0  0  0  0  0  0  0  0
   22.4000   79.1030   10.3640 C   0  0  0  0  0  0  0  0  0  0  0  0
   21.3260   80.1400   10.1510 C   0  0  0  0  0  0  0  0  0  0  0  0
   20.1580   79.6740   10.9920 C   0  0  0  0  0  0  0  0  0  0  0  0
   16.3680   73.1010   12.1870 H   0  0  0  0  0  0  0  0  0  0  0  0
   21.2620   73.6150   14.2440 H   0  0  0  0  0  0  0  0  0  0  0  0
   18.7800   69.5970   12.3580 H   0  0  0  0  0  0  0  0  0  0  0  0
   18.9990   78.3990   12.7610 H   0  0  0  0  0  0  0  0  0  0  0  0
   19.1420   76.7830   12.0580 H   0  0  0  0  0  0  0  0  0  0  0  0
   20.3720   77.6330   10.3610 H   0  0  0  0  0  0  0  0  0  0  0  0
   23.3890   78.9520   12.8260 H   0  0  0  0  0  0  0  0  0  0  0  0
   21.8750   79.8790   12.9400 H   0  0  0  0  0  0  0  0  0  0  0  0
   21.7810   78.3290   14.8110 H   0  0  0  0  0  0  0  0  0  0  0  0
   22.6380   77.0620   13.8930 H   0  0  0  0  0  0  0  0  0  0  0  0
   22.4410   78.4120    9.4750 H   0  0  0  0  0  0  0  0  0  0  0  0
   23.3960   79.5600   10.5160 H   0  0  0  0  0  0  0  0  0  0  0  0
   21.7070   81.1340   10.4640 H   0  0  0  0  0  0  0  0  0  0  0  0
   21.0480   80.2230    9.0790 H   0  0  0  0  0  0  0  0  0  0  0  0
   19.1970   79.7300   10.4640 H   0  0  0  0  0  0  0  0  0  0  0  0
   20.1080   80.2210   11.9520 H   0  0  0  0  0  0  0  0  0  0  0  0
  1  2  1  0  0  0  0
  2  3  2  0  0  0  0
  2 10  1  0  0  0  0
  3  4  1  0  0  0  0
  4  8  1  0  0  0  0
  4  5  1  0  0  0  0
  5  6  2  0  0  0  0
  6 11  1  0  0  0  0
  7  6  1  0  0  0  0
  7 23  1  0  0  0  0
  8  7  2  0  0  0  0
  9  8  1  0  0  0  0
 10  9  2  0  0  0  0
 11 12  2  0  0  0  0
 13 18  1  0  0  0  0
 13 11  1  0  0  0  0
 14 25  1  0  0  0  0
 14 13  1  0  0  0  0
 15 27  1  6  0  0  0
 15 16  1  0  0  0  0
 15 14  1  0  0  0  0
 16 19  1  6  0  0  0
 16 17  1  0  0  0  0
 17 28  1  0  0  0  0
 17 29  1  0  0  0  0
 17 18  1  0  0  0  0
 18 31  1  0  0  0  0
 18 30  1  0  0  0  0
 19 33  1  0  0  0  0
 20 19  1  0  0  0  0
 20 34  1  0  0  0  0
 20 21  1  0  0  0  0
 21 15  1  0  0  0  0
 21 37  1  0  0  0  0
 22  3  1  0  0  0  0
 24 10  1  0  0  0  0
 26 14  1  0  0  0  0
 32 19  1  0  0  0  0
 35 20  1  0  0  0  0
 36 21  1  0  0  0  0
M  END
>  <Pose>
1

>  <Score>
-5.82

$$$$
