
 OpenBabel03222202113D

 40 43  0  0  0  0  0  0  0  0999 V2000
   17.7690   71.6430   12.5880 B   0  0  0  0  0  0  0  0  0  0  0  0
   18.3290   73.4340   12.1930 C   0  0  0  0  0  0  0  0  0  0  0  0
   18.5200   73.8620   10.8970 C   0  0  0  0  0  0  0  0  0  0  0  0
   18.9140   75.1140   10.5790 N   0  0  0  0  0  0  0  0  0  0  0  0
   19.1500   76.0390   11.5270 C   0  0  0  0  0  0  0  0  0  0  0  0
   19.5430   77.2890   11.2290 N   0  0  0  0  0  0  0  0  0  0  0  0
   19.7310   77.7160    9.9580 C   0  0  0  0  0  0  0  0  0  0  0  0
   19.4960   76.7840    8.9690 C   0  0  0  0  0  0  0  0  0  0  0  0
   19.0890   75.4940    9.2970 C   0  0  0  0  0  0  0  0  0  0  0  0
   18.8750   74.6480    8.4150 O   0  0  0  0  0  0  0  0  0  0  0  0
   20.1620   79.1060    9.6570 C   0  0  0  0  0  0  0  0  0  0  0  0
   21.5430   79.3120    9.8030 O   0  0  0  0  0  0  0  0  0  0  0  0
   22.2350   79.2880   10.9960 C   0  0  0  0  0  0  0  0  0  0  0  0
   23.3740   78.7820   11.0380 O   0  0  0  0  0  0  0  0  0  0  0  0
   21.5970   79.8710   12.1990 C   0  0  0  0  0  0  0  0  0  0  0  0
   22.3330   79.5390   13.3850 N   0  0  0  0  0  0  0  0  0  0  0  0
   22.3250   78.2940   14.0490 C   0  0  0  0  0  0  0  0  0  0  0  0
   21.6980   77.2410   13.7630 O   0  0  0  0  0  0  0  0  0  0  0  0
   23.2210   78.3910   15.2210 C   0  0  0  0  0  0  0  0  0  0  0  0
   23.7390   79.6570   15.2430 C   0  0  0  0  0  0  0  0  0  0  0  0
   24.6090   80.0590   16.2150 C   0  0  0  0  0  0  0  0  0  0  0  0
   24.9650   79.1580   17.1900 C   0  0  0  0  0  0  0  0  0  0  0  0
   24.4430   77.8790   17.1680 C   0  0  0  0  0  0  0  0  0  0  0  0
   23.5640   77.4650   16.1920 C   0  0  0  0  0  0  0  0  0  0  0  0
   23.1950   80.3940   14.1000 C   0  0  0  0  0  0  0  0  0  0  0  0
   23.4750   81.6010   13.8280 O   0  0  0  0  0  0  0  0  0  0  0  0
   18.9640   75.6330   12.8520 C   0  0  0  0  0  0  0  0  0  0  0  0
   18.5620   74.3590   13.1880 C   0  0  0  0  0  0  0  0  0  0  0  0
   18.3360   73.1310   10.1070 H   0  0  0  0  0  0  0  0  0  0  0  0
   19.6260   77.0610    7.9170 H   0  0  0  0  0  0  0  0  0  0  0  0
   19.8790   79.4010    8.6270 H   0  0  0  0  0  0  0  0  0  0  0  0
   19.6460   79.8420   10.3350 H   0  0  0  0  0  0  0  0  0  0  0  0
   20.5930   79.3650   12.2770 H   0  0  0  0  0  0  0  0  0  0  0  0
   21.4300   80.9650   12.0910 H   0  0  0  0  0  0  0  0  0  0  0  0
   25.0100   81.0570   16.2210 H   0  0  0  0  0  0  0  0  0  0  0  0
   25.6540   79.4970   17.9480 H   0  0  0  0  0  0  0  0  0  0  0  0
   24.7590   77.2160   17.9620 H   0  0  0  0  0  0  0  0  0  0  0  0
   23.1520   76.4690   16.1690 H   0  0  0  0  0  0  0  0  0  0  0  0
   19.1550   76.3790   13.6040 H   0  0  0  0  0  0  0  0  0  0  0  0
   18.4210   74.0490   14.2140 H   0  0  0  0  0  0  0  0  0  0  0  0
  2  1  1  0  0  0  0
  2 28  2  0  0  0  0
  3  2  1  0  0  0  0
  4  3  1  0  0  0  0
  4  5  1  0  0  0  0
  5 27  2  0  0  0  0
  6  5  1  0  0  0  0
  7  6  2  0  0  0  0
  8  9  1  0  0  0  0
  8  7  1  0  0  0  0
  9  4  1  0  0  0  0
 10  9  2  0  0  0  0
 11 12  1  0  0  0  0
 11  7  1  0  0  0  0
 11 32  1  0  0  0  0
 12 13  1  0  0  0  0
 13 14  2  0  0  0  0
 13 15  1  0  0  0  0
 15 33  1  0  0  0  0
 15 16  1  0  0  0  0
 16 17  1  0  0  0  0
 16 25  1  0  0  0  0
 17 19  1  0  0  0  0
 18 17  2  0  0  0  0
 19 20  2  0  0  0  0
 19 24  1  0  0  0  0
 20 21  1  0  0  0  0
 21 35  1  0  0  0  0
 21 22  2  0  0  0  0
 22 36  1  0  0  0  0
 23 22  1  0  0  0  0
 23 37  1  0  0  0  0
 24 23  2  0  0  0  0
 25 20  1  0  0  0  0
 26 25  2  0  0  0  0
 27 28  1  0  0  0  0
 27 39  1  0  0  0  0
 28 40  1  0  0  0  0
 29  3  1  0  0  0  0
 30  8  1  0  0  0  0
 31 11  1  0  0  0  0
 34 15  1  0  0  0  0
 38 24  1  0  0  0  0
M  END
>  <Pose>
1

>  <Score>
-7.05

$$$$
