
 OpenBabel03222202113D

 45 48  0  0  0  0  0  0  0  0999 V2000
   17.1950   74.8450    4.4700 B   0  0  0  0  0  0  0  0  0  0  0  0
   17.9360   75.4110    6.1370 C   0  0  0  0  0  0  0  0  0  0  0  0
   17.8660   76.7430    6.4820 C   0  0  0  0  0  0  0  0  0  0  0  0
   18.3860   77.1450    7.6530 N   0  0  0  0  0  0  0  0  0  0  0  0
   18.9750   76.2790    8.5030 C   0  0  0  0  0  0  0  0  0  0  0  0
   19.4940   76.7060    9.6790 N   0  0  0  0  0  0  0  0  0  0  0  0
   19.4480   77.9960   10.0560 C   0  0  0  0  0  0  0  0  0  0  0  0
   18.8500   78.8940    9.2030 C   0  0  0  0  0  0  0  0  0  0  0  0
   18.3150   78.4530    7.9880 C   0  0  0  0  0  0  0  0  0  0  0  0
   17.7730   79.2560    7.2100 O   0  0  0  0  0  0  0  0  0  0  0  0
   20.0190   78.4510   11.3480 C   0  0  0  0  0  0  0  0  0  0  0  0
   20.2590   79.8430   11.2720 O   0  0  0  0  0  0  0  0  0  0  0  0
   21.5190   80.3890   11.3270 C   0  0  0  0  0  0  0  0  0  0  0  0
   21.6740   81.5720   10.9280 O   0  0  0  0  0  0  0  0  0  0  0  0
   22.7240   79.6770   11.8270 C   0  0  0  0  0  0  0  0  0  0  0  0
   22.9520   79.8960   13.2250 N   0  0  0  0  0  0  0  0  0  0  0  0
   23.3300   81.1270   13.8400 C   0  0  0  0  0  0  0  0  0  0  0  0
   23.5200   82.2160   13.2270 O   0  0  0  0  0  0  0  0  0  0  0  0
   23.4500   80.9010   15.2400 N   0  0  0  0  0  0  0  0  0  0  0  0
   23.3050   79.4910   15.4980 C   0  0  0  0  0  0  0  0  0  0  0  0
   24.5980   78.8330   15.9010 C   0  0  0  0  0  0  0  0  0  0  0  0
   24.1470   77.5730   16.5710 C   0  0  0  0  0  0  0  0  0  0  0  0
   22.6860   77.7110   16.8820 C   0  0  0  0  0  0  0  0  0  0  0  0
   22.3980   79.1770   16.6400 C   0  0  0  0  0  0  0  0  0  0  0  0
   22.8360   78.9020   14.2450 C   0  0  0  0  0  0  0  0  0  0  0  0
   22.4020   77.7450   14.0420 O   0  0  0  0  0  0  0  0  0  0  0  0
   19.0500   74.9430    8.1630 C   0  0  0  0  0  0  0  0  0  0  0  0
   18.5330   74.4800    6.9740 C   0  0  0  0  0  0  0  0  0  0  0  0
   17.4020   77.4760    5.8320 H   0  0  0  0  0  0  0  0  0  0  0  0
   18.7990   79.9390    9.4810 H   0  0  0  0  0  0  0  0  0  0  0  0
   19.2890   78.2610   12.1570 H   0  0  0  0  0  0  0  0  0  0  0  0
   20.9640   77.8980   11.5550 H   0  0  0  0  0  0  0  0  0  0  0  0
   22.6560   78.5940   11.5770 H   0  0  0  0  0  0  0  0  0  0  0  0
   23.5840   80.0720   11.2240 H   0  0  0  0  0  0  0  0  0  0  0  0
   23.6140   81.6520   15.9330 H   0  0  0  0  0  0  0  0  0  0  0  0
   25.1420   78.5740   14.9480 H   0  0  0  0  0  0  0  0  0  0  0  0
   25.2390   79.4560   16.5270 H   0  0  0  0  0  0  0  0  0  0  0  0
   24.6950   77.4770   17.5500 H   0  0  0  0  0  0  0  0  0  0  0  0
   24.3710   76.6860   15.9340 H   0  0  0  0  0  0  0  0  0  0  0  0
   22.4580   77.4330   17.9360 H   0  0  0  0  0  0  0  0  0  0  0  0
   22.0360   77.0620   16.2430 H   0  0  0  0  0  0  0  0  0  0  0  0
   21.3250   79.3540   16.4330 H   0  0  0  0  0  0  0  0  0  0  0  0
   22.7080   79.7390   17.5530 H   0  0  0  0  0  0  0  0  0  0  0  0
   19.5270   74.2740    8.8610 H   0  0  0  0  0  0  0  0  0  0  0  0
   18.5800   73.4390    6.6910 H   0  0  0  0  0  0  0  0  0  0  0  0
  1  2  1  0  0  0  0
  2  3  1  0  0  0  0
  2 28  2  0  0  0  0
  3  4  1  0  0  0  0
  4  9  1  0  0  0  0
  4  5  1  0  0  0  0
  5  6  1  0  0  0  0
  6  7  2  0  0  0  0
  7 11  1  0  0  0  0
  8 30  1  0  0  0  0
  8  7  1  0  0  0  0
  9  8  1  0  0  0  0
 10  9  2  0  0  0  0
 11 32  1  0  0  0  0
 11 31  1  0  0  0  0
 12 13  1  0  0  0  0
 12 11  1  0  0  0  0
 13 15  1  0  0  0  0
 14 13  2  0  0  0  0
 15 16  1  0  0  0  0
 16 17  1  0  0  0  0
 16 25  1  0  0  0  0
 17 19  1  0  0  0  0
 18 17  2  0  0  0  0
 19 20  1  0  0  0  0
 19 35  1  0  0  0  0
 20 21  1  0  0  0  0
 20 24  1  0  0  0  0
 21 37  1  0  0  0  0
 21 22  1  0  0  0  0
 22 23  1  0  0  0  0
 22 38  1  0  0  0  0
 23 40  1  0  0  0  0
 24 23  1  0  0  0  0
 24 43  1  0  0  0  0
 25 20  1  0  0  0  0
 26 25  2  0  0  0  0
 27  5  2  0  0  0  0
 27 44  1  0  0  0  0
 28 27  1  0  0  0  0
 29  3  1  0  0  0  0
 33 15  1  0  0  0  0
 34 15  1  0  0  0  0
 36 21  1  0  0  0  0
 39 22  1  0  0  0  0
 41 23  1  0  0  0  0
 42 24  1  0  0  0  0
 45 28  1  0  0  0  0
M  END
>  <Pose>
1

>  <Score>
-6.97

$$$$
