
 OpenBabel03222202113D

 47 50  0  0  0  0  0  0  0  0999 V2000
   19.8060   78.0190   19.7400 B   0  0  0  0  0  0  0  0  0  0  0  0
   19.8330   79.8460   19.2170 C   0  0  0  0  0  0  0  0  0  0  0  0
   19.5530   80.8650   20.0590 C   0  0  0  0  0  0  0  0  0  0  0  0
   19.6540   82.1540   19.7220 N   0  0  0  0  0  0  0  0  0  0  0  0
   20.0540   82.4550   18.4870 C   0  0  0  0  0  0  0  0  0  0  0  0
   20.1580   83.7630   18.1170 N   0  0  0  0  0  0  0  0  0  0  0  0
   19.8760   84.7700   18.9320 C   0  0  0  0  0  0  0  0  0  0  0  0
   19.4610   84.4850   20.2130 C   0  0  0  0  0  0  0  0  0  0  0  0
   19.1470   85.4900   21.1060 C   0  0  0  0  0  0  0  0  0  0  0  0
   19.2310   86.8400   20.7660 C   0  0  0  0  0  0  0  0  0  0  0  0
   19.6470   87.1140   19.4810 C   0  0  0  0  0  0  0  0  0  0  0  0
   19.9640   86.1100   18.5820 C   0  0  0  0  0  0  0  0  0  0  0  0
   19.3640   83.1450   20.5710 C   0  0  0  0  0  0  0  0  0  0  0  0
   18.9870   82.8720   21.7320 O   0  0  0  0  0  0  0  0  0  0  0  0
   20.3400   81.4520   17.6240 N   0  0  0  0  0  0  0  0  0  0  0  0
   20.2620   80.1540   17.8830 C   0  0  0  0  0  0  0  0  0  0  0  0
   20.4300   79.0990   17.0430 N   0  0  0  0  0  0  0  0  0  0  0  0
   20.5950   78.0600   16.2160 C   0  0  0  0  0  0  0  0  0  0  0  0
   21.3860   78.2100   15.0690 C   0  0  0  0  0  0  0  0  0  0  0  0
   21.3840   77.2650   14.0960 C   0  0  0  0  0  0  0  0  0  0  0  0
   20.6080   76.1380   14.2210 C   0  0  0  0  0  0  0  0  0  0  0  0
   19.8140   75.9270   15.3270 C   0  0  0  0  0  0  0  0  0  0  0  0
   19.8320   76.9010   16.2980 C   0  0  0  0  0  0  0  0  0  0  0  0
   22.3540   79.3050   14.9350 C   0  0  0  0  0  0  0  0  0  0  0  0
   22.5700   79.7550   13.7810 O   0  0  0  0  0  0  0  0  0  0  0  0
   23.0500   79.8790   15.9590 O   0  0  0  0  0  0  0  0  0  0  0  0
   23.7890   79.1260   16.9010 C   0  0  0  0  0  0  0  0  0  0  0  0
   24.9680   78.4300   16.2160 C   0  0  0  0  0  0  0  0  0  0  0  0
   26.2520   78.9580   16.8110 C   0  0  0  0  0  0  0  0  0  0  0  0
   19.2230   80.6420   21.0730 H   0  0  0  0  0  0  0  0  0  0  0  0
   18.8330   85.2020   22.0860 H   0  0  0  0  0  0  0  0  0  0  0  0
   18.9780   87.6150   21.4830 H   0  0  0  0  0  0  0  0  0  0  0  0
   19.7240   88.1570   19.1800 H   0  0  0  0  0  0  0  0  0  0  0  0
   20.2890   86.3100   17.5740 H   0  0  0  0  0  0  0  0  0  0  0  0
   20.6500   81.8270   16.6690 H   0  0  0  0  0  0  0  0  0  0  0  0
   21.0060   78.3460   18.0270 H   0  0  0  0  0  0  0  0  0  0  0  0
   21.9900   77.3490   13.1790 H   0  0  0  0  0  0  0  0  0  0  0  0
   20.6240   75.4080   13.4240 H   0  0  0  0  0  0  0  0  0  0  0  0
   19.2300   75.0230   15.3660 H   0  0  0  0  0  0  0  0  0  0  0  0
   19.1970   76.7150   17.1540 H   0  0  0  0  0  0  0  0  0  0  0  0
   24.2280   79.7280   17.7160 H   0  0  0  0  0  0  0  0  0  0  0  0
   23.1700   78.3270   17.3660 H   0  0  0  0  0  0  0  0  0  0  0  0
   24.9320   77.3360   16.3780 H   0  0  0  0  0  0  0  0  0  0  0  0
   24.9770   78.6690   15.1260 H   0  0  0  0  0  0  0  0  0  0  0  0
   26.6750   79.7460   16.1620 H   0  0  0  0  0  0  0  0  0  0  0  0
   26.0700   79.4020   17.8260 H   0  0  0  0  0  0  0  0  0  0  0  0
   27.0110   78.1520   16.8830 H   0  0  0  0  0  0  0  0  0  0  0  0
  2  1  1  0  0  0  0
  2  3  1  0  0  0  0
  3 30  1  0  0  0  0
  4  3  1  0  0  0  0
  4 13  1  0  0  0  0
  5  4  1  0  0  0  0
  6  5  2  0  0  0  0
  6  7  1  0  0  0  0
  7  8  1  0  0  0  0
  8 13  1  0  0  0  0
  8  9  2  0  0  0  0
  9 31  1  0  0  0  0
 10  9  1  0  0  0  0
 10 32  1  0  0  0  0
 11 10  2  0  0  0  0
 12  7  2  0  0  0  0
 12 11  1  0  0  0  0
 13 14  2  0  0  0  0
 15 16  1  0  0  0  0
 15  5  1  0  0  0  0
 16  2  2  0  0  0  0
 17 16  1  0  0  0  0
 17 36  1  0  0  0  0
 18 23  1  0  0  0  0
 18 17  1  0  0  0  0
 19 18  2  0  0  0  0
 20 21  2  0  0  0  0
 20 19  1  0  0  0  0
 21 22  1  0  0  0  0
 22 39  1  0  0  0  0
 22 23  2  0  0  0  0
 23 40  1  0  0  0  0
 24 19  1  0  0  0  0
 24 26  1  0  0  0  0
 25 24  2  0  0  0  0
 26 27  1  0  0  0  0
 27 42  1  0  0  0  0
 27 41  1  0  0  0  0
 28 43  1  0  0  0  0
 28 29  1  0  0  0  0
 28 27  1  0  0  0  0
 29 47  1  0  0  0  0
 29 46  1  0  0  0  0
 33 11  1  0  0  0  0
 34 12  1  0  0  0  0
 35 15  1  0  0  0  0
 37 20  1  0  0  0  0
 38 21  1  0  0  0  0
 44 28  1  0  0  0  0
 45 29  1  0  0  0  0
M  END
>  <Pose>
1

>  <Score>
-6.35

$$$$
