
 OpenBabel03222202113D

 56 59  0  0  1  0  0  0  0  0999 V2000
   17.9160   75.4220    6.2640 B   0  0  0  0  0  0  0  0  0  0  0  0
   18.5350   76.6830    7.5800 C   0  0  0  0  0  0  0  0  0  0  0  0
   19.4790   76.2960    8.5140 C   0  0  0  0  0  0  0  0  0  0  0  0
   19.9310   77.2030    9.4690 C   0  0  0  0  0  0  0  0  0  0  0  0
   19.4570   78.4940    9.5090 C   0  0  0  0  0  0  0  0  0  0  0  0
   18.5180   78.8450    8.5660 C   0  0  0  0  0  0  0  0  0  0  0  0
   18.0550   77.9710    7.6130 C   0  0  0  0  0  0  0  0  0  0  0  0
   19.9170   79.4480   10.4950 C   0  0  0  0  0  0  0  0  0  0  0  0
   19.2130   80.4620   10.7490 O   0  0  0  0  0  0  0  0  0  0  0  0
   21.1960   79.2950   11.2380 C   0  0  0  0  0  0  0  0  0  0  0  0
   21.0460   78.4600   12.3920 N   0  0  0  0  0  0  0  0  0  0  0  0
   20.3080   77.3770   12.4900 N   0  0  0  0  0  0  0  0  0  0  0  0
   20.4070   76.8480   13.7180 C   0  0  0  0  0  0  0  0  0  0  0  0
   21.2420   77.6330   14.4150 N   0  0  0  0  0  0  0  0  0  0  0  0
   21.6370   78.6380   13.5780 C   0  0  2  0  0  0  0  0  0  0  0  0
   22.5500   79.7290   13.9140 C   0  0  0  0  0  0  0  0  0  0  0  0
   23.9070   79.2450   14.3690 C   0  0  0  0  0  0  0  0  0  0  0  0
   23.8550   78.6340   15.7520 C   0  0  0  0  0  0  0  0  0  0  0  0
   23.1620   77.3070   15.7840 C   0  0  0  0  0  0  0  0  0  0  0  0
   21.6470   77.4470   15.7940 C   0  0  0  0  0  0  0  0  0  0  0  0
   19.7450   75.6440   14.2380 C   0  0  0  0  0  0  0  0  0  0  0  0
   18.5530   75.3170   13.5180 N   0  0  0  0  0  0  0  0  0  0  0  0
   18.1980   73.9820   13.1690 C   0  0  0  0  0  0  0  0  0  0  0  0
   16.8920   73.5980   12.9660 C   0  0  0  0  0  0  0  0  0  0  0  0
   16.5630   72.3110   12.6260 C   0  0  0  0  0  0  0  0  0  0  0  0
   17.5460   71.3820   12.4840 C   0  0  0  0  0  0  0  0  0  0  0  0
   18.8540   71.7630   12.6880 C   0  0  0  0  0  0  0  0  0  0  0  0
   19.1960   73.0550   13.0290 C   0  0  0  0  0  0  0  0  0  0  0  0
   17.2460   70.0840   12.1450 O   0  0  0  0  0  0  0  0  0  0  0  0
   16.0090   69.7040   11.5940 C   0  0  0  0  0  0  0  0  0  0  0  0
   19.8440   75.2870    8.4750 H   0  0  0  0  0  0  0  0  0  0  0  0
   20.6650   76.8790   10.1840 H   0  0  0  0  0  0  0  0  0  0  0  0
   18.1280   79.8720    8.5820 H   0  0  0  0  0  0  0  0  0  0  0  0
   17.3230   78.3030    6.9040 H   0  0  0  0  0  0  0  0  0  0  0  0
   22.0200   78.9760   10.5710 H   0  0  0  0  0  0  0  0  0  0  0  0
   21.4510   80.3320   11.6070 H   0  0  0  0  0  0  0  0  0  0  0  0
   22.7170   80.3950   13.0500 H   0  0  0  0  0  0  0  0  0  0  0  0
   22.1630   80.3930   14.7390 H   0  0  0  0  0  0  0  0  0  0  0  0
   24.3930   78.5690   13.6650 H   0  0  0  0  0  0  0  0  0  0  0  0
   24.5540   80.1530   14.4500 H   0  0  0  0  0  0  0  0  0  0  0  0
   23.4670   79.3310   16.4970 H   0  0  0  0  0  0  0  0  0  0  0  0
   24.9290   78.4420   16.0380 H   0  0  0  0  0  0  0  0  0  0  0  0
   23.4340   76.6820   14.9350 H   0  0  0  0  0  0  0  0  0  0  0  0
   23.4820   76.7850   16.7270 H   0  0  0  0  0  0  0  0  0  0  0  0
   21.3150   78.2650   16.4530 H   0  0  0  0  0  0  0  0  0  0  0  0
   21.2130   76.5090   16.1710 H   0  0  0  0  0  0  0  0  0  0  0  0
   19.4930   75.8270   15.3150 H   0  0  0  0  0  0  0  0  0  0  0  0
   20.4240   74.7750   14.2260 H   0  0  0  0  0  0  0  0  0  0  0  0
   17.9040   76.0630   13.2260 H   0  0  0  0  0  0  0  0  0  0  0  0
   16.1390   74.3870   13.0930 H   0  0  0  0  0  0  0  0  0  0  0  0
   15.5310   72.0580   12.4760 H   0  0  0  0  0  0  0  0  0  0  0  0
   19.6660   71.0390   12.5810 H   0  0  0  0  0  0  0  0  0  0  0  0
   20.2470   73.3390   13.1850 H   0  0  0  0  0  0  0  0  0  0  0  0
   15.8810   68.6150   11.6370 H   0  0  0  0  0  0  0  0  0  0  0  0
   15.2010   70.1900   12.1770 H   0  0  0  0  0  0  0  0  0  0  0  0
   15.9070   70.0430   10.5390 H   0  0  0  0  0  0  0  0  0  0  0  0
  1  2  1  0  0  0  0
  2  7  2  0  0  0  0
  2  3  1  0  0  0  0
  3  4  2  0  0  0  0
  4  5  1  0  0  0  0
  4 32  1  0  0  0  0
  5  8  1  0  0  0  0
  6 33  1  0  0  0  0
  6  5  2  0  0  0  0
  7  6  1  0  0  0  0
  8  9  2  0  0  0  0
  8 10  1  0  0  0  0
 10 36  1  0  0  0  0
 10 11  1  0  0  0  0
 11 12  1  0  0  0  0
 12 13  2  0  0  0  0
 13 21  1  0  0  0  0
 13 14  1  0  0  0  0
 14 20  1  0  0  0  0
 15 11  1  1  0  0  0
 15 16  1  0  0  0  0
 15 14  1  0  0  0  0
 16 17  1  0  0  0  0
 16 38  1  0  0  0  0
 17 40  1  0  0  0  0
 17 18  1  0  0  0  0
 18 19  1  0  0  0  0
 18 42  1  0  0  0  0
 18 41  1  0  0  0  0
 19 20  1  0  0  0  0
 19 44  1  0  0  0  0
 20 46  1  0  0  0  0
 20 45  1  0  0  0  0
 21 47  1  0  0  0  0
 22 21  1  0  0  0  0
 23 22  1  0  0  0  0
 24 50  1  0  0  0  0
 24 23  2  0  0  0  0
 25 24  1  0  0  0  0
 26 25  2  0  0  0  0
 26 27  1  0  0  0  0
 27 28  2  0  0  0  0
 28 23  1  0  0  0  0
 28 53  1  0  0  0  0
 29 26  1  0  0  0  0
 30 54  1  0  0  0  0
 30 29  1  0  0  0  0
 30 55  1  0  0  0  0
 31  3  1  0  0  0  0
 34  7  1  0  0  0  0
 35 10  1  0  0  0  0
 37 16  1  0  0  0  0
 39 17  1  0  0  0  0
 43 19  1  0  0  0  0
 48 21  1  0  0  0  0
 49 22  1  0  0  0  0
 51 25  1  0  0  0  0
 52 27  1  0  0  0  0
 56 30  1  0  0  0  0
M  END
>  <Pose>
1

>  <Score>
-8.08

$$$$
