
 OpenBabel03222202113D

 53 56  0  0  1  0  0  0  0  0999 V2000
   21.7840   81.0490   10.6700 B   0  0  0  0  0  0  0  0  0  0  0  0
   22.0480   80.0570   12.2610 C   0  0  0  0  0  0  0  0  0  0  0  0
   21.6840   78.7250   12.2990 C   0  0  0  0  0  0  0  0  0  0  0  0
   21.8740   77.9830   13.4460 C   0  0  0  0  0  0  0  0  0  0  0  0
   22.4290   78.5550   14.5680 C   0  0  0  0  0  0  0  0  0  0  0  0
   22.7870   79.8680   14.5270 C   0  0  0  0  0  0  0  0  0  0  0  0
   22.6020   80.6410   13.3720 C   0  0  0  0  0  0  0  0  0  0  0  0
   22.6470   77.7960   15.8320 C   0  0  2  0  0  0  0  0  0  0  0  0
   21.3900   77.2390   16.3240 N   0  0  0  0  0  4  0  0  0  0  0  0
   20.8820   78.0440   17.3140 C   0  0  0  0  0  0  0  0  0  0  0  0
   19.9810   77.7830   18.2290 C   0  0  0  0  0  0  0  0  0  0  0  0
   19.3580   78.5690   19.3320 C   0  0  0  0  0  0  0  0  0  0  0  0
   19.9890   79.9060   19.5640 C   0  0  0  0  0  0  0  0  0  0  0  0
   19.9650   80.7580   18.3170 C   0  0  0  0  0  0  0  0  0  0  0  0
   21.2860   80.6380   17.5830 C   0  0  0  0  0  0  0  0  0  0  0  0
   21.6240   79.2850   17.2790 N   0  0  0  0  0  0  0  0  0  0  0  0
   22.9840   78.9340   16.8480 C   0  0  0  0  0  0  0  0  0  0  0  0
   20.6370   76.5480   15.4120 C   0  0  0  0  0  0  0  0  0  0  0  0
   20.8140   75.2450   15.0580 C   0  0  0  0  0  0  0  0  0  0  0  0
   20.1250   74.6400   13.9920 C   0  0  0  0  0  0  0  0  0  0  0  0
   19.2250   75.3540   13.2460 C   0  0  0  0  0  0  0  0  0  0  0  0
   19.0360   76.6810   13.6010 C   0  0  0  0  0  0  0  0  0  0  0  0
   19.7150   77.2700   14.6460 C   0  0  0  0  0  0  0  0  0  0  0  0
   18.5450   74.7790   12.1850 O   0  0  0  0  0  0  0  0  0  0  0  0
   17.5660   73.7770   12.2960 C   0  0  0  0  0  0  0  0  0  0  0  0
   18.3420   72.4610   12.4940 C   0  0  0  0  0  0  0  0  0  0  0  0
   23.6670   76.9260   15.8530 O   0  0  0  0  0  0  0  0  0  0  0  0
   21.2490   78.2200   11.4520 H   0  0  0  0  0  0  0  0  0  0  0  0
   21.5720   76.9320   13.4180 H   0  0  0  0  0  0  0  0  0  0  0  0
   23.2170   80.3260   15.3950 H   0  0  0  0  0  0  0  0  0  0  0  0
   22.8880   81.6840   13.3260 H   0  0  0  0  0  0  0  0  0  0  0  0
   21.8250   76.3870   16.9440 H   0  0  0  0  0  0  0  0  0  0  0  0
   19.6070   76.7610   18.2480 H   0  0  0  0  0  0  0  0  0  0  0  0
   19.4200   77.9880   20.2680 H   0  0  0  0  0  0  0  0  0  0  0  0
   18.2930   78.7680   19.0360 H   0  0  0  0  0  0  0  0  0  0  0  0
   20.9580   79.8580   20.0470 H   0  0  0  0  0  0  0  0  0  0  0  0
   19.3080   80.4340   20.2970 H   0  0  0  0  0  0  0  0  0  0  0  0
   19.1100   80.5120   17.7000 H   0  0  0  0  0  0  0  0  0  0  0  0
   19.8810   81.8460   18.6220 H   0  0  0  0  0  0  0  0  0  0  0  0
   21.3510   81.3570   16.7540 H   0  0  0  0  0  0  0  0  0  0  0  0
   22.0550   80.9880   18.3380 H   0  0  0  0  0  0  0  0  0  0  0  0
   23.5600   78.5640   17.6920 H   0  0  0  0  0  0  0  0  0  0  0  0
   23.4190   79.7860   16.3370 H   0  0  0  0  0  0  0  0  0  0  0  0
   21.4700   74.5900   15.5970 H   0  0  0  0  0  0  0  0  0  0  0  0
   20.3260   73.6100   13.7680 H   0  0  0  0  0  0  0  0  0  0  0  0
   18.3260   77.3190   13.0570 H   0  0  0  0  0  0  0  0  0  0  0  0
   19.5210   78.3360   14.8440 H   0  0  0  0  0  0  0  0  0  0  0  0
   16.9750   73.6900   11.3250 H   0  0  0  0  0  0  0  0  0  0  0  0
   16.8410   73.9760   13.0900 H   0  0  0  0  0  0  0  0  0  0  0  0
   18.1590   72.2060   13.5540 H   0  0  0  0  0  0  0  0  0  0  0  0
   19.4270   72.6190   12.3610 H   0  0  0  0  0  0  0  0  0  0  0  0
   18.0340   71.6810   11.7820 H   0  0  0  0  0  0  0  0  0  0  0  0
   23.5460   76.0270   16.1910 H   0  0  0  0  0  0  0  0  0  0  0  0
  1  2  1  0  0  0  0
  2  3  2  0  0  0  0
  2  7  1  0  0  0  0
  3  4  1  0  0  0  0
  4  5  2  0  0  0  0
  5  8  1  0  0  0  0
  6  5  1  0  0  0  0
  6 30  1  0  0  0  0
  7  6  2  0  0  0  0
  8 27  1  6  0  0  0
  8  9  1  0  0  0  0
  8 17  1  0  0  0  0
  9 32  1  0  0  0  0
  9 10  1  0  0  0  0
 10 11  2  0  0  0  0
 11 33  1  0  0  0  0
 11 12  1  0  0  0  0
 12 13  1  0  0  0  0
 12 34  1  0  0  0  0
 13 36  1  0  0  0  0
 13 37  1  0  0  0  0
 14 39  1  0  0  0  0
 14 13  1  0  0  0  0
 15 14  1  0  0  0  0
 15 41  1  0  0  0  0
 16 10  1  0  0  0  0
 16 15  1  0  0  0  0
 17 16  1  0  0  0  0
 17 42  1  0  0  0  0
 18  9  1  0  0  0  0
 19 18  1  0  0  0  0
 19 44  1  0  0  0  0
 20 19  2  0  0  0  0
 21 22  2  0  0  0  0
 21 20  1  0  0  0  0
 22 23  1  0  0  0  0
 23 47  1  0  0  0  0
 23 18  2  0  0  0  0
 24 25  1  0  0  0  0
 24 21  1  0  0  0  0
 25 26  1  0  0  0  0
 25 49  1  0  0  0  0
 26 50  1  0  0  0  0
 27 53  1  0  0  0  0
 28  3  1  0  0  0  0
 29  4  1  0  0  0  0
 31  7  1  0  0  0  0
 35 12  1  0  0  0  0
 38 14  1  0  0  0  0
 40 15  1  0  0  0  0
 43 17  1  0  0  0  0
 45 20  1  0  0  0  0
 46 22  1  0  0  0  0
 48 25  1  0  0  0  0
 51 26  1  0  0  0  0
 52 26  1  0  0  0  0
M  END
>  <Pose>
1

>  <Score>
-4.92

$$$$
