
 OpenBabel03222202113D

 50 53  0  0  1  0  0  0  0  0999 V2000
   21.3630   80.9150   10.0940 B   0  0  0  0  0  0  0  0  0  0  0  0
   21.7140   79.8920   11.6740 C   0  0  0  0  0  0  0  0  0  0  0  0
   21.1590   78.6390   11.8030 C   0  0  0  0  0  0  0  0  0  0  0  0
   21.3960   77.8690   12.9420 C   0  0  0  0  0  0  0  0  0  0  0  0
   22.2090   78.4310   13.9300 C   0  0  0  0  0  0  0  0  0  0  0  0
   22.7600   79.6680   13.8130 C   0  0  0  0  0  0  0  0  0  0  0  0
   22.5140   80.4170   12.6750 C   0  0  0  0  0  0  0  0  0  0  0  0
   22.5100   77.6250   15.1300 C   0  0  1  0  0  0  0  0  0  0  0  0
   23.3310   78.3840   16.0640 N   0  0  0  0  0  0  0  0  0  0  0  0
   24.2990   79.3840   15.6260 C   0  0  0  0  0  0  0  0  0  0  0  0
   25.2300   79.8080   16.7010 C   0  0  0  0  0  0  0  0  0  0  0  0
   25.9100   78.6670   17.4130 C   0  0  0  0  0  0  0  0  0  0  0  0
   25.0960   78.4130   18.6680 C   0  0  0  0  0  0  0  0  0  0  0  0
   23.7520   77.9600   18.4590 C   0  0  0  0  0  0  0  0  0  0  0  0
   22.9900   77.9460   17.3410 C   0  0  0  0  0  0  0  0  0  0  0  0
   21.6680   77.4610   17.3760 N   0  0  0  0  0  4  0  0  0  0  0  0
   21.3230   77.3580   15.9880 C   0  0  0  0  0  0  0  0  0  0  0  0
   20.8990   78.4530   18.0570 C   0  0  0  0  0  0  0  0  0  0  0  0
   20.2720   78.1630   19.2570 C   0  0  0  0  0  0  0  0  0  0  0  0
   19.4860   79.1720   19.7990 C   0  0  0  0  0  0  0  0  0  0  0  0
   19.3040   80.4130   19.2170 C   0  0  0  0  0  0  0  0  0  0  0  0
   19.9640   80.6610   17.9950 C   0  0  0  0  0  0  0  0  0  0  0  0
   20.7250   79.6750   17.4810 C   0  0  0  0  0  0  0  0  0  0  0  0
   20.4450   76.9460   19.8410 O   0  0  0  0  0  0  0  0  0  0  0  0
   19.4280   75.9780   19.8420 C   0  0  0  0  0  0  0  0  0  0  0  0
   23.2160   76.5040   14.7810 O   0  0  0  0  0  0  0  0  0  0  0  0
   20.5270   78.2020   11.0270 H   0  0  0  0  0  0  0  0  0  0  0  0
   20.9570   76.8910   12.9830 H   0  0  0  0  0  0  0  0  0  0  0  0
   23.4010   80.0990   14.6020 H   0  0  0  0  0  0  0  0  0  0  0  0
   22.9600   81.4180   12.5890 H   0  0  0  0  0  0  0  0  0  0  0  0
   24.8990   78.9160   14.8140 H   0  0  0  0  0  0  0  0  0  0  0  0
   23.7740   80.3230   15.2960 H   0  0  0  0  0  0  0  0  0  0  0  0
   26.0570   80.4070   16.2290 H   0  0  0  0  0  0  0  0  0  0  0  0
   24.6790   80.4840   17.3880 H   0  0  0  0  0  0  0  0  0  0  0  0
   26.9400   78.9880   17.7830 H   0  0  0  0  0  0  0  0  0  0  0  0
   25.9680   77.7480   16.7960 H   0  0  0  0  0  0  0  0  0  0  0  0
   25.1060   79.3900   19.2480 H   0  0  0  0  0  0  0  0  0  0  0  0
   25.6710   77.6750   19.2920 H   0  0  0  0  0  0  0  0  0  0  0  0
   23.2570   77.5550   19.3280 H   0  0  0  0  0  0  0  0  0  0  0  0
   21.5640   76.5180   17.8180 H   0  0  0  0  0  0  0  0  0  0  0  0
   20.4450   77.9880   15.7180 H   0  0  0  0  0  0  0  0  0  0  0  0
   20.9810   76.3280   15.7930 H   0  0  0  0  0  0  0  0  0  0  0  0
   18.9990   78.9160   20.7380 H   0  0  0  0  0  0  0  0  0  0  0  0
   18.6940   81.1860   19.6480 H   0  0  0  0  0  0  0  0  0  0  0  0
   19.8240   81.6120   17.5330 H   0  0  0  0  0  0  0  0  0  0  0  0
   21.2030   79.9270   16.5100 H   0  0  0  0  0  0  0  0  0  0  0  0
   18.4780   76.4450   20.1830 H   0  0  0  0  0  0  0  0  0  0  0  0
   19.3130   75.6010   18.8160 H   0  0  0  0  0  0  0  0  0  0  0  0
   19.7280   75.1540   20.5580 H   0  0  0  0  0  0  0  0  0  0  0  0
   23.4590   75.9290   15.5360 H   0  0  0  0  0  0  0  0  0  0  0  0
  1  2  1  0  0  0  0
  2  3  2  0  0  0  0
  2  7  1  0  0  0  0
  3  4  1  0  0  0  0
  4 28  1  0  0  0  0
  4  5  2  0  0  0  0
  5  8  1  0  0  0  0
  6  5  1  0  0  0  0
  6 29  1  0  0  0  0
  7  6  2  0  0  0  0
  8 26  1  6  0  0  0
  8 17  1  0  0  0  0
  8  9  1  0  0  0  0
  9 15  1  0  0  0  0
 10  9  1  0  0  0  0
 10 11  1  0  0  0  0
 11 34  1  0  0  0  0
 11 12  1  0  0  0  0
 12 35  1  0  0  0  0
 12 13  1  0  0  0  0
 13 37  1  0  0  0  0
 13 38  1  0  0  0  0
 14 13  1  0  0  0  0
 14 39  1  0  0  0  0
 15 16  1  0  0  0  0
 15 14  2  0  0  0  0
 16 40  1  0  0  0  0
 16 18  1  0  0  0  0
 17 16  1  0  0  0  0
 18 19  1  0  0  0  0
 19 20  2  0  0  0  0
 19 24  1  0  0  0  0
 20 43  1  0  0  0  0
 21 44  1  0  0  0  0
 21 20  1  0  0  0  0
 22 21  2  0  0  0  0
 23 22  1  0  0  0  0
 23 18  2  0  0  0  0
 24 25  1  0  0  0  0
 25 47  1  0  0  0  0
 25 49  1  0  0  0  0
 26 50  1  0  0  0  0
 27  3  1  0  0  0  0
 30  7  1  0  0  0  0
 31 10  1  0  0  0  0
 32 10  1  0  0  0  0
 33 11  1  0  0  0  0
 36 12  1  0  0  0  0
 41 17  1  0  0  0  0
 42 17  1  0  0  0  0
 45 22  1  0  0  0  0
 46 23  1  0  0  0  0
 48 25  1  0  0  0  0
M  END
>  <Pose>
1

>  <Score>
-4.29

$$$$
