
 OpenBabel03222202113D

 56 59  0  0  1  0  0  0  0  0999 V2000
   16.4020   70.2770   12.0080 B   0  0  0  0  0  0  0  0  0  0  0  0
   17.4260   71.8220   12.4290 C   0  0  0  0  0  0  0  0  0  0  0  0
   18.8100   71.7360   12.5400 C   0  0  0  0  0  0  0  0  0  0  0  0
   19.5470   72.8500   12.8440 C   0  0  0  0  0  0  0  0  0  0  0  0
   18.9230   74.0620   13.0420 C   0  0  0  0  0  0  0  0  0  0  0  0
   17.5500   74.1290   12.9280 C   0  0  0  0  0  0  0  0  0  0  0  0
   16.7800   73.0300   12.6240 C   0  0  0  0  0  0  0  0  0  0  0  0
   19.6900   75.2290   13.3650 N   0  0  0  0  0  0  0  0  0  0  0  0
   20.8390   75.6490   12.5890 C   0  0  0  0  0  0  0  0  0  0  0  0
   20.5360   76.8100   11.6930 C   0  0  0  0  0  0  0  0  0  0  0  0
   20.9800   78.0770   11.7470 N   0  0  0  0  0  0  0  0  0  0  0  0
   20.4300   78.7550   10.7230 C   0  0  1  0  0  0  0  0  0  0  0  0
   19.6280   77.8890   10.0180 N   0  0  0  0  0  0  0  0  0  0  0  0
   19.7200   76.7240   10.6360 N   0  0  0  0  0  0  0  0  0  0  0  0
   18.8140   78.1500    8.8980 C   0  0  0  0  0  0  0  0  0  0  0  0
   18.8390   77.2220    7.7990 C   0  0  1  0  0  0  0  0  0  0  0  0
   20.0560   76.7210    7.5810 O   0  0  0  0  0  0  0  0  0  0  0  0
   17.8530   76.7140    6.8870 C   0  0  0  0  0  0  0  0  0  0  0  0
   18.1440   75.6080    6.0600 C   0  0  0  0  0  0  0  0  0  0  0  0
   17.2430   75.0870    5.1690 C   0  0  0  0  0  0  0  0  0  0  0  0
   15.9900   75.6290    5.0370 C   0  0  0  0  0  0  0  0  0  0  0  0
   15.6660   76.7030    5.8200 C   0  0  0  0  0  0  0  0  0  0  0  0
   16.6020   77.2280    6.7310 C   0  0  0  0  0  0  0  0  0  0  0  0
   15.0740   75.0970    4.1310 O   0  0  0  0  0  0  0  0  0  0  0  0
   15.3030   75.0900    2.7430 C   0  0  0  0  0  0  0  0  0  0  0  0
   20.5370   80.1490   10.2830 C   0  0  0  0  0  0  0  0  0  0  0  0
   21.8780   80.7900   10.5240 C   0  0  0  0  0  0  0  0  0  0  0  0
   22.2600   80.8590   11.9660 C   0  0  0  0  0  0  0  0  0  0  0  0
   22.8980   79.5360   12.3210 C   0  0  0  0  0  0  0  0  0  0  0  0
   21.8750   78.5200   12.7650 C   0  0  0  0  0  0  0  0  0  0  0  0
   19.2620   70.7540   12.3750 H   0  0  0  0  0  0  0  0  0  0  0  0
   20.6100   72.7760   12.9250 H   0  0  0  0  0  0  0  0  0  0  0  0
   17.0620   75.0710   13.0820 H   0  0  0  0  0  0  0  0  0  0  0  0
   15.7030   73.0560   12.5280 H   0  0  0  0  0  0  0  0  0  0  0  0
   19.3770   75.7710   14.2000 H   0  0  0  0  0  0  0  0  0  0  0  0
   21.7130   75.8890   13.2550 H   0  0  0  0  0  0  0  0  0  0  0  0
   21.1790   74.7850   11.9790 H   0  0  0  0  0  0  0  0  0  0  0  0
   18.9600   79.2300    8.5310 H   0  0  0  0  0  0  0  0  0  0  0  0
   17.7010   78.2210    9.2100 H   0  0  0  0  0  0  0  0  0  0  0  0
   19.1310   75.1760    6.1590 H   0  0  0  0  0  0  0  0  0  0  0  0
   17.5320   74.2310    4.5630 H   0  0  0  0  0  0  0  0  0  0  0  0
   14.6780   77.1430    5.7270 H   0  0  0  0  0  0  0  0  0  0  0  0
   16.2560   78.0540    7.2790 H   0  0  0  0  0  0  0  0  0  0  0  0
   15.5920   76.1150    2.4130 H   0  0  0  0  0  0  0  0  0  0  0  0
   14.3460   74.8440    2.2390 H   0  0  0  0  0  0  0  0  0  0  0  0
   16.0700   74.3490    2.4470 H   0  0  0  0  0  0  0  0  0  0  0  0
   19.7730   80.7870   10.7730 H   0  0  0  0  0  0  0  0  0  0  0  0
   20.3740   80.1860    9.1860 H   0  0  0  0  0  0  0  0  0  0  0  0
   21.7980   81.8360   10.1490 H   0  0  0  0  0  0  0  0  0  0  0  0
   22.6880   80.3160    9.9360 H   0  0  0  0  0  0  0  0  0  0  0  0
   23.0400   81.6530   12.0990 H   0  0  0  0  0  0  0  0  0  0  0  0
   21.4080   81.0220   12.6310 H   0  0  0  0  0  0  0  0  0  0  0  0
   23.5650   79.7180   13.1880 H   0  0  0  0  0  0  0  0  0  0  0  0
   23.5490   79.1440   11.5030 H   0  0  0  0  0  0  0  0  0  0  0  0
   21.2900   78.9970   13.5790 H   0  0  0  0  0  0  0  0  0  0  0  0
   22.4570   77.6450   13.1240 H   0  0  0  0  0  0  0  0  0  0  0  0
  1  2  1  0  0  0  0
  2  3  2  0  0  0  0
  2  7  1  0  0  0  0
  3  4  1  0  0  0  0
  4 32  1  0  0  0  0
  4  5  2  0  0  0  0
  5  8  1  0  0  0  0
  6  5  1  0  0  0  0
  6 33  1  0  0  0  0
  7  6  2  0  0  0  0
  8 35  1  0  0  0  0
  9 36  1  0  0  0  0
  9  8  1  0  0  0  0
 10 11  1  0  0  0  0
 10  9  1  0  0  0  0
 11 30  1  0  0  0  0
 12 13  1  1  0  0  0
 12 11  1  0  0  0  0
 13 14  1  0  0  0  0
 14 10  2  0  0  0  0
 15 39  1  0  0  0  0
 15 13  1  0  0  0  0
 16 17  1  1  0  0  0
 16 15  1  0  0  0  0
 18 16  1  0  0  0  0
 19 40  1  0  0  0  0
 19 18  2  0  0  0  0
 20 19  1  0  0  0  0
 21 20  2  0  0  0  0
 21 22  1  0  0  0  0
 22 23  2  0  0  0  0
 23 18  1  0  0  0  0
 23 43  1  0  0  0  0
 24 21  1  0  0  0  0
 25 24  1  0  0  0  0
 26 27  1  0  0  0  0
 26 12  1  0  0  0  0
 26 47  1  0  0  0  0
 27 28  1  0  0  0  0
 28 51  1  0  0  0  0
 28 29  1  0  0  0  0
 28 52  1  0  0  0  0
 29 30  1  0  0  0  0
 29 53  1  0  0  0  0
 30 56  1  0  0  0  0
 30 55  1  0  0  0  0
 31  3  1  0  0  0  0
 34  7  1  0  0  0  0
 37  9  1  0  0  0  0
 38 15  1  0  0  0  0
 41 20  1  0  0  0  0
 42 22  1  0  0  0  0
 44 25  1  0  0  0  0
 45 25  1  0  0  0  0
 46 25  1  0  0  0  0
 48 26  1  0  0  0  0
 49 27  1  0  0  0  0
 50 27  1  0  0  0  0
 54 29  1  0  0  0  0
M  END
>  <Pose>
1

>  <Score>
-7.07

$$$$
