
 OpenBabel03222202113D

 66 69  0  0  1  0  0  0  0  0999 V2000
   19.4250   77.4840   10.4090 B   0  0  0  0  0  0  0  0  0  0  0  0
   19.4460   76.3410   11.9470 C   0  0  0  0  0  0  0  0  0  0  0  0
   19.8210   76.8460   13.1700 C   0  0  0  0  0  0  0  0  0  0  0  0
   19.8500   76.0430   14.3220 C   0  0  0  0  0  0  0  0  0  0  0  0
   19.4840   74.7250   14.1610 C   0  0  0  0  0  0  0  0  0  0  0  0
   19.1050   74.1930   12.9470 C   0  0  0  0  0  0  0  0  0  0  0  0
   19.0840   75.0000   11.8330 C   0  0  0  0  0  0  0  0  0  0  0  0
   18.6900   74.5210   10.4820 C   0  0  0  0  0  0  0  0  0  0  0  0
   18.6020   72.3620   12.7540 B   0  0  0  0  0  0  0  0  0  0  0  0
   20.2540   76.6160   15.5890 C   0  0  0  0  0  0  0  0  0  0  0  0
   20.1840   75.9460   16.6250 O   0  0  0  0  0  0  0  0  0  0  0  0
   20.7500   78.0030   15.6320 C   0  0  1  0  0  0  0  0  0  0  0  0
   20.0050   78.7770   14.5660 C   0  0  0  0  0  0  0  0  0  0  0  0
   20.1840   78.1840   13.2920 O   0  0  0  0  0  0  0  0  0  0  0  0
   20.6160   78.6490   16.9780 C   0  0  0  0  0  0  0  0  0  0  0  0
   19.3030   78.7560   17.4870 N   0  0  0  0  0  4  0  0  0  0  0  0
   19.2200   78.1120   18.7650 C   0  0  0  0  0  0  0  0  0  0  0  0
   19.9150   78.8140   19.8750 C   0  0  2  0  0  0  0  0  0  0  0  0
   20.4170   80.1770   19.5920 C   0  0  0  0  0  0  0  0  0  0  0  0
   19.7680   80.9070   18.4820 C   0  0  0  0  0  0  0  0  0  0  0  0
   18.8080   80.0930   17.6640 C   0  0  0  0  0  0  0  0  0  0  0  0
   21.1160   77.9540   20.2870 C   0  0  0  0  0  0  0  0  0  0  0  0
   22.2090   77.9380   15.2320 C   0  0  0  0  0  0  0  0  0  0  0  0
   22.8370   79.1960   15.0130 N   0  0  0  0  0  4  0  0  0  0  0  0
   24.2880   79.0310   14.9390 C   0  0  0  0  0  0  0  0  0  0  0  0
   24.9780   79.4140   16.2150 C   0  0  1  0  0  0  0  0  0  0  0  0
   24.1840   78.8970   17.3940 C   0  0  0  0  0  0  0  0  0  0  0  0
   22.8870   79.6440   17.4350 C   0  0  0  0  0  0  0  0  0  0  0  0
   22.5910   80.1710   16.0520 C   0  0  0  0  0  0  0  0  0  0  0  0
   26.3200   78.6690   16.2400 C   0  0  0  0  0  0  0  0  0  0  0  0
   19.4880   74.0580   15.0190 H   0  0  0  0  0  0  0  0  0  0  0  0
   17.7770   75.0790   10.1780 H   0  0  0  0  0  0  0  0  0  0  0  0
   18.5820   73.4370   10.4260 H   0  0  0  0  0  0  0  0  0  0  0  0
   19.4960   74.8840    9.7830 H   0  0  0  0  0  0  0  0  0  0  0  0
   18.9230   78.7890   14.7620 H   0  0  0  0  0  0  0  0  0  0  0  0
   20.3200   79.8570   14.5550 H   0  0  0  0  0  0  0  0  0  0  0  0
   21.2090   78.0270   17.6800 H   0  0  0  0  0  0  0  0  0  0  0  0
   21.1340   79.6290   16.9380 H   0  0  0  0  0  0  0  0  0  0  0  0
   18.6280   78.2640   16.8480 H   0  0  0  0  0  0  0  0  0  0  0  0
   18.1170   78.0000   18.9900 H   0  0  0  0  0  0  0  0  0  0  0  0
   19.5810   77.0700   18.6430 H   0  0  0  0  0  0  0  0  0  0  0  0
   19.2440   78.8100   20.7650 H   0  0  0  0  0  0  0  0  0  0  0  0
   20.2950   80.7900   20.5310 H   0  0  0  0  0  0  0  0  0  0  0  0
   21.5360   80.1820   19.4280 H   0  0  0  0  0  0  0  0  0  0  0  0
   20.5290   81.3810   17.7940 H   0  0  0  0  0  0  0  0  0  0  0  0
   19.1780   81.7970   18.8560 H   0  0  0  0  0  0  0  0  0  0  0  0
   18.5150   80.6260   16.7690 H   0  0  0  0  0  0  0  0  0  0  0  0
   17.8710   79.9960   18.2910 H   0  0  0  0  0  0  0  0  0  0  0  0
   21.3110   78.0500   21.3840 H   0  0  0  0  0  0  0  0  0  0  0  0
   20.9550   76.9170   19.9660 H   0  0  0  0  0  0  0  0  0  0  0  0
   22.0000   78.3420   19.7460 H   0  0  0  0  0  0  0  0  0  0  0  0
   22.2300   77.3460   14.2720 H   0  0  0  0  0  0  0  0  0  0  0  0
   22.7660   77.2820   15.9600 H   0  0  0  0  0  0  0  0  0  0  0  0
   22.5460   79.5950   14.1170 H   0  0  0  0  0  0  0  0  0  0  0  0
   24.7250   79.6170   14.1130 H   0  0  0  0  0  0  0  0  0  0  0  0
   24.5520   77.9580   14.7440 H   0  0  0  0  0  0  0  0  0  0  0  0
   25.2230   80.4810   16.2910 H   0  0  0  0  0  0  0  0  0  0  0  0
   24.7920   79.0850   18.3020 H   0  0  0  0  0  0  0  0  0  0  0  0
   24.0700   77.8150   17.2780 H   0  0  0  0  0  0  0  0  0  0  0  0
   22.0460   79.0970   17.8510 H   0  0  0  0  0  0  0  0  0  0  0  0
   23.0300   80.5530   18.0870 H   0  0  0  0  0  0  0  0  0  0  0  0
   23.2840   81.0350   15.8290 H   0  0  0  0  0  0  0  0  0  0  0  0
   21.5860   80.5940   16.0660 H   0  0  0  0  0  0  0  0  0  0  0  0
   26.6800   78.5060   15.1970 H   0  0  0  0  0  0  0  0  0  0  0  0
   26.2380   77.7160   16.8030 H   0  0  0  0  0  0  0  0  0  0  0  0
   27.0940   79.2700   16.7600 H   0  0  0  0  0  0  0  0  0  0  0  0
  1  2  1  0  0  0  0
  2  3  1  0  0  0  0
  3 14  1  0  0  0  0
  3  4  2  0  0  0  0
  4 10  1  0  0  0  0
  5  4  1  0  0  0  0
  5 31  1  0  0  0  0
  6  5  2  0  0  0  0
  7  2  2  0  0  0  0
  7  6  1  0  0  0  0
  8  7  1  0  0  0  0
  9  6  1  0  0  0  0
 10 12  1  0  0  0  0
 10 11  2  0  0  0  0
 12 23  1  6  0  0  0
 12 15  1  0  0  0  0
 13 35  1  0  0  0  0
 13 12  1  0  0  0  0
 14 13  1  0  0  0  0
 15 16  1  0  0  0  0
 15 37  1  0  0  0  0
 16 21  1  0  0  0  0
 16 17  1  0  0  0  0
 17 40  1  0  0  0  0
 17 18  1  0  0  0  0
 18 22  1  0  0  0  0
 18 42  1  1  0  0  0
 19 18  1  0  0  0  0
 19 43  1  0  0  0  0
 20 46  1  0  0  0  0
 20 19  1  0  0  0  0
 21 48  1  0  0  0  0
 21 20  1  0  0  0  0
 22 49  1  0  0  0  0
 23 53  1  0  0  0  0
 24 23  1  0  0  0  0
 24 29  1  0  0  0  0
 25 24  1  0  0  0  0
 25 26  1  0  0  0  0
 26 30  1  0  0  0  0
 26 57  1  1  0  0  0
 26 27  1  0  0  0  0
 27 28  1  0  0  0  0
 27 58  1  0  0  0  0
 28 60  1  0  0  0  0
 28 61  1  0  0  0  0
 29 63  1  0  0  0  0
 29 28  1  0  0  0  0
 30 66  1  0  0  0  0
 30 65  1  0  0  0  0
 32  8  1  0  0  0  0
 33  8  1  0  0  0  0
 34  8  1  0  0  0  0
 36 13  1  0  0  0  0
 38 15  1  0  0  0  0
 39 16  1  0  0  0  0
 41 17  1  0  0  0  0
 44 19  1  0  0  0  0
 45 20  1  0  0  0  0
 47 21  1  0  0  0  0
 50 22  1  0  0  0  0
 51 22  1  0  0  0  0
 52 23  1  0  0  0  0
 54 24  1  0  0  0  0
 55 25  1  0  0  0  0
 56 25  1  0  0  0  0
 59 27  1  0  0  0  0
 62 29  1  0  0  0  0
 64 30  1  0  0  0  0
M  END
>  <Pose>
1

>  <Score>
-4.43

$$$$
