
 OpenBabel03222202113D

 53 56  0  0  1  0  0  0  0  0999 V2000
   23.4190   76.2660   14.8110 F   0  0  0  0  0  0  0  0  0  0  0  0
   24.0020   77.1230   15.6350 C   0  0  0  0  0  0  0  0  0  0  0  0
   23.2770   77.8930   16.5210 C   0  0  0  0  0  0  0  0  0  0  0  0
   24.0230   78.7340   17.3100 C   0  0  0  0  0  0  0  0  0  0  0  0
   25.4040   78.8400   17.2570 C   0  0  0  0  0  0  0  0  0  0  0  0
   26.0860   78.0620   16.3670 C   0  0  0  0  0  0  0  0  0  0  0  0
   25.3950   77.2130   15.5660 C   0  0  0  0  0  0  0  0  0  0  0  0
   21.8130   77.8070   16.6470 C   0  0  2  0  0  0  0  0  0  0  0  0
   21.0870   77.9220   15.3920 N   0  0  0  0  0  0  0  0  0  0  0  0
   21.3760   79.2860   15.0170 C   0  0  0  0  0  0  0  0  0  0  0  0
   21.4840   79.7780   13.8630 O   0  0  0  0  0  0  0  0  0  0  0  0
   21.5450   80.0950   16.2580 C   0  0  0  0  0  0  0  0  0  0  0  0
   21.7950   81.2840   16.4430 O   0  0  0  0  0  0  0  0  0  0  0  0
   21.3260   79.0720   17.3220 C   0  0  0  0  0  0  0  0  0  0  0  0
   20.8400   79.2740   18.5230 C   0  0  0  0  0  0  0  0  0  0  0  0
   20.7130   78.1830   19.4060 O   0  0  0  0  0  0  0  0  0  0  0  0
   20.4220   80.5940   18.9720 C   0  0  0  0  0  0  0  0  0  0  0  0
   20.3430   81.6180   18.0540 C   0  0  0  0  0  0  0  0  0  0  0  0
   19.9800   82.9040   18.4170 C   0  0  0  0  0  0  0  0  0  0  0  0
   19.6840   83.1860   19.7330 C   0  0  0  0  0  0  0  0  0  0  0  0
   19.7560   82.1900   20.6580 C   0  0  0  0  0  0  0  0  0  0  0  0
   20.1270   80.8880   20.2770 C   0  0  0  0  0  0  0  0  0  0  0  0
   19.1750   84.9670   20.2690 B   0  0  0  0  0  0  0  0  0  0  0  0
   20.2910   77.0560   14.6330 C   0  0  0  0  0  0  0  0  0  0  0  0
   20.3470   75.5880   14.8580 C   0  0  0  0  0  0  0  0  0  0  0  0
   19.4280   74.8330   14.0530 N   0  0  0  0  0  4  0  0  0  0  0  0
   19.9800   73.5140   13.8250 C   0  0  0  0  0  0  0  0  0  0  0  0
   18.9890   72.6390   13.0780 C   0  0  0  0  0  0  0  0  0  0  0  0
   18.6880   73.2320   11.8660 O   0  0  0  0  0  0  0  0  0  0  0  0
   18.1940   74.5180   12.0600 C   0  0  0  0  0  0  0  0  0  0  0  0
   19.2720   75.4040   12.7000 C   0  0  0  0  0  0  0  0  0  0  0  0
   23.5360   79.3470   18.0210 H   0  0  0  0  0  0  0  0  0  0  0  0
   25.9650   79.5110   17.8910 H   0  0  0  0  0  0  0  0  0  0  0  0
   27.1670   78.1300   16.3100 H   0  0  0  0  0  0  0  0  0  0  0  0
   25.9540   76.6030   14.8640 H   0  0  0  0  0  0  0  0  0  0  0  0
   21.5410   76.9690   17.2700 H   0  0  0  0  0  0  0  0  0  0  0  0
   20.5620   81.4700   16.9970 H   0  0  0  0  0  0  0  0  0  0  0  0
   19.9100   83.7260   17.7200 H   0  0  0  0  0  0  0  0  0  0  0  0
   19.5240   82.4060   21.6920 H   0  0  0  0  0  0  0  0  0  0  0  0
   20.1930   80.1210   21.0140 H   0  0  0  0  0  0  0  0  0  0  0  0
   20.5040   77.2030   13.5360 H   0  0  0  0  0  0  0  0  0  0  0  0
   19.1770   77.2970   14.6770 H   0  0  0  0  0  0  0  0  0  0  0  0
   21.3740   75.2680   14.5200 H   0  0  0  0  0  0  0  0  0  0  0  0
   20.3380   75.3000   15.9360 H   0  0  0  0  0  0  0  0  0  0  0  0
   18.4530   74.8200   14.4170 H   0  0  0  0  0  0  0  0  0  0  0  0
   20.8440   73.6670   13.1140 H   0  0  0  0  0  0  0  0  0  0  0  0
   20.4060   73.0460   14.7100 H   0  0  0  0  0  0  0  0  0  0  0  0
   18.1070   72.4950   13.7370 H   0  0  0  0  0  0  0  0  0  0  0  0
   19.4930   71.6750   12.8830 H   0  0  0  0  0  0  0  0  0  0  0  0
   17.3660   74.4240   12.8150 H   0  0  0  0  0  0  0  0  0  0  0  0
   17.8060   74.9760   11.1450 H   0  0  0  0  0  0  0  0  0  0  0  0
   20.2190   75.3280   12.1640 H   0  0  0  0  0  0  0  0  0  0  0  0
   18.8590   76.4170   12.8120 H   0  0  0  0  0  0  0  0  0  0  0  0
  1  2  1  0  0  0  0
  2  3  1  0  0  0  0
  3  8  1  0  0  0  0
  3  4  2  0  0  0  0
  4 32  1  0  0  0  0
  5  4  1  0  0  0  0
  5 33  1  0  0  0  0
  6  5  2  0  0  0  0
  7  2  2  0  0  0  0
  7  6  1  0  0  0  0
  8 36  1  1  0  0  0
  8 14  1  0  0  0  0
  9  8  1  0  0  0  0
 10  9  1  0  0  0  0
 10 12  1  0  0  0  0
 11 10  2  0  0  0  0
 12 13  2  0  0  0  0
 12 14  1  0  0  0  0
 14 15  2  0  0  0  0
 15 17  1  0  0  0  0
 15 16  1  0  0  0  0
 17 22  1  0  0  0  0
 18 19  1  0  0  0  0
 18 17  2  0  0  0  0
 19 20  2  0  0  0  0
 20 23  1  0  0  0  0
 20 21  1  0  0  0  0
 21 39  1  0  0  0  0
 22 21  2  0  0  0  0
 22 40  1  0  0  0  0
 24 42  1  0  0  0  0
 24 25  1  0  0  0  0
 24  9  1  0  0  0  0
 25 44  1  0  0  0  0
 26 45  1  0  0  0  0
 26 25  1  0  0  0  0
 27 26  1  0  0  0  0
 27 47  1  0  0  0  0
 28 48  1  0  0  0  0
 28 27  1  0  0  0  0
 29 30  1  0  0  0  0
 29 28  1  0  0  0  0
 30 31  1  0  0  0  0
 30 50  1  0  0  0  0
 31 53  1  0  0  0  0
 31 26  1  0  0  0  0
 34  6  1  0  0  0  0
 35  7  1  0  0  0  0
 37 18  1  0  0  0  0
 38 19  1  0  0  0  0
 41 24  1  0  0  0  0
 43 25  1  0  0  0  0
 46 27  1  0  0  0  0
 49 28  1  0  0  0  0
 51 30  1  0  0  0  0
 52 31  1  0  0  0  0
M  END
>  <Pose>
1

>  <Score>
-5.36

$$$$
