
 OpenBabel03222202113D

 41 44  0  0  0  0  0  0  0  0999 V2000
   15.4160   76.9330    6.7400 F   0  0  0  0  0  0  0  0  0  0  0  0
   16.1270   76.1860    5.8470 C   0  0  0  0  0  0  0  0  0  0  0  0
   17.4320   75.8010    6.1930 C   0  0  0  0  0  0  0  0  0  0  0  0
   18.1060   75.0520    5.2630 C   0  0  0  0  0  0  0  0  0  0  0  0
   17.5110   74.7080    4.0600 C   0  0  0  0  0  0  0  0  0  0  0  0
   16.2430   75.0850    3.7280 C   0  0  0  0  0  0  0  0  0  0  0  0
   15.5540   75.8370    4.6510 C   0  0  0  0  0  0  0  0  0  0  0  0
   17.9660   76.1980    7.4530 N   0  0  0  0  0  0  0  0  0  0  0  0
   19.2160   76.7480    7.7180 C   0  0  0  0  0  0  0  0  0  0  0  0
   20.2560   76.0700    7.7260 O   0  0  0  0  0  0  0  0  0  0  0  0
   19.3770   78.2010    8.0100 C   0  0  0  0  0  0  0  0  0  0  0  0
   20.7210   78.4530    8.4960 N   0  0  0  0  0  0  0  0  0  0  0  0
   21.8120   78.7090    7.8080 N   0  0  0  0  0  0  0  0  0  0  0  0
   22.8410   78.8830    8.6230 N   0  0  0  0  0  0  0  0  0  0  0  0
   22.4000   78.7330    9.8920 C   0  0  0  0  0  0  0  0  0  0  0  0
   21.1120   78.4730    9.7990 C   0  0  0  0  0  0  0  0  0  0  0  0
   20.6570   78.3200   11.0990 C   0  0  0  0  0  0  0  0  0  0  0  0
   19.4730   78.0630   11.4040 O   0  0  0  0  0  0  0  0  0  0  0  0
   21.6590   78.4850   11.9820 N   0  0  0  0  0  0  0  0  0  0  0  0
   22.7450   78.7420   11.2300 C   0  0  0  0  0  0  0  0  0  0  0  0
   23.8980   78.9590   11.6640 O   0  0  0  0  0  0  0  0  0  0  0  0
   21.5660   78.4000   13.4040 C   0  0  0  0  0  0  0  0  0  0  0  0
   21.8400   79.4910   14.2050 C   0  0  0  0  0  0  0  0  0  0  0  0
   21.7550   79.4260   15.5810 C   0  0  0  0  0  0  0  0  0  0  0  0
   21.3900   78.2570   16.2170 C   0  0  0  0  0  0  0  0  0  0  0  0
   21.1130   77.1540   15.4370 C   0  0  0  0  0  0  0  0  0  0  0  0
   21.2040   77.2400   14.0620 C   0  0  0  0  0  0  0  0  0  0  0  0
   21.2640   78.1380   18.1220 B   0  0  0  0  0  0  0  0  0  0  0  0
   19.1030   74.7180    5.4500 H   0  0  0  0  0  0  0  0  0  0  0  0
   18.0620   74.1100    3.3270 H   0  0  0  0  0  0  0  0  0  0  0  0
   15.8250   74.7910    2.7760 H   0  0  0  0  0  0  0  0  0  0  0  0
   14.5410   76.1350    4.3790 H   0  0  0  0  0  0  0  0  0  0  0  0
   17.3320   76.0580    8.3070 H   0  0  0  0  0  0  0  0  0  0  0  0
   18.6510   78.4590    8.8270 H   0  0  0  0  0  0  0  0  0  0  0  0
   19.1380   78.8170    7.1230 H   0  0  0  0  0  0  0  0  0  0  0  0
   21.8310   78.7610    6.7560 H   0  0  0  0  0  0  0  0  0  0  0  0
   23.8270   79.0980    8.3380 H   0  0  0  0  0  0  0  0  0  0  0  0
   22.1280   80.4130   13.6900 H   0  0  0  0  0  0  0  0  0  0  0  0
   21.9700   80.2850   16.1930 H   0  0  0  0  0  0  0  0  0  0  0  0
   20.8240   76.2270   15.9470 H   0  0  0  0  0  0  0  0  0  0  0  0
   20.9890   76.3820   13.4450 H   0  0  0  0  0  0  0  0  0  0  0  0
  2  3  1  0  0  0  0
  2  1  1  0  0  0  0
  3  8  1  0  0  0  0
  4 29  1  0  0  0  0
  4  3  2  0  0  0  0
  5  4  1  0  0  0  0
  6  5  2  0  0  0  0
  6  7  1  0  0  0  0
  7  2  2  0  0  0  0
  8  9  1  0  0  0  0
  8 33  1  0  0  0  0
  9 10  2  0  0  0  0
  9 11  1  0  0  0  0
 11 12  1  0  0  0  0
 11 34  1  0  0  0  0
 12 16  1  0  0  0  0
 13 12  1  0  0  0  0
 13 14  1  0  0  0  0
 14 15  1  0  0  0  0
 15 20  1  0  0  0  0
 16 15  2  0  0  0  0
 16 17  1  0  0  0  0
 17 18  2  0  0  0  0
 17 19  1  0  0  0  0
 19 22  1  0  0  0  0
 20 21  2  0  0  0  0
 20 19  1  0  0  0  0
 22 27  2  0  0  0  0
 22 23  1  0  0  0  0
 23 24  2  0  0  0  0
 24 39  1  0  0  0  0
 24 25  1  0  0  0  0
 25 28  1  0  0  0  0
 26 40  1  0  0  0  0
 26 25  2  0  0  0  0
 27 26  1  0  0  0  0
 30  5  1  0  0  0  0
 31  6  1  0  0  0  0
 32  7  1  0  0  0  0
 35 11  1  0  0  0  0
 36 13  1  0  0  0  0
 37 14  1  0  0  0  0
 38 23  1  0  0  0  0
 41 27  1  0  0  0  0
M  END
>  <Pose>
1

>  <Score>
-6.81

$$$$
