
 OpenBabel03222202113D

 39 42  0  0  1  0  0  0  0  0999 V2000
   17.7550   76.7420   17.5820 I   0  0  0  0  0  0  0  0  0  0  0  0
   19.3700   78.0490   17.9110 C   0  0  0  0  0  0  0  0  0  0  0  0
   20.6660   77.6550   17.5710 C   0  0  0  0  0  0  0  0  0  0  0  0
   21.7480   78.4780   17.7690 C   0  0  0  0  0  0  0  0  0  0  0  0
   21.4720   79.7330   18.3310 C   0  0  0  0  0  0  0  0  0  0  0  0
   20.1960   80.1100   18.6620 C   0  0  0  0  0  0  0  0  0  0  0  0
   19.1270   79.2710   18.4550 C   0  0  0  0  0  0  0  0  0  0  0  0
   19.8600   81.8220   19.4240 B   0  0  0  0  0  0  0  0  0  0  0  0
   23.1460   78.1150   17.4150 C   0  0  2  0  0  0  0  0  0  0  0  0
   23.7150   79.2670   16.7520 N   0  0  0  0  0  0  0  0  0  0  0  0
   23.3120   79.5830   15.4160 C   0  0  0  0  0  0  0  0  0  0  0  0
   23.2850   81.0610   14.4990 S   0  0  0  0  0  0  0  0  0  0  0  0
   22.6600   80.4670   13.0340 C   0  0  0  0  0  0  0  0  0  0  0  0
   22.4890   79.1510   13.2910 C   0  0  0  0  0  0  0  0  0  0  0  0
   22.8200   78.6900   14.5090 C   0  0  0  0  0  0  0  0  0  0  0  0
   22.7500   77.3170   15.0840 C   0  0  0  0  0  0  0  0  0  0  0  0
   22.3280   76.3500   14.4060 O   0  0  0  0  0  0  0  0  0  0  0  0
   23.1600   77.0630   16.4120 N   0  0  0  0  0  0  0  0  0  0  0  0
   21.9280   78.3480   12.1230 C   0  0  0  0  0  0  0  0  0  0  0  0
   22.2230   79.0910   10.8610 C   0  0  0  0  0  0  0  0  0  0  0  0
   21.4950   80.3650   10.9720 N   0  0  0  0  0  4  0  0  0  0  0  0
   22.3690   81.1930   11.7760 C   0  0  0  0  0  0  0  0  0  0  0  0
   21.2330   80.9360    9.6730 C   0  0  0  0  0  0  0  0  0  0  0  0
   20.8570   76.4060   17.0250 O   0  0  0  0  0  0  0  0  0  0  0  0
   22.3220   80.3820   18.4890 H   0  0  0  0  0  0  0  0  0  0  0  0
   18.1020   79.5670   18.7170 H   0  0  0  0  0  0  0  0  0  0  0  0
   23.7320   77.8200   18.3100 H   0  0  0  0  0  0  0  0  0  0  0  0
   24.4190   79.8940   17.2000 H   0  0  0  0  0  0  0  0  0  0  0  0
   23.4840   76.1060   16.7030 H   0  0  0  0  0  0  0  0  0  0  0  0
   20.8420   78.3050   12.2750 H   0  0  0  0  0  0  0  0  0  0  0  0
   22.3370   77.3330   12.1160 H   0  0  0  0  0  0  0  0  0  0  0  0
   23.3010   79.2980   10.7590 H   0  0  0  0  0  0  0  0  0  0  0  0
   21.8400   78.5250   10.0140 H   0  0  0  0  0  0  0  0  0  0  0  0
   20.6240   80.2060   11.5220 H   0  0  0  0  0  0  0  0  0  0  0  0
   23.3060   81.4470   11.2410 H   0  0  0  0  0  0  0  0  0  0  0  0
   21.8380   82.1510   11.9410 H   0  0  0  0  0  0  0  0  0  0  0  0
   21.7700   81.8870    9.5150 H   0  0  0  0  0  0  0  0  0  0  0  0
   20.1370   81.1820    9.6460 H   0  0  0  0  0  0  0  0  0  0  0  0
   21.3880   80.2170    8.8420 H   0  0  0  0  0  0  0  0  0  0  0  0
  1  2  1  0  0  0  0
  2  7  1  0  0  0  0
  3  4  1  0  0  0  0
  3  2  2  0  0  0  0
  4  5  2  0  0  0  0
  5 25  1  0  0  0  0
  5  6  1  0  0  0  0
  6  8  1  0  0  0  0
  7  6  2  0  0  0  0
  7 26  1  0  0  0  0
  9  4  1  0  0  0  0
  9 27  1  1  0  0  0
 10 28  1  0  0  0  0
 10  9  1  0  0  0  0
 11 10  1  0  0  0  0
 12 11  1  0  0  0  0
 13 14  2  0  0  0  0
 13 12  1  0  0  0  0
 14 15  1  0  0  0  0
 15 16  1  0  0  0  0
 15 11  2  0  0  0  0
 16 18  1  0  0  0  0
 17 16  2  0  0  0  0
 18 29  1  0  0  0  0
 18  9  1  0  0  0  0
 19 30  1  0  0  0  0
 19 14  1  0  0  0  0
 20 21  1  0  0  0  0
 20 19  1  0  0  0  0
 21 34  1  0  0  0  0
 21 22  1  0  0  0  0
 22 36  1  0  0  0  0
 22 13  1  0  0  0  0
 23 21  1  0  0  0  0
 24  3  1  0  0  0  0
 31 19  1  0  0  0  0
 32 20  1  0  0  0  0
 33 20  1  0  0  0  0
 35 22  1  0  0  0  0
 37 23  1  0  0  0  0
 38 23  1  0  0  0  0
 39 23  1  0  0  0  0
M  END
>  <Pose>
1

>  <Score>
-5.87

$$$$
