
 OpenBabel03222202113D

 43 46  0  0  1  0  0  0  0  0999 V2000
   20.8470   80.8490   17.3270 I   0  0  0  0  0  0  0  0  0  0  0  0
   22.1490   80.2090   15.7960 C   0  0  0  0  0  0  0  0  0  0  0  0
   23.3350   79.5850   16.1250 C   0  0  0  0  0  0  0  0  0  0  0  0
   24.2060   79.1570   15.1240 C   0  0  0  0  0  0  0  0  0  0  0  0
   23.8370   79.3770   13.8310 C   0  0  0  0  0  0  0  0  0  0  0  0
   22.6500   80.0020   13.4720 C   0  0  0  0  0  0  0  0  0  0  0  0
   21.8090   80.4150   14.4680 C   0  0  0  0  0  0  0  0  0  0  0  0
   22.3630   80.1840   12.0230 C   0  0  2  0  0  0  0  0  0  0  0  0
   20.9120   80.3450   11.9200 N   0  0  0  0  0  0  0  0  0  0  0  0
   20.1710   79.7400   10.8310 C   0  0  0  0  0  0  0  0  0  0  0  0
   18.5730   79.9680   10.2390 S   0  0  0  0  0  0  0  0  0  0  0  0
   18.5980   78.8470    8.9670 C   0  0  0  0  0  0  0  0  0  0  0  0
   19.8580   78.3160    9.0320 C   0  0  0  0  0  0  0  0  0  0  0  0
   20.6700   78.7850   10.0040 C   0  0  0  0  0  0  0  0  0  0  0  0
   22.0760   78.3750   10.2850 C   0  0  0  0  0  0  0  0  0  0  0  0
   22.6610   77.4930    9.5870 O   0  0  0  0  0  0  0  0  0  0  0  0
   22.7700   78.9810   11.3510 N   0  0  0  0  0  0  0  0  0  0  0  0
   20.0870   77.2660    7.9510 C   0  0  0  0  0  0  0  0  0  0  0  0
   18.9510   76.2770    7.9700 C   0  0  0  0  0  0  0  0  0  0  0  0
   17.6630   76.8740    8.0800 N   0  0  0  0  0  4  0  0  0  0  0  0
   17.6940   78.3190    7.8790 C   0  0  0  0  0  0  0  0  0  0  0  0
   17.2140   76.6850    9.4690 C   0  0  0  0  0  0  0  0  0  0  0  0
   25.3850   78.5360   15.5130 O   0  0  0  0  0  0  0  0  0  0  0  0
   25.3450   77.1610   15.8490 C   0  0  0  0  0  0  0  0  0  0  0  0
   23.6740   79.3790   17.4490 O   0  0  0  0  0  0  0  0  0  0  0  0
   24.5080   79.0470   13.0420 H   0  0  0  0  0  0  0  0  0  0  0  0
   20.8760   80.9070   14.1850 H   0  0  0  0  0  0  0  0  0  0  0  0
   22.8580   81.0880   11.6190 H   0  0  0  0  0  0  0  0  0  0  0  0
   20.3720   80.8900   12.6160 H   0  0  0  0  0  0  0  0  0  0  0  0
   23.6580   78.5320   11.6960 H   0  0  0  0  0  0  0  0  0  0  0  0
   20.1790   77.7740    6.9930 H   0  0  0  0  0  0  0  0  0  0  0  0
   21.0090   76.6980    8.1740 H   0  0  0  0  0  0  0  0  0  0  0  0
   19.0960   75.4740    8.7210 H   0  0  0  0  0  0  0  0  0  0  0  0
   18.9860   75.7490    6.9720 H   0  0  0  0  0  0  0  0  0  0  0  0
   16.9400   76.4470    7.4440 H   0  0  0  0  0  0  0  0  0  0  0  0
   16.6700   78.6870    8.0280 H   0  0  0  0  0  0  0  0  0  0  0  0
   18.1140   78.4970    6.8780 H   0  0  0  0  0  0  0  0  0  0  0  0
   18.0880   76.8960   10.1190 H   0  0  0  0  0  0  0  0  0  0  0  0
   16.4060   77.4150    9.6960 H   0  0  0  0  0  0  0  0  0  0  0  0
   16.8070   75.6730    9.6170 H   0  0  0  0  0  0  0  0  0  0  0  0
   25.2190   76.5590   14.9040 H   0  0  0  0  0  0  0  0  0  0  0  0
   24.4850   76.9020   16.4940 H   0  0  0  0  0  0  0  0  0  0  0  0
   26.2570   76.8410   16.3940 H   0  0  0  0  0  0  0  0  0  0  0  0
  2  3  1  0  0  0  0
  2  1  1  0  0  0  0
  3 25  1  0  0  0  0
  4 23  1  0  0  0  0
  4  3  2  0  0  0  0
  5  4  1  0  0  0  0
  6  5  2  0  0  0  0
  6  7  1  0  0  0  0
  7  2  2  0  0  0  0
  8 28  1  6  0  0  0
  8  6  1  0  0  0  0
  9  8  1  0  0  0  0
  9 29  1  0  0  0  0
 10  9  1  0  0  0  0
 11 10  1  0  0  0  0
 12 13  2  0  0  0  0
 12 11  1  0  0  0  0
 13 14  1  0  0  0  0
 14 15  1  0  0  0  0
 14 10  2  0  0  0  0
 15 17  1  0  0  0  0
 16 15  2  0  0  0  0
 17 30  1  0  0  0  0
 17  8  1  0  0  0  0
 18 19  1  0  0  0  0
 18 32  1  0  0  0  0
 18 13  1  0  0  0  0
 19 20  1  0  0  0  0
 19 33  1  0  0  0  0
 20 22  1  0  0  0  0
 21 36  1  0  0  0  0
 21 20  1  0  0  0  0
 21 12  1  0  0  0  0
 22 40  1  0  0  0  0
 22 39  1  0  0  0  0
 22 38  1  0  0  0  0
 23 24  1  0  0  0  0
 24 43  1  0  0  0  0
 24 42  1  0  0  0  0
 26  5  1  0  0  0  0
 27  7  1  0  0  0  0
 31 18  1  0  0  0  0
 34 19  1  0  0  0  0
 35 20  1  0  0  0  0
 37 21  1  0  0  0  0
 41 24  1  0  0  0  0
M  END
>  <Pose>
1

>  <Score>
-5.86

$$$$
