
 OpenBabel03222202113D

 40 43  0  0  1  0  0  0  0  0999 V2000
   19.7060   84.0480   19.6150 I   0  0  0  0  0  0  0  0  0  0  0  0
   19.8100   82.0040   19.2340 C   0  0  0  0  0  0  0  0  0  0  0  0
   20.2470   81.4550   18.0440 C   0  0  0  0  0  0  0  0  0  0  0  0
   20.3050   80.1050   17.8260 C   0  0  0  0  0  0  0  0  0  0  0  0
   19.9270   79.2180   18.7870 C   0  0  0  0  0  0  0  0  0  0  0  0
   19.4830   79.7520   19.9950 C   0  0  0  0  0  0  0  0  0  0  0  0
   19.4250   81.0880   20.2140 C   0  0  0  0  0  0  0  0  0  0  0  0
   19.9910   77.7940   18.5990 C   0  0  1  0  0  0  0  0  0  0  0  0
   19.1630   77.1220   19.3530 O   0  0  0  0  0  0  0  0  0  0  0  0
   20.7810   76.9440   17.7480 C   0  0  0  0  0  0  0  0  0  0  0  0
   20.9000   77.1810   16.3580 N   0  0  0  0  0  0  0  0  0  0  0  0
   21.4920   78.1990   15.8140 C   0  0  1  0  0  0  0  0  0  0  0  0
   22.3810   79.6990   16.2600 S   0  0  0  0  0  0  0  0  0  0  0  0
   22.6470   80.1870   14.5710 C   0  0  0  0  0  0  0  0  0  0  0  0
   22.1090   79.2860   13.7800 C   0  0  0  0  0  0  0  0  0  0  0  0
   21.4750   78.1930   14.4180 N   0  0  0  0  0  0  0  0  0  0  0  0
   20.7520   76.9570   14.0200 C   0  0  0  0  0  0  0  0  0  0  0  0
   20.3430   76.3580   15.3200 C   0  0  0  0  0  0  0  0  0  0  0  0
   22.2110   79.5040   12.3060 C   0  0  0  0  0  0  0  0  0  0  0  0
   22.2560   78.4640   11.4150 C   0  0  0  0  0  0  0  0  0  0  0  0
   22.3420   78.6740   10.0240 C   0  0  0  0  0  0  0  0  0  0  0  0
   22.3840   79.9530    9.5190 C   0  0  0  0  0  0  0  0  0  0  0  0
   22.3390   80.9980   10.4080 C   0  0  0  0  0  0  0  0  0  0  0  0
   22.2540   80.7810   11.7770 C   0  0  0  0  0  0  0  0  0  0  0  0
   20.5530   82.1650   17.2660 H   0  0  0  0  0  0  0  0  0  0  0  0
   20.6450   79.7880   16.8730 H   0  0  0  0  0  0  0  0  0  0  0  0
   19.1810   79.0730   20.7650 H   0  0  0  0  0  0  0  0  0  0  0  0
   19.0750   81.5240   21.1650 H   0  0  0  0  0  0  0  0  0  0  0  0
   21.8580   76.8360   18.1420 H   0  0  0  0  0  0  0  0  0  0  0  0
   20.4020   75.8790   17.9190 H   0  0  0  0  0  0  0  0  0  0  0  0
   23.1850   81.1080   14.3560 H   0  0  0  0  0  0  0  0  0  0  0  0
   21.4060   76.2510   13.4880 H   0  0  0  0  0  0  0  0  0  0  0  0
   19.8200   77.1940   13.4660 H   0  0  0  0  0  0  0  0  0  0  0  0
   20.7140   75.3130   15.3750 H   0  0  0  0  0  0  0  0  0  0  0  0
   19.2190   76.3260   15.4380 H   0  0  0  0  0  0  0  0  0  0  0  0
   22.2270   77.4580   11.7840 H   0  0  0  0  0  0  0  0  0  0  0  0
   22.3720   77.8300    9.3850 H   0  0  0  0  0  0  0  0  0  0  0  0
   22.4490   80.1770    8.4670 H   0  0  0  0  0  0  0  0  0  0  0  0
   22.3710   82.0030   10.0260 H   0  0  0  0  0  0  0  0  0  0  0  0
   22.2220   81.6550   12.4220 H   0  0  0  0  0  0  0  0  0  0  0  0
  2  1  1  0  0  0  0
  2  7  1  0  0  0  0
  3  2  2  0  0  0  0
  4  3  1  0  0  0  0
  4  5  2  0  0  0  0
  5  6  1  0  0  0  0
  6  7  2  0  0  0  0
  6 27  1  0  0  0  0
  7 28  1  0  0  0  0
  8  5  1  0  0  0  0
  8  9  1  6  0  0  0
 10 30  1  0  0  0  0
 10 29  1  0  0  0  0
 10  8  1  0  0  0  0
 11 10  1  0  0  0  0
 12 13  1  6  0  0  0
 12 11  1  0  0  0  0
 14 13  1  0  0  0  0
 15 16  1  0  0  0  0
 15 14  2  0  0  0  0
 16 12  1  0  0  0  0
 17 16  1  0  0  0  0
 17 18  1  0  0  0  0
 18 34  1  0  0  0  0
 18 35  1  0  0  0  0
 18 11  1  0  0  0  0
 19 15  1  0  0  0  0
 20 36  1  0  0  0  0
 20 19  2  0  0  0  0
 21 20  1  0  0  0  0
 22 21  2  0  0  0  0
 22 23  1  0  0  0  0
 23 24  2  0  0  0  0
 24 19  1  0  0  0  0
 24 40  1  0  0  0  0
 25  3  1  0  0  0  0
 26  4  1  0  0  0  0
 31 14  1  0  0  0  0
 32 17  1  0  0  0  0
 33 17  1  0  0  0  0
 37 21  1  0  0  0  0
 38 22  1  0  0  0  0
 39 23  1  0  0  0  0
M  END
>  <Pose>
1

>  <Score>
-6.92

$$$$
