
 OpenBabel03222202113D

 40 43  0  0  0  0  0  0  0  0999 V2000
   20.3390   80.9890   17.6630 I   0  0  0  0  0  0  0  0  0  0  0  0
   19.9200   79.4480   19.0030 C   0  0  0  0  0  0  0  0  0  0  0  0
   19.2200   79.6180   20.1970 C   0  0  0  0  0  0  0  0  0  0  0  0
   19.1480   78.4380   20.8150 N   0  0  0  0  0  0  0  0  0  0  0  0
   19.7640   77.5650   20.0650 N   0  0  0  0  0  0  0  0  0  0  0  0
   20.2630   78.1430   18.9210 C   0  0  0  0  0  0  0  0  0  0  0  0
   20.9820   77.3690   17.8920 C   0  0  0  0  0  0  0  0  0  0  0  0
   20.6830   76.1250   17.8360 O   0  0  0  0  0  0  0  0  0  0  0  0
   21.9230   77.8930   17.0170 N   0  0  0  0  0  0  0  0  0  0  0  0
   21.7960   78.0470   15.6170 C   0  0  0  0  0  0  0  0  0  0  0  0
   22.3000   79.2240   15.0540 C   0  0  0  0  0  0  0  0  0  0  0  0
   22.9080   80.2870   15.6090 N   0  0  0  0  0  0  0  0  0  0  0  0
   23.1940   81.1360   14.6660 O   0  0  0  0  0  0  0  0  0  0  0  0
   22.8010   80.6820   13.5160 N   0  0  0  0  0  0  0  0  0  0  0  0
   22.2300   79.4770   13.7090 C   0  0  0  0  0  0  0  0  0  0  0  0
   21.6480   78.5540   12.8670 C   0  0  0  0  0  0  0  0  0  0  0  0
   21.1580   77.4030   13.4300 C   0  0  0  0  0  0  0  0  0  0  0  0
   21.2230   77.1350   14.8030 C   0  0  0  0  0  0  0  0  0  0  0  0
   21.5850   78.8340   11.4790 N   0  0  0  0  0  0  0  0  0  0  0  0
   20.3170   78.8240   10.7800 C   0  0  0  0  0  0  0  0  0  0  0  0
   20.5380   79.2300    9.3650 C   0  0  0  0  0  0  0  0  0  0  0  0
   21.2940   80.3760    9.2150 O   0  0  0  0  0  0  0  0  0  0  0  0
   22.5230   80.3380    9.7940 C   0  0  0  0  0  0  0  0  0  0  0  0
   22.7580   79.1440   10.6840 C   0  0  0  0  0  0  0  0  0  0  0  0
   18.4860   78.2050   22.1060 C   0  0  0  0  0  0  0  0  0  0  0  0
   18.7930   80.5390   20.5860 H   0  0  0  0  0  0  0  0  0  0  0  0
   22.8310   78.2200   17.4750 H   0  0  0  0  0  0  0  0  0  0  0  0
   20.7030   76.6820   12.7680 H   0  0  0  0  0  0  0  0  0  0  0  0
   20.8020   76.1910   15.1290 H   0  0  0  0  0  0  0  0  0  0  0  0
   19.6580   79.5390   11.3130 H   0  0  0  0  0  0  0  0  0  0  0  0
   19.8750   77.7950   10.7700 H   0  0  0  0  0  0  0  0  0  0  0  0
   19.5500   79.3260    8.8740 H   0  0  0  0  0  0  0  0  0  0  0  0
   21.0980   78.3980    8.8590 H   0  0  0  0  0  0  0  0  0  0  0  0
   23.2940   80.3090    8.9950 H   0  0  0  0  0  0  0  0  0  0  0  0
   22.7220   81.2800   10.3730 H   0  0  0  0  0  0  0  0  0  0  0  0
   23.5660   79.4180   11.3940 H   0  0  0  0  0  0  0  0  0  0  0  0
   23.1010   78.2580   10.1190 H   0  0  0  0  0  0  0  0  0  0  0  0
   17.6760   78.9370   22.1950 H   0  0  0  0  0  0  0  0  0  0  0  0
   18.0320   77.1890   22.0430 H   0  0  0  0  0  0  0  0  0  0  0  0
   19.2320   78.2950   22.9120 H   0  0  0  0  0  0  0  0  0  0  0  0
  1  2  1  0  0  0  0
  2  3  2  0  0  0  0
  3 26  1  0  0  0  0
  3  4  1  0  0  0  0
  4 25  1  0  0  0  0
  5  4  1  0  0  0  0
  6  2  1  0  0  0  0
  6  5  2  0  0  0  0
  7  6  1  0  0  0  0
  8  7  2  0  0  0  0
  9 27  1  0  0  0  0
  9  7  1  0  0  0  0
 10  9  1  0  0  0  0
 11 12  2  0  0  0  0
 11 10  1  0  0  0  0
 13 12  1  0  0  0  0
 14 15  2  0  0  0  0
 14 13  1  0  0  0  0
 15 11  1  0  0  0  0
 16 17  2  0  0  0  0
 16 15  1  0  0  0  0
 17 18  1  0  0  0  0
 18 29  1  0  0  0  0
 18 10  2  0  0  0  0
 19 16  1  0  0  0  0
 20 30  1  0  0  0  0
 20 19  1  0  0  0  0
 21 20  1  0  0  0  0
 22 21  1  0  0  0  0
 22 23  1  0  0  0  0
 23 35  1  0  0  0  0
 23 24  1  0  0  0  0
 24 36  1  0  0  0  0
 24 19  1  0  0  0  0
 25 38  1  0  0  0  0
 25 40  1  0  0  0  0
 28 17  1  0  0  0  0
 31 20  1  0  0  0  0
 32 21  1  0  0  0  0
 33 21  1  0  0  0  0
 34 23  1  0  0  0  0
 37 24  1  0  0  0  0
 39 25  1  0  0  0  0
M  END
>  <Pose>
1

>  <Score>
-6.68

$$$$
