
 OpenBabel03222202113D

 48 52  0  0  1  0  0  0  0  0999 V2000
   16.7510   76.0620   12.9200 B   0  0  0  0  0  0  0  0  0  0  0  0
   17.9560   74.5880   13.0020 C   0  0  0  0  0  0  0  0  0  0  0  0
   17.5300   73.3660   12.4230 C   0  0  0  0  0  0  0  0  0  0  0  0
   18.3210   72.2510   12.4850 C   0  0  0  0  0  0  0  0  0  0  0  0
   19.5390   72.3430   13.1220 C   0  0  0  0  0  0  0  0  0  0  0  0
   19.9440   73.5340   13.6800 C   0  0  0  0  0  0  0  0  0  0  0  0
   19.1500   74.7080   13.6330 C   0  0  0  0  0  0  0  0  0  0  0  0
   19.7130   75.9120   14.2000 C   0  0  0  0  0  0  0  0  0  0  0  0
   20.2930   76.1510   15.3230 C   0  0  0  0  0  0  0  0  0  0  0  0
   20.8660   77.3590   15.8880 C   0  0  1  0  0  0  0  0  0  0  0  0
   20.9450   77.6740   17.1580 N   0  0  0  0  0  0  0  0  0  0  0  0
   21.6090   78.8060   17.5410 C   0  0  0  0  0  0  0  0  0  0  0  0
   22.2120   79.6610   16.6710 C   0  0  0  0  0  0  0  0  0  0  0  0
   22.1470   79.3650   15.3260 C   0  0  0  0  0  0  0  0  0  0  0  0
   22.6210   79.9720   14.1830 N   0  0  0  0  0  0  0  0  0  0  0  0
   22.2740   79.2530   13.1290 C   0  0  0  0  0  0  0  0  0  0  0  0
   21.5760   78.1900   13.6150 N   0  0  0  0  0  0  0  0  0  0  0  0
   21.4850   78.2340   14.9490 C   0  0  0  0  0  0  0  0  0  0  0  0
   22.5310   79.5040   11.7060 C   0  0  0  0  0  0  0  0  0  0  0  0
   23.2750   78.7140   10.8940 C   0  0  0  0  0  0  0  0  0  0  0  0
   23.4770   79.0730    9.5480 C   0  0  0  0  0  0  0  0  0  0  0  0
   22.9210   80.2270    9.0470 C   0  0  0  0  0  0  0  0  0  0  0  0
   22.1540   81.0530    9.8570 C   0  0  0  0  0  0  0  0  0  0  0  0
   21.9850   80.6710   11.1470 C   0  0  0  0  0  0  0  0  0  0  0  0
   23.3470   81.2070   14.2690 C   0  0  0  0  0  0  0  0  0  0  0  0
   20.2920   76.9100   18.1800 C   0  0  0  0  0  0  0  0  0  0  0  0
   20.1410   71.0760   13.0460 O   0  0  0  0  0  0  0  0  0  0  0  0
   19.5330   70.4200   11.9520 C   0  0  0  0  0  0  0  0  0  0  0  0
   18.2040   70.9330   12.0320 O   0  0  0  0  0  0  0  0  0  0  0  0
   16.5690   73.3560   11.9380 H   0  0  0  0  0  0  0  0  0  0  0  0
   20.9100   73.5870   14.1780 H   0  0  0  0  0  0  0  0  0  0  0  0
   19.5860   76.8040   13.5580 H   0  0  0  0  0  0  0  0  0  0  0  0
   20.3530   75.2600   15.9820 H   0  0  0  0  0  0  0  0  0  0  0  0
   21.6520   79.0240   18.6060 H   0  0  0  0  0  0  0  0  0  0  0  0
   22.7400   80.5590   16.9610 H   0  0  0  0  0  0  0  0  0  0  0  0
   23.7190   77.7910   11.2450 H   0  0  0  0  0  0  0  0  0  0  0  0
   24.0740   78.4280    8.9260 H   0  0  0  0  0  0  0  0  0  0  0  0
   23.0740   80.5090    8.0090 H   0  0  0  0  0  0  0  0  0  0  0  0
   21.7070   81.9640    9.4870 H   0  0  0  0  0  0  0  0  0  0  0  0
   21.3820   81.3160   11.7920 H   0  0  0  0  0  0  0  0  0  0  0  0
   24.4200   81.1450   14.0580 H   0  0  0  0  0  0  0  0  0  0  0  0
   23.2720   81.6340   15.3320 H   0  0  0  0  0  0  0  0  0  0  0  0
   22.9120   82.0420   13.6750 H   0  0  0  0  0  0  0  0  0  0  0  0
   20.9090   76.1440   18.6680 H   0  0  0  0  0  0  0  0  0  0  0  0
   20.1130   77.6520   19.0520 H   0  0  0  0  0  0  0  0  0  0  0  0
   19.2480   76.6310   17.9390 H   0  0  0  0  0  0  0  0  0  0  0  0
   20.0270   70.7570   11.0180 H   0  0  0  0  0  0  0  0  0  0  0  0
   19.5390   69.3150   12.0720 H   0  0  0  0  0  0  0  0  0  0  0  0
  1  2  1  0  0  0  0
  2  7  1  0  0  0  0
  3  4  1  0  0  0  0
  3  2  2  0  0  0  0
  4  5  2  0  0  0  0
  5  6  1  0  0  0  0
  6 31  1  0  0  0  0
  7  6  2  0  0  0  0
  7  8  1  0  0  0  0
  8  9  2  0  0  0  0
  9 33  1  0  0  0  0
 10  9  1  1  0  0  0
 10 11  1  0  0  0  0
 11 12  1  0  0  0  0
 11 26  1  0  0  0  0
 12 34  1  0  0  0  0
 13 35  1  0  0  0  0
 13 12  2  0  0  0  0
 14 13  1  0  0  0  0
 15 25  1  0  0  0  0
 15 14  1  0  0  0  0
 16 17  2  0  0  0  0
 16 15  1  0  0  0  0
 17 18  1  0  0  0  0
 18 14  2  0  0  0  0
 18 10  1  0  0  0  0
 19 16  1  0  0  0  0
 20 36  1  0  0  0  0
 20 19  2  0  0  0  0
 21 20  1  0  0  0  0
 22 21  2  0  0  0  0
 22 23  1  0  0  0  0
 23 24  2  0  0  0  0
 24 19  1  0  0  0  0
 24 40  1  0  0  0  0
 25 42  1  0  0  0  0
 26 44  1  0  0  0  0
 26 45  1  0  0  0  0
 27  5  1  0  0  0  0
 28 29  1  0  0  0  0
 28 48  1  0  0  0  0
 28 27  1  0  0  0  0
 29  4  1  0  0  0  0
 30  3  1  0  0  0  0
 32  8  1  0  0  0  0
 37 21  1  0  0  0  0
 38 22  1  0  0  0  0
 39 23  1  0  0  0  0
 41 25  1  0  0  0  0
 43 25  1  0  0  0  0
 46 26  1  0  0  0  0
 47 28  1  0  0  0  0
M  END
>  <Pose>
1

>  <Score>
-6.04

$$$$
