
 OpenBabel03222202113D

 35 39  0  0  0  0  0  0  0  0999 V2000
   21.9880   82.8130   14.7350 I   0  0  0  0  0  0  0  0  0  0  0  0
   22.0470   80.8420   13.9780 C   0  0  0  0  0  0  0  0  0  0  0  0
   21.5620   79.8310   14.8010 C   0  0  0  0  0  0  0  0  0  0  0  0
   21.5860   78.5550   14.3420 C   0  0  0  0  0  0  0  0  0  0  0  0
   22.0960   78.3010   13.0660 C   0  0  0  0  0  0  0  0  0  0  0  0
   22.5780   79.2960   12.2430 C   0  0  0  0  0  0  0  0  0  0  0  0
   22.5490   80.5920   12.7180 C   0  0  0  0  0  0  0  0  0  0  0  0
   23.0300   81.6090   11.9070 O   0  0  0  0  0  0  0  0  0  0  0  0
   23.3400   78.8580   10.3140 I   0  0  0  0  0  0  0  0  0  0  0  0
   21.1060   77.4260   15.1170 C   0  0  0  0  0  0  0  0  0  0  0  0
   22.1460   76.4610   15.3350 O   0  0  0  0  0  0  0  0  0  0  0  0
   21.8130   75.2240   14.8500 C   0  0  0  0  0  0  0  0  0  0  0  0
   22.4750   74.1460   14.8640 O   0  0  0  0  0  0  0  0  0  0  0  0
   20.4820   75.3570   14.2750 C   0  0  0  0  0  0  0  0  0  0  0  0
   20.0660   76.6440   14.4300 C   0  0  0  0  0  0  0  0  0  0  0  0
   18.8130   77.0410   13.9620 C   0  0  0  0  0  0  0  0  0  0  0  0
   17.9710   76.1470   13.3360 C   0  0  0  0  0  0  0  0  0  0  0  0
   18.3990   74.8320   13.1790 C   0  0  0  0  0  0  0  0  0  0  0  0
   19.6300   74.4380   13.6380 C   0  0  0  0  0  0  0  0  0  0  0  0
   20.1450   72.8060   13.4360 Cl  0  0  0  0  0  0  0  0  0  0  0  0
   17.3830   73.6530   12.3980 Cl  0  0  0  0  0  0  0  0  0  0  0  0
   16.4080   76.6790   12.7620 Cl  0  0  0  0  0  0  0  0  0  0  0  0
   18.3470   78.6940   14.1920 Cl  0  0  0  0  0  0  0  0  0  0  0  0
   20.5950   77.8430   16.4510 C   0  0  0  0  0  0  0  0  0  0  0  0
   20.5850   79.1260   16.8780 C   0  0  0  0  0  0  0  0  0  0  0  0
   20.0770   79.3780   18.1510 C   0  0  0  0  0  0  0  0  0  0  0  0
   19.5950   78.3850   18.9730 C   0  0  0  0  0  0  0  0  0  0  0  0
   19.6200   77.0860   18.5040 C   0  0  0  0  0  0  0  0  0  0  0  0
   20.1140   76.8020   17.2570 C   0  0  0  0  0  0  0  0  0  0  0  0
   18.8900   75.5440   19.7390 I   0  0  0  0  0  0  0  0  0  0  0  0
   19.0950   78.6320   20.2250 O   0  0  0  0  0  0  0  0  0  0  0  0
   20.0570   81.3660   18.8240 I   0  0  0  0  0  0  0  0  0  0  0  0
   21.0610   80.1500   16.0790 O   0  0  0  0  0  0  0  0  0  0  0  0
   22.1320   77.2910   12.6640 H   0  0  0  0  0  0  0  0  0  0  0  0
   20.1190   75.7890   16.9260 H   0  0  0  0  0  0  0  0  0  0  0  0
  2  1  1  0  0  0  0
  2  3  1  0  0  0  0
  3 33  1  0  0  0  0
  4  3  2  0  0  0  0
  4 10  1  0  0  0  0
  5  4  1  0  0  0  0
  6  7  1  0  0  0  0
  6  5  2  0  0  0  0
  7  2  2  0  0  0  0
  8  7  1  0  0  0  0
  9  6  1  0  0  0  0
 10 11  1  0  0  0  0
 10 24  1  0  0  0  0
 12 13  2  0  0  0  0
 12 11  1  0  0  0  0
 14 15  1  0  0  0  0
 14 12  1  0  0  0  0
 15 10  1  0  0  0  0
 16 23  1  0  0  0  0
 16 15  2  0  0  0  0
 17 16  1  0  0  0  0
 18 17  2  0  0  0  0
 18 19  1  0  0  0  0
 19 14  2  0  0  0  0
 20 19  1  0  0  0  0
 21 18  1  0  0  0  0
 22 17  1  0  0  0  0
 24 25  2  0  0  0  0
 24 29  1  0  0  0  0
 25 26  1  0  0  0  0
 26 32  1  0  0  0  0
 26 27  2  0  0  0  0
 27 31  1  0  0  0  0
 28 27  1  0  0  0  0
 28 30  1  0  0  0  0
 29 28  2  0  0  0  0
 33 25  1  0  0  0  0
 34  5  1  0  0  0  0
 35 29  1  0  0  0  0
M  END
>  <Pose>
1

>  <Score>
-4.07

$$$$
