
 OpenBabel03222202113D

 38 41  0  0  0  0  0  0  0  0999 V2000
   20.2430   77.2330   17.0460 S   0  0  0  0  0  0  0  0  0  0  0  0
   20.1110   78.7160   17.2580 O   0  0  0  0  0  0  0  0  0  0  0  0
   18.9450   76.6990   16.4910 O   0  0  0  0  0  0  0  0  0  0  0  0
   20.6010   76.5290   18.5300 O   0  0  0  0  0  0  0  0  0  0  0  0
   21.5230   77.0100   15.9300 O   0  0  0  0  0  0  0  0  0  0  0  0
   21.4620   77.5440   14.6480 C   0  0  0  0  0  0  0  0  0  0  0  0
   22.0320   78.7800   14.3160 C   0  0  0  0  0  0  0  0  0  0  0  0
   21.7620   78.9430   12.9760 C   0  0  0  0  0  0  0  0  0  0  0  0
   21.0780   77.8730   12.5450 N   0  0  0  0  0  0  0  0  0  0  0  0
   20.8670   76.9740   13.5540 C   0  0  0  0  0  0  0  0  0  0  0  0
   20.1210   75.7280   13.4280 C   0  0  0  0  0  0  0  0  0  0  0  0
   20.1450   74.7550   14.3810 N   0  0  0  0  0  0  0  0  0  0  0  0
   19.3880   73.7100   14.0120 C   0  0  0  0  0  0  0  0  0  0  0  0
   18.8340   73.9730   12.7780 C   0  0  0  0  0  0  0  0  0  0  0  0
   19.3170   75.2440   12.4450 C   0  0  0  0  0  0  0  0  0  0  0  0
   18.9880   75.8700   11.2560 O   0  0  0  0  0  0  0  0  0  0  0  0
   19.5390   75.3050    9.7440 S   0  0  0  0  0  0  0  0  0  0  0  0
   19.7470   76.4450    8.7890 O   0  0  0  0  0  0  0  0  0  0  0  0
   18.5550   74.3630    9.1100 O   0  0  0  0  0  0  0  0  0  0  0  0
   20.9710   74.4200    9.9610 O   0  0  0  0  0  0  0  0  0  0  0  0
   18.0030   73.0770   12.1390 C   0  0  0  0  0  0  0  0  0  0  0  0
   17.6940   71.8610   12.7280 C   0  0  0  0  0  0  0  0  0  0  0  0
   18.2440   71.5810   13.9690 C   0  0  0  0  0  0  0  0  0  0  0  0
   19.0730   72.4900   14.5940 C   0  0  0  0  0  0  0  0  0  0  0  0
   19.7940   72.0420   16.3000 B   0  0  0  0  0  0  0  0  0  0  0  0
   16.5420   70.5990   11.8580 B   0  0  0  0  0  0  0  0  0  0  0  0
   22.2100   80.0990   12.3420 C   0  0  0  0  0  0  0  0  0  0  0  0
   22.8990   81.0370   13.0620 C   0  0  0  0  0  0  0  0  0  0  0  0
   23.1760   80.8760   14.4230 C   0  0  0  0  0  0  0  0  0  0  0  0
   22.7250   79.7140   15.0550 C   0  0  0  0  0  0  0  0  0  0  0  0
   24.1390   82.2150   15.3650 B   0  0  0  0  0  0  0  0  0  0  0  0
   21.8530   80.3500   10.4990 B   0  0  0  0  0  0  0  0  0  0  0  0
   20.7360   77.7240   11.5540 H   0  0  0  0  0  0  0  0  0  0  0  0
   20.6670   74.7860   15.2840 H   0  0  0  0  0  0  0  0  0  0  0  0
   17.6010   73.3300   11.1840 H   0  0  0  0  0  0  0  0  0  0  0  0
   17.9990   70.6180   14.4350 H   0  0  0  0  0  0  0  0  0  0  0  0
   23.2640   81.9480   12.6060 H   0  0  0  0  0  0  0  0  0  0  0  0
   22.9210   79.5560   16.1100 H   0  0  0  0  0  0  0  0  0  0  0  0
  1  2  1  0  0  0  0
  1  4  1  0  0  0  0
  3  1  1  0  0  0  0
  5  1  1  0  0  0  0
  6  5  1  0  0  0  0
  7  6  1  0  0  0  0
  7 30  1  0  0  0  0
  8  7  2  0  0  0  0
  9  8  1  0  0  0  0
  9 10  1  0  0  0  0
 10  6  2  0  0  0  0
 11 10  1  0  0  0  0
 11 12  1  0  0  0  0
 12 34  1  0  0  0  0
 13 12  1  0  0  0  0
 13 24  1  0  0  0  0
 14 13  2  0  0  0  0
 15 14  1  0  0  0  0
 15 11  2  0  0  0  0
 16 15  1  0  0  0  0
 17 20  1  0  0  0  0
 17 16  1  0  0  0  0
 18 17  1  0  0  0  0
 19 17  1  0  0  0  0
 21 22  2  0  0  0  0
 21 14  1  0  0  0  0
 22 23  1  0  0  0  0
 23 36  1  0  0  0  0
 23 24  2  0  0  0  0
 24 25  1  0  0  0  0
 26 22  1  0  0  0  0
 27  8  1  0  0  0  0
 27 28  2  0  0  0  0
 28 29  1  0  0  0  0
 29 30  2  0  0  0  0
 29 31  1  0  0  0  0
 30 38  1  0  0  0  0
 32 27  1  0  0  0  0
 33  9  1  0  0  0  0
 35 21  1  0  0  0  0
 37 28  1  0  0  0  0
M  END
>  <Pose>
1

>  <Score>
-6.79

$$$$
