
 OpenBabel03222202113D

 34 37  0  0  1  0  0  0  0  0999 V2000
   22.0390   80.7800   11.0140 P   0  0  1  0  0  0  0  0  0  0  0  0
   20.6780   81.4230   11.1700 O   0  0  0  0  0  0  0  0  0  0  0  0
   22.9450   80.9080   12.4550 O   0  0  0  0  0  0  0  0  0  0  0  0
   23.0280   79.6210   12.9790 C   0  0  2  0  0  0  0  0  0  0  0  0
   21.6510   78.9860   12.7520 C   0  0  2  0  0  0  0  0  0  0  0  0
   21.5310   78.1800   13.8570 O   0  0  0  0  0  0  0  0  0  0  0  0
   21.7680   79.0890   14.8880 C   0  0  2  0  0  0  0  0  0  0  0  0
   23.1430   79.6210   14.4890 C   0  0  2  0  0  0  0  0  0  0  0  0
   23.4030   80.8620   15.0150 O   0  0  0  0  0  0  0  0  0  0  0  0
   21.7960   78.4500   16.1800 N   0  0  0  0  0  0  0  0  0  0  0  0
   20.8120   78.5640   17.0800 C   0  0  0  0  0  0  0  0  0  0  0  0
   19.6280   79.2360   17.0500 N   0  0  0  0  0  0  0  0  0  0  0  0
   18.7610   79.2310   18.0590 C   0  0  0  0  0  0  0  0  0  0  0  0
   19.0680   78.5290   19.1650 N   0  0  0  0  0  0  0  0  0  0  0  0
   20.2240   77.8400   19.2610 C   0  0  0  0  0  0  0  0  0  0  0  0
   21.1240   77.8440   18.2160 C   0  0  0  0  0  0  0  0  0  0  0  0
   22.3230   77.2900   17.9820 N   0  0  0  0  0  0  0  0  0  0  0  0
   22.7270   77.6610   16.7450 C   0  0  0  0  0  0  0  0  0  0  0  0
   24.3700   77.1570   15.8980 B   0  0  0  0  0  0  0  0  0  0  0  0
   20.5450   77.1120   20.4030 O   0  0  0  0  0  0  0  0  0  0  0  0
   17.5340   79.9520   17.9800 N   0  0  0  0  0  0  0  0  0  0  0  0
   21.6760   78.2810   11.4490 C   0  0  0  0  0  0  0  0  0  0  0  0
   21.9670   79.2140   10.4480 O   0  0  0  0  0  0  0  0  0  0  0  0
   22.8760   81.7260    9.8590 O   0  0  0  0  0  0  0  0  0  0  0  0
   23.8230   79.0310   12.4920 H   0  0  0  0  0  0  0  0  0  0  0  0
   20.8570   79.7530   12.7970 H   0  0  0  0  0  0  0  0  0  0  0  0
   21.0820   79.9650   14.8480 H   0  0  0  0  0  0  0  0  0  0  0  0
   23.9060   78.8570   14.8140 H   0  0  0  0  0  0  0  0  0  0  0  0
   23.9910   81.3850   14.3830 H   0  0  0  0  0  0  0  0  0  0  0  0
   19.9080   76.3350   20.6340 H   0  0  0  0  0  0  0  0  0  0  0  0
   16.9630   79.8060   17.1200 H   0  0  0  0  0  0  0  0  0  0  0  0
   17.2110   80.5990   18.7420 H   0  0  0  0  0  0  0  0  0  0  0  0
   22.5330   77.5590   11.4420 H   0  0  0  0  0  0  0  0  0  0  0  0
   20.7230   77.7510   11.2630 H   0  0  0  0  0  0  0  0  0  0  0  0
  1 24  2  6  0  0  0
  1  2  1  0  0  0  0
  1  3  1  0  0  0  0
  3  4  1  0  0  0  0
  4 25  1  6  0  0  0
  4  8  1  0  0  0  0
  5 26  1  1  0  0  0
  5  4  1  0  0  0  0
  5  6  1  0  0  0  0
  6  7  1  0  0  0  0
  7 27  1  6  0  0  0
  7 10  1  0  0  0  0
  8 28  1  1  0  0  0
  8  7  1  0  0  0  0
  8  9  1  0  0  0  0
 10 18  1  0  0  0  0
 10 11  1  0  0  0  0
 11 16  2  0  0  0  0
 12 11  1  0  0  0  0
 12 13  2  0  0  0  0
 13 14  1  0  0  0  0
 14 15  2  0  0  0  0
 15 20  1  0  0  0  0
 16 15  1  0  0  0  0
 17 16  1  0  0  0  0
 18 17  2  0  0  0  0
 19 18  1  0  0  0  0
 20 30  1  0  0  0  0
 21 13  1  0  0  0  0
 21 32  1  0  0  0  0
 22  5  1  0  0  0  0
 23  1  1  0  0  0  0
 23 22  1  0  0  0  0
 29  9  1  0  0  0  0
 31 21  1  0  0  0  0
 33 22  1  0  0  0  0
 34 22  1  0  0  0  0
M  END
>  <Pose>
1

>  <Score>
-6.11

$$$$
