
 OpenBabel03222202113D

 33 36  0  0  1  0  0  0  0  0999 V2000
   24.1860   77.9870   15.3540 P   0  0  2  0  0  0  0  0  0  0  0  0
   25.6460   77.5740   15.5540 O   0  0  0  0  0  0  0  0  0  0  0  0
   24.0250   79.5590   15.9200 O   0  0  0  0  0  0  0  0  0  0  0  0
   22.9240   79.7030   16.7240 C   0  0  2  0  0  0  0  0  0  0  0  0
   21.8500   78.7560   16.1720 C   0  0  2  0  0  0  0  0  0  0  0  0
   20.6480   79.3080   16.5020 O   0  0  0  0  0  0  0  0  0  0  0  0
   20.7820   80.6590   16.6610 C   0  0  2  0  0  0  0  0  0  0  0  0
   22.2230   81.0270   16.5800 C   0  0  2  0  0  0  0  0  0  0  0  0
   22.5780   81.6330   15.3910 O   0  0  0  0  0  0  0  0  0  0  0  0
   20.1800   81.0170   17.9390 N   0  0  0  0  0  0  0  0  0  0  0  0
   20.0310   82.2730   18.4200 C   0  0  0  0  0  0  0  0  0  0  0  0
   20.3690   83.4640   17.8960 N   0  0  0  0  0  0  0  0  0  0  0  0
   20.1080   84.5860   18.5860 C   0  0  0  0  0  0  0  0  0  0  0  0
   19.5130   84.5080   19.7910 N   0  0  0  0  0  0  0  0  0  0  0  0
   19.1480   83.3570   20.3750 C   0  0  0  0  0  0  0  0  0  0  0  0
   19.4210   82.1960   19.6550 C   0  0  0  0  0  0  0  0  0  0  0  0
   19.2010   80.9120   19.9230 N   0  0  0  0  0  0  0  0  0  0  0  0
   19.6650   80.2050   18.8770 C   0  0  0  0  0  0  0  0  0  0  0  0
   19.6320   78.2880   18.6740 B   0  0  0  0  0  0  0  0  0  0  0  0
   18.5190   83.2620   21.6450 N   0  0  0  0  0  0  0  0  0  0  0  0
   22.1280   77.4170   16.7760 C   0  0  0  0  0  0  0  0  0  0  0  0
   23.2380   76.8810   16.1690 O   0  0  0  0  0  0  0  0  0  0  0  0
   23.9190   77.9390   13.6660 O   0  0  0  0  0  0  0  0  0  0  0  0
   23.1010   79.5010   17.7840 H   0  0  0  0  0  0  0  0  0  0  0  0
   21.9230   78.6870   15.0650 H   0  0  0  0  0  0  0  0  0  0  0  0
   20.2570   81.1970   15.8210 H   0  0  0  0  0  0  0  0  0  0  0  0
   22.4930   81.7190   17.4050 H   0  0  0  0  0  0  0  0  0  0  0  0
   21.8340   81.7760   14.7830 H   0  0  0  0  0  0  0  0  0  0  0  0
   20.3780   85.5750   18.1750 H   0  0  0  0  0  0  0  0  0  0  0  0
   17.5360   82.8590   21.6820 H   0  0  0  0  0  0  0  0  0  0  0  0
   18.9470   83.5540   22.5280 H   0  0  0  0  0  0  0  0  0  0  0  0
   22.4050   77.5900   17.8570 H   0  0  0  0  0  0  0  0  0  0  0  0
   21.2560   76.7460   16.8050 H   0  0  0  0  0  0  0  0  0  0  0  0
  1 23  2  6  0  0  0
  1  2  1  0  0  0  0
  1  3  1  0  0  0  0
  1 22  1  0  0  0  0
  3  4  1  0  0  0  0
  4 24  1  1  0  0  0
  5 25  1  6  0  0  0
  5  6  1  0  0  0  0
  5  4  1  0  0  0  0
  5 21  1  0  0  0  0
  6  7  1  0  0  0  0
  7 26  1  6  0  0  0
  7 10  1  0  0  0  0
  8  7  1  0  0  0  0
  8  4  1  0  0  0  0
  8 27  1  1  0  0  0
  9  8  1  0  0  0  0
 10 11  1  0  0  0  0
 10 18  1  0  0  0  0
 11 16  2  0  0  0  0
 12 11  1  0  0  0  0
 12 13  2  0  0  0  0
 13 14  1  0  0  0  0
 14 15  2  0  0  0  0
 15 20  1  0  0  0  0
 16 17  1  0  0  0  0
 16 15  1  0  0  0  0
 18 17  2  0  0  0  0
 19 18  1  0  0  0  0
 20 30  1  0  0  0  0
 20 31  1  0  0  0  0
 21 33  1  0  0  0  0
 21 32  1  0  0  0  0
 22 21  1  0  0  0  0
 28  9  1  0  0  0  0
 29 13  1  0  0  0  0
M  END
>  <Pose>
1

>  <Score>
-7.40

$$$$
