
 OpenBabel03222202113D

 54 57  0  0  0  0  0  0  0  0999 V2000
   20.0370   78.4480   11.1890 S   0  0  0  0  0  0  0  0  0  0  0  0
   19.1740   77.2630   11.6080 O   0  0  0  0  0  0  0  0  0  0  0  0
   19.1340   79.6340   11.1870 O   0  0  0  0  0  0  0  0  0  0  0  0
   20.6180   78.0670    9.6130 N   0  0  0  0  0  0  0  0  0  0  0  0
   19.7630   78.5830    8.5620 C   0  0  0  0  0  0  0  0  0  0  0  0
   19.2670   77.3730    7.7850 C   0  0  0  0  0  0  0  0  0  0  0  0
   17.8120   77.5210    7.4290 C   0  0  0  0  0  0  0  0  0  0  0  0
   17.3690   76.3330    6.8000 N   0  0  0  0  0  0  0  0  0  0  0  0
   16.3490   76.4740    5.8240 C   0  0  0  0  0  0  0  0  0  0  0  0
   15.6660   75.1280    5.6470 C   0  0  0  0  0  0  0  0  0  0  0  0
   16.5800   74.0950    5.6200 O   0  0  0  0  0  0  0  0  0  0  0  0
   17.8790   74.5090    5.3500 C   0  0  0  0  0  0  0  0  0  0  0  0
   18.3420   75.3330    6.5550 C   0  0  0  0  0  0  0  0  0  0  0  0
   21.3640   78.6370   12.3040 C   0  0  0  0  0  0  0  0  0  0  0  0
   21.1260   78.5530   13.6790 C   0  0  0  0  0  0  0  0  0  0  0  0
   22.1590   78.7040   14.5780 C   0  0  0  0  0  0  0  0  0  0  0  0
   23.4620   78.9420   14.1780 C   0  0  0  0  0  0  0  0  0  0  0  0
   23.7040   79.0270   12.8350 C   0  0  0  0  0  0  0  0  0  0  0  0
   22.6610   78.8750   11.9160 C   0  0  0  0  0  0  0  0  0  0  0  0
   23.0110   78.9850   10.0350 B   0  0  0  0  0  0  0  0  0  0  0  0
   24.3350   79.0430   15.3800 C   0  0  0  0  0  0  0  0  0  0  0  0
   23.4770   78.3350   16.4500 C   0  0  0  0  0  0  0  0  0  0  0  0
   22.1270   78.6610   16.0160 N   0  0  0  0  0  0  0  0  0  0  0  0
   20.9660   78.9080   16.7850 C   0  0  0  0  0  0  0  0  0  0  0  0
   20.5450   80.0620   17.0300 O   0  0  0  0  0  0  0  0  0  0  0  0
   20.2130   77.7520   17.3270 C   0  0  0  0  0  0  0  0  0  0  0  0
   19.6380   77.9590   18.6690 C   0  0  0  0  0  0  0  0  0  0  0  0
   20.7590   76.9690   18.4640 C   0  0  0  0  0  0  0  0  0  0  0  0
   21.5820   78.4440    9.5260 H   0  0  0  0  0  0  0  0  0  0  0  0
   20.2540   79.3230    7.9180 H   0  0  0  0  0  0  0  0  0  0  0  0
   18.8530   78.9990    9.0830 H   0  0  0  0  0  0  0  0  0  0  0  0
   19.8610   77.2130    6.8550 H   0  0  0  0  0  0  0  0  0  0  0  0
   19.3480   76.5090    8.4880 H   0  0  0  0  0  0  0  0  0  0  0  0
   17.6600   78.3690    6.7070 H   0  0  0  0  0  0  0  0  0  0  0  0
   17.2170   77.7560    8.3220 H   0  0  0  0  0  0  0  0  0  0  0  0
   16.8110   76.7400    4.8540 H   0  0  0  0  0  0  0  0  0  0  0  0
   15.6340   77.2410    6.1650 H   0  0  0  0  0  0  0  0  0  0  0  0
   14.9670   74.9560    6.4950 H   0  0  0  0  0  0  0  0  0  0  0  0
   15.0300   75.1610    4.7360 H   0  0  0  0  0  0  0  0  0  0  0  0
   18.5020   73.6060    5.2130 H   0  0  0  0  0  0  0  0  0  0  0  0
   17.9550   75.1120    4.4190 H   0  0  0  0  0  0  0  0  0  0  0  0
   18.5340   74.6530    7.3890 H   0  0  0  0  0  0  0  0  0  0  0  0
   19.3230   75.7640    6.2440 H   0  0  0  0  0  0  0  0  0  0  0  0
   20.1000   78.3640   14.0110 H   0  0  0  0  0  0  0  0  0  0  0  0
   24.6970   79.2130   12.4370 H   0  0  0  0  0  0  0  0  0  0  0  0
   24.5440   80.0710   15.6840 H   0  0  0  0  0  0  0  0  0  0  0  0
   25.2750   78.4860   15.2830 H   0  0  0  0  0  0  0  0  0  0  0  0
   23.5830   77.2360   16.3410 H   0  0  0  0  0  0  0  0  0  0  0  0
   23.7300   78.6900   17.4460 H   0  0  0  0  0  0  0  0  0  0  0  0
   19.6020   77.1770   16.5820 H   0  0  0  0  0  0  0  0  0  0  0  0
   19.9670   78.8240   19.3060 H   0  0  0  0  0  0  0  0  0  0  0  0
   18.6370   77.6120   18.9250 H   0  0  0  0  0  0  0  0  0  0  0  0
   21.7660   77.1540   18.8640 H   0  0  0  0  0  0  0  0  0  0  0  0
   20.4250   75.9160   18.5480 H   0  0  0  0  0  0  0  0  0  0  0  0
  1  2  2  0  0  0  0
  1 14  1  0  0  0  0
  3  1  2  0  0  0  0
  4  1  1  0  0  0  0
  5 31  1  0  0  0  0
  5  4  1  0  0  0  0
  6 33  1  0  0  0  0
  6  5  1  0  0  0  0
  7  6  1  0  0  0  0
  7 35  1  0  0  0  0
  8  7  1  0  0  0  0
  9 37  1  0  0  0  0
  9  8  1  0  0  0  0
 10  9  1  0  0  0  0
 10 38  1  0  0  0  0
 11 10  1  0  0  0  0
 12 11  1  0  0  0  0
 12 13  1  0  0  0  0
 13  8  1  0  0  0  0
 13 42  1  0  0  0  0
 14 15  1  0  0  0  0
 15 44  1  0  0  0  0
 15 16  2  0  0  0  0
 16 23  1  0  0  0  0
 17 16  1  0  0  0  0
 17 21  1  0  0  0  0
 18 17  2  0  0  0  0
 19 14  2  0  0  0  0
 19 18  1  0  0  0  0
 20 19  1  0  0  0  0
 21 46  1  0  0  0  0
 21 22  1  0  0  0  0
 22 49  1  0  0  0  0
 23 22  1  0  0  0  0
 23 24  1  0  0  0  0
 24 25  2  0  0  0  0
 24 26  1  0  0  0  0
 26 28  1  0  0  0  0
 26 27  1  0  0  0  0
 27 52  1  0  0  0  0
 27 51  1  0  0  0  0
 28 54  1  0  0  0  0
 28 27  1  0  0  0  0
 28 53  1  0  0  0  0
 29  4  1  0  0  0  0
 30  5  1  0  0  0  0
 32  6  1  0  0  0  0
 34  7  1  0  0  0  0
 36  9  1  0  0  0  0
 39 10  1  0  0  0  0
 40 12  1  0  0  0  0
 41 12  1  0  0  0  0
 43 13  1  0  0  0  0
 45 18  1  0  0  0  0
 47 21  1  0  0  0  0
 48 22  1  0  0  0  0
 50 26  1  0  0  0  0
M  END
>  <Pose>
1

>  <Score>
-6.90

$$$$
