
 OpenBabel03222202113D

 54 57  0  0  0  0  0  0  0  0999 V2000
   20.2140   78.3440   10.2560 S   0  0  0  0  0  0  0  0  0  0  0  0
   19.0740   79.3440   10.4540 O   0  0  0  0  0  0  0  0  0  0  0  0
   20.4010   77.7220   11.6200 O   0  0  0  0  0  0  0  0  0  0  0  0
   21.5770   79.2120    9.8120 N   0  0  0  0  0  0  0  0  0  0  0  0
   22.8520   78.8210   10.2120 C   0  0  0  0  0  0  0  0  0  0  0  0
   23.2870   79.3200   11.5360 C   0  0  0  0  0  0  0  0  0  0  0  0
   24.1280   78.6880   12.2200 O   0  0  0  0  0  0  0  0  0  0  0  0
   22.7020   80.5400   11.9740 N   0  0  0  0  0  0  0  0  0  0  0  0
   21.9930   81.2900   11.0010 C   0  0  0  0  0  0  0  0  0  0  0  0
   21.9030   82.5400   11.1620 O   0  0  0  0  0  0  0  0  0  0  0  0
   21.3690   80.6530    9.8230 C   0  0  0  0  0  0  0  0  0  0  0  0
   22.8450   80.9710   13.3490 C   0  0  0  0  0  0  0  0  0  0  0  0
   22.2240   80.0630   14.3530 C   0  0  0  0  0  0  0  0  0  0  0  0
   23.1510   79.3200   15.2040 C   0  0  0  0  0  0  0  0  0  0  0  0
   23.2900   77.9620   15.1210 C   0  0  0  0  0  0  0  0  0  0  0  0
   24.1730   77.3280   15.9490 C   0  0  0  0  0  0  0  0  0  0  0  0
   24.9390   78.0220   16.8790 C   0  0  0  0  0  0  0  0  0  0  0  0
   24.7820   79.3790   16.9430 C   0  0  0  0  0  0  0  0  0  0  0  0
   23.9040   80.0490   16.1260 C   0  0  0  0  0  0  0  0  0  0  0  0
   19.6290   77.1570    9.1230 C   0  0  0  0  0  0  0  0  0  0  0  0
   18.6020   77.5270    8.2450 C   0  0  0  0  0  0  0  0  0  0  0  0
   18.0100   76.6650    7.3500 C   0  0  0  0  0  0  0  0  0  0  0  0
   18.4240   75.3520    7.2840 C   0  0  0  0  0  0  0  0  0  0  0  0
   19.4320   74.9720    8.1360 C   0  0  0  0  0  0  0  0  0  0  0  0
   20.0330   75.8560    9.0460 C   0  0  0  0  0  0  0  0  0  0  0  0
   21.5000   75.2330   10.1120 B   0  0  0  0  0  0  0  0  0  0  0  0
   17.6560   74.6140    6.2520 C   0  0  0  0  0  0  0  0  0  0  0  0
   17.0730   75.7600    5.4240 C   0  0  0  0  0  0  0  0  0  0  0  0
   16.9660   76.8470    6.3910 N   0  0  0  0  0  0  0  0  0  0  0  0
   15.9900   77.8580    6.3530 C   0  0  0  0  0  0  0  0  0  0  0  0
   14.7630   77.5190    6.2250 O   0  0  0  0  0  0  0  0  0  0  0  0
   16.2470   79.3150    6.4520 C   0  0  0  0  0  0  0  0  0  0  0  0
   23.5920   79.2590    9.4370 H   0  0  0  0  0  0  0  0  0  0  0  0
   23.0190   77.7490   10.1040 H   0  0  0  0  0  0  0  0  0  0  0  0
   20.3060   80.9470    9.7950 H   0  0  0  0  0  0  0  0  0  0  0  0
   21.8540   81.0560    8.9150 H   0  0  0  0  0  0  0  0  0  0  0  0
   22.4420   82.0110   13.4600 H   0  0  0  0  0  0  0  0  0  0  0  0
   23.9310   81.0490   13.6110 H   0  0  0  0  0  0  0  0  0  0  0  0
   21.6170   79.3190   13.7870 H   0  0  0  0  0  0  0  0  0  0  0  0
   21.4840   80.6500   14.9460 H   0  0  0  0  0  0  0  0  0  0  0  0
   22.7180   77.4050   14.4190 H   0  0  0  0  0  0  0  0  0  0  0  0
   24.3180   76.2460   15.9200 H   0  0  0  0  0  0  0  0  0  0  0  0
   25.6390   77.5070   17.5340 H   0  0  0  0  0  0  0  0  0  0  0  0
   25.3620   79.9640   17.6570 H   0  0  0  0  0  0  0  0  0  0  0  0
   23.8250   81.1220   16.2240 H   0  0  0  0  0  0  0  0  0  0  0  0
   18.2880   78.5720    8.3060 H   0  0  0  0  0  0  0  0  0  0  0  0
   19.8030   73.9500    8.1320 H   0  0  0  0  0  0  0  0  0  0  0  0
   16.8370   74.0110    6.6610 H   0  0  0  0  0  0  0  0  0  0  0  0
   18.3100   73.9800    5.6120 H   0  0  0  0  0  0  0  0  0  0  0  0
   16.0760   75.4870    5.0490 H   0  0  0  0  0  0  0  0  0  0  0  0
   17.7880   76.0520    4.6460 H   0  0  0  0  0  0  0  0  0  0  0  0
   15.2840   79.8680    6.6540 H   0  0  0  0  0  0  0  0  0  0  0  0
   16.6110   79.7550    5.5010 H   0  0  0  0  0  0  0  0  0  0  0  0
   16.9830   79.5410    7.2590 H   0  0  0  0  0  0  0  0  0  0  0  0
  1  2  2  0  0  0  0
  1  3  2  0  0  0  0
  4 11  1  0  0  0  0
  4  5  1  0  0  0  0
  4  1  1  0  0  0  0
  5  6  1  0  0  0  0
  6  8  1  0  0  0  0
  6  7  2  0  0  0  0
  8 12  1  0  0  0  0
  9 10  2  0  0  0  0
  9  8  1  0  0  0  0
 11  9  1  0  0  0  0
 12 37  1  0  0  0  0
 12 38  1  0  0  0  0
 12 13  1  0  0  0  0
 13 40  1  0  0  0  0
 13 14  1  0  0  0  0
 14 19  1  0  0  0  0
 15 14  2  0  0  0  0
 15 16  1  0  0  0  0
 16 17  2  0  0  0  0
 17 18  1  0  0  0  0
 17 43  1  0  0  0  0
 18 44  1  0  0  0  0
 19 45  1  0  0  0  0
 19 18  2  0  0  0  0
 20  1  1  0  0  0  0
 21 46  1  0  0  0  0
 21 20  2  0  0  0  0
 22 21  1  0  0  0  0
 23 22  2  0  0  0  0
 23 24  1  0  0  0  0
 24 25  2  0  0  0  0
 25 20  1  0  0  0  0
 25 26  1  0  0  0  0
 27 48  1  0  0  0  0
 27 23  1  0  0  0  0
 28 27  1  0  0  0  0
 28 29  1  0  0  0  0
 29 22  1  0  0  0  0
 30 29  1  0  0  0  0
 30 32  1  0  0  0  0
 31 30  2  0  0  0  0
 32 52  1  0  0  0  0
 32 54  1  0  0  0  0
 33  5  1  0  0  0  0
 34  5  1  0  0  0  0
 35 11  1  0  0  0  0
 36 11  1  0  0  0  0
 39 13  1  0  0  0  0
 41 15  1  0  0  0  0
 42 16  1  0  0  0  0
 47 24  1  0  0  0  0
 49 27  1  0  0  0  0
 50 28  1  0  0  0  0
 51 28  1  0  0  0  0
 53 32  1  0  0  0  0
M  END
>  <Pose>
1

>  <Score>
-6.69

$$$$
