
 OpenBabel03222202113D

 41 44  0  0  0  0  0  0  0  0999 V2000
   20.5400   76.8840   16.1210 S   0  0  0  0  0  0  0  0  0  0  0  0
   20.3680   75.8800   17.2250 O   0  0  0  0  0  0  0  0  0  0  0  0
   19.3680   77.8310   16.2190 O   0  0  0  0  0  0  0  0  0  0  0  0
   20.5790   76.0700   14.6420 N   0  0  0  0  0  0  0  0  0  0  0  0
   19.6900   74.9870   14.4140 C   0  0  0  0  0  0  0  0  0  0  0  0
   18.9490   75.7660   13.3990 C   0  0  0  0  0  0  0  0  0  0  0  0
   20.0300   76.7790   13.5410 C   0  0  0  0  0  0  0  0  0  0  0  0
   18.8840   75.1980   12.0670 N   0  0  0  0  0  0  0  0  0  0  0  0
   18.2840   74.1030   11.6770 N   0  0  0  0  0  0  0  0  0  0  0  0
   18.4580   73.9180   10.3620 N   0  0  0  0  0  0  0  0  0  0  0  0
   19.2000   74.9310    9.8800 C   0  0  0  0  0  0  0  0  0  0  0  0
   19.4620   75.7360   10.9800 C   0  0  0  0  0  0  0  0  0  0  0  0
   19.6500   75.1530    8.4650 C   0  0  0  0  0  0  0  0  0  0  0  0
   18.5910   75.8600    7.7690 N   0  0  0  0  0  0  0  0  0  0  0  0
   18.2240   77.2280    7.9770 C   0  0  0  0  0  0  0  0  0  0  0  0
   17.1410   77.5240    6.9790 C   0  0  0  0  0  0  0  0  0  0  0  0
   17.0630   76.3850    6.0150 C   0  0  0  0  0  0  0  0  0  0  0  0
   17.7600   75.2840    6.7670 C   0  0  0  0  0  0  0  0  0  0  0  0
   17.6000   74.0760    6.5140 O   0  0  0  0  0  0  0  0  0  0  0  0
   22.0170   77.7790   16.4740 C   0  0  0  0  0  0  0  0  0  0  0  0
   23.5900   77.5010   15.8520 S   0  0  0  0  0  0  0  0  0  0  0  0
   24.4280   78.7540   16.6560 C   0  0  0  0  0  0  0  0  0  0  0  0
   23.4390   79.3550   17.3920 C   0  0  0  0  0  0  0  0  0  0  0  0
   22.2080   78.8510   17.2940 C   0  0  0  0  0  0  0  0  0  0  0  0
   26.2920   79.2310   16.5730 B   0  0  0  0  0  0  0  0  0  0  0  0
   19.1300   74.7330   15.3550 H   0  0  0  0  0  0  0  0  0  0  0  0
   20.2150   74.0740   14.0370 H   0  0  0  0  0  0  0  0  0  0  0  0
   17.9480   76.0540   13.7790 H   0  0  0  0  0  0  0  0  0  0  0  0
   19.7120   77.8250   13.7090 H   0  0  0  0  0  0  0  0  0  0  0  0
   20.7290   76.7610   12.6740 H   0  0  0  0  0  0  0  0  0  0  0  0
   20.0500   76.6530   10.9250 H   0  0  0  0  0  0  0  0  0  0  0  0
   20.5960   75.7410    8.4390 H   0  0  0  0  0  0  0  0  0  0  0  0
   19.7820   74.1710    7.9950 H   0  0  0  0  0  0  0  0  0  0  0  0
   17.8440   77.3720    9.0120 H   0  0  0  0  0  0  0  0  0  0  0  0
   19.0660   77.9430    7.7740 H   0  0  0  0  0  0  0  0  0  0  0  0
   16.1750   77.7330    7.4870 H   0  0  0  0  0  0  0  0  0  0  0  0
   17.3660   78.4480    6.3810 H   0  0  0  0  0  0  0  0  0  0  0  0
   15.9960   76.0950    5.8360 H   0  0  0  0  0  0  0  0  0  0  0  0
   17.5470   76.5800    5.0390 H   0  0  0  0  0  0  0  0  0  0  0  0
   23.7000   80.2230   18.0300 H   0  0  0  0  0  0  0  0  0  0  0  0
   21.3390   79.2610   17.8460 H   0  0  0  0  0  0  0  0  0  0  0  0
  1  3  2  0  0  0  0
  1 20  1  0  0  0  0
  1  2  2  0  0  0  0
  4  1  1  0  0  0  0
  5  4  1  0  0  0  0
  5 26  1  0  0  0  0
  6  7  1  0  0  0  0
  6 28  1  0  0  0  0
  6  5  1  0  0  0  0
  7 29  1  0  0  0  0
  7  4  1  0  0  0  0
  8  6  1  0  0  0  0
  9  8  1  0  0  0  0
 10  9  2  0  0  0  0
 11 10  1  0  0  0  0
 11 12  2  0  0  0  0
 12  8  1  0  0  0  0
 13 11  1  0  0  0  0
 14 15  1  0  0  0  0
 14 13  1  0  0  0  0
 15 34  1  0  0  0  0
 16 36  1  0  0  0  0
 16 15  1  0  0  0  0
 17 18  1  0  0  0  0
 17 16  1  0  0  0  0
 18 14  1  0  0  0  0
 19 18  2  0  0  0  0
 20 24  2  0  0  0  0
 21 20  1  0  0  0  0
 21 22  1  0  0  0  0
 22 23  2  0  0  0  0
 23 40  1  0  0  0  0
 24 23  1  0  0  0  0
 24 41  1  0  0  0  0
 25 22  1  0  0  0  0
 27  5  1  0  0  0  0
 30  7  1  0  0  0  0
 31 12  1  0  0  0  0
 32 13  1  0  0  0  0
 33 13  1  0  0  0  0
 35 15  1  0  0  0  0
 37 16  1  0  0  0  0
 38 17  1  0  0  0  0
 39 17  1  0  0  0  0
M  END
>  <Pose>
1

>  <Score>
-6.94

$$$$
