
 OpenBabel03222202113D

 47 50  0  0  0  0  0  0  0  0999 V2000
   18.9730   75.3960   12.9420 S   0  0  0  0  0  0  0  0  0  0  0  0
   17.5080   75.4690   13.1260 O   0  0  0  0  0  0  0  0  0  0  0  0
   19.3660   73.9310   13.0880 O   0  0  0  0  0  0  0  0  0  0  0  0
   19.5180   75.9230   11.4300 N   0  0  0  0  0  0  0  0  0  0  0  0
   19.6010   77.2990   11.2140 C   0  0  0  0  0  0  0  0  0  0  0  0
   19.5130   77.7660    9.8040 C   0  0  0  0  0  0  0  0  0  0  0  0
   18.7960   76.8950    8.9280 N   0  0  0  0  0  0  0  0  0  0  0  0
   18.2240   75.6780    9.4630 C   0  0  0  0  0  0  0  0  0  0  0  0
   19.3130   75.0620   10.3380 C   0  0  0  0  0  0  0  0  0  0  0  0
   18.6230   77.1760    7.5520 C   0  0  0  0  0  0  0  0  0  0  0  0
   19.2390   78.1450    7.0030 O   0  0  0  0  0  0  0  0  0  0  0  0
   17.7490   76.3980    6.6830 C   0  0  0  0  0  0  0  0  0  0  0  0
   16.5820   76.9160    6.1530 C   0  0  0  0  0  0  0  0  0  0  0  0
   15.7490   76.1920    5.3310 C   0  0  0  0  0  0  0  0  0  0  0  0
   16.1080   74.8870    5.0300 C   0  0  0  0  0  0  0  0  0  0  0  0
   17.2570   74.3200    5.5280 C   0  0  0  0  0  0  0  0  0  0  0  0
   18.0560   75.0870    6.3470 C   0  0  0  0  0  0  0  0  0  0  0  0
   16.1520   78.7200    6.6110 B   0  0  0  0  0  0  0  0  0  0  0  0
   19.8280   76.2430   14.2260 C   0  0  0  0  0  0  0  0  0  0  0  0
   19.3540   76.2530   15.5220 C   0  0  0  0  0  0  0  0  0  0  0  0
   20.0010   76.9070   16.5500 C   0  0  0  0  0  0  0  0  0  0  0  0
   21.1760   77.5900   16.3120 C   0  0  0  0  0  0  0  0  0  0  0  0
   21.6560   77.5820   15.0110 C   0  0  0  0  0  0  0  0  0  0  0  0
   21.0040   76.9260   13.9880 C   0  0  0  0  0  0  0  0  0  0  0  0
   21.8520   78.2600   17.3290 O   0  0  0  0  0  0  0  0  0  0  0  0
   21.3050   78.5230   18.6070 C   0  0  0  0  0  0  0  0  0  0  0  0
   20.1910   77.5990   18.9400 C   0  0  0  0  0  0  0  0  0  0  0  0
   19.8990   77.4630   20.1550 O   0  0  0  0  0  0  0  0  0  0  0  0
   19.5150   76.9210   17.8870 N   0  0  0  0  0  0  0  0  0  0  0  0
   20.5720   77.6780   11.6470 H   0  0  0  0  0  0  0  0  0  0  0  0
   18.8040   77.8100   11.8310 H   0  0  0  0  0  0  0  0  0  0  0  0
   20.5320   78.0180    9.4190 H   0  0  0  0  0  0  0  0  0  0  0  0
   18.9670   78.7550    9.7920 H   0  0  0  0  0  0  0  0  0  0  0  0
   17.9120   74.9790    8.6630 H   0  0  0  0  0  0  0  0  0  0  0  0
   17.3600   75.9050   10.0990 H   0  0  0  0  0  0  0  0  0  0  0  0
   18.9450   74.0740   10.6350 H   0  0  0  0  0  0  0  0  0  0  0  0
   20.2480   75.0070    9.7240 H   0  0  0  0  0  0  0  0  0  0  0  0
   14.8240   76.6160    4.9160 H   0  0  0  0  0  0  0  0  0  0  0  0
   15.4380   74.3230    4.3760 H   0  0  0  0  0  0  0  0  0  0  0  0
   17.5130   73.2880    5.2730 H   0  0  0  0  0  0  0  0  0  0  0  0
   18.9600   74.6480    6.7420 H   0  0  0  0  0  0  0  0  0  0  0  0
   18.4370   75.7230   15.7230 H   0  0  0  0  0  0  0  0  0  0  0  0
   22.5790   78.1190   14.8190 H   0  0  0  0  0  0  0  0  0  0  0  0
   21.3770   76.9210   12.9780 H   0  0  0  0  0  0  0  0  0  0  0  0
   20.8960   79.5700   18.6540 H   0  0  0  0  0  0  0  0  0  0  0  0
   22.1220   78.4810   19.3540 H   0  0  0  0  0  0  0  0  0  0  0  0
   18.6290   76.4090   18.0840 H   0  0  0  0  0  0  0  0  0  0  0  0
  1  3  2  0  0  0  0
  1  2  2  0  0  0  0
  1 19  1  0  0  0  0
  4  1  1  0  0  0  0
  5  4  1  0  0  0  0
  5 30  1  0  0  0  0
  5 31  1  0  0  0  0
  6  5  1  0  0  0  0
  7  8  1  0  0  0  0
  7  6  1  0  0  0  0
  8 35  1  0  0  0  0
  8  9  1  0  0  0  0
  9 36  1  0  0  0  0
  9  4  1  0  0  0  0
 10  7  1  0  0  0  0
 11 10  2  0  0  0  0
 12 10  1  0  0  0  0
 13 18  1  0  0  0  0
 13 12  2  0  0  0  0
 14 13  1  0  0  0  0
 15 14  2  0  0  0  0
 15 16  1  0  0  0  0
 16 17  2  0  0  0  0
 17 12  1  0  0  0  0
 17 41  1  0  0  0  0
 19 20  1  0  0  0  0
 20 42  1  0  0  0  0
 20 21  2  0  0  0  0
 21 29  1  0  0  0  0
 22 21  1  0  0  0  0
 22 25  1  0  0  0  0
 23 22  2  0  0  0  0
 24 19  2  0  0  0  0
 24 23  1  0  0  0  0
 25 26  1  0  0  0  0
 26 45  1  0  0  0  0
 26 27  1  0  0  0  0
 26 46  1  0  0  0  0
 27 28  2  0  0  0  0
 29 47  1  0  0  0  0
 29 27  1  0  0  0  0
 32  6  1  0  0  0  0
 33  6  1  0  0  0  0
 34  8  1  0  0  0  0
 37  9  1  0  0  0  0
 38 14  1  0  0  0  0
 39 15  1  0  0  0  0
 40 16  1  0  0  0  0
 43 23  1  0  0  0  0
 44 24  1  0  0  0  0
M  END
>  <Pose>
1

>  <Score>
-7.31

$$$$
