
 OpenBabel03222202113D

 45 48  0  0  0  0  0  0  0  0999 V2000
   22.4140   79.6100   12.8410 S   0  0  0  0  0  0  0  0  0  0  0  0
   22.5090   81.0510   13.2150 O   0  0  0  0  0  0  0  0  0  0  0  0
   23.7240   79.1750   12.2680 O   0  0  0  0  0  0  0  0  0  0  0  0
   21.9840   78.6410   14.1200 N   0  0  0  0  0  0  0  0  0  0  0  0
   22.5470   78.8900   15.3840 C   0  0  0  0  0  0  0  0  0  0  0  0
   22.0330   77.9730   16.4590 C   0  0  0  0  0  0  0  0  0  0  0  0
   20.7920   77.3550   16.1580 N   0  0  0  0  0  0  0  0  0  0  0  0
   20.8590   76.6260   14.9420 C   0  0  0  0  0  0  0  0  0  0  0  0
   21.5460   77.3290   13.8300 C   0  0  0  0  0  0  0  0  0  0  0  0
   19.6970   78.2310   16.3490 C   0  0  0  0  0  0  0  0  0  0  0  0
   19.7070   79.0350   17.5240 N   0  0  0  0  0  0  0  0  0  0  0  0
   19.9570   80.3260   17.4540 N   0  0  0  0  0  0  0  0  0  0  0  0
   19.9910   81.1520   18.5120 C   0  0  0  0  0  0  0  0  0  0  0  0
   19.7450   80.5910   19.7430 C   0  0  0  0  0  0  0  0  0  0  0  0
   19.4770   79.2460   19.8820 C   0  0  0  0  0  0  0  0  0  0  0  0
   19.4660   78.4810   18.7230 C   0  0  0  0  0  0  0  0  0  0  0  0
   19.2160   77.2330   18.8560 O   0  0  0  0  0  0  0  0  0  0  0  0
   20.2660   82.5530   18.4040 N   0  0  0  0  0  0  0  0  0  0  0  0
   21.2160   83.1640   17.6890 C   0  0  0  0  0  0  0  0  0  0  0  0
   21.1110   84.4920   17.8810 N   0  0  0  0  0  0  0  0  0  0  0  0
   20.0910   84.7380   18.7230 C   0  0  0  0  0  0  0  0  0  0  0  0
   19.5680   83.5030   19.0440 C   0  0  0  0  0  0  0  0  0  0  0  0
   21.1810   79.4780   11.5700 C   0  0  0  0  0  0  0  0  0  0  0  0
   21.0840   78.3710   10.2770 S   0  0  0  0  0  0  0  0  0  0  0  0
   19.6420   78.9210    9.5560 C   0  0  0  0  0  0  0  0  0  0  0  0
   19.2700   79.9730   10.3560 C   0  0  0  0  0  0  0  0  0  0  0  0
   20.0710   80.2550   11.3960 C   0  0  0  0  0  0  0  0  0  0  0  0
   18.7370   78.2540    8.0050 B   0  0  0  0  0  0  0  0  0  0  0  0
   23.6540   78.8350   15.3130 H   0  0  0  0  0  0  0  0  0  0  0  0
   22.3170   79.9380   15.6960 H   0  0  0  0  0  0  0  0  0  0  0  0
   21.9480   78.5100   17.4230 H   0  0  0  0  0  0  0  0  0  0  0  0
   22.7900   77.1720   16.6190 H   0  0  0  0  0  0  0  0  0  0  0  0
   19.8620   76.1910   14.6380 H   0  0  0  0  0  0  0  0  0  0  0  0
   21.4630   75.6950   15.1690 H   0  0  0  0  0  0  0  0  0  0  0  0
   20.8430   77.3680   12.9560 H   0  0  0  0  0  0  0  0  0  0  0  0
   22.4270   76.7510   13.4410 H   0  0  0  0  0  0  0  0  0  0  0  0
   19.6990   78.9480   15.4730 H   0  0  0  0  0  0  0  0  0  0  0  0
   18.7060   77.7040   16.2420 H   0  0  0  0  0  0  0  0  0  0  0  0
   19.7630   81.2220   20.6220 H   0  0  0  0  0  0  0  0  0  0  0  0
   19.2820   78.7940   20.8420 H   0  0  0  0  0  0  0  0  0  0  0  0
   21.9480   82.6570   17.0590 H   0  0  0  0  0  0  0  0  0  0  0  0
   19.7550   85.7250   19.0730 H   0  0  0  0  0  0  0  0  0  0  0  0
   18.7330   83.3580   19.7050 H   0  0  0  0  0  0  0  0  0  0  0  0
   18.3350   80.5360   10.1130 H   0  0  0  0  0  0  0  0  0  0  0  0
   19.8340   81.0940   12.0900 H   0  0  0  0  0  0  0  0  0  0  0  0
  1  2  2  0  0  0  0
  1  4  1  0  0  0  0
  3  1  2  0  0  0  0
  4  5  1  0  0  0  0
  5 30  1  0  0  0  0
  5  6  1  0  0  0  0
  6 32  1  0  0  0  0
  6 31  1  0  0  0  0
  7 10  1  0  0  0  0
  7  6  1  0  0  0  0
  8 34  1  0  0  0  0
  8  7  1  0  0  0  0
  9  4  1  0  0  0  0
  9  8  1  0  0  0  0
 10 11  1  0  0  0  0
 11 16  1  0  0  0  0
 12 11  1  0  0  0  0
 12 13  2  0  0  0  0
 13 14  1  0  0  0  0
 14 15  2  0  0  0  0
 14 39  1  0  0  0  0
 15 40  1  0  0  0  0
 16 17  2  0  0  0  0
 16 15  1  0  0  0  0
 18 13  1  0  0  0  0
 18 22  1  0  0  0  0
 19 20  2  0  0  0  0
 19 18  1  0  0  0  0
 20 21  1  0  0  0  0
 21 22  2  0  0  0  0
 21 42  1  0  0  0  0
 22 43  1  0  0  0  0
 23  1  1  0  0  0  0
 24 23  1  0  0  0  0
 25 24  1  0  0  0  0
 25 26  2  0  0  0  0
 26 27  1  0  0  0  0
 27 23  2  0  0  0  0
 27 45  1  0  0  0  0
 28 25  1  0  0  0  0
 29  5  1  0  0  0  0
 33  8  1  0  0  0  0
 35  9  1  0  0  0  0
 36  9  1  0  0  0  0
 37 10  1  0  0  0  0
 38 10  1  0  0  0  0
 41 19  1  0  0  0  0
 44 26  1  0  0  0  0
M  END
>  <Pose>
1

>  <Score>
-7.12

$$$$
