
 OpenBabel03222202113D

 44 47  0  0  0  0  0  0  0  0999 V2000
   22.6920   78.7570   10.1930 S   0  0  0  0  0  0  0  0  0  0  0  0
   23.9700   78.0820   10.4960 O   0  0  0  0  0  0  0  0  0  0  0  0
   23.0190   79.8770    9.2120 O   0  0  0  0  0  0  0  0  0  0  0  0
   21.9130   79.4560   11.5340 N   0  0  0  0  0  0  0  0  0  0  0  0
   22.6610   80.3730   12.3050 C   0  0  0  0  0  0  0  0  0  0  0  0
   23.0560   79.9400   13.6780 C   0  0  0  0  0  0  0  0  0  0  0  0
   22.6170   78.6150   14.0380 N   0  0  0  0  0  0  0  0  0  0  0  0
   21.3630   78.1370   13.5520 C   0  0  0  0  0  0  0  0  0  0  0  0
   20.9840   78.6210   12.1960 C   0  0  0  0  0  0  0  0  0  0  0  0
   23.4780   77.8430   14.8870 C   0  0  0  0  0  0  0  0  0  0  0  0
   23.3160   77.6540   16.2080 N   0  0  0  0  0  0  0  0  0  0  0  0
   24.3500   76.8920   16.5850 N   0  0  0  0  0  0  0  0  0  0  0  0
   25.1090   76.6270   15.5450 N   0  0  0  0  0  0  0  0  0  0  0  0
   24.6020   77.1990   14.4730 N   0  0  0  0  0  0  0  0  0  0  0  0
   22.2610   78.1510   17.0200 C   0  0  0  0  0  0  0  0  0  0  0  0
   21.5400   77.3190   17.8450 C   0  0  0  0  0  0  0  0  0  0  0  0
   20.5120   77.8380   18.6300 C   0  0  0  0  0  0  0  0  0  0  0  0
   20.1950   79.1790   18.6000 C   0  0  0  0  0  0  0  0  0  0  0  0
   20.9290   80.0260   17.7600 C   0  0  0  0  0  0  0  0  0  0  0  0
   21.9550   79.4880   16.9810 C   0  0  0  0  0  0  0  0  0  0  0  0
   21.6040   77.6700    9.3770 C   0  0  0  0  0  0  0  0  0  0  0  0
   21.9280   76.3700    9.0810 C   0  0  0  0  0  0  0  0  0  0  0  0
   21.0460   75.5090    8.4290 C   0  0  0  0  0  0  0  0  0  0  0  0
   19.7880   76.0030    8.0700 C   0  0  0  0  0  0  0  0  0  0  0  0
   19.4510   77.3060    8.3610 C   0  0  0  0  0  0  0  0  0  0  0  0
   20.3450   78.1180    9.0020 C   0  0  0  0  0  0  0  0  0  0  0  0
   18.5260   74.8770    7.1750 B   0  0  0  0  0  0  0  0  0  0  0  0
   23.5380   80.6930   11.6840 H   0  0  0  0  0  0  0  0  0  0  0  0
   22.0260   81.3060   12.3970 H   0  0  0  0  0  0  0  0  0  0  0  0
   24.1760   80.0330   13.7320 H   0  0  0  0  0  0  0  0  0  0  0  0
   22.6980   80.6950   14.4210 H   0  0  0  0  0  0  0  0  0  0  0  0
   21.3560   77.0080   13.5250 H   0  0  0  0  0  0  0  0  0  0  0  0
   20.5940   78.4290   14.3270 H   0  0  0  0  0  0  0  0  0  0  0  0
   20.0150   79.1920   12.2970 H   0  0  0  0  0  0  0  0  0  0  0  0
   20.7050   77.7650   11.5170 H   0  0  0  0  0  0  0  0  0  0  0  0
   21.7370   76.2430   17.9180 H   0  0  0  0  0  0  0  0  0  0  0  0
   19.9190   77.2040   19.2980 H   0  0  0  0  0  0  0  0  0  0  0  0
   19.4070   79.6110   19.1940 H   0  0  0  0  0  0  0  0  0  0  0  0
   20.6770   81.0710   17.7420 H   0  0  0  0  0  0  0  0  0  0  0  0
   22.4820   80.2060   16.3520 H   0  0  0  0  0  0  0  0  0  0  0  0
   22.9150   75.9700    9.3580 H   0  0  0  0  0  0  0  0  0  0  0  0
   21.2780   74.4910    8.1870 H   0  0  0  0  0  0  0  0  0  0  0  0
   18.4530   77.6410    8.0560 H   0  0  0  0  0  0  0  0  0  0  0  0
   20.0390   79.1560    9.2170 H   0  0  0  0  0  0  0  0  0  0  0  0
  1  2  2  0  0  0  0
  1  4  1  0  0  0  0
  3  1  2  0  0  0  0
  4  9  1  0  0  0  0
  4  5  1  0  0  0  0
  5 29  1  0  0  0  0
  5  6  1  0  0  0  0
  6 30  1  0  0  0  0
  6  7  1  0  0  0  0
  6 31  1  0  0  0  0
  7 10  1  0  0  0  0
  8  7  1  0  0  0  0
  8 33  1  0  0  0  0
  9 34  1  0  0  0  0
  9  8  1  0  0  0  0
 10 11  1  0  0  0  0
 11 12  1  0  0  0  0
 11 15  1  0  0  0  0
 13 12  2  0  0  0  0
 14 10  2  0  0  0  0
 14 13  1  0  0  0  0
 15 16  1  0  0  0  0
 16 36  1  0  0  0  0
 16 17  2  0  0  0  0
 17 37  1  0  0  0  0
 18 17  1  0  0  0  0
 18 38  1  0  0  0  0
 19 18  2  0  0  0  0
 20 15  2  0  0  0  0
 20 19  1  0  0  0  0
 21  1  1  0  0  0  0
 22 41  1  0  0  0  0
 22 21  1  0  0  0  0
 23 22  2  0  0  0  0
 24 25  2  0  0  0  0
 24 23  1  0  0  0  0
 25 26  1  0  0  0  0
 26 44  1  0  0  0  0
 26 21  2  0  0  0  0
 27 24  1  0  0  0  0
 28  5  1  0  0  0  0
 32  8  1  0  0  0  0
 35  9  1  0  0  0  0
 39 19  1  0  0  0  0
 40 20  1  0  0  0  0
 42 23  1  0  0  0  0
 43 25  1  0  0  0  0
M  END
>  <Pose>
1

>  <Score>
-5.68

$$$$
