
 OpenBabel03222202113D

 37 40  0  0  0  0  0  0  0  0999 V2000
   19.1930   78.7880    9.8110 S   0  0  0  0  0  0  0  0  0  0  0  0
   18.1740   79.8940   10.0600 O   0  0  0  0  0  0  0  0  0  0  0  0
   19.1310   77.8890   10.9920 O   0  0  0  0  0  0  0  0  0  0  0  0
   20.6930   79.4880    9.5800 N   0  0  0  0  0  0  0  0  0  0  0  0
   21.8340   78.6640    9.4860 C   0  0  0  0  0  0  0  0  0  0  0  0
   22.6740   78.5500   10.7340 C   0  0  0  0  0  0  0  0  0  0  0  0
   22.2070   79.3820   11.7980 N   0  0  0  0  0  0  0  0  0  0  0  0
   21.4890   80.6260   11.5820 C   0  0  0  0  0  0  0  0  0  0  0  0
   20.9660   80.7350   10.1800 C   0  0  0  0  0  0  0  0  0  0  0  0
   22.4350   79.0020   13.1480 C   0  0  0  0  0  0  0  0  0  0  0  0
   22.4220   77.6780   13.4860 N   0  0  0  0  0  0  0  0  0  0  0  0
   22.6420   77.2990   14.7450 C   0  0  0  0  0  0  0  0  0  0  0  0
   22.8820   78.1770   15.7180 N   0  0  0  0  0  0  0  0  0  0  0  0
   22.9000   79.4720   15.4100 C   0  0  0  0  0  0  0  0  0  0  0  0
   23.1060   80.5570   16.1610 N   0  0  0  0  0  0  0  0  0  0  0  0
   23.0140   81.6580   15.3640 C   0  0  0  0  0  0  0  0  0  0  0  0
   22.7520   81.2810   14.1120 N   0  0  0  0  0  0  0  0  0  0  0  0
   22.6770   79.9420   14.1140 C   0  0  0  0  0  0  0  0  0  0  0  0
   18.5700   77.8930    8.4210 C   0  0  0  0  0  0  0  0  0  0  0  0
   18.9670   76.3270    7.8780 S   0  0  0  0  0  0  0  0  0  0  0  0
   17.9450   76.2340    6.5190 C   0  0  0  0  0  0  0  0  0  0  0  0
   17.3090   77.4520    6.5290 C   0  0  0  0  0  0  0  0  0  0  0  0
   17.6360   78.3000    7.5100 C   0  0  0  0  0  0  0  0  0  0  0  0
   17.7190   74.8030    5.2760 B   0  0  0  0  0  0  0  0  0  0  0  0
   21.6320   77.6440    9.0780 H   0  0  0  0  0  0  0  0  0  0  0  0
   22.4950   79.1290    8.6930 H   0  0  0  0  0  0  0  0  0  0  0  0
   23.7400   78.6870   10.4640 H   0  0  0  0  0  0  0  0  0  0  0  0
   22.6280   77.4790   11.0800 H   0  0  0  0  0  0  0  0  0  0  0  0
   20.6360   80.7030   12.2820 H   0  0  0  0  0  0  0  0  0  0  0  0
   22.1820   81.4630   11.8110 H   0  0  0  0  0  0  0  0  0  0  0  0
   20.0570   81.3660   10.1440 H   0  0  0  0  0  0  0  0  0  0  0  0
   21.7600   81.2510    9.5700 H   0  0  0  0  0  0  0  0  0  0  0  0
   22.6330   76.2490   15.0210 H   0  0  0  0  0  0  0  0  0  0  0  0
   23.1430   82.6620   15.7320 H   0  0  0  0  0  0  0  0  0  0  0  0
   22.6310   81.9230   13.3070 H   0  0  0  0  0  0  0  0  0  0  0  0
   16.5600   77.6800    5.7320 H   0  0  0  0  0  0  0  0  0  0  0  0
   17.1730   79.3070    7.5970 H   0  0  0  0  0  0  0  0  0  0  0  0
  1  2  2  0  0  0  0
  1  3  2  0  0  0  0
  4  1  1  0  0  0  0
  4  9  1  0  0  0  0
  5  4  1  0  0  0  0
  5  6  1  0  0  0  0
  6 28  1  0  0  0  0
  6  7  1  0  0  0  0
  7 10  1  0  0  0  0
  8  7  1  0  0  0  0
  8 30  1  0  0  0  0
  8 29  1  0  0  0  0
  9  8  1  0  0  0  0
 10 11  1  0  0  0  0
 10 18  2  0  0  0  0
 11 12  2  0  0  0  0
 12 33  1  0  0  0  0
 12 13  1  0  0  0  0
 14 13  2  0  0  0  0
 14 15  1  0  0  0  0
 16 34  1  0  0  0  0
 16 15  2  0  0  0  0
 17 18  1  0  0  0  0
 17 16  1  0  0  0  0
 18 14  1  0  0  0  0
 19  1  1  0  0  0  0
 20 19  1  0  0  0  0
 21 22  2  0  0  0  0
 21 20  1  0  0  0  0
 22 23  1  0  0  0  0
 23 37  1  0  0  0  0
 23 19  2  0  0  0  0
 24 21  1  0  0  0  0
 25  5  1  0  0  0  0
 26  5  1  0  0  0  0
 27  6  1  0  0  0  0
 31  9  1  0  0  0  0
 32  9  1  0  0  0  0
 35 17  1  0  0  0  0
 36 22  1  0  0  0  0
M  END
>  <Pose>
1

>  <Score>
-7.34

$$$$
