
 OpenBabel03222202113D

 57 60  0  0  1  0  0  0  0  0999 V2000
   20.7700   77.2780   18.0480 S   0  0  0  0  0  0  0  0  0  0  0  0
   20.9260   76.2850   19.1550 O   0  0  0  0  0  0  0  0  0  0  0  0
   19.4580   76.9340   17.3540 O   0  0  0  0  0  0  0  0  0  0  0  0
   22.0530   77.2890   16.9340 N   0  0  0  0  0  0  0  0  0  0  0  0
   23.2620   77.6670   17.5850 C   0  0  0  0  0  0  0  0  0  0  0  0
   23.9330   78.8940   17.0120 C   0  0  0  0  0  0  0  0  0  0  0  0
   22.9540   79.9580   16.7750 N   0  0  0  0  0  0  0  0  0  0  0  0
   21.7650   79.4920   16.0970 C   0  0  0  0  0  0  0  0  0  0  0  0
   20.8100   80.2320   15.8490 O   0  0  0  0  0  0  0  0  0  0  0  0
   21.8430   78.0340   15.7480 C   0  0  2  0  0  0  0  0  0  0  0  0
   20.7580   77.6000   14.8450 C   0  0  0  0  0  0  0  0  0  0  0  0
   21.1180   76.3030   14.2240 C   0  0  0  0  0  0  0  0  0  0  0  0
   22.3460   76.0320   14.1560 O   0  0  0  0  0  0  0  0  0  0  0  0
   20.1270   75.4030   13.7250 N   0  0  0  0  0  0  0  0  0  0  0  0
   19.1560   75.8350   12.7580 C   0  0  0  0  0  0  0  0  0  0  0  0
   18.6810   74.7520   11.8400 C   0  0  0  0  0  0  0  0  0  0  0  0
   18.6650   73.4310   12.4440 N   0  0  0  0  0  0  0  0  0  0  0  0
   19.9140   73.0490   13.0860 C   0  0  0  0  0  0  0  0  0  0  0  0
   20.1120   74.0470   14.2080 C   0  0  0  0  0  0  0  0  0  0  0  0
   17.5810   72.5430   12.4300 C   0  0  0  0  0  0  0  0  0  0  0  0
   16.3530   72.9670   12.8870 C   0  0  0  0  0  0  0  0  0  0  0  0
   15.2860   72.0820   12.8860 C   0  0  0  0  0  0  0  0  0  0  0  0
   15.3970   70.7870   12.4460 C   0  0  0  0  0  0  0  0  0  0  0  0
   16.6250   70.3680   11.9900 C   0  0  0  0  0  0  0  0  0  0  0  0
   17.6980   71.2480   11.9880 C   0  0  0  0  0  0  0  0  0  0  0  0
   20.5210   78.8610   18.7640 C   0  0  0  0  0  0  0  0  0  0  0  0
   21.4370   79.4370   19.6360 C   0  0  0  0  0  0  0  0  0  0  0  0
   21.2620   80.6660   20.2080 C   0  0  0  0  0  0  0  0  0  0  0  0
   20.1380   81.3990   19.9320 C   0  0  0  0  0  0  0  0  0  0  0  0
   19.1930   80.8510   19.0570 C   0  0  0  0  0  0  0  0  0  0  0  0
   19.4000   79.6120   18.5000 C   0  0  0  0  0  0  0  0  0  0  0  0
   19.8390   83.1150   20.6970 B   0  0  0  0  0  0  0  0  0  0  0  0
   24.0090   76.8350   17.4890 H   0  0  0  0  0  0  0  0  0  0  0  0
   23.1650   77.8500   18.6750 H   0  0  0  0  0  0  0  0  0  0  0  0
   24.4860   78.6260   16.0990 H   0  0  0  0  0  0  0  0  0  0  0  0
   24.6600   79.2730   17.7500 H   0  0  0  0  0  0  0  0  0  0  0  0
   23.0640   80.9350   17.0440 H   0  0  0  0  0  0  0  0  0  0  0  0
   22.8030   77.9580   15.1550 H   0  0  0  0  0  0  0  0  0  0  0  0
   20.6630   78.4090   14.0580 H   0  0  0  0  0  0  0  0  0  0  0  0
   19.7480   77.5560   15.2950 H   0  0  0  0  0  0  0  0  0  0  0  0
   18.2610   76.3070   13.2400 H   0  0  0  0  0  0  0  0  0  0  0  0
   19.5590   76.6500   12.0960 H   0  0  0  0  0  0  0  0  0  0  0  0
   17.6660   75.0030   11.5100 H   0  0  0  0  0  0  0  0  0  0  0  0
   19.3150   74.6800   10.9230 H   0  0  0  0  0  0  0  0  0  0  0  0
   20.7500   73.2350   12.3700 H   0  0  0  0  0  0  0  0  0  0  0  0
   19.9490   72.0530   13.4940 H   0  0  0  0  0  0  0  0  0  0  0  0
   19.3020   73.9800   14.9640 H   0  0  0  0  0  0  0  0  0  0  0  0
   21.0550   73.8370   14.7490 H   0  0  0  0  0  0  0  0  0  0  0  0
   16.1570   73.9810   13.2550 H   0  0  0  0  0  0  0  0  0  0  0  0
   14.3140   72.4070   13.2440 H   0  0  0  0  0  0  0  0  0  0  0  0
   14.5470   70.0990   12.4500 H   0  0  0  0  0  0  0  0  0  0  0  0
   16.7390   69.3460   11.6350 H   0  0  0  0  0  0  0  0  0  0  0  0
   18.6230   70.8280   11.6170 H   0  0  0  0  0  0  0  0  0  0  0  0
   22.3340   78.9000   19.8790 H   0  0  0  0  0  0  0  0  0  0  0  0
   21.9910   81.1110   20.8950 H   0  0  0  0  0  0  0  0  0  0  0  0
   18.3220   81.4580   18.8650 H   0  0  0  0  0  0  0  0  0  0  0  0
   18.6570   79.2180   17.8320 H   0  0  0  0  0  0  0  0  0  0  0  0
  1 26  1  0  0  0  0
  1  2  2  0  0  0  0
  3  1  2  0  0  0  0
  4  5  1  0  0  0  0
  4  1  1  0  0  0  0
  5 34  1  0  0  0  0
  6  5  1  0  0  0  0
  6 36  1  0  0  0  0
  7  6  1  0  0  0  0
  7 37  1  0  0  0  0
  8  7  1  0  0  0  0
  9  8  2  0  0  0  0
 10 38  1  6  0  0  0
 10  8  1  0  0  0  0
 10  4  1  0  0  0  0
 11 40  1  0  0  0  0
 11 10  1  0  0  0  0
 12 11  1  0  0  0  0
 13 12  2  0  0  0  0
 14 19  1  0  0  0  0
 14 12  1  0  0  0  0
 15 41  1  0  0  0  0
 15 14  1  0  0  0  0
 16 17  1  0  0  0  0
 16 15  1  0  0  0  0
 17 18  1  0  0  0  0
 18 46  1  0  0  0  0
 18 19  1  0  0  0  0
 19 48  1  0  0  0  0
 19 47  1  0  0  0  0
 20 17  1  0  0  0  0
 20 21  1  0  0  0  0
 21 49  1  0  0  0  0
 22 21  2  0  0  0  0
 22 50  1  0  0  0  0
 23 51  1  0  0  0  0
 23 22  1  0  0  0  0
 24 23  2  0  0  0  0
 25 24  1  0  0  0  0
 25 20  2  0  0  0  0
 26 27  1  0  0  0  0
 27 54  1  0  0  0  0
 27 28  2  0  0  0  0
 28 55  1  0  0  0  0
 29 28  1  0  0  0  0
 29 32  1  0  0  0  0
 30 29  2  0  0  0  0
 31 26  2  0  0  0  0
 31 30  1  0  0  0  0
 33  5  1  0  0  0  0
 35  6  1  0  0  0  0
 39 11  1  0  0  0  0
 42 15  1  0  0  0  0
 43 16  1  0  0  0  0
 44 16  1  0  0  0  0
 45 18  1  0  0  0  0
 52 24  1  0  0  0  0
 53 25  1  0  0  0  0
 56 30  1  0  0  0  0
 57 31  1  0  0  0  0
M  END
>  <Pose>
1

>  <Score>
-5.77

$$$$
