
 OpenBabel03222202113D

 51 54  0  0  0  0  0  0  0  0999 V2000
   23.8440   78.3350   16.5050 S   0  0  0  0  0  0  0  0  0  0  0  0
   24.5590   77.0420   16.3090 O   0  0  0  0  0  0  0  0  0  0  0  0
   24.8850   79.3680   16.8880 O   0  0  0  0  0  0  0  0  0  0  0  0
   22.7170   78.2460   17.7850 N   0  0  0  0  0  0  0  0  0  0  0  0
   21.6690   77.2870   17.5530 C   0  0  0  0  0  0  0  0  0  0  0  0
   20.5230   77.6560   18.5000 C   0  0  0  0  0  0  0  0  0  0  0  0
   19.8660   78.7800   18.0470 O   0  0  0  0  0  0  0  0  0  0  0  0
   20.7490   79.5370   17.2570 C   0  0  0  0  0  0  0  0  0  0  0  0
   22.0880   79.5390   17.9790 C   0  0  0  0  0  0  0  0  0  0  0  0
   23.1160   78.9030   15.0100 C   0  0  0  0  0  0  0  0  0  0  0  0
   23.4610   80.0850   14.4230 C   0  0  0  0  0  0  0  0  0  0  0  0
   22.8670   80.5100   13.2380 C   0  0  0  0  0  0  0  0  0  0  0  0
   21.9140   79.7620   12.6140 C   0  0  0  0  0  0  0  0  0  0  0  0
   21.5580   78.5610   13.2040 C   0  0  0  0  0  0  0  0  0  0  0  0
   22.1490   78.1410   14.3810 C   0  0  0  0  0  0  0  0  0  0  0  0
   21.2360   80.1390   11.3500 C   0  0  0  0  0  0  0  0  0  0  0  0
   19.9830   79.5060   11.2080 O   0  0  0  0  0  0  0  0  0  0  0  0
   19.7540   78.3670   10.4750 C   0  0  0  0  0  0  0  0  0  0  0  0
   19.1150   77.4290   10.9900 O   0  0  0  0  0  0  0  0  0  0  0  0
   20.2480   78.2420    9.1060 C   0  0  0  0  0  0  0  0  0  0  0  0
   19.3650   77.5210    8.2380 N   0  0  0  0  0  0  0  0  0  0  0  0
   19.4750   76.1100    8.0070 C   0  0  0  0  0  0  0  0  0  0  0  0
   20.3360   75.3420    8.5230 O   0  0  0  0  0  0  0  0  0  0  0  0
   18.4300   75.6970    7.0780 C   0  0  0  0  0  0  0  0  0  0  0  0
   17.6890   76.7970    6.7330 C   0  0  0  0  0  0  0  0  0  0  0  0
   16.6270   76.6820    5.8580 C   0  0  0  0  0  0  0  0  0  0  0  0
   16.2860   75.4600    5.3100 C   0  0  0  0  0  0  0  0  0  0  0  0
   17.0230   74.3440    5.6480 C   0  0  0  0  0  0  0  0  0  0  0  0
   18.0790   74.4870    6.5240 C   0  0  0  0  0  0  0  0  0  0  0  0
   16.5930   72.6360    4.9180 B   0  0  0  0  0  0  0  0  0  0  0  0
   18.2640   77.9470    7.4530 C   0  0  0  0  0  0  0  0  0  0  0  0
   17.8650   79.1310    7.4010 O   0  0  0  0  0  0  0  0  0  0  0  0
   22.0520   76.2970   17.8780 H   0  0  0  0  0  0  0  0  0  0  0  0
   21.3420   77.2110   16.5170 H   0  0  0  0  0  0  0  0  0  0  0  0
   20.9780   77.8030   19.5090 H   0  0  0  0  0  0  0  0  0  0  0  0
   19.7970   76.8320   18.6060 H   0  0  0  0  0  0  0  0  0  0  0  0
   20.8140   79.1610   16.2350 H   0  0  0  0  0  0  0  0  0  0  0  0
   20.3130   80.5540   17.2080 H   0  0  0  0  0  0  0  0  0  0  0  0
   22.7780   80.3010   17.5890 H   0  0  0  0  0  0  0  0  0  0  0  0
   21.8560   79.7390   19.0490 H   0  0  0  0  0  0  0  0  0  0  0  0
   24.2200   80.6940   14.9090 H   0  0  0  0  0  0  0  0  0  0  0  0
   23.1660   81.4520   12.8080 H   0  0  0  0  0  0  0  0  0  0  0  0
   20.8040   77.9520   12.7260 H   0  0  0  0  0  0  0  0  0  0  0  0
   21.8490   77.1900   14.8220 H   0  0  0  0  0  0  0  0  0  0  0  0
   21.0650   81.2340   11.3080 H   0  0  0  0  0  0  0  0  0  0  0  0
   21.9130   79.8540   10.5030 H   0  0  0  0  0  0  0  0  0  0  0  0
   20.4490   79.2540    8.6460 H   0  0  0  0  0  0  0  0  0  0  0  0
   21.2480   77.7190    9.0560 H   0  0  0  0  0  0  0  0  0  0  0  0
   16.0590   77.5720    5.6040 H   0  0  0  0  0  0  0  0  0  0  0  0
   15.4380   75.3790    4.6120 H   0  0  0  0  0  0  0  0  0  0  0  0
   18.6820   73.6250    6.8120 H   0  0  0  0  0  0  0  0  0  0  0  0
  1  3  2  0  0  0  0
  1  4  1  0  0  0  0
  2  1  2  0  0  0  0
  4  9  1  0  0  0  0
  5  4  1  0  0  0  0
  5 33  1  0  0  0  0
  5  6  1  0  0  0  0
  6 36  1  0  0  0  0
  6 35  1  0  0  0  0
  7  6  1  0  0  0  0
  8  9  1  0  0  0  0
  8  7  1  0  0  0  0
  9 40  1  0  0  0  0
 10  1  1  0  0  0  0
 11 41  1  0  0  0  0
 11 10  1  0  0  0  0
 12 11  2  0  0  0  0
 13 14  2  0  0  0  0
 13 12  1  0  0  0  0
 14 15  1  0  0  0  0
 15 44  1  0  0  0  0
 15 10  2  0  0  0  0
 16 13  1  0  0  0  0
 17 16  1  0  0  0  0
 18 19  2  0  0  0  0
 18 17  1  0  0  0  0
 20 18  1  0  0  0  0
 21 20  1  0  0  0  0
 22 21  1  0  0  0  0
 22 23  2  0  0  0  0
 24 22  1  0  0  0  0
 25 24  1  0  0  0  0
 25 31  1  0  0  0  0
 26 25  2  0  0  0  0
 27 28  2  0  0  0  0
 27 26  1  0  0  0  0
 28 29  1  0  0  0  0
 29 51  1  0  0  0  0
 29 24  2  0  0  0  0
 30 28  1  0  0  0  0
 31 21  1  0  0  0  0
 32 31  2  0  0  0  0
 34  5  1  0  0  0  0
 37  8  1  0  0  0  0
 38  8  1  0  0  0  0
 39  9  1  0  0  0  0
 42 12  1  0  0  0  0
 43 14  1  0  0  0  0
 45 16  1  0  0  0  0
 46 16  1  0  0  0  0
 47 20  1  0  0  0  0
 48 20  1  0  0  0  0
 49 26  1  0  0  0  0
 50 27  1  0  0  0  0
M  END
>  <Pose>
1

>  <Score>
-6.90

$$$$
