
 OpenBabel03222202113D

 46 49  0  0  0  0  0  0  0  0999 V2000
   18.7600   77.3930    8.3990 S   0  0  0  0  0  0  0  0  0  0  0  0
   19.7590   77.0890    7.2900 O   0  0  0  0  0  0  0  0  0  0  0  0
   18.6390   76.1010    9.1830 O   0  0  0  0  0  0  0  0  0  0  0  0
   17.3010   77.8170    7.6940 N   0  0  0  0  0  0  0  0  0  0  0  0
   16.9710   79.1780    7.6050 C   0  0  0  0  0  0  0  0  0  0  0  0
   16.4260   79.5140    6.2480 C   0  0  0  0  0  0  0  0  0  0  0  0
   15.3320   78.6970    6.0220 O   0  0  0  0  0  0  0  0  0  0  0  0
   15.6820   77.3590    5.8950 C   0  0  0  0  0  0  0  0  0  0  0  0
   16.6020   76.8670    6.9440 C   0  0  0  0  0  0  0  0  0  0  0  0
   19.4590   78.6280    9.4200 C   0  0  0  0  0  0  0  0  0  0  0  0
   18.9290   79.1900   10.5190 N   0  0  0  0  0  0  0  0  0  0  0  0
   19.8030   80.1050   11.0100 C   0  0  0  0  0  0  0  0  0  0  0  0
   20.8970   80.1350   10.2300 N   0  0  0  0  0  0  0  0  0  0  0  0
   20.7040   79.2480    9.2650 C   0  0  0  0  0  0  0  0  0  0  0  0
   22.0440   80.9940   10.4450 C   0  0  0  0  0  0  0  0  0  0  0  0
   22.6250   80.8020   11.7940 C   0  0  0  0  0  0  0  0  0  0  0  0
   22.9970   81.8030   12.6350 N   0  0  0  0  0  0  0  0  0  0  0  0
   23.4610   81.2650   13.7220 O   0  0  0  0  0  0  0  0  0  0  0  0
   23.4240   79.9580   13.6620 C   0  0  0  0  0  0  0  0  0  0  0  0
   22.8960   79.6690   12.4450 N   0  0  0  0  0  0  0  0  0  0  0  0
   23.8610   78.9690   14.6930 C   0  0  0  0  0  0  0  0  0  0  0  0
   22.7810   78.9110   15.7170 C   0  0  0  0  0  0  0  0  0  0  0  0
   22.8470   79.7810   16.7940 C   0  0  0  0  0  0  0  0  0  0  0  0
   21.8980   79.7980   17.7820 C   0  0  0  0  0  0  0  0  0  0  0  0
   20.8530   78.9200   17.6910 C   0  0  0  0  0  0  0  0  0  0  0  0
   20.7440   78.0450   16.6550 C   0  0  0  0  0  0  0  0  0  0  0  0
   21.7220   78.0500   15.6650 C   0  0  0  0  0  0  0  0  0  0  0  0
   19.5130   78.9140   19.0490 B   0  0  0  0  0  0  0  0  0  0  0  0
   17.8510   79.7960    7.8810 H   0  0  0  0  0  0  0  0  0  0  0  0
   16.1420   79.3950    8.3400 H   0  0  0  0  0  0  0  0  0  0  0  0
   16.0590   80.5620    6.1900 H   0  0  0  0  0  0  0  0  0  0  0  0
   17.1990   79.2860    5.4940 H   0  0  0  0  0  0  0  0  0  0  0  0
   14.7210   76.7840    5.8850 H   0  0  0  0  0  0  0  0  0  0  0  0
   16.1300   77.1850    4.8900 H   0  0  0  0  0  0  0  0  0  0  0  0
   17.3400   76.1370    6.4950 H   0  0  0  0  0  0  0  0  0  0  0  0
   16.0020   76.2220    7.6530 H   0  0  0  0  0  0  0  0  0  0  0  0
   19.6280   80.7090   11.8970 H   0  0  0  0  0  0  0  0  0  0  0  0
   21.3770   79.0030    8.4560 H   0  0  0  0  0  0  0  0  0  0  0  0
   21.7670   82.0610   10.3290 H   0  0  0  0  0  0  0  0  0  0  0  0
   22.8090   80.7880    9.6680 H   0  0  0  0  0  0  0  0  0  0  0  0
   24.7940   79.3560   15.1400 H   0  0  0  0  0  0  0  0  0  0  0  0
   24.0270   77.9730   14.2300 H   0  0  0  0  0  0  0  0  0  0  0  0
   23.6890   80.4710   16.8420 H   0  0  0  0  0  0  0  0  0  0  0  0
   21.9490   80.4850   18.6320 H   0  0  0  0  0  0  0  0  0  0  0  0
   19.9150   77.3430   16.5750 H   0  0  0  0  0  0  0  0  0  0  0  0
   21.6460   77.3590   14.8350 H   0  0  0  0  0  0  0  0  0  0  0  0
  1  3  2  0  0  0  0
  1 10  1  0  0  0  0
  2  1  2  0  0  0  0
  4  1  1  0  0  0  0
  5  4  1  0  0  0  0
  5 29  1  0  0  0  0
  5 30  1  0  0  0  0
  6  5  1  0  0  0  0
  7  6  1  0  0  0  0
  8  7  1  0  0  0  0
  8  9  1  0  0  0  0
  9 36  1  0  0  0  0
  9  4  1  0  0  0  0
 10 11  1  0  0  0  0
 11 12  2  0  0  0  0
 12 37  1  0  0  0  0
 13 15  1  0  0  0  0
 13 12  1  0  0  0  0
 14 10  2  0  0  0  0
 14 13  1  0  0  0  0
 15 16  1  0  0  0  0
 16 20  1  0  0  0  0
 16 17  2  0  0  0  0
 17 18  1  0  0  0  0
 19 18  1  0  0  0  0
 19 21  1  0  0  0  0
 20 19  2  0  0  0  0
 21 41  1  0  0  0  0
 21 22  1  0  0  0  0
 22 23  1  0  0  0  0
 23 43  1  0  0  0  0
 23 24  2  0  0  0  0
 24 44  1  0  0  0  0
 25 24  1  0  0  0  0
 25 28  1  0  0  0  0
 26 25  2  0  0  0  0
 27 22  2  0  0  0  0
 27 26  1  0  0  0  0
 31  6  1  0  0  0  0
 32  6  1  0  0  0  0
 33  8  1  0  0  0  0
 34  8  1  0  0  0  0
 35  9  1  0  0  0  0
 38 14  1  0  0  0  0
 39 15  1  0  0  0  0
 40 15  1  0  0  0  0
 42 21  1  0  0  0  0
 45 26  1  0  0  0  0
 46 27  1  0  0  0  0
M  END
>  <Pose>
1

>  <Score>
-8.13

$$$$
