
 OpenBabel03222202113D

 37 40  0  0  0  0  0  0  0  0999 V2000
   22.4970   79.4340   17.9550 S   0  0  0  0  0  0  0  0  0  0  0  0
   20.9120   79.1160   18.7770 C   0  0  0  0  0  0  0  0  0  0  0  0
   20.1150   80.3760   18.7690 C   0  0  0  0  0  0  0  0  0  0  0  0
   19.1170   80.5130   17.9920 O   0  0  0  0  0  0  0  0  0  0  0  0
   20.4340   81.4580   19.6160 N   0  0  0  0  0  0  0  0  0  0  0  0
   19.9940   82.7740   19.3340 C   0  0  0  0  0  0  0  0  0  0  0  0
   20.1830   83.4880   18.2120 N   0  0  0  0  0  0  0  0  0  0  0  0
   19.6300   84.6650   18.3230 O   0  0  0  0  0  0  0  0  0  0  0  0
   19.0860   84.7310   19.4910 N   0  0  0  0  0  0  0  0  0  0  0  0
   19.2660   83.5990   20.1830 C   0  0  0  0  0  0  0  0  0  0  0  0
   18.8050   83.3320   21.4900 N   0  0  0  0  0  0  0  0  0  0  0  0
   22.2240   79.3750   16.1720 C   0  0  0  0  0  0  0  0  0  0  0  0
   21.4120   78.4570   15.6210 N   0  0  0  0  0  0  0  0  0  0  0  0
   21.1760   78.3680   14.3220 N   0  0  0  0  0  0  0  0  0  0  0  0
   21.7560   79.2220   13.4520 C   0  0  0  0  0  0  0  0  0  0  0  0
   22.5940   80.1750   13.9940 C   0  0  0  0  0  0  0  0  0  0  0  0
   23.0470   80.8970   12.9500 N   0  0  0  0  0  0  0  0  0  0  0  0
   22.5380   80.4470   11.7920 C   0  0  0  0  0  0  0  0  0  0  0  0
   21.7110   79.3820   12.0770 C   0  0  0  0  0  0  0  0  0  0  0  0
   21.0240   78.6830   11.0960 C   0  0  0  0  0  0  0  0  0  0  0  0
   21.2000   79.1040    9.7900 C   0  0  0  0  0  0  0  0  0  0  0  0
   22.0210   80.1680    9.4770 C   0  0  0  0  0  0  0  0  0  0  0  0
   22.6930   80.8460   10.4650 C   0  0  0  0  0  0  0  0  0  0  0  0
   20.2520   78.1400    8.4360 B   0  0  0  0  0  0  0  0  0  0  0  0
   23.9650   82.0100   13.0990 C   0  0  0  0  0  0  0  0  0  0  0  0
   22.8210   80.2460   15.3400 N   0  0  0  0  0  0  0  0  0  0  0  0
   20.3720   78.2710   18.3290 H   0  0  0  0  0  0  0  0  0  0  0  0
   21.1600   78.9320   19.8630 H   0  0  0  0  0  0  0  0  0  0  0  0
   21.0080   81.2700   20.4660 H   0  0  0  0  0  0  0  0  0  0  0  0
   17.8940   82.8530   21.6200 H   0  0  0  0  0  0  0  0  0  0  0  0
   19.3420   83.5950   22.3410 H   0  0  0  0  0  0  0  0  0  0  0  0
   20.3800   77.8450   11.3530 H   0  0  0  0  0  0  0  0  0  0  0  0
   22.1470   80.4850    8.4410 H   0  0  0  0  0  0  0  0  0  0  0  0
   23.3460   81.6860   10.2550 H   0  0  0  0  0  0  0  0  0  0  0  0
   23.7400   82.5780   14.0080 H   0  0  0  0  0  0  0  0  0  0  0  0
   25.0210   81.6750   13.0370 H   0  0  0  0  0  0  0  0  0  0  0  0
   23.8010   82.6900   12.2330 H   0  0  0  0  0  0  0  0  0  0  0  0
  1  2  1  0  0  0  0
  2 28  1  0  0  0  0
  3  2  1  0  0  0  0
  3  5  1  0  0  0  0
  4  3  2  0  0  0  0
  5 29  1  0  0  0  0
  6  5  1  0  0  0  0
  6 10  1  0  0  0  0
  7  8  1  0  0  0  0
  7  6  2  0  0  0  0
  8  9  1  0  0  0  0
  9 10  2  0  0  0  0
 10 11  1  0  0  0  0
 11 30  1  0  0  0  0
 11 31  1  0  0  0  0
 12  1  1  0  0  0  0
 13 12  2  0  0  0  0
 14 13  1  0  0  0  0
 15 16  2  0  0  0  0
 15 14  1  0  0  0  0
 16 26  1  0  0  0  0
 17 25  1  0  0  0  0
 17 16  1  0  0  0  0
 18 19  1  0  0  0  0
 18 17  1  0  0  0  0
 19 15  1  0  0  0  0
 20 32  1  0  0  0  0
 20 19  2  0  0  0  0
 21 20  1  0  0  0  0
 22 21  2  0  0  0  0
 22 23  1  0  0  0  0
 23 18  2  0  0  0  0
 24 21  1  0  0  0  0
 25 35  1  0  0  0  0
 26 12  1  0  0  0  0
 27  2  1  0  0  0  0
 33 22  1  0  0  0  0
 34 23  1  0  0  0  0
 36 25  1  0  0  0  0
 37 25  1  0  0  0  0
M  END
>  <Pose>
1

>  <Score>
-7.18

$$$$
