
 OpenBabel03222202113D

 36 39  0  0  1  0  0  0  0  0999 V2000
   22.1990   80.6200   15.8040 S   0  0  0  0  0  0  0  0  0  0  0  0
   22.1040   79.2610   14.7780 C   0  0  0  0  0  0  0  0  0  0  0  0
   21.5560   78.3050   15.5930 C   0  0  0  0  0  0  0  0  0  0  0  0
   21.2680   78.6510   16.8500 C   0  0  0  0  0  0  0  0  0  0  0  0
   21.5470   79.9400   17.2240 C   0  0  0  0  0  0  0  0  0  0  0  0
   20.4900   77.4410   18.1500 B   0  0  0  0  0  0  0  0  0  0  0  0
   22.5060   79.1210   13.3600 C   0  0  0  0  0  0  0  0  0  0  0  0
   23.7350   79.2250   13.1280 O   0  0  0  0  0  0  0  0  0  0  0  0
   21.5470   78.8860   12.3490 N   0  0  0  0  0  0  0  0  0  0  0  0
   21.2020   79.9000   11.3640 C   0  0  2  0  0  0  0  0  0  0  0  0
   20.0360   79.4760   10.5070 C   0  0  0  0  0  0  0  0  0  0  0  0
   20.6410   78.4440    9.6780 N   0  0  0  0  0  0  0  0  0  0  0  0
   21.8890   79.0080    9.2220 C   0  0  0  0  0  0  0  0  0  0  0  0
   22.3200   79.9320   10.3450 C   0  0  0  0  0  0  0  0  0  0  0  0
   20.0680   77.1550    9.4070 C   0  0  0  0  0  0  0  0  0  0  0  0
   20.0220   76.6650    8.1540 N   0  0  0  0  0  0  0  0  0  0  0  0
   19.4790   75.4560    7.9300 C   0  0  0  0  0  0  0  0  0  0  0  0
   18.9620   74.6910    8.9440 C   0  0  0  0  0  0  0  0  0  0  0  0
   19.0010   75.1650   10.2010 N   0  0  0  0  0  0  0  0  0  0  0  0
   19.5470   76.3790   10.4130 C   0  0  0  0  0  0  0  0  0  0  0  0
   19.4430   76.5770   11.7420 N   0  0  0  0  0  0  0  0  0  0  0  0
   18.8640   75.5460   12.3320 N   0  0  0  0  0  0  0  0  0  0  0  0
   18.5770   74.6450   11.3780 C   0  0  0  0  0  0  0  0  0  0  0  0
   21.3770   77.2910   15.1730 H   0  0  0  0  0  0  0  0  0  0  0  0
   21.3990   80.4460   18.1890 H   0  0  0  0  0  0  0  0  0  0  0  0
   21.0830   77.9510   12.3230 H   0  0  0  0  0  0  0  0  0  0  0  0
   20.9910   80.8680   11.8160 H   0  0  0  0  0  0  0  0  0  0  0  0
   19.1720   79.1230   11.0690 H   0  0  0  0  0  0  0  0  0  0  0  0
   19.7880   80.3320    9.8510 H   0  0  0  0  0  0  0  0  0  0  0  0
   22.6610   78.2790    8.9660 H   0  0  0  0  0  0  0  0  0  0  0  0
   21.6520   79.6440    8.3440 H   0  0  0  0  0  0  0  0  0  0  0  0
   23.2720   79.5310   10.7590 H   0  0  0  0  0  0  0  0  0  0  0  0
   22.4440   80.9750    9.9820 H   0  0  0  0  0  0  0  0  0  0  0  0
   19.4480   75.0690    6.9080 H   0  0  0  0  0  0  0  0  0  0  0  0
   18.5240   73.7140    8.7690 H   0  0  0  0  0  0  0  0  0  0  0  0
   18.1040   73.6930   11.4990 H   0  0  0  0  0  0  0  0  0  0  0  0
  1  5  1  0  0  0  0
  2  3  2  0  0  0  0
  2  1  1  0  0  0  0
  3  4  1  0  0  0  0
  4  5  2  0  0  0  0
  4  6  1  0  0  0  0
  5 25  1  0  0  0  0
  7  2  1  0  0  0  0
  8  7  2  0  0  0  0
  9  7  1  0  0  0  0
 10 27  1  1  0  0  0
 10  9  1  0  0  0  0
 11 28  1  0  0  0  0
 11 10  1  0  0  0  0
 12 11  1  0  0  0  0
 13 12  1  0  0  0  0
 13 14  1  0  0  0  0
 14 32  1  0  0  0  0
 14 10  1  0  0  0  0
 15 12  1  0  0  0  0
 15 20  1  0  0  0  0
 16 15  2  0  0  0  0
 17 16  1  0  0  0  0
 17 18  2  0  0  0  0
 18 19  1  0  0  0  0
 19 20  1  0  0  0  0
 19 23  1  0  0  0  0
 20 21  2  0  0  0  0
 21 22  1  0  0  0  0
 23 36  1  0  0  0  0
 23 22  2  0  0  0  0
 24  3  1  0  0  0  0
 26  9  1  0  0  0  0
 29 11  1  0  0  0  0
 30 13  1  0  0  0  0
 31 13  1  0  0  0  0
 33 14  1  0  0  0  0
 34 17  1  0  0  0  0
 35 18  1  0  0  0  0
M  END
>  <Pose>
1

>  <Score>
-6.51

$$$$
