
 OpenBabel03222202113D

 34 37  0  0  1  0  0  0  0  0999 V2000
   23.0540   80.3460   14.8280 S   0  0  0  0  0  0  0  0  0  0  0  0
   23.6060   78.7880   14.4340 C   0  0  0  0  0  0  0  0  0  0  0  0
   23.3840   78.7020   13.0850 C   0  0  0  0  0  0  0  0  0  0  0  0
   22.8340   79.7850   12.4890 C   0  0  0  0  0  0  0  0  0  0  0  0
   22.5540   80.8590   13.2850 C   0  0  0  0  0  0  0  0  0  0  0  0
   22.5440   79.8160   11.0000 C   0  0  1  0  0  0  0  0  0  0  0  0
   21.0610   80.0660   10.6940 C   0  0  1  0  0  0  0  0  0  0  0  0
   22.1000   81.0860   10.4230 C   0  0  0  0  0  0  0  0  0  0  0  0
   20.5370   79.2280    9.5580 C   0  0  0  0  0  0  0  0  0  0  0  0
   19.2900   79.2180    9.0520 N   0  0  0  0  0  0  0  0  0  0  0  0
   19.2060   78.3360    8.0420 C   0  0  0  0  0  0  0  0  0  0  0  0
   20.4360   77.8040    7.9420 N   0  0  0  0  0  0  0  0  0  0  0  0
   21.2100   78.3500    8.8530 O   0  0  0  0  0  0  0  0  0  0  0  0
   18.0460   78.0050    7.2150 C   0  0  0  0  0  0  0  0  0  0  0  0
   17.8180   76.8330    6.5990 N   0  0  0  0  0  0  0  0  0  0  0  0
   16.6620   76.8840    5.9300 N   0  0  0  0  0  0  0  0  0  0  0  0
   16.1250   78.1110    6.1130 C   0  0  0  0  0  0  0  0  0  0  0  0
   16.9940   78.7810    6.9050 N   0  0  0  0  0  0  0  0  0  0  0  0
   16.0750   75.8130    5.1420 C   0  0  0  0  0  0  0  0  0  0  0  0
   16.7660   74.5490    5.4750 C   0  0  0  0  0  0  0  0  0  0  0  0
   16.4190   73.9290    6.5040 O   0  0  0  0  0  0  0  0  0  0  0  0
   17.7970   74.0630    4.6370 N   0  0  0  0  0  0  0  0  0  0  0  0
   24.3700   77.4330   15.5780 B   0  0  0  0  0  0  0  0  0  0  0  0
   23.6620   77.7560   12.5450 H   0  0  0  0  0  0  0  0  0  0  0  0
   22.1040   81.8200   12.9580 H   0  0  0  0  0  0  0  0  0  0  0  0
   23.0930   79.1340   10.3490 H   0  0  0  0  0  0  0  0  0  0  0  0
   20.3710   80.1960   11.5270 H   0  0  0  0  0  0  0  0  0  0  0  0
   22.2930   81.2770    9.3360 H   0  0  0  0  0  0  0  0  0  0  0  0
   22.0500   81.9970   11.0610 H   0  0  0  0  0  0  0  0  0  0  0  0
   15.1900   78.4490    5.6930 H   0  0  0  0  0  0  0  0  0  0  0  0
   16.1440   76.0810    4.0710 H   0  0  0  0  0  0  0  0  0  0  0  0
   15.0010   75.6680    5.4050 H   0  0  0  0  0  0  0  0  0  0  0  0
   17.5890   73.4750    3.7840 H   0  0  0  0  0  0  0  0  0  0  0  0
   18.8170   74.2480    4.7980 H   0  0  0  0  0  0  0  0  0  0  0  0
  2  1  1  0  0  0  0
  2 23  1  0  0  0  0
  3  2  2  0  0  0  0
  4  3  1  0  0  0  0
  4  5  2  0  0  0  0
  5  1  1  0  0  0  0
  6 26  1  6  0  0  0
  6  4  1  0  0  0  0
  7  6  1  0  0  0  0
  7 27  1  1  0  0  0
  8  7  1  0  0  0  0
  8  6  1  0  0  0  0
  8 29  1  0  0  0  0
  9  7  1  0  0  0  0
 10  9  2  0  0  0  0
 11 10  1  0  0  0  0
 12 11  2  0  0  0  0
 12 13  1  0  0  0  0
 13  9  1  0  0  0  0
 14 11  1  0  0  0  0
 15 14  2  0  0  0  0
 16 17  1  0  0  0  0
 16 15  1  0  0  0  0
 17 18  2  0  0  0  0
 18 14  1  0  0  0  0
 19 32  1  0  0  0  0
 19 20  1  0  0  0  0
 19 16  1  0  0  0  0
 20 21  2  0  0  0  0
 22 34  1  0  0  0  0
 22 20  1  0  0  0  0
 24  3  1  0  0  0  0
 25  5  1  0  0  0  0
 28  8  1  0  0  0  0
 30 17  1  0  0  0  0
 31 19  1  0  0  0  0
 33 22  1  0  0  0  0
M  END
>  <Pose>
1

>  <Score>
-7.65

$$$$
