
 OpenBabel03222202113D

 39 42  0  0  1  0  0  0  0  0999 V2000
   20.2950   80.7740   17.7650 S   0  0  0  0  0  0  0  0  0  0  0  0
   21.7310   80.5200   16.8560 C   0  0  0  0  0  0  0  0  0  0  0  0
   22.2320   79.3720   17.4090 C   0  0  0  0  0  0  0  0  0  0  0  0
   21.5360   78.8110   18.4100 C   0  0  0  0  0  0  0  0  0  0  0  0
   20.3800   79.4310   18.8000 C   0  0  0  0  0  0  0  0  0  0  0  0
   19.6170   78.7870   19.9210 C   0  0  0  0  0  0  0  0  0  0  0  0
   19.3660   77.3960   19.5520 N   0  0  0  0  0  4  0  0  0  0  0  0
   20.5530   76.6820   19.1950 C   0  0  0  0  0  0  0  0  0  0  0  0
   21.8010   77.5580   19.2320 C   0  0  0  0  0  0  0  0  0  0  0  0
   18.5120   77.4500   18.3650 C   0  0  0  0  0  0  0  0  0  0  0  0
   23.5100   78.9080   16.8010 C   0  0  0  0  0  0  0  0  0  0  0  0
   24.0800   77.8570   17.2200 O   0  0  0  0  0  0  0  0  0  0  0  0
   24.0770   79.6640   15.7430 N   0  0  0  0  0  0  0  0  0  0  0  0
   23.3460   80.5700   14.9060 C   0  0  2  0  0  0  0  0  0  0  0  0
   22.3800   81.2270   15.7720 N   0  0  0  0  0  0  0  0  0  0  0  0
   22.6340   79.8830   13.8020 C   0  0  0  0  0  0  0  0  0  0  0  0
   21.8400   78.7760   14.0230 C   0  0  0  0  0  0  0  0  0  0  0  0
   21.1700   78.1270   13.0110 C   0  0  0  0  0  0  0  0  0  0  0  0
   21.2830   78.5810   11.7130 C   0  0  0  0  0  0  0  0  0  0  0  0
   22.0690   79.6820   11.4680 C   0  0  0  0  0  0  0  0  0  0  0  0
   22.7370   80.3280   12.4900 C   0  0  0  0  0  0  0  0  0  0  0  0
   22.1970   80.2800    9.6470 B   0  0  0  0  0  0  0  0  0  0  0  0
   20.6110   77.9310   10.6870 O   0  0  0  0  0  0  0  0  0  0  0  0
   20.0810   76.6080   13.3270 B   0  0  0  0  0  0  0  0  0  0  0  0
   20.1330   78.8790   20.8830 H   0  0  0  0  0  0  0  0  0  0  0  0
   18.6110   79.2580   19.9920 H   0  0  0  0  0  0  0  0  0  0  0  0
   18.7980   76.9280   20.2860 H   0  0  0  0  0  0  0  0  0  0  0  0
   20.5140   76.2850   18.1380 H   0  0  0  0  0  0  0  0  0  0  0  0
   20.7480   75.8000   19.8250 H   0  0  0  0  0  0  0  0  0  0  0  0
   22.6640   77.0080   18.8680 H   0  0  0  0  0  0  0  0  0  0  0  0
   21.9000   77.9180   20.2760 H   0  0  0  0  0  0  0  0  0  0  0  0
   17.9300   78.3990   18.3230 H   0  0  0  0  0  0  0  0  0  0  0  0
   19.1720   77.4810   17.4500 H   0  0  0  0  0  0  0  0  0  0  0  0
   17.8890   76.5570   18.2590 H   0  0  0  0  0  0  0  0  0  0  0  0
   25.1160   79.5380   15.5750 H   0  0  0  0  0  0  0  0  0  0  0  0
   24.0310   81.3170   14.4790 H   0  0  0  0  0  0  0  0  0  0  0  0
   22.1140   82.2250   15.6500 H   0  0  0  0  0  0  0  0  0  0  0  0
   21.7430   78.4110   15.0340 H   0  0  0  0  0  0  0  0  0  0  0  0
   23.3480   81.1870   12.2840 H   0  0  0  0  0  0  0  0  0  0  0  0
  1  5  1  0  0  0  0
  2  3  2  0  0  0  0
  2  1  1  0  0  0  0
  3  4  1  0  0  0  0
  4  5  2  0  0  0  0
  4  9  1  0  0  0  0
  5  6  1  0  0  0  0
  6 26  1  0  0  0  0
  6 25  1  0  0  0  0
  7  6  1  0  0  0  0
  7 27  1  0  0  0  0
  8  9  1  0  0  0  0
  8  7  1  0  0  0  0
  8 29  1  0  0  0  0
  9 31  1  0  0  0  0
 10  7  1  0  0  0  0
 11 12  2  0  0  0  0
 11  3  1  0  0  0  0
 13 11  1  0  0  0  0
 14 36  1  6  0  0  0
 14 13  1  0  0  0  0
 14 15  1  0  0  0  0
 15  2  1  0  0  0  0
 16 17  1  0  0  0  0
 16 14  1  0  0  0  0
 17 38  1  0  0  0  0
 18 24  1  0  0  0  0
 18 17  2  0  0  0  0
 19 18  1  0  0  0  0
 20 19  2  0  0  0  0
 20 21  1  0  0  0  0
 21 16  2  0  0  0  0
 22 20  1  0  0  0  0
 23 19  1  0  0  0  0
 28  8  1  0  0  0  0
 30  9  1  0  0  0  0
 32 10  1  0  0  0  0
 33 10  1  0  0  0  0
 34 10  1  0  0  0  0
 35 13  1  0  0  0  0
 37 15  1  0  0  0  0
 39 21  1  0  0  0  0
M  END
>  <Pose>
1

>  <Score>
-6.14

$$$$
