
 OpenBabel03222202113D

 46 49  0  0  1  0  0  0  0  0999 V2000
   20.9300   77.4060   18.4690 S   0  0  0  0  0  0  0  0  0  0  0  0
   22.0300   77.9340   17.2750 C   0  0  0  0  0  0  0  0  0  0  0  0
   21.7520   79.2680   17.1690 C   0  0  0  0  0  0  0  0  0  0  0  0
   20.7710   79.7590   17.9670 C   0  0  0  0  0  0  0  0  0  0  0  0
   20.1470   78.8700   18.8070 C   0  0  0  0  0  0  0  0  0  0  0  0
   19.0520   79.2860   19.7310 C   0  0  0  0  0  0  0  0  0  0  0  0
   19.1670   80.6210   20.2080 N   0  0  0  0  0  4  0  0  0  0  0  0
   20.0880   81.4630   19.5240 C   0  0  0  0  0  0  0  0  0  0  0  0
   20.2540   81.1990   18.0610 C   0  0  0  0  0  0  0  0  0  0  0  0
   17.8560   81.2460   20.3370 C   0  0  0  0  0  0  0  0  0  0  0  0
   22.6070   79.9800   16.1690 C   0  0  0  0  0  0  0  0  0  0  0  0
   22.4420   81.2280   15.9780 O   0  0  0  0  0  0  0  0  0  0  0  0
   23.5870   79.2630   15.4450 N   0  0  0  0  0  0  0  0  0  0  0  0
   23.4290   77.8490   15.1850 C   0  0  1  0  0  0  0  0  0  0  0  0
   23.0540   77.2790   16.4780 N   0  0  0  0  0  0  0  0  0  0  0  0
   22.3060   77.7000   14.2220 C   0  0  0  0  0  0  0  0  0  0  0  0
   21.3450   76.7290   14.4050 C   0  0  0  0  0  0  0  0  0  0  0  0
   20.2970   76.5750   13.5240 C   0  0  0  0  0  0  0  0  0  0  0  0
   20.2010   77.4150   12.4230 C   0  0  0  0  0  0  0  0  0  0  0  0
   21.1480   78.3940   12.2140 C   0  0  0  0  0  0  0  0  0  0  0  0
   22.1710   78.5210   13.1010 C   0  0  0  0  0  0  0  0  0  0  0  0
   21.0080   79.2050   11.1030 O   0  0  0  0  0  0  0  0  0  0  0  0
   21.9710   80.0750   10.5970 C   0  0  0  0  0  0  0  0  0  0  0  0
   22.8340   79.4010    9.5530 C   0  0  0  0  0  0  0  0  0  0  0  0
   19.1510   77.2770   11.5190 O   0  0  0  0  0  0  0  0  0  0  0  0
   18.9610   75.2370   13.7660 B   0  0  0  0  0  0  0  0  0  0  0  0
   18.1030   79.2050   19.1430 H   0  0  0  0  0  0  0  0  0  0  0  0
   18.9750   78.5340   20.5400 H   0  0  0  0  0  0  0  0  0  0  0  0
   19.5190   80.5500   21.2140 H   0  0  0  0  0  0  0  0  0  0  0  0
   21.0880   81.4620   20.0020 H   0  0  0  0  0  0  0  0  0  0  0  0
   19.7140   82.5200   19.6230 H   0  0  0  0  0  0  0  0  0  0  0  0
   19.3110   81.2980   17.4980 H   0  0  0  0  0  0  0  0  0  0  0  0
   21.0380   81.8860   17.7010 H   0  0  0  0  0  0  0  0  0  0  0  0
   17.7740   81.8600   21.2530 H   0  0  0  0  0  0  0  0  0  0  0  0
   17.0860   80.4340   20.3780 H   0  0  0  0  0  0  0  0  0  0  0  0
   17.6340   81.9120   19.4800 H   0  0  0  0  0  0  0  0  0  0  0  0
   24.4380   79.7560   15.0920 H   0  0  0  0  0  0  0  0  0  0  0  0
   24.3540   77.3860   14.8290 H   0  0  0  0  0  0  0  0  0  0  0  0
   23.4690   76.4240   16.8850 H   0  0  0  0  0  0  0  0  0  0  0  0
   21.3970   76.0690   15.2480 H   0  0  0  0  0  0  0  0  0  0  0  0
   22.9190   79.2700   12.9660 H   0  0  0  0  0  0  0  0  0  0  0  0
   21.4530   80.9630   10.1790 H   0  0  0  0  0  0  0  0  0  0  0  0
   22.6390   80.4390   11.4050 H   0  0  0  0  0  0  0  0  0  0  0  0
   22.4680   78.3610    9.4320 H   0  0  0  0  0  0  0  0  0  0  0  0
   22.8390   79.9790    8.6020 H   0  0  0  0  0  0  0  0  0  0  0  0
   23.8890   79.2890    9.9260 H   0  0  0  0  0  0  0  0  0  0  0  0
  1  5  1  0  0  0  0
  2  1  1  0  0  0  0
  3  2  2  0  0  0  0
  3  4  1  0  0  0  0
  4  9  1  0  0  0  0
  4  5  2  0  0  0  0
  5  6  1  0  0  0  0
  6  7  1  0  0  0  0
  6 28  1  0  0  0  0
  7 10  1  0  0  0  0
  7 29  1  0  0  0  0
  8 31  1  0  0  0  0
  8 30  1  0  0  0  0
  8  7  1  0  0  0  0
  9  8  1  0  0  0  0
 10 35  1  0  0  0  0
 10 34  1  0  0  0  0
 11  3  1  0  0  0  0
 12 11  2  0  0  0  0
 13 11  1  0  0  0  0
 14 38  1  6  0  0  0
 14 13  1  0  0  0  0
 14 15  1  0  0  0  0
 15 39  1  0  0  0  0
 15  2  1  0  0  0  0
 16 17  1  0  0  0  0
 16 14  1  0  0  0  0
 17 40  1  0  0  0  0
 18 26  1  0  0  0  0
 18 17  2  0  0  0  0
 19 18  1  0  0  0  0
 20 19  2  0  0  0  0
 20 21  1  0  0  0  0
 21 16  2  0  0  0  0
 22 20  1  0  0  0  0
 23 22  1  0  0  0  0
 23 43  1  0  0  0  0
 24 46  1  0  0  0  0
 24 23  1  0  0  0  0
 25 19  1  0  0  0  0
 27  6  1  0  0  0  0
 32  9  1  0  0  0  0
 33  9  1  0  0  0  0
 36 10  1  0  0  0  0
 37 13  1  0  0  0  0
 41 21  1  0  0  0  0
 42 23  1  0  0  0  0
 44 24  1  0  0  0  0
 45 24  1  0  0  0  0
M  END
>  <Pose>
1

>  <Score>
-6.59

$$$$
