
 OpenBabel03222202113D

 40 43  0  0  1  0  0  0  0  0999 V2000
   23.6440   79.1780   15.8540 S   0  0  0  0  0  0  0  0  0  0  0  0
   24.3650   77.6870   15.1200 C   0  0  2  0  0  0  0  0  0  0  0  0
   23.1470   77.1470   14.4210 C   0  0  0  0  0  0  0  0  0  0  0  0
   21.9410   77.4350   15.1370 N   0  0  0  0  0  0  0  0  0  0  0  0
   22.0030   78.4770   15.9820 C   0  0  2  0  0  0  0  0  0  0  0  0
   20.8240   78.6150   16.5990 N   0  0  0  0  0  0  0  0  0  0  0  0
   19.9870   77.6540   16.1490 C   0  0  0  0  0  0  0  0  0  0  0  0
   20.6740   76.9020   15.2260 C   0  0  0  0  0  0  0  0  0  0  0  0
   20.1210   75.7690   14.5240 C   0  0  0  0  0  0  0  0  0  0  0  0
   20.8000   74.5420   14.6220 C   0  0  0  0  0  0  0  0  0  0  0  0
   20.3090   73.4160   14.0130 C   0  0  0  0  0  0  0  0  0  0  0  0
   19.1480   73.4080   13.2820 C   0  0  0  0  0  0  0  0  0  0  0  0
   18.4640   74.5970   13.1710 C   0  0  0  0  0  0  0  0  0  0  0  0
   18.9640   75.7470   13.7930 C   0  0  0  0  0  0  0  0  0  0  0  0
   18.7080   72.2040   12.6840 N   0  0  0  0  0  0  0  0  0  0  0  0
   19.3860   71.1730   12.7650 O   0  0  0  0  0  0  0  0  0  0  0  0
   17.5250   72.1860   12.0120 O   0  0  0  0  0  0  0  0  0  0  0  0
   20.4830   79.6000   17.5680 C   0  0  0  0  0  0  0  0  0  0  0  0
   20.5390   80.9460   17.2910 C   0  0  0  0  0  0  0  0  0  0  0  0
   20.2150   81.9200   18.2120 C   0  0  0  0  0  0  0  0  0  0  0  0
   19.8140   81.5510   19.4770 C   0  0  0  0  0  0  0  0  0  0  0  0
   19.7470   80.2060   19.7920 C   0  0  0  0  0  0  0  0  0  0  0  0
   20.0760   79.2510   18.8520 C   0  0  0  0  0  0  0  0  0  0  0  0
   19.3570   82.8750   20.7810 B   0  0  0  0  0  0  0  0  0  0  0  0
   24.7690   76.6920   16.1810 C   0  0  0  0  0  0  0  0  0  0  0  0
   25.1750   77.9130   14.4120 H   0  0  0  0  0  0  0  0  0  0  0  0
   23.1240   77.6110   13.4080 H   0  0  0  0  0  0  0  0  0  0  0  0
   23.2720   76.0340   14.3230 H   0  0  0  0  0  0  0  0  0  0  0  0
   18.9400   77.5180   16.4770 H   0  0  0  0  0  0  0  0  0  0  0  0
   21.7280   74.4910   15.1860 H   0  0  0  0  0  0  0  0  0  0  0  0
   20.8740   72.4890   14.1210 H   0  0  0  0  0  0  0  0  0  0  0  0
   17.5420   74.6440   12.6040 H   0  0  0  0  0  0  0  0  0  0  0  0
   18.3700   76.6230   13.6860 H   0  0  0  0  0  0  0  0  0  0  0  0
   20.8580   81.2420   16.2830 H   0  0  0  0  0  0  0  0  0  0  0  0
   20.2870   82.9540   17.9080 H   0  0  0  0  0  0  0  0  0  0  0  0
   19.4300   79.8970   20.7910 H   0  0  0  0  0  0  0  0  0  0  0  0
   20.0380   78.1830   19.0530 H   0  0  0  0  0  0  0  0  0  0  0  0
   25.6810   76.9850   16.7060 H   0  0  0  0  0  0  0  0  0  0  0  0
   23.9190   76.6300   16.8980 H   0  0  0  0  0  0  0  0  0  0  0  0
   24.9210   75.7090   15.6970 H   0  0  0  0  0  0  0  0  0  0  0  0
  2 26  1  6  0  0  0
  2  1  1  0  0  0  0
  2 25  1  0  0  0  0
  3  2  1  0  0  0  0
  3  4  1  0  0  0  0
  4  8  1  0  0  0  0
  4  5  1  0  0  0  0
  5  1  1  6  0  0  0
  5  6  1  0  0  0  0
  6 18  1  0  0  0  0
  7 29  1  0  0  0  0
  7  6  1  0  0  0  0
  8  7  2  0  0  0  0
  9 10  1  0  0  0  0
  9  8  1  0  0  0  0
 10 30  1  0  0  0  0
 11 31  1  0  0  0  0
 11 10  2  0  0  0  0
 12 11  1  0  0  0  0
 13 12  2  0  0  0  0
 13 14  1  0  0  0  0
 14  9  2  0  0  0  0
 15 16  2  0  0  0  0
 15 12  1  0  0  0  0
 17 15  2  0  0  0  0
 18 23  1  0  0  0  0
 19 18  2  0  0  0  0
 19 20  1  0  0  0  0
 20 21  2  0  0  0  0
 21 22  1  0  0  0  0
 21 24  1  0  0  0  0
 22 36  1  0  0  0  0
 23 37  1  0  0  0  0
 23 22  2  0  0  0  0
 25 38  1  0  0  0  0
 25 39  1  0  0  0  0
 27  3  1  0  0  0  0
 28  3  1  0  0  0  0
 32 13  1  0  0  0  0
 33 14  1  0  0  0  0
 34 19  1  0  0  0  0
 35 20  1  0  0  0  0
 40 25  1  0  0  0  0
M  END
>  <Pose>
1

>  <Score>
-6.31

$$$$
