
 OpenBabel03222202113D

 45 48  0  0  1  0  0  0  0  0999 V2000
   21.7960   80.0170   14.8680 S   0  0  0  0  0  0  0  0  0  0  0  0
   23.3970   80.8970   15.0380 C   0  0  0  0  0  0  0  0  0  0  0  0
   24.3200   79.8790   15.7110 C   0  0  0  0  0  0  0  0  0  0  0  0
   23.7990   79.6460   17.1250 C   0  0  0  0  0  0  0  0  0  0  0  0
   22.7550   78.6540   17.0390 N   0  0  1  0  0  0  0  0  0  0  0  0
   21.8450   78.7230   16.1020 C   0  0  2  0  0  0  0  0  0  0  0  0
   20.9620   77.5830   16.2760 N   0  0  0  0  0  0  0  0  0  0  0  0
   20.9180   77.4740   17.7180 C   0  0  2  0  0  0  0  0  0  0  0  0
   22.4870   77.4620   17.8490 C   0  0  0  0  0  0  0  0  0  0  0  0
   20.3660   76.3350   18.2130 O   0  0  0  0  0  0  0  0  0  0  0  0
   20.4230   78.7290   18.2940 C   0  0  0  0  0  0  0  0  0  0  0  0
   20.8090   79.9760   17.8310 C   0  0  0  0  0  0  0  0  0  0  0  0
   20.3180   81.1320   18.4560 C   0  0  0  0  0  0  0  0  0  0  0  0
   19.4760   81.0850   19.5020 C   0  0  0  0  0  0  0  0  0  0  0  0
   19.0610   79.8310   19.9970 C   0  0  0  0  0  0  0  0  0  0  0  0
   19.5670   78.7150   19.3540 C   0  0  0  0  0  0  0  0  0  0  0  0
   18.9600   82.2300   20.1630 O   0  0  0  0  0  0  0  0  0  0  0  0
   19.7440   83.3980   20.2830 C   0  0  0  0  0  0  0  0  0  0  0  0
   20.3970   76.7840   15.2610 C   0  0  0  0  0  0  0  0  0  0  0  0
   20.8650   76.9740   13.9380 C   0  0  0  0  0  0  0  0  0  0  0  0
   20.3340   76.2740   12.8680 C   0  0  0  0  0  0  0  0  0  0  0  0
   19.3260   75.3670   13.0490 C   0  0  0  0  0  0  0  0  0  0  0  0
   18.8480   75.1600   14.3270 C   0  0  0  0  0  0  0  0  0  0  0  0
   19.3960   75.8740   15.4100 C   0  0  0  0  0  0  0  0  0  0  0  0
   18.5470   74.3930   11.6030 B   0  0  0  0  0  0  0  0  0  0  0  0
   23.7500   81.0930   14.0100 H   0  0  0  0  0  0  0  0  0  0  0  0
   23.2860   81.7980   15.6560 H   0  0  0  0  0  0  0  0  0  0  0  0
   25.3640   80.1910   15.6750 H   0  0  0  0  0  0  0  0  0  0  0  0
   24.2020   78.9310   15.1070 H   0  0  0  0  0  0  0  0  0  0  0  0
   24.6360   79.2660   17.7540 H   0  0  0  0  0  0  0  0  0  0  0  0
   23.4500   80.5630   17.6150 H   0  0  0  0  0  0  0  0  0  0  0  0
   22.8160   77.5090   18.8610 H   0  0  0  0  0  0  0  0  0  0  0  0
   22.7840   76.5700   17.2590 H   0  0  0  0  0  0  0  0  0  0  0  0
   20.8920   76.0530   19.0240 H   0  0  0  0  0  0  0  0  0  0  0  0
   21.4800   80.0540   17.0040 H   0  0  0  0  0  0  0  0  0  0  0  0
   20.6490   82.0850   18.0580 H   0  0  0  0  0  0  0  0  0  0  0  0
   18.3980   79.7760   20.8300 H   0  0  0  0  0  0  0  0  0  0  0  0
   19.2210   77.7720   19.7580 H   0  0  0  0  0  0  0  0  0  0  0  0
   19.0670   84.2390   20.5100 H   0  0  0  0  0  0  0  0  0  0  0  0
   20.2870   83.6710   19.3580 H   0  0  0  0  0  0  0  0  0  0  0  0
   20.5100   83.2990   21.1060 H   0  0  0  0  0  0  0  0  0  0  0  0
   21.6490   77.6760   13.7580 H   0  0  0  0  0  0  0  0  0  0  0  0
   20.7040   76.4330   11.8560 H   0  0  0  0  0  0  0  0  0  0  0  0
   18.0530   74.4560   14.4870 H   0  0  0  0  0  0  0  0  0  0  0  0
   18.9950   75.6950   16.4070 H   0  0  0  0  0  0  0  0  0  0  0  0
  1  2  1  0  0  0  0
  2 27  1  0  0  0  0
  2  3  1  0  0  0  0
  3  4  1  0  0  0  0
  4 31  1  0  0  0  0
  4 30  1  0  0  0  0
  5  4  1  6  0  0  0
  5  9  1  0  0  0  0
  6  1  1  6  0  0  0
  6  7  1  0  0  0  0
  6  5  1  0  0  0  0
  7  8  1  0  0  0  0
  8  9  1  0  0  0  0
  8 10  1  1  0  0  0
  8 11  1  0  0  0  0
  9 32  1  0  0  0  0
 10 34  1  0  0  0  0
 11 16  1  0  0  0  0
 12 11  2  0  0  0  0
 12 13  1  0  0  0  0
 13 14  2  0  0  0  0
 14 15  1  0  0  0  0
 14 17  1  0  0  0  0
 15 37  1  0  0  0  0
 16 38  1  0  0  0  0
 16 15  2  0  0  0  0
 17 18  1  0  0  0  0
 18 39  1  0  0  0  0
 18 41  1  0  0  0  0
 19 24  1  0  0  0  0
 19  7  1  0  0  0  0
 20 19  2  0  0  0  0
 21 22  2  0  0  0  0
 21 20  1  0  0  0  0
 22 23  1  0  0  0  0
 23 44  1  0  0  0  0
 23 24  2  0  0  0  0
 24 45  1  0  0  0  0
 25 22  1  0  0  0  0
 26  2  1  0  0  0  0
 28  3  1  0  0  0  0
 29  3  1  0  0  0  0
 33  9  1  0  0  0  0
 35 12  1  0  0  0  0
 36 13  1  0  0  0  0
 40 18  1  0  0  0  0
 42 20  1  0  0  0  0
 43 21  1  0  0  0  0
M  END
>  <Pose>
1

>  <Score>
-5.09

$$$$
