
 OpenBabel03222202113D

 49 52  0  0  1  0  0  0  0  0999 V2000
   24.3090   79.4360   17.4120 S   0  0  0  0  0  0  0  0  0  0  0  0
   25.9330   78.8710   16.9720 C   0  0  0  0  0  0  0  0  0  0  0  0
   25.8830   78.1780   15.6250 C   0  0  0  0  0  0  0  0  0  0  0  0
   24.9490   76.9840   15.7100 C   0  0  0  0  0  0  0  0  0  0  0  0
   23.5750   77.4330   15.7220 N   0  0  2  0  0  0  0  0  0  0  0  0
   22.4620   77.1170   14.8880 C   0  0  2  0  0  0  0  0  0  0  0  0
   21.3420   77.2070   15.9130 C   0  0  0  0  0  0  0  0  0  0  0  0
   21.7650   78.2970   16.7620 N   0  0  0  0  0  0  0  0  0  0  0  0
   23.0480   78.3730   16.6740 C   0  0  2  0  0  0  0  0  0  0  0  0
   20.9430   79.1660   17.5270 C   0  0  0  0  0  0  0  0  0  0  0  0
   20.1410   78.5820   18.5000 C   0  0  0  0  0  0  0  0  0  0  0  0
   19.2850   79.3680   19.2770 C   0  0  0  0  0  0  0  0  0  0  0  0
   19.2350   80.7360   19.0720 C   0  0  0  0  0  0  0  0  0  0  0  0
   20.0150   81.3460   18.1180 C   0  0  0  0  0  0  0  0  0  0  0  0
   20.8560   80.4990   17.3700 C   0  0  0  0  0  0  0  0  0  0  0  0
   20.0120   82.7070   17.8650 O   0  0  0  0  0  0  0  0  0  0  0  0
   20.1600   83.7210   18.8180 C   0  0  0  0  0  0  0  0  0  0  0  0
   20.1910   77.2190   18.6990 O   0  0  0  0  0  0  0  0  0  0  0  0
   19.1310   76.3240   18.4600 C   0  0  0  0  0  0  0  0  0  0  0  0
   22.5820   75.8230   14.3920 O   0  0  0  0  0  0  0  0  0  0  0  0
   22.1660   78.0920   13.8200 C   0  0  0  0  0  0  0  0  0  0  0  0
   22.6700   79.3500   13.7150 C   0  0  0  0  0  0  0  0  0  0  0  0
   22.2910   80.2040   12.6780 C   0  0  0  0  0  0  0  0  0  0  0  0
   21.3850   79.8050   11.7180 C   0  0  0  0  0  0  0  0  0  0  0  0
   20.8740   78.5470   11.8130 C   0  0  0  0  0  0  0  0  0  0  0  0
   21.2450   77.7110   12.8290 C   0  0  0  0  0  0  0  0  0  0  0  0
   20.8700   80.9920   10.3030 B   0  0  0  0  0  0  0  0  0  0  0  0
   26.6690   79.7170   16.9080 H   0  0  0  0  0  0  0  0  0  0  0  0
   26.2940   78.1060   17.7170 H   0  0  0  0  0  0  0  0  0  0  0  0
   25.5070   78.8930   14.8570 H   0  0  0  0  0  0  0  0  0  0  0  0
   26.8770   77.7950   15.3490 H   0  0  0  0  0  0  0  0  0  0  0  0
   25.1320   76.3810   14.7800 H   0  0  0  0  0  0  0  0  0  0  0  0
   25.1930   76.4250   16.6320 H   0  0  0  0  0  0  0  0  0  0  0  0
   20.4480   77.3830   15.3160 H   0  0  0  0  0  0  0  0  0  0  0  0
   21.2900   76.2560   16.4730 H   0  0  0  0  0  0  0  0  0  0  0  0
   18.6630   78.8930   20.0380 H   0  0  0  0  0  0  0  0  0  0  0  0
   18.5770   81.3720   19.6580 H   0  0  0  0  0  0  0  0  0  0  0  0
   21.4390   81.0080   16.6420 H   0  0  0  0  0  0  0  0  0  0  0  0
   20.4940   84.6840   18.3190 H   0  0  0  0  0  0  0  0  0  0  0  0
   19.1220   83.8800   19.2320 H   0  0  0  0  0  0  0  0  0  0  0  0
   20.8970   83.4870   19.6120 H   0  0  0  0  0  0  0  0  0  0  0  0
   18.1870   76.7530   18.8130 H   0  0  0  0  0  0  0  0  0  0  0  0
   18.9860   76.1590   17.3620 H   0  0  0  0  0  0  0  0  0  0  0  0
   19.2890   75.3570   18.9990 H   0  0  0  0  0  0  0  0  0  0  0  0
   23.3700   75.3800   14.7810 H   0  0  0  0  0  0  0  0  0  0  0  0
   23.3730   79.6930   14.4380 H   0  0  0  0  0  0  0  0  0  0  0  0
   22.7190   81.2240   12.6140 H   0  0  0  0  0  0  0  0  0  0  0  0
   20.1660   78.2610   11.0440 H   0  0  0  0  0  0  0  0  0  0  0  0
   20.8150   76.7240   12.8690 H   0  0  0  0  0  0  0  0  0  0  0  0
  2  1  1  0  0  0  0
  2 29  1  0  0  0  0
  3  4  1  0  0  0  0
  3  2  1  0  0  0  0
  4 33  1  0  0  0  0
  5  4  1  6  0  0  0
  5  9  1  0  0  0  0
  6 20  1  6  0  0  0
  6  5  1  0  0  0  0
  6  7  1  0  0  0  0
  7 35  1  0  0  0  0
  7  8  1  0  0  0  0
  8 10  1  0  0  0  0
  9  8  1  0  0  0  0
  9  1  1  6  0  0  0
 10 11  1  0  0  0  0
 11 18  1  0  0  0  0
 11 12  2  0  0  0  0
 12 36  1  0  0  0  0
 13 12  1  0  0  0  0
 13 37  1  0  0  0  0
 14 13  2  0  0  0  0
 15 10  2  0  0  0  0
 15 14  1  0  0  0  0
 16 14  1  0  0  0  0
 16 17  1  0  0  0  0
 17 40  1  0  0  0  0
 17 41  1  0  0  0  0
 19 18  1  0  0  0  0
 19 42  1  0  0  0  0
 19 44  1  0  0  0  0
 20 45  1  0  0  0  0
 21  6  1  0  0  0  0
 22 21  1  0  0  0  0
 22 46  1  0  0  0  0
 23 22  2  0  0  0  0
 24 25  2  0  0  0  0
 24 23  1  0  0  0  0
 25 26  1  0  0  0  0
 26 49  1  0  0  0  0
 26 21  2  0  0  0  0
 27 24  1  0  0  0  0
 28  2  1  0  0  0  0
 30  3  1  0  0  0  0
 31  3  1  0  0  0  0
 32  4  1  0  0  0  0
 34  7  1  0  0  0  0
 38 15  1  0  0  0  0
 39 17  1  0  0  0  0
 43 19  1  0  0  0  0
 47 23  1  0  0  0  0
 48 25  1  0  0  0  0
M  END
>  <Pose>
1

>  <Score>
-5.66

$$$$
