
 OpenBabel03222202113D

 43 46  0  0  1  0  0  0  0  0999 V2000
   20.1770   77.0740   17.9390 S   0  0  0  0  0  0  0  0  0  0  0  0
   19.1810   78.4180   18.7070 C   0  0  0  0  0  0  0  0  0  0  0  0
   19.4380   79.7140   17.9590 C   0  0  0  0  0  0  0  0  0  0  0  0
   20.9110   79.9140   17.7110 C   0  0  0  0  0  0  0  0  0  0  0  0
   21.3200   79.1550   16.5730 N   0  0  2  0  0  0  0  0  0  0  0  0
   22.1680   79.3600   15.4130 C   0  0  1  0  0  0  0  0  0  0  0  0
   21.5510   78.4430   14.3720 C   0  0  0  0  0  0  0  0  0  0  0  0
   20.9470   77.4000   15.2240 N   0  0  0  0  0  0  0  0  0  0  0  0
   20.8240   77.8150   16.4220 C   0  0  1  0  0  0  0  0  0  0  0  0
   20.5440   76.1170   14.7520 C   0  0  0  0  0  0  0  0  0  0  0  0
   20.9980   74.9130   15.2040 C   0  0  0  0  0  0  0  0  0  0  0  0
   20.5470   73.6960   14.7100 C   0  0  0  0  0  0  0  0  0  0  0  0
   19.5940   73.6770   13.7120 C   0  0  0  0  0  0  0  0  0  0  0  0
   19.1080   74.8850   13.2270 C   0  0  0  0  0  0  0  0  0  0  0  0
   19.5750   76.0900   13.7370 C   0  0  0  0  0  0  0  0  0  0  0  0
   18.9130   72.0530   12.9630 B   0  0  0  0  0  0  0  0  0  0  0  0
   22.1900   80.6780   15.0030 O   0  0  0  0  0  0  0  0  0  0  0  0
   23.5550   78.8980   15.6600 C   0  0  0  0  0  0  0  0  0  0  0  0
   23.9710   77.6800   15.1600 C   0  0  0  0  0  0  0  0  0  0  0  0
   25.2840   77.2850   15.4150 C   0  0  0  0  0  0  0  0  0  0  0  0
   26.1310   78.0730   16.1350 C   0  0  0  0  0  0  0  0  0  0  0  0
   25.7280   79.2960   16.6410 C   0  0  0  0  0  0  0  0  0  0  0  0
   24.4090   79.6850   16.3800 C   0  0  0  0  0  0  0  0  0  0  0  0
   25.7210   76.0360   14.9060 N   0  0  0  0  0  0  0  0  0  0  0  0
   26.3610   75.9490   13.8400 O   0  0  0  0  0  0  0  0  0  0  0  0
   25.4560   74.8700   15.5660 O   0  0  0  0  0  0  0  0  0  0  0  0
   19.4010   78.4970   19.7720 H   0  0  0  0  0  0  0  0  0  0  0  0
   18.1120   78.1770   18.5730 H   0  0  0  0  0  0  0  0  0  0  0  0
   19.0830   80.5580   18.5940 H   0  0  0  0  0  0  0  0  0  0  0  0
   18.9060   79.7580   17.0050 H   0  0  0  0  0  0  0  0  0  0  0  0
   21.1390   80.9900   17.6430 H   0  0  0  0  0  0  0  0  0  0  0  0
   21.4710   79.5010   18.6030 H   0  0  0  0  0  0  0  0  0  0  0  0
   20.7890   78.9450   13.7680 H   0  0  0  0  0  0  0  0  0  0  0  0
   22.3120   77.9590   13.7180 H   0  0  0  0  0  0  0  0  0  0  0  0
   21.7460   74.8780   15.9770 H   0  0  0  0  0  0  0  0  0  0  0  0
   20.9140   72.7470   15.0800 H   0  0  0  0  0  0  0  0  0  0  0  0
   18.3570   74.8480   12.4460 H   0  0  0  0  0  0  0  0  0  0  0  0
   19.1800   77.0220   13.3400 H   0  0  0  0  0  0  0  0  0  0  0  0
   21.4840   80.9480   14.3980 H   0  0  0  0  0  0  0  0  0  0  0  0
   23.3010   77.0590   14.5930 H   0  0  0  0  0  0  0  0  0  0  0  0
   27.1490   77.7680   16.3330 H   0  0  0  0  0  0  0  0  0  0  0  0
   26.4060   79.8980   17.1950 H   0  0  0  0  0  0  0  0  0  0  0  0
   24.1150   80.6410   16.7840 H   0  0  0  0  0  0  0  0  0  0  0  0
  1  2  1  0  0  0  0
  2 27  1  0  0  0  0
  3 29  1  0  0  0  0
  3  2  1  0  0  0  0
  4  3  1  0  0  0  0
  4 32  1  0  0  0  0
  5  4  1  6  0  0  0
  6 17  1  6  0  0  0
  6 18  1  0  0  0  0
  6  5  1  0  0  0  0
  7  8  1  0  0  0  0
  7  6  1  0  0  0  0
  8  9  1  0  0  0  0
  9  5  1  0  0  0  0
  9  1  1  1  0  0  0
 10 11  1  0  0  0  0
 10  8  1  0  0  0  0
 11 35  1  0  0  0  0
 12 36  1  0  0  0  0
 12 11  2  0  0  0  0
 13 12  1  0  0  0  0
 14 13  2  0  0  0  0
 14 15  1  0  0  0  0
 15 10  2  0  0  0  0
 16 13  1  0  0  0  0
 18 23  1  0  0  0  0
 19 20  1  0  0  0  0
 19 18  2  0  0  0  0
 20 21  2  0  0  0  0
 21 41  1  0  0  0  0
 21 22  1  0  0  0  0
 22 42  1  0  0  0  0
 23 22  2  0  0  0  0
 23 43  1  0  0  0  0
 24 20  1  0  0  0  0
 24 26  2  0  0  0  0
 25 24  2  0  0  0  0
 28  2  1  0  0  0  0
 30  3  1  0  0  0  0
 31  4  1  0  0  0  0
 33  7  1  0  0  0  0
 34  7  1  0  0  0  0
 37 14  1  0  0  0  0
 38 15  1  0  0  0  0
 39 17  1  0  0  0  0
 40 19  1  0  0  0  0
M  END
>  <Pose>
1

>  <Score>
-6.15

$$$$
