
 OpenBabel03222202113D

 41 44  0  0  1  0  0  0  0  0999 V2000
   20.8180   79.7210   13.3860 S   0  0  0  0  0  0  0  0  0  0  0  0
   22.1560   80.6960   12.5630 C   0  0  0  0  0  0  0  0  0  0  0  0
   23.3940   80.7110   13.4210 C   0  0  0  0  0  0  0  0  0  0  0  0
   23.1130   80.5850   14.9030 C   0  0  0  0  0  0  0  0  0  0  0  0
   22.6900   79.3000   15.3050 N   0  0  1  0  0  0  0  0  0  0  0  0
   22.8390   78.3470   16.4180 C   0  0  1  0  0  0  0  0  0  0  0  0
   22.8480   77.0770   15.6010 C   0  0  0  0  0  0  0  0  0  0  0  0
   21.7900   77.3470   14.6390 N   0  0  0  0  0  0  0  0  0  0  0  0
   21.7790   78.5780   14.4310 C   0  0  1  0  0  0  0  0  0  0  0  0
   20.8850   76.3630   14.0930 C   0  0  0  0  0  0  0  0  0  0  0  0
   19.9360   76.6070   13.1510 C   0  0  0  0  0  0  0  0  0  0  0  0
   19.0540   75.6400   12.6860 C   0  0  0  0  0  0  0  0  0  0  0  0
   19.1220   74.3670   13.1880 C   0  0  0  0  0  0  0  0  0  0  0  0
   20.0860   74.1140   14.1450 C   0  0  0  0  0  0  0  0  0  0  0  0
   20.9530   75.0680   14.6010 C   0  0  0  0  0  0  0  0  0  0  0  0
   17.9420   72.9670   12.6090 B   0  0  0  0  0  0  0  0  0  0  0  0
   24.0110   78.4920   17.0950 O   0  0  0  0  0  0  0  0  0  0  0  0
   21.6230   78.3670   17.2980 C   0  0  0  0  0  0  0  0  0  0  0  0
   20.6310   79.3220   17.1840 C   0  0  0  0  0  0  0  0  0  0  0  0
   19.5340   79.2640   18.0340 C   0  0  0  0  0  0  0  0  0  0  0  0
   19.3860   78.2800   19.0020 C   0  0  0  0  0  0  0  0  0  0  0  0
   20.3640   77.3310   19.1210 C   0  0  0  0  0  0  0  0  0  0  0  0
   21.4680   77.3880   18.2710 C   0  0  0  0  0  0  0  0  0  0  0  0
   22.4410   80.0710   11.6680 H   0  0  0  0  0  0  0  0  0  0  0  0
   21.7730   81.6790   12.2650 H   0  0  0  0  0  0  0  0  0  0  0  0
   23.8870   81.7170   13.2620 H   0  0  0  0  0  0  0  0  0  0  0  0
   24.1000   79.8960   13.1570 H   0  0  0  0  0  0  0  0  0  0  0  0
   23.9380   81.0210   15.5030 H   0  0  0  0  0  0  0  0  0  0  0  0
   22.2270   81.2880   15.0640 H   0  0  0  0  0  0  0  0  0  0  0  0
   22.7740   76.1630   16.1460 H   0  0  0  0  0  0  0  0  0  0  0  0
   23.8200   77.1080   15.0110 H   0  0  0  0  0  0  0  0  0  0  0  0
   19.8370   77.6120   12.7140 H   0  0  0  0  0  0  0  0  0  0  0  0
   18.3150   75.8870   11.9330 H   0  0  0  0  0  0  0  0  0  0  0  0
   20.1320   73.0960   14.5430 H   0  0  0  0  0  0  0  0  0  0  0  0
   21.7130   74.8390   15.3590 H   0  0  0  0  0  0  0  0  0  0  0  0
   24.0300   78.1310   18.0160 H   0  0  0  0  0  0  0  0  0  0  0  0
   20.7350   80.1000   16.4360 H   0  0  0  0  0  0  0  0  0  0  0  0
   18.7820   80.0230   17.9180 H   0  0  0  0  0  0  0  0  0  0  0  0
   18.5170   78.2610   19.6500 H   0  0  0  0  0  0  0  0  0  0  0  0
   20.2900   76.5410   19.8500 H   0  0  0  0  0  0  0  0  0  0  0  0
   22.2460   76.6440   18.3630 H   0  0  0  0  0  0  0  0  0  0  0  0
  2  1  1  0  0  0  0
  2  3  1  0  0  0  0
  3  4  1  0  0  0  0
  4 29  1  0  0  0  0
  4 28  1  0  0  0  0
  5  4  1  1  0  0  0
  5  6  1  0  0  0  0
  6 17  1  1  0  0  0
  6 18  1  0  0  0  0
  7 30  1  0  0  0  0
  7  6  1  0  0  0  0
  8  7  1  0  0  0  0
  9  1  1  1  0  0  0
  9  8  1  0  0  0  0
  9  5  1  0  0  0  0
 10 15  1  0  0  0  0
 10  8  1  0  0  0  0
 11 10  2  0  0  0  0
 12 11  1  0  0  0  0
 12 13  2  0  0  0  0
 13 14  1  0  0  0  0
 14 34  1  0  0  0  0
 14 15  2  0  0  0  0
 15 35  1  0  0  0  0
 16 13  1  0  0  0  0
 17 36  1  0  0  0  0
 18 23  1  0  0  0  0
 19 18  2  0  0  0  0
 19 20  1  0  0  0  0
 20 21  2  0  0  0  0
 21 22  1  0  0  0  0
 21 39  1  0  0  0  0
 22 40  1  0  0  0  0
 23 41  1  0  0  0  0
 23 22  2  0  0  0  0
 24  2  1  0  0  0  0
 25  2  1  0  0  0  0
 26  3  1  0  0  0  0
 27  3  1  0  0  0  0
 31  7  1  0  0  0  0
 32 11  1  0  0  0  0
 33 12  1  0  0  0  0
 37 19  1  0  0  0  0
 38 20  1  0  0  0  0
M  END
>  <Pose>
1

>  <Score>
-4.31

$$$$
