
 OpenBabel03222202113D

 45 48  0  0  1  0  0  0  0  0999 V2000
   24.3970   78.5100   16.9770 S   0  0  0  0  0  0  0  0  0  0  0  0
   25.0700   77.0900   17.9330 C   0  0  0  0  0  0  0  0  0  0  0  0
   24.1110   76.9040   19.1000 C   0  0  0  0  0  0  0  0  0  0  0  0
   22.7790   76.3870   18.6540 C   0  0  0  0  0  0  0  0  0  0  0  0
   22.0460   77.2720   17.8020 N   0  0  2  0  0  0  0  0  0  0  0  0
   20.6440   77.6800   17.6710 C   0  0  1  0  0  0  0  0  0  0  0  0
   20.5890   77.6580   16.1320 C   0  0  0  0  0  0  0  0  0  0  0  0
   21.8540   78.2820   15.7910 N   0  0  0  0  0  0  0  0  0  0  0  0
   22.6660   78.0450   16.7390 C   0  0  1  0  0  0  0  0  0  0  0  0
   22.0520   79.0220   14.5650 C   0  0  0  0  0  0  0  0  0  0  0  0
   22.5650   80.3150   14.6120 C   0  0  0  0  0  0  0  0  0  0  0  0
   22.7630   81.0470   13.4620 C   0  0  0  0  0  0  0  0  0  0  0  0
   22.4680   80.5520   12.2090 C   0  0  0  0  0  0  0  0  0  0  0  0
   21.9600   79.2760   12.1540 C   0  0  0  0  0  0  0  0  0  0  0  0
   21.7600   78.5340   13.3280 C   0  0  0  0  0  0  0  0  0  0  0  0
   22.6830   81.3190   11.0700 O   0  0  0  0  0  0  0  0  0  0  0  0
   22.2800   80.9800    9.7730 C   0  0  0  0  0  0  0  0  0  0  0  0
   19.8250   76.7170   18.2130 O   0  0  0  0  0  0  0  0  0  0  0  0
   20.3980   79.0470   18.1620 C   0  0  0  0  0  0  0  0  0  0  0  0
   20.6000   80.2050   17.4440 C   0  0  0  0  0  0  0  0  0  0  0  0
   20.3270   81.4460   17.9960 C   0  0  0  0  0  0  0  0  0  0  0  0
   19.8490   81.5420   19.2710 C   0  0  0  0  0  0  0  0  0  0  0  0
   19.6420   80.3940   20.0030 C   0  0  0  0  0  0  0  0  0  0  0  0
   19.9150   79.1710   19.4450 C   0  0  0  0  0  0  0  0  0  0  0  0
   19.4530   83.2330   20.0950 B   0  0  0  0  0  0  0  0  0  0  0  0
   26.0660   77.3550   18.2760 H   0  0  0  0  0  0  0  0  0  0  0  0
   25.0480   76.2040   17.2570 H   0  0  0  0  0  0  0  0  0  0  0  0
   24.0050   77.8880   19.6080 H   0  0  0  0  0  0  0  0  0  0  0  0
   24.5220   76.2110   19.8530 H   0  0  0  0  0  0  0  0  0  0  0  0
   22.9570   75.4210   18.1350 H   0  0  0  0  0  0  0  0  0  0  0  0
   22.1740   76.2120   19.5770 H   0  0  0  0  0  0  0  0  0  0  0  0
   20.6820   76.5790   15.8690 H   0  0  0  0  0  0  0  0  0  0  0  0
   19.6960   78.1310   15.7600 H   0  0  0  0  0  0  0  0  0  0  0  0
   22.8120   80.7550   15.5610 H   0  0  0  0  0  0  0  0  0  0  0  0
   23.1660   82.0650   13.4850 H   0  0  0  0  0  0  0  0  0  0  0  0
   21.7040   78.8270   11.2120 H   0  0  0  0  0  0  0  0  0  0  0  0
   21.3500   77.5340   13.2400 H   0  0  0  0  0  0  0  0  0  0  0  0
   23.0730   81.2730    9.0260 H   0  0  0  0  0  0  0  0  0  0  0  0
   22.0820   79.9180    9.6000 H   0  0  0  0  0  0  0  0  0  0  0  0
   21.3990   81.6250    9.5000 H   0  0  0  0  0  0  0  0  0  0  0  0
   20.1140   76.4250   19.1100 H   0  0  0  0  0  0  0  0  0  0  0  0
   20.9740   80.1080   16.4500 H   0  0  0  0  0  0  0  0  0  0  0  0
   20.4880   82.3470   17.4170 H   0  0  0  0  0  0  0  0  0  0  0  0
   19.2610   80.4610   21.0180 H   0  0  0  0  0  0  0  0  0  0  0  0
   19.7340   78.2860   20.0590 H   0  0  0  0  0  0  0  0  0  0  0  0
  1  2  1  0  0  0  0
  2 26  1  0  0  0  0
  2  3  1  0  0  0  0
  3 28  1  0  0  0  0
  3 29  1  0  0  0  0
  4  3  1  0  0  0  0
  4 31  1  0  0  0  0
  5  4  1  6  0  0  0
  6  5  1  0  0  0  0
  6 19  1  0  0  0  0
  6 18  1  1  0  0  0
  7  6  1  0  0  0  0
  8  7  1  0  0  0  0
  8  9  1  0  0  0  0
  9  1  1  1  0  0  0
  9  5  1  0  0  0  0
 10 11  1  0  0  0  0
 10  8  1  0  0  0  0
 11 34  1  0  0  0  0
 12 35  1  0  0  0  0
 12 11  2  0  0  0  0
 13 12  1  0  0  0  0
 14 13  2  0  0  0  0
 14 15  1  0  0  0  0
 15 10  2  0  0  0  0
 16 13  1  0  0  0  0
 17 16  1  0  0  0  0
 18 41  1  0  0  0  0
 19 24  1  0  0  0  0
 20 21  1  0  0  0  0
 20 19  2  0  0  0  0
 21 22  2  0  0  0  0
 22 23  1  0  0  0  0
 22 25  1  0  0  0  0
 23 44  1  0  0  0  0
 24 23  2  0  0  0  0
 24 45  1  0  0  0  0
 27  2  1  0  0  0  0
 30  4  1  0  0  0  0
 32  7  1  0  0  0  0
 33  7  1  0  0  0  0
 36 14  1  0  0  0  0
 37 15  1  0  0  0  0
 38 17  1  0  0  0  0
 39 17  1  0  0  0  0
 40 17  1  0  0  0  0
 42 20  1  0  0  0  0
 43 21  1  0  0  0  0
M  END
>  <Pose>
1

>  <Score>
-4.71

$$$$
