
 OpenBabel03222202113D

 41 44  0  0  1  0  0  0  0  0999 V2000
   21.4600   77.6870   18.3980 S   0  0  0  0  0  0  0  0  0  0  0  0
   19.8160   78.1750   18.9920 C   0  0  0  0  0  0  0  0  0  0  0  0
   19.0140   78.5700   17.7480 C   0  0  0  0  0  0  0  0  0  0  0  0
   18.8270   77.3100   16.8880 C   0  0  0  0  0  0  0  0  0  0  0  0
   20.0340   77.1480   16.0670 N   0  0  1  0  0  0  0  0  0  0  0  0
   20.2460   76.8000   14.7220 C   0  0  2  0  0  0  0  0  0  0  0  0
   21.7010   77.1690   14.4500 C   0  0  0  0  0  0  0  0  0  0  0  0
   22.2390   77.4570   15.7440 N   0  0  0  0  0  0  0  0  0  0  0  0
   21.3170   77.4090   16.6170 C   0  0  1  0  0  0  0  0  0  0  0  0
   23.6210   77.7950   15.9400 C   0  0  0  0  0  0  0  0  0  0  0  0
   24.5790   76.9710   15.4430 C   0  0  0  0  0  0  0  0  0  0  0  0
   25.9100   77.3370   15.6200 C   0  0  0  0  0  0  0  0  0  0  0  0
   26.2880   78.4890   16.2710 C   0  0  0  0  0  0  0  0  0  0  0  0
   25.2790   79.2940   16.7600 C   0  0  0  0  0  0  0  0  0  0  0  0
   23.9540   78.9630   16.6040 C   0  0  0  0  0  0  0  0  0  0  0  0
   19.4820   77.6520   13.8940 O   0  0  0  0  0  0  0  0  0  0  0  0
   20.0220   75.4190   14.2980 C   0  0  0  0  0  0  0  0  0  0  0  0
   18.7960   75.1510   13.6920 C   0  0  0  0  0  0  0  0  0  0  0  0
   18.4370   73.9080   13.2040 C   0  0  0  0  0  0  0  0  0  0  0  0
   19.3090   72.8590   13.3080 C   0  0  0  0  0  0  0  0  0  0  0  0
   20.5320   73.1050   13.9080 C   0  0  0  0  0  0  0  0  0  0  0  0
   20.8800   74.3620   14.3930 C   0  0  0  0  0  0  0  0  0  0  0  0
   18.8760   71.1030   12.6380 B   0  0  0  0  0  0  0  0  0  0  0  0
   19.3510   77.3030   19.4800 H   0  0  0  0  0  0  0  0  0  0  0  0
   19.8880   79.0620   19.6580 H   0  0  0  0  0  0  0  0  0  0  0  0
   18.0430   78.9570   18.0440 H   0  0  0  0  0  0  0  0  0  0  0  0
   19.6020   79.3260   17.1960 H   0  0  0  0  0  0  0  0  0  0  0  0
   18.6100   76.4480   17.5090 H   0  0  0  0  0  0  0  0  0  0  0  0
   17.9480   77.5190   16.2580 H   0  0  0  0  0  0  0  0  0  0  0  0
   21.7520   78.0620   13.8010 H   0  0  0  0  0  0  0  0  0  0  0  0
   22.2560   76.2930   14.0330 H   0  0  0  0  0  0  0  0  0  0  0  0
   24.3660   76.0260   14.9100 H   0  0  0  0  0  0  0  0  0  0  0  0
   26.6590   76.6750   15.2270 H   0  0  0  0  0  0  0  0  0  0  0  0
   27.3450   78.7670   16.3960 H   0  0  0  0  0  0  0  0  0  0  0  0
   25.5430   80.2130   17.2820 H   0  0  0  0  0  0  0  0  0  0  0  0
   23.1360   79.5900   16.9840 H   0  0  0  0  0  0  0  0  0  0  0  0
   19.0750   77.0700   13.2010 H   0  0  0  0  0  0  0  0  0  0  0  0
   18.1080   75.9920   13.6190 H   0  0  0  0  0  0  0  0  0  0  0  0
   17.4570   73.7490   12.7360 H   0  0  0  0  0  0  0  0  0  0  0  0
   21.2180   72.2700   13.9810 H   0  0  0  0  0  0  0  0  0  0  0  0
   21.8460   74.5230   14.8670 H   0  0  0  0  0  0  0  0  0  0  0  0
  1  2  1  0  0  0  0
  2 24  1  0  0  0  0
  2 25  1  0  0  0  0
  3 26  1  0  0  0  0
  3  2  1  0  0  0  0
  4 28  1  0  0  0  0
  4  3  1  0  0  0  0
  5  9  1  0  0  0  0
  5  4  1  6  0  0  0
  6 16  1  6  0  0  0
  6  5  1  0  0  0  0
  7  6  1  0  0  0  0
  7  8  1  0  0  0  0
  8 10  1  0  0  0  0
  8  9  1  0  0  0  0
  9  1  1  6  0  0  0
 10 15  1  0  0  0  0
 11 12  1  0  0  0  0
 11 10  2  0  0  0  0
 12 13  2  0  0  0  0
 13 34  1  0  0  0  0
 13 14  1  0  0  0  0
 14 35  1  0  0  0  0
 15 14  2  0  0  0  0
 15 36  1  0  0  0  0
 17 22  1  0  0  0  0
 17  6  1  0  0  0  0
 18 17  2  0  0  0  0
 19 20  2  0  0  0  0
 19 18  1  0  0  0  0
 20 21  1  0  0  0  0
 21 40  1  0  0  0  0
 21 22  2  0  0  0  0
 22 41  1  0  0  0  0
 23 20  1  0  0  0  0
 27  3  1  0  0  0  0
 29  4  1  0  0  0  0
 30  7  1  0  0  0  0
 31  7  1  0  0  0  0
 32 11  1  0  0  0  0
 33 12  1  0  0  0  0
 37 16  1  0  0  0  0
 38 18  1  0  0  0  0
 39 19  1  0  0  0  0
M  END
>  <Pose>
1

>  <Score>
-5.44

$$$$
