
 OpenBabel03222202113D

 49 52  0  0  0  0  0  0  0  0999 V2000
   21.1500   78.8890   11.1420 S   0  0  0  0  0  0  0  0  0  0  0  0
   21.2980   79.7660    9.5550 C   0  0  0  0  0  0  0  0  0  0  0  0
   21.9510   81.0260   10.0230 C   0  0  0  0  0  0  0  0  0  0  0  0
   22.4420   80.9560   11.3040 N   0  0  0  0  0  0  0  0  0  0  0  0
   22.1990   80.0110   12.0660 C   0  0  0  0  0  0  0  0  0  0  0  0
   22.7030   79.6840   13.7500 S   0  0  0  0  0  0  0  0  0  0  0  0
   22.3910   78.0040   14.2480 C   0  0  0  0  0  0  0  0  0  0  0  0
   22.2200   77.7490   15.6870 C   0  0  0  0  0  0  0  0  0  0  0  0
   23.1120   77.9740   16.6590 N   0  0  0  0  0  0  0  0  0  0  0  0
   22.5210   77.5620   17.7940 N   0  0  0  0  0  0  0  0  0  0  0  0
   21.3410   77.1070   17.5660 N   0  0  0  0  0  0  0  0  0  0  0  0
   21.0530   77.1860   16.2170 C   0  0  0  0  0  0  0  0  0  0  0  0
   19.8140   76.7430   15.6320 C   0  0  0  0  0  0  0  0  0  0  0  0
   18.7940   76.6700   16.4250 O   0  0  0  0  0  0  0  0  0  0  0  0
   19.5590   76.3780   14.3140 N   0  0  0  0  0  0  0  0  0  0  0  0
   18.8420   75.1620   14.0360 N   0  0  0  0  0  0  0  0  0  0  0  0
   19.2550   74.3180   13.1760 C   0  0  0  0  0  0  0  0  0  0  0  0
   18.5600   73.0770   12.8660 C   0  0  0  0  0  0  0  0  0  0  0  0
   17.2260   73.0590   12.5290 C   0  0  0  0  0  0  0  0  0  0  0  0
   16.5550   71.8920   12.2260 C   0  0  0  0  0  0  0  0  0  0  0  0
   17.2020   70.6830   12.2500 C   0  0  0  0  0  0  0  0  0  0  0  0
   18.5630   70.6640   12.5880 C   0  0  0  0  0  0  0  0  0  0  0  0
   19.2050   71.8470   12.8860 C   0  0  0  0  0  0  0  0  0  0  0  0
   19.1500   69.4200   12.5930 O   0  0  0  0  0  0  0  0  0  0  0  0
   19.3480   68.6090   13.7240 C   0  0  0  0  0  0  0  0  0  0  0  0
   16.5080   69.5230   11.9420 O   0  0  0  0  0  0  0  0  0  0  0  0
   14.7000   71.9180   11.7640 B   0  0  0  0  0  0  0  0  0  0  0  0
   24.4400   78.4920   16.6400 C   0  0  0  0  0  0  0  0  0  0  0  0
   24.8820   79.6830   17.0940 N   0  0  0  0  0  0  0  0  0  0  0  0
   26.1460   79.8190   16.9430 O   0  0  0  0  0  0  0  0  0  0  0  0
   26.6010   78.7400   16.3890 N   0  0  0  0  0  0  0  0  0  0  0  0
   25.5750   77.8640   16.1730 C   0  0  0  0  0  0  0  0  0  0  0  0
   25.6770   76.5730   15.6070 N   0  0  0  0  0  4  0  0  0  0  0  0
   21.8840   79.2000    8.8190 H   0  0  0  0  0  0  0  0  0  0  0  0
   20.2700   80.0140    9.2240 H   0  0  0  0  0  0  0  0  0  0  0  0
   21.3210   81.9230    9.7960 H   0  0  0  0  0  0  0  0  0  0  0  0
   22.8430   81.1770    9.3280 H   0  0  0  0  0  0  0  0  0  0  0  0
   23.2070   77.3800   13.8460 H   0  0  0  0  0  0  0  0  0  0  0  0
   21.4360   77.6070   13.7710 H   0  0  0  0  0  0  0  0  0  0  0  0
   19.8230   76.8700   13.4440 H   0  0  0  0  0  0  0  0  0  0  0  0
   20.1670   74.5340   12.6530 H   0  0  0  0  0  0  0  0  0  0  0  0
   16.6980   74.0130   12.5070 H   0  0  0  0  0  0  0  0  0  0  0  0
   20.2540   71.8160   13.1470 H   0  0  0  0  0  0  0  0  0  0  0  0
   20.3090   68.0260   13.6450 H   0  0  0  0  0  0  0  0  0  0  0  0
   19.3100   69.1980   14.6480 H   0  0  0  0  0  0  0  0  0  0  0  0
   18.5510   67.8140   13.7160 H   0  0  0  0  0  0  0  0  0  0  0  0
   25.4550   76.6510   14.5790 H   0  0  0  0  0  0  0  0  0  0  0  0
   25.0740   75.8580   16.0500 H   0  0  0  0  0  0  0  0  0  0  0  0
   26.6830   76.2550   15.6630 H   0  0  0  0  0  0  0  0  0  0  0  0
  1  5  1  0  0  0  0
  2  3  1  0  0  0  0
  2  1  1  0  0  0  0
  3  4  1  0  0  0  0
  4  5  2  0  0  0  0
  5  6  1  0  0  0  0
  6  7  1  0  0  0  0
  7  8  1  0  0  0  0
  8 12  2  0  0  0  0
  8  9  1  0  0  0  0
  9 10  1  0  0  0  0
 11 10  2  0  0  0  0
 12 11  1  0  0  0  0
 13 12  1  0  0  0  0
 13 14  2  0  0  0  0
 15 13  1  0  0  0  0
 16 15  1  0  0  0  0
 17 16  2  0  0  0  0
 18 23  1  0  0  0  0
 18 17  1  0  0  0  0
 19 18  2  0  0  0  0
 20 21  2  0  0  0  0
 20 19  1  0  0  0  0
 21 22  1  0  0  0  0
 22 24  1  0  0  0  0
 22 23  2  0  0  0  0
 23 43  1  0  0  0  0
 24 25  1  0  0  0  0
 25 45  1  0  0  0  0
 26 21  1  0  0  0  0
 27 20  1  0  0  0  0
 28  9  1  0  0  0  0
 28 29  2  0  0  0  0
 30 29  1  0  0  0  0
 31 30  1  0  0  0  0
 32 31  2  0  0  0  0
 32 28  1  0  0  0  0
 33 49  1  0  0  0  0
 33 48  1  0  0  0  0
 33 32  1  0  0  0  0
 34  2  1  0  0  0  0
 35  2  1  0  0  0  0
 36  3  1  0  0  0  0
 37  3  1  0  0  0  0
 38  7  1  0  0  0  0
 39  7  1  0  0  0  0
 40 15  1  0  0  0  0
 41 17  1  0  0  0  0
 42 19  1  0  0  0  0
 44 25  1  0  0  0  0
 46 25  1  0  0  0  0
 47 33  1  0  0  0  0
M  END
>  <Pose>
1

>  <Score>
-8.60

$$$$
