
 OpenBabel03222202113D

 40 43  0  0  1  0  0  0  0  0999 V2000
   22.0090   78.4070   14.6720 S   0  0  0  0  0  0  0  0  0  0  0  0
   21.0350   78.0380   16.1250 C   0  0  1  0  0  0  0  0  0  0  0  0
   20.8080   78.4380   17.3340 N   0  0  0  0  0  0  0  0  0  0  0  0
   19.8430   77.6290   17.9790 C   0  0  0  0  0  0  0  0  0  0  0  0
   19.4640   76.6070   16.9590 C   0  0  0  0  0  0  0  0  0  0  0  0
   20.2690   76.9190   15.7540 N   0  0  0  0  0  0  0  0  0  0  0  0
   20.4600   76.4380   14.4530 C   0  0  0  0  0  0  0  0  0  0  0  0
   21.3330   77.0680   13.7000 C   0  0  0  0  0  0  0  0  0  0  0  0
   19.7290   75.2680   13.8650 C   0  0  0  0  0  0  0  0  0  0  0  0
   20.1440   73.9750   14.0890 C   0  0  0  0  0  0  0  0  0  0  0  0
   19.5120   72.8650   13.5700 C   0  0  0  0  0  0  0  0  0  0  0  0
   18.3980   73.0150   12.7770 C   0  0  0  0  0  0  0  0  0  0  0  0
   17.9670   74.2900   12.5390 C   0  0  0  0  0  0  0  0  0  0  0  0
   18.6200   75.4160   13.0730 C   0  0  0  0  0  0  0  0  0  0  0  0
   21.5000   79.6110   17.8980 C   0  0  0  0  0  0  0  0  0  0  0  0
   20.7420   80.8040   17.4700 C   0  0  0  0  0  0  0  0  0  0  0  0
   20.5040   81.0250   16.2660 O   0  0  0  0  0  0  0  0  0  0  0  0
   20.2550   81.7520   18.4620 C   0  0  0  0  0  0  0  0  0  0  0  0
   20.3380   83.1280   18.2410 C   0  0  0  0  0  0  0  0  0  0  0  0
   19.8910   84.0510   19.1680 C   0  0  0  0  0  0  0  0  0  0  0  0
   19.3530   83.5710   20.3330 C   0  0  0  0  0  0  0  0  0  0  0  0
   19.2480   82.2180   20.5980 C   0  0  0  0  0  0  0  0  0  0  0  0
   19.7070   81.3060   19.6460 C   0  0  0  0  0  0  0  0  0  0  0  0
   18.7350   84.8600   21.6120 B   0  0  0  0  0  0  0  0  0  0  0  0
   18.9590   78.2180   18.3510 H   0  0  0  0  0  0  0  0  0  0  0  0
   20.2770   77.1890   18.9160 H   0  0  0  0  0  0  0  0  0  0  0  0
   18.3840   76.7540   16.7440 H   0  0  0  0  0  0  0  0  0  0  0  0
   19.7250   75.6240   17.3830 H   0  0  0  0  0  0  0  0  0  0  0  0
   21.6330   76.8540   12.6570 H   0  0  0  0  0  0  0  0  0  0  0  0
   21.0180   73.7780   14.7080 H   0  0  0  0  0  0  0  0  0  0  0  0
   19.8800   71.8730   13.7800 H   0  0  0  0  0  0  0  0  0  0  0  0
   17.9070   72.1470   12.3720 H   0  0  0  0  0  0  0  0  0  0  0  0
   17.0910   74.4740   11.9180 H   0  0  0  0  0  0  0  0  0  0  0  0
   18.2360   76.3920   12.8550 H   0  0  0  0  0  0  0  0  0  0  0  0
   21.3720   79.4830   19.0110 H   0  0  0  0  0  0  0  0  0  0  0  0
   22.5540   79.6200   17.6300 H   0  0  0  0  0  0  0  0  0  0  0  0
   20.7620   83.4750   17.3210 H   0  0  0  0  0  0  0  0  0  0  0  0
   19.9560   85.1010   18.9980 H   0  0  0  0  0  0  0  0  0  0  0  0
   18.8280   81.8400   21.5100 H   0  0  0  0  0  0  0  0  0  0  0  0
   19.6100   80.2570   19.8820 H   0  0  0  0  0  0  0  0  0  0  0  0
  2  1  1  6  0  0  0
  2  3  1  0  0  0  0
  3 15  1  0  0  0  0
  3  4  1  0  0  0  0
  4 25  1  0  0  0  0
  4 26  1  0  0  0  0
  5 28  1  0  0  0  0
  5  4  1  0  0  0  0
  6  2  1  0  0  0  0
  6  5  1  0  0  0  0
  7  6  1  0  0  0  0
  8  7  2  0  0  0  0
  8  1  1  0  0  0  0
  9 10  1  0  0  0  0
  9  7  1  0  0  0  0
 10 30  1  0  0  0  0
 11 31  1  0  0  0  0
 11 10  2  0  0  0  0
 12 11  1  0  0  0  0
 13 12  2  0  0  0  0
 13 14  1  0  0  0  0
 14  9  2  0  0  0  0
 15 35  1  0  0  0  0
 16 15  1  0  0  0  0
 16 18  1  0  0  0  0
 17 16  2  0  0  0  0
 18 23  1  0  0  0  0
 19 18  2  0  0  0  0
 19 20  1  0  0  0  0
 20 21  2  0  0  0  0
 21 22  1  0  0  0  0
 21 24  1  0  0  0  0
 22 39  1  0  0  0  0
 23 40  1  0  0  0  0
 23 22  2  0  0  0  0
 27  5  1  0  0  0  0
 29  8  1  0  0  0  0
 32 12  1  0  0  0  0
 33 13  1  0  0  0  0
 34 14  1  0  0  0  0
 36 15  1  0  0  0  0
 37 19  1  0  0  0  0
 38 20  1  0  0  0  0
M  END
>  <Pose>
1

>  <Score>
-6.38

$$$$
