
 OpenBabel03222202113D

 43 46  0  0  1  0  0  0  0  0999 V2000
   24.7200   78.0230   17.0560 Cl  0  0  0  0  0  0  0  0  0  0  0  0
   23.6400   79.0810   16.1240 C   0  0  0  0  0  0  0  0  0  0  0  0
   22.3180   78.6460   15.9430 C   0  0  0  0  0  0  0  0  0  0  0  0
   21.4900   79.4620   15.2290 C   0  0  0  0  0  0  0  0  0  0  0  0
   21.9560   80.6610   14.7180 C   0  0  0  0  0  0  0  0  0  0  0  0
   23.2590   81.0920   14.8970 C   0  0  0  0  0  0  0  0  0  0  0  0
   24.1180   80.2720   15.6210 C   0  0  0  0  0  0  0  0  0  0  0  0
   21.9640   77.2670   16.4320 C   0  0  2  0  0  0  0  0  0  0  0  0
   21.0830   76.7310   15.4020 N   0  0  0  0  0  0  0  0  0  0  0  0
   19.7570   76.4670   15.7100 C   0  0  0  0  0  0  0  0  0  0  0  0
   19.0890   77.2320   16.8340 C   0  0  0  0  0  0  0  0  0  0  0  0
   19.9780   77.6750   17.8170 N   0  0  0  0  0  0  0  0  0  0  0  0
   21.3410   77.2420   17.7510 C   0  0  0  0  0  0  0  0  0  0  0  0
   19.6690   78.5350   18.9020 C   0  0  0  0  0  0  0  0  0  0  0  0
   19.2310   77.8680   19.9450 O   0  0  0  0  0  0  0  0  0  0  0  0
   19.7430   79.9400   19.0840 C   0  0  0  0  0  0  0  0  0  0  0  0
   20.3090   80.7000   18.0320 C   0  0  0  0  0  0  0  0  0  0  0  0
   20.2980   82.0320   18.0600 N   0  0  0  0  0  0  0  0  0  0  0  0
   19.7570   82.7110   19.0740 C   0  0  0  0  0  0  0  0  0  0  0  0
   19.1950   82.0310   20.1200 C   0  0  0  0  0  0  0  0  0  0  0  0
   19.1870   80.6380   20.1290 C   0  0  0  0  0  0  0  0  0  0  0  0
   18.5810   82.7470   21.1950 N   0  0  0  0  0  0  0  0  0  0  0  0
   18.5720   84.1750   21.1460 C   0  0  0  0  0  0  0  0  0  0  0  0
   17.7440   84.8950   21.7390 O   0  0  0  0  0  0  0  0  0  0  0  0
   19.6330   84.8330   20.3220 C   0  0  0  0  0  0  0  0  0  0  0  0
   19.7580   84.1100   19.0870 O   0  0  0  0  0  0  0  0  0  0  0  0
   20.4450   79.1640   15.0260 H   0  0  0  0  0  0  0  0  0  0  0  0
   21.2620   81.2980   14.1380 H   0  0  0  0  0  0  0  0  0  0  0  0
   23.5790   82.0560   14.4760 H   0  0  0  0  0  0  0  0  0  0  0  0
   25.1400   80.5590   15.7960 H   0  0  0  0  0  0  0  0  0  0  0  0
   22.9040   76.6580   16.3730 H   0  0  0  0  0  0  0  0  0  0  0  0
   21.2070   77.2540   14.5110 H   0  0  0  0  0  0  0  0  0  0  0  0
   19.1340   76.6900   14.7750 H   0  0  0  0  0  0  0  0  0  0  0  0
   19.5950   75.3570   15.8820 H   0  0  0  0  0  0  0  0  0  0  0  0
   18.4770   76.3770   17.4310 H   0  0  0  0  0  0  0  0  0  0  0  0
   18.2830   77.8630   16.4710 H   0  0  0  0  0  0  0  0  0  0  0  0
   21.9450   77.8000   18.5270 H   0  0  0  0  0  0  0  0  0  0  0  0
   21.4030   76.1600   18.1570 H   0  0  0  0  0  0  0  0  0  0  0  0
   20.7560   80.1640   17.1970 H   0  0  0  0  0  0  0  0  0  0  0  0
   18.7080   80.1940   20.9440 H   0  0  0  0  0  0  0  0  0  0  0  0
   18.1440   82.2610   21.9930 H   0  0  0  0  0  0  0  0  0  0  0  0
   20.6120   84.8250   20.8030 H   0  0  0  0  0  0  0  0  0  0  0  0
   19.3700   85.8710   20.0510 H   0  0  0  0  0  0  0  0  0  0  0  0
  2  1  1  0  0  0  0
  3  2  1  0  0  0  0
  3  8  1  0  0  0  0
  4  3  2  0  0  0  0
  5  6  2  0  0  0  0
  5  4  1  0  0  0  0
  6  7  1  0  0  0  0
  7 30  1  0  0  0  0
  7  2  2  0  0  0  0
  8 31  1  1  0  0  0
  8 13  1  0  0  0  0
  9 10  1  0  0  0  0
  9  8  1  0  0  0  0
 10 34  1  0  0  0  0
 10 11  1  0  0  0  0
 11 35  1  0  0  0  0
 11 12  1  0  0  0  0
 12 14  1  0  0  0  0
 13 12  1  0  0  0  0
 13 38  1  0  0  0  0
 13 37  1  0  0  0  0
 14 16  1  0  0  0  0
 14 15  2  0  0  0  0
 16 21  1  0  0  0  0
 17 18  1  0  0  0  0
 17 16  2  0  0  0  0
 18 19  2  0  0  0  0
 19 26  1  0  0  0  0
 19 20  1  0  0  0  0
 20 21  2  0  0  0  0
 20 22  1  0  0  0  0
 21 40  1  0  0  0  0
 22 41  1  0  0  0  0
 23 22  1  0  0  0  0
 23 24  2  0  0  0  0
 25 42  1  0  0  0  0
 25 23  1  0  0  0  0
 26 25  1  0  0  0  0
 27  4  1  0  0  0  0
 28  5  1  0  0  0  0
 29  6  1  0  0  0  0
 32  9  1  0  0  0  0
 33 10  1  0  0  0  0
 36 11  1  0  0  0  0
 39 17  1  0  0  0  0
 43 25  1  0  0  0  0
M  END
>  <Pose>
1

>  <Score>
-6.67

$$$$
