
 OpenBabel03222202113D

 63 66  0  0  1  0  0  0  0  0999 V2000
   22.8970   80.0990   13.3470 B   0  0  0  0  0  0  0  0  0  0  0  0
   22.1630   79.5900   11.6460 C   0  0  0  0  0  0  0  0  0  0  0  0
   20.8970   78.9970   11.5720 C   0  0  0  0  0  0  0  0  0  0  0  0
   20.3450   78.6200   10.3560 C   0  0  0  0  0  0  0  0  0  0  0  0
   21.0960   78.8560    9.2380 C   0  0  0  0  0  0  0  0  0  0  0  0
   22.3540   79.4430    9.2920 C   0  0  0  0  0  0  0  0  0  0  0  0
   22.8880   79.8120   10.5040 C   0  0  0  0  0  0  0  0  0  0  0  0
   19.0240   77.9760   10.3130 C   0  0  1  0  0  0  0  0  0  0  0  0
   18.6160   77.7490    8.9410 N   0  0  0  0  0  0  0  0  0  0  0  0
   19.2850   76.5800    8.5000 C   0  0  0  0  0  0  0  0  0  0  0  0
   19.5650   76.3140    7.3270 O   0  0  0  0  0  0  0  0  0  0  0  0
   19.5630   75.7790    9.7050 C   0  0  0  0  0  0  0  0  0  0  0  0
   20.1340   74.6640    9.7700 O   0  0  0  0  0  0  0  0  0  0  0  0
   19.0260   76.5610   10.8130 C   0  0  0  0  0  0  0  0  0  0  0  0
   18.6110   76.0690   11.9710 C   0  0  0  0  0  0  0  0  0  0  0  0
   18.0830   77.0170   12.8790 O   0  0  0  0  0  0  0  0  0  0  0  0
   18.6740   74.6570   12.3290 C   0  0  0  0  0  0  0  0  0  0  0  0
   19.4860   74.1410   13.2950 C   0  0  0  0  0  0  0  0  0  0  0  0
   19.5210   72.7560   13.5420 C   0  0  0  0  0  0  0  0  0  0  0  0
   18.7550   71.8640   12.8420 C   0  0  0  0  0  0  0  0  0  0  0  0
   17.9320   72.3840   11.8660 C   0  0  0  0  0  0  0  0  0  0  0  0
   17.8900   73.7300   11.6160 C   0  0  0  0  0  0  0  0  0  0  0  0
   18.7840   70.4910   13.0840 O   0  0  0  0  0  0  0  0  0  0  0  0
   18.5720   69.9870   14.3770 C   0  0  0  0  0  0  0  0  0  0  0  0
   20.3140   75.0360   14.1370 C   0  0  0  0  0  0  0  0  0  0  0  0
   17.7000   78.5990    8.2090 C   0  0  0  0  0  0  0  0  0  0  0  0
   17.7150   78.3660    6.7310 C   0  0  0  0  0  0  0  0  0  0  0  0
   16.4970   77.7450    6.1610 C   0  0  0  0  0  0  0  0  0  0  0  0
   16.5130   76.3290    6.0720 N   0  0  0  0  0  4  0  0  0  0  0  0
   15.2100   75.7450    5.7100 C   0  0  0  0  0  0  0  0  0  0  0  0
   15.2630   74.3010    6.2130 C   0  0  0  0  0  0  0  0  0  0  0  0
   16.5440   73.9220    6.5710 O   0  0  0  0  0  0  0  0  0  0  0  0
   17.4540   74.2120    5.5530 C   0  0  0  0  0  0  0  0  0  0  0  0
   17.4810   75.7190    5.2350 C   0  0  0  0  0  0  0  0  0  0  0  0
   20.3920   78.8540   12.4980 H   0  0  0  0  0  0  0  0  0  0  0  0
   20.7190   78.5690    8.2850 H   0  0  0  0  0  0  0  0  0  0  0  0
   22.9350   79.6250    8.4040 H   0  0  0  0  0  0  0  0  0  0  0  0
   23.8710   80.2780   10.6080 H   0  0  0  0  0  0  0  0  0  0  0  0
   18.3220   78.6230   10.8790 H   0  0  0  0  0  0  0  0  0  0  0  0
   20.1830   72.3630   14.3220 H   0  0  0  0  0  0  0  0  0  0  0  0
   17.3200   71.6650   11.3080 H   0  0  0  0  0  0  0  0  0  0  0  0
   17.2380   74.1150   10.8500 H   0  0  0  0  0  0  0  0  0  0  0  0
   19.3490   70.3580   15.1000 H   0  0  0  0  0  0  0  0  0  0  0  0
   18.6420   68.8950   14.4140 H   0  0  0  0  0  0  0  0  0  0  0  0
   17.6010   70.2880   14.8260 H   0  0  0  0  0  0  0  0  0  0  0  0
   20.7110   75.9190   13.6230 H   0  0  0  0  0  0  0  0  0  0  0  0
   21.2280   74.4750   14.5000 H   0  0  0  0  0  0  0  0  0  0  0  0
   19.7750   75.2950   15.0940 H   0  0  0  0  0  0  0  0  0  0  0  0
   16.6720   78.3540    8.5710 H   0  0  0  0  0  0  0  0  0  0  0  0
   17.8370   79.6750    8.4240 H   0  0  0  0  0  0  0  0  0  0  0  0
   17.9590   79.3660    6.2720 H   0  0  0  0  0  0  0  0  0  0  0  0
   18.6210   77.7340    6.4840 H   0  0  0  0  0  0  0  0  0  0  0  0
   16.3810   78.1400    5.1200 H   0  0  0  0  0  0  0  0  0  0  0  0
   15.6140   78.1080    6.7300 H   0  0  0  0  0  0  0  0  0  0  0  0
   16.6930   75.9630    7.0570 H   0  0  0  0  0  0  0  0  0  0  0  0
   14.3680   76.2900    6.1410 H   0  0  0  0  0  0  0  0  0  0  0  0
   15.1490   75.7810    4.5960 H   0  0  0  0  0  0  0  0  0  0  0  0
   14.6450   74.2240    7.1550 H   0  0  0  0  0  0  0  0  0  0  0  0
   14.7710   73.6360    5.4970 H   0  0  0  0  0  0  0  0  0  0  0  0
   17.1480   73.6090    4.6730 H   0  0  0  0  0  0  0  0  0  0  0  0
   18.4620   73.8390    5.8390 H   0  0  0  0  0  0  0  0  0  0  0  0
   17.2660   75.7970    4.1530 H   0  0  0  0  0  0  0  0  0  0  0  0
   18.5010   76.0590    5.4900 H   0  0  0  0  0  0  0  0  0  0  0  0
  2  1  1  0  0  0  0
  3  2  1  0  0  0  0
  3 35  1  0  0  0  0
  4  3  2  0  0  0  0
  5  6  2  0  0  0  0
  5  4  1  0  0  0  0
  6  7  1  0  0  0  0
  7 38  1  0  0  0  0
  7  2  2  0  0  0  0
  8  4  1  0  0  0  0
  8 14  1  0  0  0  0
  8 39  1  1  0  0  0
  9  8  1  0  0  0  0
 10  9  1  0  0  0  0
 10 12  1  0  0  0  0
 11 10  2  0  0  0  0
 12 13  2  0  0  0  0
 12 14  1  0  0  0  0
 14 15  2  0  0  0  0
 15 17  1  0  0  0  0
 15 16  1  0  0  0  0
 17 18  1  0  0  0  0
 18 19  2  0  0  0  0
 18 25  1  0  0  0  0
 19 40  1  0  0  0  0
 20 23  1  0  0  0  0
 20 19  1  0  0  0  0
 21 20  2  0  0  0  0
 22 21  1  0  0  0  0
 22 17  2  0  0  0  0
 23 24  1  0  0  0  0
 24 44  1  0  0  0  0
 24 45  1  0  0  0  0
 24 43  1  0  0  0  0
 25 47  1  0  0  0  0
 25 48  1  0  0  0  0
 26 50  1  0  0  0  0
 26 49  1  0  0  0  0
 26  9  1  0  0  0  0
 27 26  1  0  0  0  0
 28 54  1  0  0  0  0
 28 27  1  0  0  0  0
 29 28  1  0  0  0  0
 29 55  1  0  0  0  0
 30 29  1  0  0  0  0
 30 56  1  0  0  0  0
 30 31  1  0  0  0  0
 31 32  1  0  0  0  0
 31 58  1  0  0  0  0
 33 61  1  0  0  0  0
 33 32  1  0  0  0  0
 34 63  1  0  0  0  0
 34 33  1  0  0  0  0
 34 29  1  0  0  0  0
 36  5  1  0  0  0  0
 37  6  1  0  0  0  0
 41 21  1  0  0  0  0
 42 22  1  0  0  0  0
 46 25  1  0  0  0  0
 51 27  1  0  0  0  0
 52 27  1  0  0  0  0
 53 28  1  0  0  0  0
 57 30  1  0  0  0  0
 59 31  1  0  0  0  0
 60 33  1  0  0  0  0
 62 34  1  0  0  0  0
M  END
>  <Pose>
1

>  <Score>
-5.41

$$$$
