
 OpenBabel03222202113D

 61 64  0  0  1  0  0  0  0  0999 V2000
   19.8700   80.3420   18.0900 B   0  0  0  0  0  0  0  0  0  0  0  0
   21.2070   80.3350   16.7270 C   0  0  0  0  0  0  0  0  0  0  0  0
   21.3950   79.3070   15.8550 C   0  0  0  0  0  0  0  0  0  0  0  0
   22.3520   79.2630   14.8550 C   0  0  0  0  0  0  0  0  0  0  0  0
   23.1940   80.3650   14.7310 C   0  0  0  0  0  0  0  0  0  0  0  0
   23.0300   81.4270   15.6000 C   0  0  0  0  0  0  0  0  0  0  0  0
   22.0630   81.4390   16.5900 C   0  0  0  0  0  0  0  0  0  0  0  0
   22.4280   78.0630   14.0160 C   0  0  1  0  0  0  0  0  0  0  0  0
   22.2020   76.8940   14.7810 N   0  0  0  0  0  0  0  0  0  0  0  0
   20.9940   76.2780   14.3670 C   0  0  0  0  0  0  0  0  0  0  0  0
   20.4660   75.2630   14.9210 O   0  0  0  0  0  0  0  0  0  0  0  0
   20.4830   76.9930   13.2180 C   0  0  0  0  0  0  0  0  0  0  0  0
   19.4100   76.6530   12.6490 O   0  0  0  0  0  0  0  0  0  0  0  0
   21.4100   78.0720   12.9340 C   0  0  0  0  0  0  0  0  0  0  0  0
   21.2950   78.9080   11.9270 C   0  0  0  0  0  0  0  0  0  0  0  0
   22.2030   79.9340   11.8020 O   0  0  0  0  0  0  0  0  0  0  0  0
   20.2430   78.7640   10.9510 C   0  0  0  0  0  0  0  0  0  0  0  0
   20.2120   77.7550    9.9730 C   0  0  0  0  0  0  0  0  0  0  0  0
   19.0900   77.8770    9.2530 N   0  0  0  0  0  0  0  0  0  0  0  0
   18.4290   78.9120    9.7390 N   0  0  0  0  0  0  0  0  0  0  0  0
   19.0890   79.4720   10.7640 C   0  0  0  0  0  0  0  0  0  0  0  0
   18.6640   77.0530    8.1770 C   0  0  0  0  0  0  0  0  0  0  0  0
   17.6780   77.5270    7.3220 C   0  0  0  0  0  0  0  0  0  0  0  0
   17.2240   76.7850    6.2500 C   0  0  0  0  0  0  0  0  0  0  0  0
   17.7440   75.5180    5.9830 C   0  0  0  0  0  0  0  0  0  0  0  0
   18.7260   75.0460    6.8350 C   0  0  0  0  0  0  0  0  0  0  0  0
   19.1600   75.8020    7.8920 C   0  0  0  0  0  0  0  0  0  0  0  0
   21.2820   76.7290    9.8040 C   0  0  0  0  0  0  0  0  0  0  0  0
   23.0810   76.3410   15.8490 C   0  0  0  0  0  0  0  0  0  0  0  0
   24.0220   77.4130   16.3350 C   0  0  0  0  0  0  0  0  0  0  0  0
   25.3400   77.4160   15.6280 C   0  0  0  0  0  0  0  0  0  0  0  0
   26.2790   78.4030   16.0470 N   0  0  0  0  0  4  0  0  0  0  0  0
   25.7700   79.4600   16.8580 C   0  0  0  0  0  0  0  0  0  0  0  0
   27.3840   77.7700   16.7840 C   0  0  0  0  0  0  0  0  0  0  0  0
   20.7110   78.4460   15.9840 H   0  0  0  0  0  0  0  0  0  0  0  0
   23.9510   80.3660   13.9690 H   0  0  0  0  0  0  0  0  0  0  0  0
   23.6930   82.2900   15.4980 H   0  0  0  0  0  0  0  0  0  0  0  0
   21.9340   82.2710   17.2750 H   0  0  0  0  0  0  0  0  0  0  0  0
   23.4570   78.0000   13.5760 H   0  0  0  0  0  0  0  0  0  0  0  0
   18.7610   80.3290   11.3560 H   0  0  0  0  0  0  0  0  0  0  0  0
   17.2840   78.5320    7.5540 H   0  0  0  0  0  0  0  0  0  0  0  0
   16.4560   77.1860    5.6000 H   0  0  0  0  0  0  0  0  0  0  0  0
   17.3640   74.9510    5.1290 H   0  0  0  0  0  0  0  0  0  0  0  0
   19.1220   74.0520    6.6130 H   0  0  0  0  0  0  0  0  0  0  0  0
   19.9310   75.3950    8.5300 H   0  0  0  0  0  0  0  0  0  0  0  0
   21.6710   76.4020   10.7980 H   0  0  0  0  0  0  0  0  0  0  0  0
   22.0850   77.0770    9.1280 H   0  0  0  0  0  0  0  0  0  0  0  0
   20.8500   75.8090    9.3410 H   0  0  0  0  0  0  0  0  0  0  0  0
   22.4660   75.8860   16.6470 H   0  0  0  0  0  0  0  0  0  0  0  0
   23.7310   75.5590   15.3600 H   0  0  0  0  0  0  0  0  0  0  0  0
   23.5230   78.3790   16.0180 H   0  0  0  0  0  0  0  0  0  0  0  0
   24.0710   77.4830   17.4230 H   0  0  0  0  0  0  0  0  0  0  0  0
   25.1950   77.5530   14.5100 H   0  0  0  0  0  0  0  0  0  0  0  0
   25.8170   76.3950   15.7170 H   0  0  0  0  0  0  0  0  0  0  0  0
   26.7490   78.8320   15.1930 H   0  0  0  0  0  0  0  0  0  0  0  0
   26.3330   79.5610   17.8250 H   0  0  0  0  0  0  0  0  0  0  0  0
   24.6750   79.4700   17.0240 H   0  0  0  0  0  0  0  0  0  0  0  0
   25.9790   80.4360   16.3290 H   0  0  0  0  0  0  0  0  0  0  0  0
   28.3560   77.9580   16.2980 H   0  0  0  0  0  0  0  0  0  0  0  0
   27.1870   76.6740   16.7850 H   0  0  0  0  0  0  0  0  0  0  0  0
   27.3670   78.0930   17.8490 H   0  0  0  0  0  0  0  0  0  0  0  0
  2  1  1  0  0  0  0
  3 35  1  0  0  0  0
  3  2  2  0  0  0  0
  4  3  1  0  0  0  0
  5  4  2  0  0  0  0
  5  6  1  0  0  0  0
  6  7  2  0  0  0  0
  7  2  1  0  0  0  0
  7 38  1  0  0  0  0
  8 39  1  6  0  0  0
  8  9  1  0  0  0  0
  8  4  1  0  0  0  0
  9 29  1  0  0  0  0
 10  9  1  0  0  0  0
 10 11  2  0  0  0  0
 12 10  1  0  0  0  0
 13 12  2  0  0  0  0
 14 12  1  0  0  0  0
 14  8  1  0  0  0  0
 15 14  2  0  0  0  0
 16 15  1  0  0  0  0
 17 15  1  0  0  0  0
 18 17  2  0  0  0  0
 19 20  1  0  0  0  0
 19 18  1  0  0  0  0
 20 21  2  0  0  0  0
 21 17  1  0  0  0  0
 21 40  1  0  0  0  0
 22 19  1  0  0  0  0
 23 41  1  0  0  0  0
 23 22  2  0  0  0  0
 24 23  1  0  0  0  0
 25 24  2  0  0  0  0
 25 26  1  0  0  0  0
 26 27  2  0  0  0  0
 27 22  1  0  0  0  0
 27 45  1  0  0  0  0
 28 18  1  0  0  0  0
 28 46  1  0  0  0  0
 29 30  1  0  0  0  0
 29 49  1  0  0  0  0
 30 52  1  0  0  0  0
 31 54  1  0  0  0  0
 31 32  1  0  0  0  0
 31 30  1  0  0  0  0
 32 34  1  0  0  0  0
 32 33  1  0  0  0  0
 33 57  1  0  0  0  0
 33 56  1  0  0  0  0
 34 60  1  0  0  0  0
 34 61  1  0  0  0  0
 36  5  1  0  0  0  0
 37  6  1  0  0  0  0
 42 24  1  0  0  0  0
 43 25  1  0  0  0  0
 44 26  1  0  0  0  0
 47 28  1  0  0  0  0
 48 28  1  0  0  0  0
 50 29  1  0  0  0  0
 51 30  1  0  0  0  0
 53 31  1  0  0  0  0
 55 32  1  0  0  0  0
 58 33  1  0  0  0  0
 59 34  1  0  0  0  0
M  END
>  <Pose>
1

>  <Score>
-5.57

$$$$
