
 OpenBabel03222202113D

 39 42  0  0  1  0  0  0  0  0999 V2000
   21.8670   80.7020   10.5820 B   0  0  0  0  0  0  0  0  0  0  0  0
   22.1870   80.3420   12.4440 C   0  0  0  0  0  0  0  0  0  0  0  0
   22.8420   81.2490   13.2370 C   0  0  0  0  0  0  0  0  0  0  0  0
   23.0590   80.9530   14.5940 C   0  0  0  0  0  0  0  0  0  0  0  0
   22.6280   79.7790   15.1360 C   0  0  0  0  0  0  0  0  0  0  0  0
   21.9740   78.8780   14.3330 C   0  0  0  0  0  0  0  0  0  0  0  0
   21.7520   79.1630   12.9740 C   0  0  0  0  0  0  0  0  0  0  0  0
   22.8340   79.4450   16.5420 C   0  0  1  0  0  0  0  0  0  0  0  0
   21.6620   79.5250   17.3850 C   0  0  0  0  0  0  0  0  0  0  0  0
   21.3360   78.5120   18.2430 C   0  0  0  0  0  0  0  0  0  0  0  0
   22.1420   77.3350   18.3750 N   0  0  0  0  0  0  0  0  0  0  0  0
   23.3040   77.2850   17.5570 C   0  0  0  0  0  0  0  0  0  0  0  0
   23.6380   78.2390   16.7320 C   0  0  0  0  0  0  0  0  0  0  0  0
   24.9260   77.8690   16.0680 C   0  0  0  0  0  0  0  0  0  0  0  0
   25.4960   78.6100   15.2110 O   0  0  0  0  0  0  0  0  0  0  0  0
   25.2760   76.6610   16.5750 O   0  0  0  0  0  0  0  0  0  0  0  0
   24.3380   76.1760   17.4750 C   0  0  0  0  0  0  0  0  0  0  0  0
   20.2090   78.6210   19.0190 N   0  0  0  0  0  0  0  0  0  0  0  0
   19.4310   79.7060   18.9410 C   0  0  0  0  0  0  0  0  0  0  0  0
   18.3980   79.7850   19.6640 O   0  0  0  0  0  0  0  0  0  0  0  0
   19.7590   80.6960   18.0940 N   0  0  0  0  0  0  0  0  0  0  0  0
   20.8330   80.6690   17.3090 C   0  0  0  0  0  0  0  0  0  0  0  0
   21.1490   81.5890   16.5150 O   0  0  0  0  0  0  0  0  0  0  0  0
   18.8770   81.8630   18.0430 C   0  0  0  0  0  0  0  0  0  0  0  0
   19.9170   77.5090   19.9120 C   0  0  0  0  0  0  0  0  0  0  0  0
   23.1750   82.1690   12.7940 H   0  0  0  0  0  0  0  0  0  0  0  0
   23.5870   81.7220   15.1470 H   0  0  0  0  0  0  0  0  0  0  0  0
   21.5900   77.9190   14.6540 H   0  0  0  0  0  0  0  0  0  0  0  0
   21.2370   78.4630   12.3280 H   0  0  0  0  0  0  0  0  0  0  0  0
   23.5220   80.2880   16.9320 H   0  0  0  0  0  0  0  0  0  0  0  0
   21.8600   76.5900   19.0360 H   0  0  0  0  0  0  0  0  0  0  0  0
   24.7450   75.9650   18.4830 H   0  0  0  0  0  0  0  0  0  0  0  0
   23.8860   75.2560   17.0480 H   0  0  0  0  0  0  0  0  0  0  0  0
   19.4190   82.7460   17.6480 H   0  0  0  0  0  0  0  0  0  0  0  0
   18.5150   82.1050   19.0460 H   0  0  0  0  0  0  0  0  0  0  0  0
   18.0120   81.5670   17.4180 H   0  0  0  0  0  0  0  0  0  0  0  0
   19.0780   77.7500   20.5790 H   0  0  0  0  0  0  0  0  0  0  0  0
   19.7750   76.6010   19.3190 H   0  0  0  0  0  0  0  0  0  0  0  0
   20.8160   77.4070   20.5860 H   0  0  0  0  0  0  0  0  0  0  0  0
  1  2  1  0  0  0  0
  2  7  2  0  0  0  0
  2  3  1  0  0  0  0
  3  4  2  0  0  0  0
  4  5  1  0  0  0  0
  4 27  1  0  0  0  0
  5  8  1  0  0  0  0
  6 28  1  0  0  0  0
  6  5  2  0  0  0  0
  7  6  1  0  0  0  0
  8 13  1  0  0  0  0
  8 30  1  1  0  0  0
  8  9  1  0  0  0  0
  9 10  2  0  0  0  0
 10 11  1  0  0  0  0
 10 18  1  0  0  0  0
 11 31  1  0  0  0  0
 12 11  1  0  0  0  0
 13 12  2  0  0  0  0
 14 16  1  0  0  0  0
 14 13  1  0  0  0  0
 15 14  2  0  0  0  0
 16 17  1  0  0  0  0
 17 12  1  0  0  0  0
 17 32  1  0  0  0  0
 18 25  1  0  0  0  0
 19 18  1  0  0  0  0
 19 20  2  0  0  0  0
 21 19  1  0  0  0  0
 22  9  1  0  0  0  0
 22 21  1  0  0  0  0
 23 22  2  0  0  0  0
 24 21  1  0  0  0  0
 24 35  1  0  0  0  0
 25 37  1  0  0  0  0
 25 39  1  0  0  0  0
 26  3  1  0  0  0  0
 29  7  1  0  0  0  0
 33 17  1  0  0  0  0
 34 24  1  0  0  0  0
 36 24  1  0  0  0  0
 38 25  1  0  0  0  0
M  END
>  <Pose>
1

>  <Score>
-5.00

$$$$
