
 OpenBabel03222202113D

 48 51  0  0  0  0  0  0  0  0999 V2000
   19.7770   77.9270   19.3390 B   0  0  0  0  0  0  0  0  0  0  0  0
   20.2910   77.7260   17.5100 C   0  0  0  0  0  0  0  0  0  0  0  0
   19.7830   76.6790   16.7450 C   0  0  0  0  0  0  0  0  0  0  0  0
   20.1480   76.5380   15.4250 C   0  0  0  0  0  0  0  0  0  0  0  0
   21.0180   77.4300   14.8470 C   0  0  0  0  0  0  0  0  0  0  0  0
   21.5090   78.4590   15.6160 C   0  0  0  0  0  0  0  0  0  0  0  0
   21.1700   78.6330   16.9380 C   0  0  0  0  0  0  0  0  0  0  0  0
   19.6170   75.4610   14.6130 C   0  0  0  0  0  0  0  0  0  0  0  0
   19.4550   75.6060   13.2970 C   0  0  0  0  0  0  0  0  0  0  0  0
   19.7440   76.7340   12.5320 O   0  0  0  0  0  0  0  0  0  0  0  0
   19.4550   76.5120   11.2140 C   0  0  0  0  0  0  0  0  0  0  0  0
   18.9580   75.2250   11.0400 C   0  0  0  0  0  0  0  0  0  0  0  0
   18.6160   74.8220    9.7590 C   0  0  0  0  0  0  0  0  0  0  0  0
   18.7710   75.6840    8.6970 C   0  0  0  0  0  0  0  0  0  0  0  0
   19.2730   76.9700    8.9100 C   0  0  0  0  0  0  0  0  0  0  0  0
   19.6180   77.3950   10.1660 C   0  0  0  0  0  0  0  0  0  0  0  0
   20.0640   78.7770   10.3480 C   0  0  0  0  0  0  0  0  0  0  0  0
   21.4100   78.9590   10.7540 N   0  0  0  0  0  4  0  0  0  0  0  0
   21.4190   79.8090   11.9330 C   0  0  0  0  0  0  0  0  0  0  0  0
   22.5330   80.7960   11.9950 C   0  0  0  0  0  0  0  0  0  0  0  0
   22.7280   81.5700   10.8200 N   0  0  0  0  0  0  0  0  0  0  0  0
   22.0350   81.0240    9.7000 C   0  0  0  0  0  0  0  0  0  0  0  0
   22.1850   79.5400    9.6840 C   0  0  0  0  0  0  0  0  0  0  0  0
   24.1440   81.7300   10.5640 C   0  0  0  0  0  0  0  0  0  0  0  0
   19.3910   77.7610    7.7780 O   0  0  0  0  0  0  0  0  0  0  0  0
   18.9400   74.5980   12.3730 C   0  0  0  0  0  0  0  0  0  0  0  0
   18.5440   73.4280   12.6100 O   0  0  0  0  0  0  0  0  0  0  0  0
   19.0990   75.9900   17.2410 H   0  0  0  0  0  0  0  0  0  0  0  0
   21.3070   77.3120   13.8110 H   0  0  0  0  0  0  0  0  0  0  0  0
   22.1930   79.1660   15.1260 H   0  0  0  0  0  0  0  0  0  0  0  0
   21.5770   79.4730   17.5110 H   0  0  0  0  0  0  0  0  0  0  0  0
   19.3440   74.5300   15.0710 H   0  0  0  0  0  0  0  0  0  0  0  0
   18.2360   73.8160    9.6620 H   0  0  0  0  0  0  0  0  0  0  0  0
   18.4890   75.3150    7.7270 H   0  0  0  0  0  0  0  0  0  0  0  0
   19.9240   79.2990    9.3390 H   0  0  0  0  0  0  0  0  0  0  0  0
   19.3650   79.3050   11.0140 H   0  0  0  0  0  0  0  0  0  0  0  0
   21.9010   78.0410   10.9770 H   0  0  0  0  0  0  0  0  0  0  0  0
   21.4450   79.2360   12.8740 H   0  0  0  0  0  0  0  0  0  0  0  0
   20.4510   80.3870   12.0110 H   0  0  0  0  0  0  0  0  0  0  0  0
   22.2670   81.5180   12.8330 H   0  0  0  0  0  0  0  0  0  0  0  0
   23.5090   80.3510   12.3730 H   0  0  0  0  0  0  0  0  0  0  0  0
   20.9330   81.2510    9.8270 H   0  0  0  0  0  0  0  0  0  0  0  0
   22.3440   81.4760    8.7220 H   0  0  0  0  0  0  0  0  0  0  0  0
   23.2730   79.2370    9.7670 H   0  0  0  0  0  0  0  0  0  0  0  0
   21.8320   79.1690    8.6890 H   0  0  0  0  0  0  0  0  0  0  0  0
   24.7500   80.8450   10.8840 H   0  0  0  0  0  0  0  0  0  0  0  0
   24.3930   81.9640    9.5080 H   0  0  0  0  0  0  0  0  0  0  0  0
   24.5080   82.5560   11.2420 H   0  0  0  0  0  0  0  0  0  0  0  0
  2  1  1  0  0  0  0
  3 28  1  0  0  0  0
  3  2  2  0  0  0  0
  4  3  1  0  0  0  0
  5  4  2  0  0  0  0
  5  6  1  0  0  0  0
  6  7  2  0  0  0  0
  7  2  1  0  0  0  0
  7 31  1  0  0  0  0
  8 32  1  0  0  0  0
  8  4  1  0  0  0  0
  9  8  2  0  0  0  0
 10  9  1  0  0  0  0
 11 10  1  0  0  0  0
 12 11  1  0  0  0  0
 12 26  1  0  0  0  0
 13 12  2  0  0  0  0
 14 15  2  0  0  0  0
 14 13  1  0  0  0  0
 15 16  1  0  0  0  0
 16 17  1  0  0  0  0
 16 11  2  0  0  0  0
 17 18  1  0  0  0  0
 17 36  1  0  0  0  0
 18 37  1  0  0  0  0
 18 19  1  0  0  0  0
 19 20  1  0  0  0  0
 19 39  1  0  0  0  0
 19 38  1  0  0  0  0
 20 41  1  0  0  0  0
 20 40  1  0  0  0  0
 21 20  1  0  0  0  0
 22 42  1  0  0  0  0
 22 21  1  0  0  0  0
 23 22  1  0  0  0  0
 23 44  1  0  0  0  0
 23 18  1  0  0  0  0
 24 21  1  0  0  0  0
 24 46  1  0  0  0  0
 24 48  1  0  0  0  0
 25 15  1  0  0  0  0
 26 27  2  0  0  0  0
 26  9  1  0  0  0  0
 29  5  1  0  0  0  0
 30  6  1  0  0  0  0
 33 13  1  0  0  0  0
 34 14  1  0  0  0  0
 35 17  1  0  0  0  0
 43 22  1  0  0  0  0
 45 23  1  0  0  0  0
 47 24  1  0  0  0  0
M  END
>  <Pose>
1

>  <Score>
-6.34

$$$$
