
 OpenBabel03222202113D

 55 58  0  0  1  0  0  0  0  0999 V2000
   17.8600   74.7410    5.5740 B   0  0  0  0  0  0  0  0  0  0  0  0
   18.4910   75.6530    7.1360 C   0  0  0  0  0  0  0  0  0  0  0  0
   18.9790   74.9060    8.1860 C   0  0  0  0  0  0  0  0  0  0  0  0
   19.4370   75.5430    9.3160 C   0  0  0  0  0  0  0  0  0  0  0  0
   19.4420   76.9210    9.4770 C   0  0  0  0  0  0  0  0  0  0  0  0
   18.9480   77.6390    8.4110 C   0  0  0  0  0  0  0  0  0  0  0  0
   18.4770   77.0060    7.2500 C   0  0  0  0  0  0  0  0  0  0  0  0
   19.9260   77.4690   10.6600 N   0  0  0  0  0  0  0  0  0  0  0  0
   20.0860   78.8230   11.0060 C   0  0  0  0  0  0  0  0  0  0  0  0
   19.1390   79.6270   10.8980 O   0  0  0  0  0  0  0  0  0  0  0  0
   21.3680   79.3750   11.5130 C   0  0  0  0  0  0  0  0  0  0  0  0
   21.1590   80.1680   12.6880 N   0  0  0  0  0  0  0  0  0  0  0  0
   21.9180   80.0270   13.8760 C   0  0  0  0  0  0  0  0  0  0  0  0
   22.4290   81.0660   14.3730 O   0  0  0  0  0  0  0  0  0  0  0  0
   22.0900   78.6850   14.4920 C   0  0  2  0  0  0  0  0  0  0  0  0
   21.0300   78.4290   15.2780 O   0  0  0  0  0  0  0  0  0  0  0  0
   21.1870   77.5840   16.3310 C   0  0  2  0  0  0  0  0  0  0  0  0
   20.0850   77.7510   17.1810 O   0  0  0  0  0  0  0  0  0  0  0  0
   20.3970   78.7500   18.0700 C   0  0  0  0  0  0  0  0  0  0  0  0
   21.7350   79.0640   17.9340 O   0  0  0  0  0  0  0  0  0  0  0  0
   22.3170   77.9670   17.2570 C   0  0  2  0  0  0  0  0  0  0  0  0
   23.5470   78.3460   16.5270 C   0  0  1  0  0  0  0  0  0  0  0  0
   24.5600   77.3720   16.6830 O   0  0  0  0  0  0  0  0  0  0  0  0
   25.1500   77.1920   15.4580 C   0  0  0  0  0  0  0  0  0  0  0  0
   24.1480   77.4410   14.5560 O   0  0  0  0  0  0  0  0  0  0  0  0
   23.4450   78.5380   15.0760 C   0  0  1  0  0  0  0  0  0  0  0  0
   25.6080   75.7290   15.3970 C   0  0  0  0  0  0  0  0  0  0  0  0
   26.3860   78.0280   15.2560 C   0  0  0  0  0  0  0  0  0  0  0  0
   20.1980   78.3070   19.5200 C   0  0  0  0  0  0  0  0  0  0  0  0
   19.5350   79.9880   17.8820 C   0  0  0  0  0  0  0  0  0  0  0  0
   19.0030   73.8050    8.1200 H   0  0  0  0  0  0  0  0  0  0  0  0
   19.8080   74.9050   10.1070 H   0  0  0  0  0  0  0  0  0  0  0  0
   18.9110   78.6980    8.4420 H   0  0  0  0  0  0  0  0  0  0  0  0
   18.1060   77.6190    6.4570 H   0  0  0  0  0  0  0  0  0  0  0  0
   20.2220   76.7710   11.4180 H   0  0  0  0  0  0  0  0  0  0  0  0
   21.9900   78.4880   11.8350 H   0  0  0  0  0  0  0  0  0  0  0  0
   21.9610   79.8810   10.7310 H   0  0  0  0  0  0  0  0  0  0  0  0
   20.4060   80.8880   12.6690 H   0  0  0  0  0  0  0  0  0  0  0  0
   22.0430   77.9660   13.6170 H   0  0  0  0  0  0  0  0  0  0  0  0
   21.2130   76.5050   16.0750 H   0  0  0  0  0  0  0  0  0  0  0  0
   22.4620   77.1210   17.9590 H   0  0  0  0  0  0  0  0  0  0  0  0
   23.9730   79.2620   17.0340 H   0  0  0  0  0  0  0  0  0  0  0  0
   24.0560   79.4320   14.7870 H   0  0  0  0  0  0  0  0  0  0  0  0
   26.2610   75.6340   14.5210 H   0  0  0  0  0  0  0  0  0  0  0  0
   24.7450   75.0460   15.4000 H   0  0  0  0  0  0  0  0  0  0  0  0
   26.1820   75.5550   16.3300 H   0  0  0  0  0  0  0  0  0  0  0  0
   26.5470   78.3360   14.2220 H   0  0  0  0  0  0  0  0  0  0  0  0
   26.3770   78.9230   15.9120 H   0  0  0  0  0  0  0  0  0  0  0  0
   27.3150   77.4610   15.5590 H   0  0  0  0  0  0  0  0  0  0  0  0
   19.2550   77.7510   19.5840 H   0  0  0  0  0  0  0  0  0  0  0  0
   21.0810   77.7590   19.8960 H   0  0  0  0  0  0  0  0  0  0  0  0
   20.0940   79.2390   20.1150 H   0  0  0  0  0  0  0  0  0  0  0  0
   18.8630   80.1690   18.7460 H   0  0  0  0  0  0  0  0  0  0  0  0
   18.8920   79.8950   16.9740 H   0  0  0  0  0  0  0  0  0  0  0  0
   20.1610   80.9080   17.7800 H   0  0  0  0  0  0  0  0  0  0  0  0
  1  2  1  0  0  0  0
  2  7  2  0  0  0  0
  2  3  1  0  0  0  0
  3  4  2  0  0  0  0
  4  5  1  0  0  0  0
  4 32  1  0  0  0  0
  5  8  1  0  0  0  0
  6 33  1  0  0  0  0
  6  5  2  0  0  0  0
  7  6  1  0  0  0  0
  8  9  1  0  0  0  0
  8 35  1  0  0  0  0
  9 11  1  0  0  0  0
 10  9  2  0  0  0  0
 11 36  1  0  0  0  0
 11 12  1  0  0  0  0
 12 13  1  0  0  0  0
 13 14  2  0  0  0  0
 13 15  1  0  0  0  0
 15 39  1  6  0  0  0
 15 26  1  0  0  0  0
 15 16  1  0  0  0  0
 16 17  1  0  0  0  0
 17 40  1  6  0  0  0
 17 18  1  0  0  0  0
 17 21  1  0  0  0  0
 18 19  1  0  0  0  0
 19 29  1  0  0  0  0
 20 19  1  0  0  0  0
 21 20  1  0  0  0  0
 21 41  1  1  0  0  0
 22 23  1  0  0  0  0
 22 42  1  1  0  0  0
 22 21  1  0  0  0  0
 24 23  1  0  0  0  0
 25 26  1  0  0  0  0
 25 24  1  0  0  0  0
 26 43  1  6  0  0  0
 26 22  1  0  0  0  0
 27 45  1  0  0  0  0
 27 24  1  0  0  0  0
 27 46  1  0  0  0  0
 28 24  1  0  0  0  0
 28 49  1  0  0  0  0
 28 48  1  0  0  0  0
 29 50  1  0  0  0  0
 29 51  1  0  0  0  0
 29 52  1  0  0  0  0
 30 19  1  0  0  0  0
 30 53  1  0  0  0  0
 31  3  1  0  0  0  0
 34  7  1  0  0  0  0
 37 11  1  0  0  0  0
 38 12  1  0  0  0  0
 44 27  1  0  0  0  0
 47 28  1  0  0  0  0
 54 30  1  0  0  0  0
 55 30  1  0  0  0  0
M  END
>  <Pose>
1

>  <Score>
-8.13

$$$$
