
 OpenBabel03222202113D

 52 55  0  0  1  0  0  0  0  0999 V2000
   16.1600   78.4200    6.2310 B   0  0  0  0  0  0  0  0  0  0  0  0
   17.5530   77.5850    7.2750 C   0  0  0  0  0  0  0  0  0  0  0  0
   18.0630   78.2250    8.3770 C   0  0  0  0  0  0  0  0  0  0  0  0
   19.0810   77.6810    9.1770 C   0  0  0  0  0  0  0  0  0  0  0  0
   19.5720   76.4580    8.8330 C   0  0  0  0  0  0  0  0  0  0  0  0
   19.0640   75.8000    7.7180 C   0  0  0  0  0  0  0  0  0  0  0  0
   18.0620   76.3530    6.9380 C   0  0  0  0  0  0  0  0  0  0  0  0
   19.5280   78.4620   10.3430 C   0  0  0  0  0  0  0  0  0  0  0  0
   18.8340   79.3510   10.8530 O   0  0  0  0  0  0  0  0  0  0  0  0
   20.8350   78.1170   10.8750 N   0  0  0  0  0  0  0  0  0  0  0  0
   21.5330   79.0770   11.6940 C   0  0  2  0  0  0  0  0  0  0  0  0
   22.6010   79.6610   10.7330 C   0  0  0  0  0  0  0  0  0  0  0  0
   22.2810   78.4680   12.8360 C   0  0  0  0  0  0  0  0  0  0  0  0
   23.3180   77.8240   12.5730 O   0  0  0  0  0  0  0  0  0  0  0  0
   21.8610   78.6130   14.1630 N   0  0  0  0  0  0  0  0  0  0  0  0
   21.2790   77.6720   15.0590 C   0  0  0  0  0  0  0  0  0  0  0  0
   21.7610   78.1210   16.4470 C   0  0  0  0  0  0  0  0  0  0  0  0
   23.1080   78.7970   16.3870 C   0  0  1  0  0  0  0  0  0  0  0  0
   23.5410   79.2190   17.6910 N   0  0  0  0  0  0  0  0  0  0  0  0
   24.8070   79.9460   17.5250 C   0  0  0  0  0  0  0  0  0  0  0  0
   25.9110   79.0440   17.0690 C   0  0  0  0  0  0  0  0  0  0  0  0
   25.4340   77.9560   16.1860 C   0  0  0  0  0  0  0  0  0  0  0  0
   26.1100   76.9750   15.5800 N   0  0  0  0  0  0  0  0  0  0  0  0
   25.2380   76.2260   14.8750 C   0  0  0  0  0  0  0  0  0  0  0  0
   24.0210   76.7580   15.0550 N   0  0  0  0  0  0  0  0  0  0  0  0
   24.0780   77.8300   15.8580 C   0  0  0  0  0  0  0  0  0  0  0  0
   23.0800   80.0900   15.5560 C   0  0  0  0  0  0  0  0  0  0  0  0
   21.8530   79.9920   14.7550 C   0  0  0  0  0  0  0  0  0  0  0  0
   17.6930   79.2010    8.6550 H   0  0  0  0  0  0  0  0  0  0  0  0
   20.3610   76.0090    9.4340 H   0  0  0  0  0  0  0  0  0  0  0  0
   19.4190   74.8450    7.4360 H   0  0  0  0  0  0  0  0  0  0  0  0
   17.6430   75.8750    6.0530 H   0  0  0  0  0  0  0  0  0  0  0  0
   21.2530   77.2120   10.6660 H   0  0  0  0  0  0  0  0  0  0  0  0
   20.9140   79.9450   11.9800 H   0  0  0  0  0  0  0  0  0  0  0  0
   23.1710   78.7170   10.4300 H   0  0  0  0  0  0  0  0  0  0  0  0
   22.1480   80.0740    9.8510 H   0  0  0  0  0  0  0  0  0  0  0  0
   23.2800   80.3310   11.2660 H   0  0  0  0  0  0  0  0  0  0  0  0
   20.1710   77.8420   15.0260 H   0  0  0  0  0  0  0  0  0  0  0  0
   21.4930   76.6280   14.8600 H   0  0  0  0  0  0  0  0  0  0  0  0
   21.9130   77.1880   17.0030 H   0  0  0  0  0  0  0  0  0  0  0  0
   20.9920   78.6780   16.9940 H   0  0  0  0  0  0  0  0  0  0  0  0
   22.8620   79.9210   18.0700 H   0  0  0  0  0  0  0  0  0  0  0  0
   24.7620   80.7860   16.8360 H   0  0  0  0  0  0  0  0  0  0  0  0
   25.1120   80.3600   18.5310 H   0  0  0  0  0  0  0  0  0  0  0  0
   26.5430   78.6620   17.9190 H   0  0  0  0  0  0  0  0  0  0  0  0
   26.6470   79.6430   16.4480 H   0  0  0  0  0  0  0  0  0  0  0  0
   27.1300   76.7540   15.5950 H   0  0  0  0  0  0  0  0  0  0  0  0
   25.4170   75.3600   14.2690 H   0  0  0  0  0  0  0  0  0  0  0  0
   24.0240   80.1320   15.0120 H   0  0  0  0  0  0  0  0  0  0  0  0
   22.9400   80.9910   16.2200 H   0  0  0  0  0  0  0  0  0  0  0  0
   21.5890   80.7190   14.0130 H   0  0  0  0  0  0  0  0  0  0  0  0
   20.9870   80.0290   15.5010 H   0  0  0  0  0  0  0  0  0  0  0  0
  1  2  1  0  0  0  0
  2  3  1  0  0  0  0
  3 29  1  0  0  0  0
  3  4  2  0  0  0  0
  4  8  1  0  0  0  0
  5  4  1  0  0  0  0
  5 30  1  0  0  0  0
  6  5  2  0  0  0  0
  7  2  2  0  0  0  0
  7  6  1  0  0  0  0
  8  9  2  0  0  0  0
  8 10  1  0  0  0  0
 10 11  1  0  0  0  0
 11 34  1  1  0  0  0
 11 13  1  0  0  0  0
 12 37  1  0  0  0  0
 12 11  1  0  0  0  0
 13 15  1  0  0  0  0
 14 13  2  0  0  0  0
 15 28  1  0  0  0  0
 15 16  1  0  0  0  0
 16 17  1  0  0  0  0
 17 41  1  0  0  0  0
 17 40  1  0  0  0  0
 18 26  1  6  0  0  0
 18 17  1  0  0  0  0
 18 19  1  0  0  0  0
 19 42  1  0  0  0  0
 20 19  1  0  0  0  0
 20 44  1  0  0  0  0
 21 20  1  0  0  0  0
 21 45  1  0  0  0  0
 22 21  1  0  0  0  0
 23 47  1  0  0  0  0
 23 22  1  0  0  0  0
 24 25  2  0  0  0  0
 24 23  1  0  0  0  0
 25 26  1  0  0  0  0
 26 22  2  0  0  0  0
 27 50  1  0  0  0  0
 27 18  1  0  0  0  0
 28 52  1  0  0  0  0
 28 27  1  0  0  0  0
 31  6  1  0  0  0  0
 32  7  1  0  0  0  0
 33 10  1  0  0  0  0
 35 12  1  0  0  0  0
 36 12  1  0  0  0  0
 38 16  1  0  0  0  0
 39 16  1  0  0  0  0
 43 20  1  0  0  0  0
 46 21  1  0  0  0  0
 48 24  1  0  0  0  0
 49 27  1  0  0  0  0
 51 28  1  0  0  0  0
M  END
>  <Pose>
1

>  <Score>
-5.94

$$$$
