
 OpenBabel03222202113D

 36 39  0  0  1  0  0  0  0  0999 V2000
   26.3960   78.9040   16.7770 B   0  0  0  0  0  0  0  0  0  0  0  0
   24.6340   78.3150   16.2630 C   0  0  0  0  0  0  0  0  0  0  0  0
   23.5590   78.4960   17.0930 C   0  0  0  0  0  0  0  0  0  0  0  0
   22.3070   78.0680   16.7040 C   0  0  0  0  0  0  0  0  0  0  0  0
   22.1930   77.4670   15.4790 C   0  0  0  0  0  0  0  0  0  0  0  0
   23.3000   77.2820   14.6270 C   0  0  0  0  0  0  0  0  0  0  0  0
   24.5360   77.7140   15.0290 C   0  0  0  0  0  0  0  0  0  0  0  0
   20.8470   77.0810   15.2210 N   0  0  0  0  0  0  0  0  0  0  0  0
   20.0730   77.4520   16.3280 C   0  0  0  0  0  0  0  0  0  0  0  0
   18.8230   77.2600   16.4430 O   0  0  0  0  0  0  0  0  0  0  0  0
   20.9690   78.1070   17.3440 C   0  0  2  0  0  0  0  0  0  0  0  0
   20.4560   79.4610   17.5150 C   0  0  0  0  0  0  0  0  0  0  0  0
   19.9580   79.8820   18.7090 C   0  0  0  0  0  0  0  0  0  0  0  0
   19.5680   81.1790   18.5340 N   0  0  0  0  0  0  0  0  0  0  0  0
   19.8040   81.5610   17.2970 N   0  0  0  0  0  0  0  0  0  0  0  0
   20.3480   80.5420   16.6360 C   0  0  0  0  0  0  0  0  0  0  0  0
   20.7950   80.4700   15.2100 C   0  0  0  0  0  0  0  0  0  0  0  0
   19.9040   79.0590   19.8400 O   0  0  0  0  0  0  0  0  0  0  0  0
   20.3940   77.7680   19.6720 C   0  0  0  0  0  0  0  0  0  0  0  0
   20.8840   77.3070   18.5520 C   0  0  0  0  0  0  0  0  0  0  0  0
   21.3590   75.9120   18.5570 C   0  0  0  0  0  0  0  0  0  0  0  0
   21.7460   74.8100   18.5410 N   0  0  0  0  0  0  0  0  0  0  0  0
   20.3650   76.8660   20.8140 N   0  0  0  0  0  0  0  0  0  0  0  0
   20.3440   76.4120   14.0120 C   0  0  0  0  0  0  0  0  0  0  0  0
   23.6670   78.9720   18.0550 H   0  0  0  0  0  0  0  0  0  0  0  0
   23.2060   76.8070   13.6590 H   0  0  0  0  0  0  0  0  0  0  0  0
   25.4180   77.5830   14.3840 H   0  0  0  0  0  0  0  0  0  0  0  0
   19.6160   82.4970   16.8530 H   0  0  0  0  0  0  0  0  0  0  0  0
   20.5830   81.4780   14.7680 H   0  0  0  0  0  0  0  0  0  0  0  0
   21.9040   80.3540   15.1350 H   0  0  0  0  0  0  0  0  0  0  0  0
   20.2320   79.7470   14.6210 H   0  0  0  0  0  0  0  0  0  0  0  0
   21.1940   76.2440   20.8980 H   0  0  0  0  0  0  0  0  0  0  0  0
   19.6000   76.8340   21.4850 H   0  0  0  0  0  0  0  0  0  0  0  0
   19.9080   75.4440   14.3280 H   0  0  0  0  0  0  0  0  0  0  0  0
   19.4960   77.0480   13.6660 H   0  0  0  0  0  0  0  0  0  0  0  0
   21.1170   76.3270   13.2480 H   0  0  0  0  0  0  0  0  0  0  0  0
  2  1  1  0  0  0  0
  2  3  1  0  0  0  0
  3 25  1  0  0  0  0
  4  3  2  0  0  0  0
  4 11  1  0  0  0  0
  5  4  1  0  0  0  0
  6  7  1  0  0  0  0
  6  5  2  0  0  0  0
  7  2  2  0  0  0  0
  8  5  1  0  0  0  0
  8  9  1  0  0  0  0
  9 10  2  0  0  0  0
 11  9  1  6  0  0  0
 11 12  1  0  0  0  0
 11 20  1  0  0  0  0
 12 13  1  0  0  0  0
 13 18  1  0  0  0  0
 14 13  2  0  0  0  0
 15 14  1  0  0  0  0
 16 15  1  0  0  0  0
 16 12  2  0  0  0  0
 17 16  1  0  0  0  0
 19 18  1  0  0  0  0
 19 23  1  0  0  0  0
 20 21  1  0  0  0  0
 20 19  2  0  0  0  0
 22 21  3  0  0  0  0
 23 32  1  0  0  0  0
 23 33  1  0  0  0  0
 24 34  1  0  0  0  0
 24  8  1  0  0  0  0
 26  6  1  0  0  0  0
 27  7  1  0  0  0  0
 28 15  1  0  0  0  0
 29 17  1  0  0  0  0
 30 17  1  0  0  0  0
 31 17  1  0  0  0  0
 35 24  1  0  0  0  0
 36 24  1  0  0  0  0
M  END
>  <Pose>
1

>  <Score>
-5.32

$$$$
