
 OpenBabel03222202113D

 32 35  0  0  0  0  0  0  0  0999 V2000
   19.2590   79.8580   18.8360 B   0  0  0  0  0  0  0  0  0  0  0  0
   20.0030   78.4320   17.8130 C   0  0  0  0  0  0  0  0  0  0  0  0
   20.1920   78.3700   16.4350 C   0  0  0  0  0  0  0  0  0  0  0  0
   20.7480   77.1800   16.1360 N   0  0  0  0  0  0  0  0  0  0  0  0
   20.9100   76.5040   17.2740 N   0  0  0  0  0  0  0  0  0  0  0  0
   20.4680   77.2350   18.3150 C   0  0  0  0  0  0  0  0  0  0  0  0
   20.4510   76.8880   19.7560 C   0  0  0  0  0  0  0  0  0  0  0  0
   21.1150   76.6970   14.8140 C   0  0  0  0  0  0  0  0  0  0  0  0
   20.1280   75.7100   14.2950 C   0  0  0  0  0  0  0  0  0  0  0  0
   18.8030   75.8560   14.1300 N   0  0  0  0  0  0  0  0  0  0  0  0
   18.2620   74.7310   13.6340 N   0  0  0  0  0  0  0  0  0  0  0  0
   19.2640   73.8470   13.4810 C   0  0  0  0  0  0  0  0  0  0  0  0
   20.3970   74.4510   13.8870 N   0  0  0  0  0  0  0  0  0  0  0  0
   18.9490   72.5980   12.9800 C   0  0  0  0  0  0  0  0  0  0  0  0
   17.6570   72.2470   12.6390 C   0  0  0  0  0  0  0  0  0  0  0  0
   17.6240   70.9790   12.1760 N   0  0  0  0  0  0  0  0  0  0  0  0
   18.8690   70.5440   12.2260 N   0  0  0  0  0  0  0  0  0  0  0  0
   19.7050   71.4840   12.7020 C   0  0  0  0  0  0  0  0  0  0  0  0
   16.4350   70.2620   11.7210 C   0  0  0  0  0  0  0  0  0  0  0  0
   16.7060   73.1800   12.8180 N   0  0  0  0  0  0  0  0  0  0  0  0
   17.0000   74.3970   13.3050 C   0  0  0  0  0  0  0  0  0  0  0  0
   19.9210   79.1740   15.7590 H   0  0  0  0  0  0  0  0  0  0  0  0
   19.5390   76.3290   20.0560 H   0  0  0  0  0  0  0  0  0  0  0  0
   20.5280   77.7740   20.4050 H   0  0  0  0  0  0  0  0  0  0  0  0
   21.3240   76.1970   19.9170 H   0  0  0  0  0  0  0  0  0  0  0  0
   22.1520   76.2630   14.8160 H   0  0  0  0  0  0  0  0  0  0  0  0
   21.1960   77.5850   14.1220 H   0  0  0  0  0  0  0  0  0  0  0  0
   20.7670   71.4410   12.8630 H   0  0  0  0  0  0  0  0  0  0  0  0
   16.7060   69.4500   11.0120 H   0  0  0  0  0  0  0  0  0  0  0  0
   15.7760   70.9530   11.1190 H   0  0  0  0  0  0  0  0  0  0  0  0
   15.8690   69.8130   12.5440 H   0  0  0  0  0  0  0  0  0  0  0  0
   16.2460   75.1640   13.4580 H   0  0  0  0  0  0  0  0  0  0  0  0
  2  6  1  0  0  0  0
  2  1  1  0  0  0  0
  3  2  2  0  0  0  0
  4  3  1  0  0  0  0
  4  5  1  0  0  0  0
  5  6  2  0  0  0  0
  6  7  1  0  0  0  0
  7 25  1  0  0  0  0
  7 23  1  0  0  0  0
  7 24  1  0  0  0  0
  8 26  1  0  0  0  0
  8  4  1  0  0  0  0
  9  8  1  0  0  0  0
 10  9  2  0  0  0  0
 11 10  1  0  0  0  0
 12 11  1  0  0  0  0
 12 13  2  0  0  0  0
 13  9  1  0  0  0  0
 14 12  1  0  0  0  0
 15 20  1  0  0  0  0
 15 14  2  0  0  0  0
 16 17  1  0  0  0  0
 16 15  1  0  0  0  0
 17 18  2  0  0  0  0
 18 28  1  0  0  0  0
 18 14  1  0  0  0  0
 19 16  1  0  0  0  0
 19 31  1  0  0  0  0
 20 21  2  0  0  0  0
 21 32  1  0  0  0  0
 21 11  1  0  0  0  0
 22  3  1  0  0  0  0
 27  8  1  0  0  0  0
 29 19  1  0  0  0  0
 30 19  1  0  0  0  0
M  END
>  <Pose>
1

>  <Score>
-7.38

$$$$
