
 OpenBabel03222202113D

 45 48  0  0  0  0  0  0  0  0999 V2000
   25.8840   78.8050   17.0020 B   0  0  0  0  0  0  0  0  0  0  0  0
   24.2350   78.5600   16.0670 C   0  0  0  0  0  0  0  0  0  0  0  0
   23.0720   78.1740   16.6870 C   0  0  0  0  0  0  0  0  0  0  0  0
   22.1100   78.1010   15.7130 C   0  0  0  0  0  0  0  0  0  0  0  0
   22.6650   78.4350   14.5100 N   0  0  0  0  0  0  0  0  0  0  0  0
   23.9700   78.7150   14.7350 C   0  0  0  0  0  0  0  0  0  0  0  0
   24.9440   79.1200   13.6960 C   0  0  0  0  0  0  0  0  0  0  0  0
   21.9340   78.4380   13.2910 C   0  0  0  0  0  0  0  0  0  0  0  0
   21.7980   79.6650   12.5320 C   0  0  0  0  0  0  0  0  0  0  0  0
   22.1510   80.7280   13.2470 O   0  0  0  0  0  0  0  0  0  0  0  0
   21.3810   79.9560   11.2420 N   0  0  0  0  0  0  0  0  0  0  0  0
   22.1080   79.8060   10.0320 C   0  0  0  0  0  0  0  0  0  0  0  0
   21.5370   78.6390    9.2250 C   0  0  0  0  0  0  0  0  0  0  0  0
   20.0420   78.5330    9.4710 C   0  0  0  0  0  0  0  0  0  0  0  0
   19.4690   78.0870    8.2130 N   0  0  0  0  0  0  0  0  0  0  0  0
   19.4830   76.6450    8.2490 C   0  0  0  0  0  0  0  0  0  0  0  0
   19.3780   75.8800    7.2580 O   0  0  0  0  0  0  0  0  0  0  0  0
   19.6400   76.2560    9.6270 N   0  0  0  0  0  0  0  0  0  0  0  0
   19.7190   77.4390   10.4110 C   0  0  0  0  0  0  0  0  0  0  0  0
   19.5440   77.4990   11.6510 O   0  0  0  0  0  0  0  0  0  0  0  0
   19.4210   79.8450    9.8350 C   0  0  0  0  0  0  0  0  0  0  0  0
   20.0080   80.4830   11.0510 C   0  0  0  0  0  0  0  0  0  0  0  0
   20.8110   77.7290   16.0610 C   0  0  0  0  0  0  0  0  0  0  0  0
   20.4900   77.4340   17.3800 C   0  0  0  0  0  0  0  0  0  0  0  0
   21.4640   77.5130   18.3360 C   0  0  0  0  0  0  0  0  0  0  0  0
   22.7470   77.8790   18.0020 C   0  0  0  0  0  0  0  0  0  0  0  0
   25.6480   79.8980   14.0700 H   0  0  0  0  0  0  0  0  0  0  0  0
   25.5600   78.2270   13.4350 H   0  0  0  0  0  0  0  0  0  0  0  0
   24.4350   79.5060   12.7790 H   0  0  0  0  0  0  0  0  0  0  0  0
   20.8950   78.0180   13.5150 H   0  0  0  0  0  0  0  0  0  0  0  0
   22.3650   77.6070   12.6430 H   0  0  0  0  0  0  0  0  0  0  0  0
   23.1820   79.7810   10.0570 H   0  0  0  0  0  0  0  0  0  0  0  0
   21.8690   80.7330    9.4030 H   0  0  0  0  0  0  0  0  0  0  0  0
   21.7710   78.8560    8.1620 H   0  0  0  0  0  0  0  0  0  0  0  0
   22.0680   77.7290    9.5060 H   0  0  0  0  0  0  0  0  0  0  0  0
   19.1140   78.6770    7.4320 H   0  0  0  0  0  0  0  0  0  0  0  0
   19.6860   75.2880    9.9760 H   0  0  0  0  0  0  0  0  0  0  0  0
   19.4630   80.4930    8.9270 H   0  0  0  0  0  0  0  0  0  0  0  0
   18.3330   79.6480   10.0170 H   0  0  0  0  0  0  0  0  0  0  0  0
   19.4150   80.4230   11.9600 H   0  0  0  0  0  0  0  0  0  0  0  0
   20.1710   81.5740   10.8040 H   0  0  0  0  0  0  0  0  0  0  0  0
   20.0690   77.6780   15.2740 H   0  0  0  0  0  0  0  0  0  0  0  0
   19.4650   77.1470   17.6110 H   0  0  0  0  0  0  0  0  0  0  0  0
   21.2150   77.2850   19.3520 H   0  0  0  0  0  0  0  0  0  0  0  0
   23.5340   77.9500   18.7340 H   0  0  0  0  0  0  0  0  0  0  0  0
  2  3  1  0  0  0  0
  2  1  1  0  0  0  0
  3 26  1  0  0  0  0
  4 23  1  0  0  0  0
  4  3  2  0  0  0  0
  5  6  1  0  0  0  0
  5  4  1  0  0  0  0
  6  2  2  0  0  0  0
  7 27  1  0  0  0  0
  7  6  1  0  0  0  0
  8 30  1  0  0  0  0
  8  5  1  0  0  0  0
  9 10  2  0  0  0  0
  9  8  1  0  0  0  0
 11  9  1  0  0  0  0
 12 32  1  0  0  0  0
 12 11  1  0  0  0  0
 13 14  1  0  0  0  0
 13 35  1  0  0  0  0
 13 12  1  0  0  0  0
 14 21  1  0  0  0  0
 14 19  1  0  0  0  0
 15 16  1  0  0  0  0
 15 14  1  0  0  0  0
 16 18  1  0  0  0  0
 17 16  2  0  0  0  0
 18 37  1  0  0  0  0
 18 19  1  0  0  0  0
 19 20  2  0  0  0  0
 21 39  1  0  0  0  0
 21 22  1  0  0  0  0
 22 11  1  0  0  0  0
 22 40  1  0  0  0  0
 23 24  2  0  0  0  0
 24 43  1  0  0  0  0
 24 25  1  0  0  0  0
 25 44  1  0  0  0  0
 26 25  2  0  0  0  0
 26 45  1  0  0  0  0
 28  7  1  0  0  0  0
 29  7  1  0  0  0  0
 31  8  1  0  0  0  0
 33 12  1  0  0  0  0
 34 13  1  0  0  0  0
 36 15  1  0  0  0  0
 38 21  1  0  0  0  0
 41 22  1  0  0  0  0
 42 23  1  0  0  0  0
M  END
>  <Pose>
1

>  <Score>
-6.01

$$$$
