
 OpenBabel03222202113D

 54 57  0  0  0  0  0  0  0  0999 V2000
   19.2530   80.2940    7.8650 Cl  0  0  0  0  0  0  0  0  0  0  0  0
   19.2100   78.5570    8.1830 C   0  0  0  0  0  0  0  0  0  0  0  0
   19.9950   78.0340    9.1870 C   0  0  0  0  0  0  0  0  0  0  0  0
   19.9420   76.6850    9.4120 C   0  0  0  0  0  0  0  0  0  0  0  0
   19.1340   75.8330    8.6750 C   0  0  0  0  0  0  0  0  0  0  0  0
   18.3520   76.4030    7.6640 C   0  0  0  0  0  0  0  0  0  0  0  0
   18.3890   77.7540    7.4210 C   0  0  0  0  0  0  0  0  0  0  0  0
   20.8370   78.8430    9.9740 N   0  0  0  0  0  0  0  0  0  0  0  0
   22.2690   78.7920    9.8390 C   0  0  0  0  0  0  0  0  0  0  0  0
   22.9890   78.6910   11.1600 C   0  0  0  0  0  0  0  0  0  0  0  0
   22.0610   79.0350   12.2040 N   0  0  0  0  0  0  0  0  0  0  0  0
   21.2080   80.1750   11.9880 C   0  0  0  0  0  0  0  0  0  0  0  0
   20.1790   79.7400   10.9350 C   0  0  0  0  0  0  0  0  0  0  0  0
   21.9490   78.3190   13.4160 C   0  0  0  0  0  0  0  0  0  0  0  0
   21.4700   77.1480   13.4450 O   0  0  0  0  0  0  0  0  0  0  0  0
   22.3730   78.8800   14.6890 C   0  0  0  0  0  0  0  0  0  0  0  0
   21.5520   79.7190   15.3900 C   0  0  0  0  0  0  0  0  0  0  0  0
   21.8770   80.2870   16.5920 N   0  0  0  0  0  0  0  0  0  0  0  0
   23.0700   79.9960   17.1010 C   0  0  0  0  0  0  0  0  0  0  0  0
   23.9610   79.1660   16.4730 C   0  0  0  0  0  0  0  0  0  0  0  0
   23.6010   78.5730   15.1990 C   0  0  0  0  0  0  0  0  0  0  0  0
   24.6530   77.8190   14.8280 N   0  0  0  0  0  0  0  0  0  0  0  0
   25.6060   77.8950   15.7410 N   0  0  0  0  0  0  0  0  0  0  0  0
   25.2320   78.6950   16.7480 C   0  0  0  0  0  0  0  0  0  0  0  0
   25.8670   79.0160   17.7990 O   0  0  0  0  0  0  0  0  0  0  0  0
   20.9110   81.1380   17.2700 C   0  0  0  0  0  0  0  0  0  0  0  0
   20.3850   80.6320   18.5380 C   0  0  0  0  0  0  0  0  0  0  0  0
   19.3470   79.6060   18.6520 C   0  0  0  0  0  0  0  0  0  0  0  0
   19.2140   78.8410   19.7480 O   0  0  0  0  0  0  0  0  0  0  0  0
   19.8450   77.6780   19.9220 C   0  0  0  0  0  0  0  0  0  0  0  0
   20.5480   76.2630   10.1910 H   0  0  0  0  0  0  0  0  0  0  0  0
   19.1150   74.7830    8.8740 H   0  0  0  0  0  0  0  0  0  0  0  0
   17.7330   75.7180    7.1050 H   0  0  0  0  0  0  0  0  0  0  0  0
   17.7840   78.1640    6.6460 H   0  0  0  0  0  0  0  0  0  0  0  0
   22.6760   79.6460    9.2590 H   0  0  0  0  0  0  0  0  0  0  0  0
   22.5270   77.8770    9.2630 H   0  0  0  0  0  0  0  0  0  0  0  0
   23.4580   77.7000   11.3110 H   0  0  0  0  0  0  0  0  0  0  0  0
   23.8210   79.4470   11.1930 H   0  0  0  0  0  0  0  0  0  0  0  0
   21.7660   81.0220   11.4940 H   0  0  0  0  0  0  0  0  0  0  0  0
   20.7140   80.5230   12.9040 H   0  0  0  0  0  0  0  0  0  0  0  0
   19.7210   80.6010   10.4320 H   0  0  0  0  0  0  0  0  0  0  0  0
   19.4200   79.1280   11.4650 H   0  0  0  0  0  0  0  0  0  0  0  0
   20.5510   79.9970   15.0200 H   0  0  0  0  0  0  0  0  0  0  0  0
   23.3940   80.3850   18.0610 H   0  0  0  0  0  0  0  0  0  0  0  0
   26.5510   77.4170   15.7340 H   0  0  0  0  0  0  0  0  0  0  0  0
   20.1570   81.5690   16.5730 H   0  0  0  0  0  0  0  0  0  0  0  0
   21.5320   82.0680   17.5370 H   0  0  0  0  0  0  0  0  0  0  0  0
   21.2640   80.3710   19.2310 H   0  0  0  0  0  0  0  0  0  0  0  0
   19.9750   81.5520   19.1000 H   0  0  0  0  0  0  0  0  0  0  0  0
   18.3280   79.9970   18.2980 H   0  0  0  0  0  0  0  0  0  0  0  0
   19.5600   78.8640   17.7890 H   0  0  0  0  0  0  0  0  0  0  0  0
   20.9610   77.7960   19.9190 H   0  0  0  0  0  0  0  0  0  0  0  0
   19.6090   76.8450   19.2540 H   0  0  0  0  0  0  0  0  0  0  0  0
   19.6630   77.3310   21.0040 H   0  0  0  0  0  0  0  0  0  0  0  0
  1  2  1  0  0  0  0
  2  3  1  0  0  0  0
  3  4  2  0  0  0  0
  3  8  1  0  0  0  0
  4 31  1  0  0  0  0
  5 32  1  0  0  0  0
  5  4  1  0  0  0  0
  6  5  2  0  0  0  0
  7  6  1  0  0  0  0
  7  2  2  0  0  0  0
  8 13  1  0  0  0  0
  9  8  1  0  0  0  0
  9 10  1  0  0  0  0
 10 38  1  0  0  0  0
 10 37  1  0  0  0  0
 10 11  1  0  0  0  0
 11 14  1  0  0  0  0
 12 11  1  0  0  0  0
 12 40  1  0  0  0  0
 13 42  1  0  0  0  0
 13 12  1  0  0  0  0
 14 15  2  0  0  0  0
 14 16  1  0  0  0  0
 16 21  2  0  0  0  0
 16 17  1  0  0  0  0
 17 18  1  0  0  0  0
 18 19  1  0  0  0  0
 18 26  1  0  0  0  0
 19 44  1  0  0  0  0
 20 24  1  0  0  0  0
 20 19  2  0  0  0  0
 21 20  1  0  0  0  0
 22 21  1  0  0  0  0
 22 23  1  0  0  0  0
 23 24  1  0  0  0  0
 24 25  2  0  0  0  0
 26 47  1  0  0  0  0
 26 27  1  0  0  0  0
 27 28  1  0  0  0  0
 27 49  1  0  0  0  0
 27 48  1  0  0  0  0
 28 29  1  0  0  0  0
 29 30  1  0  0  0  0
 30 54  1  0  0  0  0
 33  6  1  0  0  0  0
 34  7  1  0  0  0  0
 35  9  1  0  0  0  0
 36  9  1  0  0  0  0
 39 12  1  0  0  0  0
 41 13  1  0  0  0  0
 43 17  1  0  0  0  0
 45 23  1  0  0  0  0
 46 26  1  0  0  0  0
 50 28  1  0  0  0  0
 51 28  1  0  0  0  0
 52 30  1  0  0  0  0
 53 30  1  0  0  0  0
M  END
>  <Pose>
1

>  <Score>
-6.61

$$$$
