
 OpenBabel03222202113D

 59 63  0  0  1  0  0  0  0  0999 V2000
   18.1490   74.1320   12.3450 B   0  0  0  0  0  0  0  0  0  0  0  0
   19.5330   74.6790   13.5230 C   0  0  0  0  0  0  0  0  0  0  0  0
   19.7660   76.0150   13.7610 C   0  0  0  0  0  0  0  0  0  0  0  0
   20.7890   76.4230   14.6280 C   0  0  0  0  0  0  0  0  0  0  0  0
   21.5120   75.3990   15.1990 C   0  0  0  0  0  0  0  0  0  0  0  0
   21.3140   74.0650   14.9920 C   0  0  0  0  0  0  0  0  0  0  0  0
   20.2960   73.7010   14.1290 C   0  0  0  0  0  0  0  0  0  0  0  0
   21.0630   77.8330   14.8280 C   0  0  2  0  0  0  0  0  0  0  0  0
   22.1930   78.4740   14.3160 N   0  0  0  0  0  0  0  0  0  0  0  0
   22.9230   79.0260   15.4530 C   0  0  0  0  0  0  0  0  0  0  0  0
   24.0610   79.5600   15.4480 O   0  0  0  0  0  0  0  0  0  0  0  0
   22.1290   78.8800   16.6620 C   0  0  0  0  0  0  0  0  0  0  0  0
   22.4640   79.2470   17.8380 O   0  0  0  0  0  0  0  0  0  0  0  0
   20.9050   78.2380   16.2630 C   0  0  0  0  0  0  0  0  0  0  0  0
   19.8690   78.0130   17.0440 C   0  0  0  0  0  0  0  0  0  0  0  0
   18.8040   77.3020   16.4420 O   0  0  0  0  0  0  0  0  0  0  0  0
   19.7300   78.4260   18.4280 C   0  0  0  0  0  0  0  0  0  0  0  0
   19.7690   79.6250   19.0290 N   0  0  0  0  0  0  0  0  0  0  0  0
   19.6370   79.5410   20.3610 C   0  0  0  0  0  0  0  0  0  0  0  0
   19.5060   78.2240   20.6360 N   0  0  0  0  0  0  0  0  0  0  0  0
   19.5570   77.5230   19.5000 C   0  0  0  0  0  0  0  0  0  0  0  0
   19.4530   76.0640   19.3580 C   0  0  0  0  0  0  0  0  0  0  0  0
   19.6330   80.6560   21.1770 C   0  0  0  0  0  0  0  0  0  0  0  0
   19.7700   81.8930   20.6060 C   0  0  0  0  0  0  0  0  0  0  0  0
   19.9050   81.9810   19.2340 C   0  0  0  0  0  0  0  0  0  0  0  0
   19.9050   80.8500   18.4510 C   0  0  0  0  0  0  0  0  0  0  0  0
   22.5740   78.6900   12.9680 C   0  0  0  0  0  0  0  0  0  0  0  0
   22.6120   80.0310   12.3890 C   0  0  0  0  0  0  0  0  0  0  0  0
   21.6010   80.4620   11.4680 N   0  0  0  0  0  4  0  0  0  0  0  0
   22.3000   80.9920   10.2970 C   0  0  0  0  0  0  0  0  0  0  0  0
   22.5850   79.9450    9.2690 C   0  0  0  0  0  0  0  0  0  0  0  0
   22.3680   78.6580    9.7870 O   0  0  0  0  0  0  0  0  0  0  0  0
   21.0150   78.5870   10.0330 C   0  0  0  0  0  0  0  0  0  0  0  0
   20.6330   79.4620   11.1680 C   0  0  0  0  0  0  0  0  0  0  0  0
   19.1930   76.8010   13.3070 H   0  0  0  0  0  0  0  0  0  0  0  0
   22.3170   75.6860   15.8800 H   0  0  0  0  0  0  0  0  0  0  0  0
   21.9100   73.2880   15.4630 H   0  0  0  0  0  0  0  0  0  0  0  0
   20.1420   72.6380   13.9660 H   0  0  0  0  0  0  0  0  0  0  0  0
   20.1760   78.3690   14.2680 H   0  0  0  0  0  0  0  0  0  0  0  0
   18.8930   75.7360   18.4540 H   0  0  0  0  0  0  0  0  0  0  0  0
   20.4850   75.6400   19.3820 H   0  0  0  0  0  0  0  0  0  0  0  0
   18.9160   75.6520   20.2390 H   0  0  0  0  0  0  0  0  0  0  0  0
   19.5290   80.5880   22.2430 H   0  0  0  0  0  0  0  0  0  0  0  0
   19.7760   82.8200   21.1740 H   0  0  0  0  0  0  0  0  0  0  0  0
   20.0170   82.9470   18.7360 H   0  0  0  0  0  0  0  0  0  0  0  0
   20.0080   80.9090   17.3570 H   0  0  0  0  0  0  0  0  0  0  0  0
   21.8720   78.0610   12.3330 H   0  0  0  0  0  0  0  0  0  0  0  0
   23.5690   78.1970   12.7830 H   0  0  0  0  0  0  0  0  0  0  0  0
   22.5490   80.7460   13.2730 H   0  0  0  0  0  0  0  0  0  0  0  0
   23.6300   80.3040   11.9730 H   0  0  0  0  0  0  0  0  0  0  0  0
   21.0790   81.3150   11.8290 H   0  0  0  0  0  0  0  0  0  0  0  0
   21.6620   81.7650    9.8420 H   0  0  0  0  0  0  0  0  0  0  0  0
   23.2490   81.4950   10.6060 H   0  0  0  0  0  0  0  0  0  0  0  0
   21.9170   80.0700    8.3770 H   0  0  0  0  0  0  0  0  0  0  0  0
   23.6550   80.0040    8.9840 H   0  0  0  0  0  0  0  0  0  0  0  0
   20.8250   77.4970   10.2970 H   0  0  0  0  0  0  0  0  0  0  0  0
   20.4370   78.8250    9.0920 H   0  0  0  0  0  0  0  0  0  0  0  0
   20.4080   78.8050   12.0470 H   0  0  0  0  0  0  0  0  0  0  0  0
   19.6790   79.9900   10.8610 H   0  0  0  0  0  0  0  0  0  0  0  0
  1  2  1  0  0  0  0
  2  3  2  0  0  0  0
  2  7  1  0  0  0  0
  3  4  1  0  0  0  0
  4  8  1  0  0  0  0
  4  5  2  0  0  0  0
  5 36  1  0  0  0  0
  6  5  1  0  0  0  0
  6 37  1  0  0  0  0
  7  6  2  0  0  0  0
  8 39  1  6  0  0  0
  8 14  1  0  0  0  0
  9  8  1  0  0  0  0
  9 10  1  0  0  0  0
 10 12  1  0  0  0  0
 11 10  2  0  0  0  0
 12 13  2  0  0  0  0
 14 12  1  0  0  0  0
 14 15  2  0  0  0  0
 15 17  1  0  0  0  0
 16 15  1  0  0  0  0
 17 18  1  0  0  0  0
 17 21  2  0  0  0  0
 18 19  1  0  0  0  0
 19 20  2  0  0  0  0
 19 23  1  0  0  0  0
 21 20  1  0  0  0  0
 22 41  1  0  0  0  0
 22 21  1  0  0  0  0
 22 42  1  0  0  0  0
 23 43  1  0  0  0  0
 24 44  1  0  0  0  0
 24 23  2  0  0  0  0
 25 24  1  0  0  0  0
 26 18  1  0  0  0  0
 26 25  2  0  0  0  0
 27  9  1  0  0  0  0
 28 27  1  0  0  0  0
 28 49  1  0  0  0  0
 29 51  1  0  0  0  0
 29 28  1  0  0  0  0
 30 53  1  0  0  0  0
 30 29  1  0  0  0  0
 31 32  1  0  0  0  0
 31 30  1  0  0  0  0
 32 33  1  0  0  0  0
 33 56  1  0  0  0  0
 33 34  1  0  0  0  0
 34 29  1  0  0  0  0
 34 58  1  0  0  0  0
 35  3  1  0  0  0  0
 38  7  1  0  0  0  0
 40 22  1  0  0  0  0
 45 25  1  0  0  0  0
 46 26  1  0  0  0  0
 47 27  1  0  0  0  0
 48 27  1  0  0  0  0
 50 28  1  0  0  0  0
 52 30  1  0  0  0  0
 54 31  1  0  0  0  0
 55 31  1  0  0  0  0
 57 33  1  0  0  0  0
 59 34  1  0  0  0  0
M  END
>  <Pose>
1

>  <Score>
-6.73

$$$$
