
 OpenBabel03222202113D

 48 51  0  0  1  0  0  0  0  0999 V2000
   20.0940   81.8190   19.0160 Cl  0  0  0  0  0  0  0  0  0  0  0  0
   20.1350   80.0740   19.2250 C   0  0  0  0  0  0  0  0  0  0  0  0
   20.7370   79.2600   18.2690 C   0  0  0  0  0  0  0  0  0  0  0  0
   20.7680   77.8920   18.3790 C   0  0  0  0  0  0  0  0  0  0  0  0
   20.1590   77.3540   19.5190 C   0  0  0  0  0  0  0  0  0  0  0  0
   19.5530   78.1490   20.4850 C   0  0  0  0  0  0  0  0  0  0  0  0
   19.5400   79.5110   20.3350 C   0  0  0  0  0  0  0  0  0  0  0  0
   21.4750   77.0620   17.4690 N   0  0  0  0  0  4  0  0  0  0  0  0
   22.5710   77.6940   16.7770 C   0  0  0  0  0  0  0  0  0  0  0  0
   22.4980   77.4650   15.3260 C   0  0  2  0  0  0  0  0  0  0  0  0
   21.3360   76.6360   15.1750 N   0  0  0  0  0  0  0  0  0  0  0  0
   20.9220   75.7210   14.1380 C   0  0  0  0  0  0  0  0  0  0  0  0
   19.6260   76.0610   13.4740 C   0  0  0  0  0  0  0  0  0  0  0  0
   18.8400   77.1410   14.1320 C   0  0  0  0  0  0  0  0  0  0  0  0
   18.1940   76.5520   15.4070 C   0  0  0  0  0  0  0  0  0  0  0  0
   19.2320   76.7950   16.4870 C   0  0  0  0  0  0  0  0  0  0  0  0
   20.5410   76.8220   16.3780 C   0  0  0  0  0  0  0  0  0  0  0  0
   23.6090   76.6770   14.9150 O   0  0  0  0  0  0  0  0  0  0  0  0
   22.5210   78.6260   14.4680 C   0  0  0  0  0  0  0  0  0  0  0  0
   22.0170   78.6280   13.1670 C   0  0  0  0  0  0  0  0  0  0  0  0
   22.0190   79.7540   12.3550 C   0  0  0  0  0  0  0  0  0  0  0  0
   22.5480   80.9410   12.8620 C   0  0  0  0  0  0  0  0  0  0  0  0
   23.0520   80.9810   14.1300 C   0  0  0  0  0  0  0  0  0  0  0  0
   23.0320   79.8210   14.9210 C   0  0  0  0  0  0  0  0  0  0  0  0
   21.4920   79.6840   11.0460 N   0  0  0  0  0  0  0  0  0  0  0  0
   20.3220   79.2220   10.8640 O   0  0  0  0  0  0  0  0  0  0  0  0
   22.1670   80.0790    9.9520 O   0  0  0  0  0  0  0  0  0  0  0  0
   21.1490   79.8030   17.4020 H   0  0  0  0  0  0  0  0  0  0  0  0
   20.1710   76.2850   19.6430 H   0  0  0  0  0  0  0  0  0  0  0  0
   19.0750   77.7030   21.3760 H   0  0  0  0  0  0  0  0  0  0  0  0
   19.0760   80.1410   21.0640 H   0  0  0  0  0  0  0  0  0  0  0  0
   21.6490   76.1610   17.9010 H   0  0  0  0  0  0  0  0  0  0  0  0
   22.7460   78.6630   17.2000 H   0  0  0  0  0  0  0  0  0  0  0  0
   23.4770   77.0820   17.1420 H   0  0  0  0  0  0  0  0  0  0  0  0
   21.6870   75.5130   13.3690 H   0  0  0  0  0  0  0  0  0  0  0  0
   20.7240   74.6710   14.5670 H   0  0  0  0  0  0  0  0  0  0  0  0
   18.9780   75.1660   13.3310 H   0  0  0  0  0  0  0  0  0  0  0  0
   19.8130   76.4290   12.4070 H   0  0  0  0  0  0  0  0  0  0  0  0
   19.4040   78.0560   14.4030 H   0  0  0  0  0  0  0  0  0  0  0  0
   17.9570   77.4700   13.5150 H   0  0  0  0  0  0  0  0  0  0  0  0
   18.0090   75.4930   15.2650 H   0  0  0  0  0  0  0  0  0  0  0  0
   17.3010   77.1500   15.6830 H   0  0  0  0  0  0  0  0  0  0  0  0
   18.7880   76.9670   17.4520 H   0  0  0  0  0  0  0  0  0  0  0  0
   23.5870   75.8550   15.5090 H   0  0  0  0  0  0  0  0  0  0  0  0
   21.6200   77.7240   12.8030 H   0  0  0  0  0  0  0  0  0  0  0  0
   22.5270   81.7960   12.1940 H   0  0  0  0  0  0  0  0  0  0  0  0
   23.4700   81.9280   14.5240 H   0  0  0  0  0  0  0  0  0  0  0  0
   23.4580   79.9750   15.9070 H   0  0  0  0  0  0  0  0  0  0  0  0
  1  2  1  0  0  0  0
  2  7  1  0  0  0  0
  3  4  1  0  0  0  0
  3  2  2  0  0  0  0
  4  5  2  0  0  0  0
  5 29  1  0  0  0  0
  5  6  1  0  0  0  0
  6 30  1  0  0  0  0
  7  6  2  0  0  0  0
  7 31  1  0  0  0  0
  8 32  1  0  0  0  0
  8  4  1  0  0  0  0
  9 34  1  0  0  0  0
  9 33  1  0  0  0  0
  9  8  1  0  0  0  0
 10 18  1  6  0  0  0
 10  9  1  0  0  0  0
 11 10  1  0  0  0  0
 11 17  1  0  0  0  0
 12 36  1  0  0  0  0
 12 11  1  0  0  0  0
 13 14  1  0  0  0  0
 13 12  1  0  0  0  0
 14 39  1  0  0  0  0
 14 15  1  0  0  0  0
 15 42  1  0  0  0  0
 15 16  1  0  0  0  0
 16 43  1  0  0  0  0
 17 16  2  0  0  0  0
 17  8  1  0  0  0  0
 18 44  1  0  0  0  0
 19 24  1  0  0  0  0
 19 10  1  0  0  0  0
 20 19  2  0  0  0  0
 21 22  2  0  0  0  0
 21 20  1  0  0  0  0
 22 23  1  0  0  0  0
 23 47  1  0  0  0  0
 23 24  2  0  0  0  0
 24 48  1  0  0  0  0
 25 21  1  0  0  0  0
 26 25  2  0  0  0  0
 27 25  2  0  0  0  0
 28  3  1  0  0  0  0
 35 12  1  0  0  0  0
 37 13  1  0  0  0  0
 38 13  1  0  0  0  0
 40 14  1  0  0  0  0
 41 15  1  0  0  0  0
 45 20  1  0  0  0  0
 46 22  1  0  0  0  0
M  END
>  <Pose>
1

>  <Score>
-4.91

$$$$
