
 OpenBabel03222202113D

 51 54  0  0  0  0  0  0  0  0999 V2000
   19.8350   81.8650   20.5580 Cl  0  0  0  0  0  0  0  0  0  0  0  0
   19.9470   80.4990   19.4600 C   0  0  0  0  0  0  0  0  0  0  0  0
   20.2640   80.7120   18.1290 C   0  0  0  0  0  0  0  0  0  0  0  0
   20.3500   79.6370   17.2760 C   0  0  0  0  0  0  0  0  0  0  0  0
   20.1290   78.3480   17.7100 C   0  0  0  0  0  0  0  0  0  0  0  0
   19.8160   78.1620   19.0310 C   0  0  0  0  0  0  0  0  0  0  0  0
   19.7200   79.2310   19.9250 C   0  0  0  0  0  0  0  0  0  0  0  0
   20.2250   77.2230   16.7500 C   0  0  0  0  0  0  0  0  0  0  0  0
   19.1690   76.5820   16.5640 O   0  0  0  0  0  0  0  0  0  0  0  0
   21.4050   76.8990   16.0980 N   0  0  0  0  0  0  0  0  0  0  0  0
   21.8260   77.1080   14.7660 C   0  0  0  0  0  0  0  0  0  0  0  0
   21.8590   78.4830   14.2420 C   0  0  0  0  0  0  0  0  0  0  0  0
   21.8140   78.7590   12.8610 N   0  0  0  0  0  0  0  0  0  0  0  0
   22.4010   79.9990   12.4180 C   0  0  0  0  0  0  0  0  0  0  0  0
   22.8030   80.8130   13.2640 O   0  0  0  0  0  0  0  0  0  0  0  0
   22.5360   80.3230   10.9780 C   0  0  0  0  0  0  0  0  0  0  0  0
   21.1950   80.8170   10.4820 C   0  0  0  0  0  0  0  0  0  0  0  0
   20.2670   79.6240   10.4360 C   0  0  0  0  0  0  0  0  0  0  0  0
   20.7490   78.7950    9.3350 N   0  0  0  0  0  0  0  0  0  0  0  0
   22.1450   78.7050    9.0700 C   0  0  0  0  0  0  0  0  0  0  0  0
   23.0340   79.1930   10.1550 C   0  0  0  0  0  0  0  0  0  0  0  0
   19.7840   78.1030    8.5680 C   0  0  0  0  0  0  0  0  0  0  0  0
   19.8490   76.7790    8.3290 N   0  0  0  0  0  0  0  0  0  0  0  0
   18.9570   76.1200    7.6140 N   0  0  0  0  0  0  0  0  0  0  0  0
   18.8600   74.8370    7.2790 N   0  0  0  0  0  0  0  0  0  0  0  0
   17.7960   74.6330    6.5500 N   0  0  0  0  0  0  0  0  0  0  0  0
   17.1810   75.7870    6.3990 N   0  0  0  0  0  0  0  0  0  0  0  0
   17.8990   76.7200    7.0590 C   0  0  0  0  0  0  0  0  0  0  0  0
   17.7750   78.0820    7.2670 C   0  0  0  0  0  0  0  0  0  0  0  0
   18.7060   78.7740    8.0150 C   0  0  0  0  0  0  0  0  0  0  0  0
   20.4400   81.7320   17.7810 H   0  0  0  0  0  0  0  0  0  0  0  0
   20.5990   79.7810   16.2250 H   0  0  0  0  0  0  0  0  0  0  0  0
   19.6280   77.1980   19.4450 H   0  0  0  0  0  0  0  0  0  0  0  0
   19.4740   79.0870   20.9640 H   0  0  0  0  0  0  0  0  0  0  0  0
   22.1260   76.3920   16.7770 H   0  0  0  0  0  0  0  0  0  0  0  0
   22.8460   76.6290   14.6210 H   0  0  0  0  0  0  0  0  0  0  0  0
   21.1220   76.4960   14.1120 H   0  0  0  0  0  0  0  0  0  0  0  0
   22.7100   79.0620   14.7510 H   0  0  0  0  0  0  0  0  0  0  0  0
   20.9580   79.0390   14.6920 H   0  0  0  0  0  0  0  0  0  0  0  0
   21.4420   78.1740   12.1170 H   0  0  0  0  0  0  0  0  0  0  0  0
   23.2260   81.1980   10.8540 H   0  0  0  0  0  0  0  0  0  0  0  0
   21.3470   81.1650    9.4350 H   0  0  0  0  0  0  0  0  0  0  0  0
   20.7970   81.6380   11.1060 H   0  0  0  0  0  0  0  0  0  0  0  0
   19.2170   79.9360   10.2280 H   0  0  0  0  0  0  0  0  0  0  0  0
   20.3070   78.9880   11.3320 H   0  0  0  0  0  0  0  0  0  0  0  0
   22.3690   79.3120    8.1470 H   0  0  0  0  0  0  0  0  0  0  0  0
   22.4520   77.6560    8.8250 H   0  0  0  0  0  0  0  0  0  0  0  0
   24.0640   79.4570    9.7710 H   0  0  0  0  0  0  0  0  0  0  0  0
   23.2460   78.3420   10.8700 H   0  0  0  0  0  0  0  0  0  0  0  0
   16.9170   78.5810    6.8190 H   0  0  0  0  0  0  0  0  0  0  0  0
   18.5950   79.8460    8.1730 H   0  0  0  0  0  0  0  0  0  0  0  0
  2  7  1  0  0  0  0
  2  1  1  0  0  0  0
  3  2  2  0  0  0  0
  4  5  2  0  0  0  0
  4  3  1  0  0  0  0
  5  6  1  0  0  0  0
  6 33  1  0  0  0  0
  6  7  2  0  0  0  0
  7 34  1  0  0  0  0
  8  5  1  0  0  0  0
  9  8  2  0  0  0  0
 10  8  1  0  0  0  0
 10 35  1  0  0  0  0
 11 10  1  0  0  0  0
 12 39  1  0  0  0  0
 12 38  1  0  0  0  0
 12 11  1  0  0  0  0
 13 12  1  0  0  0  0
 14 13  1  0  0  0  0
 14 15  2  0  0  0  0
 16 14  1  0  0  0  0
 17 16  1  0  0  0  0
 17 43  1  0  0  0  0
 18 17  1  0  0  0  0
 18 45  1  0  0  0  0
 19 18  1  0  0  0  0
 20 19  1  0  0  0  0
 20 21  1  0  0  0  0
 21 49  1  0  0  0  0
 21 16  1  0  0  0  0
 22 19  1  0  0  0  0
 23 22  2  0  0  0  0
 24 23  1  0  0  0  0
 25 24  1  0  0  0  0
 26 25  2  0  0  0  0
 27 26  1  0  0  0  0
 27 28  2  0  0  0  0
 28 29  1  0  0  0  0
 28 24  1  0  0  0  0
 29 30  2  0  0  0  0
 30 51  1  0  0  0  0
 30 22  1  0  0  0  0
 31  3  1  0  0  0  0
 32  4  1  0  0  0  0
 36 11  1  0  0  0  0
 37 11  1  0  0  0  0
 40 13  1  0  0  0  0
 41 16  1  0  0  0  0
 42 17  1  0  0  0  0
 44 18  1  0  0  0  0
 46 20  1  0  0  0  0
 47 20  1  0  0  0  0
 48 21  1  0  0  0  0
 50 29  1  0  0  0  0
M  END
>  <Pose>
1

>  <Score>
-8.22

$$$$
