
 OpenBabel03222202113D

 49 52  0  0  0  0  0  0  0  0999 V2000
   19.5600   83.4660   19.6230 Cl  0  0  0  0  0  0  0  0  0  0  0  0
   19.7790   81.7700   19.2170 C   0  0  0  0  0  0  0  0  0  0  0  0
   20.1670   81.4460   17.9470 C   0  0  0  0  0  0  0  0  0  0  0  0
   20.3470   80.0980   17.6230 C   0  0  0  0  0  0  0  0  0  0  0  0
   20.1300   79.1450   18.5740 C   0  0  0  0  0  0  0  0  0  0  0  0
   19.7460   79.4600   19.8330 C   0  0  0  0  0  0  0  0  0  0  0  0
   19.5630   80.8160   20.1690 C   0  0  0  0  0  0  0  0  0  0  0  0
   20.3270   77.7030   18.2110 C   0  0  0  0  0  0  0  0  0  0  0  0
   19.2670   77.0290   18.1290 O   0  0  0  0  0  0  0  0  0  0  0  0
   21.5940   77.2700   18.0090 N   0  0  0  0  0  0  0  0  0  0  0  0
   22.8760   76.8310   17.8060 C   0  0  0  0  0  0  0  0  0  0  0  0
   23.7710   77.6680   17.0100 C   0  0  0  0  0  0  0  0  0  0  0  0
   24.9630   77.8290   17.5380 O   0  0  0  0  0  0  0  0  0  0  0  0
   23.5950   78.3230   15.7990 N   0  0  0  0  0  0  0  0  0  0  0  0
   23.6380   77.6880   14.5230 C   0  0  0  0  0  0  0  0  0  0  0  0
   23.7330   78.7910   13.4450 C   0  0  0  0  0  0  0  0  0  0  0  0
   22.4000   79.5160   13.4580 C   0  0  0  0  0  0  0  0  0  0  0  0
   21.3750   78.6080   13.1440 N   0  0  0  0  0  0  0  0  0  0  0  0
   21.0480   78.3290   11.8120 C   0  0  0  0  0  0  0  0  0  0  0  0
   21.1150   79.4450   10.8380 C   0  0  0  0  0  0  0  0  0  0  0  0
   21.8910   80.6080   11.3170 C   0  0  0  0  0  0  0  0  0  0  0  0
   22.1280   81.7680   10.6740 N   0  0  0  0  0  0  0  0  0  0  0  0
   22.8740   82.5390   11.4720 C   0  0  0  0  0  0  0  0  0  0  0  0
   23.1050   81.8600   12.6190 N   0  0  0  0  0  0  0  0  0  0  0  0
   22.5020   80.6590   12.5390 C   0  0  0  0  0  0  0  0  0  0  0  0
   22.1570   80.0080   14.8950 C   0  0  0  0  0  0  0  0  0  0  0  0
   23.3480   79.7730   15.7820 C   0  0  0  0  0  0  0  0  0  0  0  0
   20.3380   82.1970   17.1960 H   0  0  0  0  0  0  0  0  0  0  0  0
   20.6480   79.7960   16.6350 H   0  0  0  0  0  0  0  0  0  0  0  0
   19.5650   78.7340   20.6170 H   0  0  0  0  0  0  0  0  0  0  0  0
   19.2540   81.0820   21.1690 H   0  0  0  0  0  0  0  0  0  0  0  0
   21.3980   76.2200   18.8780 H   0  0  0  0  0  0  0  0  0  0  0  0
   22.8610   75.7890   17.2980 H   0  0  0  0  0  0  0  0  0  0  0  0
   23.4320   76.5460   18.7770 H   0  0  0  0  0  0  0  0  0  0  0  0
   22.7460   77.1080   14.3040 H   0  0  0  0  0  0  0  0  0  0  0  0
   24.5880   77.0830   14.4730 H   0  0  0  0  0  0  0  0  0  0  0  0
   23.8930   78.2940   12.4680 H   0  0  0  0  0  0  0  0  0  0  0  0
   24.5750   79.4270   13.7030 H   0  0  0  0  0  0  0  0  0  0  0  0
   20.9850   78.0270   13.8760 H   0  0  0  0  0  0  0  0  0  0  0  0
   19.9790   77.9520   11.8020 H   0  0  0  0  0  0  0  0  0  0  0  0
   21.6380   77.4300   11.4620 H   0  0  0  0  0  0  0  0  0  0  0  0
   20.0850   79.8320   10.5780 H   0  0  0  0  0  0  0  0  0  0  0  0
   21.5000   79.0570    9.8580 H   0  0  0  0  0  0  0  0  0  0  0  0
   23.2340   83.5360   11.2510 H   0  0  0  0  0  0  0  0  0  0  0  0
   23.6580   82.2130   13.4210 H   0  0  0  0  0  0  0  0  0  0  0  0
   21.8820   81.0870   14.9050 H   0  0  0  0  0  0  0  0  0  0  0  0
   21.2880   79.4670   15.3590 H   0  0  0  0  0  0  0  0  0  0  0  0
   23.0450   80.1240   16.8050 H   0  0  0  0  0  0  0  0  0  0  0  0
   24.2440   80.3220   15.4810 H   0  0  0  0  0  0  0  0  0  0  0  0
  2  1  1  0  0  0  0
  2  7  1  0  0  0  0
  3  2  2  0  0  0  0
  4  3  1  0  0  0  0
  4  5  2  0  0  0  0
  5  6  1  0  0  0  0
  6  7  2  0  0  0  0
  6 30  1  0  0  0  0
  7 31  1  0  0  0  0
  8  5  1  0  0  0  0
  9  8  2  0  0  0  0
 10  8  1  0  0  0  0
 10 32  1  0  0  0  0
 11 10  1  0  0  0  0
 11 34  1  0  0  0  0
 12 13  2  0  0  0  0
 12 11  1  0  0  0  0
 14 12  1  0  0  0  0
 15 14  1  0  0  0  0
 16 17  1  0  0  0  0
 16 38  1  0  0  0  0
 16 15  1  0  0  0  0
 17 26  1  0  0  0  0
 18 17  1  0  0  0  0
 18 39  1  0  0  0  0
 19 18  1  0  0  0  0
 20 21  1  0  0  0  0
 20 19  1  0  0  0  0
 21 25  2  0  0  0  0
 22 21  1  0  0  0  0
 22 23  2  0  0  0  0
 23 24  1  0  0  0  0
 24 45  1  0  0  0  0
 25 24  1  0  0  0  0
 25 17  1  0  0  0  0
 26 46  1  0  0  0  0
 26 47  1  0  0  0  0
 26 27  1  0  0  0  0
 27 14  1  0  0  0  0
 27 48  1  0  0  0  0
 28  3  1  0  0  0  0
 29  4  1  0  0  0  0
 33 11  1  0  0  0  0
 35 15  1  0  0  0  0
 36 15  1  0  0  0  0
 37 16  1  0  0  0  0
 40 19  1  0  0  0  0
 41 19  1  0  0  0  0
 42 20  1  0  0  0  0
 43 20  1  0  0  0  0
 44 23  1  0  0  0  0
 49 27  1  0  0  0  0
M  END
>  <Pose>
1

>  <Score>
-6.36

$$$$
