
 OpenBabel03222202113D

 43 46  0  0  0  0  0  0  0  0999 V2000
   19.5610   81.5440   19.9830 B   0  0  0  0  0  0  0  0  0  0  0  0
   19.9050   79.8260   19.2310 C   0  0  0  0  0  0  0  0  0  0  0  0
   20.3210   79.7090   17.8970 C   0  0  0  0  0  0  0  0  0  0  0  0
   20.5670   78.4650   17.3670 C   0  0  0  0  0  0  0  0  0  0  0  0
   20.3970   77.3610   18.1600 C   0  0  0  0  0  0  0  0  0  0  0  0
   19.9820   77.4680   19.4940 C   0  0  0  0  0  0  0  0  0  0  0  0
   19.7390   78.7150   20.0150 C   0  0  0  0  0  0  0  0  0  0  0  0
   20.9880   78.3260   16.0210 N   0  0  0  0  0  0  0  0  0  0  0  0
   20.5850   77.3830   15.1630 N   0  0  0  0  0  0  0  0  0  0  0  0
   21.1700   77.5420   13.9970 N   0  0  0  0  0  0  0  0  0  0  0  0
   21.9860   78.6050   14.0530 C   0  0  0  0  0  0  0  0  0  0  0  0
   21.8570   79.0860   15.3340 C   0  0  0  0  0  0  0  0  0  0  0  0
   22.8390   79.1460   12.9700 C   0  0  0  0  0  0  0  0  0  0  0  0
   24.0840   79.2400   13.2560 O   0  0  0  0  0  0  0  0  0  0  0  0
   22.3690   79.5380   11.7160 N   0  0  0  0  0  0  0  0  0  0  0  0
   22.8360   78.8620   10.5370 C   0  0  0  0  0  0  0  0  0  0  0  0
   21.6810   78.1180    9.9270 C   0  0  0  0  0  0  0  0  0  0  0  0
   20.5230   78.9650    9.9060 N   0  0  0  0  0  0  0  0  0  0  0  0
   20.7850   80.4040   10.1070 C   0  0  0  0  0  0  0  0  0  0  0  0
   21.4190   80.6020   11.4760 C   0  0  0  0  0  0  0  0  0  0  0  0
   19.1910   78.5910    9.7270 C   0  0  0  0  0  0  0  0  0  0  0  0
   18.3630   79.0800   10.5990 O   0  0  0  0  0  0  0  0  0  0  0  0
   18.5760   77.7390    8.7170 C   0  0  0  0  0  0  0  0  0  0  0  0
   18.2950   78.1550    7.3430 C   0  0  0  0  0  0  0  0  0  0  0  0
   19.3180   77.0590    7.6280 C   0  0  0  0  0  0  0  0  0  0  0  0
   20.4300   80.6310   17.3440 H   0  0  0  0  0  0  0  0  0  0  0  0
   20.5720   76.3570   17.8090 H   0  0  0  0  0  0  0  0  0  0  0  0
   19.8460   76.6040   20.1220 H   0  0  0  0  0  0  0  0  0  0  0  0
   19.4150   78.8050   21.0550 H   0  0  0  0  0  0  0  0  0  0  0  0
   22.3800   79.9450   15.7250 H   0  0  0  0  0  0  0  0  0  0  0  0
   23.7160   78.2190   10.7230 H   0  0  0  0  0  0  0  0  0  0  0  0
   23.1990   79.6590    9.8490 H   0  0  0  0  0  0  0  0  0  0  0  0
   21.9460   77.7520    8.8980 H   0  0  0  0  0  0  0  0  0  0  0  0
   21.4330   77.2280   10.5410 H   0  0  0  0  0  0  0  0  0  0  0  0
   21.4180   80.7240    9.2720 H   0  0  0  0  0  0  0  0  0  0  0  0
   19.8190   80.9110   10.1180 H   0  0  0  0  0  0  0  0  0  0  0  0
   20.6730   80.6300   12.2710 H   0  0  0  0  0  0  0  0  0  0  0  0
   21.9700   81.5510   11.4510 H   0  0  0  0  0  0  0  0  0  0  0  0
   17.7840   77.0140    9.1470 H   0  0  0  0  0  0  0  0  0  0  0  0
   17.3410   77.7960    6.8340 H   0  0  0  0  0  0  0  0  0  0  0  0
   18.6710   79.0690    6.8590 H   0  0  0  0  0  0  0  0  0  0  0  0
   20.3550   77.2080    7.3760 H   0  0  0  0  0  0  0  0  0  0  0  0
   18.9810   76.0190    7.3200 H   0  0  0  0  0  0  0  0  0  0  0  0
  2  1  1  0  0  0  0
  2  7  1  0  0  0  0
  3  2  2  0  0  0  0
  4  3  1  0  0  0  0
  4  5  2  0  0  0  0
  5  6  1  0  0  0  0
  6  7  2  0  0  0  0
  6 28  1  0  0  0  0
  7 29  1  0  0  0  0
  8  4  1  0  0  0  0
  9  8  1  0  0  0  0
 10 11  1  0  0  0  0
 10  9  2  0  0  0  0
 11 12  2  0  0  0  0
 12 30  1  0  0  0  0
 12  8  1  0  0  0  0
 13 14  2  0  0  0  0
 13 11  1  0  0  0  0
 15 13  1  0  0  0  0
 16 31  1  0  0  0  0
 16 15  1  0  0  0  0
 17 16  1  0  0  0  0
 17 34  1  0  0  0  0
 18 17  1  0  0  0  0
 18 19  1  0  0  0  0
 19 36  1  0  0  0  0
 19 20  1  0  0  0  0
 20 15  1  0  0  0  0
 20 37  1  0  0  0  0
 21 18  1  0  0  0  0
 21 22  2  0  0  0  0
 23 39  1  0  0  0  0
 23 21  1  0  0  0  0
 24 25  1  0  0  0  0
 24 23  1  0  0  0  0
 25 23  1  0  0  0  0
 26  3  1  0  0  0  0
 27  5  1  0  0  0  0
 32 16  1  0  0  0  0
 33 17  1  0  0  0  0
 35 19  1  0  0  0  0
 38 20  1  0  0  0  0
 40 24  1  0  0  0  0
 41 24  1  0  0  0  0
 42 25  1  0  0  0  0
 43 25  1  0  0  0  0
M  END
>  <Pose>
1

>  <Score>
-6.85

$$$$
