
 OpenBabel03222202113D

 46 49  0  0  1  0  0  0  0  0999 V2000
   19.1370   84.0760   20.9380 Cl  0  0  0  0  0  0  0  0  0  0  0  0
   19.5610   82.9840   19.6470 C   0  0  0  0  0  0  0  0  0  0  0  0
   20.0010   83.5110   18.4550 C   0  0  0  0  0  0  0  0  0  0  0  0
   20.3300   82.6390   17.4470 C   0  0  0  0  0  0  0  0  0  0  0  0
   20.2110   81.2570   17.6590 C   0  0  0  0  0  0  0  0  0  0  0  0
   19.7800   80.6950   18.8220 C   0  0  0  0  0  0  0  0  0  0  0  0
   19.4550   81.6430   19.8240 C   0  0  0  0  0  0  0  0  0  0  0  0
   19.6350   79.2910   19.0980 C   0  0  1  0  0  0  0  0  0  0  0  0
   18.4930   78.9760   19.6790 O   0  0  0  0  0  0  0  0  0  0  0  0
   20.5080   78.1670   18.8560 C   0  0  0  0  0  0  0  0  0  0  0  0
   20.6530   77.6030   17.5570 N   0  0  0  0  0  0  0  0  0  0  0  0
   21.6250   77.9160   16.6440 C   0  0  1  0  0  0  0  0  0  0  0  0
   21.3600   77.1940   15.5520 N   0  0  0  0  0  0  0  0  0  0  0  0
   20.2680   76.4260   15.7030 C   0  0  0  0  0  0  0  0  0  0  0  0
   19.8200   76.6910   16.9850 C   0  0  0  0  0  0  0  0  0  0  0  0
   19.6470   75.4990   14.7580 C   0  0  0  0  0  0  0  0  0  0  0  0
   18.4000   75.6610   14.2100 C   0  0  0  0  0  0  0  0  0  0  0  0
   17.8710   74.7270   13.3070 C   0  0  0  0  0  0  0  0  0  0  0  0
   18.5730   73.6050   12.9260 C   0  0  0  0  0  0  0  0  0  0  0  0
   19.8270   73.4340   13.4720 C   0  0  0  0  0  0  0  0  0  0  0  0
   20.3450   74.3540   14.3590 C   0  0  0  0  0  0  0  0  0  0  0  0
   18.0620   72.6730   12.0340 O   0  0  0  0  0  0  0  0  0  0  0  0
   17.5940   71.4180   12.4950 C   0  0  0  0  0  0  0  0  0  0  0  0
   22.3520   77.4610   14.5150 C   0  0  0  0  0  0  0  0  0  0  0  0
   23.3510   78.3820   15.1520 C   0  0  0  0  0  0  0  0  0  0  0  0
   22.8280   78.7690   16.4890 C   0  0  0  0  0  0  0  0  0  0  0  0
   20.1480   85.2340   18.1950 Cl  0  0  0  0  0  0  0  0  0  0  0  0
   20.6730   83.0420   16.5190 H   0  0  0  0  0  0  0  0  0  0  0  0
   20.4920   80.6750   16.8220 H   0  0  0  0  0  0  0  0  0  0  0  0
   19.1050   81.2830   20.7770 H   0  0  0  0  0  0  0  0  0  0  0  0
   21.5760   78.3950   19.2460 H   0  0  0  0  0  0  0  0  0  0  0  0
   20.2470   77.3030   19.5860 H   0  0  0  0  0  0  0  0  0  0  0  0
   18.9520   76.2560   17.4770 H   0  0  0  0  0  0  0  0  0  0  0  0
   17.8200   76.5170   14.4790 H   0  0  0  0  0  0  0  0  0  0  0  0
   16.8860   74.8650   12.8820 H   0  0  0  0  0  0  0  0  0  0  0  0
   20.3970   72.5510   13.1820 H   0  0  0  0  0  0  0  0  0  0  0  0
   21.3380   74.2130   14.7880 H   0  0  0  0  0  0  0  0  0  0  0  0
   16.6390   71.6160   13.0470 H   0  0  0  0  0  0  0  0  0  0  0  0
   17.3890   70.7610   11.6270 H   0  0  0  0  0  0  0  0  0  0  0  0
   18.3170   70.9610   13.2060 H   0  0  0  0  0  0  0  0  0  0  0  0
   22.9150   76.5440   14.2170 H   0  0  0  0  0  0  0  0  0  0  0  0
   21.8660   77.9080   13.6250 H   0  0  0  0  0  0  0  0  0  0  0  0
   24.3560   77.9090   15.2810 H   0  0  0  0  0  0  0  0  0  0  0  0
   23.4770   79.2640   14.4610 H   0  0  0  0  0  0  0  0  0  0  0  0
   23.5360   78.6000   17.3230 H   0  0  0  0  0  0  0  0  0  0  0  0
   22.5660   79.8580   16.5040 H   0  0  0  0  0  0  0  0  0  0  0  0
  2  7  1  0  0  0  0
  2  1  1  0  0  0  0
  3  2  2  0  0  0  0
  4  5  2  0  0  0  0
  4  3  1  0  0  0  0
  5  6  1  0  0  0  0
  6  8  1  0  0  0  0
  6  7  2  0  0  0  0
  7 30  1  0  0  0  0
  8  9  1  6  0  0  0
 10  8  1  0  0  0  0
 10 31  1  0  0  0  0
 10 32  1  0  0  0  0
 11 10  1  0  0  0  0
 12 13  1  6  0  0  0
 12 11  1  0  0  0  0
 13 14  1  0  0  0  0
 14 15  2  0  0  0  0
 15 33  1  0  0  0  0
 15 11  1  0  0  0  0
 16 14  1  0  0  0  0
 17 34  1  0  0  0  0
 17 16  2  0  0  0  0
 18 17  1  0  0  0  0
 19 18  2  0  0  0  0
 19 20  1  0  0  0  0
 20 21  2  0  0  0  0
 21 16  1  0  0  0  0
 21 37  1  0  0  0  0
 22 23  1  0  0  0  0
 22 19  1  0  0  0  0
 23 38  1  0  0  0  0
 23 40  1  0  0  0  0
 24 25  1  0  0  0  0
 24 13  1  0  0  0  0
 25 43  1  0  0  0  0
 25 26  1  0  0  0  0
 26 46  1  0  0  0  0
 26 12  1  0  0  0  0
 26 45  1  0  0  0  0
 27  3  1  0  0  0  0
 28  4  1  0  0  0  0
 29  5  1  0  0  0  0
 35 18  1  0  0  0  0
 36 20  1  0  0  0  0
 39 23  1  0  0  0  0
 41 24  1  0  0  0  0
 42 24  1  0  0  0  0
 44 25  1  0  0  0  0
M  END
>  <Pose>
1

>  <Score>
-6.72

$$$$
