
 OpenBabel03222202113D

 44 47  0  0  1  0  0  0  0  0999 V2000
   19.2450   83.3570   22.6280 Cl  0  0  0  0  0  0  0  0  0  0  0  0
   19.6570   83.2620   20.9290 C   0  0  0  0  0  0  0  0  0  0  0  0
   19.6300   84.4070   20.1880 C   0  0  0  0  0  0  0  0  0  0  0  0
   19.9490   84.3620   18.8510 C   0  0  0  0  0  0  0  0  0  0  0  0
   20.2970   83.1360   18.2770 C   0  0  0  0  0  0  0  0  0  0  0  0
   20.3270   81.9770   19.0190 C   0  0  0  0  0  0  0  0  0  0  0  0
   20.0060   82.0500   20.3430 C   0  0  0  0  0  0  0  0  0  0  0  0
   20.6840   80.7270   18.3490 C   0  0  0  0  0  0  0  0  0  0  0  0
   20.3810   79.4420   18.6670 N   0  0  0  0  0  0  0  0  0  0  0  0
   20.9250   78.6210   17.7620 C   0  0  2  0  0  0  0  0  0  0  0  0
   21.6050   79.3470   16.8230 N   0  0  0  0  0  0  0  0  0  0  0  0
   21.4490   80.6290   17.1950 C   0  0  0  0  0  0  0  0  0  0  0  0
   22.2860   78.8380   15.6680 C   0  0  0  0  0  0  0  0  0  0  0  0
   21.5880   78.3760   14.5000 C   0  0  1  0  0  0  0  0  0  0  0  0
   20.7920   77.3390   14.7430 O   0  0  0  0  0  0  0  0  0  0  0  0
   21.5590   78.7890   13.1190 C   0  0  0  0  0  0  0  0  0  0  0  0
   20.3230   78.8810   12.4410 C   0  0  0  0  0  0  0  0  0  0  0  0
   20.1940   79.2650   11.1320 C   0  0  0  0  0  0  0  0  0  0  0  0
   21.3600   79.5750   10.4610 C   0  0  0  0  0  0  0  0  0  0  0  0
   22.5780   79.4940   11.1000 C   0  0  0  0  0  0  0  0  0  0  0  0
   22.7020   79.1010   12.4340 C   0  0  0  0  0  0  0  0  0  0  0  0
   18.9460   79.3500   10.4710 N   0  0  0  0  0  0  0  0  0  0  0  0
   18.1250   80.1990   10.8350 O   0  0  0  0  0  0  0  0  0  0  0  0
   18.6190   78.5190    9.4390 O   0  0  0  0  0  0  0  0  0  0  0  0
   20.6060   77.2080   18.0670 C   0  0  0  0  0  0  0  0  0  0  0  0
   20.2840   77.2810   19.5340 C   0  0  0  0  0  0  0  0  0  0  0  0
   19.6660   78.6540   19.6720 C   0  0  0  0  0  0  0  0  0  0  0  0
   19.1920   85.9640   20.8930 Cl  0  0  0  0  0  0  0  0  0  0  0  0
   19.9210   85.2720   18.2850 H   0  0  0  0  0  0  0  0  0  0  0  0
   20.5380   83.1670   17.2230 H   0  0  0  0  0  0  0  0  0  0  0  0
   19.9880   81.2040   21.0080 H   0  0  0  0  0  0  0  0  0  0  0  0
   21.8760   81.4770   16.6500 H   0  0  0  0  0  0  0  0  0  0  0  0
   23.0660   79.6300   15.4020 H   0  0  0  0  0  0  0  0  0  0  0  0
   22.9500   78.0050   16.0800 H   0  0  0  0  0  0  0  0  0  0  0  0
   19.3990   78.6360   12.9680 H   0  0  0  0  0  0  0  0  0  0  0  0
   21.2720   79.8800    9.4230 H   0  0  0  0  0  0  0  0  0  0  0  0
   23.4970   79.7420   10.5590 H   0  0  0  0  0  0  0  0  0  0  0  0
   23.6900   79.0700   12.8420 H   0  0  0  0  0  0  0  0  0  0  0  0
   21.4730   76.5370   17.9440 H   0  0  0  0  0  0  0  0  0  0  0  0
   19.7170   76.8400   17.4860 H   0  0  0  0  0  0  0  0  0  0  0  0
   21.2510   77.2390   20.0810 H   0  0  0  0  0  0  0  0  0  0  0  0
   19.5810   76.4900   19.8690 H   0  0  0  0  0  0  0  0  0  0  0  0
   18.5890   78.5550   19.4230 H   0  0  0  0  0  0  0  0  0  0  0  0
   19.8290   79.0420   20.7070 H   0  0  0  0  0  0  0  0  0  0  0  0
  2  1  1  0  0  0  0
  3 28  1  0  0  0  0
  3  2  2  0  0  0  0
  4  3  1  0  0  0  0
  5  4  2  0  0  0  0
  5  6  1  0  0  0  0
  6  7  2  0  0  0  0
  7  2  1  0  0  0  0
  7 31  1  0  0  0  0
  8  9  1  0  0  0  0
  8  6  1  0  0  0  0
  9 27  1  0  0  0  0
 10 11  1  6  0  0  0
 10 25  1  0  0  0  0
 10  9  1  0  0  0  0
 11 12  1  0  0  0  0
 12  8  2  0  0  0  0
 13 34  1  0  0  0  0
 13 11  1  0  0  0  0
 14 15  1  1  0  0  0
 14 13  1  0  0  0  0
 16 14  1  0  0  0  0
 17 35  1  0  0  0  0
 17 16  1  0  0  0  0
 18 17  2  0  0  0  0
 19 20  2  0  0  0  0
 19 18  1  0  0  0  0
 20 21  1  0  0  0  0
 21 38  1  0  0  0  0
 21 16  2  0  0  0  0
 22 23  2  0  0  0  0
 22 18  1  0  0  0  0
 24 22  2  0  0  0  0
 25 26  1  0  0  0  0
 26 27  1  0  0  0  0
 26 42  1  0  0  0  0
 26 41  1  0  0  0  0
 27 44  1  0  0  0  0
 29  4  1  0  0  0  0
 30  5  1  0  0  0  0
 32 12  1  0  0  0  0
 33 13  1  0  0  0  0
 36 19  1  0  0  0  0
 37 20  1  0  0  0  0
 39 25  1  0  0  0  0
 40 25  1  0  0  0  0
 43 27  1  0  0  0  0
M  END
>  <Pose>
1

>  <Score>
-6.89

$$$$
