
 OpenBabel03222202113D

 44 47  0  0  1  0  0  0  0  0999 V2000
   17.1540   73.6490   12.3160 Cl  0  0  0  0  0  0  0  0  0  0  0  0
   18.6830   73.7600   13.1290 C   0  0  0  0  0  0  0  0  0  0  0  0
   19.4870   72.6600   13.2620 C   0  0  0  0  0  0  0  0  0  0  0  0
   20.6860   72.8080   13.9160 C   0  0  0  0  0  0  0  0  0  0  0  0
   21.0610   74.0260   14.4180 C   0  0  0  0  0  0  0  0  0  0  0  0
   20.2660   75.1700   14.3000 C   0  0  0  0  0  0  0  0  0  0  0  0
   19.0870   75.0040   13.6530 C   0  0  0  0  0  0  0  0  0  0  0  0
   20.7110   76.4410   14.8750 C   0  0  0  0  0  0  0  0  0  0  0  0
   21.3540   77.4770   14.3130 N   0  0  0  0  0  0  0  0  0  0  0  0
   21.5560   78.4380   15.2390 C   0  0  2  0  0  0  0  0  0  0  0  0
   21.0370   78.0080   16.4030 N   0  0  0  0  0  0  0  0  0  0  0  0
   20.5000   76.7680   16.2230 C   0  0  0  0  0  0  0  0  0  0  0  0
   21.0050   78.7320   17.6200 C   0  0  0  0  0  0  0  0  0  0  0  0
   19.9050   79.5630   18.0170 C   0  0  2  0  0  0  0  0  0  0  0  0
   18.7440   79.0000   17.7480 O   0  0  0  0  0  0  0  0  0  0  0  0
   19.8310   80.8640   18.6380 C   0  0  0  0  0  0  0  0  0  0  0  0
   20.1850   82.0430   18.0400 C   0  0  0  0  0  0  0  0  0  0  0  0
   20.0850   83.2690   18.7050 C   0  0  0  0  0  0  0  0  0  0  0  0
   19.6260   83.3170   19.9820 C   0  0  0  0  0  0  0  0  0  0  0  0
   19.2620   82.1450   20.6080 C   0  0  0  0  0  0  0  0  0  0  0  0
   19.3560   80.9400   19.9670 C   0  0  0  0  0  0  0  0  0  0  0  0
   20.4710   84.4640   18.0230 N   0  0  0  0  0  0  0  0  0  0  0  0
   21.6780   84.7310   17.8930 O   0  0  0  0  0  0  0  0  0  0  0  0
   19.5550   85.3250   17.5090 O   0  0  0  0  0  0  0  0  0  0  0  0
   22.2560   79.5920   14.6280 C   0  0  0  0  0  0  0  0  0  0  0  0
   23.0340   78.8770   13.5540 C   0  0  0  0  0  0  0  0  0  0  0  0
   21.9320   77.9330   13.0430 C   0  0  0  0  0  0  0  0  0  0  0  0
   19.0180   71.1000   12.6240 Cl  0  0  0  0  0  0  0  0  0  0  0  0
   21.3590   71.9520   14.0440 H   0  0  0  0  0  0  0  0  0  0  0  0
   22.0050   74.1090   14.9230 H   0  0  0  0  0  0  0  0  0  0  0  0
   18.4130   75.8230   13.5290 H   0  0  0  0  0  0  0  0  0  0  0  0
   20.0200   76.1800   16.9690 H   0  0  0  0  0  0  0  0  0  0  0  0
   21.9450   79.3910   17.6920 H   0  0  0  0  0  0  0  0  0  0  0  0
   21.1610   77.9820   18.4750 H   0  0  0  0  0  0  0  0  0  0  0  0
   20.5570   82.0630   17.0280 H   0  0  0  0  0  0  0  0  0  0  0  0
   19.5550   84.2930   20.4850 H   0  0  0  0  0  0  0  0  0  0  0  0
   18.8900   82.1860   21.6430 H   0  0  0  0  0  0  0  0  0  0  0  0
   19.0560   80.0390   20.5060 H   0  0  0  0  0  0  0  0  0  0  0  0
   21.4920   80.2700   14.1820 H   0  0  0  0  0  0  0  0  0  0  0  0
   22.9220   80.1200   15.3350 H   0  0  0  0  0  0  0  0  0  0  0  0
   23.7670   78.2220   14.0550 H   0  0  0  0  0  0  0  0  0  0  0  0
   23.4300   79.5100   12.7770 H   0  0  0  0  0  0  0  0  0  0  0  0
   21.1930   78.5440   12.5360 H   0  0  0  0  0  0  0  0  0  0  0  0
   22.3960   77.1210   12.4570 H   0  0  0  0  0  0  0  0  0  0  0  0
  1  2  1  0  0  0  0
  2  3  2  0  0  0  0
  2  7  1  0  0  0  0
  3  4  1  0  0  0  0
  4 29  1  0  0  0  0
  4  5  2  0  0  0  0
  5 30  1  0  0  0  0
  6  5  1  0  0  0  0
  6  8  1  0  0  0  0
  7  6  2  0  0  0  0
  8 12  2  0  0  0  0
  9  8  1  0  0  0  0
 10  9  1  6  0  0  0
 10 11  1  0  0  0  0
 11 13  1  0  0  0  0
 12 11  1  0  0  0  0
 12 32  1  0  0  0  0
 13 33  1  0  0  0  0
 13 14  1  0  0  0  0
 13 34  1  0  0  0  0
 14 15  1  6  0  0  0
 14 16  1  0  0  0  0
 16 21  1  0  0  0  0
 17 16  2  0  0  0  0
 17 18  1  0  0  0  0
 18 19  2  0  0  0  0
 19 36  1  0  0  0  0
 19 20  1  0  0  0  0
 20 37  1  0  0  0  0
 21 38  1  0  0  0  0
 21 20  2  0  0  0  0
 22 18  1  0  0  0  0
 23 22  2  0  0  0  0
 24 22  2  0  0  0  0
 25 10  1  0  0  0  0
 25 40  1  0  0  0  0
 26 41  1  0  0  0  0
 26 25  1  0  0  0  0
 27 26  1  0  0  0  0
 27  9  1  0  0  0  0
 28  3  1  0  0  0  0
 31  7  1  0  0  0  0
 35 17  1  0  0  0  0
 39 25  1  0  0  0  0
 42 26  1  0  0  0  0
 43 27  1  0  0  0  0
 44 27  1  0  0  0  0
M  END
>  <Pose>
1

>  <Score>
-7.40

$$$$
