
 OpenBabel03222202113D

 55 58  0  0  0  0  0  0  0  0999 V2000
   21.9920   79.1300   13.0710 S   0  0  0  0  0  0  0  0  0  0  0  0
   23.4180   79.6390   12.8320 O   0  0  0  0  0  0  0  0  0  0  0  0
   21.3480   80.2670   13.8680 O   0  0  0  0  0  0  0  0  0  0  0  0
   22.0750   77.7700   14.0070 N   0  0  0  0  0  0  0  0  0  0  0  0
   21.0750   76.8080   14.0880 C   0  0  0  0  0  0  0  0  0  0  0  0
   20.0660   76.9780   15.1770 C   0  0  0  0  0  0  0  0  0  0  0  0
   20.6680   77.8410   16.2830 C   0  0  0  0  0  0  0  0  0  0  0  0
   22.1060   77.3130   16.4090 C   0  0  0  0  0  0  0  0  0  0  0  0
   22.8530   77.9190   15.2310 C   0  0  0  0  0  0  0  0  0  0  0  0
   19.9360   77.7270   17.5330 C   0  0  0  0  0  0  0  0  0  0  0  0
   19.4400   76.6180   17.8640 O   0  0  0  0  0  0  0  0  0  0  0  0
   19.7680   78.8210   18.3880 N   0  0  0  0  0  0  0  0  0  0  0  0
   19.8620   78.7170   19.8480 C   0  0  0  0  0  0  0  0  0  0  0  0
   19.4170   80.0550   20.4000 C   0  0  0  0  0  0  0  0  0  0  0  0
   20.3100   81.1070   19.9540 N   0  0  0  0  0  0  0  0  0  0  0  0
   20.3390   81.1980   18.5050 C   0  0  0  0  0  0  0  0  0  0  0  0
   19.4650   80.1280   17.8740 C   0  0  0  0  0  0  0  0  0  0  0  0
   19.9480   82.3790   20.5410 C   0  0  0  0  0  0  0  0  0  0  0  0
   21.2670   79.0200   11.4940 C   0  0  0  0  0  0  0  0  0  0  0  0
   20.5030   77.8860   11.1690 C   0  0  0  0  0  0  0  0  0  0  0  0
   19.9420   77.7050    9.9310 C   0  0  0  0  0  0  0  0  0  0  0  0
   20.1210   78.6470    8.9660 C   0  0  0  0  0  0  0  0  0  0  0  0
   20.8570   79.7760    9.2250 C   0  0  0  0  0  0  0  0  0  0  0  0
   21.4160   79.9370   10.4950 C   0  0  0  0  0  0  0  0  0  0  0  0
   22.2810   81.4350   10.7950 Cl  0  0  0  0  0  0  0  0  0  0  0  0
   19.5300   78.4370    7.6720 N   0  0  0  0  0  0  0  0  0  0  0  0
   18.7790   77.2600    7.4310 C   0  0  0  0  0  0  0  0  0  0  0  0
   17.9490   77.1900    6.5000 O   0  0  0  0  0  0  0  0  0  0  0  0
   19.0140   76.1000    8.3310 C   0  0  0  0  0  0  0  0  0  0  0  0
   19.1860   76.5610    9.6450 O   0  0  0  0  0  0  0  0  0  0  0  0
   20.5780   76.6180   13.1360 H   0  0  0  0  0  0  0  0  0  0  0  0
   21.6240   75.8050   14.2770 H   0  0  0  0  0  0  0  0  0  0  0  0
   19.8710   75.9820   15.6490 H   0  0  0  0  0  0  0  0  0  0  0  0
   19.0890   77.3650   14.8770 H   0  0  0  0  0  0  0  0  0  0  0  0
   20.7160   78.8770   15.9100 H   0  0  0  0  0  0  0  0  0  0  0  0
   22.5750   77.5480   17.3580 H   0  0  0  0  0  0  0  0  0  0  0  0
   22.0230   76.2010   16.2390 H   0  0  0  0  0  0  0  0  0  0  0  0
   23.8720   77.5040   15.1500 H   0  0  0  0  0  0  0  0  0  0  0  0
   22.9440   79.0020   15.4290 H   0  0  0  0  0  0  0  0  0  0  0  0
   20.9610   78.5830   20.0780 H   0  0  0  0  0  0  0  0  0  0  0  0
   19.2560   77.8930   20.2270 H   0  0  0  0  0  0  0  0  0  0  0  0
   18.3580   80.2160   20.0560 H   0  0  0  0  0  0  0  0  0  0  0  0
   19.4190   80.0030   21.5050 H   0  0  0  0  0  0  0  0  0  0  0  0
   21.3630   81.0870   18.1260 H   0  0  0  0  0  0  0  0  0  0  0  0
   19.8870   82.1710   18.2240 H   0  0  0  0  0  0  0  0  0  0  0  0
   18.3820   80.3500   18.0380 H   0  0  0  0  0  0  0  0  0  0  0  0
   19.6150   80.1480   16.7950 H   0  0  0  0  0  0  0  0  0  0  0  0
   20.7800   83.0830   20.3540 H   0  0  0  0  0  0  0  0  0  0  0  0
   19.8350   82.2660   21.6290 H   0  0  0  0  0  0  0  0  0  0  0  0
   19.0430   82.8240   20.0560 H   0  0  0  0  0  0  0  0  0  0  0  0
   20.3670   77.1380   11.9510 H   0  0  0  0  0  0  0  0  0  0  0  0
   20.9990   80.5170    8.4710 H   0  0  0  0  0  0  0  0  0  0  0  0
   19.6600   79.1520    6.9300 H   0  0  0  0  0  0  0  0  0  0  0  0
   18.1590   75.3890    8.2950 H   0  0  0  0  0  0  0  0  0  0  0  0
   19.9230   75.5520    8.0440 H   0  0  0  0  0  0  0  0  0  0  0  0
  1  3  2  0  0  0  0
  1  4  1  0  0  0  0
  2  1  2  0  0  0  0
  4  5  1  0  0  0  0
  4  9  1  0  0  0  0
  5 32  1  0  0  0  0
  5  6  1  0  0  0  0
  6 33  1  0  0  0  0
  6  7  1  0  0  0  0
  7  8  1  0  0  0  0
  7 10  1  0  0  0  0
  8 36  1  0  0  0  0
  9 39  1  0  0  0  0
  9  8  1  0  0  0  0
 10 11  2  0  0  0  0
 10 12  1  0  0  0  0
 12 13  1  0  0  0  0
 13 40  1  0  0  0  0
 13 41  1  0  0  0  0
 13 14  1  0  0  0  0
 14 43  1  0  0  0  0
 15 14  1  0  0  0  0
 15 18  1  0  0  0  0
 16 15  1  0  0  0  0
 17 46  1  0  0  0  0
 17 12  1  0  0  0  0
 17 16  1  0  0  0  0
 18 49  1  0  0  0  0
 19  1  1  0  0  0  0
 20 19  1  0  0  0  0
 20 51  1  0  0  0  0
 21 20  2  0  0  0  0
 22 23  2  0  0  0  0
 22 21  1  0  0  0  0
 23 24  1  0  0  0  0
 24 25  1  0  0  0  0
 24 19  2  0  0  0  0
 26 22  1  0  0  0  0
 27 26  1  0  0  0  0
 27 29  1  0  0  0  0
 28 27  2  0  0  0  0
 29 30  1  0  0  0  0
 30 21  1  0  0  0  0
 31  5  1  0  0  0  0
 34  6  1  0  0  0  0
 35  7  1  0  0  0  0
 37  8  1  0  0  0  0
 38  9  1  0  0  0  0
 42 14  1  0  0  0  0
 44 16  1  0  0  0  0
 45 16  1  0  0  0  0
 47 17  1  0  0  0  0
 48 18  1  0  0  0  0
 50 18  1  0  0  0  0
 52 23  1  0  0  0  0
 53 26  1  0  0  0  0
 54 29  1  0  0  0  0
 55 29  1  0  0  0  0
M  END
>  <Pose>
1

>  <Score>
-7.67

$$$$
