
 OpenBabel03222202113D

 60 63  0  0  1  0  0  0  0  0999 V2000
   28.0280   76.4570   16.5930 Cl  0  0  0  0  0  0  0  0  0  0  0  0
   26.5790   77.4180   16.3070 C   0  0  0  0  0  0  0  0  0  0  0  0
   25.5170   76.9150   15.5780 C   0  0  0  0  0  0  0  0  0  0  0  0
   24.3910   77.6800   15.3630 C   0  0  0  0  0  0  0  0  0  0  0  0
   24.2560   78.9630   15.8490 C   0  0  0  0  0  0  0  0  0  0  0  0
   25.3410   79.4560   16.5840 C   0  0  0  0  0  0  0  0  0  0  0  0
   26.4660   78.6950   16.8010 C   0  0  0  0  0  0  0  0  0  0  0  0
   23.0320   79.7640   15.6010 C   0  0  2  0  0  0  0  0  0  0  0  0
   21.9720   79.1320   16.3970 N   0  0  0  0  0  0  0  0  0  0  0  0
   21.6880   77.9120   15.7280 C   0  0  0  0  0  0  0  0  0  0  0  0
   21.2440   76.8690   16.2360 O   0  0  0  0  0  0  0  0  0  0  0  0
   22.0220   78.1300   14.3240 C   0  0  0  0  0  0  0  0  0  0  0  0
   21.9470   77.3480   13.3300 O   0  0  0  0  0  0  0  0  0  0  0  0
   22.5020   79.5160   14.2290 C   0  0  0  0  0  0  0  0  0  0  0  0
   22.4740   80.2890   13.1600 C   0  0  0  0  0  0  0  0  0  0  0  0
   23.0200   81.5720   13.2540 O   0  0  0  0  0  0  0  0  0  0  0  0
   21.8970   79.8670   11.8920 C   0  0  0  0  0  0  0  0  0  0  0  0
   20.5510   80.0270   11.6040 C   0  0  0  0  0  0  0  0  0  0  0  0
   20.0030   79.6010   10.4110 C   0  0  0  0  0  0  0  0  0  0  0  0
   20.7920   78.9900    9.4470 C   0  0  0  0  0  0  0  0  0  0  0  0
   22.1300   78.8250    9.7210 C   0  0  0  0  0  0  0  0  0  0  0  0
   22.6740   79.2600   10.9330 C   0  0  0  0  0  0  0  0  0  0  0  0
   20.2540   78.5560    8.2380 O   0  0  0  0  0  0  0  0  0  0  0  0
   19.7030   77.2710    8.1610 C   0  0  0  0  0  0  0  0  0  0  0  0
   18.5600   79.7930   10.1470 C   0  0  0  0  0  0  0  0  0  0  0  0
   21.3540   79.6540   17.6170 C   0  0  0  0  0  0  0  0  0  0  0  0
   19.9760   80.1390   17.2270 C   0  0  0  0  0  0  0  0  0  0  0  0
   18.9340   79.5200   18.0010 N   0  0  0  0  0  4  0  0  0  0  0  0
   18.8290   80.1200   19.2910 C   0  0  0  0  0  0  0  0  0  0  0  0
   19.5460   79.4230   20.3990 C   0  0  0  0  0  0  0  0  0  0  0  0
   19.6190   78.0610   20.2830 O   0  0  0  0  0  0  0  0  0  0  0  0
   20.1250   77.6400   19.0600 C   0  0  0  0  0  0  0  0  0  0  0  0
   19.1520   78.1000   18.0070 C   0  0  0  0  0  0  0  0  0  0  0  0
   25.5860   75.9150   15.1820 H   0  0  0  0  0  0  0  0  0  0  0  0
   23.5310   77.3070   14.7880 H   0  0  0  0  0  0  0  0  0  0  0  0
   25.2260   80.4620   16.9610 H   0  0  0  0  0  0  0  0  0  0  0  0
   27.2850   79.0960   17.3680 H   0  0  0  0  0  0  0  0  0  0  0  0
   23.1480   80.8250   15.8350 H   0  0  0  0  0  0  0  0  0  0  0  0
   19.9490   80.5130   12.3850 H   0  0  0  0  0  0  0  0  0  0  0  0
   22.7650   78.3420    8.9650 H   0  0  0  0  0  0  0  0  0  0  0  0
   23.7240   79.0870   11.0980 H   0  0  0  0  0  0  0  0  0  0  0  0
   20.4990   76.4940    8.3420 H   0  0  0  0  0  0  0  0  0  0  0  0
   19.3340   77.0540    7.1340 H   0  0  0  0  0  0  0  0  0  0  0  0
   18.8480   77.1200    8.8530 H   0  0  0  0  0  0  0  0  0  0  0  0
   17.9790   78.8600   10.4060 H   0  0  0  0  0  0  0  0  0  0  0  0
   18.3520   79.9930    9.0780 H   0  0  0  0  0  0  0  0  0  0  0  0
   18.1450   80.6160   10.7750 H   0  0  0  0  0  0  0  0  0  0  0  0
   21.9120   80.5150   18.0200 H   0  0  0  0  0  0  0  0  0  0  0  0
   21.3390   78.8670   18.3670 H   0  0  0  0  0  0  0  0  0  0  0  0
   19.9040   81.2340   17.3540 H   0  0  0  0  0  0  0  0  0  0  0  0
   19.7450   79.9360   16.1570 H   0  0  0  0  0  0  0  0  0  0  0  0
   18.0340   79.7290   17.4820 H   0  0  0  0  0  0  0  0  0  0  0  0
   17.7360   80.1430   19.5800 H   0  0  0  0  0  0  0  0  0  0  0  0
   19.1060   81.2070   19.2220 H   0  0  0  0  0  0  0  0  0  0  0  0
   19.0840   79.6630   21.3880 H   0  0  0  0  0  0  0  0  0  0  0  0
   20.5920   79.8450   20.4530 H   0  0  0  0  0  0  0  0  0  0  0  0
   20.0590   76.5160   19.0770 H   0  0  0  0  0  0  0  0  0  0  0  0
   21.1570   77.9730   18.8820 H   0  0  0  0  0  0  0  0  0  0  0  0
   19.5570   77.7300   17.0310 H   0  0  0  0  0  0  0  0  0  0  0  0
   18.2090   77.5230   18.1650 H   0  0  0  0  0  0  0  0  0  0  0  0
  2  1  1  0  0  0  0
  2  7  1  0  0  0  0
  3  2  2  0  0  0  0
  4  3  1  0  0  0  0
  4  5  2  0  0  0  0
  5  6  1  0  0  0  0
  6  7  2  0  0  0  0
  6 36  1  0  0  0  0
  7 37  1  0  0  0  0
  8 38  1  1  0  0  0
  8  5  1  0  0  0  0
  8  9  1  0  0  0  0
  9 26  1  0  0  0  0
 10 11  2  0  0  0  0
 10  9  1  0  0  0  0
 12 10  1  0  0  0  0
 13 12  2  0  0  0  0
 14 12  1  0  0  0  0
 14  8  1  0  0  0  0
 15 16  1  0  0  0  0
 15 14  2  0  0  0  0
 17 15  1  0  0  0  0
 18 17  1  0  0  0  0
 18 39  1  0  0  0  0
 19 18  2  0  0  0  0
 20 21  2  0  0  0  0
 20 19  1  0  0  0  0
 21 22  1  0  0  0  0
 22 41  1  0  0  0  0
 22 17  2  0  0  0  0
 23 20  1  0  0  0  0
 24 23  1  0  0  0  0
 24 42  1  0  0  0  0
 24 44  1  0  0  0  0
 25 45  1  0  0  0  0
 25 19  1  0  0  0  0
 25 47  1  0  0  0  0
 26 48  1  0  0  0  0
 26 49  1  0  0  0  0
 27 50  1  0  0  0  0
 27 26  1  0  0  0  0
 27 28  1  0  0  0  0
 28 33  1  0  0  0  0
 28 29  1  0  0  0  0
 29 53  1  0  0  0  0
 29 30  1  0  0  0  0
 30 56  1  0  0  0  0
 30 55  1  0  0  0  0
 31 30  1  0  0  0  0
 32 57  1  0  0  0  0
 32 31  1  0  0  0  0
 33 60  1  0  0  0  0
 33 32  1  0  0  0  0
 34  3  1  0  0  0  0
 35  4  1  0  0  0  0
 40 21  1  0  0  0  0
 43 24  1  0  0  0  0
 46 25  1  0  0  0  0
 51 27  1  0  0  0  0
 52 28  1  0  0  0  0
 54 29  1  0  0  0  0
 58 32  1  0  0  0  0
 59 33  1  0  0  0  0
M  END
>  <Pose>
1

>  <Score>
-5.89

$$$$
