
 OpenBabel03222202113D

 39 42  0  0  1  0  0  0  0  0999 V2000
   19.3490   78.4760   19.9780 B   0  0  0  0  0  0  0  0  0  0  0  0
   20.0200   78.2910   18.1970 C   0  0  0  0  0  0  0  0  0  0  0  0
   21.0030   79.1660   17.7230 C   0  0  0  0  0  0  0  0  0  0  0  0
   21.4990   79.0400   16.4370 C   0  0  0  0  0  0  0  0  0  0  0  0
   20.9920   78.0280   15.6490 C   0  0  0  0  0  0  0  0  0  0  0  0
   20.0170   77.1630   16.1280 C   0  0  0  0  0  0  0  0  0  0  0  0
   19.5260   77.2900   17.4060 C   0  0  0  0  0  0  0  0  0  0  0  0
   19.3480   75.7660   14.9840 B   0  0  0  0  0  0  0  0  0  0  0  0
   22.5530   79.9750   15.8960 C   0  0  1  0  0  0  0  0  0  0  0  0
   23.7720   79.7400   16.5740 N   0  0  0  0  0  4  0  0  0  0  0  0
   24.9470   79.5950   15.7650 C   0  0  2  0  0  0  0  0  0  0  0  0
   24.6990   78.4980   14.7160 C   0  0  0  0  0  0  0  0  0  0  0  0
   23.6210   79.0510   13.8750 C   0  0  0  0  0  0  0  0  0  0  0  0
   23.4110   79.0090   12.5060 C   0  0  0  0  0  0  0  0  0  0  0  0
   22.2450   79.7040   12.2690 C   0  0  0  0  0  0  0  0  0  0  0  0
   21.7500   80.1580   13.4310 N   0  0  0  0  0  0  0  0  0  0  0  0
   22.6000   79.7560   14.4320 C   0  0  0  0  0  0  0  0  0  0  0  0
   21.8120   79.8100   10.9600 C   0  0  0  0  0  0  0  0  0  0  0  0
   22.5540   79.2250    9.9650 C   0  0  0  0  0  0  0  0  0  0  0  0
   23.7190   78.5320   10.2040 C   0  0  0  0  0  0  0  0  0  0  0  0
   24.1670   78.4170   11.5180 C   0  0  0  0  0  0  0  0  0  0  0  0
   26.1040   79.2550   16.6170 C   0  0  0  0  0  0  0  0  0  0  0  0
   27.0960   80.0280   16.6350 O   0  0  0  0  0  0  0  0  0  0  0  0
   26.0750   78.0980   17.3770 O   0  0  0  0  0  0  0  0  0  0  0  0
   21.4280   80.1300   18.5980 O   0  0  0  0  0  0  0  0  0  0  0  0
   21.3430   77.8810   14.6250 H   0  0  0  0  0  0  0  0  0  0  0  0
   18.7610   76.6160   17.7920 H   0  0  0  0  0  0  0  0  0  0  0  0
   22.1410   81.0060   16.0890 H   0  0  0  0  0  0  0  0  0  0  0  0
   23.9450   80.5730   17.2220 H   0  0  0  0  0  0  0  0  0  0  0  0
   23.7550   78.9120   17.2210 H   0  0  0  0  0  0  0  0  0  0  0  0
   25.1120   80.5550   15.2250 H   0  0  0  0  0  0  0  0  0  0  0  0
   25.6370   78.3210   14.1510 H   0  0  0  0  0  0  0  0  0  0  0  0
   24.3960   77.6120   15.3040 H   0  0  0  0  0  0  0  0  0  0  0  0
   20.8770   80.7200   13.6060 H   0  0  0  0  0  0  0  0  0  0  0  0
   20.8900   80.3570   10.7680 H   0  0  0  0  0  0  0  0  0  0  0  0
   22.2020   79.3150    8.9310 H   0  0  0  0  0  0  0  0  0  0  0  0
   24.3100   78.0650    9.4020 H   0  0  0  0  0  0  0  0  0  0  0  0
   25.0740   77.8870   11.7740 H   0  0  0  0  0  0  0  0  0  0  0  0
   22.3510   80.2890   18.8980 H   0  0  0  0  0  0  0  0  0  0  0  0
  2  1  1  0  0  0  0
  3  2  1  0  0  0  0
  3 25  1  0  0  0  0
  4  3  2  0  0  0  0
  5  6  2  0  0  0  0
  5  4  1  0  0  0  0
  6  7  1  0  0  0  0
  7 27  1  0  0  0  0
  7  2  2  0  0  0  0
  8  6  1  0  0  0  0
  9 28  1  1  0  0  0
  9  4  1  0  0  0  0
  9 10  1  0  0  0  0
 10 30  1  0  0  0  0
 10 29  1  0  0  0  0
 11 31  1  6  0  0  0
 11 10  1  0  0  0  0
 11 22  1  0  0  0  0
 12 33  1  0  0  0  0
 12 11  1  0  0  0  0
 13 17  2  0  0  0  0
 13 12  1  0  0  0  0
 14 13  1  0  0  0  0
 15 14  1  0  0  0  0
 15 16  1  0  0  0  0
 16 34  1  0  0  0  0
 16 17  1  0  0  0  0
 17  9  1  0  0  0  0
 18 15  2  0  0  0  0
 19 20  2  0  0  0  0
 19 18  1  0  0  0  0
 20 21  1  0  0  0  0
 21 38  1  0  0  0  0
 21 14  2  0  0  0  0
 22 23  2  0  0  0  0
 22 24  1  0  0  0  0
 25 39  1  0  0  0  0
 26  5  1  0  0  0  0
 32 12  1  0  0  0  0
 35 18  1  0  0  0  0
 36 19  1  0  0  0  0
 37 20  1  0  0  0  0
M  END
>  <Pose>
1

>  <Score>
-5.69

$$$$
