
 OpenBabel03222202113D

 45 48  0  0  1  0  0  0  0  0999 V2000
   18.1090   74.5850    5.7730 Cl  0  0  0  0  0  0  0  0  0  0  0  0
   18.5200   75.6120    7.1550 C   0  0  0  0  0  0  0  0  0  0  0  0
   19.0680   75.0850    8.2780 C   0  0  0  0  0  0  0  0  0  0  0  0
   19.3800   75.9220    9.3500 C   0  0  0  0  0  0  0  0  0  0  0  0
   19.1710   77.2790    9.3560 C   0  0  0  0  0  0  0  0  0  0  0  0
   18.6010   77.7690    8.1680 C   0  0  0  0  0  0  0  0  0  0  0  0
   18.2830   76.9610    7.0960 C   0  0  0  0  0  0  0  0  0  0  0  0
   19.4950   78.2110   10.4000 C   0  0  0  0  0  0  0  0  0  0  0  0
   18.8640   79.3660   10.2600 O   0  0  0  0  0  0  0  0  0  0  0  0
   20.3440   78.1140   11.5150 N   0  0  0  0  0  0  0  0  0  0  0  0
   20.0010   77.4900   12.7430 C   0  0  0  0  0  0  0  0  0  0  0  0
   21.2610   77.3910   13.6200 C   0  0  1  0  0  0  0  0  0  0  0  0
   21.7210   78.7450   13.7870 N   0  0  0  0  0  0  0  0  0  0  0  0
   22.0860   79.4650   12.6130 C   0  0  0  0  0  0  0  0  0  0  0  0
   21.6650   78.7230   11.3610 C   0  0  0  0  0  0  0  0  0  0  0  0
   21.8030   79.3290   15.0630 C   0  0  0  0  0  0  0  0  0  0  0  0
   22.5420   80.3170   15.2260 O   0  0  0  0  0  0  0  0  0  0  0  0
   21.0100   78.7490   16.1660 C   0  0  1  0  0  0  0  0  0  0  0  0
   21.2080   77.3300   16.1180 N   0  0  0  0  0  0  0  0  0  0  0  0
   21.0200   76.6800   14.8740 C   0  0  0  0  0  0  0  0  0  0  0  0
   20.6420   75.4680   14.8070 O   0  0  0  0  0  0  0  0  0  0  0  0
   21.2560   79.3760   17.4840 C   0  0  0  0  0  0  0  0  0  0  0  0
   20.7760   78.4960   18.5610 C   0  0  0  0  0  0  0  0  0  0  0  0
   19.9220   78.7750   19.5490 N   0  0  0  0  0  0  0  0  0  0  0  0
   19.7550   77.6650   20.3270 C   0  0  0  0  0  0  0  0  0  0  0  0
   20.5060   76.6800   19.8300 N   0  0  0  0  0  0  0  0  0  0  0  0
   21.1370   77.1620   18.7550 C   0  0  0  0  0  0  0  0  0  0  0  0
   19.2500   74.0300    8.3180 H   0  0  0  0  0  0  0  0  0  0  0  0
   19.7920   75.4450   10.2140 H   0  0  0  0  0  0  0  0  0  0  0  0
   18.4070   78.8420    8.1010 H   0  0  0  0  0  0  0  0  0  0  0  0
   17.8440   77.4420    6.2180 H   0  0  0  0  0  0  0  0  0  0  0  0
   19.5860   76.4680   12.6130 H   0  0  0  0  0  0  0  0  0  0  0  0
   19.2440   78.1090   13.2560 H   0  0  0  0  0  0  0  0  0  0  0  0
   22.0020   76.8480   12.9960 H   0  0  0  0  0  0  0  0  0  0  0  0
   23.1890   79.5810   12.6040 H   0  0  0  0  0  0  0  0  0  0  0  0
   21.6570   80.4860   12.5450 H   0  0  0  0  0  0  0  0  0  0  0  0
   21.6220   79.4110   10.5050 H   0  0  0  0  0  0  0  0  0  0  0  0
   22.4060   77.9310   11.1580 H   0  0  0  0  0  0  0  0  0  0  0  0
   19.8960   78.8910   15.9710 H   0  0  0  0  0  0  0  0  0  0  0  0
   21.4810   76.7690   16.9630 H   0  0  0  0  0  0  0  0  0  0  0  0
   22.3340   79.6310   17.5940 H   0  0  0  0  0  0  0  0  0  0  0  0
   20.7340   80.3710   17.5120 H   0  0  0  0  0  0  0  0  0  0  0  0
   19.0990   77.6570   21.1980 H   0  0  0  0  0  0  0  0  0  0  0  0
   20.5880   75.7300   20.2010 H   0  0  0  0  0  0  0  0  0  0  0  0
   21.8300   76.6650   18.0890 H   0  0  0  0  0  0  0  0  0  0  0  0
  1  2  1  0  0  0  0
  2  3  1  0  0  0  0
  3 28  1  0  0  0  0
  3  4  2  0  0  0  0
  4  5  1  0  0  0  0
  4 29  1  0  0  0  0
  5  8  1  0  0  0  0
  6  5  2  0  0  0  0
  7  2  2  0  0  0  0
  7  6  1  0  0  0  0
  8 10  1  0  0  0  0
  9  8  2  0  0  0  0
 10 11  1  0  0  0  0
 11 33  1  0  0  0  0
 11 12  1  0  0  0  0
 12 34  1  6  0  0  0
 12 13  1  0  0  0  0
 12 20  1  0  0  0  0
 13 16  1  0  0  0  0
 14 13  1  0  0  0  0
 15 10  1  0  0  0  0
 15 14  1  0  0  0  0
 16 17  2  0  0  0  0
 16 18  1  0  0  0  0
 18 39  1  6  0  0  0
 18 22  1  0  0  0  0
 19 18  1  0  0  0  0
 19 40  1  0  0  0  0
 20 19  1  0  0  0  0
 21 20  2  0  0  0  0
 22 42  1  0  0  0  0
 22 41  1  0  0  0  0
 22 23  1  0  0  0  0
 23 27  2  0  0  0  0
 23 24  1  0  0  0  0
 24 25  2  0  0  0  0
 25 43  1  0  0  0  0
 26 44  1  0  0  0  0
 26 25  1  0  0  0  0
 27 26  1  0  0  0  0
 30  6  1  0  0  0  0
 31  7  1  0  0  0  0
 32 11  1  0  0  0  0
 35 14  1  0  0  0  0
 36 14  1  0  0  0  0
 37 15  1  0  0  0  0
 38 15  1  0  0  0  0
 45 27  1  0  0  0  0
M  END
>  <Pose>
1

>  <Score>
-7.40

$$$$
