
 OpenBabel03222202113D

 41 44  0  0  0  0  0  0  0  0999 V2000
   16.3090   70.0020   11.4970 Cl  0  0  0  0  0  0  0  0  0  0  0  0
   17.4670   71.1330   12.1730 C   0  0  0  0  0  0  0  0  0  0  0  0
   17.1070   72.4330   12.4450 C   0  0  0  0  0  0  0  0  0  0  0  0
   18.0320   73.2830   12.9700 N   0  0  0  0  0  0  0  0  0  0  0  0
   19.2710   72.8410   13.2110 C   0  0  0  0  0  0  0  0  0  0  0  0
   19.9970   73.8480   13.7220 N   0  0  0  0  0  0  0  0  0  0  0  0
   19.2340   74.9380   13.8130 C   0  0  0  0  0  0  0  0  0  0  0  0
   17.9690   74.5730   13.3280 C   0  0  0  0  0  0  0  0  0  0  0  0
   19.5890   76.2580   14.3040 C   0  0  0  0  0  0  0  0  0  0  0  0
   18.9080   77.2500   13.8520 O   0  0  0  0  0  0  0  0  0  0  0  0
   20.5880   76.5570   15.2100 N   0  0  0  0  0  0  0  0  0  0  0  0
   21.9320   76.9270   14.8350 C   0  0  0  0  0  0  0  0  0  0  0  0
   22.2040   78.3800   15.1600 C   0  0  0  0  0  0  0  0  0  0  0  0
   21.5230   78.7380   16.4490 C   0  0  0  0  0  0  0  0  0  0  0  0
   20.6840   77.9110   17.1450 C   0  0  0  0  0  0  0  0  0  0  0  0
   20.2970   78.6220   18.2360 N   0  0  0  0  0  0  0  0  0  0  0  0
   20.8460   79.8150   18.2360 N   0  0  0  0  0  0  0  0  0  0  0  0
   21.6200   79.9500   17.1520 C   0  0  0  0  0  0  0  0  0  0  0  0
   22.3150   80.9550   16.7980 O   0  0  0  0  0  0  0  0  0  0  0  0
   20.6820   80.8820   19.2350 C   0  0  0  0  0  0  0  0  0  0  0  0
   19.2210   81.2260   19.4170 C   0  0  0  0  0  0  0  0  0  0  0  0
   18.5370   80.2520   20.1350 O   0  0  0  0  0  0  0  0  0  0  0  0
   20.3590   76.5340   16.6750 C   0  0  0  0  0  0  0  0  0  0  0  0
   19.6670   71.5190   12.9440 C   0  0  0  0  0  0  0  0  0  0  0  0
   18.7460   70.6650   12.4200 C   0  0  0  0  0  0  0  0  0  0  0  0
   16.1100   72.7980   12.2540 H   0  0  0  0  0  0  0  0  0  0  0  0
   17.1040   75.2340   13.2620 H   0  0  0  0  0  0  0  0  0  0  0  0
   22.2330   76.7060   13.8240 H   0  0  0  0  0  0  0  0  0  0  0  0
   22.5940   76.2760   15.4990 H   0  0  0  0  0  0  0  0  0  0  0  0
   21.8980   79.0630   14.3680 H   0  0  0  0  0  0  0  0  0  0  0  0
   23.3200   78.4760   15.2650 H   0  0  0  0  0  0  0  0  0  0  0  0
   19.6430   78.2240   18.9530 H   0  0  0  0  0  0  0  0  0  0  0  0
   21.1720   81.7810   18.8090 H   0  0  0  0  0  0  0  0  0  0  0  0
   21.1610   80.6450   20.1820 H   0  0  0  0  0  0  0  0  0  0  0  0
   19.1900   82.1530   20.0240 H   0  0  0  0  0  0  0  0  0  0  0  0
   18.7220   81.3720   18.4530 H   0  0  0  0  0  0  0  0  0  0  0  0
   17.5700   80.2000   19.8700 H   0  0  0  0  0  0  0  0  0  0  0  0
   21.0100   75.7680   17.1290 H   0  0  0  0  0  0  0  0  0  0  0  0
   19.2780   76.3320   16.8120 H   0  0  0  0  0  0  0  0  0  0  0  0
   20.6910   71.2070   13.1590 H   0  0  0  0  0  0  0  0  0  0  0  0
   19.0360   69.6340   12.2050 H   0  0  0  0  0  0  0  0  0  0  0  0
  1  2  1  0  0  0  0
  2 25  1  0  0  0  0
  2  3  2  0  0  0  0
  3  4  1  0  0  0  0
  4  5  1  0  0  0  0
  4  8  1  0  0  0  0
  5  6  2  0  0  0  0
  6  7  1  0  0  0  0
  7  9  1  0  0  0  0
  8  7  2  0  0  0  0
  9 11  1  0  0  0  0
 10  9  2  0  0  0  0
 11 23  1  0  0  0  0
 12 13  1  0  0  0  0
 12 11  1  0  0  0  0
 12 29  1  0  0  0  0
 13 31  1  0  0  0  0
 13 14  1  0  0  0  0
 14 15  2  0  0  0  0
 14 18  1  0  0  0  0
 15 16  1  0  0  0  0
 16 17  1  0  0  0  0
 16 32  1  0  0  0  0
 17 20  1  0  0  0  0
 18 17  1  0  0  0  0
 19 18  2  0  0  0  0
 20 21  1  0  0  0  0
 20 34  1  0  0  0  0
 21 35  1  0  0  0  0
 21 22  1  0  0  0  0
 23 39  1  0  0  0  0
 23 38  1  0  0  0  0
 23 15  1  0  0  0  0
 24 40  1  0  0  0  0
 24  5  1  0  0  0  0
 25 24  2  0  0  0  0
 26  3  1  0  0  0  0
 27  8  1  0  0  0  0
 28 12  1  0  0  0  0
 30 13  1  0  0  0  0
 33 20  1  0  0  0  0
 36 21  1  0  0  0  0
 37 22  1  0  0  0  0
 41 25  1  0  0  0  0
M  END
>  <Pose>
1

>  <Score>
-6.56

$$$$
