
 OpenBabel03222202113D

 53 56  0  0  0  0  0  0  0  0999 V2000
   19.7700   77.7000   20.0770 Cl  0  0  0  0  0  0  0  0  0  0  0  0
   20.3360   78.6530   18.7060 C   0  0  0  0  0  0  0  0  0  0  0  0
   21.2270   78.0500   17.8280 C   0  0  0  0  0  0  0  0  0  0  0  0
   21.6820   78.7690   16.7600 C   0  0  0  0  0  0  0  0  0  0  0  0
   21.2330   80.0940   16.5880 C   0  0  0  0  0  0  0  0  0  0  0  0
   20.3570   80.6610   17.4670 C   0  0  0  0  0  0  0  0  0  0  0  0
   19.8860   79.9460   18.5550 C   0  0  0  0  0  0  0  0  0  0  0  0
   22.5980   78.1870   15.7500 C   0  0  0  0  0  0  0  0  0  0  0  0
   22.1560   78.2530   14.3930 N   0  0  0  0  0  0  0  0  0  0  0  0
   22.3820   79.3210   13.6010 C   0  0  0  0  0  0  0  0  0  0  0  0
   21.7750   79.0610   12.3950 C   0  0  0  0  0  0  0  0  0  0  0  0
   21.2110   77.8730   12.4870 N   0  0  0  0  0  0  0  0  0  0  0  0
   21.4330   77.3520   13.7200 C   0  0  0  0  0  0  0  0  0  0  0  0
   20.9010   76.1000   14.1780 N   0  0  0  0  0  0  0  0  0  0  0  0
   19.7490   76.1400   15.1020 C   0  0  0  0  0  0  0  0  0  0  0  0
   18.5870   75.3620   14.5750 C   0  0  0  0  0  0  0  0  0  0  0  0
   19.0140   74.3560   13.6310 N   0  0  0  0  0  0  0  0  0  0  0  0
   20.3120   73.7500   13.8460 C   0  0  0  0  0  0  0  0  0  0  0  0
   21.3870   74.8210   13.8050 C   0  0  0  0  0  0  0  0  0  0  0  0
   18.1830   73.9770   12.5420 C   0  0  0  0  0  0  0  0  0  0  0  0
   18.4050   74.4200   11.3940 O   0  0  0  0  0  0  0  0  0  0  0  0
   17.0390   73.0540   12.7320 C   0  0  0  0  0  0  0  0  0  0  0  0
   17.5430   71.6450   12.4330 C   0  0  0  0  0  0  0  0  0  0  0  0
   21.8650   80.0090   11.4190 N   0  0  0  0  0  0  0  0  0  0  0  0
   22.5200   81.1590   11.6140 C   0  0  0  0  0  0  0  0  0  0  0  0
   22.5750   82.0050   10.6790 O   0  0  0  0  0  0  0  0  0  0  0  0
   23.1250   81.4510   12.7720 N   0  0  0  0  0  0  0  0  0  0  0  0
   23.0520   80.5290   13.7610 C   0  0  0  0  0  0  0  0  0  0  0  0
   23.6140   80.7970   14.8460 O   0  0  0  0  0  0  0  0  0  0  0  0
   21.2220   79.7540   10.1320 C   0  0  0  0  0  0  0  0  0  0  0  0
   21.5470   77.0260   18.0310 H   0  0  0  0  0  0  0  0  0  0  0  0
   21.6030   80.6660   15.7270 H   0  0  0  0  0  0  0  0  0  0  0  0
   19.9900   81.6740   17.3710 H   0  0  0  0  0  0  0  0  0  0  0  0
   19.1890   80.3760   19.2660 H   0  0  0  0  0  0  0  0  0  0  0  0
   22.7790   77.1040   16.0260 H   0  0  0  0  0  0  0  0  0  0  0  0
   23.5850   78.6660   15.9160 H   0  0  0  0  0  0  0  0  0  0  0  0
   20.1170   75.7490   16.0710 H   0  0  0  0  0  0  0  0  0  0  0  0
   19.4120   77.2010   15.1990 H   0  0  0  0  0  0  0  0  0  0  0  0
   18.1120   74.8150   15.4370 H   0  0  0  0  0  0  0  0  0  0  0  0
   17.8160   76.0080   14.1030 H   0  0  0  0  0  0  0  0  0  0  0  0
   20.2960   73.3200   14.8910 H   0  0  0  0  0  0  0  0  0  0  0  0
   20.5410   72.9150   13.1790 H   0  0  0  0  0  0  0  0  0  0  0  0
   21.8060   74.8650   12.7840 H   0  0  0  0  0  0  0  0  0  0  0  0
   22.2320   74.4790   14.4830 H   0  0  0  0  0  0  0  0  0  0  0  0
   16.6880   73.0810   13.8000 H   0  0  0  0  0  0  0  0  0  0  0  0
   16.1650   73.3330   12.1330 H   0  0  0  0  0  0  0  0  0  0  0  0
   17.8070   71.0840   13.3520 H   0  0  0  0  0  0  0  0  0  0  0  0
   18.4480   71.6550   11.7910 H   0  0  0  0  0  0  0  0  0  0  0  0
   16.7630   71.0860   11.8610 H   0  0  0  0  0  0  0  0  0  0  0  0
   23.6250   82.3620   12.8820 H   0  0  0  0  0  0  0  0  0  0  0  0
   21.8240   80.2070    9.3140 H   0  0  0  0  0  0  0  0  0  0  0  0
   20.2200   80.2690   10.1810 H   0  0  0  0  0  0  0  0  0  0  0  0
   21.0360   78.6820    9.9890 H   0  0  0  0  0  0  0  0  0  0  0  0
  2  1  1  0  0  0  0
  3 31  1  0  0  0  0
  3  2  2  0  0  0  0
  4  3  1  0  0  0  0
  5  4  2  0  0  0  0
  5  6  1  0  0  0  0
  6  7  2  0  0  0  0
  7  2  1  0  0  0  0
  7 34  1  0  0  0  0
  8 36  1  0  0  0  0
  8 35  1  0  0  0  0
  8  4  1  0  0  0  0
  9  8  1  0  0  0  0
 10 28  1  0  0  0  0
 10  9  1  0  0  0  0
 11 12  1  0  0  0  0
 11 10  2  0  0  0  0
 12 13  2  0  0  0  0
 13 14  1  0  0  0  0
 13  9  1  0  0  0  0
 14 15  1  0  0  0  0
 15 38  1  0  0  0  0
 15 37  1  0  0  0  0
 16 15  1  0  0  0  0
 16 39  1  0  0  0  0
 17 18  1  0  0  0  0
 17 16  1  0  0  0  0
 18 41  1  0  0  0  0
 19 18  1  0  0  0  0
 19 14  1  0  0  0  0
 19 44  1  0  0  0  0
 20 22  1  0  0  0  0
 20 17  1  0  0  0  0
 21 20  2  0  0  0  0
 22 45  1  0  0  0  0
 23 22  1  0  0  0  0
 23 47  1  0  0  0  0
 24 25  1  0  0  0  0
 24 11  1  0  0  0  0
 25 27  1  0  0  0  0
 26 25  2  0  0  0  0
 27 50  1  0  0  0  0
 27 28  1  0  0  0  0
 28 29  2  0  0  0  0
 30 52  1  0  0  0  0
 30 24  1  0  0  0  0
 32  5  1  0  0  0  0
 33  6  1  0  0  0  0
 40 16  1  0  0  0  0
 42 18  1  0  0  0  0
 43 19  1  0  0  0  0
 46 22  1  0  0  0  0
 48 23  1  0  0  0  0
 49 23  1  0  0  0  0
 51 30  1  0  0  0  0
 53 30  1  0  0  0  0
M  END
>  <Pose>
1

>  <Score>
-7.23

$$$$
