
 OpenBabel03222202113D

 45 48  0  0  0  0  0  0  0  0999 V2000
   24.0820   80.0590   16.1430 Cl  0  0  0  0  0  0  0  0  0  0  0  0
   23.1100   79.7070   14.7080 C   0  0  0  0  0  0  0  0  0  0  0  0
   22.5400   78.4580   14.5870 C   0  0  0  0  0  0  0  0  0  0  0  0
   21.7800   78.1710   13.4740 C   0  0  0  0  0  0  0  0  0  0  0  0
   21.5840   79.1110   12.4850 C   0  0  0  0  0  0  0  0  0  0  0  0
   22.1760   80.3530   12.6490 C   0  0  0  0  0  0  0  0  0  0  0  0
   22.9410   80.6790   13.7440 C   0  0  0  0  0  0  0  0  0  0  0  0
   20.8020   78.8370   11.3230 N   0  0  0  0  0  0  0  0  0  0  0  0
   19.4980   78.8580   11.1920 N   0  0  0  0  0  0  0  0  0  0  0  0
   19.1620   78.5330    9.9090 C   0  0  0  0  0  0  0  0  0  0  0  0
   20.3250   78.3000    9.2100 C   0  0  0  0  0  0  0  0  0  0  0  0
   21.3470   78.5020   10.1410 C   0  0  0  0  0  0  0  0  0  0  0  0
   22.7380   77.4460   15.6290 C   0  0  0  0  0  0  0  0  0  0  0  0
   23.7710   76.7370   15.5210 O   0  0  0  0  0  0  0  0  0  0  0  0
   21.8120   77.2820   16.6940 N   0  0  0  0  0  0  0  0  0  0  0  0
   22.2140   77.6670   18.0300 C   0  0  0  0  0  0  0  0  0  0  0  0
   20.9470   78.0240   18.7850 C   0  0  0  0  0  0  0  0  0  0  0  0
   19.9240   78.6900   17.8910 C   0  0  0  0  0  0  0  0  0  0  0  0
   18.8680   79.1820   18.7460 N   0  0  0  0  0  0  0  0  0  0  0  0
   19.2310   80.4760   19.2030 C   0  0  0  0  0  0  0  0  0  0  0  0
   18.7810   81.1060   20.2120 O   0  0  0  0  0  0  0  0  0  0  0  0
   20.2250   80.9500   18.2900 N   0  0  0  0  0  0  0  0  0  0  0  0
   20.4500   79.9460   17.2990 C   0  0  0  0  0  0  0  0  0  0  0  0
   20.9860   80.1320   16.1730 O   0  0  0  0  0  0  0  0  0  0  0  0
   20.9240   82.2370   18.3200 C   0  0  0  0  0  0  0  0  0  0  0  0
   19.4170   77.7680   16.8220 C   0  0  0  0  0  0  0  0  0  0  0  0
   20.4780   76.7510   16.5310 C   0  0  0  0  0  0  0  0  0  0  0  0
   21.3060   77.2100   13.3190 H   0  0  0  0  0  0  0  0  0  0  0  0
   22.0260   81.0990   11.8730 H   0  0  0  0  0  0  0  0  0  0  0  0
   23.3950   81.6790   13.8350 H   0  0  0  0  0  0  0  0  0  0  0  0
   18.1800   78.4580    9.4640 H   0  0  0  0  0  0  0  0  0  0  0  0
   20.4250   78.0190    8.1620 H   0  0  0  0  0  0  0  0  0  0  0  0
   22.4020   78.4000    9.9230 H   0  0  0  0  0  0  0  0  0  0  0  0
   22.7210   76.8100   18.5180 H   0  0  0  0  0  0  0  0  0  0  0  0
   22.8450   78.5790   18.0070 H   0  0  0  0  0  0  0  0  0  0  0  0
   20.5120   77.1120   19.2400 H   0  0  0  0  0  0  0  0  0  0  0  0
   21.1750   78.7080   19.6270 H   0  0  0  0  0  0  0  0  0  0  0  0
   18.0010   78.6590   18.9730 H   0  0  0  0  0  0  0  0  0  0  0  0
   21.9770   82.1320   17.9610 H   0  0  0  0  0  0  0  0  0  0  0  0
   20.9120   82.6410   19.3470 H   0  0  0  0  0  0  0  0  0  0  0  0
   20.4380   82.9520   17.6310 H   0  0  0  0  0  0  0  0  0  0  0  0
   19.1960   78.3890   15.9270 H   0  0  0  0  0  0  0  0  0  0  0  0
   18.5070   77.2630   17.2100 H   0  0  0  0  0  0  0  0  0  0  0  0
   20.3680   75.9270   17.2900 H   0  0  0  0  0  0  0  0  0  0  0  0
   20.3440   76.2590   15.5400 H   0  0  0  0  0  0  0  0  0  0  0  0
  2  1  1  0  0  0  0
  3  2  1  0  0  0  0
  3 13  1  0  0  0  0
  4  3  2  0  0  0  0
  5  6  2  0  0  0  0
  5  4  1  0  0  0  0
  6  7  1  0  0  0  0
  7 30  1  0  0  0  0
  7  2  2  0  0  0  0
  8  5  1  0  0  0  0
  9  8  1  0  0  0  0
 10  9  2  0  0  0  0
 11 10  1  0  0  0  0
 11 12  2  0  0  0  0
 12  8  1  0  0  0  0
 13 15  1  0  0  0  0
 14 13  2  0  0  0  0
 15 16  1  0  0  0  0
 16 34  1  0  0  0  0
 16 17  1  0  0  0  0
 17 36  1  0  0  0  0
 17 37  1  0  0  0  0
 18 19  1  0  0  0  0
 18 17  1  0  0  0  0
 19 38  1  0  0  0  0
 19 20  1  0  0  0  0
 20 21  2  0  0  0  0
 22 25  1  0  0  0  0
 22 20  1  0  0  0  0
 23 18  1  0  0  0  0
 23 22  1  0  0  0  0
 24 23  2  0  0  0  0
 25 40  1  0  0  0  0
 26 43  1  0  0  0  0
 26 18  1  0  0  0  0
 27 15  1  0  0  0  0
 27 26  1  0  0  0  0
 27 44  1  0  0  0  0
 28  4  1  0  0  0  0
 29  6  1  0  0  0  0
 31 10  1  0  0  0  0
 32 11  1  0  0  0  0
 33 12  1  0  0  0  0
 35 16  1  0  0  0  0
 39 25  1  0  0  0  0
 41 25  1  0  0  0  0
 42 26  1  0  0  0  0
 45 27  1  0  0  0  0
M  END
>  <Pose>
1

>  <Score>
-5.94

$$$$
