
 OpenBabel03222202113D

 60 64  0  0  1  0  0  0  0  0999 V2000
   27.0220   82.9840   17.1170 Cl  0  0  0  0  0  0  0  0  0  0  0  0
   26.0220   81.5970   16.6570 C   0  0  0  0  0  0  0  0  0  0  0  0
   26.5680   80.3370   16.6190 C   0  0  0  0  0  0  0  0  0  0  0  0
   25.7860   79.2480   16.2600 C   0  0  0  0  0  0  0  0  0  0  0  0
   24.4610   79.3510   15.9310 C   0  0  0  0  0  0  0  0  0  0  0  0
   23.9300   80.6490   15.9790 C   0  0  0  0  0  0  0  0  0  0  0  0
   24.6970   81.7370   16.3340 C   0  0  0  0  0  0  0  0  0  0  0  0
   23.9380   78.0350   15.6040 C   0  0  1  0  0  0  0  0  0  0  0  0
   22.8980   77.7120   16.5760 N   0  0  0  0  0  0  0  0  0  0  0  0
   21.6840   77.9150   15.8340 C   0  0  1  0  0  0  0  0  0  0  0  0
   22.0130   77.2620   14.5110 C   0  0  2  0  0  0  0  0  0  0  0  0
   23.3700   77.8750   14.2370 C   0  0  1  0  0  0  0  0  0  0  0  0
   23.0820   79.0810   13.4880 C   0  0  0  0  0  0  0  0  0  0  0  0
   23.8580   80.0400   13.2850 O   0  0  0  0  0  0  0  0  0  0  0  0
   21.7480   79.0190   13.0020 N   0  0  0  0  0  0  0  0  0  0  0  0
   21.1580   77.7850   13.4150 C   0  0  0  0  0  0  0  0  0  0  0  0
   20.1330   77.2030   12.9870 O   0  0  0  0  0  0  0  0  0  0  0  0
   21.0230   79.9940   12.2100 C   0  0  0  0  0  0  0  0  0  0  0  0
   20.5180   79.4230   10.9480 C   0  0  0  0  0  0  0  0  0  0  0  0
   21.4270   79.1840    9.9400 C   0  0  0  0  0  0  0  0  0  0  0  0
   20.9460   78.6460    8.7540 C   0  0  0  0  0  0  0  0  0  0  0  0
   19.6210   78.3600    8.5840 C   0  0  0  0  0  0  0  0  0  0  0  0
   18.7460   78.6120    9.6140 C   0  0  0  0  0  0  0  0  0  0  0  0
   19.1610   79.1450   10.8150 C   0  0  0  0  0  0  0  0  0  0  0  0
   22.7600   79.4800   10.1340 O   0  0  0  0  0  0  0  0  0  0  0  0
   23.8180   78.8920    9.4440 C   0  0  0  0  0  0  0  0  0  0  0  0
   20.5030   77.2590   16.5130 C   0  0  0  0  0  0  0  0  0  0  0  0
   20.8840   77.0730   17.9670 C   0  0  0  0  0  0  0  0  0  0  0  0
   19.9540   77.7890   18.8760 C   0  0  0  0  0  0  0  0  0  0  0  0
   19.3460   78.8150   18.4590 O   0  0  0  0  0  0  0  0  0  0  0  0
   19.7960   77.2690   20.1890 N   0  0  0  0  0  0  0  0  0  0  0  0
   25.0850   77.1110   15.7780 C   0  0  0  0  0  0  0  0  0  0  0  0
   25.1030   75.8560   15.6100 O   0  0  0  0  0  0  0  0  0  0  0  0
   26.1930   77.8880   16.1740 N   0  0  0  0  0  0  0  0  0  0  0  0
   28.0060   80.1730   16.9690 C   0  0  0  0  0  0  0  0  0  0  0  0
   22.8920   80.8060   15.7320 H   0  0  0  0  0  0  0  0  0  0  0  0
   24.2520   82.7270   16.3600 H   0  0  0  0  0  0  0  0  0  0  0  0
   23.0010   78.3220   17.4150 H   0  0  0  0  0  0  0  0  0  0  0  0
   21.4080   78.9530   15.6440 H   0  0  0  0  0  0  0  0  0  0  0  0
   22.0310   76.1680   14.5630 H   0  0  0  0  0  0  0  0  0  0  0  0
   23.9610   77.1900   13.5880 H   0  0  0  0  0  0  0  0  0  0  0  0
   20.1710   80.4080   12.7830 H   0  0  0  0  0  0  0  0  0  0  0  0
   21.7220   80.8500   12.0430 H   0  0  0  0  0  0  0  0  0  0  0  0
   21.6510   78.4550    7.9600 H   0  0  0  0  0  0  0  0  0  0  0  0
   19.2870   77.9350    7.6290 H   0  0  0  0  0  0  0  0  0  0  0  0
   17.6960   78.3890    9.4890 H   0  0  0  0  0  0  0  0  0  0  0  0
   18.4580   79.3440   11.6340 H   0  0  0  0  0  0  0  0  0  0  0  0
   24.7640   79.2950    9.8700 H   0  0  0  0  0  0  0  0  0  0  0  0
   23.7870   79.2470    8.3910 H   0  0  0  0  0  0  0  0  0  0  0  0
   23.7930   77.7970    9.5400 H   0  0  0  0  0  0  0  0  0  0  0  0
   20.2110   76.3110   16.0330 H   0  0  0  0  0  0  0  0  0  0  0  0
   19.6780   78.0120   16.5040 H   0  0  0  0  0  0  0  0  0  0  0  0
   20.9790   75.9950   18.2470 H   0  0  0  0  0  0  0  0  0  0  0  0
   21.8920   77.5150   18.0960 H   0  0  0  0  0  0  0  0  0  0  0  0
   20.1270   77.8410   20.9840 H   0  0  0  0  0  0  0  0  0  0  0  0
   19.3480   76.3220   20.2770 H   0  0  0  0  0  0  0  0  0  0  0  0
   27.1570   77.5050   16.3710 H   0  0  0  0  0  0  0  0  0  0  0  0
   28.6150   80.0140   16.0670 H   0  0  0  0  0  0  0  0  0  0  0  0
   28.3770   81.0410   17.5130 H   0  0  0  0  0  0  0  0  0  0  0  0
   28.1610   79.2610   17.6120 H   0  0  0  0  0  0  0  0  0  0  0  0
  2  1  1  0  0  0  0
  3  2  1  0  0  0  0
  3 35  1  0  0  0  0
  4  3  2  0  0  0  0
  5  6  2  0  0  0  0
  5  4  1  0  0  0  0
  6  7  1  0  0  0  0
  7 37  1  0  0  0  0
  7  2  2  0  0  0  0
  8 32  1  1  0  0  0
  8  5  1  0  0  0  0
  8  9  1  0  0  0  0
  9 38  1  0  0  0  0
 10 39  1  6  0  0  0
 10 27  1  0  0  0  0
 10  9  1  0  0  0  0
 11 40  1  1  0  0  0
 11 10  1  0  0  0  0
 12 41  1  6  0  0  0
 12 11  1  0  0  0  0
 12  8  1  0  0  0  0
 13 12  1  0  0  0  0
 14 13  2  0  0  0  0
 15 16  1  0  0  0  0
 15 13  1  0  0  0  0
 16 11  1  0  0  0  0
 17 16  2  0  0  0  0
 18 42  1  0  0  0  0
 18 15  1  0  0  0  0
 19 18  1  0  0  0  0
 20 25  1  0  0  0  0
 20 19  2  0  0  0  0
 21 20  1  0  0  0  0
 22 21  2  0  0  0  0
 22 23  1  0  0  0  0
 23 24  2  0  0  0  0
 24 19  1  0  0  0  0
 24 47  1  0  0  0  0
 26 50  1  0  0  0  0
 26 48  1  0  0  0  0
 26 25  1  0  0  0  0
 27 28  1  0  0  0  0
 28 54  1  0  0  0  0
 28 53  1  0  0  0  0
 28 29  1  0  0  0  0
 29 31  1  0  0  0  0
 30 29  2  0  0  0  0
 31 56  1  0  0  0  0
 31 55  1  0  0  0  0
 32 34  1  0  0  0  0
 33 32  2  0  0  0  0
 34  4  1  0  0  0  0
 34 57  1  0  0  0  0
 35 59  1  0  0  0  0
 35 60  1  0  0  0  0
 36  6  1  0  0  0  0
 43 18  1  0  0  0  0
 44 21  1  0  0  0  0
 45 22  1  0  0  0  0
 46 23  1  0  0  0  0
 49 26  1  0  0  0  0
 51 27  1  0  0  0  0
 52 27  1  0  0  0  0
 58 35  1  0  0  0  0
M  END
>  <Pose>
1

>  <Score>
-5.29

$$$$
