
 OpenBabel03222202113D

 42 45  0  0  1  0  0  0  0  0999 V2000
   20.6340   77.2390   18.6240 Cl  0  0  0  0  0  0  0  0  0  0  0  0
   20.7440   77.0610   16.8860 C   0  0  0  0  0  0  0  0  0  0  0  0
   21.7820   77.5940   16.1580 C   0  0  0  0  0  0  0  0  0  0  0  0
   21.8940   77.4710   14.7790 C   0  0  0  0  0  0  0  0  0  0  0  0
   20.8860   76.7660   14.1290 C   0  0  0  0  0  0  0  0  0  0  0  0
   19.8360   76.2220   14.8340 C   0  0  0  0  0  0  0  0  0  0  0  0
   19.7680   76.3710   16.2030 C   0  0  0  0  0  0  0  0  0  0  0  0
   23.0330   78.0640   14.0340 C   0  0  1  0  0  0  0  0  0  0  0  0
   22.7170   79.3030   13.3820 N   0  0  0  0  0  0  0  0  0  0  0  0
   23.1160   80.4080   14.1870 C   0  0  0  0  0  0  0  0  0  0  0  0
   22.7570   81.6160   14.0660 O   0  0  0  0  0  0  0  0  0  0  0  0
   24.0470   79.8990   15.2160 C   0  0  0  0  0  0  0  0  0  0  0  0
   24.5930   80.5960   16.1000 O   0  0  0  0  0  0  0  0  0  0  0  0
   24.1520   78.4700   14.9540 C   0  0  0  0  0  0  0  0  0  0  0  0
   25.0700   77.6920   15.4870 C   0  0  0  0  0  0  0  0  0  0  0  0
   25.0050   76.3190   15.1740 O   0  0  0  0  0  0  0  0  0  0  0  0
   26.1360   78.1570   16.3640 C   0  0  0  0  0  0  0  0  0  0  0  0
   27.4690   78.0580   15.9430 C   0  0  0  0  0  0  0  0  0  0  0  0
   28.4960   78.5160   16.7400 C   0  0  0  0  0  0  0  0  0  0  0  0
   28.2720   79.0890   17.9740 C   0  0  0  0  0  0  0  0  0  0  0  0
   26.9690   79.1960   18.4050 C   0  0  0  0  0  0  0  0  0  0  0  0
   25.9310   78.7310   17.5970 C   0  0  0  0  0  0  0  0  0  0  0  0
   22.0950   79.4280   12.1210 C   0  0  1  0  0  0  0  0  0  0  0  0
   20.9800   80.2060   12.0830 N   0  0  0  0  0  0  0  0  0  0  0  0
   20.3030   80.4040   10.9530 C   0  0  0  0  0  0  0  0  0  0  0  0
   20.7620   79.7980    9.8060 C   0  0  0  0  0  0  0  0  0  0  0  0
   21.8950   79.0150    9.8690 C   0  0  0  0  0  0  0  0  0  0  0  0
   22.5720   78.8190   11.0140 N   0  0  0  0  0  0  0  0  0  0  0  0
   22.5330   78.1340   16.7170 H   0  0  0  0  0  0  0  0  0  0  0  0
   20.9580   76.6640   13.0500 H   0  0  0  0  0  0  0  0  0  0  0  0
   19.0400   75.6650   14.3170 H   0  0  0  0  0  0  0  0  0  0  0  0
   18.9400   75.9390   16.7470 H   0  0  0  0  0  0  0  0  0  0  0  0
   23.3730   77.2970   13.3050 H   0  0  0  0  0  0  0  0  0  0  0  0
   27.6390   77.6070   14.9690 H   0  0  0  0  0  0  0  0  0  0  0  0
   29.5090   78.4180   16.3740 H   0  0  0  0  0  0  0  0  0  0  0  0
   29.0620   79.4570   18.6140 H   0  0  0  0  0  0  0  0  0  0  0  0
   26.7660   79.6470   19.3840 H   0  0  0  0  0  0  0  0  0  0  0  0
   24.9090   78.8550   17.9680 H   0  0  0  0  0  0  0  0  0  0  0  0
   20.6220   80.6780   12.9580 H   0  0  0  0  0  0  0  0  0  0  0  0
   19.4180   81.0280   10.9660 H   0  0  0  0  0  0  0  0  0  0  0  0
   20.2190   79.9520    8.8830 H   0  0  0  0  0  0  0  0  0  0  0  0
   22.2160   78.5630    8.9410 H   0  0  0  0  0  0  0  0  0  0  0  0
  2  1  1  0  0  0  0
  3 29  1  0  0  0  0
  3  2  2  0  0  0  0
  4  3  1  0  0  0  0
  5  4  2  0  0  0  0
  5  6  1  0  0  0  0
  6  7  2  0  0  0  0
  7 32  1  0  0  0  0
  7  2  1  0  0  0  0
  8 33  1  6  0  0  0
  8  4  1  0  0  0  0
  8 14  1  0  0  0  0
  9  8  1  0  0  0  0
  9 10  1  0  0  0  0
 10 12  1  0  0  0  0
 11 10  2  0  0  0  0
 12 13  2  0  0  0  0
 14 12  1  0  0  0  0
 14 15  2  0  0  0  0
 15 17  1  0  0  0  0
 16 15  1  0  0  0  0
 17 22  1  0  0  0  0
 18 17  2  0  0  0  0
 18 19  1  0  0  0  0
 19 20  2  0  0  0  0
 20 21  1  0  0  0  0
 20 36  1  0  0  0  0
 21 37  1  0  0  0  0
 22 38  1  0  0  0  0
 22 21  2  0  0  0  0
 23  9  1  6  0  0  0
 24 23  1  0  0  0  0
 24 39  1  0  0  0  0
 25 40  1  0  0  0  0
 25 24  1  0  0  0  0
 26 27  1  0  0  0  0
 26 25  2  0  0  0  0
 27 28  2  0  0  0  0
 28 23  1  0  0  0  0
 30  5  1  0  0  0  0
 31  6  1  0  0  0  0
 34 18  1  0  0  0  0
 35 19  1  0  0  0  0
 41 26  1  0  0  0  0
 42 27  1  0  0  0  0
M  END
>  <Pose>
1

>  <Score>
-4.79

$$$$
