
 OpenBabel03222202113D

 44 47  0  0  0  0  0  0  0  0999 V2000
   19.7740   77.7040   19.4160 S   0  0  0  0  0  0  0  0  0  0  0  0
   18.9420   78.6810   20.0830 O   0  0  0  0  0  0  0  0  0  0  0  0
   20.4680   76.7990   20.3890 O   0  0  0  0  0  0  0  0  0  0  0  0
   18.8450   76.6510   18.2740 C   0  0  0  0  0  0  0  0  0  0  0  0
   21.0440   78.4540   18.4330 C   0  0  0  0  0  0  0  0  0  0  0  0
   22.2170   77.8210   18.3190 N   0  0  0  0  0  0  0  0  0  0  0  0
   23.2240   78.2360   17.5570 C   0  0  0  0  0  0  0  0  0  0  0  0
   23.0250   79.4160   16.8220 C   0  0  0  0  0  0  0  0  0  0  0  0
   21.8400   80.0520   16.9410 C   0  0  0  0  0  0  0  0  0  0  0  0
   20.8560   79.5680   17.7490 N   0  0  0  0  0  0  0  0  0  0  0  0
   21.6460   81.2250   16.2270 O   0  0  0  0  0  0  0  0  0  0  0  0
   24.1060   79.7560   15.8930 C   0  0  0  0  0  0  0  0  0  0  0  0
   24.3570   78.5630   15.1440 N   0  0  0  0  0  0  0  0  0  0  0  0
   25.2190   77.7420   16.1040 C   0  0  0  0  0  0  0  0  0  0  0  0
   24.5260   77.5350   17.4040 C   0  0  0  0  0  0  0  0  0  0  0  0
   23.2010   77.6130   14.9620 C   0  0  0  0  0  0  0  0  0  0  0  0
   22.6730   78.1310   13.6210 C   0  0  0  0  0  0  0  0  0  0  0  0
   21.5260   77.7650   13.0350 C   0  0  0  0  0  0  0  0  0  0  0  0
   21.0740   78.2750   11.7880 C   0  0  0  0  0  0  0  0  0  0  0  0
   21.9290   79.2140   11.2040 C   0  0  0  0  0  0  0  0  0  0  0  0
   21.5480   79.7400   10.0050 C   0  0  0  0  0  0  0  0  0  0  0  0
   20.3570   79.3960    9.3280 C   0  0  0  0  0  0  0  0  0  0  0  0
   19.5260   78.4510    9.9570 C   0  0  0  0  0  0  0  0  0  0  0  0
   19.9260   77.9340   11.1570 C   0  0  0  0  0  0  0  0  0  0  0  0
   23.0290   79.5820   11.7660 O   0  0  0  0  0  0  0  0  0  0  0  0
   23.4350   79.0810   12.9430 C   0  0  0  0  0  0  0  0  0  0  0  0
   24.5450   79.4500   13.4880 O   0  0  0  0  0  0  0  0  0  0  0  0
   20.5000   76.6470   13.8690 Cl  0  0  0  0  0  0  0  0  0  0  0  0
   19.6150   76.1910   17.5560 H   0  0  0  0  0  0  0  0  0  0  0  0
   18.2030   77.3230   17.6350 H   0  0  0  0  0  0  0  0  0  0  0  0
   18.2510   75.8950   18.7920 H   0  0  0  0  0  0  0  0  0  0  0  0
   21.5330   81.2620   15.2080 H   0  0  0  0  0  0  0  0  0  0  0  0
   23.9670   80.6960   15.3110 H   0  0  0  0  0  0  0  0  0  0  0  0
   25.0590   79.9130   16.5470 H   0  0  0  0  0  0  0  0  0  0  0  0
   25.4230   76.7800   15.5360 H   0  0  0  0  0  0  0  0  0  0  0  0
   26.1320   78.3240   16.1850 H   0  0  0  0  0  0  0  0  0  0  0  0
   24.3450   76.4100   17.4620 H   0  0  0  0  0  0  0  0  0  0  0  0
   25.2090   77.7640   18.2250 H   0  0  0  0  0  0  0  0  0  0  0  0
   23.5170   76.5940   14.8560 H   0  0  0  0  0  0  0  0  0  0  0  0
   22.4920   77.8610   15.7580 H   0  0  0  0  0  0  0  0  0  0  0  0
   22.1230   80.5060    9.4870 H   0  0  0  0  0  0  0  0  0  0  0  0
   20.0890   79.8340    8.3450 H   0  0  0  0  0  0  0  0  0  0  0  0
   18.6340   78.2290    9.4590 H   0  0  0  0  0  0  0  0  0  0  0  0
   19.3390   77.1320   11.6350 H   0  0  0  0  0  0  0  0  0  0  0  0
  1  2  2  0  0  0  0
  1  3  2  0  0  0  0
  4 31  1  0  0  0  0
  4  1  1  0  0  0  0
  5  1  1  0  0  0  0
  6  5  2  0  0  0  0
  7  6  1  0  0  0  0
  8  9  1  0  0  0  0
  8  7  2  0  0  0  0
  9 10  2  0  0  0  0
 10  5  1  0  0  0  0
 11  9  1  0  0  0  0
 12 34  1  0  0  0  0
 12  8  1  0  0  0  0
 13 12  1  0  0  0  0
 13 14  1  0  0  0  0
 14 36  1  0  0  0  0
 14 15  1  0  0  0  0
 15 37  1  0  0  0  0
 15  7  1  0  0  0  0
 15 38  1  0  0  0  0
 16 13  1  0  0  0  0
 16 40  1  0  0  0  0
 17 16  1  0  0  0  0
 18 17  2  0  0  0  0
 18 28  1  0  0  0  0
 19 18  1  0  0  0  0
 20 25  1  0  0  0  0
 20 19  1  0  0  0  0
 21 20  2  0  0  0  0
 22 23  2  0  0  0  0
 22 21  1  0  0  0  0
 23 24  1  0  0  0  0
 24 44  1  0  0  0  0
 24 19  2  0  0  0  0
 25 26  1  0  0  0  0
 26 27  2  0  0  0  0
 26 17  1  0  0  0  0
 29  4  1  0  0  0  0
 30  4  1  0  0  0  0
 32 11  1  0  0  0  0
 33 12  1  0  0  0  0
 35 14  1  0  0  0  0
 39 16  1  0  0  0  0
 41 21  1  0  0  0  0
 42 22  1  0  0  0  0
 43 23  1  0  0  0  0
M  END
>  <Pose>
1

>  <Score>
-5.94

$$$$
