
 OpenBabel03222202113D

 63 64  0  0  1  0  0  0  0  0999 V2000
   22.8220   78.7810   17.0700 S   0  0  0  0  0  0  0  0  0  0  0  0
   23.4750   77.5070   17.4970 O   0  0  0  0  0  0  0  0  0  0  0  0
   23.7250   79.9710   17.2720 O   0  0  0  0  0  0  0  0  0  0  0  0
   22.3720   78.7450   15.3780 C   0  0  0  0  0  0  0  0  0  0  0  0
   22.2830   79.9110   14.6290 C   0  0  1  0  0  0  0  0  0  0  0  0
   21.9290   79.8430   13.3170 N   0  0  0  0  0  0  0  0  0  0  0  0
   21.6560   78.6870   12.6990 C   0  0  0  0  0  0  0  0  0  0  0  0
   21.7420   77.5540   13.4180 N   0  0  0  0  0  0  0  0  0  0  0  0
   22.0870   77.5690   14.7170 C   0  0  0  0  0  0  0  0  0  0  0  0
   21.2810   78.6180   11.3250 N   0  0  0  0  0  0  0  0  0  0  0  0
   22.1710   78.1150   10.3080 C   0  0  0  0  0  0  0  0  0  0  0  0
   21.5980   77.0000    9.4790 C   0  0  0  0  0  0  0  0  0  0  0  0
   20.0790   77.0290    9.4490 C   0  0  2  0  0  0  0  0  0  0  0  0
   19.7470   78.5300    9.5060 C   0  0  0  0  0  0  0  0  0  0  0  0
   19.9710   79.0620   10.8820 C   0  0  0  0  0  0  0  0  0  0  0  0
   19.4550   76.3880   10.5060 N   0  0  0  0  0  0  0  0  0  0  0  0
   18.7840   75.1580   10.3450 C   0  0  0  0  0  0  0  0  0  0  0  0
   18.9380   74.3790   11.6630 C   0  0  0  0  0  0  0  0  0  0  0  0
   19.1930   75.3750   12.7610 C   0  0  0  0  0  0  0  0  0  0  0  0
   18.3670   76.6270   12.6100 C   0  0  0  0  0  0  0  0  0  0  0  0
   18.5720   77.2530   11.2400 C   0  0  0  0  0  0  0  0  0  0  0  0
   19.6440   76.5740    8.1090 C   0  0  0  0  0  0  0  0  0  0  0  0
   20.2120   77.0180    7.0540 O   0  0  0  0  0  0  0  0  0  0  0  0
   18.6110   75.6530    7.9040 N   0  0  0  0  0  0  0  0  0  0  0  0
   22.5690   81.1230   15.2830 N   0  0  0  0  0  0  0  0  0  0  0  0
   21.3500   79.0610   18.0120 C   0  0  0  0  0  0  0  0  0  0  0  0
   20.3450   78.1150   18.0200 C   0  0  0  0  0  0  0  0  0  0  0  0
   19.2160   78.3740   18.7680 C   0  0  0  0  0  0  0  0  0  0  0  0
   19.0780   79.5510   19.4980 C   0  0  0  0  0  0  0  0  0  0  0  0
   20.1040   80.4710   19.4640 C   0  0  0  0  0  0  0  0  0  0  0  0
   21.2460   80.2400   18.7250 C   0  0  0  0  0  0  0  0  0  0  0  0
   19.9460   81.9730   20.3860 Cl  0  0  0  0  0  0  0  0  0  0  0  0
   20.5160   76.9710   17.2910 O   0  0  0  0  0  0  0  0  0  0  0  0
   19.6660   76.5230   16.2720 C   0  0  0  0  0  0  0  0  0  0  0  0
   22.1570   76.6430   15.3070 H   0  0  0  0  0  0  0  0  0  0  0  0
   22.4240   79.0140    9.6690 H   0  0  0  0  0  0  0  0  0  0  0  0
   23.1600   77.8180   10.7360 H   0  0  0  0  0  0  0  0  0  0  0  0
   21.9240   77.1970    8.4340 H   0  0  0  0  0  0  0  0  0  0  0  0
   21.9940   76.0030    9.7350 H   0  0  0  0  0  0  0  0  0  0  0  0
   18.8020   78.7830    9.0300 H   0  0  0  0  0  0  0  0  0  0  0  0
   20.5310   79.0410    8.8590 H   0  0  0  0  0  0  0  0  0  0  0  0
   19.2090   78.8060   11.6290 H   0  0  0  0  0  0  0  0  0  0  0  0
   20.0620   80.1930   10.8470 H   0  0  0  0  0  0  0  0  0  0  0  0
   17.6640   75.3130   10.2830 H   0  0  0  0  0  0  0  0  0  0  0  0
   19.1200   74.4950    9.5610 H   0  0  0  0  0  0  0  0  0  0  0  0
   18.0360   73.7600   11.8680 H   0  0  0  0  0  0  0  0  0  0  0  0
   19.8370   73.7030   11.5550 H   0  0  0  0  0  0  0  0  0  0  0  0
   20.2730   75.6850   12.7360 H   0  0  0  0  0  0  0  0  0  0  0  0
   18.9470   74.9590   13.7680 H   0  0  0  0  0  0  0  0  0  0  0  0
   18.6910   77.3290   13.4200 H   0  0  0  0  0  0  0  0  0  0  0  0
   17.3130   76.3890   12.8290 H   0  0  0  0  0  0  0  0  0  0  0  0
   18.8260   78.3020   11.2840 H   0  0  0  0  0  0  0  0  0  0  0  0
   17.5560   77.1550   10.7450 H   0  0  0  0  0  0  0  0  0  0  0  0
   18.7110   74.9590    7.1130 H   0  0  0  0  0  0  0  0  0  0  0  0
   17.7370   75.5640    8.4600 H   0  0  0  0  0  0  0  0  0  0  0  0
   23.3960   81.2640   15.8990 H   0  0  0  0  0  0  0  0  0  0  0  0
   21.9270   81.9320   15.1540 H   0  0  0  0  0  0  0  0  0  0  0  0
   18.4000   77.6560   18.8020 H   0  0  0  0  0  0  0  0  0  0  0  0
   18.1820   79.7090   20.0650 H   0  0  0  0  0  0  0  0  0  0  0  0
   22.0560   80.9860   18.7110 H   0  0  0  0  0  0  0  0  0  0  0  0
   19.8620   77.1040   15.3550 H   0  0  0  0  0  0  0  0  0  0  0  0
   19.9400   75.4620   16.0330 H   0  0  0  0  0  0  0  0  0  0  0  0
   18.5990   76.5040   16.5500 H   0  0  0  0  0  0  0  0  0  0  0  0
  1  3  2  0  0  0  0
  1  2  2  0  0  0  0
  1 26  1  0  0  0  0
  4  1  1  0  0  0  0
  5 25  1  1  0  0  0
  5  4  1  0  0  0  0
  6  5  1  0  0  0  0
  7  6  2  0  0  0  0
  7  8  2  0  0  0  0
  8  9  1  0  0  0  0
  9 35  1  0  0  0  0
  9  4  2  0  0  0  0
 10  7  1  0  0  0  0
 11 37  1  0  0  0  0
 11 10  1  0  0  0  0
 12 39  1  0  0  0  0
 12 11  1  0  0  0  0
 13 22  1  6  0  0  0
 13 12  1  0  0  0  0
 13 14  1  0  0  0  0
 13 16  1  0  0  0  0
 15 42  1  0  0  0  0
 16 21  1  0  0  0  0
 17 16  1  0  0  0  0
 17 18  1  0  0  0  0
 18 46  1  0  0  0  0
 18 19  1  0  0  0  0
 19 49  1  0  0  0  0
 20 19  1  0  0  0  0
 20 51  1  0  0  0  0
 20 50  1  0  0  0  0
 21 52  1  0  0  0  0
 21 20  1  0  0  0  0
 23 22  2  0  0  0  0
 24 22  1  0  0  0  0
 24 55  1  0  0  0  0
 25 56  1  0  0  0  0
 26 27  2  0  0  0  0
 26 31  1  0  0  0  0
 27 28  1  0  0  0  0
 28 58  1  0  0  0  0
 28 29  2  0  0  0  0
 29 59  1  0  0  0  0
 30 29  1  0  0  0  0
 30 32  1  0  0  0  0
 31 30  2  0  0  0  0
 33 27  1  0  0  0  0
 34 63  1  0  0  0  0
 34 33  1  0  0  0  0
 36 11  1  0  0  0  0
 38 12  1  0  0  0  0
 40 14  1  0  0  0  0
 41 14  1  0  0  0  0
 43 15  1  0  0  0  0
 44 17  1  0  0  0  0
 45 17  1  0  0  0  0
 47 18  1  0  0  0  0
 48 19  1  0  0  0  0
 53 21  1  0  0  0  0
 54 24  1  0  0  0  0
 57 25  1  0  0  0  0
 60 31  1  0  0  0  0
 61 34  1  0  0  0  0
 62 34  1  0  0  0  0
M  END
>  <Pose>
1

>  <Score>
-5.89

$$$$
