
 OpenBabel03222202113D

 52 55  0  0  0  0  0  0  0  0999 V2000
   17.7640   75.4380    6.5270 Cl  0  0  0  0  0  0  0  0  0  0  0  0
   18.6330   76.4560    7.6300 C   0  0  0  0  0  0  0  0  0  0  0  0
   19.4530   75.9850    8.6300 C   0  0  0  0  0  0  0  0  0  0  0  0
   20.1400   76.8130    9.4950 C   0  0  0  0  0  0  0  0  0  0  0  0
   20.0270   78.1750    9.3880 C   0  0  0  0  0  0  0  0  0  0  0  0
   19.1990   78.6370    8.3790 C   0  0  0  0  0  0  0  0  0  0  0  0
   18.5060   77.8280    7.5060 C   0  0  0  0  0  0  0  0  0  0  0  0
   20.7090   79.1180   10.2000 N   0  0  0  0  0  0  0  0  0  0  0  0
   21.0330   80.3440    9.8880 N   0  0  0  0  0  0  0  0  0  0  0  0
   21.6890   80.9690   10.8710 C   0  0  0  0  0  0  0  0  0  0  0  0
   21.8010   80.0620   11.9160 C   0  0  0  0  0  0  0  0  0  0  0  0
   21.1710   78.9110   11.4540 C   0  0  0  0  0  0  0  0  0  0  0  0
   21.1410   77.8750   12.2960 N   0  0  0  0  0  0  0  0  0  0  0  0
   21.6930   77.9440   13.5270 C   0  0  0  0  0  0  0  0  0  0  0  0
   22.3060   79.0400   14.0010 N   0  0  0  0  0  0  0  0  0  0  0  0
   22.3570   80.1160   13.1730 C   0  0  0  0  0  0  0  0  0  0  0  0
   22.9200   81.1650   13.5730 O   0  0  0  0  0  0  0  0  0  0  0  0
   22.9200   79.1160   15.3300 C   0  0  0  0  0  0  0  0  0  0  0  0
   22.6210   77.9260   16.1460 C   0  0  0  0  0  0  0  0  0  0  0  0
   23.4590   76.9650   16.0150 O   0  0  0  0  0  0  0  0  0  0  0  0
   21.5510   77.7540   17.0210 N   0  0  0  0  0  0  0  0  0  0  0  0
   20.1620   77.7980   16.5380 C   0  0  0  0  0  0  0  0  0  0  0  0
   19.5690   79.0400   17.2170 C   0  0  0  0  0  0  0  0  0  0  0  0
   19.7930   78.9900   18.6380 N   0  0  0  0  0  0  0  0  0  0  0  0
   20.4410   77.8060   19.1710 C   0  0  0  0  0  0  0  0  0  0  0  0
   21.7170   77.4930   18.4330 C   0  0  0  0  0  0  0  0  0  0  0  0
   19.4220   80.0600   19.4800 C   0  0  0  0  0  0  0  0  0  0  0  0
   18.3250   79.9400   20.1420 O   0  0  0  0  0  0  0  0  0  0  0  0
   20.1240   81.2290   19.6680 O   0  0  0  0  0  0  0  0  0  0  0  0
   19.5520   82.3230   20.4110 C   0  0  0  0  0  0  0  0  0  0  0  0
   19.8610   83.5800   19.6190 C   0  0  0  0  0  0  0  0  0  0  0  0
   19.5270   74.8850    8.6880 H   0  0  0  0  0  0  0  0  0  0  0  0
   20.7680   76.4030   10.2640 H   0  0  0  0  0  0  0  0  0  0  0  0
   19.0900   79.7300    8.2760 H   0  0  0  0  0  0  0  0  0  0  0  0
   17.8850   78.3000    6.7500 H   0  0  0  0  0  0  0  0  0  0  0  0
   22.0960   81.9630   10.9460 H   0  0  0  0  0  0  0  0  0  0  0  0
   21.6570   77.0790   14.2020 H   0  0  0  0  0  0  0  0  0  0  0  0
   22.4900   80.0060   15.8870 H   0  0  0  0  0  0  0  0  0  0  0  0
   23.9980   79.2820   15.1800 H   0  0  0  0  0  0  0  0  0  0  0  0
   19.6150   76.8850   16.8090 H   0  0  0  0  0  0  0  0  0  0  0  0
   20.1910   77.9970   15.4690 H   0  0  0  0  0  0  0  0  0  0  0  0
   18.5140   79.1070   16.9120 H   0  0  0  0  0  0  0  0  0  0  0  0
   20.0860   79.9440   16.7760 H   0  0  0  0  0  0  0  0  0  0  0  0
   19.7100   76.9880   19.1210 H   0  0  0  0  0  0  0  0  0  0  0  0
   20.7130   78.0220   20.2400 H   0  0  0  0  0  0  0  0  0  0  0  0
   21.8300   76.3670   18.5150 H   0  0  0  0  0  0  0  0  0  0  0  0
   22.6130   77.9830   18.8470 H   0  0  0  0  0  0  0  0  0  0  0  0
   18.4230   82.1900   20.4280 H   0  0  0  0  0  0  0  0  0  0  0  0
   19.9180   82.4160   21.4190 H   0  0  0  0  0  0  0  0  0  0  0  0
   19.0150   84.2610   19.5020 H   0  0  0  0  0  0  0  0  0  0  0  0
   20.7560   84.0530   20.1260 H   0  0  0  0  0  0  0  0  0  0  0  0
   20.2120   83.2850   18.6230 H   0  0  0  0  0  0  0  0  0  0  0  0
  1  2  1  0  0  0  0
  2  3  1  0  0  0  0
  3 32  1  0  0  0  0
  3  4  2  0  0  0  0
  4 33  1  0  0  0  0
  5  4  1  0  0  0  0
  5  8  1  0  0  0  0
  6  5  2  0  0  0  0
  7  2  2  0  0  0  0
  7  6  1  0  0  0  0
  8 12  1  0  0  0  0
  9  8  1  0  0  0  0
  9 10  2  0  0  0  0
 10 36  1  0  0  0  0
 10 11  1  0  0  0  0
 11 16  1  0  0  0  0
 12 11  2  0  0  0  0
 12 13  1  0  0  0  0
 13 14  2  0  0  0  0
 14 15  1  0  0  0  0
 14 37  1  0  0  0  0
 15 18  1  0  0  0  0
 16 17  2  0  0  0  0
 16 15  1  0  0  0  0
 18 38  1  0  0  0  0
 18 19  1  0  0  0  0
 19 21  1  0  0  0  0
 20 19  2  0  0  0  0
 21 26  1  0  0  0  0
 22 40  1  0  0  0  0
 22 21  1  0  0  0  0
 22 23  1  0  0  0  0
 23 24  1  0  0  0  0
 24 25  1  0  0  0  0
 24 27  1  0  0  0  0
 25 45  1  0  0  0  0
 26 46  1  0  0  0  0
 26 47  1  0  0  0  0
 26 25  1  0  0  0  0
 27 29  1  0  0  0  0
 27 28  2  0  0  0  0
 29 30  1  0  0  0  0
 30 48  1  0  0  0  0
 30 49  1  0  0  0  0
 31 51  1  0  0  0  0
 31 30  1  0  0  0  0
 34  6  1  0  0  0  0
 35  7  1  0  0  0  0
 39 18  1  0  0  0  0
 41 22  1  0  0  0  0
 42 23  1  0  0  0  0
 43 23  1  0  0  0  0
 44 25  1  0  0  0  0
 50 31  1  0  0  0  0
 52 31  1  0  0  0  0
M  END
>  <Pose>
1

>  <Score>
-7.29

$$$$
