
 OpenBabel03222202113D

 54 58  0  0  1  0  0  0  0  0999 V2000
   22.7750   80.1310   15.6930 S   0  0  0  0  0  0  0  0  0  0  0  0
   22.2320   81.4410   16.2500 O   0  0  0  0  0  0  0  0  0  0  0  0
   24.2550   80.1590   16.0760 O   0  0  0  0  0  0  0  0  0  0  0  0
   22.0540   78.8720   16.5390 N   0  0  0  0  0  0  0  0  0  0  0  0
   20.6190   78.9030   16.6480 C   0  0  0  0  0  0  0  0  0  0  0  0
   20.0070   77.5540   16.3470 C   0  0  0  0  0  0  0  0  0  0  0  0
   20.4640   77.0750   15.0180 N   0  0  0  0  0  0  0  0  0  0  0  0
   21.9030   76.8690   15.0990 C   0  0  0  0  0  0  0  0  0  0  0  0
   22.5360   77.5460   16.3020 C   0  0  0  0  0  0  0  0  0  0  0  0
   19.8000   75.7980   14.8670 C   0  0  0  0  0  0  0  0  0  0  0  0
   19.6140   75.2760   13.5070 C   0  0  0  0  0  0  0  0  0  0  0  0
   19.1960   73.9290   13.3160 N   0  0  0  0  0  0  0  0  0  0  0  0
   17.9800   73.3960   12.8030 C   0  0  0  0  0  0  0  0  0  0  0  0
   16.8810   73.9710   12.8230 O   0  0  0  0  0  0  0  0  0  0  0  0
   18.2450   72.0480   12.2470 C   0  0  1  0  0  0  0  0  0  0  0  0
   19.4180   71.6010   13.1480 C   0  0  2  0  0  0  0  0  0  0  0  0
   18.8130   70.7410   14.1930 C   0  0  1  0  0  0  0  0  0  0  0  0
   17.3540   71.2280   14.2070 C   0  0  0  0  0  0  0  0  0  0  0  0
   17.1920   71.0940   12.6830 C   0  0  2  0  0  0  0  0  0  0  0  0
   17.7590   69.7150   12.5080 C   0  0  0  0  0  0  0  0  0  0  0  0
   18.5460   69.4020   13.5370 C   0  0  0  0  0  0  0  0  0  0  0  0
   20.0720   72.8180   13.6090 C   0  0  0  0  0  0  0  0  0  0  0  0
   21.2000   72.8580   14.1610 O   0  0  0  0  0  0  0  0  0  0  0  0
   22.6940   80.0820   13.9780 C   0  0  0  0  0  0  0  0  0  0  0  0
   22.5480   78.8880   13.3140 C   0  0  0  0  0  0  0  0  0  0  0  0
   22.4760   78.8880   11.9330 C   0  0  0  0  0  0  0  0  0  0  0  0
   22.5460   80.0490   11.1850 C   0  0  0  0  0  0  0  0  0  0  0  0
   22.6920   81.2460   11.8560 C   0  0  0  0  0  0  0  0  0  0  0  0
   22.7640   81.2450   13.2450 C   0  0  0  0  0  0  0  0  0  0  0  0
   22.4490   80.0510    9.2810 B   0  0  0  0  0  0  0  0  0  0  0  0
   20.3740   79.1220   17.7130 H   0  0  0  0  0  0  0  0  0  0  0  0
   20.1930   79.6980   16.0360 H   0  0  0  0  0  0  0  0  0  0  0  0
   18.9130   77.6740   16.2660 H   0  0  0  0  0  0  0  0  0  0  0  0
   20.2200   76.7870   17.1130 H   0  0  0  0  0  0  0  0  0  0  0  0
   22.3730   77.3540   14.2270 H   0  0  0  0  0  0  0  0  0  0  0  0
   22.0850   75.7790   15.1060 H   0  0  0  0  0  0  0  0  0  0  0  0
   23.6240   77.5470   16.2490 H   0  0  0  0  0  0  0  0  0  0  0  0
   22.2530   76.9390   17.1910 H   0  0  0  0  0  0  0  0  0  0  0  0
   18.7610   75.8740   15.3230 H   0  0  0  0  0  0  0  0  0  0  0  0
   20.2940   75.0490   15.5650 H   0  0  0  0  0  0  0  0  0  0  0  0
   18.8220   75.9380   13.0210 H   0  0  0  0  0  0  0  0  0  0  0  0
   20.5470   75.5120   12.9230 H   0  0  0  0  0  0  0  0  0  0  0  0
   18.5020   72.0440   11.1920 H   0  0  0  0  0  0  0  0  0  0  0  0
   20.1120   70.9510   12.5420 H   0  0  0  0  0  0  0  0  0  0  0  0
   19.2680   70.6960   15.1530 H   0  0  0  0  0  0  0  0  0  0  0  0
   16.6880   70.5370   14.7360 H   0  0  0  0  0  0  0  0  0  0  0  0
   17.2510   72.2740   14.4800 H   0  0  0  0  0  0  0  0  0  0  0  0
   16.1990   71.2260   12.3250 H   0  0  0  0  0  0  0  0  0  0  0  0
   17.5860   69.0310   11.6840 H   0  0  0  0  0  0  0  0  0  0  0  0
   18.9030   68.4330   13.8310 H   0  0  0  0  0  0  0  0  0  0  0  0
   22.4850   77.9310   13.8560 H   0  0  0  0  0  0  0  0  0  0  0  0
   22.3600   77.9400   11.4090 H   0  0  0  0  0  0  0  0  0  0  0  0
   22.7460   82.1440   11.2610 H   0  0  0  0  0  0  0  0  0  0  0  0
   22.8750   82.2240   13.6880 H   0  0  0  0  0  0  0  0  0  0  0  0
  1  3  2  0  0  0  0
  1  2  2  0  0  0  0
  1  4  1  0  0  0  0
  4  5  1  0  0  0  0
  5 31  1  0  0  0  0
  6  5  1  0  0  0  0
  6 34  1  0  0  0  0
  7  8  1  0  0  0  0
  7  6  1  0  0  0  0
  8 36  1  0  0  0  0
  8  9  1  0  0  0  0
  9  4  1  0  0  0  0
  9 38  1  0  0  0  0
 10  7  1  0  0  0  0
 10 39  1  0  0  0  0
 10 40  1  0  0  0  0
 11 10  1  0  0  0  0
 12 11  1  0  0  0  0
 12 22  1  0  0  0  0
 13 14  2  0  0  0  0
 13 12  1  0  0  0  0
 15 43  1  6  0  0  0
 15 19  1  0  0  0  0
 15 13  1  0  0  0  0
 15 16  1  0  0  0  0
 16 44  1  6  0  0  0
 16 22  1  0  0  0  0
 16 17  1  0  0  0  0
 17 18  1  0  0  0  0
 17 45  1  1  0  0  0
 18 47  1  0  0  0  0
 18 46  1  0  0  0  0
 19 48  1  6  0  0  0
 19 18  1  0  0  0  0
 20 19  1  0  0  0  0
 20 21  1  0  0  0  0
 21 50  1  0  0  0  0
 21 17  1  0  0  0  0
 22 23  2  0  0  0  0
 24  1  1  0  0  0  0
 25 51  1  0  0  0  0
 25 24  1  0  0  0  0
 26 25  2  0  0  0  0
 27 28  2  0  0  0  0
 27 26  1  0  0  0  0
 28 29  1  0  0  0  0
 29 54  1  0  0  0  0
 29 24  2  0  0  0  0
 30 27  1  0  0  0  0
 32  5  1  0  0  0  0
 33  6  1  0  0  0  0
 35  8  1  0  0  0  0
 37  9  1  0  0  0  0
 41 11  1  0  0  0  0
 42 11  1  0  0  0  0
 49 20  1  0  0  0  0
 52 26  1  0  0  0  0
 53 28  1  0  0  0  0
M  END
>  <Pose>
1

>  <Score>
-5.75

$$$$
