
 OpenBabel03222202113D

 61 64  0  0  1  0  0  0  0  0999 V2000
   17.3170   71.4450   12.3330 B   0  0  0  0  0  0  0  0  0  0  0  0
   18.4370   72.8830   12.9600 C   0  0  0  0  0  0  0  0  0  0  0  0
   17.9880   74.1780   12.9800 C   0  0  0  0  0  0  0  0  0  0  0  0
   18.7540   75.2520   13.4210 C   0  0  0  0  0  0  0  0  0  0  0  0
   20.0330   75.0030   13.8650 C   0  0  0  0  0  0  0  0  0  0  0  0
   20.4750   73.6890   13.8400 C   0  0  0  0  0  0  0  0  0  0  0  0
   19.7170   72.6280   13.4030 C   0  0  0  0  0  0  0  0  0  0  0  0
   20.8920   76.0620   14.3740 C   0  0  0  0  0  0  0  0  0  0  0  0
   22.1330   75.9240   14.0900 O   0  0  0  0  0  0  0  0  0  0  0  0
   20.4570   77.2200   15.1550 C   0  0  2  0  0  0  0  0  0  0  0  0
   21.3550   78.4240   15.0590 C   0  0  1  0  0  0  0  0  0  0  0  0
   22.3180   78.2970   16.0600 N   0  0  0  0  0  0  0  0  0  0  0  0
   21.5150   77.7650   17.1870 C   0  0  0  0  0  0  0  0  0  0  0  0
   21.6890   77.9880   18.4160 O   0  0  0  0  0  0  0  0  0  0  0  0
   20.4800   76.9270   16.6060 C   0  0  0  0  0  0  0  0  0  0  0  0
   19.7500   76.1120   17.2390 O   0  0  0  0  0  0  0  0  0  0  0  0
   23.6810   78.6120   16.3550 C   0  0  0  0  0  0  0  0  0  0  0  0
   24.7210   77.9970   15.4980 C   0  0  0  0  0  0  0  0  0  0  0  0
   26.0620   77.9050   15.8920 N   0  0  0  0  0  4  0  0  0  0  0  0
   26.2790   76.9120   16.9530 C   0  0  0  0  0  0  0  0  0  0  0  0
   25.9580   75.5220   16.5170 C   0  0  0  0  0  0  0  0  0  0  0  0
   25.7150   75.5030   15.1620 O   0  0  0  0  0  0  0  0  0  0  0  0
   26.8350   76.0550   14.5190 C   0  0  0  0  0  0  0  0  0  0  0  0
   26.8990   77.5530   14.7310 C   0  0  0  0  0  0  0  0  0  0  0  0
   21.5540   78.9570   13.7350 C   0  0  0  0  0  0  0  0  0  0  0  0
   21.1960   78.3490   12.5730 C   0  0  0  0  0  0  0  0  0  0  0  0
   21.4150   78.9570   11.3470 C   0  0  0  0  0  0  0  0  0  0  0  0
   22.0190   80.2230   11.3090 C   0  0  0  0  0  0  0  0  0  0  0  0
   22.3780   80.8320   12.4780 C   0  0  0  0  0  0  0  0  0  0  0  0
   22.1610   80.2350   13.6800 C   0  0  0  0  0  0  0  0  0  0  0  0
   22.2610   80.8720   10.1150 O   0  0  0  0  0  0  0  0  0  0  0  0
   21.0670   78.3770   10.1690 O   0  0  0  0  0  0  0  0  0  0  0  0
   19.8470   78.5730    9.5300 C   0  0  0  0  0  0  0  0  0  0  0  0
   19.7360   77.8580    8.1950 C   0  0  0  0  0  0  0  0  0  0  0  0
   16.9750   74.3960   12.6320 H   0  0  0  0  0  0  0  0  0  0  0  0
   18.3230   76.2440   13.3810 H   0  0  0  0  0  0  0  0  0  0  0  0
   21.4900   73.4330   14.1840 H   0  0  0  0  0  0  0  0  0  0  0  0
   20.0820   71.6070   13.3910 H   0  0  0  0  0  0  0  0  0  0  0  0
   19.3960   77.5120   14.8640 H   0  0  0  0  0  0  0  0  0  0  0  0
   20.6190   79.2510   15.5860 H   0  0  0  0  0  0  0  0  0  0  0  0
   23.8620   79.7260   16.3210 H   0  0  0  0  0  0  0  0  0  0  0  0
   23.8830   78.2560   17.4100 H   0  0  0  0  0  0  0  0  0  0  0  0
   24.7230   78.4910   14.4580 H   0  0  0  0  0  0  0  0  0  0  0  0
   24.3910   76.9360   15.1880 H   0  0  0  0  0  0  0  0  0  0  0  0
   26.4320   78.7850   16.2440 H   0  0  0  0  0  0  0  0  0  0  0  0
   25.7510   77.2550   17.8490 H   0  0  0  0  0  0  0  0  0  0  0  0
   27.3740   76.9640   17.1720 H   0  0  0  0  0  0  0  0  0  0  0  0
   26.8030   74.8290   16.7260 H   0  0  0  0  0  0  0  0  0  0  0  0
   25.0310   75.2090   17.0550 H   0  0  0  0  0  0  0  0  0  0  0  0
   27.7760   75.6160   14.8540 H   0  0  0  0  0  0  0  0  0  0  0  0
   26.6710   75.8900   13.4300 H   0  0  0  0  0  0  0  0  0  0  0  0
   27.9280   77.9240   14.8930 H   0  0  0  0  0  0  0  0  0  0  0  0
   26.4760   78.1270   13.8810 H   0  0  0  0  0  0  0  0  0  0  0  0
   20.7460   77.3520   12.5390 H   0  0  0  0  0  0  0  0  0  0  0  0
   22.8520   81.8270   12.4450 H   0  0  0  0  0  0  0  0  0  0  0  0
   22.4590   80.7470   14.5890 H   0  0  0  0  0  0  0  0  0  0  0  0
   18.9910   78.2440   10.1650 H   0  0  0  0  0  0  0  0  0  0  0  0
   19.6570   79.6560    9.3270 H   0  0  0  0  0  0  0  0  0  0  0  0
   19.0640   76.9690    8.3290 H   0  0  0  0  0  0  0  0  0  0  0  0
   19.2650   78.5210    7.4560 H   0  0  0  0  0  0  0  0  0  0  0  0
   20.6970   77.4870    7.8420 H   0  0  0  0  0  0  0  0  0  0  0  0
  1  2  1  0  0  0  0
  2  3  2  0  0  0  0
  2  7  1  0  0  0  0
  3  4  1  0  0  0  0
  4  5  2  0  0  0  0
  5  8  1  0  0  0  0
  6  5  1  0  0  0  0
  6 37  1  0  0  0  0
  7  6  2  0  0  0  0
  8 10  1  0  0  0  0
  9  8  2  0  0  0  0
 10 39  1  6  0  0  0
 10 15  1  0  0  0  0
 11 10  1  0  0  0  0
 11 40  1  1  0  0  0
 11 12  1  0  0  0  0
 12 17  1  0  0  0  0
 12 13  1  0  0  0  0
 13 14  2  0  0  0  0
 15 13  1  0  0  0  0
 15 16  2  0  0  0  0
 17 42  1  0  0  0  0
 18 19  1  0  0  0  0
 18 17  1  0  0  0  0
 19 45  1  0  0  0  0
 19 20  1  0  0  0  0
 20 47  1  0  0  0  0
 20 46  1  0  0  0  0
 21 48  1  0  0  0  0
 21 20  1  0  0  0  0
 21 49  1  0  0  0  0
 22 21  1  0  0  0  0
 23 24  1  0  0  0  0
 23 50  1  0  0  0  0
 23 22  1  0  0  0  0
 24 52  1  0  0  0  0
 24 19  1  0  0  0  0
 25 11  1  0  0  0  0
 26 25  2  0  0  0  0
 27 26  1  0  0  0  0
 28 27  2  0  0  0  0
 28 29  1  0  0  0  0
 29 30  2  0  0  0  0
 30 25  1  0  0  0  0
 30 56  1  0  0  0  0
 31 28  1  0  0  0  0
 32 27  1  0  0  0  0
 33 57  1  0  0  0  0
 33 32  1  0  0  0  0
 34 59  1  0  0  0  0
 34 33  1  0  0  0  0
 35  3  1  0  0  0  0
 36  4  1  0  0  0  0
 38  7  1  0  0  0  0
 41 17  1  0  0  0  0
 43 18  1  0  0  0  0
 44 18  1  0  0  0  0
 51 23  1  0  0  0  0
 53 24  1  0  0  0  0
 54 26  1  0  0  0  0
 55 29  1  0  0  0  0
 58 33  1  0  0  0  0
 60 34  1  0  0  0  0
 61 34  1  0  0  0  0
M  END
>  <Pose>
1

>  <Score>
-5.57

$$$$
