
 OpenBabel03222202113D

 40 43  0  0  0  0  0  0  0  0999 V2000
   16.6530   70.3000   11.6990 Cl  0  0  0  0  0  0  0  0  0  0  0  0
   17.6630   71.5890   12.3530 C   0  0  0  0  0  0  0  0  0  0  0  0
   18.9440   71.3560   12.8070 C   0  0  0  0  0  0  0  0  0  0  0  0
   19.6900   72.4040   13.3090 C   0  0  0  0  0  0  0  0  0  0  0  0
   20.9490   72.4910   13.8180 N   0  0  0  0  0  0  0  0  0  0  0  0
   21.1910   73.7670   14.1680 C   0  0  0  0  0  0  0  0  0  0  0  0
   20.1130   74.5340   13.9000 N   0  0  0  0  0  0  0  0  0  0  0  0
   19.2030   73.6940   13.3760 C   0  0  0  0  0  0  0  0  0  0  0  0
   17.9260   73.9360   12.9250 C   0  0  0  0  0  0  0  0  0  0  0  0
   17.1860   72.8840   12.4250 C   0  0  0  0  0  0  0  0  0  0  0  0
   20.0060   75.9560   14.1440 C   0  0  0  0  0  0  0  0  0  0  0  0
   19.8260   76.2630   15.6150 C   0  0  0  0  0  0  0  0  0  0  0  0
   20.8220   77.2610   15.9900 N   0  0  0  0  0  0  0  0  0  0  0  0
   22.1300   77.0730   15.7040 C   0  0  0  0  0  0  0  0  0  0  0  0
   23.0940   77.9950   16.0450 C   0  0  0  0  0  0  0  0  0  0  0  0
   22.7070   79.2180   16.7380 C   0  0  0  0  0  0  0  0  0  0  0  0
   23.8370   79.9120   16.9360 N   0  0  0  0  0  0  0  0  0  0  0  0
   24.8880   79.2430   16.4370 N   0  0  0  0  0  0  0  0  0  0  0  0
   24.4610   78.0900   15.8980 C   0  0  0  0  0  0  0  0  0  0  0  0
   25.2130   77.2500   15.3520 O   0  0  0  0  0  0  0  0  0  0  0  0
   21.3590   79.3780   17.0140 C   0  0  0  0  0  0  0  0  0  0  0  0
   20.4920   78.3930   16.6280 C   0  0  0  0  0  0  0  0  0  0  0  0
   20.9330   80.5890   17.7070 C   0  0  0  0  0  0  0  0  0  0  0  0
   20.8390   81.6620   17.0580 O   0  0  0  0  0  0  0  0  0  0  0  0
   20.6340   80.5880   19.0430 O   0  0  0  0  0  0  0  0  0  0  0  0
   19.3400   80.2510   19.5160 C   0  0  0  0  0  0  0  0  0  0  0  0
   19.3330   70.3500   12.7580 H   0  0  0  0  0  0  0  0  0  0  0  0
   22.1170   74.0880   14.5950 H   0  0  0  0  0  0  0  0  0  0  0  0
   17.5450   74.9570   12.9810 H   0  0  0  0  0  0  0  0  0  0  0  0
   16.1820   73.0640   12.0680 H   0  0  0  0  0  0  0  0  0  0  0  0
   20.8980   76.5100   13.7830 H   0  0  0  0  0  0  0  0  0  0  0  0
   19.1330   76.3540   13.5960 H   0  0  0  0  0  0  0  0  0  0  0  0
   19.9870   75.3870   16.2510 H   0  0  0  0  0  0  0  0  0  0  0  0
   18.8050   76.6410   15.7760 H   0  0  0  0  0  0  0  0  0  0  0  0
   22.4330   76.1740   15.1930 H   0  0  0  0  0  0  0  0  0  0  0  0
   25.8690   79.6170   16.4900 H   0  0  0  0  0  0  0  0  0  0  0  0
   19.4250   78.5250   16.8500 H   0  0  0  0  0  0  0  0  0  0  0  0
   18.7260   79.9270   18.6420 H   0  0  0  0  0  0  0  0  0  0  0  0
   18.8620   81.1340   20.0080 H   0  0  0  0  0  0  0  0  0  0  0  0
   19.3870   79.3760   20.2030 H   0  0  0  0  0  0  0  0  0  0  0  0
  1  2  1  0  0  0  0
  2 10  2  0  0  0  0
  2  3  1  0  0  0  0
  3  4  2  0  0  0  0
  4  8  1  0  0  0  0
  4  5  1  0  0  0  0
  5  6  2  0  0  0  0
  6 28  1  0  0  0  0
  7 11  1  0  0  0  0
  7  6  1  0  0  0  0
  8  7  1  0  0  0  0
  9 29  1  0  0  0  0
  9  8  2  0  0  0  0
 10  9  1  0  0  0  0
 11 12  1  0  0  0  0
 12 34  1  0  0  0  0
 12 13  1  0  0  0  0
 12 33  1  0  0  0  0
 13 22  1  0  0  0  0
 14 13  1  0  0  0  0
 14 15  1  0  0  0  0
 15 16  2  0  0  0  0
 16 17  1  0  0  0  0
 16 21  1  0  0  0  0
 18 36  1  0  0  0  0
 18 17  1  0  0  0  0
 19 15  1  0  0  0  0
 19 18  1  0  0  0  0
 20 19  2  0  0  0  0
 21 23  1  0  0  0  0
 22 37  1  0  0  0  0
 22 21  2  0  0  0  0
 23 25  1  0  0  0  0
 24 23  2  0  0  0  0
 25 26  1  0  0  0  0
 26 39  1  0  0  0  0
 26 40  1  0  0  0  0
 27  3  1  0  0  0  0
 30 10  1  0  0  0  0
 31 11  1  0  0  0  0
 32 11  1  0  0  0  0
 35 14  1  0  0  0  0
 38 26  1  0  0  0  0
M  END
>  <Pose>
1

>  <Score>
-6.56

$$$$
