
 OpenBabel03222202113D

 49 52  0  0  1  0  0  0  0  0999 V2000
   15.9710   70.5140   11.4160 Cl  0  0  0  0  0  0  0  0  0  0  0  0
   17.3140   71.3670   12.1380 C   0  0  0  0  0  0  0  0  0  0  0  0
   17.1990   72.7180   12.4360 C   0  0  0  0  0  0  0  0  0  0  0  0
   18.2540   73.4080   13.0100 C   0  0  0  0  0  0  0  0  0  0  0  0
   18.4500   74.6760   13.4030 N   0  0  0  0  0  0  0  0  0  0  0  0
   19.6990   74.8460   13.9180 C   0  0  0  0  0  0  0  0  0  0  0  0
   20.2730   73.6170   13.8250 N   0  0  0  0  0  0  0  0  0  0  0  0
   19.4220   72.7380   13.2820 C   0  0  0  0  0  0  0  0  0  0  0  0
   19.5300   71.3970   12.9830 C   0  0  0  0  0  0  0  0  0  0  0  0
   18.4830   70.6900   12.4090 C   0  0  0  0  0  0  0  0  0  0  0  0
   20.2410   76.1090   14.4540 C   0  0  0  0  0  0  0  0  0  0  0  0
   20.2400   76.1140   15.9520 C   0  0  0  0  0  0  0  0  0  0  0  0
   19.6400   77.3640   16.4640 C   0  0  0  0  0  0  0  0  0  0  0  0
   18.5700   77.2870   17.1170 O   0  0  0  0  0  0  0  0  0  0  0  0
   20.2080   78.6380   16.2530 N   0  0  0  0  0  0  0  0  0  0  0  0
   19.6100   79.9570   16.2900 C   0  0  0  0  0  0  0  0  0  0  0  0
   20.6300   80.7750   16.9470 C   0  0  2  0  0  0  0  0  0  0  0  0
   21.9120   79.9400   17.0040 C   0  0  1  0  0  0  0  0  0  0  0  0
   21.5910   78.8760   15.9340 C   0  0  0  0  0  0  0  0  0  0  0  0
   23.0350   80.6530   16.6640 O   0  0  0  0  0  0  0  0  0  0  0  0
   20.3820   81.4240   18.1740 N   0  0  0  0  0  0  0  0  0  0  0  0
   20.1990   82.7720   18.1450 C   0  0  0  0  0  0  0  0  0  0  0  0
   19.9470   83.4960   19.2890 C   0  0  0  0  0  0  0  0  0  0  0  0
   19.8740   82.8640   20.5080 C   0  0  0  0  0  0  0  0  0  0  0  0
   19.6440   83.5060   21.5760 O   0  0  0  0  0  0  0  0  0  0  0  0
   20.0540   81.5340   20.5360 N   0  0  0  0  0  0  0  0  0  0  0  0
   20.2940   80.8850   19.3950 C   0  0  0  0  0  0  0  0  0  0  0  0
   20.4510   79.6500   19.4800 O   0  0  0  0  0  0  0  0  0  0  0  0
   19.7470   84.9820   19.2410 C   0  0  0  0  0  0  0  0  0  0  0  0
   16.2850   73.2650   12.2290 H   0  0  0  0  0  0  0  0  0  0  0  0
   17.6990   75.4040   13.3020 H   0  0  0  0  0  0  0  0  0  0  0  0
   20.4300   70.8380   13.1820 H   0  0  0  0  0  0  0  0  0  0  0  0
   18.6000   69.6440   12.1880 H   0  0  0  0  0  0  0  0  0  0  0  0
   19.5870   76.9420   14.1030 H   0  0  0  0  0  0  0  0  0  0  0  0
   21.2920   76.2690   14.0700 H   0  0  0  0  0  0  0  0  0  0  0  0
   19.5490   75.2910   16.3070 H   0  0  0  0  0  0  0  0  0  0  0  0
   21.2210   75.8720   16.3860 H   0  0  0  0  0  0  0  0  0  0  0  0
   18.5820   79.9570   16.6620 H   0  0  0  0  0  0  0  0  0  0  0  0
   19.5020   80.2350   15.1960 H   0  0  0  0  0  0  0  0  0  0  0  0
   20.9180   81.6130   16.2300 H   0  0  0  0  0  0  0  0  0  0  0  0
   22.0160   79.3820   17.9490 H   0  0  0  0  0  0  0  0  0  0  0  0
   22.2350   77.9810   16.0620 H   0  0  0  0  0  0  0  0  0  0  0  0
   21.7330   79.3660   14.9480 H   0  0  0  0  0  0  0  0  0  0  0  0
   23.6550   80.6390   17.4360 H   0  0  0  0  0  0  0  0  0  0  0  0
   20.2350   83.3470   17.2340 H   0  0  0  0  0  0  0  0  0  0  0  0
   20.0040   81.0190   21.4690 H   0  0  0  0  0  0  0  0  0  0  0  0
   19.9620   85.3610   18.2070 H   0  0  0  0  0  0  0  0  0  0  0  0
   18.7590   85.2680   19.5870 H   0  0  0  0  0  0  0  0  0  0  0  0
   20.5090   85.4630   19.9120 H   0  0  0  0  0  0  0  0  0  0  0  0
  1  2  1  0  0  0  0
  2 10  2  0  0  0  0
  2  3  1  0  0  0  0
  3  4  2  0  0  0  0
  4  8  1  0  0  0  0
  4  5  1  0  0  0  0
  5  6  1  0  0  0  0
  6 11  1  0  0  0  0
  7  6  2  0  0  0  0
  8  7  1  0  0  0  0
  9 32  1  0  0  0  0
  9  8  2  0  0  0  0
 10  9  1  0  0  0  0
 11 12  1  0  0  0  0
 12 36  1  0  0  0  0
 12 37  1  0  0  0  0
 12 13  1  0  0  0  0
 13 14  2  0  0  0  0
 15 16  1  0  0  0  0
 15 13  1  0  0  0  0
 16 38  1  0  0  0  0
 16 17  1  0  0  0  0
 17 40  1  6  0  0  0
 17 18  1  0  0  0  0
 17 21  1  0  0  0  0
 18 41  1  1  0  0  0
 19 42  1  0  0  0  0
 19 15  1  0  0  0  0
 19 18  1  0  0  0  0
 20 18  1  0  0  0  0
 20 44  1  0  0  0  0
 21 27  1  0  0  0  0
 22 21  1  0  0  0  0
 22 23  2  0  0  0  0
 23 24  1  0  0  0  0
 24 26  1  0  0  0  0
 24 25  2  0  0  0  0
 26 46  1  0  0  0  0
 27 28  2  0  0  0  0
 27 26  1  0  0  0  0
 29 23  1  0  0  0  0
 29 48  1  0  0  0  0
 29 49  1  0  0  0  0
 30  3  1  0  0  0  0
 31  5  1  0  0  0  0
 33 10  1  0  0  0  0
 34 11  1  0  0  0  0
 35 11  1  0  0  0  0
 39 16  1  0  0  0  0
 43 19  1  0  0  0  0
 45 22  1  0  0  0  0
 47 29  1  0  0  0  0
M  END
>  <Pose>
1

>  <Score>
-7.17

$$$$
