
 OpenBabel03222202113D

 48 51  0  0  0  0  0  0  0  0999 V2000
   19.4160   78.7210   10.1710 S   0  0  0  0  0  0  0  0  0  0  0  0
   19.7250   77.9960   11.4740 O   0  0  0  0  0  0  0  0  0  0  0  0
   18.2030   79.5800   10.4780 O   0  0  0  0  0  0  0  0  0  0  0  0
   20.7040   79.7310    9.8020 N   0  0  0  0  0  0  0  0  0  0  0  0
   20.6890   81.0270   10.3840 C   0  0  0  0  0  0  0  0  0  0  0  0
   21.9510   81.3570   11.1410 C   0  0  0  0  0  0  0  0  0  0  0  0
   22.5450   80.1980   11.7560 N   0  0  0  0  0  0  0  0  0  0  0  0
   22.7570   79.0100   10.9650 C   0  0  0  0  0  0  0  0  0  0  0  0
   21.9880   79.1420    9.6870 C   0  0  0  0  0  0  0  0  0  0  0  0
   22.9320   80.1800   13.1180 C   0  0  0  0  0  0  0  0  0  0  0  0
   22.8880   81.2410   13.7710 O   0  0  0  0  0  0  0  0  0  0  0  0
   23.3870   78.9410   13.7870 C   0  0  0  0  0  0  0  0  0  0  0  0
   22.5920   78.6540   14.9450 N   0  0  0  0  0  0  0  0  0  0  0  0
   22.6060   79.2610   16.2300 C   0  0  0  0  0  0  0  0  0  0  0  0
   23.3660   80.1990   16.5560 O   0  0  0  0  0  0  0  0  0  0  0  0
   21.6040   78.6080   17.0570 C   0  0  0  0  0  0  0  0  0  0  0  0
   20.9840   77.6270   16.3200 C   0  0  0  0  0  0  0  0  0  0  0  0
   19.9840   76.8630   16.9070 C   0  0  0  0  0  0  0  0  0  0  0  0
   19.5980   77.0620   18.2030 C   0  0  0  0  0  0  0  0  0  0  0  0
   20.2180   78.0540   18.9620 C   0  0  0  0  0  0  0  0  0  0  0  0
   21.2140   78.8060   18.3570 C   0  0  0  0  0  0  0  0  0  0  0  0
   21.5860   77.6350   14.9930 C   0  0  0  0  0  0  0  0  0  0  0  0
   21.2260   76.8440   14.0830 O   0  0  0  0  0  0  0  0  0  0  0  0
   18.9630   77.6010    8.9430 C   0  0  0  0  0  0  0  0  0  0  0  0
   18.1650   78.0170    7.8910 C   0  0  0  0  0  0  0  0  0  0  0  0
   17.7740   77.1620    6.8810 C   0  0  0  0  0  0  0  0  0  0  0  0
   18.2060   75.8500    6.9410 C   0  0  0  0  0  0  0  0  0  0  0  0
   19.0010   75.4490    7.9950 C   0  0  0  0  0  0  0  0  0  0  0  0
   19.3990   76.2930    9.0110 C   0  0  0  0  0  0  0  0  0  0  0  0
   17.6980   74.6030    5.5630 B   0  0  0  0  0  0  0  0  0  0  0  0
   20.6260   81.7710    9.5360 H   0  0  0  0  0  0  0  0  0  0  0  0
   19.7740   81.1870   10.9910 H   0  0  0  0  0  0  0  0  0  0  0  0
   21.7140   82.1210   11.9050 H   0  0  0  0  0  0  0  0  0  0  0  0
   22.6870   81.8440   10.4500 H   0  0  0  0  0  0  0  0  0  0  0  0
   23.8470   78.9380   10.6780 H   0  0  0  0  0  0  0  0  0  0  0  0
   22.4840   78.1260   11.5630 H   0  0  0  0  0  0  0  0  0  0  0  0
   21.9320   78.1800    9.1470 H   0  0  0  0  0  0  0  0  0  0  0  0
   22.6020   79.8120    9.0150 H   0  0  0  0  0  0  0  0  0  0  0  0
   24.4510   79.1190   14.1060 H   0  0  0  0  0  0  0  0  0  0  0  0
   23.3680   78.0760   13.0850 H   0  0  0  0  0  0  0  0  0  0  0  0
   19.5170   76.1040   16.3110 H   0  0  0  0  0  0  0  0  0  0  0  0
   18.8300   76.4770   18.6550 H   0  0  0  0  0  0  0  0  0  0  0  0
   19.9560   78.2520   19.9770 H   0  0  0  0  0  0  0  0  0  0  0  0
   21.6920   79.5740   18.9530 H   0  0  0  0  0  0  0  0  0  0  0  0
   17.8020   79.0480    7.8070 H   0  0  0  0  0  0  0  0  0  0  0  0
   17.1510   77.4600    6.0470 H   0  0  0  0  0  0  0  0  0  0  0  0
   19.3540   74.4090    8.0580 H   0  0  0  0  0  0  0  0  0  0  0  0
   20.0310   75.9250    9.8260 H   0  0  0  0  0  0  0  0  0  0  0  0
  1  3  2  0  0  0  0
  1  2  2  0  0  0  0
  4  1  1  0  0  0  0
  4  5  1  0  0  0  0
  5 32  1  0  0  0  0
  5  6  1  0  0  0  0
  6  7  1  0  0  0  0
  6 33  1  0  0  0  0
  7 10  1  0  0  0  0
  8 36  1  0  0  0  0
  8  7  1  0  0  0  0
  9  4  1  0  0  0  0
  9  8  1  0  0  0  0
 10 11  2  0  0  0  0
 10 12  1  0  0  0  0
 12 39  1  0  0  0  0
 12 13  1  0  0  0  0
 13 22  1  0  0  0  0
 13 14  1  0  0  0  0
 14 15  2  0  0  0  0
 14 16  1  0  0  0  0
 16 21  1  0  0  0  0
 17 18  1  0  0  0  0
 17 16  2  0  0  0  0
 18 19  2  0  0  0  0
 19 42  1  0  0  0  0
 19 20  1  0  0  0  0
 20 43  1  0  0  0  0
 21 44  1  0  0  0  0
 21 20  2  0  0  0  0
 22 17  1  0  0  0  0
 23 22  2  0  0  0  0
 24 29  1  0  0  0  0
 24  1  1  0  0  0  0
 25 24  2  0  0  0  0
 26 27  2  0  0  0  0
 26 25  1  0  0  0  0
 27 28  1  0  0  0  0
 28 47  1  0  0  0  0
 28 29  2  0  0  0  0
 29 48  1  0  0  0  0
 30 27  1  0  0  0  0
 31  5  1  0  0  0  0
 34  6  1  0  0  0  0
 35  8  1  0  0  0  0
 37  9  1  0  0  0  0
 38  9  1  0  0  0  0
 40 12  1  0  0  0  0
 41 18  1  0  0  0  0
 45 25  1  0  0  0  0
 46 26  1  0  0  0  0
M  END
>  <Pose>
1

>  <Score>
-8.84

$$$$
