
 OpenBabel03222202113D

 51 55  0  0  1  0  0  0  0  0999 V2000
   19.2190   81.4380   19.8930 Cl  0  0  0  0  0  0  0  0  0  0  0  0
   19.9470   79.9470   19.3400 C   0  0  0  0  0  0  0  0  0  0  0  0
   20.7860   80.0220   18.2280 C   0  0  0  0  0  0  0  0  0  0  0  0
   21.3790   78.8690   17.7620 C   0  0  0  0  0  0  0  0  0  0  0  0
   21.1060   77.6750   18.4330 C   0  0  0  0  0  0  0  0  0  0  0  0
   20.2760   77.6100   19.5310 C   0  0  0  0  0  0  0  0  0  0  0  0
   19.6830   78.7650   19.9970 C   0  0  0  0  0  0  0  0  0  0  0  0
   22.2150   79.1490   16.5950 C   0  0  1  0  0  0  0  0  0  0  0  0
   23.5930   78.7330   16.7740 N   0  0  0  0  0  0  0  0  0  0  0  0
   24.1250   78.5880   15.4260 C   0  0  2  0  0  0  0  0  0  0  0  0
   22.9820   78.1190   14.5690 C   0  0  1  0  0  0  0  0  0  0  0  0
   21.7310   78.4570   15.3410 C   0  0  2  0  0  0  0  0  0  0  0  0
   20.9540   79.3770   14.4720 C   0  0  0  0  0  0  0  0  0  0  0  0
   19.9100   79.9530   14.8860 O   0  0  0  0  0  0  0  0  0  0  0  0
   21.5740   79.4640   13.2000 N   0  0  0  0  0  0  0  0  0  0  0  0
   22.9060   78.9960   13.3500 C   0  0  0  0  0  0  0  0  0  0  0  0
   23.9090   79.2340   12.6200 O   0  0  0  0  0  0  0  0  0  0  0  0
   20.9740   79.9280   12.0020 C   0  0  0  0  0  0  0  0  0  0  0  0
   20.8100   78.9550   10.9040 C   0  0  2  0  0  0  0  0  0  0  0  0
   20.4370   79.4970    9.6830 O   0  0  0  0  0  0  0  0  0  0  0  0
   20.4800   78.3670    8.8660 C   0  0  0  0  0  0  0  0  0  0  0  0
   19.7760   77.2720    9.6770 C   0  0  0  0  0  0  0  0  0  0  0  0
   19.8260   77.8610   11.0960 C   0  0  0  0  0  0  0  0  0  0  0  0
   25.2610   77.6080   15.4530 C   0  0  0  0  0  0  0  0  0  0  0  0
   26.2810   78.1430   16.4090 C   0  0  0  0  0  0  0  0  0  0  0  0
   26.6280   77.3800   17.3470 O   0  0  0  0  0  0  0  0  0  0  0  0
   26.8410   79.4400   16.2830 N   0  0  0  0  0  0  0  0  0  0  0  0
   22.0880   80.6010   16.3870 C   0  0  0  0  0  0  0  0  0  0  0  0
   22.6530   81.3110   15.4780 O   0  0  0  0  0  0  0  0  0  0  0  0
   21.2150   81.0880   17.3920 N   0  0  0  0  0  0  0  0  0  0  0  0
   21.5460   76.7360   18.1100 H   0  0  0  0  0  0  0  0  0  0  0  0
   20.0670   76.6830   20.0480 H   0  0  0  0  0  0  0  0  0  0  0  0
   19.0340   78.6960   20.8600 H   0  0  0  0  0  0  0  0  0  0  0  0
   23.6650   77.8390   17.3120 H   0  0  0  0  0  0  0  0  0  0  0  0
   24.4620   79.5910   15.1140 H   0  0  0  0  0  0  0  0  0  0  0  0
   23.0710   77.0620   14.3120 H   0  0  0  0  0  0  0  0  0  0  0  0
   21.1700   77.5530   15.5730 H   0  0  0  0  0  0  0  0  0  0  0  0
   19.9430   80.3430   12.2140 H   0  0  0  0  0  0  0  0  0  0  0  0
   21.5080   80.8220   11.5610 H   0  0  0  0  0  0  0  0  0  0  0  0
   21.8060   78.4760   10.7330 H   0  0  0  0  0  0  0  0  0  0  0  0
   21.5090   78.0230    8.6770 H   0  0  0  0  0  0  0  0  0  0  0  0
   19.9910   78.5310    7.8920 H   0  0  0  0  0  0  0  0  0  0  0  0
   18.7620   77.1660    9.3020 H   0  0  0  0  0  0  0  0  0  0  0  0
   20.3680   76.3260    9.6660 H   0  0  0  0  0  0  0  0  0  0  0  0
   18.8030   78.1580   11.3240 H   0  0  0  0  0  0  0  0  0  0  0  0
   20.1820   77.0690   11.7960 H   0  0  0  0  0  0  0  0  0  0  0  0
   25.6830   77.5680   14.4250 H   0  0  0  0  0  0  0  0  0  0  0  0
   24.9010   76.6200   15.7610 H   0  0  0  0  0  0  0  0  0  0  0  0
   26.2690   80.1760   15.8250 H   0  0  0  0  0  0  0  0  0  0  0  0
   27.7880   79.7020   16.6210 H   0  0  0  0  0  0  0  0  0  0  0  0
   20.9190   82.0950   17.5120 H   0  0  0  0  0  0  0  0  0  0  0  0
  2  1  1  0  0  0  0
  2  7  1  0  0  0  0
  3  2  2  0  0  0  0
  4  3  1  0  0  0  0
  4  5  2  0  0  0  0
  5  6  1  0  0  0  0
  6  7  2  0  0  0  0
  6 32  1  0  0  0  0
  7 33  1  0  0  0  0
  8 28  1  6  0  0  0
  8  9  1  0  0  0  0
  8  4  1  0  0  0  0
  9 34  1  0  0  0  0
 10 35  1  6  0  0  0
 10 24  1  0  0  0  0
 10  9  1  0  0  0  0
 11 36  1  6  0  0  0
 11 12  1  0  0  0  0
 11 10  1  0  0  0  0
 12 37  1  1  0  0  0
 12  8  1  0  0  0  0
 13 14  2  0  0  0  0
 13 12  1  0  0  0  0
 15 16  1  0  0  0  0
 15 13  1  0  0  0  0
 16 11  1  0  0  0  0
 17 16  2  0  0  0  0
 18 38  1  0  0  0  0
 18 15  1  0  0  0  0
 19 40  1  6  0  0  0
 19 23  1  0  0  0  0
 19 18  1  0  0  0  0
 20 19  1  0  0  0  0
 21 22  1  0  0  0  0
 21 20  1  0  0  0  0
 22 23  1  0  0  0  0
 23 45  1  0  0  0  0
 23 46  1  0  0  0  0
 24 48  1  0  0  0  0
 24 25  1  0  0  0  0
 25 26  2  0  0  0  0
 27 25  1  0  0  0  0
 27 50  1  0  0  0  0
 28 30  1  0  0  0  0
 29 28  2  0  0  0  0
 30 51  1  0  0  0  0
 30  3  1  0  0  0  0
 31  5  1  0  0  0  0
 39 18  1  0  0  0  0
 41 21  1  0  0  0  0
 42 21  1  0  0  0  0
 43 22  1  0  0  0  0
 44 22  1  0  0  0  0
 47 24  1  0  0  0  0
 49 27  1  0  0  0  0
M  END
>  <Pose>
1

>  <Score>
-5.89

$$$$
