
 OpenBabel03222202113D

 43 46  0  0  1  0  0  0  0  0999 V2000
   22.3990   80.5320   14.7990 Cl  0  0  0  0  0  0  0  0  0  0  0  0
   21.5730   79.3740   15.8090 C   0  0  0  0  0  0  0  0  0  0  0  0
   21.2210   79.6620   17.0550 N   0  0  0  0  0  4  0  0  0  0  0  0
   20.5870   78.8370   17.8940 C   0  0  0  0  0  0  0  0  0  0  0  0
   20.1440   78.9100   19.1600 N   0  0  0  0  0  0  0  0  0  0  0  0
   19.5640   77.7440   19.4930 C   0  0  0  0  0  0  0  0  0  0  0  0
   19.6550   76.9470   18.4120 N   0  0  0  0  0  0  0  0  0  0  0  0
   20.2760   77.5720   17.4010 C   0  0  1  0  0  0  0  0  0  0  0  0
   20.6350   77.2640   16.1110 C   0  0  0  0  0  0  0  0  0  0  0  0
   21.2710   78.1470   15.3290 N   0  0  0  0  0  0  0  0  0  0  0  0
   20.2910   75.9410   15.6380 N   0  0  0  0  0  0  0  0  0  0  0  0
   19.9810   75.7520   14.2710 C   0  0  0  0  0  0  0  0  0  0  0  0
   19.8900   74.3730   13.8160 C   0  0  0  0  0  0  0  0  0  0  0  0
   20.3370   73.4980   14.7430 O   0  0  0  0  0  0  0  0  0  0  0  0
   19.4460   73.8190   12.6480 N   0  0  0  0  0  0  0  0  0  0  0  0
   20.1360   72.9410   11.7660 C   0  0  0  0  0  0  0  0  0  0  0  0
   20.3680   73.5780   10.3980 C   0  0  0  0  0  0  0  0  0  0  0  0
   19.2560   74.4620   10.1940 N   0  0  0  0  0  0  0  0  0  0  0  0
   17.9780   74.0570   10.7030 C   0  0  0  0  0  0  0  0  0  0  0  0
   18.0460   74.2080   12.2260 C   0  0  0  0  0  0  0  0  0  0  0  0
   19.3760   75.6900    9.5200 C   0  0  0  0  0  0  0  0  0  0  0  0
   19.6610   76.8490   10.1810 N   0  0  0  0  0  0  0  0  0  0  0  0
   19.7860   78.0340    9.6090 C   0  0  0  0  0  0  0  0  0  0  0  0
   19.6320   78.1980    8.2610 C   0  0  0  0  0  0  0  0  0  0  0  0
   19.3410   77.0580    7.5270 C   0  0  0  0  0  0  0  0  0  0  0  0
   19.2150   75.8260    8.1490 C   0  0  0  0  0  0  0  0  0  0  0  0
   19.1000   77.4590   20.4400 H   0  0  0  0  0  0  0  0  0  0  0  0
   19.3040   75.9570   18.3160 H   0  0  0  0  0  0  0  0  0  0  0  0
   20.2660   75.1590   16.2980 H   0  0  0  0  0  0  0  0  0  0  0  0
   19.0650   76.3510   13.9640 H   0  0  0  0  0  0  0  0  0  0  0  0
   20.8600   76.2070   13.6870 H   0  0  0  0  0  0  0  0  0  0  0  0
   21.0730   72.5990   12.1590 H   0  0  0  0  0  0  0  0  0  0  0  0
   19.4420   72.0420   11.5770 H   0  0  0  0  0  0  0  0  0  0  0  0
   20.3300   72.7830    9.6150 H   0  0  0  0  0  0  0  0  0  0  0  0
   21.3460   74.0360   10.3790 H   0  0  0  0  0  0  0  0  0  0  0  0
   17.7610   72.9850   10.5090 H   0  0  0  0  0  0  0  0  0  0  0  0
   17.1760   74.7220   10.3430 H   0  0  0  0  0  0  0  0  0  0  0  0
   17.3380   73.5420   12.6990 H   0  0  0  0  0  0  0  0  0  0  0  0
   17.9440   75.2500   12.5440 H   0  0  0  0  0  0  0  0  0  0  0  0
   20.0160   78.9170   10.2210 H   0  0  0  0  0  0  0  0  0  0  0  0
   19.7340   79.1580    7.8080 H   0  0  0  0  0  0  0  0  0  0  0  0
   19.2140   77.1670    6.4410 H   0  0  0  0  0  0  0  0  0  0  0  0
   18.9910   74.9850    7.5460 H   0  0  0  0  0  0  0  0  0  0  0  0
  1  2  1  0  0  0  0
  2  3  2  0  0  0  0
  3  4  2  0  0  0  0
  4  5  1  0  0  0  0
  5  6  2  0  0  0  0
  6 27  1  0  0  0  0
  7  6  1  0  0  0  0
  8  9  1  6  0  0  0
  8  4  1  0  0  0  0
  8  7  1  0  0  0  0
 10  2  1  0  0  0  0
 10  9  2  0  0  0  0
 11  9  1  0  0  0  0
 11 29  1  0  0  0  0
 12 11  1  0  0  0  0
 13 12  1  0  0  0  0
 13 14  2  0  0  0  0
 15 13  1  0  0  0  0
 16 32  1  0  0  0  0
 16 15  1  0  0  0  0
 17 16  1  0  0  0  0
 18 17  1  0  0  0  0
 18 19  1  0  0  0  0
 19 20  1  0  0  0  0
 20 39  1  0  0  0  0
 20 15  1  0  0  0  0
 20 38  1  0  0  0  0
 21 22  1  0  0  0  0
 21 18  1  0  0  0  0
 23 22  2  0  0  0  0
 23 40  1  0  0  0  0
 24 23  1  0  0  0  0
 25 26  1  0  0  0  0
 25 24  2  0  0  0  0
 26 21  2  0  0  0  0
 28  7  1  0  0  0  0
 30 12  1  0  0  0  0
 31 12  1  0  0  0  0
 33 16  1  0  0  0  0
 34 17  1  0  0  0  0
 35 17  1  0  0  0  0
 36 19  1  0  0  0  0
 37 19  1  0  0  0  0
 41 24  1  0  0  0  0
 42 25  1  0  0  0  0
 43 26  1  0  0  0  0
M  END
>  <Pose>
1

>  <Score>
-6.43

$$$$
