
 OpenBabel03222202113D

 47 50  0  0  1  0  0  0  0  0999 V2000
   21.3390   82.4550   23.5110 Cl  0  0  0  0  0  0  0  0  0  0  0  0
   20.4480   82.5330   22.0140 C   0  0  0  0  0  0  0  0  0  0  0  0
   20.4430   81.4800   21.1340 C   0  0  0  0  0  0  0  0  0  0  0  0
   19.7440   81.5030   19.9390 C   0  0  0  0  0  0  0  0  0  0  0  0
   19.0350   82.6240   19.6340 C   0  0  0  0  0  0  0  0  0  0  0  0
   19.0080   83.7200   20.4910 C   0  0  0  0  0  0  0  0  0  0  0  0
   19.7180   83.6570   21.6720 C   0  0  0  0  0  0  0  0  0  0  0  0
   19.7730   80.3980   19.0430 N   0  0  0  0  0  0  0  0  0  0  0  0
   19.3700   79.1300   19.5570 C   0  0  0  0  0  0  0  0  0  0  0  0
   18.9830   78.9490   20.7370 O   0  0  0  0  0  0  0  0  0  0  0  0
   19.4080   78.0050   18.6810 N   0  0  0  0  0  0  0  0  0  0  0  0
   19.8450   78.1820   17.3250 C   0  0  0  0  0  0  0  0  0  0  0  0
   19.6290   77.1990   16.5400 O   0  0  0  0  0  0  0  0  0  0  0  0
   20.5040   79.4150   16.8570 C   0  0  1  0  0  0  0  0  0  0  0  0
   20.2050   80.5960   17.7030 C   0  0  0  0  0  0  0  0  0  0  0  0
   20.3450   81.7380   17.2020 O   0  0  0  0  0  0  0  0  0  0  0  0
   21.9990   79.2150   16.7630 C   0  0  0  0  0  0  0  0  0  0  0  0
   22.7960   79.9370   15.9980 C   0  0  0  0  0  0  0  0  0  0  0  0
   24.1520   79.3900   16.2240 C   0  0  1  0  0  0  0  0  0  0  0  0
   24.0470   78.8780   17.5780 N   0  0  0  0  0  0  0  0  0  0  0  0
   22.7760   78.2600   17.4850 N   0  0  0  0  0  0  0  0  0  0  0  0
   24.4430   78.2870   15.2650 C   0  0  0  0  0  0  0  0  0  0  0  0
   25.0260   77.0970   15.5920 C   0  0  0  0  0  0  0  0  0  0  0  0
   25.2380   76.0900   14.6710 C   0  0  0  0  0  0  0  0  0  0  0  0
   24.8570   76.2590   13.3530 C   0  0  0  0  0  0  0  0  0  0  0  0
   24.2580   77.4850   13.0220 C   0  0  0  0  0  0  0  0  0  0  0  0
   24.0560   78.4780   13.9520 C   0  0  0  0  0  0  0  0  0  0  0  0
   25.0480   75.2780   12.4100 O   0  0  0  0  0  0  0  0  0  0  0  0
   26.2830   75.1110   11.7460 C   0  0  0  0  0  0  0  0  0  0  0  0
   25.8450   74.8830   15.0600 O   0  0  0  0  0  0  0  0  0  0  0  0
   21.0030   80.5640   21.3570 H   0  0  0  0  0  0  0  0  0  0  0  0
   18.4730   82.6780   18.7000 H   0  0  0  0  0  0  0  0  0  0  0  0
   18.4320   84.5680   20.1860 H   0  0  0  0  0  0  0  0  0  0  0  0
   19.6870   84.5100   22.3200 H   0  0  0  0  0  0  0  0  0  0  0  0
   19.1250   77.0410   18.9940 H   0  0  0  0  0  0  0  0  0  0  0  0
   20.0690   79.6390   15.8540 H   0  0  0  0  0  0  0  0  0  0  0  0
   22.4890   80.7470   15.3590 H   0  0  0  0  0  0  0  0  0  0  0  0
   24.9500   80.1570   16.1610 H   0  0  0  0  0  0  0  0  0  0  0  0
   24.7980   78.2460   17.8670 H   0  0  0  0  0  0  0  0  0  0  0  0
   22.4210   77.3650   17.8210 H   0  0  0  0  0  0  0  0  0  0  0  0
   25.3320   76.9260   16.5940 H   0  0  0  0  0  0  0  0  0  0  0  0
   23.9750   77.5830   11.9810 H   0  0  0  0  0  0  0  0  0  0  0  0
   23.5810   79.4020   13.6050 H   0  0  0  0  0  0  0  0  0  0  0  0
   26.6360   76.0900   11.3200 H   0  0  0  0  0  0  0  0  0  0  0  0
   26.1680   74.4490   10.8420 H   0  0  0  0  0  0  0  0  0  0  0  0
   27.0850   74.7260   12.3950 H   0  0  0  0  0  0  0  0  0  0  0  0
   25.2500   74.1470   15.4260 H   0  0  0  0  0  0  0  0  0  0  0  0
  2  1  1  0  0  0  0
  3 31  1  0  0  0  0
  3  2  2  0  0  0  0
  4  3  1  0  0  0  0
  5  4  2  0  0  0  0
  5  6  1  0  0  0  0
  6  7  2  0  0  0  0
  7  2  1  0  0  0  0
  7 34  1  0  0  0  0
  8  9  1  0  0  0  0
  8  4  1  0  0  0  0
  9 10  2  0  0  0  0
 11 35  1  0  0  0  0
 11  9  1  0  0  0  0
 12 11  1  0  0  0  0
 13 12  2  0  0  0  0
 14 36  1  6  0  0  0
 14 12  1  0  0  0  0
 14 15  1  0  0  0  0
 15  8  1  0  0  0  0
 16 15  2  0  0  0  0
 17 14  1  0  0  0  0
 17 21  1  0  0  0  0
 18 19  1  0  0  0  0
 18 17  2  0  0  0  0
 19 38  1  6  0  0  0
 19 20  1  0  0  0  0
 20 39  1  0  0  0  0
 21 20  1  0  0  0  0
 21 40  1  0  0  0  0
 22 23  1  0  0  0  0
 22 19  1  0  0  0  0
 23 41  1  0  0  0  0
 24 30  1  0  0  0  0
 24 23  2  0  0  0  0
 25 24  1  0  0  0  0
 26 25  2  0  0  0  0
 26 27  1  0  0  0  0
 27 22  2  0  0  0  0
 28 25  1  0  0  0  0
 29 46  1  0  0  0  0
 29 28  1  0  0  0  0
 30 47  1  0  0  0  0
 32  5  1  0  0  0  0
 33  6  1  0  0  0  0
 37 18  1  0  0  0  0
 42 26  1  0  0  0  0
 43 27  1  0  0  0  0
 44 29  1  0  0  0  0
 45 29  1  0  0  0  0
M  END
>  <Pose>
1

>  <Score>
-5.56

$$$$
