
 OpenBabel03222202113D

 47 50  0  0  0  0  0  0  0  0999 V2000
   21.0390   77.7420   17.4500 S   0  0  0  0  0  0  0  0  0  0  0  0
   20.1330   77.7870   16.2620 O   0  0  0  0  0  0  0  0  0  0  0  0
   20.8670   76.4120   18.1280 O   0  0  0  0  0  0  0  0  0  0  0  0
   22.6480   77.8910   16.9550 N   0  0  0  0  0  0  0  0  0  0  0  0
   23.3210   79.0780   17.3870 C   0  0  0  0  0  0  0  0  0  0  0  0
   23.1080   80.2450   16.4420 C   0  0  0  0  0  0  0  0  0  0  0  0
   23.3500   79.8050   15.0930 N   0  0  0  0  0  0  0  0  0  0  0  0
   23.8500   78.4600   14.8940 C   0  0  0  0  0  0  0  0  0  0  0  0
   22.9040   77.5180   15.6060 C   0  0  0  0  0  0  0  0  0  0  0  0
   23.1180   80.6320   13.9570 C   0  0  0  0  0  0  0  0  0  0  0  0
   23.5080   81.8220   13.9180 O   0  0  0  0  0  0  0  0  0  0  0  0
   22.4090   80.1080   12.7870 C   0  0  0  0  0  0  0  0  0  0  0  0
   22.2580   80.7340   11.5870 N   0  0  0  0  0  0  0  0  0  0  0  0
   21.5500   79.9410   10.7680 C   0  0  0  0  0  0  0  0  0  0  0  0
   21.2590   78.8320   11.4470 N   0  0  0  0  0  0  0  0  0  0  0  0
   21.7720   78.9080   12.6820 C   0  0  0  0  0  0  0  0  0  0  0  0
   20.5450   77.8670   10.8360 C   0  0  0  0  0  0  0  0  0  0  0  0
   20.0910   77.9480    9.5490 C   0  0  0  0  0  0  0  0  0  0  0  0
   20.3840   79.0990    8.8250 C   0  0  0  0  0  0  0  0  0  0  0  0
   21.1140   80.0780    9.4590 C   0  0  0  0  0  0  0  0  0  0  0  0
   19.1590   76.6660    8.7830 Cl  0  0  0  0  0  0  0  0  0  0  0  0
   20.5370   78.9530   18.5610 N   0  0  0  0  0  0  0  0  0  0  0  0
   19.5530   78.4600   19.5070 C   0  0  0  0  0  0  0  0  0  0  0  0
   18.7830   79.6560   20.0130 C   0  0  0  0  0  0  0  0  0  0  0  0
   19.5850   80.7890   20.0940 O   0  0  0  0  0  0  0  0  0  0  0  0
   19.9830   81.2550   18.8430 C   0  0  0  0  0  0  0  0  0  0  0  0
   19.9260   80.0820   17.8850 C   0  0  0  0  0  0  0  0  0  0  0  0
   24.4190   78.8670   17.3740 H   0  0  0  0  0  0  0  0  0  0  0  0
   23.0480   79.3020   18.4200 H   0  0  0  0  0  0  0  0  0  0  0  0
   22.0640   80.6360   16.5880 H   0  0  0  0  0  0  0  0  0  0  0  0
   23.7810   81.0880   16.6980 H   0  0  0  0  0  0  0  0  0  0  0  0
   24.8570   78.4310   15.3930 H   0  0  0  0  0  0  0  0  0  0  0  0
   23.9340   78.2110   13.8350 H   0  0  0  0  0  0  0  0  0  0  0  0
   23.3830   76.4980   15.6200 H   0  0  0  0  0  0  0  0  0  0  0  0
   21.9800   77.4600   15.0240 H   0  0  0  0  0  0  0  0  0  0  0  0
   21.6670   78.1190   13.4290 H   0  0  0  0  0  0  0  0  0  0  0  0
   20.2970   76.9440   11.3790 H   0  0  0  0  0  0  0  0  0  0  0  0
   20.0590   79.2380    7.8000 H   0  0  0  0  0  0  0  0  0  0  0  0
   21.3680   80.9980    8.9300 H   0  0  0  0  0  0  0  0  0  0  0  0
   20.0230   77.9000   20.3400 H   0  0  0  0  0  0  0  0  0  0  0  0
   18.8610   77.7990   18.9420 H   0  0  0  0  0  0  0  0  0  0  0  0
   18.4290   79.4480   21.0450 H   0  0  0  0  0  0  0  0  0  0  0  0
   17.9110   79.9130   19.3910 H   0  0  0  0  0  0  0  0  0  0  0  0
   21.0710   81.5350   18.9110 H   0  0  0  0  0  0  0  0  0  0  0  0
   19.3800   82.1110   18.4920 H   0  0  0  0  0  0  0  0  0  0  0  0
   18.8750   79.8770   17.5940 H   0  0  0  0  0  0  0  0  0  0  0  0
   20.4720   80.2850   16.9450 H   0  0  0  0  0  0  0  0  0  0  0  0
  1  3  2  0  0  0  0
  1 22  1  0  0  0  0
  2  1  2  0  0  0  0
  4  5  1  0  0  0  0
  4  1  1  0  0  0  0
  5 29  1  0  0  0  0
  6 30  1  0  0  0  0
  6 31  1  0  0  0  0
  6  5  1  0  0  0  0
  7  6  1  0  0  0  0
  8  7  1  0  0  0  0
  8 32  1  0  0  0  0
  8  9  1  0  0  0  0
  9 34  1  0  0  0  0
  9  4  1  0  0  0  0
 10  7  1  0  0  0  0
 11 10  2  0  0  0  0
 12 10  1  0  0  0  0
 13 12  1  0  0  0  0
 14 15  1  0  0  0  0
 14 13  2  0  0  0  0
 15 16  1  0  0  0  0
 16 12  2  0  0  0  0
 16 36  1  0  0  0  0
 17 37  1  0  0  0  0
 17 15  1  0  0  0  0
 18 17  2  0  0  0  0
 19 20  2  0  0  0  0
 19 18  1  0  0  0  0
 20 14  1  0  0  0  0
 21 18  1  0  0  0  0
 22 23  1  0  0  0  0
 23 24  1  0  0  0  0
 23 40  1  0  0  0  0
 24 25  1  0  0  0  0
 24 42  1  0  0  0  0
 26 44  1  0  0  0  0
 26 25  1  0  0  0  0
 27 22  1  0  0  0  0
 27 26  1  0  0  0  0
 28  5  1  0  0  0  0
 33  8  1  0  0  0  0
 35  9  1  0  0  0  0
 38 19  1  0  0  0  0
 39 20  1  0  0  0  0
 41 23  1  0  0  0  0
 43 24  1  0  0  0  0
 45 26  1  0  0  0  0
 46 27  1  0  0  0  0
 47 27  1  0  0  0  0
M  END
>  <Pose>
1

>  <Score>
-6.23

$$$$
