
 OpenBabel03222202113D

 47 51  0  0  1  0  0  0  0  0999 V2000
   16.8760   70.8230   11.8950 I   0  0  0  0  0  0  0  0  0  0  0  0
   17.9470   72.4480   12.6980 C   0  0  0  0  0  0  0  0  0  0  0  0
   19.2230   72.2980   13.2000 C   0  0  0  0  0  0  0  0  0  0  0  0
   19.9360   73.3730   13.7330 C   0  0  0  0  0  0  0  0  0  0  0  0
   19.3570   74.6020   13.7580 C   0  0  0  0  0  0  0  0  0  0  0  0
   18.0770   74.7400   13.2520 C   0  0  0  0  0  0  0  0  0  0  0  0
   17.3580   73.6920   12.7220 C   0  0  0  0  0  0  0  0  0  0  0  0
   20.0080   75.7750   14.2860 N   0  0  0  0  0  0  0  0  0  0  0  0
   19.8020   76.3260   15.4690 N   0  0  0  0  0  0  0  0  0  0  0  0
   20.5740   77.4160   15.6530 C   0  0  0  0  0  0  0  0  0  0  0  0
   20.6460   78.2150   16.6910 C   0  0  0  0  0  0  0  0  0  0  0  0
   21.3220   77.5640   14.5010 C   0  0  0  0  0  0  0  0  0  0  0  0
   22.2240   78.5270   14.2600 C   0  0  0  0  0  0  0  0  0  0  0  0
   22.8770   78.4800   12.9980 N   0  0  0  0  0  4  0  0  0  0  0  0
   22.2580   79.1530   11.8680 C   0  0  1  0  0  0  0  0  0  0  0  0
   22.4040   80.6600   12.0180 C   0  0  0  0  0  0  0  0  0  0  0  0
   21.8410   81.3050   10.8650 N   0  0  2  0  0  0  0  0  0  0  0  0
   20.4280   80.9450   10.8110 C   0  0  0  0  0  0  0  0  0  0  0  0
   20.2500   79.5330   10.6250 N   0  0  1  0  0  0  0  0  0  0  0  0
   20.9490   79.0830    9.4410 C   0  0  0  0  0  0  0  0  0  0  0  0
   22.3500   79.4080    9.4830 N   0  0  1  0  0  0  0  0  0  0  0  0
   22.5420   80.8400    9.6890 C   0  0  0  0  0  0  0  0  0  0  0  0
   22.9610   78.7230   10.5990 C   0  0  0  0  0  0  0  0  0  0  0  0
   20.7940   78.8470   11.7700 C   0  0  0  0  0  0  0  0  0  0  0  0
   20.9410   76.5260   13.6780 C   0  0  0  0  0  0  0  0  0  0  0  0
   21.3960   76.3070   12.5270 O   0  0  0  0  0  0  0  0  0  0  0  0
   19.6450   71.2990   13.1590 H   0  0  0  0  0  0  0  0  0  0  0  0
   20.9330   73.2390   14.1210 H   0  0  0  0  0  0  0  0  0  0  0  0
   17.6240   75.7290   13.2780 H   0  0  0  0  0  0  0  0  0  0  0  0
   16.3430   73.8320   12.3270 H   0  0  0  0  0  0  0  0  0  0  0  0
   19.1280   75.9770   16.1900 H   0  0  0  0  0  0  0  0  0  0  0  0
   21.3190   79.0530   16.6870 H   0  0  0  0  0  0  0  0  0  0  0  0
   20.0390   78.0540   17.5660 H   0  0  0  0  0  0  0  0  0  0  0  0
   22.4350   79.2930   14.9960 H   0  0  0  0  0  0  0  0  0  0  0  0
   23.7770   77.9910   12.8260 H   0  0  0  0  0  0  0  0  0  0  0  0
   21.8710   80.9280   12.9590 H   0  0  0  0  0  0  0  0  0  0  0  0
   23.4660   80.8840   12.1910 H   0  0  0  0  0  0  0  0  0  0  0  0
   19.8690   81.5620   10.0810 H   0  0  0  0  0  0  0  0  0  0  0  0
   20.0140   81.2070   11.8270 H   0  0  0  0  0  0  0  0  0  0  0  0
   20.5170   79.5790    8.5340 H   0  0  0  0  0  0  0  0  0  0  0  0
   20.8490   77.9840    9.3510 H   0  0  0  0  0  0  0  0  0  0  0  0
   23.6330   80.9860    9.8790 H   0  0  0  0  0  0  0  0  0  0  0  0
   22.2820   81.4300    8.7850 H   0  0  0  0  0  0  0  0  0  0  0  0
   22.7940   77.6330   10.4530 H   0  0  0  0  0  0  0  0  0  0  0  0
   24.0340   78.9660   10.7050 H   0  0  0  0  0  0  0  0  0  0  0  0
   20.3060   79.1570   12.7150 H   0  0  0  0  0  0  0  0  0  0  0  0
   20.6080   77.7520   11.6510 H   0  0  0  0  0  0  0  0  0  0  0  0
  1  2  1  0  0  0  0
  2  7  2  0  0  0  0
  2  3  1  0  0  0  0
  3  4  2  0  0  0  0
  4  5  1  0  0  0  0
  4 28  1  0  0  0  0
  5  8  1  0  0  0  0
  6 29  1  0  0  0  0
  6  5  2  0  0  0  0
  7  6  1  0  0  0  0
  8  9  1  0  0  0  0
  9 10  1  0  0  0  0
  9 31  1  0  0  0  0
 10 11  1  0  0  0  0
 11 33  1  0  0  0  0
 12 10  2  0  0  0  0
 13 12  1  0  0  0  0
 13 34  1  0  0  0  0
 14 13  2  0  0  0  0
 15 16  1  0  0  0  0
 15 14  1  1  0  0  0
 16 37  1  0  0  0  0
 16 36  1  0  0  0  0
 17 22  1  6  0  0  0
 17 16  1  0  0  0  0
 18 17  1  0  0  0  0
 18 39  1  0  0  0  0
 19 20  1  6  0  0  0
 19 18  1  0  0  0  0
 19 24  1  0  0  0  0
 21 20  1  1  0  0  0
 21 22  1  0  0  0  0
 21 23  1  0  0  0  0
 22 42  1  0  0  0  0
 23 45  1  0  0  0  0
 23 15  1  0  0  0  0
 24 15  1  0  0  0  0
 24 46  1  0  0  0  0
 25  8  1  0  0  0  0
 25 12  1  0  0  0  0
 26 25  2  0  0  0  0
 27  3  1  0  0  0  0
 30  7  1  0  0  0  0
 32 11  1  0  0  0  0
 35 14  1  0  0  0  0
 38 18  1  0  0  0  0
 40 20  1  0  0  0  0
 41 20  1  0  0  0  0
 43 22  1  0  0  0  0
 44 23  1  0  0  0  0
 47 24  1  0  0  0  0
M  END
>  <Pose>
1

>  <Score>
-6.33

$$$$
