
 OpenBabel03222202113D

 42 45  0  0  0  0  0  0  0  0999 V2000
   21.3040   80.1230   11.7830 Cl  0  0  0  0  0  0  0  0  0  0  0  0
   20.5990   79.0290   10.5930 C   0  0  0  0  0  0  0  0  0  0  0  0
   20.1430   77.7800   10.9760 C   0  0  0  0  0  0  0  0  0  0  0  0
   19.5940   76.9220   10.0630 C   0  0  0  0  0  0  0  0  0  0  0  0
   19.5200   77.3590    8.7620 C   0  0  0  0  0  0  0  0  0  0  0  0
   19.9640   78.5910    8.3560 C   0  0  0  0  0  0  0  0  0  0  0  0
   20.5180   79.4500    9.2910 C   0  0  0  0  0  0  0  0  0  0  0  0
   18.9340   76.4600    7.7490 C   0  0  0  0  0  0  0  0  0  0  0  0
   18.7310   76.5770    6.4840 N   0  0  0  0  0  0  0  0  0  0  0  0
   18.1200   75.4080    5.9210 C   0  0  0  0  0  0  0  0  0  0  0  0
   17.9510   74.4730    7.0740 C   0  0  0  0  0  0  0  0  0  0  0  0
   18.4850   75.1950    8.2050 N   0  0  0  0  0  0  0  0  0  0  0  0
   18.5860   74.7890    9.5770 C   0  0  0  0  0  0  0  0  0  0  0  0
   18.2360   73.6660   10.2220 N   0  0  0  0  0  0  0  0  0  0  0  0
   18.5360   73.7670   11.5050 N   0  0  0  0  0  0  0  0  0  0  0  0
   19.0850   74.9840   11.6530 C   0  0  0  0  0  0  0  0  0  0  0  0
   19.4970   75.4370   12.7490 O   0  0  0  0  0  0  0  0  0  0  0  0
   19.1290   75.6430   10.4640 N   0  0  0  0  0  0  0  0  0  0  0  0
   18.3260   72.7800   12.5600 C   0  0  0  0  0  0  0  0  0  0  0  0
   17.0690   72.0460   12.2860 C   0  0  0  0  0  0  0  0  0  0  0  0
   15.9710   72.5770   12.6160 O   0  0  0  0  0  0  0  0  0  0  0  0
   17.0440   70.7680   11.6680 N   0  0  0  0  0  0  0  0  0  0  0  0
   15.8010   70.0480   11.5080 C   0  0  0  0  0  0  0  0  0  0  0  0
   15.3720   70.0360   10.0380 C   0  0  0  0  0  0  0  0  0  0  0  0
   16.0890   68.5960   11.8670 C   0  0  0  0  0  0  0  0  0  0  0  0
   20.2220   77.4860   11.9990 H   0  0  0  0  0  0  0  0  0  0  0  0
   19.9120   78.9460    7.3350 H   0  0  0  0  0  0  0  0  0  0  0  0
   20.8760   80.4410    8.9700 H   0  0  0  0  0  0  0  0  0  0  0  0
   17.1170   75.7160    5.5270 H   0  0  0  0  0  0  0  0  0  0  0  0
   18.7340   74.9740    5.1000 H   0  0  0  0  0  0  0  0  0  0  0  0
   16.8990   74.1630    7.2360 H   0  0  0  0  0  0  0  0  0  0  0  0
   18.6200   73.5840    6.9390 H   0  0  0  0  0  0  0  0  0  0  0  0
   19.1510   72.0490   12.4780 H   0  0  0  0  0  0  0  0  0  0  0  0
   18.3680   73.2210   13.5660 H   0  0  0  0  0  0  0  0  0  0  0  0
   17.9500   70.3770   11.3380 H   0  0  0  0  0  0  0  0  0  0  0  0
   15.0060   70.4350   12.1620 H   0  0  0  0  0  0  0  0  0  0  0  0
   16.3190   70.0320    9.4510 H   0  0  0  0  0  0  0  0  0  0  0  0
   14.7840   69.1190    9.8910 H   0  0  0  0  0  0  0  0  0  0  0  0
   14.7740   70.9520    9.8130 H   0  0  0  0  0  0  0  0  0  0  0  0
   16.5490   68.1350   10.9700 H   0  0  0  0  0  0  0  0  0  0  0  0
   15.1660   68.0350   12.0910 H   0  0  0  0  0  0  0  0  0  0  0  0
   16.8250   68.5800   12.6830 H   0  0  0  0  0  0  0  0  0  0  0  0
  2  3  1  0  0  0  0
  2  1  1  0  0  0  0
  3 26  1  0  0  0  0
  4 18  1  0  0  0  0
  4  3  2  0  0  0  0
  5  4  1  0  0  0  0
  6  5  1  0  0  0  0
  6  7  1  0  0  0  0
  7  2  2  0  0  0  0
  8 12  1  0  0  0  0
  8  5  2  0  0  0  0
  9  8  1  0  0  0  0
 10  9  1  0  0  0  0
 10 11  1  0  0  0  0
 11 31  1  0  0  0  0
 11 12  1  0  0  0  0
 12 13  1  0  0  0  0
 13 14  2  0  0  0  0
 13 18  1  0  0  0  0
 14 15  1  0  0  0  0
 15 16  1  0  0  0  0
 15 19  1  0  0  0  0
 16 17  2  0  0  0  0
 18 16  1  0  0  0  0
 19 34  1  0  0  0  0
 20 19  1  0  0  0  0
 20 21  2  0  0  0  0
 22 20  1  0  0  0  0
 23 22  1  0  0  0  0
 23 25  1  0  0  0  0
 23 36  1  0  0  0  0
 24 23  1  0  0  0  0
 25 41  1  0  0  0  0
 25 42  1  0  0  0  0
 27  6  1  0  0  0  0
 28  7  1  0  0  0  0
 29 10  1  0  0  0  0
 30 10  1  0  0  0  0
 32 11  1  0  0  0  0
 33 19  1  0  0  0  0
 35 22  1  0  0  0  0
 37 24  1  0  0  0  0
 38 24  1  0  0  0  0
 39 24  1  0  0  0  0
 40 25  1  0  0  0  0
M  END
>  <Pose>
1

>  <Score>
-6.31

$$$$
