
 OpenBabel03222202113D

 38 42  0  0  1  0  0  0  0  0999 V2000
   19.1670   78.8030    9.3270 B   0  0  0  0  0  0  0  0  0  0  0  0
   20.0530   78.4890   10.9750 C   0  0  0  0  0  0  0  0  0  0  0  0
   19.7890   77.3380   11.6770 C   0  0  0  0  0  0  0  0  0  0  0  0
   20.4480   77.1350   12.8700 C   0  0  0  0  0  0  0  0  0  0  0  0
   21.3510   78.0450   13.3730 C   0  0  0  0  0  0  0  0  0  0  0  0
   21.6190   79.2080   12.6650 C   0  0  0  0  0  0  0  0  0  0  0  0
   20.9510   79.4100   11.4550 C   0  0  0  0  0  0  0  0  0  0  0  0
   22.0310   77.8210   14.6150 N   0  0  0  0  0  0  0  0  0  0  0  0
   21.3510   77.4880   15.8150 C   0  0  0  0  0  0  0  0  0  0  0  0
   20.1860   77.0270   15.8600 O   0  0  0  0  0  0  0  0  0  0  0  0
   22.2400   77.7740   16.9730 C   0  0  2  0  0  0  0  0  0  0  0  0
   21.9960   79.1340   17.5520 C   0  0  1  0  0  0  0  0  0  0  0  0
   23.2930   79.4530   18.0100 O   0  0  0  0  0  0  0  0  0  0  0  0
   23.9430   79.3720   16.7530 C   0  0  1  0  0  0  0  0  0  0  0  0
   23.6260   77.9710   16.3560 C   0  0  2  0  0  0  0  0  0  0  0  0
   23.4310   77.8820   14.8840 C   0  0  0  0  0  0  0  0  0  0  0  0
   24.3440   77.8660   14.0540 O   0  0  0  0  0  0  0  0  0  0  0  0
   23.0730   80.2910   15.9720 C   0  0  0  0  0  0  0  0  0  0  0  0
   21.8460   80.0850   16.4390 C   0  0  0  0  0  0  0  0  0  0  0  0
   20.9820   79.2000   18.6110 C   0  0  0  0  0  0  0  0  0  0  0  0
   19.7160   78.8940   18.1910 O   0  0  0  0  0  0  0  0  0  0  0  0
   18.9540   80.0360   18.2180 C   0  0  0  0  0  0  0  0  0  0  0  0
   19.8470   81.1280   18.7090 C   0  0  0  0  0  0  0  0  0  0  0  0
   20.9470   80.4440   19.2150 O   0  0  0  0  0  0  0  0  0  0  0  0
   19.0800   76.5840   11.3230 H   0  0  0  0  0  0  0  0  0  0  0  0
   20.2590   76.2240   13.4570 H   0  0  0  0  0  0  0  0  0  0  0  0
   22.3280   79.9100   13.0700 H   0  0  0  0  0  0  0  0  0  0  0  0
   21.1590   80.3150   10.9040 H   0  0  0  0  0  0  0  0  0  0  0  0
   22.2040   76.9630   17.6980 H   0  0  0  0  0  0  0  0  0  0  0  0
   24.9830   79.6430   16.7900 H   0  0  0  0  0  0  0  0  0  0  0  0
   24.3290   77.2200   16.7160 H   0  0  0  0  0  0  0  0  0  0  0  0
   23.4420   80.9550   15.2020 H   0  0  0  0  0  0  0  0  0  0  0  0
   20.9790   80.5740   16.0060 H   0  0  0  0  0  0  0  0  0  0  0  0
   21.2750   78.4670   19.4100 H   0  0  0  0  0  0  0  0  0  0  0  0
   18.0610   79.9560   18.8680 H   0  0  0  0  0  0  0  0  0  0  0  0
   18.6610   80.2740   17.1620 H   0  0  0  0  0  0  0  0  0  0  0  0
   19.3380   81.7230   19.5220 H   0  0  0  0  0  0  0  0  0  0  0  0
   20.1910   81.8180   17.8970 H   0  0  0  0  0  0  0  0  0  0  0  0
  1  2  1  0  0  0  0
  2  7  2  0  0  0  0
  2  3  1  0  0  0  0
  3  4  2  0  0  0  0
  4  5  1  0  0  0  0
  4 26  1  0  0  0  0
  5  8  1  0  0  0  0
  6 27  1  0  0  0  0
  6  5  2  0  0  0  0
  7  6  1  0  0  0  0
  8 16  1  0  0  0  0
  8  9  1  0  0  0  0
  9 10  2  0  0  0  0
  9 11  1  0  0  0  0
 11 12  1  0  0  0  0
 11 29  1  1  0  0  0
 12 13  1  0  0  0  0
 12 20  1  1  0  0  0
 14 30  1  1  0  0  0
 14 13  1  0  0  0  0
 15 31  1  1  0  0  0
 15 14  1  0  0  0  0
 15 11  1  0  0  0  0
 16 15  1  0  0  0  0
 17 16  2  0  0  0  0
 18 19  2  0  0  0  0
 18 14  1  0  0  0  0
 19 12  1  0  0  0  0
 20 24  1  0  0  0  0
 20 34  1  0  0  0  0
 21 22  1  0  0  0  0
 21 20  1  0  0  0  0
 22 23  1  0  0  0  0
 22 35  1  0  0  0  0
 23 24  1  0  0  0  0
 23 37  1  0  0  0  0
 25  3  1  0  0  0  0
 28  7  1  0  0  0  0
 32 18  1  0  0  0  0
 33 19  1  0  0  0  0
 36 22  1  0  0  0  0
 38 23  1  0  0  0  0
M  END
>  <Pose>
1

>  <Score>
-4.80

$$$$
