
 OpenBabel03162216093D

 38 42  0  0  1  0  0  0  0  0999 V2000
   18.2970   71.3300   12.2260 B   0  0  0  0  0  0  0  0  0  0  0  0
   18.8580   72.9170   13.1010 C   0  0  0  0  0  0  0  0  0  0  0  0
   18.1350   74.0730   12.9340 C   0  0  0  0  0  0  0  0  0  0  0  0
   18.5650   75.2110   13.5820 C   0  0  0  0  0  0  0  0  0  0  0  0
   19.6860   75.2210   14.3810 C   0  0  0  0  0  0  0  0  0  0  0  0
   20.4170   74.0530   14.5510 C   0  0  0  0  0  0  0  0  0  0  0  0
   19.9780   72.9020   13.8940 C   0  0  0  0  0  0  0  0  0  0  0  0
   20.1210   76.4110   15.0520 N   0  0  0  0  0  0  0  0  0  0  0  0
   21.2100   77.1980   14.5940 C   0  0  0  0  0  0  0  0  0  0  0  0
   21.6680   77.1550   13.4270 O   0  0  0  0  0  0  0  0  0  0  0  0
   21.6930   78.0550   15.7090 C   0  0  2  0  0  0  0  0  0  0  0  0
   22.8340   77.4280   16.4510 C   0  0  1  0  0  0  0  0  0  0  0  0
   22.6070   77.9410   17.7480 O   0  0  0  0  0  0  0  0  0  0  0  0
   21.3130   77.3880   17.9250 C   0  0  1  0  0  0  0  0  0  0  0  0
   20.5890   77.9760   16.7640 C   0  0  2  0  0  0  0  0  0  0  0  0
   19.5900   77.0090   16.2340 C   0  0  0  0  0  0  0  0  0  0  0  0
   18.4920   76.7780   16.7470 O   0  0  0  0  0  0  0  0  0  0  0  0
   21.6150   75.9650   17.6200 C   0  0  0  0  0  0  0  0  0  0  0  0
   22.5230   76.0040   16.6500 C   0  0  0  0  0  0  0  0  0  0  0  0
   24.1730   77.7410   15.9380 C   0  0  0  0  0  0  0  0  0  0  0  0
   25.1620   77.6660   16.8800 O   0  0  0  0  0  0  0  0  0  0  0  0
   25.6200   78.9340   17.1410 C   0  0  0  0  0  0  0  0  0  0  0  0
   24.8370   79.8550   16.2660 C   0  0  0  0  0  0  0  0  0  0  0  0
   24.2240   78.9970   15.3600 O   0  0  0  0  0  0  0  0  0  0  0  0
   17.2380   74.1200   12.3100 H   0  0  0  0  0  0  0  0  0  0  0  0
   18.0090   76.1540   13.4690 H   0  0  0  0  0  0  0  0  0  0  0  0
   21.2910   74.0760   15.1790 H   0  0  0  0  0  0  0  0  0  0  0  0
   20.5480   71.9930   14.0260 H   0  0  0  0  0  0  0  0  0  0  0  0
   21.8850   79.0690   15.3620 H   0  0  0  0  0  0  0  0  0  0  0  0
   20.8990   77.5720   18.9010 H   0  0  0  0  0  0  0  0  0  0  0  0
   20.1440   78.9550   16.9450 H   0  0  0  0  0  0  0  0  0  0  0  0
   21.1490   75.1310   18.1280 H   0  0  0  0  0  0  0  0  0  0  0  0
   22.8880   75.1020   16.1700 H   0  0  0  0  0  0  0  0  0  0  0  0
   24.4070   77.0050   15.1230 H   0  0  0  0  0  0  0  0  0  0  0  0
   26.7040   79.0610   16.9500 H   0  0  0  0  0  0  0  0  0  0  0  0
   25.3720   79.1720   18.2080 H   0  0  0  0  0  0  0  0  0  0  0  0
   25.5220   80.5770   15.7320 H   0  0  0  0  0  0  0  0  0  0  0  0
   24.0460   80.4250   16.8170 H   0  0  0  0  0  0  0  0  0  0  0  0
  1  2  1  0  0  0  0
  2  7  1  0  0  0  0
  3  2  2  0  0  0  0
  3  4  1  0  0  0  0
  4  5  2  0  0  0  0
  5  6  1  0  0  0  0
  5  8  1  0  0  0  0
  6 27  1  0  0  0  0
  7 28  1  0  0  0  0
  7  6  2  0  0  0  0
  8 16  1  0  0  0  0
  9  8  1  0  0  0  0
  9 11  1  0  0  0  0
 10  9  2  0  0  0  0
 11 29  1  6  0  0  0
 11 12  1  0  0  0  0
 11 15  1  0  0  0  0
 12 20  1  6  0  0  0
 12 19  1  0  0  0  0
 12 13  1  0  0  0  0
 13 14  1  0  0  0  0
 14 30  1  1  0  0  0
 15 31  1  1  0  0  0
 15 14  1  0  0  0  0
 16 17  2  0  0  0  0
 16 15  1  0  0  0  0
 18 14  1  0  0  0  0
 18 32  1  0  0  0  0
 19 18  2  0  0  0  0
 20 21  1  0  0  0  0
 21 22  1  0  0  0  0
 22 36  1  0  0  0  0
 23 38  1  0  0  0  0
 23 22  1  0  0  0  0
 24 20  1  0  0  0  0
 24 23  1  0  0  0  0
 25  3  1  0  0  0  0
 26  4  1  0  0  0  0
 33 19  1  0  0  0  0
 34 20  1  0  0  0  0
 35 22  1  0  0  0  0
 37 23  1  0  0  0  0
M  END
>  <Pose>
1

>  <Score>
-4.12

$$$$
