
 OpenBabel03222202113D

 57 60  0  0  1  0  0  0  0  0999 V2000
   19.0840   77.9370    8.3450 S   0  0  0  0  0  0  0  0  0  0  0  0
   19.5370   77.9610    6.9130 O   0  0  0  0  0  0  0  0  0  0  0  0
   17.6870   78.5190    8.3470 O   0  0  0  0  0  0  0  0  0  0  0  0
   20.0480   78.9640    9.3320 N   0  0  0  0  0  0  0  0  0  0  0  0
   19.2300   79.8440   10.1280 C   0  0  0  0  0  0  0  0  0  0  0  0
   20.1090   80.4450   11.2000 C   0  0  0  0  0  0  0  0  0  0  0  0
   21.4900   80.1670   10.8970 N   0  0  0  0  0  0  0  0  0  0  0  0
   22.0100   80.2670    9.5390 C   0  0  0  0  0  0  0  0  0  0  0  0
   20.9470   79.7860    8.5480 C   0  0  0  0  0  0  0  0  0  0  0  0
   22.3670   79.7800   11.9260 C   0  0  0  0  0  0  0  0  0  0  0  0
   23.3240   78.9740   11.6550 O   0  0  0  0  0  0  0  0  0  0  0  0
   22.1850   80.2950   13.3100 C   0  0  1  0  0  0  0  0  0  0  0  0
   21.5860   79.2760   14.2360 C   0  0  0  0  0  0  0  0  0  0  0  0
   22.6950   78.7920   15.0530 N   0  0  0  0  0  0  0  0  0  0  0  0
   23.9020   79.3960   14.6270 C   0  0  0  0  0  0  0  0  0  0  0  0
   25.0450   78.9180   14.8230 O   0  0  0  0  0  0  0  0  0  0  0  0
   23.5040   80.6450   13.9410 C   0  0  0  0  0  0  0  0  0  0  0  0
   22.5650   77.8360   16.1290 C   0  0  0  0  0  0  0  0  0  0  0  0
   21.4610   78.1910   17.0520 C   0  0  0  0  0  0  0  0  0  0  0  0
   20.2570   77.5100   16.9600 C   0  0  0  0  0  0  0  0  0  0  0  0
   19.1810   77.7880   17.7880 C   0  0  0  0  0  0  0  0  0  0  0  0
   19.3490   78.7850   18.7260 C   0  0  0  0  0  0  0  0  0  0  0  0
   20.5370   79.4840   18.8450 C   0  0  0  0  0  0  0  0  0  0  0  0
   21.6040   79.1830   17.9990 C   0  0  0  0  0  0  0  0  0  0  0  0
   20.1080   76.2620   15.7540 Cl  0  0  0  0  0  0  0  0  0  0  0  0
   19.0180   76.3190    8.9750 C   0  0  0  0  0  0  0  0  0  0  0  0
   19.1980   75.8420   10.2540 C   0  0  0  0  0  0  0  0  0  0  0  0
   19.0480   74.4830   10.2130 N   0  0  0  0  0  0  0  0  0  0  0  0
   18.7960   74.1570    9.0010 O   0  0  0  0  0  0  0  0  0  0  0  0
   18.7630   75.2000    8.2070 C   0  0  0  0  0  0  0  0  0  0  0  0
   18.4920   75.1120    6.7550 C   0  0  0  0  0  0  0  0  0  0  0  0
   19.4900   76.6720   11.4390 C   0  0  0  0  0  0  0  0  0  0  0  0
   18.8310   80.7010    9.5190 H   0  0  0  0  0  0  0  0  0  0  0  0
   18.3470   79.3290   10.5590 H   0  0  0  0  0  0  0  0  0  0  0  0
   19.9300   81.5470   11.2970 H   0  0  0  0  0  0  0  0  0  0  0  0
   19.8560   79.9540   12.1540 H   0  0  0  0  0  0  0  0  0  0  0  0
   22.3490   81.2980    9.3280 H   0  0  0  0  0  0  0  0  0  0  0  0
   22.8970   79.6100    9.4820 H   0  0  0  0  0  0  0  0  0  0  0  0
   21.4460   79.2590    7.7380 H   0  0  0  0  0  0  0  0  0  0  0  0
   20.4650   80.7010    8.1470 H   0  0  0  0  0  0  0  0  0  0  0  0
   21.5320   81.2190   13.2540 H   0  0  0  0  0  0  0  0  0  0  0  0
   20.8050   79.7670   14.8700 H   0  0  0  0  0  0  0  0  0  0  0  0
   21.1260   78.3980   13.6890 H   0  0  0  0  0  0  0  0  0  0  0  0
   24.2570   80.9600   13.1870 H   0  0  0  0  0  0  0  0  0  0  0  0
   23.3300   81.4360   14.7040 H   0  0  0  0  0  0  0  0  0  0  0  0
   23.4990   77.7150   16.7150 H   0  0  0  0  0  0  0  0  0  0  0  0
   22.2930   76.8430   15.6830 H   0  0  0  0  0  0  0  0  0  0  0  0
   18.2700   77.2220   17.6650 H   0  0  0  0  0  0  0  0  0  0  0  0
   18.5140   79.0250   19.3930 H   0  0  0  0  0  0  0  0  0  0  0  0
   20.6230   80.2540   19.5920 H   0  0  0  0  0  0  0  0  0  0  0  0
   22.5300   79.7290   18.0900 H   0  0  0  0  0  0  0  0  0  0  0  0
   18.6480   76.1170    6.3110 H   0  0  0  0  0  0  0  0  0  0  0  0
   19.2820   74.4260    6.3320 H   0  0  0  0  0  0  0  0  0  0  0  0
   17.5020   74.6890    6.5730 H   0  0  0  0  0  0  0  0  0  0  0  0
   19.1380   76.0660   12.3280 H   0  0  0  0  0  0  0  0  0  0  0  0
   20.5540   76.8510   11.6150 H   0  0  0  0  0  0  0  0  0  0  0  0
   18.9230   77.6450   11.4170 H   0  0  0  0  0  0  0  0  0  0  0  0
  1  3  2  0  0  0  0
  1 26  1  0  0  0  0
  1  4  1  0  0  0  0
  2  1  2  0  0  0  0
  4  5  1  0  0  0  0
  5 34  1  0  0  0  0
  5  6  1  0  0  0  0
  6 35  1  0  0  0  0
  6 36  1  0  0  0  0
  7  6  1  0  0  0  0
  7 10  1  0  0  0  0
  8  7  1  0  0  0  0
  9  4  1  0  0  0  0
  9  8  1  0  0  0  0
 10 12  1  0  0  0  0
 11 10  2  0  0  0  0
 12 41  1  6  0  0  0
 12 17  1  0  0  0  0
 12 13  1  0  0  0  0
 13 42  1  0  0  0  0
 13 14  1  0  0  0  0
 14 18  1  0  0  0  0
 15 16  2  0  0  0  0
 15 14  1  0  0  0  0
 17 15  1  0  0  0  0
 17 45  1  0  0  0  0
 18 46  1  0  0  0  0
 18 19  1  0  0  0  0
 19 24  1  0  0  0  0
 20 19  2  0  0  0  0
 20 21  1  0  0  0  0
 21 22  2  0  0  0  0
 22 23  1  0  0  0  0
 22 49  1  0  0  0  0
 23 50  1  0  0  0  0
 24 51  1  0  0  0  0
 24 23  2  0  0  0  0
 25 20  1  0  0  0  0
 26 27  1  0  0  0  0
 27 32  1  0  0  0  0
 28 27  2  0  0  0  0
 29 28  1  0  0  0  0
 30 26  2  0  0  0  0
 30 29  1  0  0  0  0
 31 30  1  0  0  0  0
 32 56  1  0  0  0  0
 32 55  1  0  0  0  0
 33  5  1  0  0  0  0
 37  8  1  0  0  0  0
 38  8  1  0  0  0  0
 39  9  1  0  0  0  0
 40  9  1  0  0  0  0
 43 13  1  0  0  0  0
 44 17  1  0  0  0  0
 47 18  1  0  0  0  0
 48 21  1  0  0  0  0
 52 31  1  0  0  0  0
 53 31  1  0  0  0  0
 54 31  1  0  0  0  0
 57 32  1  0  0  0  0
M  END
>  <Pose>
1

>  <Score>
-7.04

$$$$
