
 OpenBabel03222202113D

 35 38  0  0  1  0  0  0  0  0999 V2000
   17.9090   70.6810   11.8730 Cl  0  0  0  0  0  0  0  0  0  0  0  0
   18.1120   72.2560   12.6340 C   0  0  0  0  0  0  0  0  0  0  0  0
   17.0130   73.0800   12.7360 C   0  0  0  0  0  0  0  0  0  0  0  0
   17.1790   74.2780   13.3180 N   0  0  0  0  0  0  0  0  0  0  0  0
   18.3760   74.7000   13.8030 C   0  0  0  0  0  0  0  0  0  0  0  0
   19.4540   73.9040   13.7090 N   0  0  0  0  0  0  0  0  0  0  0  0
   20.4960   74.5310   14.2480 N   0  0  0  0  0  0  0  0  0  0  0  0
   20.1220   75.7440   14.7040 C   0  0  0  0  0  0  0  0  0  0  0  0
   18.7990   75.8210   14.4130 N   0  0  0  0  0  0  0  0  0  0  0  0
   20.9320   76.7250   15.3450 N   0  0  0  0  0  0  0  0  0  0  0  0
   21.7540   77.6830   14.6920 C   0  0  0  0  0  0  0  0  0  0  0  0
   21.6860   78.0850   13.5010 O   0  0  0  0  0  0  0  0  0  0  0  0
   22.7810   78.1930   15.6630 C   0  0  2  0  0  0  0  0  0  0  0  0
   22.3370   77.7190   17.0000 C   0  0  1  0  0  0  0  0  0  0  0  0
   21.9610   78.8290   17.9660 C   0  0  0  0  0  0  0  0  0  0  0  0
   21.0250   79.7350   17.2260 C   0  0  0  0  0  0  0  0  0  0  0  0
   21.4610   80.1600   16.0540 C   0  0  0  0  0  0  0  0  0  0  0  0
   22.7980   79.7050   15.6050 C   0  0  0  0  0  0  0  0  0  0  0  0
   21.0990   76.9630   16.7340 C   0  0  0  0  0  0  0  0  0  0  0  0
   20.2760   76.5670   17.6220 O   0  0  0  0  0  0  0  0  0  0  0  0
   19.3240   72.6870   13.1270 C   0  0  0  0  0  0  0  0  0  0  0  0
   20.3430   71.9320   13.0370 O   0  0  0  0  0  0  0  0  0  0  0  0
   15.6830   72.6290   12.2040 C   0  0  0  0  0  0  0  0  0  0  0  0
   16.3470   74.9090   13.3980 H   0  0  0  0  0  0  0  0  0  0  0  0
   23.7790   77.7970   15.3660 H   0  0  0  0  0  0  0  0  0  0  0  0
   23.1390   77.0770   17.4240 H   0  0  0  0  0  0  0  0  0  0  0  0
   21.4330   78.3870   18.8300 H   0  0  0  0  0  0  0  0  0  0  0  0
   22.8690   79.3850   18.2540 H   0  0  0  0  0  0  0  0  0  0  0  0
   20.0710   79.9970   17.6590 H   0  0  0  0  0  0  0  0  0  0  0  0
   20.8680   80.8120   15.4450 H   0  0  0  0  0  0  0  0  0  0  0  0
   22.9950   80.0630   14.5670 H   0  0  0  0  0  0  0  0  0  0  0  0
   23.5850   80.0780   16.3040 H   0  0  0  0  0  0  0  0  0  0  0  0
   15.7290   72.4410   11.1250 H   0  0  0  0  0  0  0  0  0  0  0  0
   15.3450   71.7090   12.7470 H   0  0  0  0  0  0  0  0  0  0  0  0
   14.9110   73.4080   12.3660 H   0  0  0  0  0  0  0  0  0  0  0  0
  1  2  1  0  0  0  0
  2  3  2  0  0  0  0
  2 21  1  0  0  0  0
  3  4  1  0  0  0  0
  4 24  1  0  0  0  0
  4  5  1  0  0  0  0
  5  9  2  0  0  0  0
  6  5  1  0  0  0  0
  6  7  1  0  0  0  0
  7  8  2  0  0  0  0
  8 10  1  0  0  0  0
  9  8  1  0  0  0  0
 10 19  1  0  0  0  0
 11 10  1  0  0  0  0
 11 13  1  0  0  0  0
 12 11  2  0  0  0  0
 13 25  1  6  0  0  0
 13 14  1  0  0  0  0
 14 26  1  1  0  0  0
 14 15  1  0  0  0  0
 15 28  1  0  0  0  0
 15 27  1  0  0  0  0
 16 29  1  0  0  0  0
 16 15  1  0  0  0  0
 17 16  2  0  0  0  0
 18 13  1  0  0  0  0
 18 17  1  0  0  0  0
 18 32  1  0  0  0  0
 19 14  1  0  0  0  0
 19 20  2  0  0  0  0
 21  6  1  0  0  0  0
 22 21  2  0  0  0  0
 23 35  1  0  0  0  0
 23  3  1  0  0  0  0
 23 34  1  0  0  0  0
 30 17  1  0  0  0  0
 31 18  1  0  0  0  0
 33 23  1  0  0  0  0
M  END
>  <Pose>
1

>  <Score>
-6.86

$$$$
