
 OpenBabel03222202113D

 51 54  0  0  1  0  0  0  0  0999 V2000
   19.3860   78.6610    8.3100 Cl  0  0  0  0  0  0  0  0  0  0  0  0
   20.8380   79.0260    9.2160 C   0  0  0  0  0  0  0  0  0  0  0  0
   20.7920   79.6770   10.4280 C   0  0  0  0  0  0  0  0  0  0  0  0
   21.9700   79.9700   11.1480 C   0  0  0  0  0  0  0  0  0  0  0  0
   23.1400   79.5690   10.5710 C   0  0  0  0  0  0  0  0  0  0  0  0
   23.1910   78.9020    9.3310 C   0  0  0  0  0  0  0  0  0  0  0  0
   22.0300   78.6320    8.6540 C   0  0  0  0  0  0  0  0  0  0  0  0
   21.8470   80.6340   12.3850 N   0  0  0  0  0  0  0  0  0  0  0  0
   22.3510   80.2010   13.6010 C   0  0  0  0  0  0  0  0  0  0  0  0
   22.2790   80.8640   14.6410 O   0  0  0  0  0  0  0  0  0  0  0  0
   23.0420   78.8610   13.7430 C   0  0  0  0  0  0  0  0  0  0  0  0
   22.0330   77.8580   14.1130 N   0  0  0  0  0  0  0  0  0  0  0  0
   21.3580   77.8320   15.3010 C   0  0  1  0  0  0  0  0  0  0  0  0
   20.5000   76.7990   15.2970 N   0  0  0  0  0  0  0  0  0  0  0  0
   20.5820   76.1290   14.1400 C   0  0  0  0  0  0  0  0  0  0  0  0
   21.5610   76.8240   13.4140 C   0  0  0  0  0  0  0  0  0  0  0  0
   19.8820   74.9610   13.6320 C   0  0  0  0  0  0  0  0  0  0  0  0
   18.7720   75.0520   12.8370 C   0  0  0  0  0  0  0  0  0  0  0  0
   18.1070   73.9500   12.3300 C   0  0  0  0  0  0  0  0  0  0  0  0
   18.5460   72.6660   12.6130 C   0  0  0  0  0  0  0  0  0  0  0  0
   19.6610   72.5720   13.4100 C   0  0  0  0  0  0  0  0  0  0  0  0
   20.3250   73.6720   13.9170 C   0  0  0  0  0  0  0  0  0  0  0  0
   17.9060   71.5400   12.1240 O   0  0  0  0  0  0  0  0  0  0  0  0
   16.5480   71.2480   12.4000 C   0  0  0  0  0  0  0  0  0  0  0  0
   19.7760   76.7870   16.5680 C   0  0  0  0  0  0  0  0  0  0  0  0
   20.0060   78.1600   17.1680 C   0  0  0  0  0  0  0  0  0  0  0  0
   21.3040   78.5850   16.5800 C   0  0  0  0  0  0  0  0  0  0  0  0
   19.4840   80.0710   10.9810 C   0  0  0  0  0  0  0  0  0  0  0  0
   24.0820   79.7570   11.0580 H   0  0  0  0  0  0  0  0  0  0  0  0
   24.1290   78.5900    8.8900 H   0  0  0  0  0  0  0  0  0  0  0  0
   22.0660   78.1090    7.6870 H   0  0  0  0  0  0  0  0  0  0  0  0
   21.3150   81.5570   12.3950 H   0  0  0  0  0  0  0  0  0  0  0  0
   23.4170   78.6010   12.7410 H   0  0  0  0  0  0  0  0  0  0  0  0
   23.8010   78.8880   14.5310 H   0  0  0  0  0  0  0  0  0  0  0  0
   21.9050   76.5590   12.4120 H   0  0  0  0  0  0  0  0  0  0  0  0
   18.4180   76.0720   12.6170 H   0  0  0  0  0  0  0  0  0  0  0  0
   17.2290   74.1010   11.7060 H   0  0  0  0  0  0  0  0  0  0  0  0
   20.0180   71.5630   13.6420 H   0  0  0  0  0  0  0  0  0  0  0  0
   21.2060   73.5680   14.5520 H   0  0  0  0  0  0  0  0  0  0  0  0
   16.4290   70.8010   13.4160 H   0  0  0  0  0  0  0  0  0  0  0  0
   15.8790   72.1150   12.3050 H   0  0  0  0  0  0  0  0  0  0  0  0
   16.2070   70.4900   11.6660 H   0  0  0  0  0  0  0  0  0  0  0  0
   20.0780   75.9690   17.2230 H   0  0  0  0  0  0  0  0  0  0  0  0
   18.6730   76.7340   16.4190 H   0  0  0  0  0  0  0  0  0  0  0  0
   19.9730   78.1380   18.2650 H   0  0  0  0  0  0  0  0  0  0  0  0
   19.2290   78.8740   16.7550 H   0  0  0  0  0  0  0  0  0  0  0  0
   21.3760   79.6780   16.3940 H   0  0  0  0  0  0  0  0  0  0  0  0
   22.1460   78.2480   17.2470 H   0  0  0  0  0  0  0  0  0  0  0  0
   18.6890   79.8330   10.2520 H   0  0  0  0  0  0  0  0  0  0  0  0
   19.2380   79.4640   11.9010 H   0  0  0  0  0  0  0  0  0  0  0  0
   19.4150   81.1330   11.2770 H   0  0  0  0  0  0  0  0  0  0  0  0
  1  2  1  0  0  0  0
  2  3  1  0  0  0  0
  3 28  1  0  0  0  0
  3  4  2  0  0  0  0
  4  8  1  0  0  0  0
  5 29  1  0  0  0  0
  5  4  1  0  0  0  0
  6  5  2  0  0  0  0
  7  2  2  0  0  0  0
  7  6  1  0  0  0  0
  8 32  1  0  0  0  0
  8  9  1  0  0  0  0
  9 11  1  0  0  0  0
  9 10  2  0  0  0  0
 11 12  1  0  0  0  0
 11 34  1  0  0  0  0
 13 12  1  1  0  0  0
 13 27  1  0  0  0  0
 14 13  1  0  0  0  0
 14 25  1  0  0  0  0
 15 14  1  0  0  0  0
 16 12  1  0  0  0  0
 16 15  2  0  0  0  0
 17 22  1  0  0  0  0
 17 15  1  0  0  0  0
 18 17  2  0  0  0  0
 19 20  2  0  0  0  0
 19 18  1  0  0  0  0
 20 21  1  0  0  0  0
 21 38  1  0  0  0  0
 21 22  2  0  0  0  0
 22 39  1  0  0  0  0
 23 24  1  0  0  0  0
 23 20  1  0  0  0  0
 24 40  1  0  0  0  0
 25 26  1  0  0  0  0
 25 43  1  0  0  0  0
 26 45  1  0  0  0  0
 27 26  1  0  0  0  0
 27 48  1  0  0  0  0
 28 51  1  0  0  0  0
 28 50  1  0  0  0  0
 30  6  1  0  0  0  0
 31  7  1  0  0  0  0
 33 11  1  0  0  0  0
 35 16  1  0  0  0  0
 36 18  1  0  0  0  0
 37 19  1  0  0  0  0
 41 24  1  0  0  0  0
 42 24  1  0  0  0  0
 44 25  1  0  0  0  0
 46 26  1  0  0  0  0
 47 27  1  0  0  0  0
 49 28  1  0  0  0  0
M  END
>  <Pose>
1

>  <Score>
-6.69

$$$$
