
 OpenBabel03222202113D

 47 50  0  0  1  0  0  0  0  0999 V2000
   15.9480   74.3620   11.7310 Cl  0  0  0  0  0  0  0  0  0  0  0  0
   16.9730   73.0580   12.2850 C   0  0  0  0  0  0  0  0  0  0  0  0
   18.2210   73.3760   12.7750 C   0  0  0  0  0  0  0  0  0  0  0  0
   19.0250   72.3450   13.2110 C   0  0  0  0  0  0  0  0  0  0  0  0
   18.6040   71.0230   13.1620 C   0  0  0  0  0  0  0  0  0  0  0  0
   17.3550   70.6960   12.6730 C   0  0  0  0  0  0  0  0  0  0  0  0
   16.5520   71.7270   12.2370 C   0  0  0  0  0  0  0  0  0  0  0  0
   20.6200   72.7440   13.8380 Cl  0  0  0  0  0  0  0  0  0  0  0  0
   18.6860   74.7650   12.8350 C   0  0  0  0  0  0  0  0  0  0  0  0
   19.7720   75.0970   13.4300 N   0  0  0  0  0  0  0  0  0  0  0  0
   20.1420   76.4440   13.4410 N   0  0  0  0  0  0  0  0  0  0  0  0
   20.6050   77.0940   14.6160 C   0  0  0  0  0  0  0  0  0  0  0  0
   21.4940   78.0980   14.6540 N   0  0  0  0  0  0  0  0  0  0  0  0
   21.6460   78.4110   15.9520 C   0  0  0  0  0  0  0  0  0  0  0  0
   22.4020   79.3330   16.5970 N   0  0  0  0  0  0  0  0  0  0  0  0
   22.3820   79.4560   17.9380 C   0  0  0  0  0  0  0  0  0  0  0  0
   21.5940   78.6490   18.6800 N   0  0  0  0  0  0  0  0  0  0  0  0
   20.8140   77.7090   18.1130 C   0  0  0  0  0  0  0  0  0  0  0  0
   20.8520   77.6020   16.7370 C   0  0  0  0  0  0  0  0  0  0  0  0
   20.2080   76.7830   15.8730 N   0  0  0  0  0  0  0  0  0  0  0  0
   19.9990   76.8790   18.9170 N   0  0  0  0  0  0  0  0  0  0  0  0
   22.1870   78.7620   13.5880 C   0  0  1  0  0  0  0  0  0  0  0  0
   21.9320   78.1910   12.3440 O   0  0  0  0  0  0  0  0  0  0  0  0
   22.4170   79.1770   11.4850 C   0  0  2  0  0  0  0  0  0  0  0  0
   21.6420   80.3910   11.9730 C   0  0  1  0  0  0  0  0  0  0  0  0
   21.7570   80.2140   13.4740 C   0  0  2  0  0  0  0  0  0  0  0  0
   22.7620   81.0790   13.9110 O   0  0  0  0  0  0  0  0  0  0  0  0
   22.2190   81.5790   11.5460 O   0  0  0  0  0  0  0  0  0  0  0  0
   22.1330   78.8770   10.0380 C   0  0  0  0  0  0  0  0  0  0  0  0
   23.1680   79.2160    9.2030 O   0  0  0  0  0  0  0  0  0  0  0  0
   19.2290   70.2090   13.5020 H   0  0  0  0  0  0  0  0  0  0  0  0
   16.9840   69.6820   12.6160 H   0  0  0  0  0  0  0  0  0  0  0  0
   15.5580   71.4930   11.8450 H   0  0  0  0  0  0  0  0  0  0  0  0
   18.1030   75.5410   12.3670 H   0  0  0  0  0  0  0  0  0  0  0  0
   20.0600   76.9590   12.5320 H   0  0  0  0  0  0  0  0  0  0  0  0
   22.9820   80.1890   18.4600 H   0  0  0  0  0  0  0  0  0  0  0  0
   20.3990   76.1410   19.5230 H   0  0  0  0  0  0  0  0  0  0  0  0
   18.9720   77.0120   18.8990 H   0  0  0  0  0  0  0  0  0  0  0  0
   23.2920   78.7550   13.7170 H   0  0  0  0  0  0  0  0  0  0  0  0
   23.4700   79.3350   11.7040 H   0  0  0  0  0  0  0  0  0  0  0  0
   20.5690   80.3060   11.6520 H   0  0  0  0  0  0  0  0  0  0  0  0
   20.7980   80.4010   13.9960 H   0  0  0  0  0  0  0  0  0  0  0  0
   22.5360   82.0180   13.7530 H   0  0  0  0  0  0  0  0  0  0  0  0
   21.4830   82.2320   11.4010 H   0  0  0  0  0  0  0  0  0  0  0  0
   21.2260   79.4570    9.7600 H   0  0  0  0  0  0  0  0  0  0  0  0
   21.8370   77.8080    9.9810 H   0  0  0  0  0  0  0  0  0  0  0  0
   23.5550   78.4320    8.7550 H   0  0  0  0  0  0  0  0  0  0  0  0
  1  2  1  0  0  0  0
  2  3  1  0  0  0  0
  3  9  1  0  0  0  0
  3  4  2  0  0  0  0
  4  8  1  0  0  0  0
  5  4  1  0  0  0  0
  5 31  1  0  0  0  0
  6  5  2  0  0  0  0
  7  2  2  0  0  0  0
  7  6  1  0  0  0  0
  9 10  2  0  0  0  0
 10 11  1  0  0  0  0
 11 12  1  0  0  0  0
 12 13  1  0  0  0  0
 12 20  2  0  0  0  0
 13 14  1  0  0  0  0
 14 15  1  0  0  0  0
 14 19  2  0  0  0  0
 15 16  2  0  0  0  0
 16 36  1  0  0  0  0
 16 17  1  0  0  0  0
 18 17  2  0  0  0  0
 18 21  1  0  0  0  0
 19 18  1  0  0  0  0
 20 19  1  0  0  0  0
 21 37  1  0  0  0  0
 22 39  1  1  0  0  0
 22 13  1  0  0  0  0
 23 22  1  0  0  0  0
 24 40  1  1  0  0  0
 24 25  1  0  0  0  0
 24 23  1  0  0  0  0
 25 41  1  6  0  0  0
 25 26  1  0  0  0  0
 26 22  1  0  0  0  0
 26 27  1  0  0  0  0
 26 42  1  1  0  0  0
 28 25  1  0  0  0  0
 29 24  1  0  0  0  0
 30 29  1  0  0  0  0
 32  6  1  0  0  0  0
 33  7  1  0  0  0  0
 34  9  1  0  0  0  0
 35 11  1  0  0  0  0
 38 21  1  0  0  0  0
 43 27  1  0  0  0  0
 44 28  1  0  0  0  0
 45 29  1  0  0  0  0
 46 29  1  0  0  0  0
 47 30  1  0  0  0  0
M  END
>  <Pose>
1

>  <Score>
-7.60

$$$$
