
 OpenBabel03222202113D

 49 52  0  0  1  0  0  0  0  0999 V2000
   16.9520   75.0670    3.9120 Cl  0  0  0  0  0  0  0  0  0  0  0  0
   17.5570   75.4340    5.5140 C   0  0  0  0  0  0  0  0  0  0  0  0
   17.2790   76.6440    6.1320 C   0  0  0  0  0  0  0  0  0  0  0  0
   17.7650   76.9060    7.3870 C   0  0  0  0  0  0  0  0  0  0  0  0
   18.5530   75.9910    8.1000 C   0  0  0  0  0  0  0  0  0  0  0  0
   18.8150   74.8070    7.4690 C   0  0  0  0  0  0  0  0  0  0  0  0
   18.3280   74.5270    6.1990 C   0  0  0  0  0  0  0  0  0  0  0  0
   19.0370   76.3170    9.3840 N   0  0  0  0  0  0  0  0  0  0  0  0
   19.4630   77.5610    9.8600 C   0  0  0  0  0  0  0  0  0  0  0  0
   19.1250   77.9420   11.0090 O   0  0  0  0  0  0  0  0  0  0  0  0
   20.3250   78.4820    9.0280 C   0  0  0  0  0  0  0  0  0  0  0  0
   21.2620   79.1040    9.9460 N   0  0  0  0  0  0  0  0  0  0  0  0
   22.6530   78.8900    9.4930 C   0  0  0  0  0  0  0  0  0  0  0  0
   23.4470   79.0240   10.8090 C   0  0  0  0  0  0  0  0  0  0  0  0
   22.7140   80.0750   11.5310 N   0  0  0  0  0  0  0  0  0  0  0  0
   22.2380   81.1470   10.7160 C   0  0  0  0  0  0  0  0  0  0  0  0
   21.0690   80.5730    9.8990 C   0  0  0  0  0  0  0  0  0  0  0  0
   22.5300   79.9390   12.9150 C   0  0  2  0  0  0  0  0  0  0  0  0
   22.9290   80.9330   13.7660 N   0  0  0  0  0  0  0  0  0  0  0  0
   22.8000   80.8720   15.0910 C   0  0  0  0  0  0  0  0  0  0  0  0
   22.2530   79.7880   15.6490 N   0  0  0  0  0  0  0  0  0  0  0  0
   21.8250   78.7570   14.9280 C   0  0  0  0  0  0  0  0  0  0  0  0
   21.2550   77.5730   15.2270 N   0  0  0  0  0  0  0  0  0  0  0  0
   21.0540   76.9570   14.0900 N   0  0  0  0  0  0  0  0  0  0  0  0
   21.4750   77.6990   13.0770 N   0  0  0  0  0  0  0  0  0  0  0  0
   21.9670   78.8330   13.5380 C   0  0  0  0  0  0  0  0  0  0  0  0
   20.9120   77.0380   16.5310 C   0  0  0  0  0  0  0  0  0  0  0  0
   19.4340   77.1900   16.8190 C   0  0  0  0  0  0  0  0  0  0  0  0
   16.6710   77.3490    5.5860 H   0  0  0  0  0  0  0  0  0  0  0  0
   17.5390   77.8520    7.8510 H   0  0  0  0  0  0  0  0  0  0  0  0
   19.4140   74.0340    7.9150 H   0  0  0  0  0  0  0  0  0  0  0  0
   18.5710   73.5620    5.7480 H   0  0  0  0  0  0  0  0  0  0  0  0
   19.1090   75.5020   10.0710 H   0  0  0  0  0  0  0  0  0  0  0  0
   20.7880   77.8790    8.2450 H   0  0  0  0  0  0  0  0  0  0  0  0
   19.6080   79.2040    8.5880 H   0  0  0  0  0  0  0  0  0  0  0  0
   23.0100   79.6940    8.8380 H   0  0  0  0  0  0  0  0  0  0  0  0
   22.7820   77.9320    9.0110 H   0  0  0  0  0  0  0  0  0  0  0  0
   23.3520   78.0370   11.2940 H   0  0  0  0  0  0  0  0  0  0  0  0
   24.4820   79.3010   10.6280 H   0  0  0  0  0  0  0  0  0  0  0  0
   23.0370   81.4950   10.0090 H   0  0  0  0  0  0  0  0  0  0  0  0
   21.8310   81.9940   11.2750 H   0  0  0  0  0  0  0  0  0  0  0  0
   20.1200   80.8800   10.3110 H   0  0  0  0  0  0  0  0  0  0  0  0
   21.1530   80.9540    8.8580 H   0  0  0  0  0  0  0  0  0  0  0  0
   23.1480   81.7180   15.7030 H   0  0  0  0  0  0  0  0  0  0  0  0
   21.1880   75.9640   16.5490 H   0  0  0  0  0  0  0  0  0  0  0  0
   21.4630   77.5240   17.3600 H   0  0  0  0  0  0  0  0  0  0  0  0
   18.9320   76.2840   16.4130 H   0  0  0  0  0  0  0  0  0  0  0  0
   19.3200   77.2800   17.9160 H   0  0  0  0  0  0  0  0  0  0  0  0
   19.0340   78.1290   16.3630 H   0  0  0  0  0  0  0  0  0  0  0  0
  1  2  1  0  0  0  0
  2  3  2  0  0  0  0
  2  7  1  0  0  0  0
  3  4  1  0  0  0  0
  4 30  1  0  0  0  0
  4  5  2  0  0  0  0
  5  8  1  0  0  0  0
  6 31  1  0  0  0  0
  6  5  1  0  0  0  0
  7  6  2  0  0  0  0
  8  9  1  0  0  0  0
  8 33  1  0  0  0  0
  9 10  2  0  0  0  0
 11  9  1  0  0  0  0
 11 12  1  0  0  0  0
 13 12  1  0  0  0  0
 13 14  1  0  0  0  0
 14 38  1  0  0  0  0
 14 15  1  0  0  0  0
 16 41  1  0  0  0  0
 16 15  1  0  0  0  0
 17 12  1  0  0  0  0
 17 42  1  0  0  0  0
 17 16  1  0  0  0  0
 18 15  1  1  0  0  0
 18 26  1  0  0  0  0
 18 19  1  0  0  0  0
 19 20  2  0  0  0  0
 20 21  1  0  0  0  0
 20 44  1  0  0  0  0
 22 23  1  0  0  0  0
 22 21  1  0  0  0  0
 23 27  1  0  0  0  0
 24 23  1  0  0  0  0
 25 26  1  0  0  0  0
 25 24  2  0  0  0  0
 26 22  2  0  0  0  0
 27 45  1  0  0  0  0
 27 28  1  0  0  0  0
 27 46  1  0  0  0  0
 28 48  1  0  0  0  0
 29  3  1  0  0  0  0
 32  7  1  0  0  0  0
 34 11  1  0  0  0  0
 35 11  1  0  0  0  0
 36 13  1  0  0  0  0
 37 13  1  0  0  0  0
 39 14  1  0  0  0  0
 40 16  1  0  0  0  0
 43 17  1  0  0  0  0
 47 28  1  0  0  0  0
 49 28  1  0  0  0  0
M  END
>  <Pose>
1

>  <Score>
-7.53

$$$$
