
 OpenBabel03222202113D

 42 45  0  0  1  0  0  0  0  0999 V2000
   21.0580   77.5760   17.3770 S   0  0  0  0  0  0  0  0  0  0  0  0
   22.5380   77.6690   17.2180 O   0  0  0  0  0  0  0  0  0  0  0  0
   20.7220   76.2640   18.0350 O   0  0  0  0  0  0  0  0  0  0  0  0
   20.2950   77.5930   15.8340 N   0  0  0  0  0  0  0  0  0  0  0  0
   19.6890   76.3410   15.5070 C   0  0  0  0  0  0  0  0  0  0  0  0
   20.1440   75.9630   14.1080 C   0  0  1  0  0  0  0  0  0  0  0  0
   21.4840   76.6640   14.0200 C   0  0  0  0  0  0  0  0  0  0  0  0
   21.1790   77.9630   14.7750 C   0  0  0  0  0  0  0  0  0  0  0  0
   20.3720   74.5640   14.0940 O   0  0  0  0  0  0  0  0  0  0  0  0
   19.4570   73.6760   13.5530 C   0  0  0  0  0  0  0  0  0  0  0  0
   19.8490   72.3690   13.5100 N   0  0  0  0  0  0  0  0  0  0  0  0
   18.9820   71.4840   12.9920 C   0  0  0  0  0  0  0  0  0  0  0  0
   17.7410   71.8540   12.5130 C   0  0  0  0  0  0  0  0  0  0  0  0
   17.3980   73.1910   12.5820 C   0  0  0  0  0  0  0  0  0  0  0  0
   18.2700   74.0800   13.1040 N   0  0  0  0  0  0  0  0  0  0  0  0
   16.6200   70.6890   11.8390 Cl  0  0  0  0  0  0  0  0  0  0  0  0
   20.4890   78.8790   18.3960 C   0  0  0  0  0  0  0  0  0  0  0  0
   20.5690   80.1880   17.9660 C   0  0  0  0  0  0  0  0  0  0  0  0
   20.1330   81.2550   18.7330 C   0  0  0  0  0  0  0  0  0  0  0  0
   19.5910   81.0250   19.9840 C   0  0  0  0  0  0  0  0  0  0  0  0
   19.5140   79.7220   20.4040 C   0  0  0  0  0  0  0  0  0  0  0  0
   19.9470   78.6570   19.6430 C   0  0  0  0  0  0  0  0  0  0  0  0
   19.1660   82.1220   20.7180 O   0  0  0  0  0  0  0  0  0  0  0  0
   19.6830   83.4280   20.5390 C   0  0  0  0  0  0  0  0  0  0  0  0
   20.1400   83.6970   19.1300 C   0  0  0  0  0  0  0  0  0  0  0  0
   20.2080   82.5640   18.3160 O   0  0  0  0  0  0  0  0  0  0  0  0
   18.5870   76.4990   15.4410 H   0  0  0  0  0  0  0  0  0  0  0  0
   19.8590   75.5470   16.2330 H   0  0  0  0  0  0  0  0  0  0  0  0
   19.4310   76.2960   13.3440 H   0  0  0  0  0  0  0  0  0  0  0  0
   22.2680   76.0890   14.5080 H   0  0  0  0  0  0  0  0  0  0  0  0
   21.6910   76.9440   12.9690 H   0  0  0  0  0  0  0  0  0  0  0  0
   22.1420   78.3920   15.1370 H   0  0  0  0  0  0  0  0  0  0  0  0
   20.6930   78.6490   14.0770 H   0  0  0  0  0  0  0  0  0  0  0  0
   19.2290   70.4360   12.9280 H   0  0  0  0  0  0  0  0  0  0  0  0
   16.4160   73.5150   12.2090 H   0  0  0  0  0  0  0  0  0  0  0  0
   20.9960   80.3780   16.9820 H   0  0  0  0  0  0  0  0  0  0  0  0
   19.0810   79.5600   21.3980 H   0  0  0  0  0  0  0  0  0  0  0  0
   19.8770   77.6460   19.9920 H   0  0  0  0  0  0  0  0  0  0  0  0
   18.9110   84.1480   20.8620 H   0  0  0  0  0  0  0  0  0  0  0  0
   20.5410   83.5200   21.2650 H   0  0  0  0  0  0  0  0  0  0  0  0
   19.4600   84.4840   18.7100 H   0  0  0  0  0  0  0  0  0  0  0  0
   21.1550   84.1440   19.1890 H   0  0  0  0  0  0  0  0  0  0  0  0
  1  3  2  0  0  0  0
  1 17  1  0  0  0  0
  2  1  2  0  0  0  0
  4  1  1  0  0  0  0
  5  4  1  0  0  0  0
  5 28  1  0  0  0  0
  6 29  1  6  0  0  0
  6  5  1  0  0  0  0
  7  6  1  0  0  0  0
  7 30  1  0  0  0  0
  7  8  1  0  0  0  0
  8 32  1  0  0  0  0
  8  4  1  0  0  0  0
  9  6  1  0  0  0  0
 10  9  1  0  0  0  0
 11 10  2  0  0  0  0
 12 11  1  0  0  0  0
 13 14  1  0  0  0  0
 13 12  2  0  0  0  0
 14 15  1  0  0  0  0
 15 10  2  0  0  0  0
 16 13  1  0  0  0  0
 17 22  1  0  0  0  0
 18 17  2  0  0  0  0
 18 19  1  0  0  0  0
 19 20  2  0  0  0  0
 20 21  1  0  0  0  0
 20 23  1  0  0  0  0
 21 37  1  0  0  0  0
 22 38  1  0  0  0  0
 22 21  2  0  0  0  0
 24 23  1  0  0  0  0
 24 39  1  0  0  0  0
 24 40  1  0  0  0  0
 25 42  1  0  0  0  0
 25 24  1  0  0  0  0
 26 19  1  0  0  0  0
 26 25  1  0  0  0  0
 27  5  1  0  0  0  0
 31  7  1  0  0  0  0
 33  8  1  0  0  0  0
 34 12  1  0  0  0  0
 35 14  1  0  0  0  0
 36 18  1  0  0  0  0
 41 25  1  0  0  0  0
M  END
>  <Pose>
1

>  <Score>
-7.61

$$$$
