
 OpenBabel03222202113D

 52 55  0  0  0  0  0  0  0  0999 V2000
   19.2850   78.2360    7.5500 Cl  0  0  0  0  0  0  0  0  0  0  0  0
   19.9130   78.3670    9.1900 C   0  0  0  0  0  0  0  0  0  0  0  0
   19.2440   77.9120   10.2910 C   0  0  0  0  0  0  0  0  0  0  0  0
   19.7480   78.0270   11.5960 C   0  0  0  0  0  0  0  0  0  0  0  0
   20.9640   78.6200   11.7460 C   0  0  0  0  0  0  0  0  0  0  0  0
   21.6480   79.0820   10.6310 C   0  0  0  0  0  0  0  0  0  0  0  0
   21.1440   78.9660    9.3520 C   0  0  0  0  0  0  0  0  0  0  0  0
   18.9280   77.4860   12.7110 C   0  0  0  0  0  0  0  0  0  0  0  0
   19.3770   76.2530   13.2670 N   0  0  0  0  0  0  0  0  0  0  0  0
   18.9880   75.0360   12.7960 C   0  0  0  0  0  0  0  0  0  0  0  0
   19.5820   74.0810   13.5770 C   0  0  0  0  0  0  0  0  0  0  0  0
   20.3030   74.7400   14.4830 N   0  0  0  0  0  0  0  0  0  0  0  0
   20.1930   76.0840   14.3100 C   0  0  0  0  0  0  0  0  0  0  0  0
   20.8880   77.0680   15.1050 N   0  0  0  0  0  0  0  0  0  0  0  0
   20.0500   77.8600   15.9760 C   0  0  0  0  0  0  0  0  0  0  0  0
   20.8190   78.8150   16.8530 C   0  0  0  0  0  0  0  0  0  0  0  0
   21.9040   78.1050   17.4250 N   0  0  0  0  0  0  0  0  0  0  0  0
   22.8440   77.6740   16.4440 C   0  0  0  0  0  0  0  0  0  0  0  0
   22.2890   77.3140   15.0970 C   0  0  0  0  0  0  0  0  0  0  0  0
   21.4380   77.0690   18.2920 C   0  0  0  0  0  0  0  0  0  0  0  0
   20.3070   77.4790   19.1750 C   0  0  0  0  0  0  0  0  0  0  0  0
   19.5320   78.4160   18.9280 O   0  0  0  0  0  0  0  0  0  0  0  0
   20.1610   76.7010   20.3720 N   0  0  0  0  0  0  0  0  0  0  0  0
   19.3560   72.7870   13.2900 N   0  0  0  0  0  0  0  0  0  0  0  0
   18.5600   72.4150   12.2510 C   0  0  0  0  0  0  0  0  0  0  0  0
   18.3390   71.1950   11.9720 O   0  0  0  0  0  0  0  0  0  0  0  0
   17.9640   73.3300   11.4680 N   0  0  0  0  0  0  0  0  0  0  0  0
   18.1780   74.6250   11.7400 C   0  0  0  0  0  0  0  0  0  0  0  0
   17.6110   75.4510   10.9910 O   0  0  0  0  0  0  0  0  0  0  0  0
   19.9610   71.7460   14.0780 C   0  0  0  0  0  0  0  0  0  0  0  0
   18.2780   77.4510   10.1300 H   0  0  0  0  0  0  0  0  0  0  0  0
   21.4050   78.7270   12.7260 H   0  0  0  0  0  0  0  0  0  0  0  0
   22.6240   79.5560   10.7610 H   0  0  0  0  0  0  0  0  0  0  0  0
   21.7230   79.3450    8.4990 H   0  0  0  0  0  0  0  0  0  0  0  0
   18.8890   78.2900   13.4740 H   0  0  0  0  0  0  0  0  0  0  0  0
   17.8710   77.3970   12.3540 H   0  0  0  0  0  0  0  0  0  0  0  0
   19.4040   78.5200   15.3100 H   0  0  0  0  0  0  0  0  0  0  0  0
   19.3280   77.2230   16.5110 H   0  0  0  0  0  0  0  0  0  0  0  0
   20.1320   79.1910   17.6240 H   0  0  0  0  0  0  0  0  0  0  0  0
   21.1490   79.7130   16.2780 H   0  0  0  0  0  0  0  0  0  0  0  0
   23.3930   76.7990   16.9030 H   0  0  0  0  0  0  0  0  0  0  0  0
   23.6040   78.4970   16.3440 H   0  0  0  0  0  0  0  0  0  0  0  0
   22.8880   76.4530   14.7230 H   0  0  0  0  0  0  0  0  0  0  0  0
   22.5650   78.1470   14.3740 H   0  0  0  0  0  0  0  0  0  0  0  0
   21.0510   76.1720   17.7330 H   0  0  0  0  0  0  0  0  0  0  0  0
   22.2840   76.7890   18.9750 H   0  0  0  0  0  0  0  0  0  0  0  0
   19.3340   76.8110   21.0010 H   0  0  0  0  0  0  0  0  0  0  0  0
   20.8860   76.0270   20.6070 H   0  0  0  0  0  0  0  0  0  0  0  0
   17.3410   73.0350   10.6560 H   0  0  0  0  0  0  0  0  0  0  0  0
   20.9130   72.1450   14.4970 H   0  0  0  0  0  0  0  0  0  0  0  0
   20.1880   70.8580   13.4690 H   0  0  0  0  0  0  0  0  0  0  0  0
   19.2570   71.4280   14.8790 H   0  0  0  0  0  0  0  0  0  0  0  0
  1  2  1  0  0  0  0
  2  7  2  0  0  0  0
  2  3  1  0  0  0  0
  3  4  2  0  0  0  0
  4  5  1  0  0  0  0
  4  8  1  0  0  0  0
  5 32  1  0  0  0  0
  6 33  1  0  0  0  0
  6  5  2  0  0  0  0
  7  6  1  0  0  0  0
  8  9  1  0  0  0  0
  8 35  1  0  0  0  0
  9 13  1  0  0  0  0
 10  9  1  0  0  0  0
 10 11  2  0  0  0  0
 11 12  1  0  0  0  0
 13 12  2  0  0  0  0
 13 14  1  0  0  0  0
 14 15  1  0  0  0  0
 15 38  1  0  0  0  0
 15 16  1  0  0  0  0
 16 17  1  0  0  0  0
 16 39  1  0  0  0  0
 17 20  1  0  0  0  0
 18 41  1  0  0  0  0
 18 17  1  0  0  0  0
 19 14  1  0  0  0  0
 19 18  1  0  0  0  0
 20 46  1  0  0  0  0
 20 21  1  0  0  0  0
 21 23  1  0  0  0  0
 22 21  2  0  0  0  0
 23 48  1  0  0  0  0
 23 47  1  0  0  0  0
 24 11  1  0  0  0  0
 24 30  1  0  0  0  0
 25 24  1  0  0  0  0
 26 25  2  0  0  0  0
 27 28  1  0  0  0  0
 27 25  1  0  0  0  0
 28 10  1  0  0  0  0
 29 28  2  0  0  0  0
 30 50  1  0  0  0  0
 30 52  1  0  0  0  0
 31  3  1  0  0  0  0
 34  7  1  0  0  0  0
 36  8  1  0  0  0  0
 37 15  1  0  0  0  0
 40 16  1  0  0  0  0
 42 18  1  0  0  0  0
 43 19  1  0  0  0  0
 44 19  1  0  0  0  0
 45 20  1  0  0  0  0
 49 27  1  0  0  0  0
 51 30  1  0  0  0  0
M  END
>  <Pose>
1

>  <Score>
-6.28

$$$$
