
 OpenBabel03222202113D

 41 44  0  0  0  0  0  0  0  0999 V2000
   22.7410   80.9960   12.2750 Cl  0  0  0  0  0  0  0  0  0  0  0  0
   21.7750   79.9230   11.2560 C   0  0  0  0  0  0  0  0  0  0  0  0
   20.4030   79.8640   11.3900 C   0  0  0  0  0  0  0  0  0  0  0  0
   19.7010   79.0060   10.5640 C   0  0  0  0  0  0  0  0  0  0  0  0
   20.3140   78.2120    9.6180 C   0  0  0  0  0  0  0  0  0  0  0  0
   21.6880   78.2990    9.5130 C   0  0  0  0  0  0  0  0  0  0  0  0
   22.4350   79.1490   10.3240 C   0  0  0  0  0  0  0  0  0  0  0  0
   19.5750   77.3440    8.7860 N   0  0  0  0  0  0  0  0  0  0  0  0
   18.6840   77.6970    7.8300 C   0  0  0  0  0  0  0  0  0  0  0  0
   18.3890   78.8880    7.5490 O   0  0  0  0  0  0  0  0  0  0  0  0
   18.1490   76.5780    7.2130 C   0  0  0  0  0  0  0  0  0  0  0  0
   18.7160   75.5350    7.7960 C   0  0  0  0  0  0  0  0  0  0  0  0
   18.1930   74.4460    7.1930 N   0  0  0  0  0  0  0  0  0  0  0  0
   17.3200   74.8480    6.2590 N   0  0  0  0  0  0  0  0  0  0  0  0
   17.2870   76.1710    6.2640 N   0  0  0  0  0  0  0  0  0  0  0  0
   16.4820   77.0220    5.4150 C   0  0  0  0  0  0  0  0  0  0  0  0
   15.1810   77.3920    6.0280 C   0  0  0  0  0  0  0  0  0  0  0  0
   14.8460   78.6690    6.4190 C   0  0  0  0  0  0  0  0  0  0  0  0
   13.6350   79.0080    6.9880 C   0  0  0  0  0  0  0  0  0  0  0  0
   12.6970   78.0230    7.1830 C   0  0  0  0  0  0  0  0  0  0  0  0
   12.9890   76.7330    6.8070 C   0  0  0  0  0  0  0  0  0  0  0  0
   14.2130   76.4200    6.2380 C   0  0  0  0  0  0  0  0  0  0  0  0
   13.3960   80.3400    7.3510 O   0  0  0  0  0  0  0  0  0  0  0  0
   14.2820   81.0440    8.1970 C   0  0  0  0  0  0  0  0  0  0  0  0
   19.5890   76.0000    8.7580 C   0  0  0  0  0  0  0  0  0  0  0  0
   20.2800   75.2530    9.4850 O   0  0  0  0  0  0  0  0  0  0  0  0
   19.9280   80.4860   12.1310 H   0  0  0  0  0  0  0  0  0  0  0  0
   18.6300   78.9480   10.6550 H   0  0  0  0  0  0  0  0  0  0  0  0
   22.1500   77.6670    8.7640 H   0  0  0  0  0  0  0  0  0  0  0  0
   23.5210   79.1800   10.2010 H   0  0  0  0  0  0  0  0  0  0  0  0
   18.4320   73.4640    7.4220 H   0  0  0  0  0  0  0  0  0  0  0  0
   16.7470   74.2600    5.6180 H   0  0  0  0  0  0  0  0  0  0  0  0
   17.0380   77.9450    5.1610 H   0  0  0  0  0  0  0  0  0  0  0  0
   16.2500   76.4270    4.4840 H   0  0  0  0  0  0  0  0  0  0  0  0
   15.5840   79.4760    6.2730 H   0  0  0  0  0  0  0  0  0  0  0  0
   11.7250   78.2660    7.6340 H   0  0  0  0  0  0  0  0  0  0  0  0
   12.2490   75.9620    6.9620 H   0  0  0  0  0  0  0  0  0  0  0  0
   14.4340   75.4040    5.9450 H   0  0  0  0  0  0  0  0  0  0  0  0
   14.1840   80.7260    9.2610 H   0  0  0  0  0  0  0  0  0  0  0  0
   14.0460   82.1210    8.1630 H   0  0  0  0  0  0  0  0  0  0  0  0
   15.3390   80.8370    7.8980 H   0  0  0  0  0  0  0  0  0  0  0  0
  2  3  1  0  0  0  0
  2  1  1  0  0  0  0
  3 27  1  0  0  0  0
  4 28  1  0  0  0  0
  4  3  2  0  0  0  0
  5  4  1  0  0  0  0
  6  5  2  0  0  0  0
  6  7  1  0  0  0  0
  7  2  2  0  0  0  0
  8  5  1  0  0  0  0
  9  8  1  0  0  0  0
 10  9  2  0  0  0  0
 11 12  2  0  0  0  0
 11  9  1  0  0  0  0
 12 25  1  0  0  0  0
 13 31  1  0  0  0  0
 13 12  1  0  0  0  0
 14 15  1  0  0  0  0
 14 13  1  0  0  0  0
 15 11  1  0  0  0  0
 16 17  1  0  0  0  0
 16 15  1  0  0  0  0
 17 22  2  0  0  0  0
 17 18  1  0  0  0  0
 18 19  2  0  0  0  0
 19 20  1  0  0  0  0
 19 23  1  0  0  0  0
 20 36  1  0  0  0  0
 21 37  1  0  0  0  0
 21 20  2  0  0  0  0
 22 21  1  0  0  0  0
 23 24  1  0  0  0  0
 24 39  1  0  0  0  0
 25  8  1  0  0  0  0
 25 26  2  0  0  0  0
 29  6  1  0  0  0  0
 30  7  1  0  0  0  0
 32 14  1  0  0  0  0
 33 16  1  0  0  0  0
 34 16  1  0  0  0  0
 35 18  1  0  0  0  0
 38 22  1  0  0  0  0
 40 24  1  0  0  0  0
 41 24  1  0  0  0  0
M  END
>  <Pose>
1

>  <Score>
-6.47

$$$$
