
 OpenBabel03222202113D

 55 58  0  0  1  0  0  0  0  0999 V2000
   18.7130   78.2020   21.5000 Cl  0  0  0  0  0  0  0  0  0  0  0  0
   19.5930   78.1150   19.9520 C   0  0  0  0  0  0  0  0  0  0  0  0
   19.3640   79.0320   18.9550 C   0  0  0  0  0  0  0  0  0  0  0  0
   20.0600   78.9660   17.7480 C   0  0  0  0  0  0  0  0  0  0  0  0
   21.0170   77.9750   17.4950 C   0  0  0  0  0  0  0  0  0  0  0  0
   21.2200   77.0770   18.5150 C   0  0  0  0  0  0  0  0  0  0  0  0
   20.5370   77.1300   19.7150 C   0  0  0  0  0  0  0  0  0  0  0  0
   21.7090   78.0220   16.2200 C   0  0  2  0  0  0  0  0  0  0  0  0
   22.4140   79.3650   16.0450 C   0  0  0  0  0  0  0  0  0  0  0  0
   23.3220   79.1450   14.8530 C   0  0  0  0  0  0  0  0  0  0  0  0
   22.5530   78.9810   13.6700 N   0  0  0  0  0  0  0  0  0  0  0  0
   21.5630   77.8720   13.6890 C   0  0  0  0  0  0  0  0  0  0  0  0
   20.9200   77.6600   15.0180 C   0  0  0  0  0  0  0  0  0  0  0  0
   22.6320   79.7610   12.5240 C   0  0  0  0  0  0  0  0  0  0  0  0
   22.3790   81.0350   12.6800 O   0  0  0  0  0  0  0  0  0  0  0  0
   22.9450   79.4100   11.1300 C   0  0  0  0  0  0  0  0  0  0  0  0
   22.1040   78.5060   10.4770 N   0  0  0  0  0  0  0  0  0  0  0  0
   20.9320   78.8610    9.7410 C   0  0  0  0  0  0  0  0  0  0  0  0
   20.6180   80.0790    9.7980 O   0  0  0  0  0  0  0  0  0  0  0  0
   20.1920   77.8780    8.9990 C   0  0  0  0  0  0  0  0  0  0  0  0
   19.0840   77.9660    8.3400 C   0  0  0  0  0  0  0  0  0  0  0  0
   18.3270   79.1730    8.2350 N   0  0  0  0  0  0  0  0  0  0  0  0
   17.1320   79.2470    7.4890 N   0  0  0  0  0  0  0  0  0  0  0  0
   16.6300   78.1190    6.8080 C   0  0  0  0  0  0  0  0  0  0  0  0
   15.5560   78.2290    6.1490 O   0  0  0  0  0  0  0  0  0  0  0  0
   17.3680   76.8730    6.8870 C   0  0  0  0  0  0  0  0  0  0  0  0
   18.5340   76.7940    7.6120 C   0  0  0  0  0  0  0  0  0  0  0  0
   19.1850   75.5930    7.6150 C   0  0  0  0  0  0  0  0  0  0  0  0
   18.7150   74.4730    6.9200 C   0  0  0  0  0  0  0  0  0  0  0  0
   17.5510   74.6030    6.2130 C   0  0  0  0  0  0  0  0  0  0  0  0
   16.8510   75.8060    6.1810 C   0  0  0  0  0  0  0  0  0  0  0  0
   22.7960   77.0930   16.2920 O   0  0  0  0  0  0  0  0  0  0  0  0
   18.6230   79.8110   19.1400 H   0  0  0  0  0  0  0  0  0  0  0  0
   19.8310   79.7110   17.0110 H   0  0  0  0  0  0  0  0  0  0  0  0
   21.9610   76.3060   18.3320 H   0  0  0  0  0  0  0  0  0  0  0  0
   20.7320   76.3960   20.5010 H   0  0  0  0  0  0  0  0  0  0  0  0
   21.7200   80.1920   15.9180 H   0  0  0  0  0  0  0  0  0  0  0  0
   23.0100   79.5620   16.9400 H   0  0  0  0  0  0  0  0  0  0  0  0
   23.7460   78.0750   15.0450 H   0  0  0  0  0  0  0  0  0  0  0  0
   24.1760   79.7820   14.8830 H   0  0  0  0  0  0  0  0  0  0  0  0
   20.8140   78.0120   12.8660 H   0  0  0  0  0  0  0  0  0  0  0  0
   22.1450   76.9680   13.4150 H   0  0  0  0  0  0  0  0  0  0  0  0
   19.9020   78.1210   14.9760 H   0  0  0  0  0  0  0  0  0  0  0  0
   20.6710   76.5480   15.0660 H   0  0  0  0  0  0  0  0  0  0  0  0
   23.0110   80.4170   10.5880 H   0  0  0  0  0  0  0  0  0  0  0  0
   24.0380   79.0520   11.0570 H   0  0  0  0  0  0  0  0  0  0  0  0
   22.3340   77.4780   10.4290 H   0  0  0  0  0  0  0  0  0  0  0  0
   20.6760   76.8710    9.0080 H   0  0  0  0  0  0  0  0  0  0  0  0
   18.6410   80.0500    8.7160 H   0  0  0  0  0  0  0  0  0  0  0  0
   16.6020   80.1480    7.4280 H   0  0  0  0  0  0  0  0  0  0  0  0
   20.0880   75.4550    8.1470 H   0  0  0  0  0  0  0  0  0  0  0  0
   19.2770   73.5440    6.9600 H   0  0  0  0  0  0  0  0  0  0  0  0
   17.2030   73.7210    5.6690 H   0  0  0  0  0  0  0  0  0  0  0  0
   15.9360   75.8480    5.6040 H   0  0  0  0  0  0  0  0  0  0  0  0
   22.3890   76.1910   16.2920 H   0  0  0  0  0  0  0  0  0  0  0  0
  2  1  1  0  0  0  0
  3 33  1  0  0  0  0
  3  2  2  0  0  0  0
  4  3  1  0  0  0  0
  5  4  2  0  0  0  0
  5  6  1  0  0  0  0
  6  7  2  0  0  0  0
  7  2  1  0  0  0  0
  7 36  1  0  0  0  0
  8 32  1  1  0  0  0
  8  5  1  0  0  0  0
  9  8  1  0  0  0  0
  9 38  1  0  0  0  0
 10 40  1  0  0  0  0
 10 39  1  0  0  0  0
 10  9  1  0  0  0  0
 11 12  1  0  0  0  0
 11 10  1  0  0  0  0
 12 13  1  0  0  0  0
 13 44  1  0  0  0  0
 13  8  1  0  0  0  0
 14 15  2  0  0  0  0
 14 11  1  0  0  0  0
 16 14  1  0  0  0  0
 17 16  1  0  0  0  0
 18 19  2  0  0  0  0
 18 17  1  0  0  0  0
 20 48  1  0  0  0  0
 20 18  1  0  0  0  0
 21 20  2  0  0  0  0
 22 21  1  0  0  0  0
 22 49  1  0  0  0  0
 23 22  1  0  0  0  0
 24 26  1  0  0  0  0
 24 23  1  0  0  0  0
 25 24  2  0  0  0  0
 26 27  1  0  0  0  0
 27 28  2  0  0  0  0
 27 21  1  0  0  0  0
 28 51  1  0  0  0  0
 29 52  1  0  0  0  0
 29 28  1  0  0  0  0
 30 29  2  0  0  0  0
 31 30  1  0  0  0  0
 31 26  2  0  0  0  0
 34  4  1  0  0  0  0
 35  6  1  0  0  0  0
 37  9  1  0  0  0  0
 41 12  1  0  0  0  0
 42 12  1  0  0  0  0
 43 13  1  0  0  0  0
 45 16  1  0  0  0  0
 46 16  1  0  0  0  0
 47 17  1  0  0  0  0
 50 23  1  0  0  0  0
 53 30  1  0  0  0  0
 54 31  1  0  0  0  0
 55 32  1  0  0  0  0
M  END
>  <Pose>
1

>  <Score>
-6.76

$$$$
