
 OpenBabel03222202113D

 39 42  0  0  0  0  0  0  0  0999 V2000
   16.9870   74.7840    5.2420 Cl  0  0  0  0  0  0  0  0  0  0  0  0
   17.7720   75.6520    6.5510 C   0  0  0  0  0  0  0  0  0  0  0  0
   18.6450   75.0130    7.4130 C   0  0  0  0  0  0  0  0  0  0  0  0
   19.2530   75.7140    8.4370 C   0  0  0  0  0  0  0  0  0  0  0  0
   19.0240   77.0530    8.6460 C   0  0  0  0  0  0  0  0  0  0  0  0
   18.1530   77.6960    7.7890 C   0  0  0  0  0  0  0  0  0  0  0  0
   17.5380   77.0040    6.7580 C   0  0  0  0  0  0  0  0  0  0  0  0
   19.6700   77.7810    9.7290 C   0  0  0  0  0  0  0  0  0  0  0  0
   19.0740   78.6710   10.5360 N   0  0  0  0  0  0  0  0  0  0  0  0
   19.9270   79.1400   11.3960 O   0  0  0  0  0  0  0  0  0  0  0  0
   21.0940   78.5820   11.1850 C   0  0  0  0  0  0  0  0  0  0  0  0
   20.9450   77.7260   10.1390 N   0  0  0  0  0  0  0  0  0  0  0  0
   22.3120   78.8680   11.9680 C   0  0  0  0  0  0  0  0  0  0  0  0
   22.1030   78.4920   13.3680 N   0  0  0  0  0  0  0  0  0  0  0  0
   21.1510   77.5790   13.6530 C   0  0  0  0  0  0  0  0  0  0  0  0
   20.9150   77.1900   14.9470 C   0  0  0  0  0  0  0  0  0  0  0  0
   21.7120   77.7800   16.0290 C   0  0  0  0  0  0  0  0  0  0  0  0
   21.2700   77.2230   17.1770 N   0  0  0  0  0  0  0  0  0  0  0  0
   20.3040   76.3690   16.9060 N   0  0  0  0  0  0  0  0  0  0  0  0
   20.0480   76.3080   15.5900 C   0  0  0  0  0  0  0  0  0  0  0  0
   19.1950   75.6000   15.0050 O   0  0  0  0  0  0  0  0  0  0  0  0
   22.6720   78.7090   15.6880 C   0  0  0  0  0  0  0  0  0  0  0  0
   22.8150   79.0150   14.3640 C   0  0  0  0  0  0  0  0  0  0  0  0
   23.4860   79.3180   16.7400 C   0  0  0  0  0  0  0  0  0  0  0  0
   23.0350   79.4670   17.8840 O   0  0  0  0  0  0  0  0  0  0  0  0
   24.7790   79.7450   16.4850 O   0  0  0  0  0  0  0  0  0  0  0  0
   25.9250   78.9790   16.7720 C   0  0  0  0  0  0  0  0  0  0  0  0
   18.8410   73.9510    7.2650 H   0  0  0  0  0  0  0  0  0  0  0  0
   19.9360   75.2100    9.1090 H   0  0  0  0  0  0  0  0  0  0  0  0
   17.9690   78.7540    7.9490 H   0  0  0  0  0  0  0  0  0  0  0  0
   16.8580   77.5010    6.0860 H   0  0  0  0  0  0  0  0  0  0  0  0
   23.1290   78.2360   11.5840 H   0  0  0  0  0  0  0  0  0  0  0  0
   22.5710   79.9540   11.9420 H   0  0  0  0  0  0  0  0  0  0  0  0
   20.5630   77.1410   12.8620 H   0  0  0  0  0  0  0  0  0  0  0  0
   19.8030   75.8140   17.6230 H   0  0  0  0  0  0  0  0  0  0  0  0
   23.5790   79.7510   14.1110 H   0  0  0  0  0  0  0  0  0  0  0  0
   25.7010   78.0470   17.3080 H   0  0  0  0  0  0  0  0  0  0  0  0
   26.4680   78.6860   15.8270 H   0  0  0  0  0  0  0  0  0  0  0  0
   26.6330   79.6450   17.3070 H   0  0  0  0  0  0  0  0  0  0  0  0
  1  2  1  0  0  0  0
  2  7  2  0  0  0  0
  2  3  1  0  0  0  0
  3  4  2  0  0  0  0
  4  5  1  0  0  0  0
  4 29  1  0  0  0  0
  5  8  1  0  0  0  0
  6 30  1  0  0  0  0
  6  5  2  0  0  0  0
  7  6  1  0  0  0  0
  8 12  1  0  0  0  0
  8  9  2  0  0  0  0
  9 10  1  0  0  0  0
 11 10  1  0  0  0  0
 11 13  1  0  0  0  0
 12 11  2  0  0  0  0
 13 14  1  0  0  0  0
 14 15  1  0  0  0  0
 14 23  1  0  0  0  0
 15 16  1  0  0  0  0
 16 20  1  0  0  0  0
 16 17  2  0  0  0  0
 17 18  1  0  0  0  0
 19 18  1  0  0  0  0
 19 35  1  0  0  0  0
 20 19  1  0  0  0  0
 21 20  2  0  0  0  0
 22 17  1  0  0  0  0
 22 24  1  0  0  0  0
 23 22  2  0  0  0  0
 24 25  2  0  0  0  0
 26 24  1  0  0  0  0
 26 27  1  0  0  0  0
 27 39  1  0  0  0  0
 27 37  1  0  0  0  0
 28  3  1  0  0  0  0
 31  7  1  0  0  0  0
 32 13  1  0  0  0  0
 33 13  1  0  0  0  0
 34 15  1  0  0  0  0
 36 23  1  0  0  0  0
 38 27  1  0  0  0  0
M  END
>  <Pose>
1

>  <Score>
-7.18

$$$$
