
 OpenBabel03222202113D

 48 51  0  0  1  0  0  0  0  0999 V2000
   20.6180   78.9090    9.2630 Cl  0  0  0  0  0  0  0  0  0  0  0  0
   21.3800   79.3260   10.7820 C   0  0  0  0  0  0  0  0  0  0  0  0
   21.3110   78.4620   11.8700 C   0  0  0  0  0  0  0  0  0  0  0  0
   21.9160   78.8010   13.0610 C   0  0  0  0  0  0  0  0  0  0  0  0
   22.6000   79.9860   13.2270 C   0  0  0  0  0  0  0  0  0  0  0  0
   22.6730   80.8470   12.1540 C   0  0  0  0  0  0  0  0  0  0  0  0
   22.0700   80.5090   10.9630 C   0  0  0  0  0  0  0  0  0  0  0  0
   23.2570   80.3770   14.4840 C   0  0  0  0  0  0  0  0  0  0  0  0
   23.7350   79.1770   15.2430 C   0  0  0  0  0  0  0  0  0  0  0  0
   24.8820   78.7130   14.9140 O   0  0  0  0  0  0  0  0  0  0  0  0
   22.9650   78.5940   16.2590 N   0  0  0  0  0  0  0  0  0  0  0  0
   22.1110   77.4740   16.0190 C   0  0  0  0  0  0  0  0  0  0  0  0
   20.9420   77.3730   16.9580 C   0  0  0  0  0  0  0  0  0  0  0  0
   20.6110   78.7090   17.5070 C   0  0  2  0  0  0  0  0  0  0  0  0
   21.6110   79.6050   17.8380 C   0  0  0  0  0  0  0  0  0  0  0  0
   21.3220   80.8110   18.3410 N   0  0  0  0  0  0  0  0  0  0  0  0
   20.0570   81.2290   18.5550 C   0  0  2  0  0  0  0  0  0  0  0  0
   19.0740   80.3550   18.2320 N   0  0  0  0  0  0  0  0  0  0  0  0
   19.3130   79.1330   17.7250 C   0  0  0  0  0  0  0  0  0  0  0  0
   18.2820   78.2620   17.4050 O   0  0  0  0  0  0  0  0  0  0  0  0
   19.8080   82.5080   19.0830 N   0  0  0  0  0  0  0  0  0  0  0  0
   18.9480   82.6760   20.2160 C   0  0  0  0  0  0  0  0  0  0  0  0
   19.3440   84.0120   20.8610 C   0  0  0  0  0  0  0  0  0  0  0  0
   19.1300   85.0610   20.0030 O   0  0  0  0  0  0  0  0  0  0  0  0
   19.5950   84.9000   18.7260 C   0  0  0  0  0  0  0  0  0  0  0  0
   20.4140   83.6610   18.4880 C   0  0  0  0  0  0  0  0  0  0  0  0
   23.0240   79.1330   17.5890 C   0  0  0  0  0  0  0  0  0  0  0  0
   20.7790   77.5340   11.7490 H   0  0  0  0  0  0  0  0  0  0  0  0
   21.8670   78.1330   13.9180 H   0  0  0  0  0  0  0  0  0  0  0  0
   23.2050   81.8090   12.2230 H   0  0  0  0  0  0  0  0  0  0  0  0
   22.1220   81.1910   10.1000 H   0  0  0  0  0  0  0  0  0  0  0  0
   22.5170   80.9660   15.0820 H   0  0  0  0  0  0  0  0  0  0  0  0
   24.0940   81.0610   14.2250 H   0  0  0  0  0  0  0  0  0  0  0  0
   21.8110   77.3740   14.9520 H   0  0  0  0  0  0  0  0  0  0  0  0
   22.7200   76.5330   16.2120 H   0  0  0  0  0  0  0  0  0  0  0  0
   21.1500   76.6760   17.8230 H   0  0  0  0  0  0  0  0  0  0  0  0
   20.0440   76.9280   16.4680 H   0  0  0  0  0  0  0  0  0  0  0  0
   17.3450   78.5930   17.1620 H   0  0  0  0  0  0  0  0  0  0  0  0
   19.1170   81.9080   21.0070 H   0  0  0  0  0  0  0  0  0  0  0  0
   17.8610   82.6800   19.9580 H   0  0  0  0  0  0  0  0  0  0  0  0
   20.4340   83.9380   21.0590 H   0  0  0  0  0  0  0  0  0  0  0  0
   18.8230   84.1680   21.8060 H   0  0  0  0  0  0  0  0  0  0  0  0
   18.7580   84.9190   17.9920 H   0  0  0  0  0  0  0  0  0  0  0  0
   20.2610   85.7740   18.4890 H   0  0  0  0  0  0  0  0  0  0  0  0
   21.4650   83.8260   18.8550 H   0  0  0  0  0  0  0  0  0  0  0  0
   20.4540   83.5160   17.3850 H   0  0  0  0  0  0  0  0  0  0  0  0
   23.7280   79.9840   17.6470 H   0  0  0  0  0  0  0  0  0  0  0  0
   23.3060   78.3730   18.3500 H   0  0  0  0  0  0  0  0  0  0  0  0
  1  2  1  0  0  0  0
  2  7  2  0  0  0  0
  2  3  1  0  0  0  0
  3  4  2  0  0  0  0
  4  5  1  0  0  0  0
  4 29  1  0  0  0  0
  5  8  1  0  0  0  0
  6 30  1  0  0  0  0
  6  5  2  0  0  0  0
  7  6  1  0  0  0  0
  8 32  1  0  0  0  0
  8  9  1  0  0  0  0
  9 11  1  0  0  0  0
 10  9  2  0  0  0  0
 11 27  1  0  0  0  0
 12 35  1  0  0  0  0
 12 11  1  0  0  0  0
 12 13  1  0  0  0  0
 13 14  1  0  0  0  0
 13 36  1  0  0  0  0
 14 19  1  1  0  0  0
 14 15  1  0  0  0  0
 15 16  2  0  0  0  0
 16 17  1  0  0  0  0
 17 21  1  6  0  0  0
 18 17  1  0  0  0  0
 19 18  2  0  0  0  0
 20 19  1  0  0  0  0
 21 22  1  0  0  0  0
 22 23  1  0  0  0  0
 22 39  1  0  0  0  0
 23 41  1  0  0  0  0
 23 42  1  0  0  0  0
 24 23  1  0  0  0  0
 25 24  1  0  0  0  0
 26 25  1  0  0  0  0
 26 45  1  0  0  0  0
 26 21  1  0  0  0  0
 27 47  1  0  0  0  0
 27 15  1  0  0  0  0
 27 48  1  0  0  0  0
 28  3  1  0  0  0  0
 31  7  1  0  0  0  0
 33  8  1  0  0  0  0
 34 12  1  0  0  0  0
 37 13  1  0  0  0  0
 38 20  1  0  0  0  0
 40 22  1  0  0  0  0
 43 25  1  0  0  0  0
 44 25  1  0  0  0  0
 46 26  1  0  0  0  0
M  END
>  <Pose>
1

>  <Score>
-6.52

$$$$
