
 OpenBabel03222202113D

 42 45  0  0  0  0  0  0  0  0999 V2000
   19.2870   71.3560   12.9620 Cl  0  0  0  0  0  0  0  0  0  0  0  0
   19.2780   73.0910   12.9240 C   0  0  0  0  0  0  0  0  0  0  0  0
   19.5980   73.8950   14.0110 C   0  0  0  0  0  0  0  0  0  0  0  0
   19.5820   75.2430   13.9170 C   0  0  0  0  0  0  0  0  0  0  0  0
   19.2330   75.7740   12.6920 C   0  0  0  0  0  0  0  0  0  0  0  0
   18.9120   75.0430   11.5990 C   0  0  0  0  0  0  0  0  0  0  0  0
   18.9260   73.6930   11.6730 C   0  0  0  0  0  0  0  0  0  0  0  0
   19.8920   76.1510   15.0000 N   0  0  0  0  0  0  0  0  0  0  0  0
   19.0700   76.2950   16.0170 N   0  0  0  0  0  0  0  0  0  0  0  0
   19.5900   77.0880   16.7270 N   0  0  0  0  0  0  0  0  0  0  0  0
   20.6170   77.7370   16.7030 C   0  0  0  0  0  0  0  0  0  0  0  0
   20.8920   76.9590   15.2310 C   0  0  0  0  0  0  0  0  0  0  0  0
   21.8440   78.5120   16.6770 C   0  0  0  0  0  0  0  0  0  0  0  0
   22.3770   78.2580   17.9370 O   0  0  0  0  0  0  0  0  0  0  0  0
   22.6470   79.3390   15.9660 N   0  0  0  0  0  0  0  0  0  0  0  0
   22.5180   80.7190   15.6010 C   0  0  0  0  0  0  0  0  0  0  0  0
   23.3280   80.9830   14.3150 C   0  0  0  0  0  0  0  0  0  0  0  0
   23.2290   79.7180   13.5730 N   0  0  0  0  0  0  0  0  0  0  0  0
   23.9460   78.5830   14.0540 C   0  0  0  0  0  0  0  0  0  0  0  0
   23.9490   78.7320   15.5410 C   0  0  0  0  0  0  0  0  0  0  0  0
   22.3560   79.6210   12.4960 C   0  0  0  0  0  0  0  0  0  0  0  0
   22.3510   80.5890   11.4840 N   0  0  0  0  0  0  0  0  0  0  0  0
   21.6060   80.5820   10.4360 C   0  0  0  0  0  0  0  0  0  0  0  0
   20.6890   79.5500   10.1840 C   0  0  0  0  0  0  0  0  0  0  0  0
   20.6820   78.5880   11.1860 C   0  0  0  0  0  0  0  0  0  0  0  0
   21.4460   78.6530   12.2110 N   0  0  0  0  0  0  0  0  0  0  0  0
   19.8140   73.4160   14.9610 H   0  0  0  0  0  0  0  0  0  0  0  0
   19.2220   76.9040   12.6660 H   0  0  0  0  0  0  0  0  0  0  0  0
   18.6520   75.5350   10.6650 H   0  0  0  0  0  0  0  0  0  0  0  0
   18.7000   73.0400   10.8890 H   0  0  0  0  0  0  0  0  0  0  0  0
   21.7170   77.1520   14.6830 H   0  0  0  0  0  0  0  0  0  0  0  0
   23.0430   81.3680   16.3450 H   0  0  0  0  0  0  0  0  0  0  0  0
   21.5140   81.0430   15.3670 H   0  0  0  0  0  0  0  0  0  0  0  0
   22.9250   81.7960   13.7160 H   0  0  0  0  0  0  0  0  0  0  0  0
   24.3850   81.1820   14.6060 H   0  0  0  0  0  0  0  0  0  0  0  0
   24.9930   78.5840   13.7060 H   0  0  0  0  0  0  0  0  0  0  0  0
   23.4530   77.6230   13.6810 H   0  0  0  0  0  0  0  0  0  0  0  0
   24.7730   79.3220   15.9900 H   0  0  0  0  0  0  0  0  0  0  0  0
   23.9760   77.7190   15.9680 H   0  0  0  0  0  0  0  0  0  0  0  0
   21.5880   81.3820    9.6770 H   0  0  0  0  0  0  0  0  0  0  0  0
   20.0450   79.4960    9.3310 H   0  0  0  0  0  0  0  0  0  0  0  0
   19.9560   77.7450   11.0730 H   0  0  0  0  0  0  0  0  0  0  0  0
  2  1  1  0  0  0  0
  2  3  1  0  0  0  0
  3 27  1  0  0  0  0
  4  3  2  0  0  0  0
  4  8  1  0  0  0  0
  5  4  1  0  0  0  0
  6  7  1  0  0  0  0
  6  5  2  0  0  0  0
  7  2  2  0  0  0  0
  8 12  1  0  0  0  0
  8  9  1  0  0  0  0
  9 10  2  0  0  0  0
 11 10  1  0  0  0  0
 12 11  2  0  0  0  0
 13 11  1  0  0  0  0
 13 14  2  0  0  0  0
 15 13  1  0  0  0  0
 16 15  1  0  0  0  0
 16 32  1  0  0  0  0
 17 35  1  0  0  0  0
 17 16  1  0  0  0  0
 18 19  1  0  0  0  0
 18 17  1  0  0  0  0
 19 20  1  0  0  0  0
 20 15  1  0  0  0  0
 20 39  1  0  0  0  0
 20 38  1  0  0  0  0
 21 18  1  0  0  0  0
 22 21  2  0  0  0  0
 23 22  1  0  0  0  0
 24 23  2  0  0  0  0
 24 25  1  0  0  0  0
 25 26  2  0  0  0  0
 26 21  1  0  0  0  0
 28  5  1  0  0  0  0
 29  6  1  0  0  0  0
 30  7  1  0  0  0  0
 31 12  1  0  0  0  0
 33 16  1  0  0  0  0
 34 17  1  0  0  0  0
 36 19  1  0  0  0  0
 37 19  1  0  0  0  0
 40 23  1  0  0  0  0
 41 24  1  0  0  0  0
 42 25  1  0  0  0  0
M  END
>  <Pose>
1

>  <Score>
-6.75

$$$$
