
 OpenBabel03222202113D

 42 45  0  0  1  0  0  0  0  0999 V2000
   19.1530   82.5290   20.6400 Cl  0  0  0  0  0  0  0  0  0  0  0  0
   19.5660   81.2440   19.5060 C   0  0  0  0  0  0  0  0  0  0  0  0
   20.4340   81.4480   18.4540 C   0  0  0  0  0  0  0  0  0  0  0  0
   20.7640   80.4730   17.5730 N   0  0  0  0  0  0  0  0  0  0  0  0
   20.2570   79.2300   17.6730 C   0  0  0  0  0  0  0  0  0  0  0  0
   20.5760   78.2400   16.7990 N   0  0  0  0  0  0  0  0  0  0  0  0
   21.4220   78.4310   15.7700 C   0  0  0  0  0  0  0  0  0  0  0  0
   21.9550   79.7100   15.6530 C   0  0  2  0  0  0  0  0  0  0  0  0
   22.8900   79.9230   14.5170 C   0  0  0  0  0  0  0  0  0  0  0  0
   22.2380   79.2970   13.3600 N   0  0  0  0  0  0  0  0  0  0  0  0
   21.9960   77.8830   13.4190 C   0  0  0  0  0  0  0  0  0  0  0  0
   21.7800   77.3560   14.8090 C   0  0  0  0  0  0  0  0  0  0  0  0
   21.8620   80.0710   12.2410 C   0  0  0  0  0  0  0  0  0  0  0  0
   22.3700   81.2400   12.1480 O   0  0  0  0  0  0  0  0  0  0  0  0
   20.9270   79.5830   11.2030 C   0  0  0  0  0  0  0  0  0  0  0  0
   21.4790   78.3920   10.4500 C   0  0  0  0  0  0  0  0  0  0  0  0
   22.9470   78.7070   10.1970 C   0  0  0  0  0  0  0  0  0  0  0  0
   23.1040   80.0590    9.9000 O   0  0  0  0  0  0  0  0  0  0  0  0
   21.9810   80.5720    9.2380 C   0  0  0  0  0  0  0  0  0  0  0  0
   20.7770   80.6950   10.1530 C   0  0  0  0  0  0  0  0  0  0  0  0
   21.6140   80.6940   16.5540 C   0  0  0  0  0  0  0  0  0  0  0  0
   22.1170   81.8570   16.4240 O   0  0  0  0  0  0  0  0  0  0  0  0
   19.3820   79.0040   18.7220 C   0  0  0  0  0  0  0  0  0  0  0  0
   19.0300   79.9800   19.6320 C   0  0  0  0  0  0  0  0  0  0  0  0
   20.8700   82.4370   18.3350 H   0  0  0  0  0  0  0  0  0  0  0  0
   23.8500   79.4570   14.7590 H   0  0  0  0  0  0  0  0  0  0  0  0
   23.0610   80.9870   14.3040 H   0  0  0  0  0  0  0  0  0  0  0  0
   21.0860   77.6080   12.8380 H   0  0  0  0  0  0  0  0  0  0  0  0
   22.8950   77.3920   12.9430 H   0  0  0  0  0  0  0  0  0  0  0  0
   22.7260   76.8750   15.1960 H   0  0  0  0  0  0  0  0  0  0  0  0
   20.9790   76.5900   14.8560 H   0  0  0  0  0  0  0  0  0  0  0  0
   19.9400   79.3570   11.6650 H   0  0  0  0  0  0  0  0  0  0  0  0
   21.0020   78.4100    9.4290 H   0  0  0  0  0  0  0  0  0  0  0  0
   21.3140   77.4290   10.9230 H   0  0  0  0  0  0  0  0  0  0  0  0
   23.4890   78.5210   11.1390 H   0  0  0  0  0  0  0  0  0  0  0  0
   23.3870   78.0500    9.4250 H   0  0  0  0  0  0  0  0  0  0  0  0
   22.2450   81.6010    8.9160 H   0  0  0  0  0  0  0  0  0  0  0  0
   21.7500   80.0010    8.3200 H   0  0  0  0  0  0  0  0  0  0  0  0
   20.6890   81.6790   10.6210 H   0  0  0  0  0  0  0  0  0  0  0  0
   19.8930   80.4020    9.5400 H   0  0  0  0  0  0  0  0  0  0  0  0
   18.9660   77.9990   18.8090 H   0  0  0  0  0  0  0  0  0  0  0  0
   18.3440   79.7950   20.4530 H   0  0  0  0  0  0  0  0  0  0  0  0
  2 24  2  0  0  0  0
  2  1  1  0  0  0  0
  3  2  1  0  0  0  0
  4  5  1  0  0  0  0
  4  3  1  0  0  0  0
  5 23  2  0  0  0  0
  6  5  1  0  0  0  0
  7  6  2  0  0  0  0
  8  7  1  1  0  0  0
  8 21  1  0  0  0  0
  9 26  1  0  0  0  0
  9  8  1  0  0  0  0
 10 11  1  0  0  0  0
 10  9  1  0  0  0  0
 11 12  1  0  0  0  0
 12 31  1  0  0  0  0
 12 30  1  0  0  0  0
 12  7  1  0  0  0  0
 13 10  1  0  0  0  0
 14 13  2  0  0  0  0
 15 32  1  0  0  0  0
 15 13  1  0  0  0  0
 16 34  1  0  0  0  0
 16 15  1  0  0  0  0
 17 16  1  0  0  0  0
 17 35  1  0  0  0  0
 18 17  1  0  0  0  0
 19 18  1  0  0  0  0
 19 20  1  0  0  0  0
 20 39  1  0  0  0  0
 20 15  1  0  0  0  0
 21  4  1  0  0  0  0
 22 21  2  0  0  0  0
 23 41  1  0  0  0  0
 23 24  1  0  0  0  0
 24 42  1  0  0  0  0
 25  3  1  0  0  0  0
 27  9  1  0  0  0  0
 28 11  1  0  0  0  0
 29 11  1  0  0  0  0
 33 16  1  0  0  0  0
 36 17  1  0  0  0  0
 37 19  1  0  0  0  0
 38 19  1  0  0  0  0
 40 20  1  0  0  0  0
M  END
>  <Pose>
1

>  <Score>
-5.54

$$$$
