
 OpenBabel03222202113D

 41 44  0  0  0  0  0  0  0  0999 V2000
   22.3090   80.9070    9.9410 Cl  0  0  0  0  0  0  0  0  0  0  0  0
   22.2460   80.1690   11.5190 C   0  0  0  0  0  0  0  0  0  0  0  0
   22.6260   80.8600   12.6590 C   0  0  0  0  0  0  0  0  0  0  0  0
   22.5830   80.2890   13.9170 C   0  0  0  0  0  0  0  0  0  0  0  0
   22.1390   78.9840   14.0140 C   0  0  0  0  0  0  0  0  0  0  0  0
   21.7640   78.3100   12.8670 C   0  0  0  0  0  0  0  0  0  0  0  0
   21.8000   78.8640   11.6000 C   0  0  0  0  0  0  0  0  0  0  0  0
   21.3760   78.0840   10.3980 C   0  0  0  0  0  0  0  0  0  0  0  0
   19.8910   78.1740   10.2180 C   0  0  0  0  0  0  0  0  0  0  0  0
   19.2500   78.9380   11.0210 O   0  0  0  0  0  0  0  0  0  0  0  0
   19.2300   77.4400    9.1980 N   0  0  0  0  0  0  0  0  0  0  0  0
   19.2470   76.0210    9.2420 C   0  0  0  0  0  0  0  0  0  0  0  0
   19.6450   75.5070    7.8520 C   0  0  0  0  0  0  0  0  0  0  0  0
   18.4980   75.9790    6.9840 C   0  0  0  0  0  0  0  0  0  0  0  0
   17.9900   77.2490    7.1650 C   0  0  0  0  0  0  0  0  0  0  0  0
   16.9490   77.6490    6.3810 N   0  0  0  0  0  0  0  0  0  0  0  0
   16.4010   76.8600    5.4440 C   0  0  0  0  0  0  0  0  0  0  0  0
   16.9080   75.6250    5.2810 N   0  0  0  0  0  0  0  0  0  0  0  0
   17.9510   75.1650    6.0350 C   0  0  0  0  0  0  0  0  0  0  0  0
   18.4730   73.8950    5.8690 O   0  0  0  0  0  0  0  0  0  0  0  0
   18.5620   78.1660    8.1710 C   0  0  0  0  0  0  0  0  0  0  0  0
   22.0960   78.4160   15.2700 O   0  0  0  0  0  0  0  0  0  0  0  0
   22.0950   79.1370   16.4860 C   0  0  0  0  0  0  0  0  0  0  0  0
   22.5470   80.5490   16.3640 C   0  0  0  0  0  0  0  0  0  0  0  0
   22.9480   80.9290   15.0750 O   0  0  0  0  0  0  0  0  0  0  0  0
   22.9750   81.8760   12.6080 H   0  0  0  0  0  0  0  0  0  0  0  0
   21.4160   77.2820   12.9540 H   0  0  0  0  0  0  0  0  0  0  0  0
   21.6810   77.0310   10.5840 H   0  0  0  0  0  0  0  0  0  0  0  0
   21.8840   78.4040    9.4880 H   0  0  0  0  0  0  0  0  0  0  0  0
   18.2270   75.5890    9.4630 H   0  0  0  0  0  0  0  0  0  0  0  0
   19.9090   75.5950   10.0200 H   0  0  0  0  0  0  0  0  0  0  0  0
   19.7490   74.4220    7.8240 H   0  0  0  0  0  0  0  0  0  0  0  0
   20.5880   76.0210    7.5830 H   0  0  0  0  0  0  0  0  0  0  0  0
   15.5680   77.1950    4.8260 H   0  0  0  0  0  0  0  0  0  0  0  0
   18.3610   73.4490    4.9670 H   0  0  0  0  0  0  0  0  0  0  0  0
   19.2500   78.9160    7.6900 H   0  0  0  0  0  0  0  0  0  0  0  0
   17.7100   78.7780    8.5550 H   0  0  0  0  0  0  0  0  0  0  0  0
   21.0180   79.1610   16.8270 H   0  0  0  0  0  0  0  0  0  0  0  0
   22.6220   78.5610   17.2720 H   0  0  0  0  0  0  0  0  0  0  0  0
   21.7670   81.2830   16.6860 H   0  0  0  0  0  0  0  0  0  0  0  0
   23.3980   80.6990   17.0860 H   0  0  0  0  0  0  0  0  0  0  0  0
  1  2  1  0  0  0  0
  2  7  2  0  0  0  0
  2  3  1  0  0  0  0
  3  4  2  0  0  0  0
  4  5  1  0  0  0  0
  4 25  1  0  0  0  0
  5 22  1  0  0  0  0
  6 27  1  0  0  0  0
  6  5  2  0  0  0  0
  7  6  1  0  0  0  0
  8 28  1  0  0  0  0
  8  7  1  0  0  0  0
  9  8  1  0  0  0  0
  9 10  2  0  0  0  0
 11 12  1  0  0  0  0
 11  9  1  0  0  0  0
 12 30  1  0  0  0  0
 12 31  1  0  0  0  0
 13 12  1  0  0  0  0
 14 15  2  0  0  0  0
 14 13  1  0  0  0  0
 15 21  1  0  0  0  0
 16 15  1  0  0  0  0
 17 16  2  0  0  0  0
 18 17  1  0  0  0  0
 18 19  2  0  0  0  0
 19 14  1  0  0  0  0
 20 19  1  0  0  0  0
 21 37  1  0  0  0  0
 21 11  1  0  0  0  0
 22 23  1  0  0  0  0
 23 38  1  0  0  0  0
 23 39  1  0  0  0  0
 24 23  1  0  0  0  0
 24 40  1  0  0  0  0
 24 41  1  0  0  0  0
 25 24  1  0  0  0  0
 26  3  1  0  0  0  0
 29  8  1  0  0  0  0
 32 13  1  0  0  0  0
 33 13  1  0  0  0  0
 34 17  1  0  0  0  0
 35 20  1  0  0  0  0
 36 21  1  0  0  0  0
M  END
>  <Pose>
1

>  <Score>
-7.13

$$$$
