
 OpenBabel03222202113D

 57 60  0  0  0  0  0  0  0  0999 V2000
   20.5790   79.4130   10.1830 Cl  0  0  0  0  0  0  0  0  0  0  0  0
   21.7530   79.2000   11.4590 C   0  0  0  0  0  0  0  0  0  0  0  0
   21.3560   78.9610   12.7550 C   0  0  0  0  0  0  0  0  0  0  0  0
   22.2910   78.7970   13.7440 C   0  0  0  0  0  0  0  0  0  0  0  0
   23.6530   78.8740   13.4270 C   0  0  0  0  0  0  0  0  0  0  0  0
   24.0620   79.1150   12.1250 C   0  0  0  0  0  0  0  0  0  0  0  0
   23.0980   79.2730   11.1680 C   0  0  0  0  0  0  0  0  0  0  0  0
   24.7160   78.7330   14.3060 O   0  0  0  0  0  0  0  0  0  0  0  0
   24.7300   78.0590   15.5420 C   0  0  0  0  0  0  0  0  0  0  0  0
   23.8390   78.7050   16.5530 C   0  0  0  0  0  0  0  0  0  0  0  0
   22.5790   79.1670   16.0530 N   0  0  0  0  0  0  0  0  0  0  0  0
   21.7100   78.5460   15.0870 C   0  0  0  0  0  0  0  0  0  0  0  0
   22.0790   80.4170   16.5560 C   0  0  0  0  0  0  0  0  0  0  0  0
   22.3770   81.4500   15.9060 O   0  0  0  0  0  0  0  0  0  0  0  0
   21.2630   80.4870   17.7670 C   0  0  0  0  0  0  0  0  0  0  0  0
   19.8670   80.6780   17.6110 N   0  0  0  0  0  0  0  0  0  0  0  0
   19.1890   80.8300   18.9010 C   0  0  0  0  0  0  0  0  0  0  0  0
   19.3990   79.5890   19.6860 C   0  0  0  0  0  0  0  0  0  0  0  0
   19.1740   78.3000   18.9690 C   0  0  0  0  0  0  0  0  0  0  0  0
   19.0620   78.3540   17.4970 C   0  0  0  0  0  0  0  0  0  0  0  0
   19.1680   79.6790   16.8420 C   0  0  0  0  0  0  0  0  0  0  0  0
   20.1500   77.2650   19.3890 C   0  0  0  0  0  0  0  0  0  0  0  0
   20.8890   76.7380   18.5340 O   0  0  0  0  0  0  0  0  0  0  0  0
   20.2360   76.8840   20.7460 N   0  0  0  0  0  0  0  0  0  0  0  0
   24.4020   76.5900   15.3240 C   0  0  0  0  0  0  0  0  0  0  0  0
   25.6770   75.7930   15.1120 C   0  0  0  0  0  0  0  0  0  0  0  0
   26.4670   75.7490   16.2440 O   0  0  0  0  0  0  0  0  0  0  0  0
   26.2710   76.8780   17.0310 C   0  0  0  0  0  0  0  0  0  0  0  0
   26.1470   78.0840   16.1200 C   0  0  0  0  0  0  0  0  0  0  0  0
   20.3090   78.8990   13.0120 H   0  0  0  0  0  0  0  0  0  0  0  0
   25.1210   79.1680   11.9270 H   0  0  0  0  0  0  0  0  0  0  0  0
   23.3780   79.4640   10.1350 H   0  0  0  0  0  0  0  0  0  0  0  0
   23.6520   77.9680   17.3760 H   0  0  0  0  0  0  0  0  0  0  0  0
   24.4230   79.5410   17.0190 H   0  0  0  0  0  0  0  0  0  0  0  0
   21.5400   77.4680   15.2740 H   0  0  0  0  0  0  0  0  0  0  0  0
   20.6980   79.0180   15.0940 H   0  0  0  0  0  0  0  0  0  0  0  0
   21.6430   81.3770   18.3530 H   0  0  0  0  0  0  0  0  0  0  0  0
   21.5380   79.6140   18.4160 H   0  0  0  0  0  0  0  0  0  0  0  0
   19.6090   81.6810   19.4350 H   0  0  0  0  0  0  0  0  0  0  0  0
   18.1030   80.9320   18.6740 H   0  0  0  0  0  0  0  0  0  0  0  0
   20.4440   79.5570   20.1060 H   0  0  0  0  0  0  0  0  0  0  0  0
   18.7640   79.6920   20.6170 H   0  0  0  0  0  0  0  0  0  0  0  0
   18.1820   77.9140   19.3670 H   0  0  0  0  0  0  0  0  0  0  0  0
   18.1430   77.7970   17.1400 H   0  0  0  0  0  0  0  0  0  0  0  0
   19.8970   77.7230   17.0620 H   0  0  0  0  0  0  0  0  0  0  0  0
   19.5390   79.6900   15.8130 H   0  0  0  0  0  0  0  0  0  0  0  0
   18.1090   80.0740   16.7540 H   0  0  0  0  0  0  0  0  0  0  0  0
   21.1580   76.4490   21.0430 H   0  0  0  0  0  0  0  0  0  0  0  0
   19.5030   76.9860   21.4570 H   0  0  0  0  0  0  0  0  0  0  0  0
   23.8200   76.4860   14.3740 H   0  0  0  0  0  0  0  0  0  0  0  0
   23.8740   76.1520   16.1870 H   0  0  0  0  0  0  0  0  0  0  0  0
   25.3800   74.7500   14.8670 H   0  0  0  0  0  0  0  0  0  0  0  0
   26.2590   76.2140   14.2730 H   0  0  0  0  0  0  0  0  0  0  0  0
   25.3300   76.7070   17.6050 H   0  0  0  0  0  0  0  0  0  0  0  0
   27.0820   76.9950   17.7730 H   0  0  0  0  0  0  0  0  0  0  0  0
   26.8710   77.9270   15.2930 H   0  0  0  0  0  0  0  0  0  0  0  0
   26.3570   79.0310   16.6350 H   0  0  0  0  0  0  0  0  0  0  0  0
  1  2  1  0  0  0  0
  2  3  1  0  0  0  0
  3 30  1  0  0  0  0
  3  4  2  0  0  0  0
  4 12  1  0  0  0  0
  5  4  1  0  0  0  0
  5  8  1  0  0  0  0
  6  5  2  0  0  0  0
  7  2  2  0  0  0  0
  7  6  1  0  0  0  0
  8  9  1  0  0  0  0
  9 29  1  0  0  0  0
  9 10  1  0  0  0  0
 10 34  1  0  0  0  0
 10 33  1  0  0  0  0
 11 10  1  0  0  0  0
 11 13  1  0  0  0  0
 12 36  1  0  0  0  0
 12 35  1  0  0  0  0
 12 11  1  0  0  0  0
 13 15  1  0  0  0  0
 14 13  2  0  0  0  0
 15 37  1  0  0  0  0
 15 38  1  0  0  0  0
 16 15  1  0  0  0  0
 16 17  1  0  0  0  0
 17 39  1  0  0  0  0
 17 18  1  0  0  0  0
 18 41  1  0  0  0  0
 18 42  1  0  0  0  0
 19 43  1  0  0  0  0
 19 22  1  0  0  0  0
 19 18  1  0  0  0  0
 20 19  1  0  0  0  0
 21 20  1  0  0  0  0
 21 16  1  0  0  0  0
 22 24  1  0  0  0  0
 23 22  2  0  0  0  0
 24 48  1  0  0  0  0
 24 49  1  0  0  0  0
 25  9  1  0  0  0  0
 25 51  1  0  0  0  0
 26 25  1  0  0  0  0
 26 27  1  0  0  0  0
 27 28  1  0  0  0  0
 28 54  1  0  0  0  0
 28 55  1  0  0  0  0
 29 57  1  0  0  0  0
 29 28  1  0  0  0  0
 31  6  1  0  0  0  0
 32  7  1  0  0  0  0
 40 17  1  0  0  0  0
 44 20  1  0  0  0  0
 45 20  1  0  0  0  0
 46 21  1  0  0  0  0
 47 21  1  0  0  0  0
 50 25  1  0  0  0  0
 52 26  1  0  0  0  0
 53 26  1  0  0  0  0
 56 29  1  0  0  0  0
M  END
>  <Pose>
1

>  <Score>
-5.40

$$$$
