
 OpenBabel03222202113D

 50 53  0  0  1  0  0  0  0  0999 V2000
   23.1230   79.9370   13.7670 S   0  0  0  0  0  0  0  0  0  0  0  0
   23.4810   81.4020   13.9670 O   0  0  0  0  0  0  0  0  0  0  0  0
   24.4770   79.2410   13.6400 O   0  0  0  0  0  0  0  0  0  0  0  0
   22.2520   79.7030   12.3570 N   0  0  0  0  0  0  0  0  0  0  0  0
   21.6480   80.8130   11.7600 C   0  0  0  0  0  0  0  0  0  0  0  0
   21.1190   80.5170   10.3490 C   0  0  0  0  0  0  0  0  0  0  0  0
   20.5470   79.2060   10.2660 N   0  0  0  0  0  0  0  0  0  0  0  0
   21.2660   78.1100   10.8760 C   0  0  0  0  0  0  0  0  0  0  0  0
   21.4750   78.4860   12.3300 C   0  0  0  0  0  0  0  0  0  0  0  0
   19.3270   79.0040    9.6100 C   0  0  0  0  0  0  0  0  0  0  0  0
   18.2430   79.1120   10.2380 O   0  0  0  0  0  0  0  0  0  0  0  0
   19.2450   78.6540    8.1570 C   0  0  0  0  0  0  0  0  0  0  0  0
   18.0240   77.8410    7.7970 C   0  0  0  0  0  0  0  0  0  0  0  0
   18.8630   76.5910    8.0490 C   0  0  0  0  0  0  0  0  0  0  0  0
   20.1030   77.4610    7.8200 C   0  0  0  0  0  0  0  0  0  0  0  0
   22.3960   79.3470   15.2460 C   0  0  0  0  0  0  0  0  0  0  0  0
   21.3490   80.0890   15.8280 C   0  0  0  0  0  0  0  0  0  0  0  0
   20.7780   79.7090   17.0210 C   0  0  0  0  0  0  0  0  0  0  0  0
   21.1880   78.5940   17.7150 C   0  0  0  0  0  0  0  0  0  0  0  0
   22.2060   77.8670   17.1520 C   0  0  0  0  0  0  0  0  0  0  0  0
   22.8010   78.2360   15.9360 C   0  0  0  0  0  0  0  0  0  0  0  0
   24.0400   77.2140   15.2480 Cl  0  0  0  0  0  0  0  0  0  0  0  0
   20.5600   78.2600   18.9390 N   0  0  0  0  0  0  0  0  0  0  0  0
   19.5070   79.0390   19.4930 C   0  0  0  0  0  0  0  0  0  0  0  0
   18.7520   78.6690   20.4120 O   0  0  0  0  0  0  0  0  0  0  0  0
   19.3210   80.3940   18.9090 C   0  0  2  0  0  0  0  0  0  0  0  0
   19.7420   80.4620   17.5750 O   0  0  0  0  0  0  0  0  0  0  0  0
   20.0880   81.4290   19.7010 C   0  0  0  0  0  0  0  0  0  0  0  0
   22.4070   81.6010   11.5850 H   0  0  0  0  0  0  0  0  0  0  0  0
   20.8130   81.2190   12.3460 H   0  0  0  0  0  0  0  0  0  0  0  0
   20.3560   81.2750   10.1140 H   0  0  0  0  0  0  0  0  0  0  0  0
   21.9720   80.5520    9.6440 H   0  0  0  0  0  0  0  0  0  0  0  0
   20.7550   77.1420   10.7610 H   0  0  0  0  0  0  0  0  0  0  0  0
   22.2840   78.0650   10.3940 H   0  0  0  0  0  0  0  0  0  0  0  0
   20.4890   78.6620   12.8060 H   0  0  0  0  0  0  0  0  0  0  0  0
   22.0360   77.7050   12.8480 H   0  0  0  0  0  0  0  0  0  0  0  0
   19.4010   79.5450    7.5020 H   0  0  0  0  0  0  0  0  0  0  0  0
   17.7080   77.9340    6.7500 H   0  0  0  0  0  0  0  0  0  0  0  0
   17.1720   77.9360    8.5200 H   0  0  0  0  0  0  0  0  0  0  0  0
   18.7870   76.2230    9.0850 H   0  0  0  0  0  0  0  0  0  0  0  0
   18.7170   75.7930    7.3180 H   0  0  0  0  0  0  0  0  0  0  0  0
   20.4550   77.4630    6.7650 H   0  0  0  0  0  0  0  0  0  0  0  0
   20.9240   77.2550    8.5170 H   0  0  0  0  0  0  0  0  0  0  0  0
   21.0200   80.9630   15.2950 H   0  0  0  0  0  0  0  0  0  0  0  0
   22.5610   76.9850   17.6580 H   0  0  0  0  0  0  0  0  0  0  0  0
   20.8750   77.4100   19.4630 H   0  0  0  0  0  0  0  0  0  0  0  0
   18.2490   80.6370   18.9580 H   0  0  0  0  0  0  0  0  0  0  0  0
   20.3730   80.9720   20.6920 H   0  0  0  0  0  0  0  0  0  0  0  0
   19.4520   82.3180   19.8580 H   0  0  0  0  0  0  0  0  0  0  0  0
   21.0260   81.6870   19.1760 H   0  0  0  0  0  0  0  0  0  0  0  0
  1  2  2  0  0  0  0
  1 16  1  0  0  0  0
  3  1  2  0  0  0  0
  4  1  1  0  0  0  0
  5 30  1  0  0  0  0
  5  4  1  0  0  0  0
  6  5  1  0  0  0  0
  7  6  1  0  0  0  0
  7  8  1  0  0  0  0
  8  9  1  0  0  0  0
  9  4  1  0  0  0  0
  9 35  1  0  0  0  0
  9 36  1  0  0  0  0
 10 11  2  0  0  0  0
 10  7  1  0  0  0  0
 12 10  1  0  0  0  0
 13 14  1  0  0  0  0
 13 12  1  0  0  0  0
 13 39  1  0  0  0  0
 14 40  1  0  0  0  0
 15 14  1  0  0  0  0
 15 12  1  0  0  0  0
 15 43  1  0  0  0  0
 16 17  2  0  0  0  0
 16 21  1  0  0  0  0
 17 18  1  0  0  0  0
 18 27  1  0  0  0  0
 18 19  2  0  0  0  0
 19 23  1  0  0  0  0
 20 45  1  0  0  0  0
 20 19  1  0  0  0  0
 21 20  2  0  0  0  0
 22 21  1  0  0  0  0
 23 46  1  0  0  0  0
 23 24  1  0  0  0  0
 24 25  2  0  0  0  0
 26 47  1  1  0  0  0
 26 24  1  0  0  0  0
 26 28  1  0  0  0  0
 27 26  1  0  0  0  0
 28 49  1  0  0  0  0
 28 48  1  0  0  0  0
 29  5  1  0  0  0  0
 31  6  1  0  0  0  0
 32  6  1  0  0  0  0
 33  8  1  0  0  0  0
 34  8  1  0  0  0  0
 37 12  1  0  0  0  0
 38 13  1  0  0  0  0
 41 14  1  0  0  0  0
 42 15  1  0  0  0  0
 44 17  1  0  0  0  0
 50 28  1  0  0  0  0
M  END
>  <Pose>
1

>  <Score>
-7.35

$$$$
