
 OpenBabel03222202113D

 48 51  0  0  0  0  0  0  0  0999 V2000
   19.5890   77.6550   17.6360 B   0  0  0  0  0  0  0  0  0  0  0  0
   21.2370   78.1860   16.8420 C   0  0  0  0  0  0  0  0  0  0  0  0
   21.3560   78.8620   15.6630 C   0  0  0  0  0  0  0  0  0  0  0  0
   22.5610   79.2350   15.1090 C   0  0  0  0  0  0  0  0  0  0  0  0
   23.7160   78.8900   15.8170 C   0  0  0  0  0  0  0  0  0  0  0  0
   23.6580   78.2110   17.0040 C   0  0  0  0  0  0  0  0  0  0  0  0
   22.4130   77.8610   17.5130 C   0  0  0  0  0  0  0  0  0  0  0  0
   24.9370   79.2560   15.2860 O   0  0  0  0  0  0  0  0  0  0  0  0
   26.1170   79.0590   16.0200 C   0  0  0  0  0  0  0  0  0  0  0  0
   22.6620   79.9690   13.8590 C   0  0  0  0  0  0  0  0  0  0  0  0
   22.0360   79.6950   12.7480 C   0  0  0  0  0  0  0  0  0  0  0  0
   21.1550   78.6380   12.5830 O   0  0  0  0  0  0  0  0  0  0  0  0
   20.6420   78.5900   11.3000 C   0  0  0  0  0  0  0  0  0  0  0  0
   21.1560   79.6130   10.5360 C   0  0  0  0  0  0  0  0  0  0  0  0
   20.7760   79.7500    9.2170 C   0  0  0  0  0  0  0  0  0  0  0  0
   19.8810   78.8540    8.6730 C   0  0  0  0  0  0  0  0  0  0  0  0
   19.3700   77.8150    9.4770 C   0  0  0  0  0  0  0  0  0  0  0  0
   19.7290   77.6610   10.7810 C   0  0  0  0  0  0  0  0  0  0  0  0
   19.2270   76.6340   11.6520 C   0  0  0  0  0  0  0  0  0  0  0  0
   19.5450   75.2750   11.4920 N   0  0  0  0  0  4  0  0  0  0  0  0
   20.2850   74.6730   12.5670 C   0  0  0  0  0  0  0  0  0  0  0  0
   19.4320   74.2340   13.7320 C   0  0  0  0  0  0  0  0  0  0  0  0
   18.0990   74.6000   13.6130 O   0  0  0  0  0  0  0  0  0  0  0  0
   17.6350   74.0130   12.4410 C   0  0  0  0  0  0  0  0  0  0  0  0
   18.3560   74.4500   11.2080 C   0  0  0  0  0  0  0  0  0  0  0  0
   18.4730   76.9820    8.7900 O   0  0  0  0  0  0  0  0  0  0  0  0
   22.0550   80.3450   11.4340 C   0  0  0  0  0  0  0  0  0  0  0  0
   22.7330   81.3550   11.1420 O   0  0  0  0  0  0  0  0  0  0  0  0
   20.4300   79.1160   15.1390 H   0  0  0  0  0  0  0  0  0  0  0  0
   24.5320   77.9150   17.5940 H   0  0  0  0  0  0  0  0  0  0  0  0
   22.3530   77.3160   18.4660 H   0  0  0  0  0  0  0  0  0  0  0  0
   26.9190   79.7720   15.6520 H   0  0  0  0  0  0  0  0  0  0  0  0
   26.5090   78.0300   15.8190 H   0  0  0  0  0  0  0  0  0  0  0  0
   26.0150   79.2850   17.1010 H   0  0  0  0  0  0  0  0  0  0  0  0
   23.3310   80.8440   13.8340 H   0  0  0  0  0  0  0  0  0  0  0  0
   21.1870   80.5650    8.6220 H   0  0  0  0  0  0  0  0  0  0  0  0
   19.5470   78.9100    7.6500 H   0  0  0  0  0  0  0  0  0  0  0  0
   19.4440   76.8680   12.7540 H   0  0  0  0  0  0  0  0  0  0  0  0
   18.0710   76.6640   11.6890 H   0  0  0  0  0  0  0  0  0  0  0  0
   20.1070   75.1560   10.6240 H   0  0  0  0  0  0  0  0  0  0  0  0
   20.7290   73.7260   12.1350 H   0  0  0  0  0  0  0  0  0  0  0  0
   21.1280   75.2890   12.8770 H   0  0  0  0  0  0  0  0  0  0  0  0
   19.4340   73.1140   13.8710 H   0  0  0  0  0  0  0  0  0  0  0  0
   19.8600   74.6300   14.6750 H   0  0  0  0  0  0  0  0  0  0  0  0
   16.5660   74.3630   12.3220 H   0  0  0  0  0  0  0  0  0  0  0  0
   17.5990   72.8930   12.5660 H   0  0  0  0  0  0  0  0  0  0  0  0
   17.7110   74.9960   10.4900 H   0  0  0  0  0  0  0  0  0  0  0  0
   18.6830   73.5360   10.6690 H   0  0  0  0  0  0  0  0  0  0  0  0
  2  7  1  0  0  0  0
  2  1  1  0  0  0  0
  3  2  2  0  0  0  0
  4  3  1  0  0  0  0
  4  5  2  0  0  0  0
  5  6  1  0  0  0  0
  6  7  2  0  0  0  0
  6 30  1  0  0  0  0
  7 31  1  0  0  0  0
  8  5  1  0  0  0  0
  8  9  1  0  0  0  0
  9 34  1  0  0  0  0
 10  4  1  0  0  0  0
 11 10  2  0  0  0  0
 12 11  1  0  0  0  0
 13 12  1  0  0  0  0
 14 13  2  0  0  0  0
 14 27  1  0  0  0  0
 15 14  1  0  0  0  0
 16 15  2  0  0  0  0
 16 17  1  0  0  0  0
 17 18  2  0  0  0  0
 18 13  1  0  0  0  0
 18 19  1  0  0  0  0
 19 39  1  0  0  0  0
 19 38  1  0  0  0  0
 20 19  1  0  0  0  0
 20 21  1  0  0  0  0
 21 42  1  0  0  0  0
 21 22  1  0  0  0  0
 22 43  1  0  0  0  0
 22 44  1  0  0  0  0
 23 22  1  0  0  0  0
 24 46  1  0  0  0  0
 24 23  1  0  0  0  0
 25 20  1  0  0  0  0
 25 24  1  0  0  0  0
 26 17  1  0  0  0  0
 27 11  1  0  0  0  0
 28 27  2  0  0  0  0
 29  3  1  0  0  0  0
 32  9  1  0  0  0  0
 33  9  1  0  0  0  0
 35 10  1  0  0  0  0
 36 15  1  0  0  0  0
 37 16  1  0  0  0  0
 40 20  1  0  0  0  0
 41 21  1  0  0  0  0
 45 24  1  0  0  0  0
 47 25  1  0  0  0  0
 48 25  1  0  0  0  0
M  END
>  <Pose>
1

>  <Score>
-5.89

$$$$
