
 OpenBabel03222202113D

 49 52  0  0  1  0  0  0  0  0999 V2000
   22.2130   79.8810   11.9260 S   0  0  0  0  0  0  0  0  0  0  0  0
   23.2180   79.0200   11.1960 O   0  0  0  0  0  0  0  0  0  0  0  0
   22.6050   81.3010   11.6960 O   0  0  0  0  0  0  0  0  0  0  0  0
   20.6700   79.5170   11.2610 N   0  0  0  0  0  0  0  0  0  0  0  0
   20.5290   78.0860   11.0870 C   0  0  0  0  0  0  0  0  0  0  0  0
   19.2740   77.7700   10.2830 C   0  0  0  0  0  0  0  0  0  0  0  0
   19.4120   78.4080    8.9740 N   0  0  0  0  0  0  0  0  0  0  0  0
   20.5000   79.3350    8.8650 C   0  0  0  0  0  0  0  0  0  0  0  0
   20.4430   80.2550   10.0560 C   0  0  0  0  0  0  0  0  0  0  0  0
   18.5190   78.0730    7.9520 C   0  0  0  0  0  0  0  0  0  0  0  0
   18.8880   78.2450    6.7200 O   0  0  0  0  0  0  0  0  0  0  0  0
   17.1600   77.5340    8.0680 C   0  0  0  0  0  0  0  0  0  0  0  0
   16.5740   76.6810    6.6100 S   0  0  0  0  0  0  0  0  0  0  0  0
   14.8000   76.7010    6.4140 C   0  0  1  0  0  0  0  0  0  0  0  0
   14.0290   77.4450    7.1970 N   0  0  0  0  0  0  0  0  0  0  0  0
   12.7000   77.5090    7.0800 C   0  0  0  0  0  0  0  0  0  0  0  0
   12.1010   76.7640    6.0990 N   0  0  0  0  0  0  0  0  0  0  0  0
   12.8500   76.0040    5.2940 C   0  0  0  0  0  0  0  0  0  0  0  0
   12.5100   75.1900    4.2520 N   0  0  0  0  0  0  0  0  0  0  0  0
   13.6130   74.6580    3.7660 N   0  0  0  0  0  0  0  0  0  0  0  0
   14.6770   75.0890    4.4460 C   0  0  0  0  0  0  0  0  0  0  0  0
   14.2260   75.9410    5.4190 C   0  0  0  0  0  0  0  0  0  0  0  0
   11.1790   74.9660    3.7700 C   0  0  0  0  0  0  0  0  0  0  0  0
   22.2210   79.4960   13.6320 C   0  0  0  0  0  0  0  0  0  0  0  0
   22.3510   80.4280   14.6360 C   0  0  0  0  0  0  0  0  0  0  0  0
   22.3600   80.0620   15.9600 C   0  0  0  0  0  0  0  0  0  0  0  0
   22.2330   78.7190   16.3150 C   0  0  0  0  0  0  0  0  0  0  0  0
   22.1010   77.7600   15.3040 C   0  0  0  0  0  0  0  0  0  0  0  0
   22.0950   78.1520   13.9840 C   0  0  0  0  0  0  0  0  0  0  0  0
   22.2450   78.2690   17.9990 Cl  0  0  0  0  0  0  0  0  0  0  0  0
   20.3990   77.6330   12.0790 H   0  0  0  0  0  0  0  0  0  0  0  0
   21.3960   77.6330   10.6010 H   0  0  0  0  0  0  0  0  0  0  0  0
   19.2430   76.6680   10.1620 H   0  0  0  0  0  0  0  0  0  0  0  0
   18.4210   78.1650   10.8420 H   0  0  0  0  0  0  0  0  0  0  0  0
   20.5380   79.8800    7.9030 H   0  0  0  0  0  0  0  0  0  0  0  0
   21.4510   78.7380    8.8780 H   0  0  0  0  0  0  0  0  0  0  0  0
   21.0750   81.1440    9.9300 H   0  0  0  0  0  0  0  0  0  0  0  0
   19.3820   80.6550   10.0650 H   0  0  0  0  0  0  0  0  0  0  0  0
   16.4740   78.3860    8.2490 H   0  0  0  0  0  0  0  0  0  0  0  0
   17.0080   76.8520    8.9310 H   0  0  0  0  0  0  0  0  0  0  0  0
   12.1140   78.1280    7.7360 H   0  0  0  0  0  0  0  0  0  0  0  0
   15.6950   74.8230    4.2650 H   0  0  0  0  0  0  0  0  0  0  0  0
   10.5500   75.8980    3.7850 H   0  0  0  0  0  0  0  0  0  0  0  0
   11.2390   74.5670    2.7190 H   0  0  0  0  0  0  0  0  0  0  0  0
   10.7010   74.2080    4.4180 H   0  0  0  0  0  0  0  0  0  0  0  0
   22.4470   81.4630   14.3630 H   0  0  0  0  0  0  0  0  0  0  0  0
   22.4560   80.7680   16.7690 H   0  0  0  0  0  0  0  0  0  0  0  0
   22.0070   76.7190   15.6120 H   0  0  0  0  0  0  0  0  0  0  0  0
   21.9940   77.4260   13.2110 H   0  0  0  0  0  0  0  0  0  0  0  0
  1 24  1  0  0  0  0
  2  1  2  0  0  0  0
  3  1  2  0  0  0  0
  4  1  1  0  0  0  0
  5  4  1  0  0  0  0
  5 31  1  0  0  0  0
  6 34  1  0  0  0  0
  6  5  1  0  0  0  0
  7  6  1  0  0  0  0
  8 36  1  0  0  0  0
  8  7  1  0  0  0  0
  8  9  1  0  0  0  0
  9 38  1  0  0  0  0
  9  4  1  0  0  0  0
 10 12  1  0  0  0  0
 10  7  1  0  0  0  0
 11 10  2  0  0  0  0
 12 39  1  0  0  0  0
 12 40  1  0  0  0  0
 13 12  1  0  0  0  0
 14 13  1  6  0  0  0
 14 15  1  0  0  0  0
 16 15  2  0  0  0  0
 16 41  1  0  0  0  0
 17 16  1  0  0  0  0
 18 22  2  0  0  0  0
 18 17  1  0  0  0  0
 19 18  1  0  0  0  0
 20 19  1  0  0  0  0
 20 21  2  0  0  0  0
 21 22  1  0  0  0  0
 22 14  1  0  0  0  0
 23 43  1  0  0  0  0
 23 19  1  0  0  0  0
 23 45  1  0  0  0  0
 24 29  2  0  0  0  0
 24 25  1  0  0  0  0
 25 26  2  0  0  0  0
 26 27  1  0  0  0  0
 26 47  1  0  0  0  0
 27 30  1  0  0  0  0
 28 48  1  0  0  0  0
 28 27  2  0  0  0  0
 29 28  1  0  0  0  0
 32  5  1  0  0  0  0
 33  6  1  0  0  0  0
 35  8  1  0  0  0  0
 37  9  1  0  0  0  0
 42 21  1  0  0  0  0
 44 23  1  0  0  0  0
 46 25  1  0  0  0  0
 49 29  1  0  0  0  0
M  END
>  <Pose>
1

>  <Score>
-7.15

$$$$
