
 OpenBabel03222202113D

 49 52  0  0  0  0  0  0  0  0999 V2000
   19.6870   78.4860   10.3670 S   0  0  0  0  0  0  0  0  0  0  0  0
   19.6670   77.8660   11.7580 O   0  0  0  0  0  0  0  0  0  0  0  0
   18.6350   79.5890   10.4250 O   0  0  0  0  0  0  0  0  0  0  0  0
   21.1880   79.2060   10.1480 N   0  0  0  0  0  0  0  0  0  0  0  0
   22.3230   78.3230   10.2650 C   0  0  0  0  0  0  0  0  0  0  0  0
   23.2330   78.8760   11.3600 C   0  0  0  0  0  0  0  0  0  0  0  0
   22.4480   79.3280   12.4460 N   0  0  0  0  0  0  0  0  0  0  0  0
   21.7670   80.6500   12.0870 C   0  0  0  0  0  0  0  0  0  0  0  0
   21.3680   80.5130   10.6620 C   0  0  0  0  0  0  0  0  0  0  0  0
   22.1680   78.7900   13.6680 C   0  0  0  0  0  0  0  0  0  0  0  0
   22.5430   77.4640   13.6850 O   0  0  0  0  0  0  0  0  0  0  0  0
   21.6200   79.1320   14.9210 C   0  0  0  0  0  0  0  0  0  0  0  0
   21.2380   78.5980   16.0340 C   0  0  0  0  0  0  0  0  0  0  0  0
   21.2860   77.2220   16.2990 N   0  0  0  0  0  0  0  0  0  0  0  0
   20.9290   76.6250   17.5290 N   0  0  0  0  0  0  0  0  0  0  0  0
   20.4910   77.4430   18.5760 C   0  0  0  0  0  0  0  0  0  0  0  0
   20.1690   76.9250   19.6770 O   0  0  0  0  0  0  0  0  0  0  0  0
   20.4170   78.8980   18.3560 C   0  0  0  0  0  0  0  0  0  0  0  0
   20.7680   79.4750   17.1490 C   0  0  0  0  0  0  0  0  0  0  0  0
   20.6710   80.8240   17.0320 C   0  0  0  0  0  0  0  0  0  0  0  0
   20.2250   81.5890   18.1140 C   0  0  0  0  0  0  0  0  0  0  0  0
   19.8740   81.0230   19.3130 C   0  0  0  0  0  0  0  0  0  0  0  0
   19.9750   79.6530   19.4280 C   0  0  0  0  0  0  0  0  0  0  0  0
   19.2090   77.3640    9.1560 C   0  0  0  0  0  0  0  0  0  0  0  0
   18.6200   77.7770    7.9880 C   0  0  0  0  0  0  0  0  0  0  0  0
   18.2440   76.8550    7.0280 C   0  0  0  0  0  0  0  0  0  0  0  0
   18.4410   75.5030    7.2000 C   0  0  0  0  0  0  0  0  0  0  0  0
   19.0360   75.0790    8.3770 C   0  0  0  0  0  0  0  0  0  0  0  0
   19.4100   76.0190    9.3350 C   0  0  0  0  0  0  0  0  0  0  0  0
   17.9460   74.3760    5.9530 Cl  0  0  0  0  0  0  0  0  0  0  0  0
   22.0660   77.2710   10.4290 H   0  0  0  0  0  0  0  0  0  0  0  0
   22.8970   78.3860    9.3210 H   0  0  0  0  0  0  0  0  0  0  0  0
   23.6810   79.8200   10.8540 H   0  0  0  0  0  0  0  0  0  0  0  0
   24.0980   78.2820   11.5850 H   0  0  0  0  0  0  0  0  0  0  0  0
   22.5840   81.3810   12.2220 H   0  0  0  0  0  0  0  0  0  0  0  0
   20.9550   80.8340   12.8040 H   0  0  0  0  0  0  0  0  0  0  0  0
   22.1700   81.0100   10.0390 H   0  0  0  0  0  0  0  0  0  0  0  0
   20.4460   81.0940   10.4300 H   0  0  0  0  0  0  0  0  0  0  0  0
   21.4590   80.2830   14.9600 H   0  0  0  0  0  0  0  0  0  0  0  0
   21.5570   76.5570   15.5710 H   0  0  0  0  0  0  0  0  0  0  0  0
   21.0100   75.5680   17.6110 H   0  0  0  0  0  0  0  0  0  0  0  0
   20.9270   81.3400   16.1220 H   0  0  0  0  0  0  0  0  0  0  0  0
   20.1640   82.6520   17.9750 H   0  0  0  0  0  0  0  0  0  0  0  0
   19.5270   81.6040   20.1630 H   0  0  0  0  0  0  0  0  0  0  0  0
   19.7090   79.1440   20.3620 H   0  0  0  0  0  0  0  0  0  0  0  0
   18.4220   78.8170    7.7570 H   0  0  0  0  0  0  0  0  0  0  0  0
   17.7720   77.1670    6.0880 H   0  0  0  0  0  0  0  0  0  0  0  0
   19.1970   74.0130    8.5250 H   0  0  0  0  0  0  0  0  0  0  0  0
   19.8730   75.5940   10.2360 H   0  0  0  0  0  0  0  0  0  0  0  0
  1  3  2  0  0  0  0
  1  2  2  0  0  0  0
  4  5  1  0  0  0  0
  4  1  1  0  0  0  0
  4  9  1  0  0  0  0
  5 31  1  0  0  0  0
  5  6  1  0  0  0  0
  6 34  1  0  0  0  0
  6  7  1  0  0  0  0
  7 10  1  0  0  0  0
  8 35  1  0  0  0  0
  8  7  1  0  0  0  0
  8 36  1  0  0  0  0
  9  8  1  0  0  0  0
 10 11  2  0  0  0  0
 10 12  1  0  0  0  0
 12 39  1  0  0  0  0
 12 13  2  0  0  0  0
 13 14  1  0  0  0  0
 13 19  1  0  0  0  0
 14 15  1  0  0  0  0
 15 41  1  0  0  0  0
 15 16  1  0  0  0  0
 16 17  2  0  0  0  0
 18 16  1  0  0  0  0
 18 23  1  0  0  0  0
 19 18  2  0  0  0  0
 20 19  1  0  0  0  0
 20 21  2  0  0  0  0
 21 22  1  0  0  0  0
 22 23  2  0  0  0  0
 22 44  1  0  0  0  0
 23 45  1  0  0  0  0
 24 29  1  0  0  0  0
 24  1  1  0  0  0  0
 25 24  2  0  0  0  0
 26 27  2  0  0  0  0
 26 25  1  0  0  0  0
 27 28  1  0  0  0  0
 28 48  1  0  0  0  0
 28 29  2  0  0  0  0
 29 49  1  0  0  0  0
 30 27  1  0  0  0  0
 32  5  1  0  0  0  0
 33  6  1  0  0  0  0
 37  9  1  0  0  0  0
 38  9  1  0  0  0  0
 40 14  1  0  0  0  0
 42 20  1  0  0  0  0
 43 21  1  0  0  0  0
 46 25  1  0  0  0  0
 47 26  1  0  0  0  0
M  END
>  <Pose>
1

>  <Score>
-7.84

$$$$
