
 OpenBabel03222202113D

 48 51  0  0  0  0  0  0  0  0999 V2000
   17.9190   73.3700   12.3430 B   0  0  0  0  0  0  0  0  0  0  0  0
   19.1600   74.5020   13.2440 C   0  0  0  0  0  0  0  0  0  0  0  0
   19.2730   75.8550   12.9420 C   0  0  0  0  0  0  0  0  0  0  0  0
   20.2080   76.6280   13.6290 C   0  0  0  0  0  0  0  0  0  0  0  0
   21.0300   76.1300   14.5920 C   0  0  0  0  0  0  0  0  0  0  0  0
   20.8800   74.7570   14.8630 C   0  0  0  0  0  0  0  0  0  0  0  0
   19.9720   73.9560   14.2100 C   0  0  0  0  0  0  0  0  0  0  0  0
   22.0510   76.8610   15.3160 C   0  0  0  0  0  0  0  0  0  0  0  0
   21.6750   78.1040   15.9460 N   0  0  0  0  0  0  0  0  0  0  0  0
   20.8890   78.2520   17.0220 C   0  0  0  0  0  0  0  0  0  0  0  0
   20.7830   79.5930   17.3170 C   0  0  0  0  0  0  0  0  0  0  0  0
   21.5110   80.2220   16.4070 N   0  0  0  0  0  0  0  0  0  0  0  0
   22.0650   79.3440   15.5590 C   0  0  0  0  0  0  0  0  0  0  0  0
   22.9170   79.6430   14.4460 N   0  0  0  0  0  0  0  0  0  0  0  0
   22.7490   80.9230   13.7940 C   0  0  0  0  0  0  0  0  0  0  0  0
   22.2670   80.6610   12.3740 C   0  0  0  0  0  0  0  0  0  0  0  0
   22.6120   79.3620   11.9010 N   0  0  0  0  0  0  0  0  0  0  0  0
   23.8230   78.8100   12.4120 C   0  0  0  0  0  0  0  0  0  0  0  0
   23.9210   78.7590   13.9150 C   0  0  0  0  0  0  0  0  0  0  0  0
   21.5570   78.4620   11.6290 C   0  0  0  0  0  0  0  0  0  0  0  0
   20.0470   80.0800   18.3470 N   0  0  0  0  0  0  0  0  0  0  0  0
   19.3940   79.1820   19.1040 C   0  0  0  0  0  0  0  0  0  0  0  0
   18.7190   79.6500   20.0540 O   0  0  0  0  0  0  0  0  0  0  0  0
   19.4550   77.8610   18.8650 N   0  0  0  0  0  0  0  0  0  0  0  0
   20.1830   77.3670   17.8460 C   0  0  0  0  0  0  0  0  0  0  0  0
   20.2580   76.1560   17.5980 O   0  0  0  0  0  0  0  0  0  0  0  0
   19.9980   81.5070   18.5820 C   0  0  0  0  0  0  0  0  0  0  0  0
   18.6380   76.3000   12.1880 H   0  0  0  0  0  0  0  0  0  0  0  0
   20.2450   77.6460   13.3490 H   0  0  0  0  0  0  0  0  0  0  0  0
   21.4940   74.2670   15.6130 H   0  0  0  0  0  0  0  0  0  0  0  0
   19.9050   72.8930   14.4680 H   0  0  0  0  0  0  0  0  0  0  0  0
   22.4340   76.2020   16.1540 H   0  0  0  0  0  0  0  0  0  0  0  0
   22.8880   77.0890   14.6130 H   0  0  0  0  0  0  0  0  0  0  0  0
   23.7740   81.3970   13.7330 H   0  0  0  0  0  0  0  0  0  0  0  0
   22.1130   81.6340   14.3370 H   0  0  0  0  0  0  0  0  0  0  0  0
   21.1620   80.7520   12.3960 H   0  0  0  0  0  0  0  0  0  0  0  0
   22.6530   81.4380   11.6900 H   0  0  0  0  0  0  0  0  0  0  0  0
   24.6890   79.4050   12.0020 H   0  0  0  0  0  0  0  0  0  0  0  0
   23.9470   77.7830   12.0150 H   0  0  0  0  0  0  0  0  0  0  0  0
   24.9370   79.1550   14.2060 H   0  0  0  0  0  0  0  0  0  0  0  0
   23.8130   77.7110   14.2540 H   0  0  0  0  0  0  0  0  0  0  0  0
   20.5750   78.7250   12.0660 H   0  0  0  0  0  0  0  0  0  0  0  0
   21.8330   77.4650   12.0530 H   0  0  0  0  0  0  0  0  0  0  0  0
   21.4010   78.2800   10.5310 H   0  0  0  0  0  0  0  0  0  0  0  0
   18.9420   77.1720   19.4560 H   0  0  0  0  0  0  0  0  0  0  0  0
   19.0330   81.8140   19.0520 H   0  0  0  0  0  0  0  0  0  0  0  0
   20.2600   82.0490   17.6770 H   0  0  0  0  0  0  0  0  0  0  0  0
   20.7690   81.7350   19.3530 H   0  0  0  0  0  0  0  0  0  0  0  0
  1  2  1  0  0  0  0
  2  7  1  0  0  0  0
  3  2  2  0  0  0  0
  3  4  1  0  0  0  0
  4  5  2  0  0  0  0
  5  6  1  0  0  0  0
  5  8  1  0  0  0  0
  6 30  1  0  0  0  0
  7 31  1  0  0  0  0
  7  6  2  0  0  0  0
  8  9  1  0  0  0  0
  8 32  1  0  0  0  0
  9 10  1  0  0  0  0
 10 11  2  0  0  0  0
 10 25  1  0  0  0  0
 11 21  1  0  0  0  0
 12 11  1  0  0  0  0
 13  9  1  0  0  0  0
 13 12  2  0  0  0  0
 14 13  1  0  0  0  0
 15 35  1  0  0  0  0
 15 14  1  0  0  0  0
 16 36  1  0  0  0  0
 16 15  1  0  0  0  0
 17 16  1  0  0  0  0
 17 18  1  0  0  0  0
 18 19  1  0  0  0  0
 19 40  1  0  0  0  0
 19 41  1  0  0  0  0
 19 14  1  0  0  0  0
 20 17  1  0  0  0  0
 20 43  1  0  0  0  0
 20 42  1  0  0  0  0
 21 27  1  0  0  0  0
 21 22  1  0  0  0  0
 22 23  2  0  0  0  0
 24 22  1  0  0  0  0
 24 45  1  0  0  0  0
 25 24  1  0  0  0  0
 26 25  2  0  0  0  0
 27 46  1  0  0  0  0
 27 48  1  0  0  0  0
 28  3  1  0  0  0  0
 29  4  1  0  0  0  0
 33  8  1  0  0  0  0
 34 15  1  0  0  0  0
 37 16  1  0  0  0  0
 38 18  1  0  0  0  0
 39 18  1  0  0  0  0
 44 20  1  0  0  0  0
 47 27  1  0  0  0  0
M  END
>  <Pose>
1

>  <Score>
-6.12

$$$$
