
 OpenBabel03222202113D

 38 41  0  0  1  0  0  0  0  0999 V2000
   19.3640   81.4200   19.7200 Cl  0  0  0  0  0  0  0  0  0  0  0  0
   19.9410   79.8370   19.2410 C   0  0  0  0  0  0  0  0  0  0  0  0
   20.4710   79.6300   17.9670 C   0  0  0  0  0  0  0  0  0  0  0  0
   20.9300   78.4140   17.5560 C   0  0  0  0  0  0  0  0  0  0  0  0
   20.8470   77.3770   18.4750 C   0  0  0  0  0  0  0  0  0  0  0  0
   20.3280   77.5620   19.7380 C   0  0  0  0  0  0  0  0  0  0  0  0
   19.8690   78.7980   20.1350 C   0  0  0  0  0  0  0  0  0  0  0  0
   21.4210   78.5300   16.1670 C   0  0  2  0  0  0  0  0  0  0  0  0
   20.6030   77.6560   15.2500 C   0  0  0  0  0  0  0  0  0  0  0  0
   21.1190   76.7380   14.4820 C   0  0  0  0  0  0  0  0  0  0  0  0
   22.5220   76.4850   14.4530 N   0  0  0  0  0  0  0  0  0  0  0  0
   23.3650   77.2610   15.2850 C   0  0  0  0  0  0  0  0  0  0  0  0
   22.8560   78.1900   16.0620 C   0  0  0  0  0  0  0  0  0  0  0  0
   23.7590   78.9650   16.9020 C   0  0  0  0  0  0  0  0  0  0  0  0
   24.4870   79.5820   17.5560 N   0  0  0  0  0  0  0  0  0  0  0  0
   24.7820   77.0670   15.3090 N   0  0  0  0  0  0  0  0  0  0  0  0
   20.0330   76.0820   13.7250 C   0  0  0  0  0  0  0  0  0  0  0  0
   18.8720   76.6990   14.1250 O   0  0  0  0  0  0  0  0  0  0  0  0
   19.1580   77.6700   15.0550 C   0  0  0  0  0  0  0  0  0  0  0  0
   18.3400   78.4520   15.6540 O   0  0  0  0  0  0  0  0  0  0  0  0
   20.0720   74.5950   13.9970 C   0  0  0  0  0  0  0  0  0  0  0  0
   20.1910   76.2770   12.2280 C   0  0  0  0  0  0  0  0  0  0  0  0
   21.1960   79.9520   15.8150 C   0  0  0  0  0  0  0  0  0  0  0  0
   21.4730   80.5140   14.6960 O   0  0  0  0  0  0  0  0  0  0  0  0
   20.6170   80.5870   16.9320 N   0  0  0  0  0  0  0  0  0  0  0  0
   21.1950   76.3950   18.2060 H   0  0  0  0  0  0  0  0  0  0  0  0
   20.2580   76.7530   20.4660 H   0  0  0  0  0  0  0  0  0  0  0  0
   19.4560   78.9740   21.1190 H   0  0  0  0  0  0  0  0  0  0  0  0
   22.9410   75.7520   13.8420 H   0  0  0  0  0  0  0  0  0  0  0  0
   25.3790   77.4490   14.5630 H   0  0  0  0  0  0  0  0  0  0  0  0
   25.1900   76.5370   16.0890 H   0  0  0  0  0  0  0  0  0  0  0  0
   19.1910   74.0780   13.5770 H   0  0  0  0  0  0  0  0  0  0  0  0
   20.2870   74.3530   15.0430 H   0  0  0  0  0  0  0  0  0  0  0  0
   20.9510   74.2010   13.4060 H   0  0  0  0  0  0  0  0  0  0  0  0
   20.4250   77.3700   12.0950 H   0  0  0  0  0  0  0  0  0  0  0  0
   19.2060   76.0560   11.7710 H   0  0  0  0  0  0  0  0  0  0  0  0
   20.9420   75.6200   11.7860 H   0  0  0  0  0  0  0  0  0  0  0  0
   20.3500   81.6180   16.9540 H   0  0  0  0  0  0  0  0  0  0  0  0
  2  1  1  0  0  0  0
  2  7  1  0  0  0  0
  3  2  2  0  0  0  0
  4  3  1  0  0  0  0
  4  5  2  0  0  0  0
  5  6  1  0  0  0  0
  6  7  2  0  0  0  0
  6 27  1  0  0  0  0
  7 28  1  0  0  0  0
  8  9  1  6  0  0  0
  8  4  1  0  0  0  0
 10  9  2  0  0  0  0
 11 10  1  0  0  0  0
 11 12  1  0  0  0  0
 12 16  1  0  0  0  0
 12 13  2  0  0  0  0
 13  8  1  0  0  0  0
 13 14  1  0  0  0  0
 14 15  3  0  0  0  0
 16 31  1  0  0  0  0
 17 21  1  0  0  0  0
 17 18  1  0  0  0  0
 17 10  1  0  0  0  0
 18 19  1  0  0  0  0
 19  9  1  0  0  0  0
 19 20  2  0  0  0  0
 21 33  1  0  0  0  0
 22 17  1  0  0  0  0
 23  8  1  0  0  0  0
 23 25  1  0  0  0  0
 24 23  2  0  0  0  0
 25 38  1  0  0  0  0
 25  3  1  0  0  0  0
 26  5  1  0  0  0  0
 29 11  1  0  0  0  0
 30 16  1  0  0  0  0
 32 21  1  0  0  0  0
 34 21  1  0  0  0  0
 35 22  1  0  0  0  0
 36 22  1  0  0  0  0
 37 22  1  0  0  0  0
M  END
>  <Pose>
1

>  <Score>
-4.15

$$$$
