
 OpenBabel03222202113D

 52 55  0  0  0  0  0  0  0  0999 V2000
   18.4930   84.1320   22.5410 B   0  0  0  0  0  0  0  0  0  0  0  0
   19.2460   83.4400   20.9370 C   0  0  0  0  0  0  0  0  0  0  0  0
   19.6780   84.3400   19.9760 C   0  0  0  0  0  0  0  0  0  0  0  0
   20.2160   83.8130   18.8170 C   0  0  0  0  0  0  0  0  0  0  0  0
   20.3150   82.4580   18.6330 C   0  0  0  0  0  0  0  0  0  0  0  0
   19.8890   81.5340   19.5860 C   0  0  0  0  0  0  0  0  0  0  0  0
   19.3550   82.0780   20.7340 C   0  0  0  0  0  0  0  0  0  0  0  0
   20.0430   80.1160   19.3380 C   0  0  0  0  0  0  0  0  0  0  0  0
   19.3350   79.4940   18.4590 N   0  0  0  0  0  0  0  0  0  0  0  0
   19.4430   78.1400   18.1890 N   0  0  0  0  0  0  0  0  0  0  0  0
   20.1280   77.6870   17.0270 C   0  0  0  0  0  0  0  0  0  0  0  0
   21.4360   77.8550   16.9150 N   0  0  0  0  0  4  0  0  0  0  0  0
   22.1670   77.4340   15.8680 C   0  0  0  0  0  0  0  0  0  0  0  0
   21.4990   76.8000   14.8790 N   0  0  0  0  0  0  0  0  0  0  0  0
   20.1550   76.5980   14.9370 C   0  0  0  0  0  0  0  0  0  0  0  0
   19.4850   77.0520   16.0250 N   0  0  0  0  0  0  0  0  0  0  0  0
   19.4740   75.9220   13.9050 N   0  0  0  0  0  0  0  0  0  0  0  0
   19.5000   76.4030   12.5480 C   0  0  0  0  0  0  0  0  0  0  0  0
   19.9580   75.2050   11.7030 C   0  0  0  0  0  0  0  0  0  0  0  0
   19.1460   74.1240   11.9810 O   0  0  0  0  0  0  0  0  0  0  0  0
   19.3890   73.6490   13.2690 C   0  0  0  0  0  0  0  0  0  0  0  0
   18.7500   74.7090   14.1920 C   0  0  0  0  0  0  0  0  0  0  0  0
   23.5880   77.6360   15.7920 N   0  0  0  0  0  0  0  0  0  0  0  0
   24.2380   78.6670   16.5500 C   0  0  0  0  0  0  0  0  0  0  0  0
   25.7150   78.6270   16.5970 C   0  0  0  0  0  0  0  0  0  0  0  0
   26.3030   77.8320   15.6220 O   0  0  0  0  0  0  0  0  0  0  0  0
   25.7140   76.5770   15.5460 C   0  0  0  0  0  0  0  0  0  0  0  0
   24.3480   76.7740   14.9360 C   0  0  0  0  0  0  0  0  0  0  0  0
   20.8590   81.9320   17.4560 O   0  0  0  0  0  0  0  0  0  0  0  0
   19.5810   85.7190   20.1530 O   0  0  0  0  0  0  0  0  0  0  0  0
   20.5500   84.5390   18.0690 H   0  0  0  0  0  0  0  0  0  0  0  0
   19.0120   81.3610   21.4960 H   0  0  0  0  0  0  0  0  0  0  0  0
   20.7700   79.5520   19.9000 H   0  0  0  0  0  0  0  0  0  0  0  0
   19.0270   77.4530   18.8280 H   0  0  0  0  0  0  0  0  0  0  0  0
   18.4790   76.7010   12.2340 H   0  0  0  0  0  0  0  0  0  0  0  0
   20.2300   77.2420   12.4230 H   0  0  0  0  0  0  0  0  0  0  0  0
   19.9210   75.5080   10.6410 H   0  0  0  0  0  0  0  0  0  0  0  0
   21.0170   75.0070   12.0040 H   0  0  0  0  0  0  0  0  0  0  0  0
   20.5010   73.7320   13.4560 H   0  0  0  0  0  0  0  0  0  0  0  0
   18.9980   72.6500   13.4400 H   0  0  0  0  0  0  0  0  0  0  0  0
   17.7060   74.8470   13.7860 H   0  0  0  0  0  0  0  0  0  0  0  0
   18.7630   74.4050   15.2430 H   0  0  0  0  0  0  0  0  0  0  0  0
   23.8680   79.6470   16.1400 H   0  0  0  0  0  0  0  0  0  0  0  0
   23.8480   78.5800   17.6110 H   0  0  0  0  0  0  0  0  0  0  0  0
   26.0730   78.3140   17.6110 H   0  0  0  0  0  0  0  0  0  0  0  0
   26.1040   79.6660   16.4440 H   0  0  0  0  0  0  0  0  0  0  0  0
   26.3700   75.9330   14.9540 H   0  0  0  0  0  0  0  0  0  0  0  0
   25.5280   76.1280   16.5580 H   0  0  0  0  0  0  0  0  0  0  0  0
   23.9040   75.7460   14.8790 H   0  0  0  0  0  0  0  0  0  0  0  0
   24.4040   77.1590   13.8950 H   0  0  0  0  0  0  0  0  0  0  0  0
   21.7880   82.2360   17.1790 H   0  0  0  0  0  0  0  0  0  0  0  0
   20.2500   86.3790   19.7860 H   0  0  0  0  0  0  0  0  0  0  0  0
  2  1  1  0  0  0  0
  3 30  1  0  0  0  0
  3  2  2  0  0  0  0
  4  3  1  0  0  0  0
  5  4  2  0  0  0  0
  5  6  1  0  0  0  0
  6  7  2  0  0  0  0
  7  2  1  0  0  0  0
  7 32  1  0  0  0  0
  8  6  1  0  0  0  0
  8 33  1  0  0  0  0
  9  8  2  0  0  0  0
 10  9  1  0  0  0  0
 10 34  1  0  0  0  0
 11 10  1  0  0  0  0
 12 11  2  0  0  0  0
 13 12  2  0  0  0  0
 14 15  2  0  0  0  0
 14 13  1  0  0  0  0
 15 16  1  0  0  0  0
 16 11  1  0  0  0  0
 17 22  1  0  0  0  0
 17 15  1  0  0  0  0
 18 17  1  0  0  0  0
 19 20  1  0  0  0  0
 19 38  1  0  0  0  0
 19 18  1  0  0  0  0
 20 21  1  0  0  0  0
 21 40  1  0  0  0  0
 21 39  1  0  0  0  0
 21 22  1  0  0  0  0
 22 42  1  0  0  0  0
 23 13  1  0  0  0  0
 23 24  1  0  0  0  0
 24 25  1  0  0  0  0
 24 44  1  0  0  0  0
 25 45  1  0  0  0  0
 26 25  1  0  0  0  0
 27 26  1  0  0  0  0
 27 48  1  0  0  0  0
 28 27  1  0  0  0  0
 28 23  1  0  0  0  0
 29  5  1  0  0  0  0
 31  4  1  0  0  0  0
 35 18  1  0  0  0  0
 36 18  1  0  0  0  0
 37 19  1  0  0  0  0
 41 22  1  0  0  0  0
 43 24  1  0  0  0  0
 46 25  1  0  0  0  0
 47 27  1  0  0  0  0
 49 28  1  0  0  0  0
 50 28  1  0  0  0  0
 51 29  1  0  0  0  0
 52 30  1  0  0  0  0
M  END
>  <Pose>
1

>  <Score>
-6.99

$$$$
