
 OpenBabel03222202113D

 56 59  0  0  1  0  0  0  0  0999 V2000
   22.2140   77.9330    7.8020 Cl  0  0  0  0  0  0  0  0  0  0  0  0
   21.8750   78.7260    9.3420 C   0  0  0  0  0  0  0  0  0  0  0  0
   22.8140   78.6670   10.3200 C   0  0  0  0  0  0  0  0  0  0  0  0
   22.5160   79.3020   11.5300 C   0  0  0  0  0  0  0  0  0  0  0  0
   21.3490   79.9530   11.7380 C   0  0  0  0  0  0  0  0  0  0  0  0
   21.3850   80.4460   13.0130 N   0  0  0  0  0  0  0  0  0  0  0  0
   22.5330   80.1260   13.6140 C   0  0  0  0  0  0  0  0  0  0  0  0
   23.2700   79.3960   12.6830 C   0  0  0  0  0  0  0  0  0  0  0  0
   22.9970   80.3970   14.9480 C   0  0  0  0  0  0  0  0  0  0  0  0
   22.3670   81.4310   15.5220 O   0  0  0  0  0  0  0  0  0  0  0  0
   23.9480   79.8200   15.7630 N   0  0  0  0  0  0  0  0  0  0  0  0
   23.8200   80.2970   17.1690 C   0  0  0  0  0  0  0  0  0  0  0  0
   22.8770   79.3750   17.9180 C   0  0  0  0  0  0  0  0  0  0  0  0
   22.8390   78.0810   17.1970 C   0  0  1  0  0  0  0  0  0  0  0  0
   24.1980   77.4650   17.1170 C   0  0  2  0  0  0  0  0  0  0  0  0
   24.5640   77.4400   15.6220 C   0  0  0  0  0  0  0  0  0  0  0  0
   24.9370   78.9020   15.3140 C   0  0  0  0  0  0  0  0  0  0  0  0
   24.2770   76.1910   17.6760 O   0  0  0  0  0  0  0  0  0  0  0  0
   21.8760   77.1100   17.6070 N   0  0  0  0  0  0  0  0  0  0  0  0
   20.6050   77.1900   16.9320 C   0  0  0  0  0  0  0  0  0  0  0  0
   19.9010   78.4600   17.2240 C   0  0  0  0  0  0  0  0  0  0  0  0
   19.7860   78.5480   18.6840 N   0  0  0  0  0  0  0  0  0  0  0  0
   20.3210   77.4330   19.4230 C   0  0  0  0  0  0  0  0  0  0  0  0
   21.7110   77.0250   19.0330 C   0  0  0  0  0  0  0  0  0  0  0  0
   19.1560   79.6800   19.2840 C   0  0  0  0  0  0  0  0  0  0  0  0
   18.2760   79.5060   20.1370 O   0  0  0  0  0  0  0  0  0  0  0  0
   19.5880   81.0470   18.8530 C   0  0  0  0  0  0  0  0  0  0  0  0
   20.4120   80.0040   10.7410 C   0  0  0  0  0  0  0  0  0  0  0  0
   20.6760   79.3840    9.5290 C   0  0  0  0  0  0  0  0  0  0  0  0
   23.7470   78.1580   10.1870 H   0  0  0  0  0  0  0  0  0  0  0  0
   20.5990   80.9950   13.3840 H   0  0  0  0  0  0  0  0  0  0  0  0
   24.2470   78.9950   12.8600 H   0  0  0  0  0  0  0  0  0  0  0  0
   23.4000   81.3040   17.1970 H   0  0  0  0  0  0  0  0  0  0  0  0
   24.8370   80.3410   17.5870 H   0  0  0  0  0  0  0  0  0  0  0  0
   21.8970   79.8410   18.0940 H   0  0  0  0  0  0  0  0  0  0  0  0
   23.3710   79.2710   18.9370 H   0  0  0  0  0  0  0  0  0  0  0  0
   22.4770   78.3690   16.1380 H   0  0  0  0  0  0  0  0  0  0  0  0
   25.0130   78.0720   17.5940 H   0  0  0  0  0  0  0  0  0  0  0  0
   25.3990   76.7870   15.4050 H   0  0  0  0  0  0  0  0  0  0  0  0
   23.6140   77.1970   15.0930 H   0  0  0  0  0  0  0  0  0  0  0  0
   25.2760   78.9620   14.3030 H   0  0  0  0  0  0  0  0  0  0  0  0
   25.8970   79.0480   15.9430 H   0  0  0  0  0  0  0  0  0  0  0  0
   24.5680   76.3340   18.6340 H   0  0  0  0  0  0  0  0  0  0  0  0
   19.9940   76.3220   17.3010 H   0  0  0  0  0  0  0  0  0  0  0  0
   20.7780   77.0290   15.8360 H   0  0  0  0  0  0  0  0  0  0  0  0
   20.3940   79.3270   16.7820 H   0  0  0  0  0  0  0  0  0  0  0  0
   18.8600   78.3560   16.8210 H   0  0  0  0  0  0  0  0  0  0  0  0
   19.5970   76.5880   19.2780 H   0  0  0  0  0  0  0  0  0  0  0  0
   20.2890   77.6550   20.5360 H   0  0  0  0  0  0  0  0  0  0  0  0
   21.8330   75.9520   19.3260 H   0  0  0  0  0  0  0  0  0  0  0  0
   22.4800   77.5690   19.6100 H   0  0  0  0  0  0  0  0  0  0  0  0
   20.4390   80.9740   18.1600 H   0  0  0  0  0  0  0  0  0  0  0  0
   18.7100   81.5430   18.3580 H   0  0  0  0  0  0  0  0  0  0  0  0
   19.8520   81.6210   19.7410 H   0  0  0  0  0  0  0  0  0  0  0  0
   19.4690   80.5190   10.8720 H   0  0  0  0  0  0  0  0  0  0  0  0
   19.9790   79.3900    8.7110 H   0  0  0  0  0  0  0  0  0  0  0  0
  1  2  1  0  0  0  0
  2 29  2  0  0  0  0
  2  3  1  0  0  0  0
  3  4  2  0  0  0  0
  4  5  1  0  0  0  0
  4  8  1  0  0  0  0
  5  6  1  0  0  0  0
  6 31  1  0  0  0  0
  6  7  1  0  0  0  0
  7  9  1  0  0  0  0
  8 32  1  0  0  0  0
  8  7  2  0  0  0  0
  9 10  2  0  0  0  0
  9 11  1  0  0  0  0
 11 12  1  0  0  0  0
 12 33  1  0  0  0  0
 12 34  1  0  0  0  0
 12 13  1  0  0  0  0
 13 35  1  0  0  0  0
 13 36  1  0  0  0  0
 14 37  1  6  0  0  0
 14 19  1  0  0  0  0
 14 13  1  0  0  0  0
 15 14  1  0  0  0  0
 15 38  1  1  0  0  0
 15 18  1  0  0  0  0
 16 15  1  0  0  0  0
 17 16  1  0  0  0  0
 17 11  1  0  0  0  0
 17 42  1  0  0  0  0
 18 43  1  0  0  0  0
 19 24  1  0  0  0  0
 20 21  1  0  0  0  0
 20 44  1  0  0  0  0
 20 19  1  0  0  0  0
 21 22  1  0  0  0  0
 22 25  1  0  0  0  0
 22 23  1  0  0  0  0
 23 49  1  0  0  0  0
 24 50  1  0  0  0  0
 24 23  1  0  0  0  0
 24 51  1  0  0  0  0
 25 26  2  0  0  0  0
 27 25  1  0  0  0  0
 27 54  1  0  0  0  0
 28 55  1  0  0  0  0
 28  5  2  0  0  0  0
 29 28  1  0  0  0  0
 30  3  1  0  0  0  0
 39 16  1  0  0  0  0
 40 16  1  0  0  0  0
 41 17  1  0  0  0  0
 45 20  1  0  0  0  0
 46 21  1  0  0  0  0
 47 21  1  0  0  0  0
 48 23  1  0  0  0  0
 52 27  1  0  0  0  0
 53 27  1  0  0  0  0
 56 29  1  0  0  0  0
M  END
>  <Pose>
1

>  <Score>
-5.53

$$$$
