
 OpenBabel03222202113D

 42 45  0  0  0  0  0  0  0  0999 V2000
   17.9420   74.7270    5.4860 Cl  0  0  0  0  0  0  0  0  0  0  0  0
   18.4810   75.6490    6.8750 C   0  0  0  0  0  0  0  0  0  0  0  0
   18.0900   76.9640    7.0160 C   0  0  0  0  0  0  0  0  0  0  0  0
   18.5490   77.6440    8.1380 C   0  0  0  0  0  0  0  0  0  0  0  0
   19.3570   77.0780    9.0920 C   0  0  0  0  0  0  0  0  0  0  0  0
   19.7330   75.7690    8.9330 C   0  0  0  0  0  0  0  0  0  0  0  0
   19.2900   75.0790    7.8300 C   0  0  0  0  0  0  0  0  0  0  0  0
   19.8020   77.8520   10.2490 C   0  0  0  0  0  0  0  0  0  0  0  0
   20.8140   78.8080   10.0130 N   0  0  0  0  0  0  0  0  0  0  0  0
   20.6810   80.0750   10.6150 C   0  0  0  0  0  0  0  0  0  0  0  0
   21.3500   80.2560   11.9510 C   0  0  0  0  0  0  0  0  0  0  0  0
   22.4190   79.2250   12.0150 N   0  0  0  0  0  0  0  0  0  0  0  0
   23.0940   79.0260   10.7880 C   0  0  0  0  0  0  0  0  0  0  0  0
   22.1470   78.2960    9.8610 C   0  0  0  0  0  0  0  0  0  0  0  0
   22.6360   78.6190   13.2700 C   0  0  0  0  0  0  0  0  0  0  0  0
   23.7890   78.8920   13.9520 N   0  0  0  0  0  0  0  0  0  0  0  0
   24.1290   78.3630   15.1210 C   0  0  0  0  0  0  0  0  0  0  0  0
   23.2880   77.4870   15.6960 N   0  0  0  0  0  0  0  0  0  0  0  0
   22.1300   77.1780   15.0680 C   0  0  0  0  0  0  0  0  0  0  0  0
   21.1120   76.3640   15.4010 N   0  0  0  0  0  0  0  0  0  0  0  0
   20.1830   76.4100   14.4460 C   0  0  0  0  0  0  0  0  0  0  0  0
   20.5690   77.2520   13.4720 N   0  0  0  0  0  0  0  0  0  0  0  0
   21.7680   77.7320   13.8390 C   0  0  0  0  0  0  0  0  0  0  0  0
   25.3640   78.6970   15.7870 N   0  0  0  0  0  0  0  0  0  0  0  0
   17.4520   77.4450    6.2800 H   0  0  0  0  0  0  0  0  0  0  0  0
   18.2080   78.6800    8.1960 H   0  0  0  0  0  0  0  0  0  0  0  0
   20.3830   75.2640    9.6720 H   0  0  0  0  0  0  0  0  0  0  0  0
   19.5930   74.0300    7.7040 H   0  0  0  0  0  0  0  0  0  0  0  0
   18.9560   78.3570   10.7780 H   0  0  0  0  0  0  0  0  0  0  0  0
   20.1930   77.1120   11.0070 H   0  0  0  0  0  0  0  0  0  0  0  0
   19.6300   80.3280   10.7250 H   0  0  0  0  0  0  0  0  0  0  0  0
   21.1150   80.8420    9.9100 H   0  0  0  0  0  0  0  0  0  0  0  0
   20.6870   80.2020   12.8120 H   0  0  0  0  0  0  0  0  0  0  0  0
   21.8970   81.2210   11.9900 H   0  0  0  0  0  0  0  0  0  0  0  0
   23.1950   80.0710   10.3160 H   0  0  0  0  0  0  0  0  0  0  0  0
   24.1090   78.6600   10.7970 H   0  0  0  0  0  0  0  0  0  0  0  0
   22.1420   77.2010    9.9890 H   0  0  0  0  0  0  0  0  0  0  0  0
   22.4800   78.5140    8.8200 H   0  0  0  0  0  0  0  0  0  0  0  0
   19.2520   75.8350   14.4810 H   0  0  0  0  0  0  0  0  0  0  0  0
   20.0020   77.4620   12.6220 H   0  0  0  0  0  0  0  0  0  0  0  0
   25.5750   78.3750   16.7410 H   0  0  0  0  0  0  0  0  0  0  0  0
   26.0720   79.2810   15.2970 H   0  0  0  0  0  0  0  0  0  0  0  0
  1  2  1  0  0  0  0
  2  3  2  0  0  0  0
  2  7  1  0  0  0  0
  3  4  1  0  0  0  0
  4 26  1  0  0  0  0
  4  5  2  0  0  0  0
  5  8  1  0  0  0  0
  6  5  1  0  0  0  0
  6 27  1  0  0  0  0
  7  6  2  0  0  0  0
  8 29  1  0  0  0  0
  8 30  1  0  0  0  0
  9  8  1  0  0  0  0
  9 10  1  0  0  0  0
 10 31  1  0  0  0  0
 10 11  1  0  0  0  0
 11 34  1  0  0  0  0
 11 12  1  0  0  0  0
 11 33  1  0  0  0  0
 12 15  1  0  0  0  0
 13 36  1  0  0  0  0
 13 12  1  0  0  0  0
 14 37  1  0  0  0  0
 14  9  1  0  0  0  0
 14 13  1  0  0  0  0
 15 23  2  0  0  0  0
 15 16  1  0  0  0  0
 16 17  2  0  0  0  0
 17 18  1  0  0  0  0
 17 24  1  0  0  0  0
 19 20  1  0  0  0  0
 19 18  2  0  0  0  0
 21 39  1  0  0  0  0
 21 20  2  0  0  0  0
 22 23  1  0  0  0  0
 22 21  1  0  0  0  0
 23 19  1  0  0  0  0
 24 41  1  0  0  0  0
 25  3  1  0  0  0  0
 28  7  1  0  0  0  0
 32 10  1  0  0  0  0
 35 13  1  0  0  0  0
 38 14  1  0  0  0  0
 40 22  1  0  0  0  0
 42 24  1  0  0  0  0
M  END
>  <Pose>
1

>  <Score>
-6.36

$$$$
