
 OpenBabel03222202113D

 52 56  0  0  0  0  0  0  0  0999 V2000
   18.4280   70.9700   12.5570 Cl  0  0  0  0  0  0  0  0  0  0  0  0
   18.9130   72.6100   12.9560 C   0  0  0  0  0  0  0  0  0  0  0  0
   19.9770   72.8640   13.8120 C   0  0  0  0  0  0  0  0  0  0  0  0
   20.3420   74.1600   14.1130 C   0  0  0  0  0  0  0  0  0  0  0  0
   19.6800   75.2500   13.5880 C   0  0  0  0  0  0  0  0  0  0  0  0
   18.6100   74.9780   12.7260 C   0  0  0  0  0  0  0  0  0  0  0  0
   18.2390   73.6860   12.4200 C   0  0  0  0  0  0  0  0  0  0  0  0
   20.0610   76.6210   13.9040 C   0  0  0  0  0  0  0  0  0  0  0  0
   19.2170   77.5360   13.7770 O   0  0  0  0  0  0  0  0  0  0  0  0
   21.4390   76.8670   14.3640 C   0  0  0  0  0  0  0  0  0  0  0  0
   21.6920   78.2420   14.7270 N   0  0  0  0  0  0  0  0  0  0  0  0
   21.2880   78.9350   15.7700 N   0  0  0  0  0  0  0  0  0  0  0  0
   21.7480   80.1930   15.7410 C   0  0  0  0  0  0  0  0  0  0  0  0
   21.3260   80.8820   16.8140 N   0  0  0  0  0  0  0  0  0  0  0  0
   20.5670   80.0720   17.5830 C   0  0  0  0  0  0  0  0  0  0  0  0
   20.5510   78.8450   16.9110 C   0  0  0  0  0  0  0  0  0  0  0  0
   19.8290   77.8470   17.5300 C   0  0  0  0  0  0  0  0  0  0  0  0
   19.7890   76.7160   16.9600 O   0  0  0  0  0  0  0  0  0  0  0  0
   19.1670   78.0140   18.7060 N   0  0  0  0  0  0  0  0  0  0  0  0
   19.2290   79.2220   19.2860 C   0  0  0  0  0  0  0  0  0  0  0  0
   18.6020   79.3590   20.3880 O   0  0  0  0  0  0  0  0  0  0  0  0
   19.9140   80.2400   18.7450 N   0  0  0  0  0  0  0  0  0  0  0  0
   19.9420   81.5100   19.4190 C   0  0  0  0  0  0  0  0  0  0  0  0
   18.4300   76.9160   19.2890 C   0  0  0  0  0  0  0  0  0  0  0  0
   22.4850   80.2740   14.6050 N   0  0  0  0  0  0  0  0  0  0  0  0
   22.4600   79.0910   13.9780 C   0  0  0  0  0  0  0  0  0  0  0  0
   23.0950   78.7250   12.7560 N   0  0  0  0  0  0  0  0  0  0  0  0
   24.4900   78.3220   12.7090 C   0  0  0  0  0  0  0  0  0  0  0  0
   25.0950   78.9080   11.4570 C   0  0  0  0  0  0  0  0  0  0  0  0
   24.3550   78.5070   10.3330 O   0  0  0  0  0  0  0  0  0  0  0  0
   23.1070   79.0910   10.3080 C   0  0  0  0  0  0  0  0  0  0  0  0
   22.3360   78.7480   11.5330 C   0  0  0  0  0  0  0  0  0  0  0  0
   20.5120   72.0360   14.2380 H   0  0  0  0  0  0  0  0  0  0  0  0
   21.1710   74.3610   14.7800 H   0  0  0  0  0  0  0  0  0  0  0  0
   18.0550   75.7860   12.2840 H   0  0  0  0  0  0  0  0  0  0  0  0
   17.4060   73.4660   11.7500 H   0  0  0  0  0  0  0  0  0  0  0  0
   22.2110   76.4690   13.7210 H   0  0  0  0  0  0  0  0  0  0  0  0
   21.5270   76.2530   15.3150 H   0  0  0  0  0  0  0  0  0  0  0  0
   19.0170   81.5970   20.0390 H   0  0  0  0  0  0  0  0  0  0  0  0
   19.9820   82.3320   18.6620 H   0  0  0  0  0  0  0  0  0  0  0  0
   20.8590   81.6150   20.0250 H   0  0  0  0  0  0  0  0  0  0  0  0
   19.1470   76.1770   19.7320 H   0  0  0  0  0  0  0  0  0  0  0  0
   17.9140   76.3580   18.4680 H   0  0  0  0  0  0  0  0  0  0  0  0
   17.6560   77.2370   19.9880 H   0  0  0  0  0  0  0  0  0  0  0  0
   24.5920   77.2160   12.6660 H   0  0  0  0  0  0  0  0  0  0  0  0
   25.0630   78.7220   13.5780 H   0  0  0  0  0  0  0  0  0  0  0  0
   25.2430   79.9880   11.4910 H   0  0  0  0  0  0  0  0  0  0  0  0
   26.1020   78.4350   11.3250 H   0  0  0  0  0  0  0  0  0  0  0  0
   23.1680   80.2100   10.2310 H   0  0  0  0  0  0  0  0  0  0  0  0
   22.5660   78.6670    9.4340 H   0  0  0  0  0  0  0  0  0  0  0  0
   21.7770   77.7890   11.4510 H   0  0  0  0  0  0  0  0  0  0  0  0
   21.5300   79.5260   11.6470 H   0  0  0  0  0  0  0  0  0  0  0  0
  1  2  1  0  0  0  0
  2  3  1  0  0  0  0
  3  4  2  0  0  0  0
  3 33  1  0  0  0  0
  4 34  1  0  0  0  0
  5  8  1  0  0  0  0
  5  4  1  0  0  0  0
  6  5  2  0  0  0  0
  7  6  1  0  0  0  0
  7  2  2  0  0  0  0
  8 10  1  0  0  0  0
  9  8  2  0  0  0  0
 10 11  1  0  0  0  0
 10 38  1  0  0  0  0
 11 12  1  0  0  0  0
 12 16  1  0  0  0  0
 13 12  1  0  0  0  0
 13 14  2  0  0  0  0
 14 15  1  0  0  0  0
 15 22  1  0  0  0  0
 16 17  1  0  0  0  0
 16 15  2  0  0  0  0
 17 19  1  0  0  0  0
 18 17  2  0  0  0  0
 19 20  1  0  0  0  0
 19 24  1  0  0  0  0
 20 21  2  0  0  0  0
 22 20  1  0  0  0  0
 22 23  1  0  0  0  0
 23 41  1  0  0  0  0
 23 39  1  0  0  0  0
 24 42  1  0  0  0  0
 24 44  1  0  0  0  0
 25 13  1  0  0  0  0
 26 25  2  0  0  0  0
 26 11  1  0  0  0  0
 27 26  1  0  0  0  0
 28 27  1  0  0  0  0
 28 46  1  0  0  0  0
 29 47  1  0  0  0  0
 29 28  1  0  0  0  0
 30 29  1  0  0  0  0
 31 30  1  0  0  0  0
 31 32  1  0  0  0  0
 32 52  1  0  0  0  0
 32 27  1  0  0  0  0
 35  6  1  0  0  0  0
 36  7  1  0  0  0  0
 37 10  1  0  0  0  0
 40 23  1  0  0  0  0
 43 24  1  0  0  0  0
 45 28  1  0  0  0  0
 48 29  1  0  0  0  0
 49 31  1  0  0  0  0
 50 31  1  0  0  0  0
 51 32  1  0  0  0  0
M  END
>  <Pose>
1

>  <Score>
-6.39

$$$$
