
 OpenBabel03222202113D

 48 52  0  0  1  0  0  0  0  0999 V2000
   24.7650   77.6930   16.5740 Cl  0  0  0  0  0  0  0  0  0  0  0  0
   23.6680   77.8590   15.1990 C   0  0  0  0  0  0  0  0  0  0  0  0
   23.3990   79.1100   14.6920 C   0  0  0  0  0  0  0  0  0  0  0  0
   22.5500   79.2740   13.6240 C   0  0  0  0  0  0  0  0  0  0  0  0
   21.9400   78.1910   13.0240 C   0  0  0  0  0  0  0  0  0  0  0  0
   22.2200   76.9460   13.5460 C   0  0  0  0  0  0  0  0  0  0  0  0
   23.0680   76.7660   14.6150 C   0  0  0  0  0  0  0  0  0  0  0  0
   21.0730   78.4230   11.9250 N   0  0  0  0  0  0  0  0  0  0  0  0
   20.7850   79.7110   11.3890 C   0  0  0  0  0  0  0  0  0  0  0  0
   19.9780   79.8910   10.3690 C   0  0  0  0  0  0  0  0  0  0  0  0
   19.2950   78.8560    9.6750 N   0  0  0  0  0  0  0  0  0  0  0  0
   18.1770   79.2260    8.8400 C   0  0  0  0  0  0  0  0  0  0  0  0
   18.3890   78.6220    7.4760 C   0  0  0  0  0  0  0  0  0  0  0  0
   18.8260   77.2410    7.5230 N   0  0  2  0  0  0  0  0  0  0  0  0
   19.9260   76.8860    8.3980 C   0  0  0  0  0  0  0  0  0  0  0  0
   19.6500   77.4580    9.7640 C   0  0  0  0  0  0  0  0  0  0  0  0
   18.1750   76.2590    6.7140 C   0  0  2  0  0  0  0  0  0  0  0  0
   18.8990   75.2280    6.2350 N   0  0  0  0  0  0  0  0  0  0  0  0
   18.3180   74.2700    5.4600 C   0  0  0  0  0  0  0  0  0  0  0  0
   17.0040   74.3330    5.1530 N   0  0  0  0  0  0  0  0  0  0  0  0
   16.2340   75.3310    5.5990 C   0  0  0  0  0  0  0  0  0  0  0  0
   14.9310   75.6320    5.4500 N   0  0  0  0  0  0  0  0  0  0  0  0
   14.7060   76.7500    6.1170 N   0  0  0  0  0  0  0  0  0  0  0  0
   15.8560   77.1850    6.7040 C   0  0  0  0  0  0  0  0  0  0  0  0
   16.8440   76.3040    6.3920 C   0  0  0  0  0  0  0  0  0  0  0  0
   13.9230   74.8810    4.6960 C   0  0  0  0  0  0  0  0  0  0  0  0
   21.4090   80.8300   11.9990 N   0  0  0  0  0  0  0  0  0  0  0  0
   22.2730   80.6230   13.0910 C   0  0  0  0  0  0  0  0  0  0  0  0
   22.8670   81.5790   13.6880 O   0  0  0  0  0  0  0  0  0  0  0  0
   23.8780   79.9730   15.1590 H   0  0  0  0  0  0  0  0  0  0  0  0
   21.7540   76.0850   13.0940 H   0  0  0  0  0  0  0  0  0  0  0  0
   23.2870   75.7960   15.0210 H   0  0  0  0  0  0  0  0  0  0  0  0
   20.6070   77.6120   11.4650 H   0  0  0  0  0  0  0  0  0  0  0  0
   19.8020   80.9030   10.0100 H   0  0  0  0  0  0  0  0  0  0  0  0
   17.2130   78.8330    9.2230 H   0  0  0  0  0  0  0  0  0  0  0  0
   18.1150   80.3250    8.7020 H   0  0  0  0  0  0  0  0  0  0  0  0
   17.3720   78.6510    6.9810 H   0  0  0  0  0  0  0  0  0  0  0  0
   19.0200   79.2510    6.8090 H   0  0  0  0  0  0  0  0  0  0  0  0
   19.9280   75.7600    8.4880 H   0  0  0  0  0  0  0  0  0  0  0  0
   20.9050   77.2500    8.0430 H   0  0  0  0  0  0  0  0  0  0  0  0
   20.4750   77.2760   10.4770 H   0  0  0  0  0  0  0  0  0  0  0  0
   18.7350   76.9180   10.1450 H   0  0  0  0  0  0  0  0  0  0  0  0
   18.9420   73.4570    5.0960 H   0  0  0  0  0  0  0  0  0  0  0  0
   15.9870   78.0690    7.3110 H   0  0  0  0  0  0  0  0  0  0  0  0
   12.9370   74.9220    5.2100 H   0  0  0  0  0  0  0  0  0  0  0  0
   14.2070   73.7980    4.6780 H   0  0  0  0  0  0  0  0  0  0  0  0
   13.7910   75.3040    3.6830 H   0  0  0  0  0  0  0  0  0  0  0  0
   21.2490   81.8060   11.6630 H   0  0  0  0  0  0  0  0  0  0  0  0
  2  1  1  0  0  0  0
  3 30  1  0  0  0  0
  3  2  1  0  0  0  0
  4  3  2  0  0  0  0
  5  6  2  0  0  0  0
  5  4  1  0  0  0  0
  6  7  1  0  0  0  0
  7 32  1  0  0  0  0
  7  2  2  0  0  0  0
  8  5  1  0  0  0  0
  9  8  1  0  0  0  0
  9 27  1  0  0  0  0
 10  9  2  0  0  0  0
 11 16  1  0  0  0  0
 11 10  1  0  0  0  0
 12 35  1  0  0  0  0
 12 11  1  0  0  0  0
 13 12  1  0  0  0  0
 14 13  1  6  0  0  0
 14 15  1  0  0  0  0
 15 39  1  0  0  0  0
 15 16  1  0  0  0  0
 16 42  1  0  0  0  0
 16 41  1  0  0  0  0
 17 18  1  6  0  0  0
 17 14  1  0  0  0  0
 19 18  2  0  0  0  0
 20 19  1  0  0  0  0
 20 21  1  0  0  0  0
 21 25  2  0  0  0  0
 22 21  1  0  0  0  0
 22 23  1  0  0  0  0
 23 24  2  0  0  0  0
 24 44  1  0  0  0  0
 25 24  1  0  0  0  0
 25 17  1  0  0  0  0
 26 45  1  0  0  0  0
 26 22  1  0  0  0  0
 27 28  1  0  0  0  0
 28  4  1  0  0  0  0
 28 29  2  0  0  0  0
 31  6  1  0  0  0  0
 33  8  1  0  0  0  0
 34 10  1  0  0  0  0
 36 12  1  0  0  0  0
 37 13  1  0  0  0  0
 38 13  1  0  0  0  0
 40 15  1  0  0  0  0
 43 19  1  0  0  0  0
 46 26  1  0  0  0  0
 47 26  1  0  0  0  0
 48 27  1  0  0  0  0
M  END
>  <Pose>
1

>  <Score>
-6.59

$$$$
