
 OpenBabel03222202113D

 49 52  0  0  0  0  0  0  0  0999 V2000
   20.1920   79.0600    9.1940 Cl  0  0  0  0  0  0  0  0  0  0  0  0
   19.7460   77.4460    9.7570 C   0  0  0  0  0  0  0  0  0  0  0  0
   19.7110   77.0840   11.0770 C   0  0  0  0  0  0  0  0  0  0  0  0
   19.3140   75.8480   11.4510 C   0  0  0  0  0  0  0  0  0  0  0  0
   18.9310   74.9180   10.5250 C   0  0  0  0  0  0  0  0  0  0  0  0
   18.9670   75.2880    9.1590 C   0  0  0  0  0  0  0  0  0  0  0  0
   19.3720   76.5320    8.7650 C   0  0  0  0  0  0  0  0  0  0  0  0
   19.4200   76.8620    7.3920 O   0  0  0  0  0  0  0  0  0  0  0  0
   18.5170   73.7260   10.8490 O   0  0  0  0  0  0  0  0  0  0  0  0
   18.4520   73.3690   12.1270 C   0  0  0  0  0  0  0  0  0  0  0  0
   18.0560   72.2320   12.4120 O   0  0  0  0  0  0  0  0  0  0  0  0
   18.8270   74.2690   13.1450 C   0  0  0  0  0  0  0  0  0  0  0  0
   19.2630   75.5120   12.8410 C   0  0  0  0  0  0  0  0  0  0  0  0
   19.8010   76.5770   13.7040 C   0  0  0  0  0  0  0  0  0  0  0  0
   20.5430   76.3060   14.8570 N   0  0  0  0  0  4  0  0  0  0  0  0
   20.0640   76.3530   16.1520 C   0  0  0  0  0  0  0  0  0  0  0  0
   21.1260   77.0000   17.1080 C   0  0  0  0  0  0  0  0  0  0  0  0
   21.0070   78.4510   16.6030 N   0  0  0  0  0  0  0  0  0  0  0  0
   21.5030   78.5890   15.3220 C   0  0  0  0  0  0  0  0  0  0  0  0
   21.7650   77.1600   14.7980 C   0  0  0  0  0  0  0  0  0  0  0  0
   20.3570   79.2930   17.5310 C   0  0  0  0  0  0  0  0  0  0  0  0
   19.7470   78.9120   18.6750 C   0  0  0  0  0  0  0  0  0  0  0  0
   19.3410   79.8570   19.6600 C   0  0  0  0  0  0  0  0  0  0  0  0
   19.5510   81.2000   19.4940 C   0  0  0  0  0  0  0  0  0  0  0  0
   20.1710   81.6030   18.3150 C   0  0  0  0  0  0  0  0  0  0  0  0
   20.5580   80.6760   17.3600 C   0  0  0  0  0  0  0  0  0  0  0  0
   19.1360   82.0840   20.4820 O   0  0  0  0  0  0  0  0  0  0  0  0
   19.6350   83.4290   20.5260 C   0  0  0  0  0  0  0  0  0  0  0  0
   20.0040   77.8210   11.7740 H   0  0  0  0  0  0  0  0  0  0  0  0
   18.6710   74.5630    8.4110 H   0  0  0  0  0  0  0  0  0  0  0  0
   18.8000   73.9000   14.1540 H   0  0  0  0  0  0  0  0  0  0  0  0
   19.4190   77.5950   13.5800 H   0  0  0  0  0  0  0  0  0  0  0  0
   20.7930   76.8140   12.9800 H   0  0  0  0  0  0  0  0  0  0  0  0
   20.9660   75.3340   14.7080 H   0  0  0  0  0  0  0  0  0  0  0  0
   19.1840   77.0230   16.3740 H   0  0  0  0  0  0  0  0  0  0  0  0
   19.7950   75.3970   16.6630 H   0  0  0  0  0  0  0  0  0  0  0  0
   22.0970   76.7070   17.0470 H   0  0  0  0  0  0  0  0  0  0  0  0
   20.6280   76.9510   18.0790 H   0  0  0  0  0  0  0  0  0  0  0  0
   20.7330   79.0780   14.6690 H   0  0  0  0  0  0  0  0  0  0  0  0
   22.4560   79.1570   15.1610 H   0  0  0  0  0  0  0  0  0  0  0  0
   22.5280   76.6980   15.3820 H   0  0  0  0  0  0  0  0  0  0  0  0
   22.1360   77.1720   13.7510 H   0  0  0  0  0  0  0  0  0  0  0  0
   19.5600   77.8410   18.8200 H   0  0  0  0  0  0  0  0  0  0  0  0
   18.8760   79.4800   20.5430 H   0  0  0  0  0  0  0  0  0  0  0  0
   20.3600   82.6580   18.1420 H   0  0  0  0  0  0  0  0  0  0  0  0
   20.9940   81.0270   16.4580 H   0  0  0  0  0  0  0  0  0  0  0  0
   20.3320   83.5100   21.4330 H   0  0  0  0  0  0  0  0  0  0  0  0
   18.8680   84.1970   20.5250 H   0  0  0  0  0  0  0  0  0  0  0  0
   20.3250   83.6630   19.6900 H   0  0  0  0  0  0  0  0  0  0  0  0
  1  2  1  0  0  0  0
  2  3  1  0  0  0  0
  3  4  2  0  0  0  0
  3 29  1  0  0  0  0
  4 13  1  0  0  0  0
  5  9  1  0  0  0  0
  5  4  1  0  0  0  0
  6  5  2  0  0  0  0
  7  6  1  0  0  0  0
  7  2  2  0  0  0  0
  8  7  1  0  0  0  0
  9 10  1  0  0  0  0
 10 11  2  0  0  0  0
 10 12  1  0  0  0  0
 12 31  1  0  0  0  0
 13 12  2  0  0  0  0
 13 14  1  0  0  0  0
 14 15  1  0  0  0  0
 15 16  1  0  0  0  0
 16 35  1  0  0  0  0
 16 36  1  0  0  0  0
 16 17  1  0  0  0  0
 17 38  1  0  0  0  0
 18 17  1  0  0  0  0
 18 21  1  0  0  0  0
 19 18  1  0  0  0  0
 20 15  1  0  0  0  0
 20 19  1  0  0  0  0
 20 41  1  0  0  0  0
 21 22  1  0  0  0  0
 22 43  1  0  0  0  0
 22 23  2  0  0  0  0
 23 44  1  0  0  0  0
 24 23  1  0  0  0  0
 24 27  1  0  0  0  0
 25 24  2  0  0  0  0
 26 21  2  0  0  0  0
 26 25  1  0  0  0  0
 27 28  1  0  0  0  0
 28 47  1  0  0  0  0
 30  6  1  0  0  0  0
 32 14  1  0  0  0  0
 33 14  1  0  0  0  0
 34 15  1  0  0  0  0
 37 17  1  0  0  0  0
 39 19  1  0  0  0  0
 40 19  1  0  0  0  0
 42 20  1  0  0  0  0
 45 25  1  0  0  0  0
 46 26  1  0  0  0  0
 48 28  1  0  0  0  0
 49 28  1  0  0  0  0
M  END
>  <Pose>
1

>  <Score>
-6.63

$$$$
