
 OpenBabel03222202113D

 46 49  0  0  1  0  0  0  0  0999 V2000
   19.6710   76.3710   15.7060 Cl  0  0  0  0  0  0  0  0  0  0  0  0
   19.5350   75.8530   14.0400 C   0  0  0  0  0  0  0  0  0  0  0  0
   20.1160   76.6560   13.0480 C   0  0  0  0  0  0  0  0  0  0  0  0
   20.0260   76.2780   11.7340 C   0  0  0  0  0  0  0  0  0  0  0  0
   19.3460   75.0870   11.4570 C   0  0  0  0  0  0  0  0  0  0  0  0
   18.7790   74.3060   12.4390 C   0  0  0  0  0  0  0  0  0  0  0  0
   18.8670   74.6840   13.7670 C   0  0  0  0  0  0  0  0  0  0  0  0
   17.9280   72.8120   12.0660 Cl  0  0  0  0  0  0  0  0  0  0  0  0
   20.6050   77.0580   10.6290 C   0  0  2  0  0  0  0  0  0  0  0  0
   21.2760   78.2690   11.1310 C   0  0  0  0  0  0  0  0  0  0  0  0
   21.3540   78.6270   12.4400 C   0  0  0  0  0  0  0  0  0  0  0  0
   21.9880   79.7630   12.8530 N   0  0  0  0  0  0  0  0  0  0  0  0
   22.5430   80.5310   11.9190 C   0  0  0  0  0  0  0  0  0  0  0  0
   23.1450   81.6000   12.2550 O   0  0  0  0  0  0  0  0  0  0  0  0
   22.4900   80.2150   10.6090 N   0  0  0  0  0  0  0  0  0  0  0  0
   21.8710   79.1040   10.1940 C   0  0  0  0  0  0  0  0  0  0  0  0
   21.8220   78.8080    8.9730 O   0  0  0  0  0  0  0  0  0  0  0  0
   23.1190   81.0960    9.6360 C   0  0  0  0  0  0  0  0  0  0  0  0
   22.0520   80.1150   14.2550 C   0  0  0  0  0  0  0  0  0  0  0  0
   20.7770   77.8230   13.3850 O   0  0  0  0  0  0  0  0  0  0  0  0
   19.5710   77.3900    9.5940 C   0  0  0  0  0  0  0  0  0  0  0  0
   18.7540   78.4890    9.7090 C   0  0  0  0  0  0  0  0  0  0  0  0
   17.8140   78.8060    8.8050 N   0  0  0  0  0  0  0  0  0  0  0  0
   17.6670   78.0030    7.7340 C   0  0  0  0  0  0  0  0  0  0  0  0
   16.7770   78.3110    6.8880 O   0  0  0  0  0  0  0  0  0  0  0  0
   18.4450   76.9170    7.5810 N   0  0  0  0  0  0  0  0  0  0  0  0
   19.3900   76.5840    8.4720 C   0  0  0  0  0  0  0  0  0  0  0  0
   20.1300   75.5780    8.3560 O   0  0  0  0  0  0  0  0  0  0  0  0
   18.2470   76.0860    6.4160 C   0  0  0  0  0  0  0  0  0  0  0  0
   16.9690   79.9760    8.9520 C   0  0  0  0  0  0  0  0  0  0  0  0
   18.9060   79.3110   10.8070 O   0  0  0  0  0  0  0  0  0  0  0  0
   19.2720   74.7820   10.4190 H   0  0  0  0  0  0  0  0  0  0  0  0
   18.4350   74.0960   14.5590 H   0  0  0  0  0  0  0  0  0  0  0  0
   21.3930   76.4570   10.0900 H   0  0  0  0  0  0  0  0  0  0  0  0
   23.5190   82.0070   10.1570 H   0  0  0  0  0  0  0  0  0  0  0  0
   22.4420   81.3920    8.8200 H   0  0  0  0  0  0  0  0  0  0  0  0
   24.0120   80.6320    9.1620 H   0  0  0  0  0  0  0  0  0  0  0  0
   21.4110   79.4300   14.8660 H   0  0  0  0  0  0  0  0  0  0  0  0
   21.6620   81.1350   14.4480 H   0  0  0  0  0  0  0  0  0  0  0  0
   23.0940   79.9890   14.6010 H   0  0  0  0  0  0  0  0  0  0  0  0
   19.2140   75.7120    6.0520 H   0  0  0  0  0  0  0  0  0  0  0  0
   17.7610   76.6400    5.5860 H   0  0  0  0  0  0  0  0  0  0  0  0
   17.5350   75.2390    6.6420 H   0  0  0  0  0  0  0  0  0  0  0  0
   17.1860   80.6300    8.0560 H   0  0  0  0  0  0  0  0  0  0  0  0
   15.8860   79.7330    8.8680 H   0  0  0  0  0  0  0  0  0  0  0  0
   17.2280   80.5660    9.8330 H   0  0  0  0  0  0  0  0  0  0  0  0
  2  1  1  0  0  0  0
  3 20  1  0  0  0  0
  3  2  2  0  0  0  0
  4  3  1  0  0  0  0
  5  4  2  0  0  0  0
  5  6  1  0  0  0  0
  6  7  2  0  0  0  0
  7  2  1  0  0  0  0
  7 33  1  0  0  0  0
  8  6  1  0  0  0  0
  9 34  1  6  0  0  0
  9 10  1  0  0  0  0
  9  4  1  0  0  0  0
 10 11  2  0  0  0  0
 11 12  1  0  0  0  0
 11 20  1  0  0  0  0
 12 19  1  0  0  0  0
 13 14  2  0  0  0  0
 13 12  1  0  0  0  0
 15 13  1  0  0  0  0
 16 15  1  0  0  0  0
 16 10  1  0  0  0  0
 17 16  2  0  0  0  0
 18 35  1  0  0  0  0
 18 15  1  0  0  0  0
 19 39  1  0  0  0  0
 19 40  1  0  0  0  0
 19 38  1  0  0  0  0
 21 22  1  0  0  0  0
 21  9  1  0  0  0  0
 22 31  2  0  0  0  0
 23 30  1  0  0  0  0
 23 22  1  0  0  0  0
 24 23  1  0  0  0  0
 25 24  2  0  0  0  0
 26 24  1  0  0  0  0
 26 27  1  0  0  0  0
 27 21  1  0  0  0  0
 28 27  2  0  0  0  0
 29 43  1  0  0  0  0
 29 26  1  0  0  0  0
 30 46  1  0  0  0  0
 32  5  1  0  0  0  0
 36 18  1  0  0  0  0
 37 18  1  0  0  0  0
 41 29  1  0  0  0  0
 42 29  1  0  0  0  0
 44 30  1  0  0  0  0
 45 30  1  0  0  0  0
M  END
>  <Pose>
1

>  <Score>
-5.21

$$$$
