
 OpenBabel03222202113D

 45 48  0  0  0  0  0  0  0  0999 V2000
   20.4580   76.9190   18.7140 Cl  0  0  0  0  0  0  0  0  0  0  0  0
   20.4710   78.6410   18.3990 C   0  0  0  0  0  0  0  0  0  0  0  0
   19.9170   79.4770   19.3260 C   0  0  0  0  0  0  0  0  0  0  0  0
   19.8900   80.8320   19.1490 C   0  0  0  0  0  0  0  0  0  0  0  0
   20.4380   81.3430   18.0020 C   0  0  0  0  0  0  0  0  0  0  0  0
   21.0060   80.4780   17.0510 C   0  0  0  0  0  0  0  0  0  0  0  0
   21.0390   79.1220   17.2160 C   0  0  0  0  0  0  0  0  0  0  0  0
   21.5900   78.1890   16.3290 N   0  0  0  0  0  0  0  0  0  0  0  0
   20.9730   77.7290   15.1630 C   0  0  0  0  0  0  0  0  0  0  0  0
   20.0560   76.8950   15.1670 O   0  0  0  0  0  0  0  0  0  0  0  0
   21.4020   78.2360   13.8310 C   0  0  0  0  0  0  0  0  0  0  0  0
   20.7470   77.8530   12.7790 N   0  0  0  0  0  0  0  0  0  0  0  0
   21.0830   78.2810   11.4960 N   0  0  0  0  0  0  0  0  0  0  0  0
   22.1720   79.1610   11.3330 C   0  0  0  0  0  0  0  0  0  0  0  0
   22.3870   79.5950   10.1500 O   0  0  0  0  0  0  0  0  0  0  0  0
   23.0370   79.5770   12.4560 C   0  0  0  0  0  0  0  0  0  0  0  0
   22.5010   79.1220   13.6910 N   0  0  0  0  0  0  0  0  0  0  0  0
   20.3320   77.8270   10.3440 C   0  0  0  0  0  0  0  0  0  0  0  0
   19.5420   78.6850    9.6180 C   0  0  0  0  0  0  0  0  0  0  0  0
   18.8290   78.2230    8.5060 C   0  0  0  0  0  0  0  0  0  0  0  0
   18.9020   76.9010    8.1180 C   0  0  0  0  0  0  0  0  0  0  0  0
   19.6970   76.0540    8.8560 C   0  0  0  0  0  0  0  0  0  0  0  0
   20.3890   76.5110    9.9380 C   0  0  0  0  0  0  0  0  0  0  0  0
   18.1640   76.3590    6.9370 C   0  0  0  0  0  0  0  0  0  0  0  0
   20.4510   82.7110   17.7430 O   0  0  0  0  0  0  0  0  0  0  0  0
   20.2480   83.6880   18.7740 C   0  0  0  0  0  0  0  0  0  0  0  0
   19.3580   83.1280   19.8340 C   0  0  0  0  0  0  0  0  0  0  0  0
   18.6320   83.9180   20.4810 O   0  0  0  0  0  0  0  0  0  0  0  0
   19.3250   81.7320   20.1100 N   0  0  0  0  0  0  0  0  0  0  0  0
   19.4660   79.1070   20.2610 H   0  0  0  0  0  0  0  0  0  0  0  0
   21.4280   80.9230   16.1600 H   0  0  0  0  0  0  0  0  0  0  0  0
   22.5570   77.8000   16.5660 H   0  0  0  0  0  0  0  0  0  0  0  0
   24.0390   79.0730   12.3340 H   0  0  0  0  0  0  0  0  0  0  0  0
   23.2190   80.6720   12.4330 H   0  0  0  0  0  0  0  0  0  0  0  0
   22.9450   79.4560   14.5850 H   0  0  0  0  0  0  0  0  0  0  0  0
   19.4820   79.7230    9.9190 H   0  0  0  0  0  0  0  0  0  0  0  0
   18.2180   78.8930    7.9460 H   0  0  0  0  0  0  0  0  0  0  0  0
   19.7490   75.0020    8.5380 H   0  0  0  0  0  0  0  0  0  0  0  0
   21.0070   75.8100   10.4930 H   0  0  0  0  0  0  0  0  0  0  0  0
   17.6480   75.4120    7.1710 H   0  0  0  0  0  0  0  0  0  0  0  0
   17.4340   77.0690    6.5370 H   0  0  0  0  0  0  0  0  0  0  0  0
   18.9050   76.1510    6.1230 H   0  0  0  0  0  0  0  0  0  0  0  0
   21.2570   83.8360   19.2430 H   0  0  0  0  0  0  0  0  0  0  0  0
   19.8640   84.6240   18.3500 H   0  0  0  0  0  0  0  0  0  0  0  0
   18.9020   81.3730   20.9880 H   0  0  0  0  0  0  0  0  0  0  0  0
  2  1  1  0  0  0  0
  2  3  1  0  0  0  0
  3 30  1  0  0  0  0
  4  3  2  0  0  0  0
  4 29  1  0  0  0  0
  5  4  1  0  0  0  0
  6  7  1  0  0  0  0
  6  5  2  0  0  0  0
  7  2  2  0  0  0  0
  8 32  1  0  0  0  0
  8  7  1  0  0  0  0
  9 10  2  0  0  0  0
  9  8  1  0  0  0  0
 11  9  1  0  0  0  0
 12 11  2  0  0  0  0
 13 12  1  0  0  0  0
 14 13  1  0  0  0  0
 14 16  1  0  0  0  0
 15 14  2  0  0  0  0
 16 17  1  0  0  0  0
 17 11  1  0  0  0  0
 17 35  1  0  0  0  0
 18 13  1  0  0  0  0
 19 36  1  0  0  0  0
 19 18  2  0  0  0  0
 20 19  1  0  0  0  0
 21 20  2  0  0  0  0
 21 22  1  0  0  0  0
 22 23  2  0  0  0  0
 23 18  1  0  0  0  0
 23 39  1  0  0  0  0
 24 40  1  0  0  0  0
 24 21  1  0  0  0  0
 25  5  1  0  0  0  0
 25 26  1  0  0  0  0
 26 43  1  0  0  0  0
 26 27  1  0  0  0  0
 27 29  1  0  0  0  0
 27 28  2  0  0  0  0
 29 45  1  0  0  0  0
 31  6  1  0  0  0  0
 33 16  1  0  0  0  0
 34 16  1  0  0  0  0
 37 20  1  0  0  0  0
 38 22  1  0  0  0  0
 41 24  1  0  0  0  0
 42 24  1  0  0  0  0
 44 26  1  0  0  0  0
M  END
>  <Pose>
1

>  <Score>
-5.95

$$$$
