
 OpenBabel03222202113D

 41 44  0  0  1  0  0  0  0  0999 V2000
   20.3270   83.2620   18.8260 S   0  0  0  0  0  0  0  0  0  0  0  0
   21.7510   83.7990   18.8400 O   0  0  0  0  0  0  0  0  0  0  0  0
   19.5720   84.2290   17.9190 O   0  0  0  0  0  0  0  0  0  0  0  0
   20.2390   81.7350   18.1380 N   0  0  0  0  0  0  0  0  0  0  0  0
   20.0070   80.6380   18.9890 C   0  0  0  0  0  0  0  0  0  0  0  0
   20.2010   79.2910   18.3220 C   0  0  0  0  0  0  0  0  0  0  0  0
   21.5580   79.3310   17.7000 C   0  0  2  0  0  0  0  0  0  0  0  0
   21.8690   80.4610   16.9710 C   0  0  0  0  0  0  0  0  0  0  0  0
   23.0650   80.5580   16.3900 N   0  0  0  0  0  0  0  0  0  0  0  0
   23.9340   79.5380   16.5390 C   0  0  1  0  0  0  0  0  0  0  0  0
   23.6560   78.4280   17.2430 N   0  0  0  0  0  0  0  0  0  0  0  0
   24.7070   77.5870   17.2170 N   0  0  0  0  0  0  0  0  0  0  0  0
   25.7040   78.1210   16.4960 C   0  0  0  0  0  0  0  0  0  0  0  0
   25.2380   79.3410   16.0640 C   0  0  0  0  0  0  0  0  0  0  0  0
   22.4530   78.2950   17.8450 C   0  0  0  0  0  0  0  0  0  0  0  0
   22.1350   77.2810   18.5170 O   0  0  0  0  0  0  0  0  0  0  0  0
   20.8270   81.5110   16.8820 C   0  0  0  0  0  0  0  0  0  0  0  0
   19.7070   83.4280   20.4230 C   0  0  0  0  0  0  0  0  0  0  0  0
   20.3670   82.8550   21.5080 C   0  0  0  0  0  0  0  0  0  0  0  0
   19.8420   83.0040   22.7730 C   0  0  0  0  0  0  0  0  0  0  0  0
   18.6970   83.6940   23.0050 C   0  0  0  0  0  0  0  0  0  0  0  0
   18.0250   84.2670   21.9620 C   0  0  0  0  0  0  0  0  0  0  0  0
   18.5500   84.1190   20.6960 C   0  0  0  0  0  0  0  0  0  0  0  0
   16.5320   85.1710   22.2360 Cl  0  0  0  0  0  0  0  0  0  0  0  0
   21.5330   82.1410   21.3600 O   0  0  0  0  0  0  0  0  0  0  0  0
   22.5930   82.3630   22.2620 C   0  0  0  0  0  0  0  0  0  0  0  0
   18.9630   80.6940   19.3880 H   0  0  0  0  0  0  0  0  0  0  0  0
   20.6780   80.7070   19.8860 H   0  0  0  0  0  0  0  0  0  0  0  0
   19.3990   79.1550   17.5630 H   0  0  0  0  0  0  0  0  0  0  0  0
   20.1340   78.5270   19.1170 H   0  0  0  0  0  0  0  0  0  0  0  0
   24.7160   76.6590   17.6990 H   0  0  0  0  0  0  0  0  0  0  0  0
   26.6880   77.7070   16.2760 H   0  0  0  0  0  0  0  0  0  0  0  0
   25.7520   80.0910   15.4440 H   0  0  0  0  0  0  0  0  0  0  0  0
   20.0360   81.0940   16.1910 H   0  0  0  0  0  0  0  0  0  0  0  0
   21.1740   82.4320   16.4180 H   0  0  0  0  0  0  0  0  0  0  0  0
   20.3380   82.5630   23.6520 H   0  0  0  0  0  0  0  0  0  0  0  0
   18.2830   83.8080   24.0160 H   0  0  0  0  0  0  0  0  0  0  0  0
   17.9650   84.6020   19.8960 H   0  0  0  0  0  0  0  0  0  0  0  0
   22.8680   83.4390   22.3060 H   0  0  0  0  0  0  0  0  0  0  0  0
   22.3190   82.0610   23.3040 H   0  0  0  0  0  0  0  0  0  0  0  0
   23.4760   81.7290   22.0010 H   0  0  0  0  0  0  0  0  0  0  0  0
  1  2  2  0  0  0  0
  1 18  1  0  0  0  0
  3  1  2  0  0  0  0
  4  1  1  0  0  0  0
  4  5  1  0  0  0  0
  5 27  1  0  0  0  0
  5 28  1  0  0  0  0
  6  5  1  0  0  0  0
  6 30  1  0  0  0  0
  7  8  1  6  0  0  0
  7 15  1  0  0  0  0
  7  6  1  0  0  0  0
  9 10  1  0  0  0  0
  9  8  2  0  0  0  0
 10 14  1  6  0  0  0
 10 11  1  0  0  0  0
 11 15  1  0  0  0  0
 12 11  1  0  0  0  0
 12 31  1  0  0  0  0
 13 12  1  0  0  0  0
 14 13  2  0  0  0  0
 15 16  2  0  0  0  0
 17  8  1  0  0  0  0
 17  4  1  0  0  0  0
 18 23  2  0  0  0  0
 18 19  1  0  0  0  0
 19 20  2  0  0  0  0
 20 21  1  0  0  0  0
 20 36  1  0  0  0  0
 21 37  1  0  0  0  0
 22 24  1  0  0  0  0
 22 21  2  0  0  0  0
 23 22  1  0  0  0  0
 25 19  1  0  0  0  0
 25 26  1  0  0  0  0
 26 39  1  0  0  0  0
 26 40  1  0  0  0  0
 29  6  1  0  0  0  0
 32 13  1  0  0  0  0
 33 14  1  0  0  0  0
 34 17  1  0  0  0  0
 35 17  1  0  0  0  0
 38 23  1  0  0  0  0
 41 26  1  0  0  0  0
M  END
>  <Pose>
1

>  <Score>
-6.37

$$$$
