
 OpenBabel03222202113D

 56 59  0  0  1  0  0  0  0  0999 V2000
   22.7670   79.3970    9.0360 Cl  0  0  0  0  0  0  0  0  0  0  0  0
   21.3320   78.5070    9.4970 C   0  0  0  0  0  0  0  0  0  0  0  0
   21.0700   78.3860   10.8590 C   0  0  0  0  0  0  0  0  0  0  0  0
   19.9320   77.6800   11.1860 C   0  0  0  0  0  0  0  0  0  0  0  0
   19.1530   77.1570   10.2230 N   0  0  0  0  0  0  0  0  0  0  0  0
   19.3830   77.2610    8.9260 N   0  0  0  0  0  0  0  0  0  0  0  0
   20.4850   77.9430    8.5630 C   0  0  0  0  0  0  0  0  0  0  0  0
   20.7270   78.0570    7.3280 O   0  0  0  0  0  0  0  0  0  0  0  0
   18.5060   76.6730    7.9560 C   0  0  0  0  0  0  0  0  0  0  0  0
   17.5060   77.4250    7.3840 C   0  0  0  0  0  0  0  0  0  0  0  0
   16.6450   76.8620    6.4350 C   0  0  0  0  0  0  0  0  0  0  0  0
   16.7700   75.5480    6.0470 C   0  0  0  0  0  0  0  0  0  0  0  0
   17.7700   74.7880    6.6140 C   0  0  0  0  0  0  0  0  0  0  0  0
   18.6180   75.3590    7.5560 C   0  0  0  0  0  0  0  0  0  0  0  0
   21.9260   78.9490   11.8410 N   0  0  0  0  0  0  0  0  0  0  0  0
   23.1030   78.2700   12.3280 C   0  0  0  0  0  0  0  0  0  0  0  0
   23.1710   78.3730   13.8200 C   0  0  0  0  0  0  0  0  0  0  0  0
   21.8980   78.8770   14.2740 N   0  0  0  0  0  0  0  0  0  0  0  0
   21.7780   80.2360   13.8860 C   0  0  0  0  0  0  0  0  0  0  0  0
   21.6030   80.2520   12.3650 C   0  0  0  0  0  0  0  0  0  0  0  0
   21.5060   78.5070   15.5750 C   0  0  0  0  0  0  0  0  0  0  0  0
   20.9520   77.1540   15.6890 C   0  0  0  0  0  0  0  0  0  0  0  0
   20.9500   76.4570   14.6180 O   0  0  0  0  0  0  0  0  0  0  0  0
   20.4290   76.5590   16.8630 N   0  0  0  0  0  0  0  0  0  0  0  0
   19.3870   77.1390   17.6710 C   0  0  0  0  0  0  0  0  0  0  0  0
   19.9300   78.3190   18.4170 C   0  0  1  0  0  0  0  0  0  0  0  0
   19.3960   79.4690   17.9010 O   0  0  0  0  0  0  0  0  0  0  0  0
   18.7490   80.1870   18.8690 C   0  0  0  0  0  0  0  0  0  0  0  0
   19.4770   79.7960   20.1380 C   0  0  0  0  0  0  0  0  0  0  0  0
   19.5510   78.2800   19.8910 C   0  0  0  0  0  0  0  0  0  0  0  0
   19.7040   77.5710   12.2450 H   0  0  0  0  0  0  0  0  0  0  0  0
   17.4030   78.4710    7.6900 H   0  0  0  0  0  0  0  0  0  0  0  0
   15.8610   77.4460    5.9840 H   0  0  0  0  0  0  0  0  0  0  0  0
   16.1170   75.0730    5.3080 H   0  0  0  0  0  0  0  0  0  0  0  0
   17.8650   73.7520    6.3060 H   0  0  0  0  0  0  0  0  0  0  0  0
   19.4070   74.7690    8.0070 H   0  0  0  0  0  0  0  0  0  0  0  0
   24.0330   78.6020   11.8230 H   0  0  0  0  0  0  0  0  0  0  0  0
   23.0470   77.1640   12.0980 H   0  0  0  0  0  0  0  0  0  0  0  0
   23.9250   79.1760   14.0800 H   0  0  0  0  0  0  0  0  0  0  0  0
   23.3940   77.4380   14.3360 H   0  0  0  0  0  0  0  0  0  0  0  0
   20.9970   80.8030   14.4060 H   0  0  0  0  0  0  0  0  0  0  0  0
   22.7530   80.7400   14.0920 H   0  0  0  0  0  0  0  0  0  0  0  0
   22.2130   81.0610   11.8910 H   0  0  0  0  0  0  0  0  0  0  0  0
   20.5220   80.4890   12.2060 H   0  0  0  0  0  0  0  0  0  0  0  0
   20.7850   79.2420   16.0320 H   0  0  0  0  0  0  0  0  0  0  0  0
   22.4300   78.5560   16.2270 H   0  0  0  0  0  0  0  0  0  0  0  0
   20.8210   75.6390   17.1500 H   0  0  0  0  0  0  0  0  0  0  0  0
   18.9880   76.3940   18.4110 H   0  0  0  0  0  0  0  0  0  0  0  0
   18.5600   77.4480   17.0150 H   0  0  0  0  0  0  0  0  0  0  0  0
   21.0300   78.3580   18.3810 H   0  0  0  0  0  0  0  0  0  0  0  0
   17.7130   79.8070   18.9650 H   0  0  0  0  0  0  0  0  0  0  0  0
   18.7930   81.2730   18.6760 H   0  0  0  0  0  0  0  0  0  0  0  0
   18.9450   80.0480   21.0520 H   0  0  0  0  0  0  0  0  0  0  0  0
   20.5160   80.1780   20.0810 H   0  0  0  0  0  0  0  0  0  0  0  0
   18.5050   77.9170   20.0190 H   0  0  0  0  0  0  0  0  0  0  0  0
   20.2820   77.7970   20.5310 H   0  0  0  0  0  0  0  0  0  0  0  0
  1  2  1  0  0  0  0
  2  3  2  0  0  0  0
  3  4  1  0  0  0  0
  3 15  1  0  0  0  0
  4 31  1  0  0  0  0
  5  4  2  0  0  0  0
  6  5  1  0  0  0  0
  7  6  1  0  0  0  0
  7  2  1  0  0  0  0
  8  7  2  0  0  0  0
  9  6  1  0  0  0  0
 10 32  1  0  0  0  0
 10  9  2  0  0  0  0
 11 10  1  0  0  0  0
 12 11  2  0  0  0  0
 12 13  1  0  0  0  0
 13 14  2  0  0  0  0
 14  9  1  0  0  0  0
 14 36  1  0  0  0  0
 15 16  1  0  0  0  0
 15 20  1  0  0  0  0
 16 17  1  0  0  0  0
 17 39  1  0  0  0  0
 17 18  1  0  0  0  0
 17 40  1  0  0  0  0
 18 21  1  0  0  0  0
 19 42  1  0  0  0  0
 19 18  1  0  0  0  0
 19 41  1  0  0  0  0
 20 19  1  0  0  0  0
 21 22  1  0  0  0  0
 21 45  1  0  0  0  0
 21 46  1  0  0  0  0
 22 24  1  0  0  0  0
 23 22  2  0  0  0  0
 24 47  1  0  0  0  0
 24 25  1  0  0  0  0
 25 48  1  0  0  0  0
 25 26  1  0  0  0  0
 26 50  1  6  0  0  0
 26 30  1  0  0  0  0
 27 26  1  0  0  0  0
 27 28  1  0  0  0  0
 28 51  1  0  0  0  0
 28 29  1  0  0  0  0
 29 53  1  0  0  0  0
 30 55  1  0  0  0  0
 30 29  1  0  0  0  0
 30 56  1  0  0  0  0
 33 11  1  0  0  0  0
 34 12  1  0  0  0  0
 35 13  1  0  0  0  0
 37 16  1  0  0  0  0
 38 16  1  0  0  0  0
 43 20  1  0  0  0  0
 44 20  1  0  0  0  0
 49 25  1  0  0  0  0
 52 28  1  0  0  0  0
 54 29  1  0  0  0  0
M  END
>  <Pose>
1

>  <Score>
-6.74

$$$$
