
 OpenBabel03222202113D

 56 59  0  0  0  0  0  0  0  0999 V2000
   17.0200   77.9510    7.0870 S   0  0  0  0  0  0  0  0  0  0  0  0
   17.1180   79.2220    6.3000 O   0  0  0  0  0  0  0  0  0  0  0  0
   16.5100   78.2900    8.4570 O   0  0  0  0  0  0  0  0  0  0  0  0
   18.5620   77.2120    7.1610 N   0  0  0  0  0  0  0  0  0  0  0  0
   19.6520   78.1150    7.2480 C   0  0  0  0  0  0  0  0  0  0  0  0
   20.0040   78.5250    8.6530 C   0  0  0  0  0  0  0  0  0  0  0  0
   19.8980   77.4240    9.5870 N   0  0  0  0  0  0  0  0  0  0  0  0
   19.7440   76.1040    9.0040 C   0  0  0  0  0  0  0  0  0  0  0  0
   18.6210   76.0670    7.9970 C   0  0  0  0  0  0  0  0  0  0  0  0
   19.9470   77.6720   10.9640 C   0  0  0  0  0  0  0  0  0  0  0  0
   19.2040   78.5570   11.4510 O   0  0  0  0  0  0  0  0  0  0  0  0
   20.8500   76.9250   11.8760 C   0  0  0  0  0  0  0  0  0  0  0  0
   21.4130   77.7690   12.8930 N   0  0  0  0  0  0  0  0  0  0  0  0
   22.1100   78.9790   12.6370 C   0  0  0  0  0  0  0  0  0  0  0  0
   22.3230   79.4630   11.4750 O   0  0  0  0  0  0  0  0  0  0  0  0
   22.5500   79.5950   13.8400 N   0  0  0  0  0  0  0  0  0  0  0  0
   22.3230   78.6380   14.9070 C   0  0  0  0  0  0  0  0  0  0  0  0
   21.6170   79.2510   16.0820 C   0  0  0  0  0  0  0  0  0  0  0  0
   22.5360   79.9360   17.0510 C   0  0  0  0  0  0  0  0  0  0  0  0
   23.7050   79.0960   17.4720 C   0  0  0  0  0  0  0  0  0  0  0  0
   23.7540   77.7680   16.7480 C   0  0  0  0  0  0  0  0  0  0  0  0
   23.6670   78.0470   15.2640 C   0  0  0  0  0  0  0  0  0  0  0  0
   21.4180   77.6270   14.3070 C   0  0  0  0  0  0  0  0  0  0  0  0
   20.7450   76.7630   14.9180 O   0  0  0  0  0  0  0  0  0  0  0  0
   23.1170   80.9390   13.9530 C   0  0  0  0  0  0  0  0  0  0  0  0
   15.8170   76.8770    6.3530 C   0  0  0  0  0  0  0  0  0  0  0  0
   16.0550   75.6330    5.2200 S   0  0  0  0  0  0  0  0  0  0  0  0
   14.4470   75.1120    5.0400 C   0  0  0  0  0  0  0  0  0  0  0  0
   13.7510   75.9350    5.8830 C   0  0  0  0  0  0  0  0  0  0  0  0
   14.4660   76.8560    6.5680 C   0  0  0  0  0  0  0  0  0  0  0  0
   13.7910   73.8160    4.0160 Cl  0  0  0  0  0  0  0  0  0  0  0  0
   19.3700   79.0520    6.7060 H   0  0  0  0  0  0  0  0  0  0  0  0
   20.5460   77.6800    6.7610 H   0  0  0  0  0  0  0  0  0  0  0  0
   19.4230   79.4060    8.9960 H   0  0  0  0  0  0  0  0  0  0  0  0
   21.0840   78.8250    8.6380 H   0  0  0  0  0  0  0  0  0  0  0  0
   19.5020   75.3620    9.7990 H   0  0  0  0  0  0  0  0  0  0  0  0
   20.6710   75.7680    8.5190 H   0  0  0  0  0  0  0  0  0  0  0  0
   17.6370   75.8200    8.4860 H   0  0  0  0  0  0  0  0  0  0  0  0
   18.8280   75.1730    7.3390 H   0  0  0  0  0  0  0  0  0  0  0  0
   21.6750   76.4630   11.3200 H   0  0  0  0  0  0  0  0  0  0  0  0
   20.2470   76.0920   12.2990 H   0  0  0  0  0  0  0  0  0  0  0  0
   20.8730   79.9950   15.7400 H   0  0  0  0  0  0  0  0  0  0  0  0
   21.0780   78.4330   16.6170 H   0  0  0  0  0  0  0  0  0  0  0  0
   21.9220   80.1790   17.9570 H   0  0  0  0  0  0  0  0  0  0  0  0
   22.8610   80.9070   16.6310 H   0  0  0  0  0  0  0  0  0  0  0  0
   24.6310   79.6850   17.3040 H   0  0  0  0  0  0  0  0  0  0  0  0
   23.6520   78.8550   18.5710 H   0  0  0  0  0  0  0  0  0  0  0  0
   24.7100   77.2780   16.9760 H   0  0  0  0  0  0  0  0  0  0  0  0
   22.8860   77.1720   17.0470 H   0  0  0  0  0  0  0  0  0  0  0  0
   23.8780   77.1060   14.7200 H   0  0  0  0  0  0  0  0  0  0  0  0
   24.4750   78.7600   14.9990 H   0  0  0  0  0  0  0  0  0  0  0  0
   24.0530   80.9330   14.5480 H   0  0  0  0  0  0  0  0  0  0  0  0
   23.3240   81.3190   12.9490 H   0  0  0  0  0  0  0  0  0  0  0  0
   22.3240   81.5800   14.3890 H   0  0  0  0  0  0  0  0  0  0  0  0
   12.6380   75.8350    5.9880 H   0  0  0  0  0  0  0  0  0  0  0  0
   13.9570   77.5650    7.2780 H   0  0  0  0  0  0  0  0  0  0  0  0
  1  4  1  0  0  0  0
  1  3  2  0  0  0  0
  2  1  2  0  0  0  0
  4  5  1  0  0  0  0
  4  9  1  0  0  0  0
  5  6  1  0  0  0  0
  6 34  1  0  0  0  0
  6  7  1  0  0  0  0
  7 10  1  0  0  0  0
  8  7  1  0  0  0  0
  8 36  1  0  0  0  0
  9 38  1  0  0  0  0
  9  8  1  0  0  0  0
 10 11  2  0  0  0  0
 10 12  1  0  0  0  0
 12 41  1  0  0  0  0
 12 13  1  0  0  0  0
 13 23  1  0  0  0  0
 14 13  1  0  0  0  0
 14 16  1  0  0  0  0
 15 14  2  0  0  0  0
 16 25  1  0  0  0  0
 16 17  1  0  0  0  0
 17 22  1  0  0  0  0
 17 18  1  0  0  0  0
 18 43  1  0  0  0  0
 18 19  1  0  0  0  0
 19 20  1  0  0  0  0
 19 44  1  0  0  0  0
 20 47  1  0  0  0  0
 21 48  1  0  0  0  0
 21 49  1  0  0  0  0
 21 20  1  0  0  0  0
 22 21  1  0  0  0  0
 23 17  1  0  0  0  0
 23 24  2  0  0  0  0
 25 54  1  0  0  0  0
 25 52  1  0  0  0  0
 26 30  2  0  0  0  0
 26  1  1  0  0  0  0
 27 26  1  0  0  0  0
 28 27  1  0  0  0  0
 28 29  2  0  0  0  0
 29 55  1  0  0  0  0
 29 30  1  0  0  0  0
 30 56  1  0  0  0  0
 31 28  1  0  0  0  0
 32  5  1  0  0  0  0
 33  5  1  0  0  0  0
 35  6  1  0  0  0  0
 37  8  1  0  0  0  0
 39  9  1  0  0  0  0
 40 12  1  0  0  0  0
 42 18  1  0  0  0  0
 45 19  1  0  0  0  0
 46 20  1  0  0  0  0
 50 22  1  0  0  0  0
 51 22  1  0  0  0  0
 53 25  1  0  0  0  0
M  END
>  <Pose>
1

>  <Score>
-6.36

$$$$
