
 OpenBabel03222202113D

 68 71  0  0  0  0  0  0  0  0999 V2000
   18.4340   78.0890    7.4280 S   0  0  0  0  0  0  0  0  0  0  0  0
   19.2730   79.0600    6.6350 O   0  0  0  0  0  0  0  0  0  0  0  0
   18.6680   76.7380    6.7890 O   0  0  0  0  0  0  0  0  0  0  0  0
   18.7320   78.1280    9.0630 N   0  0  0  0  0  0  0  0  0  0  0  0
   18.1400   79.0300    9.9240 C   0  0  0  0  0  0  0  0  0  0  0  0
   19.1740   79.6950   10.7920 C   0  0  0  0  0  0  0  0  0  0  0  0
   20.1640   78.8390   11.3390 N   0  0  0  0  0  0  0  0  0  0  0  0
   19.8530   77.4640   11.1120 C   0  0  0  0  0  0  0  0  0  0  0  0
   19.6290   77.2130    9.6240 C   0  0  0  0  0  0  0  0  0  0  0  0
   21.5050   79.1670   10.9500 C   0  0  0  0  0  0  0  0  0  0  0  0
   22.0400   80.3100   11.7620 C   0  0  0  0  0  0  0  0  0  0  0  0
   22.7440   81.1510   11.1610 O   0  0  0  0  0  0  0  0  0  0  0  0
   21.7570   80.4280   13.1460 N   0  0  0  0  0  0  0  0  0  0  0  0
   22.8710   80.4870   14.0490 C   0  0  0  0  0  0  0  0  0  0  0  0
   22.8390   79.5640   15.2050 C   0  0  0  0  0  0  0  0  0  0  0  0
   23.9210   79.9470   16.1850 C   0  0  0  0  0  0  0  0  0  0  0  0
   25.2330   79.2040   15.9180 C   0  0  0  0  0  0  0  0  0  0  0  0
   25.0670   77.7270   16.2160 C   0  0  0  0  0  0  0  0  0  0  0  0
   23.6310   77.3590   15.8920 C   0  0  0  0  0  0  0  0  0  0  0  0
   23.2540   78.1770   14.6750 C   0  0  0  0  0  0  0  0  0  0  0  0
   21.6100   79.3780   15.8750 N   0  0  0  0  0  0  0  0  0  0  0  0
   21.5070   78.3220   16.8180 C   0  0  0  0  0  0  0  0  0  0  0  0
   20.0000   78.0930   17.0330 C   0  0  0  0  0  0  0  0  0  0  0  0
   19.4250   79.2150   17.5790 O   0  0  0  0  0  0  0  0  0  0  0  0
   20.2900   80.2650   17.7600 C   0  0  0  0  0  0  0  0  0  0  0  0
   21.0880   80.5770   16.4930 C   0  0  0  0  0  0  0  0  0  0  0  0
   16.7600   78.5370    7.1140 C   0  0  0  0  0  0  0  0  0  0  0  0
   15.8530   77.6190    6.6620 C   0  0  0  0  0  0  0  0  0  0  0  0
   14.5500   77.9620    6.4160 C   0  0  0  0  0  0  0  0  0  0  0  0
   14.1510   79.2640    6.6300 C   0  0  0  0  0  0  0  0  0  0  0  0
   15.0660   80.1940    7.0870 C   0  0  0  0  0  0  0  0  0  0  0  0
   16.3680   79.8390    7.3300 C   0  0  0  0  0  0  0  0  0  0  0  0
   12.4760   79.6720    6.3060 Cl  0  0  0  0  0  0  0  0  0  0  0  0
   17.3870   78.5960   10.6440 H   0  0  0  0  0  0  0  0  0  0  0  0
   17.5710   79.8500    9.4100 H   0  0  0  0  0  0  0  0  0  0  0  0
   18.6380   80.1850   11.6470 H   0  0  0  0  0  0  0  0  0  0  0  0
   19.5950   80.5360   10.2010 H   0  0  0  0  0  0  0  0  0  0  0  0
   18.8950   77.1980   11.6410 H   0  0  0  0  0  0  0  0  0  0  0  0
   20.6950   76.8370   11.4260 H   0  0  0  0  0  0  0  0  0  0  0  0
   20.6430   77.2130    9.1300 H   0  0  0  0  0  0  0  0  0  0  0  0
   19.2470   76.1540    9.5250 H   0  0  0  0  0  0  0  0  0  0  0  0
   21.6220   79.3420    9.8610 H   0  0  0  0  0  0  0  0  0  0  0  0
   22.1580   78.3040   11.1990 H   0  0  0  0  0  0  0  0  0  0  0  0
   20.7450   80.4680   13.4420 H   0  0  0  0  0  0  0  0  0  0  0  0
   23.7860   80.3290   13.4350 H   0  0  0  0  0  0  0  0  0  0  0  0
   22.9310   81.5310   14.4870 H   0  0  0  0  0  0  0  0  0  0  0  0
   23.6460   79.6760   17.2360 H   0  0  0  0  0  0  0  0  0  0  0  0
   24.1820   81.0260   16.1060 H   0  0  0  0  0  0  0  0  0  0  0  0
   25.9770   79.6120   16.6280 H   0  0  0  0  0  0  0  0  0  0  0  0
   25.6120   79.3900   14.8980 H   0  0  0  0  0  0  0  0  0  0  0  0
   25.7510   77.1570   15.5530 H   0  0  0  0  0  0  0  0  0  0  0  0
   25.3210   77.5500   17.2640 H   0  0  0  0  0  0  0  0  0  0  0  0
   23.5190   76.2680   15.6800 H   0  0  0  0  0  0  0  0  0  0  0  0
   22.9660   77.6610   16.7270 H   0  0  0  0  0  0  0  0  0  0  0  0
   22.4420   77.6720   14.1600 H   0  0  0  0  0  0  0  0  0  0  0  0
   24.0940   78.2870   13.9570 H   0  0  0  0  0  0  0  0  0  0  0  0
   21.8770   77.3430   16.4460 H   0  0  0  0  0  0  0  0  0  0  0  0
   21.9130   78.5310   17.8270 H   0  0  0  0  0  0  0  0  0  0  0  0
   19.5760   77.9780   15.9960 H   0  0  0  0  0  0  0  0  0  0  0  0
   19.8300   77.1760   17.6010 H   0  0  0  0  0  0  0  0  0  0  0  0
   20.9760   80.1450   18.6400 H   0  0  0  0  0  0  0  0  0  0  0  0
   19.7020   81.1910   17.9790 H   0  0  0  0  0  0  0  0  0  0  0  0
   20.3920   81.0670   15.7850 H   0  0  0  0  0  0  0  0  0  0  0  0
   21.8620   81.3030   16.7990 H   0  0  0  0  0  0  0  0  0  0  0  0
   16.1540   76.5750    6.4850 H   0  0  0  0  0  0  0  0  0  0  0  0
   13.8360   77.2210    6.0540 H   0  0  0  0  0  0  0  0  0  0  0  0
   14.7360   81.2210    7.2520 H   0  0  0  0  0  0  0  0  0  0  0  0
   17.0720   80.5930    7.6900 H   0  0  0  0  0  0  0  0  0  0  0  0
  1  4  1  0  0  0  0
  2  1  2  0  0  0  0
  3  1  2  0  0  0  0
  4  9  1  0  0  0  0
  4  5  1  0  0  0  0
  5 34  1  0  0  0  0
  5  6  1  0  0  0  0
  6  7  1  0  0  0  0
  6 36  1  0  0  0  0
  8  7  1  0  0  0  0
  8 39  1  0  0  0  0
  8 38  1  0  0  0  0
  9  8  1  0  0  0  0
 10 43  1  0  0  0  0
 10  7  1  0  0  0  0
 10 11  1  0  0  0  0
 11 13  1  0  0  0  0
 12 11  2  0  0  0  0
 13 44  1  0  0  0  0
 13 14  1  0  0  0  0
 14 46  1  0  0  0  0
 14 15  1  0  0  0  0
 15 21  1  0  0  0  0
 15 16  1  0  0  0  0
 16 47  1  0  0  0  0
 17 16  1  0  0  0  0
 17 18  1  0  0  0  0
 17 49  1  0  0  0  0
 18 52  1  0  0  0  0
 19 18  1  0  0  0  0
 19 54  1  0  0  0  0
 20 15  1  0  0  0  0
 20 19  1  0  0  0  0
 21 26  1  0  0  0  0
 21 22  1  0  0  0  0
 22 23  1  0  0  0  0
 22 58  1  0  0  0  0
 23 24  1  0  0  0  0
 23 60  1  0  0  0  0
 24 25  1  0  0  0  0
 25 62  1  0  0  0  0
 25 61  1  0  0  0  0
 26 64  1  0  0  0  0
 26 25  1  0  0  0  0
 27 32  1  0  0  0  0
 27  1  1  0  0  0  0
 28 27  2  0  0  0  0
 29 30  2  0  0  0  0
 29 28  1  0  0  0  0
 30 31  1  0  0  0  0
 31 67  1  0  0  0  0
 31 32  2  0  0  0  0
 32 68  1  0  0  0  0
 33 30  1  0  0  0  0
 35  5  1  0  0  0  0
 37  6  1  0  0  0  0
 40  9  1  0  0  0  0
 41  9  1  0  0  0  0
 42 10  1  0  0  0  0
 45 14  1  0  0  0  0
 48 16  1  0  0  0  0
 50 17  1  0  0  0  0
 51 18  1  0  0  0  0
 53 19  1  0  0  0  0
 55 20  1  0  0  0  0
 56 20  1  0  0  0  0
 57 22  1  0  0  0  0
 59 23  1  0  0  0  0
 63 26  1  0  0  0  0
 65 28  1  0  0  0  0
 66 29  1  0  0  0  0
M  END
>  <Pose>
1

>  <Score>
-7.11

$$$$
