
 OpenBabel03222202113D

 38 41  0  0  0  0  0  0  0  0999 V2000
   19.1400   74.7910   13.1490 Cl  0  0  0  0  0  0  0  0  0  0  0  0
   19.9550   75.8780   14.2550 C   0  0  0  0  0  0  0  0  0  0  0  0
   20.9360   76.7650   13.8310 C   0  0  0  0  0  0  0  0  0  0  0  0
   21.5990   77.6210   14.6660 C   0  0  0  0  0  0  0  0  0  0  0  0
   21.3000   77.6280   15.9980 C   0  0  0  0  0  0  0  0  0  0  0  0
   20.3180   76.7510   16.4540 C   0  0  0  0  0  0  0  0  0  0  0  0
   19.6600   75.8920   15.5950 C   0  0  0  0  0  0  0  0  0  0  0  0
   21.9250   78.4900   17.0150 C   0  0  0  0  0  0  0  0  0  0  0  0
   21.0760   78.5090   18.2430 C   0  0  0  0  0  0  0  0  0  0  0  0
   19.8750   79.4520   18.0530 C   0  0  0  0  0  0  0  0  0  0  0  0
   20.5160   80.7690   17.9240 N   0  0  0  0  0  0  0  0  0  0  0  0
   21.3090   80.9290   16.7460 C   0  0  0  0  0  0  0  0  0  0  0  0
   22.3220   79.8400   16.5490 C   0  0  0  0  0  0  0  0  0  0  0  0
   20.3040   81.7330   18.9390 C   0  0  0  0  0  0  0  0  0  0  0  0
   19.9510   82.9850   18.6020 N   0  0  0  0  0  0  0  0  0  0  0  0
   19.7150   83.9650   19.4520 N   0  0  0  0  0  0  0  0  0  0  0  0
   19.3580   85.2470   19.3420 N   0  0  0  0  0  0  0  0  0  0  0  0
   19.2510   85.8010   20.5290 N   0  0  0  0  0  0  0  0  0  0  0  0
   19.5340   84.8860   21.4140 N   0  0  0  0  0  0  0  0  0  0  0  0
   19.8270   83.7350   20.7590 C   0  0  0  0  0  0  0  0  0  0  0  0
   20.1870   82.4680   21.1840 C   0  0  0  0  0  0  0  0  0  0  0  0
   20.4300   81.4550   20.2800 C   0  0  0  0  0  0  0  0  0  0  0  0
   23.1120   77.8060   17.3830 O   0  0  0  0  0  0  0  0  0  0  0  0
   21.1950   76.7760   12.7870 H   0  0  0  0  0  0  0  0  0  0  0  0
   22.3590   78.3160   14.3320 H   0  0  0  0  0  0  0  0  0  0  0  0
   20.0200   76.6880   17.4860 H   0  0  0  0  0  0  0  0  0  0  0  0
   18.8860   75.1960   15.9740 H   0  0  0  0  0  0  0  0  0  0  0  0
   20.6590   77.5070   18.4720 H   0  0  0  0  0  0  0  0  0  0  0  0
   21.6080   78.8610   19.1430 H   0  0  0  0  0  0  0  0  0  0  0  0
   19.2160   79.4090   18.9310 H   0  0  0  0  0  0  0  0  0  0  0  0
   19.3470   79.2700   17.1070 H   0  0  0  0  0  0  0  0  0  0  0  0
   20.5960   80.8780   15.8680 H   0  0  0  0  0  0  0  0  0  0  0  0
   21.8090   81.9150   16.6920 H   0  0  0  0  0  0  0  0  0  0  0  0
   23.2190   80.1580   17.1670 H   0  0  0  0  0  0  0  0  0  0  0  0
   22.6890   79.8520   15.5130 H   0  0  0  0  0  0  0  0  0  0  0  0
   20.2670   82.3210   22.2470 H   0  0  0  0  0  0  0  0  0  0  0  0
   20.7110   80.4710   20.6090 H   0  0  0  0  0  0  0  0  0  0  0  0
   23.0270   77.5890   18.3620 H   0  0  0  0  0  0  0  0  0  0  0  0
  1  2  1  0  0  0  0
  2  7  1  0  0  0  0
  3  2  2  0  0  0  0
  3  4  1  0  0  0  0
  4  5  2  0  0  0  0
  5  6  1  0  0  0  0
  5  8  1  0  0  0  0
  6 26  1  0  0  0  0
  7 27  1  0  0  0  0
  7  6  2  0  0  0  0
  8 23  1  0  0  0  0
  8  9  1  0  0  0  0
  9 28  1  0  0  0  0
  9 29  1  0  0  0  0
 10  9  1  0  0  0  0
 10 30  1  0  0  0  0
 11 10  1  0  0  0  0
 11 14  1  0  0  0  0
 12 11  1  0  0  0  0
 13 12  1  0  0  0  0
 13  8  1  0  0  0  0
 13 34  1  0  0  0  0
 14 22  1  0  0  0  0
 15 14  2  0  0  0  0
 15 16  1  0  0  0  0
 16 20  1  0  0  0  0
 17 16  1  0  0  0  0
 17 18  2  0  0  0  0
 18 19  1  0  0  0  0
 20 21  1  0  0  0  0
 20 19  2  0  0  0  0
 21 36  1  0  0  0  0
 22 37  1  0  0  0  0
 22 21  2  0  0  0  0
 23 38  1  0  0  0  0
 24  3  1  0  0  0  0
 25  4  1  0  0  0  0
 31 10  1  0  0  0  0
 32 12  1  0  0  0  0
 33 12  1  0  0  0  0
 35 13  1  0  0  0  0
M  END
>  <Pose>
1

>  <Score>
-6.10

$$$$
