
 OpenBabel03222202113D

 53 56  0  0  1  0  0  0  0  0999 V2000
   22.7600   79.6840   13.9240 S   0  0  0  0  0  0  0  0  0  0  0  0
   24.0730   78.9410   14.1810 O   0  0  0  0  0  0  0  0  0  0  0  0
   23.1620   81.1640   13.9440 O   0  0  0  0  0  0  0  0  0  0  0  0
   22.2510   79.2400   12.3700 N   0  0  0  0  0  0  0  0  0  0  0  0
   21.3590   80.1270   11.7120 C   0  0  0  0  0  0  0  0  0  0  0  0
   20.9820   79.6730   10.3210 C   0  0  1  0  0  0  0  0  0  0  0  0
   22.2040   79.4550    9.4960 C   0  0  0  0  0  0  0  0  0  0  0  0
   23.2200   78.5840   10.2150 C   0  0  0  0  0  0  0  0  0  0  0  0
   23.4850   79.1630   11.5600 C   0  0  0  0  0  0  0  0  0  0  0  0
   20.0020   78.5690   10.2900 C   0  0  0  0  0  0  0  0  0  0  0  0
   19.2180   78.5090   11.3080 O   0  0  0  0  0  0  0  0  0  0  0  0
   19.8360   77.6120    9.3000 N   0  0  0  0  0  0  0  0  0  0  0  0
   19.9090   76.2130    9.5830 C   0  0  0  0  0  0  0  0  0  0  0  0
   18.9520   75.3810    8.7770 C   0  0  0  0  0  0  0  0  0  0  0  0
   18.5490   75.9260    7.5980 O   0  0  0  0  0  0  0  0  0  0  0  0
   18.2630   77.2750    7.6030 C   0  0  0  0  0  0  0  0  0  0  0  0
   19.5950   77.9730    7.9240 C   0  0  0  0  0  0  0  0  0  0  0  0
   21.6740   79.4140   15.2200 C   0  0  0  0  0  0  0  0  0  0  0  0
   21.1130   78.1870   15.4760 C   0  0  0  0  0  0  0  0  0  0  0  0
   20.2920   78.0170   16.5810 C   0  0  0  0  0  0  0  0  0  0  0  0
   20.0140   79.0740   17.4500 C   0  0  0  0  0  0  0  0  0  0  0  0
   20.5670   80.3110   17.2040 C   0  0  0  0  0  0  0  0  0  0  0  0
   21.3790   80.4590   16.1040 C   0  0  0  0  0  0  0  0  0  0  0  0
   20.2920   81.4310   18.0940 C   0  0  0  0  0  0  0  0  0  0  0  0
   20.3350   82.7340   17.7650 N   0  0  0  0  0  0  0  0  0  0  0  0
   20.0350   83.4640   18.8030 O   0  0  0  0  0  0  0  0  0  0  0  0
   19.7910   82.6790   19.8190 C   0  0  0  0  0  0  0  0  0  0  0  0
   19.9480   81.4120   19.3920 N   0  0  0  0  0  0  0  0  0  0  0  0
   19.4060   83.0990   21.2110 C   0  0  0  0  0  0  0  0  0  0  0  0
   21.3090   76.8000   14.4250 Cl  0  0  0  0  0  0  0  0  0  0  0  0
   20.4110   80.2790   12.2980 H   0  0  0  0  0  0  0  0  0  0  0  0
   21.8320   81.1200   11.6180 H   0  0  0  0  0  0  0  0  0  0  0  0
   20.4620   80.5700    9.8650 H   0  0  0  0  0  0  0  0  0  0  0  0
   22.6960   80.4420    9.3460 H   0  0  0  0  0  0  0  0  0  0  0  0
   21.9630   79.0100    8.5160 H   0  0  0  0  0  0  0  0  0  0  0  0
   22.7860   77.5760   10.3360 H   0  0  0  0  0  0  0  0  0  0  0  0
   24.1410   78.6170    9.6230 H   0  0  0  0  0  0  0  0  0  0  0  0
   23.8560   80.2220   11.4510 H   0  0  0  0  0  0  0  0  0  0  0  0
   24.2410   78.5480   12.0770 H   0  0  0  0  0  0  0  0  0  0  0  0
   19.7420   75.9720   10.6550 H   0  0  0  0  0  0  0  0  0  0  0  0
   20.9660   75.8890    9.3650 H   0  0  0  0  0  0  0  0  0  0  0  0
   18.0380   75.1020    9.3800 H   0  0  0  0  0  0  0  0  0  0  0  0
   19.4590   74.4140    8.5610 H   0  0  0  0  0  0  0  0  0  0  0  0
   17.5620   77.4680    8.4570 H   0  0  0  0  0  0  0  0  0  0  0  0
   17.8620   77.5690    6.6370 H   0  0  0  0  0  0  0  0  0  0  0  0
   19.6110   79.0240    7.6840 H   0  0  0  0  0  0  0  0  0  0  0  0
   20.3810   77.3950    7.3380 H   0  0  0  0  0  0  0  0  0  0  0  0
   19.8620   77.0470   16.7700 H   0  0  0  0  0  0  0  0  0  0  0  0
   19.3720   78.9330   18.3090 H   0  0  0  0  0  0  0  0  0  0  0  0
   21.7990   81.4380   15.9350 H   0  0  0  0  0  0  0  0  0  0  0  0
   19.2770   84.1920   21.2180 H   0  0  0  0  0  0  0  0  0  0  0  0
   18.4920   82.5360   21.4730 H   0  0  0  0  0  0  0  0  0  0  0  0
   20.2380   82.7640   21.8730 H   0  0  0  0  0  0  0  0  0  0  0  0
  1  3  2  0  0  0  0
  1  2  2  0  0  0  0
  1 18  1  0  0  0  0
  4  1  1  0  0  0  0
  5 31  1  0  0  0  0
  5  4  1  0  0  0  0
  6 33  1  6  0  0  0
  6  5  1  0  0  0  0
  7  8  1  0  0  0  0
  7  6  1  0  0  0  0
  8 36  1  0  0  0  0
  8  9  1  0  0  0  0
  9 39  1  0  0  0  0
  9  4  1  0  0  0  0
 10  6  1  0  0  0  0
 10 11  2  0  0  0  0
 12 13  1  0  0  0  0
 12 10  1  0  0  0  0
 13 40  1  0  0  0  0
 14 42  1  0  0  0  0
 14 13  1  0  0  0  0
 15 16  1  0  0  0  0
 15 14  1  0  0  0  0
 16 17  1  0  0  0  0
 16 44  1  0  0  0  0
 17 12  1  0  0  0  0
 18 19  2  0  0  0  0
 18 23  1  0  0  0  0
 19 20  1  0  0  0  0
 20 48  1  0  0  0  0
 20 21  2  0  0  0  0
 21 49  1  0  0  0  0
 22 21  1  0  0  0  0
 22 24  1  0  0  0  0
 23 22  2  0  0  0  0
 24 28  1  0  0  0  0
 25 24  2  0  0  0  0
 25 26  1  0  0  0  0
 26 27  1  0  0  0  0
 27 29  1  0  0  0  0
 28 27  2  0  0  0  0
 29 51  1  0  0  0  0
 29 52  1  0  0  0  0
 29 53  1  0  0  0  0
 30 19  1  0  0  0  0
 32  5  1  0  0  0  0
 34  7  1  0  0  0  0
 35  7  1  0  0  0  0
 37  8  1  0  0  0  0
 38  9  1  0  0  0  0
 41 13  1  0  0  0  0
 43 14  1  0  0  0  0
 45 16  1  0  0  0  0
 46 17  1  0  0  0  0
 47 17  1  0  0  0  0
 50 23  1  0  0  0  0
M  END
>  <Pose>
1

>  <Score>
-7.49

$$$$
