
 OpenBabel03222202113D

 45 48  0  0  1  0  0  0  0  0999 V2000
   18.1150   78.3390    7.2360 Cl  0  0  0  0  0  0  0  0  0  0  0  0
   19.0410   78.7900    8.6560 C   0  0  0  0  0  0  0  0  0  0  0  0
   20.3340   78.3030    8.8480 C   0  0  0  0  0  0  0  0  0  0  0  0
   21.0680   78.6380    9.9540 C   0  0  0  0  0  0  0  0  0  0  0  0
   20.5810   79.4790   10.9560 C   0  0  0  0  0  0  0  0  0  0  0  0
   19.2970   79.9580   10.7550 C   0  0  0  0  0  0  0  0  0  0  0  0
   18.5580   79.6230    9.6460 C   0  0  0  0  0  0  0  0  0  0  0  0
   21.3570   79.8050   12.0920 N   0  0  0  0  0  0  0  0  0  0  0  0
   22.5030   80.6440   11.8860 C   0  0  0  0  0  0  0  0  0  0  0  0
   22.7390   81.0760   10.7230 O   0  0  0  0  0  0  0  0  0  0  0  0
   23.2990   80.9290   13.0230 N   0  0  0  0  0  0  0  0  0  0  0  0
   23.0840   80.5010   14.1880 C   0  0  0  0  0  0  0  0  0  0  0  0
   21.9520   79.6000   14.5960 C   0  0  1  0  0  0  0  0  0  0  0  0
   22.6190   78.3180   15.0080 C   0  0  0  0  0  0  0  0  0  0  0  0
   21.9220   77.4810   15.9060 N   0  0  0  0  0  4  0  0  0  0  0  0
   21.2300   78.1300   16.9560 C   0  0  0  0  0  0  0  0  0  0  0  0
   20.9030   79.4440   16.8470 C   0  0  0  0  0  0  0  0  0  0  0  0
   20.2220   80.0470   17.9000 C   0  0  0  0  0  0  0  0  0  0  0  0
   19.8960   79.3110   19.0210 C   0  0  0  0  0  0  0  0  0  0  0  0
   20.2310   77.9700   19.1320 C   0  0  0  0  0  0  0  0  0  0  0  0
   20.9130   77.3790   18.0700 C   0  0  0  0  0  0  0  0  0  0  0  0
   19.1720   79.9340   20.1750 C   0  0  0  0  0  0  0  0  0  0  0  0
   21.2150   80.2930   15.6770 C   0  0  0  0  0  0  0  0  0  0  0  0
   21.0570   76.4860   15.2910 C   0  0  0  0  0  0  0  0  0  0  0  0
   21.1050   79.3410   13.4060 C   0  0  0  0  0  0  0  0  0  0  0  0
   20.0330   78.6430   13.5130 O   0  0  0  0  0  0  0  0  0  0  0  0
   23.9420   80.8580   15.2440 O   0  0  0  0  0  0  0  0  0  0  0  0
   20.7200   77.6400    8.0620 H   0  0  0  0  0  0  0  0  0  0  0  0
   22.0930   78.2470   10.0970 H   0  0  0  0  0  0  0  0  0  0  0  0
   18.9290   80.6100   11.5340 H   0  0  0  0  0  0  0  0  0  0  0  0
   17.5430   80.0290    9.5360 H   0  0  0  0  0  0  0  0  0  0  0  0
   23.6570   78.5140   15.3980 H   0  0  0  0  0  0  0  0  0  0  0  0
   22.7840   77.7410   14.0540 H   0  0  0  0  0  0  0  0  0  0  0  0
   22.6610   76.8930   16.4080 H   0  0  0  0  0  0  0  0  0  0  0  0
   19.9380   81.0940   17.8660 H   0  0  0  0  0  0  0  0  0  0  0  0
   19.9840   77.3640   20.0150 H   0  0  0  0  0  0  0  0  0  0  0  0
   21.1730   76.3260   18.1670 H   0  0  0  0  0  0  0  0  0  0  0  0
   19.2240   81.0440   20.1500 H   0  0  0  0  0  0  0  0  0  0  0  0
   19.5820   79.5090   21.1300 H   0  0  0  0  0  0  0  0  0  0  0  0
   18.1120   79.6500   20.1340 H   0  0  0  0  0  0  0  0  0  0  0  0
   21.8050   81.1600   16.1080 H   0  0  0  0  0  0  0  0  0  0  0  0
   20.2690   80.7370   15.3190 H   0  0  0  0  0  0  0  0  0  0  0  0
   21.2780   76.3210   14.2150 H   0  0  0  0  0  0  0  0  0  0  0  0
   19.9900   76.7390   15.4990 H   0  0  0  0  0  0  0  0  0  0  0  0
   21.1970   75.4710   15.7740 H   0  0  0  0  0  0  0  0  0  0  0  0
  1  2  1  0  0  0  0
  2  3  2  0  0  0  0
  2  7  1  0  0  0  0
  3  4  1  0  0  0  0
  4 29  1  0  0  0  0
  4  5  2  0  0  0  0
  5  8  1  0  0  0  0
  6  5  1  0  0  0  0
  6 30  1  0  0  0  0
  7  6  2  0  0  0  0
  8 25  1  0  0  0  0
  9  8  1  0  0  0  0
  9 11  1  0  0  0  0
 10  9  2  0  0  0  0
 11 12  1  0  0  0  0
 12 13  1  0  0  0  0
 12 27  2  0  0  0  0
 13 25  1  6  0  0  0
 13 14  1  0  0  0  0
 13 23  1  0  0  0  0
 14 32  1  0  0  0  0
 14 15  1  0  0  0  0
 15 34  1  0  0  0  0
 15 16  1  0  0  0  0
 16 21  1  0  0  0  0
 17 16  2  0  0  0  0
 17 18  1  0  0  0  0
 18 19  2  0  0  0  0
 19 20  1  0  0  0  0
 19 22  1  0  0  0  0
 20 36  1  0  0  0  0
 21 37  1  0  0  0  0
 21 20  2  0  0  0  0
 22 39  1  0  0  0  0
 23 41  1  0  0  0  0
 23 17  1  0  0  0  0
 24 44  1  0  0  0  0
 24 45  1  0  0  0  0
 24 15  1  0  0  0  0
 25 26  2  0  0  0  0
 28  3  1  0  0  0  0
 31  7  1  0  0  0  0
 33 14  1  0  0  0  0
 35 18  1  0  0  0  0
 38 22  1  0  0  0  0
 40 22  1  0  0  0  0
 42 23  1  0  0  0  0
 43 24  1  0  0  0  0
M  END
>  <Pose>
1

>  <Score>
-5.27

$$$$
