
 OpenBabel03222202113D

 35 38  0  0  1  0  0  0  0  0999 V2000
   22.4580   80.7060   10.6140 Cl  0  0  0  0  0  0  0  0  0  0  0  0
   22.2160   79.8790   12.1510 C   0  0  0  0  0  0  0  0  0  0  0  0
   22.1480   80.5970   13.3300 C   0  0  0  0  0  0  0  0  0  0  0  0
   21.9570   79.9740   14.5400 C   0  0  0  0  0  0  0  0  0  0  0  0
   21.8230   78.5820   14.6150 C   0  0  0  0  0  0  0  0  0  0  0  0
   21.8950   77.9010   13.4220 C   0  0  0  0  0  0  0  0  0  0  0  0
   22.0850   78.4980   12.1990 C   0  0  0  0  0  0  0  0  0  0  0  0
   21.6160   77.9430   15.8670 N   0  0  0  0  0  0  0  0  0  0  0  0
   22.1710   78.2770   17.1500 C   0  0  0  0  0  0  0  0  0  0  0  0
   23.1200   79.0860   17.3020 O   0  0  0  0  0  0  0  0  0  0  0  0
   21.4710   77.5420   18.2330 C   0  0  1  0  0  0  0  0  0  0  0  0
   20.7320   78.4280   19.1820 C   0  0  1  0  0  0  0  0  0  0  0  0
   20.2850   79.6490   18.4060 C   0  0  1  0  0  0  0  0  0  0  0  0
   19.2940   79.0340   17.4190 C   0  0  1  0  0  0  0  0  0  0  0  0
   19.1630   77.5800   17.8100 C   0  0  1  0  0  0  0  0  0  0  0  0
   20.3780   76.7680   17.4860 C   0  0  1  0  0  0  0  0  0  0  0  0
   20.7790   76.8140   16.0590 C   0  0  0  0  0  0  0  0  0  0  0  0
   20.4180   75.9770   15.1950 O   0  0  0  0  0  0  0  0  0  0  0  0
   19.3680   77.7330   19.3340 C   0  0  0  0  0  0  0  0  0  0  0  0
   18.0260   79.5900   17.5740 O   0  0  0  0  0  0  0  0  0  0  0  0
   19.5700   80.4570   19.2640 O   0  0  0  0  0  0  0  0  0  0  0  0
   22.2540   81.6780   13.2630 H   0  0  0  0  0  0  0  0  0  0  0  0
   21.9030   80.5080   15.4670 H   0  0  0  0  0  0  0  0  0  0  0  0
   21.7940   76.8130   13.4390 H   0  0  0  0  0  0  0  0  0  0  0  0
   22.1390   77.9380   11.2610 H   0  0  0  0  0  0  0  0  0  0  0  0
   22.1380   76.8140   18.7390 H   0  0  0  0  0  0  0  0  0  0  0  0
   21.2070   78.6310   20.1250 H   0  0  0  0  0  0  0  0  0  0  0  0
   21.1130   80.1500   17.8930 H   0  0  0  0  0  0  0  0  0  0  0  0
   19.6080   79.1820   16.3910 H   0  0  0  0  0  0  0  0  0  0  0  0
   18.2090   77.1210   17.5680 H   0  0  0  0  0  0  0  0  0  0  0  0
   20.2500   75.7450   17.8770 H   0  0  0  0  0  0  0  0  0  0  0  0
   19.4360   76.7770   19.8370 H   0  0  0  0  0  0  0  0  0  0  0  0
   18.6210   78.4500   19.7270 H   0  0  0  0  0  0  0  0  0  0  0  0
   17.4620   79.2590   16.8120 H   0  0  0  0  0  0  0  0  0  0  0  0
   18.7390   80.0610   19.6150 H   0  0  0  0  0  0  0  0  0  0  0  0
  1  2  1  0  0  0  0
  2  7  2  0  0  0  0
  2  3  1  0  0  0  0
  3  4  2  0  0  0  0
  4  5  1  0  0  0  0
  4 23  1  0  0  0  0
  5  8  1  0  0  0  0
  6 24  1  0  0  0  0
  6  5  2  0  0  0  0
  7  6  1  0  0  0  0
  8 17  1  0  0  0  0
  8  9  1  0  0  0  0
  9 10  2  0  0  0  0
  9 11  1  0  0  0  0
 11 26  1  1  0  0  0
 11 12  1  0  0  0  0
 12 19  1  0  0  0  0
 12 27  1  1  0  0  0
 13 28  1  6  0  0  0
 13 12  1  0  0  0  0
 13 21  1  0  0  0  0
 14 29  1  6  0  0  0
 14 20  1  0  0  0  0
 14 15  1  0  0  0  0
 14 13  1  0  0  0  0
 15 30  1  6  0  0  0
 15 19  1  0  0  0  0
 16 15  1  0  0  0  0
 16 31  1  1  0  0  0
 16 11  1  0  0  0  0
 17 16  1  0  0  0  0
 18 17  2  0  0  0  0
 19 33  1  0  0  0  0
 19 32  1  0  0  0  0
 21 35  1  0  0  0  0
 22  3  1  0  0  0  0
 25  7  1  0  0  0  0
 34 20  1  0  0  0  0
M  END
>  <Pose>
1

>  <Score>
-5.17

$$$$
