
 OpenBabel03222202113D

 47 50  0  0  1  0  0  0  0  0999 V2000
   21.9030   79.2510   17.0190 Cl  0  0  0  0  0  0  0  0  0  0  0  0
   21.2310   77.9790   16.0160 C   0  0  0  0  0  0  0  0  0  0  0  0
   21.5840   77.8600   14.6800 C   0  0  0  0  0  0  0  0  0  0  0  0
   21.0450   76.8610   13.9260 C   0  0  0  0  0  0  0  0  0  0  0  0
   20.1430   75.9420   14.4480 C   0  0  0  0  0  0  0  0  0  0  0  0
   19.7950   76.0640   15.7750 C   0  0  0  0  0  0  0  0  0  0  0  0
   20.3340   77.0790   16.5680 C   0  0  0  0  0  0  0  0  0  0  0  0
   19.5820   74.9020   13.6580 N   0  0  0  0  0  0  0  0  0  0  0  0
   19.9940   73.5460   13.7640 C   0  0  0  0  0  0  0  0  0  0  0  0
   20.9020   73.2610   14.5990 O   0  0  0  0  0  0  0  0  0  0  0  0
   19.4160   72.5330   12.9670 N   0  0  0  0  0  0  0  0  0  0  0  0
   18.4020   72.8450   12.0320 C   0  0  0  0  0  0  0  0  0  0  0  0
   17.7420   71.9250   11.4320 O   0  0  0  0  0  0  0  0  0  0  0  0
   18.0580   74.2290   11.7080 C   0  0  1  0  0  0  0  0  0  0  0  0
   18.5620   75.1780   12.7090 C   0  0  0  0  0  0  0  0  0  0  0  0
   18.0650   76.3560   12.7580 O   0  0  0  0  0  0  0  0  0  0  0  0
   18.5190   74.5660   10.3280 C   0  0  0  0  0  0  0  0  0  0  0  0
   17.9670   74.2420    9.1900 C   0  0  0  0  0  0  0  0  0  0  0  0
   18.8090   74.8180    8.1140 C   0  0  2  0  0  0  0  0  0  0  0  0
   20.0720   75.0900    8.7670 N   0  0  0  0  0  0  0  0  0  0  0  0
   19.6940   75.3340   10.0920 N   0  0  0  0  0  0  0  0  0  0  0  0
   18.2120   76.0810    7.5980 C   0  0  0  0  0  0  0  0  0  0  0  0
   17.0890   76.0930    6.8030 C   0  0  0  0  0  0  0  0  0  0  0  0
   16.5280   77.2600    6.3190 C   0  0  0  0  0  0  0  0  0  0  0  0
   17.0940   78.4760    6.6290 C   0  0  0  0  0  0  0  0  0  0  0  0
   18.2140   78.4850    7.4220 C   0  0  0  0  0  0  0  0  0  0  0  0
   18.7660   77.3170    7.8990 C   0  0  0  0  0  0  0  0  0  0  0  0
   16.5490   79.6530    6.1560 O   0  0  0  0  0  0  0  0  0  0  0  0
   15.3110   80.1000    6.6600 C   0  0  0  0  0  0  0  0  0  0  0  0
   15.3990   77.2080    5.5240 O   0  0  0  0  0  0  0  0  0  0  0  0
   22.2760   78.5530   14.2550 H   0  0  0  0  0  0  0  0  0  0  0  0
   21.3280   76.7740   12.8710 H   0  0  0  0  0  0  0  0  0  0  0  0
   19.0920   75.3440   16.1730 H   0  0  0  0  0  0  0  0  0  0  0  0
   20.0300   77.1340   17.6100 H   0  0  0  0  0  0  0  0  0  0  0  0
   19.7360   71.5340   13.0610 H   0  0  0  0  0  0  0  0  0  0  0  0
   16.9300   74.2860   11.7190 H   0  0  0  0  0  0  0  0  0  0  0  0
   17.0560   73.6530    9.1010 H   0  0  0  0  0  0  0  0  0  0  0  0
   18.9330   74.0860    7.2800 H   0  0  0  0  0  0  0  0  0  0  0  0
   20.7240   74.2740    8.6960 H   0  0  0  0  0  0  0  0  0  0  0  0
   20.2190   75.9750   10.7420 H   0  0  0  0  0  0  0  0  0  0  0  0
   16.6580   75.1150    6.5700 H   0  0  0  0  0  0  0  0  0  0  0  0
   18.6720   79.4500    7.6760 H   0  0  0  0  0  0  0  0  0  0  0  0
   19.6610   77.3150    8.5330 H   0  0  0  0  0  0  0  0  0  0  0  0
   15.3480   80.3320    7.7410 H   0  0  0  0  0  0  0  0  0  0  0  0
   14.9880   80.9770    6.0690 H   0  0  0  0  0  0  0  0  0  0  0  0
   14.5680   79.2980    6.4650 H   0  0  0  0  0  0  0  0  0  0  0  0
   14.5440   76.8100    5.8600 H   0  0  0  0  0  0  0  0  0  0  0  0
  2  7  1  0  0  0  0
  2  1  1  0  0  0  0
  3  2  2  0  0  0  0
  4  5  2  0  0  0  0
  4  3  1  0  0  0  0
  5  6  1  0  0  0  0
  6 33  1  0  0  0  0
  6  7  2  0  0  0  0
  7 34  1  0  0  0  0
  8  9  1  0  0  0  0
  8  5  1  0  0  0  0
  9 10  2  0  0  0  0
 11 35  1  0  0  0  0
 11  9  1  0  0  0  0
 12 11  1  0  0  0  0
 13 12  2  0  0  0  0
 14 36  1  1  0  0  0
 14 12  1  0  0  0  0
 14 15  1  0  0  0  0
 15 16  2  0  0  0  0
 15  8  1  0  0  0  0
 17 14  1  0  0  0  0
 18 17  2  0  0  0  0
 19 38  1  6  0  0  0
 19 20  1  0  0  0  0
 19 18  1  0  0  0  0
 20 21  1  0  0  0  0
 21 17  1  0  0  0  0
 21 40  1  0  0  0  0
 22 27  1  0  0  0  0
 22 19  1  0  0  0  0
 23 22  2  0  0  0  0
 24 25  2  0  0  0  0
 24 23  1  0  0  0  0
 25 26  1  0  0  0  0
 26 42  1  0  0  0  0
 26 27  2  0  0  0  0
 27 43  1  0  0  0  0
 28 25  1  0  0  0  0
 28 29  1  0  0  0  0
 29 44  1  0  0  0  0
 30 47  1  0  0  0  0
 30 24  1  0  0  0  0
 31  3  1  0  0  0  0
 32  4  1  0  0  0  0
 37 18  1  0  0  0  0
 39 20  1  0  0  0  0
 41 23  1  0  0  0  0
 45 29  1  0  0  0  0
 46 29  1  0  0  0  0
M  END
>  <Pose>
1

>  <Score>
-5.83

$$$$
