
 OpenBabel03222202113D

 58 62  0  0  1  0  0  0  0  0999 V2000
   17.8490   79.1850   21.5000 Cl  0  0  0  0  0  0  0  0  0  0  0  0
   19.0300   79.2810   20.2130 C   0  0  0  0  0  0  0  0  0  0  0  0
   19.5900   78.1370   19.6810 C   0  0  0  0  0  0  0  0  0  0  0  0
   20.5220   78.1820   18.6690 C   0  0  0  0  0  0  0  0  0  0  0  0
   20.8920   79.4180   18.1860 C   0  0  0  0  0  0  0  0  0  0  0  0
   20.3330   80.5360   18.7180 C   0  0  0  0  0  0  0  0  0  0  0  0
   19.4000   80.5140   19.7300 C   0  0  0  0  0  0  0  0  0  0  0  0
   21.1150   76.9190   18.1080 C   0  0  0  0  0  0  0  0  0  0  0  0
   21.1650   76.9990   16.6590 N   0  0  0  0  0  0  0  0  0  0  0  0
   22.3630   77.3100   15.9580 C   0  0  0  0  0  0  0  0  0  0  0  0
   23.4110   77.6080   16.6150 O   0  0  0  0  0  0  0  0  0  0  0  0
   22.4650   77.3060   14.4950 C   0  0  1  0  0  0  0  0  0  0  0  0
   21.2230   77.1980   13.8040 N   0  0  1  0  0  0  0  0  0  0  0  0
   20.2050   76.4290   14.4430 C   0  0  0  0  0  0  0  0  0  0  0  0
   20.2130   74.9480   14.1500 C   0  0  0  0  0  0  0  0  0  0  0  0
   18.9980   75.0920   13.4150 N   0  0  0  0  0  0  0  0  0  0  0  0
   18.9320   76.4850   13.6140 C   0  0  0  0  0  0  0  0  0  0  0  0
   18.9010   74.5320   12.1160 C   0  0  0  0  0  0  0  0  0  0  0  0
   19.1350   75.4520   10.9970 C   0  0  0  0  0  0  0  0  0  0  0  0
   19.1430   74.9780    9.7080 C   0  0  0  0  0  0  0  0  0  0  0  0
   19.3630   75.8320    8.6230 C   0  0  0  0  0  0  0  0  0  0  0  0
   19.5760   77.1710    8.8590 C   0  0  0  0  0  0  0  0  0  0  0  0
   19.5720   77.6710   10.1390 C   0  0  0  0  0  0  0  0  0  0  0  0
   19.3490   76.7930   11.1970 C   0  0  0  0  0  0  0  0  0  0  0  0
   19.3720   75.3590    7.3260 O   0  0  0  0  0  0  0  0  0  0  0  0
   18.1530   74.9150    6.7600 C   0  0  0  0  0  0  0  0  0  0  0  0
   20.0000   76.7690   15.8750 C   0  0  0  0  0  0  0  0  0  0  0  0
   18.8650   76.8600   16.4070 O   0  0  0  0  0  0  0  0  0  0  0  0
   20.7350   78.5220   13.5480 C   0  0  0  0  0  0  0  0  0  0  0  0
   21.7600   79.5010   14.0480 C   0  0  1  0  0  0  0  0  0  0  0  0
   23.0160   78.6800   14.0880 C   0  0  0  0  0  0  0  0  0  0  0  0
   21.8800   80.6210   13.2360 O   0  0  0  0  0  0  0  0  0  0  0  0
   19.2860   77.1550   20.0760 H   0  0  0  0  0  0  0  0  0  0  0  0
   21.6130   79.4600   17.4000 H   0  0  0  0  0  0  0  0  0  0  0  0
   20.6340   81.5070   18.3270 H   0  0  0  0  0  0  0  0  0  0  0  0
   18.9660   81.4330   20.1400 H   0  0  0  0  0  0  0  0  0  0  0  0
   20.4410   76.0900   18.4120 H   0  0  0  0  0  0  0  0  0  0  0  0
   22.1310   76.8190   18.5360 H   0  0  0  0  0  0  0  0  0  0  0  0
   23.1940   76.5430   14.1300 H   0  0  0  0  0  0  0  0  0  0  0  0
   21.0970   74.5620   13.6460 H   0  0  0  0  0  0  0  0  0  0  0  0
   20.0000   74.3520   15.0850 H   0  0  0  0  0  0  0  0  0  0  0  0
   18.9660   77.1620   12.7560 H   0  0  0  0  0  0  0  0  0  0  0  0
   18.0700   76.7850   14.2790 H   0  0  0  0  0  0  0  0  0  0  0  0
   19.6170   73.6550   12.0920 H   0  0  0  0  0  0  0  0  0  0  0  0
   17.8930   74.0230   12.0370 H   0  0  0  0  0  0  0  0  0  0  0  0
   18.9840   73.9390    9.4510 H   0  0  0  0  0  0  0  0  0  0  0  0
   19.7450   77.8120    7.9890 H   0  0  0  0  0  0  0  0  0  0  0  0
   19.7440   78.7300   10.2630 H   0  0  0  0  0  0  0  0  0  0  0  0
   19.3590   77.2420   12.1800 H   0  0  0  0  0  0  0  0  0  0  0  0
   18.4010   74.5260    5.7480 H   0  0  0  0  0  0  0  0  0  0  0  0
   17.6850   74.1150    7.3810 H   0  0  0  0  0  0  0  0  0  0  0  0
   17.4170   75.7380    6.6610 H   0  0  0  0  0  0  0  0  0  0  0  0
   19.7730   78.7480   14.0730 H   0  0  0  0  0  0  0  0  0  0  0  0
   20.5870   78.6540   12.4360 H   0  0  0  0  0  0  0  0  0  0  0  0
   21.5080   79.7800   15.1090 H   0  0  0  0  0  0  0  0  0  0  0  0
   23.7530   79.0480   14.8200 H   0  0  0  0  0  0  0  0  0  0  0  0
   23.4160   78.5850   13.0730 H   0  0  0  0  0  0  0  0  0  0  0  0
   21.0450   81.1410   13.3270 H   0  0  0  0  0  0  0  0  0  0  0  0
  2  1  1  0  0  0  0
  3 33  1  0  0  0  0
  3  2  2  0  0  0  0
  4  3  1  0  0  0  0
  5  4  2  0  0  0  0
  5  6  1  0  0  0  0
  6  7  2  0  0  0  0
  7 36  1  0  0  0  0
  7  2  1  0  0  0  0
  8 37  1  0  0  0  0
  8 38  1  0  0  0  0
  8  4  1  0  0  0  0
  9  8  1  0  0  0  0
 10 11  2  0  0  0  0
 10  9  1  0  0  0  0
 12 39  1  6  0  0  0
 12 10  1  0  0  0  0
 13 29  1  1  0  0  0
 13 14  1  0  0  0  0
 13 12  1  0  0  0  0
 14 27  1  0  0  0  0
 15 14  1  0  0  0  0
 15 41  1  0  0  0  0
 16 17  1  0  0  0  0
 16 15  1  0  0  0  0
 17 43  1  0  0  0  0
 17 14  1  0  0  0  0
 18 16  1  0  0  0  0
 19 24  1  0  0  0  0
 19 18  1  0  0  0  0
 20 19  2  0  0  0  0
 21 22  2  0  0  0  0
 21 20  1  0  0  0  0
 22 23  1  0  0  0  0
 23 48  1  0  0  0  0
 23 24  2  0  0  0  0
 24 49  1  0  0  0  0
 25 21  1  0  0  0  0
 26 25  1  0  0  0  0
 26 51  1  0  0  0  0
 27 28  2  0  0  0  0
 27  9  1  0  0  0  0
 29 30  1  0  0  0  0
 29 53  1  0  0  0  0
 30 31  1  0  0  0  0
 30 55  1  1  0  0  0
 31 12  1  0  0  0  0
 31 56  1  0  0  0  0
 32 58  1  0  0  0  0
 32 30  1  0  0  0  0
 34  5  1  0  0  0  0
 35  6  1  0  0  0  0
 40 15  1  0  0  0  0
 42 17  1  0  0  0  0
 44 18  1  0  0  0  0
 45 18  1  0  0  0  0
 46 20  1  0  0  0  0
 47 22  1  0  0  0  0
 50 26  1  0  0  0  0
 52 26  1  0  0  0  0
 54 29  1  0  0  0  0
 57 31  1  0  0  0  0
M  END
>  <Pose>
1

>  <Score>
-5.47

$$$$
