
 OpenBabel03222202113D

 48 51  0  0  1  0  0  0  0  0999 V2000
   22.2900   81.0310   11.0020 Cl  0  0  0  0  0  0  0  0  0  0  0  0
   21.3580   79.5400   11.0870 C   0  0  0  0  0  0  0  0  0  0  0  0
   21.3500   78.8580   12.2800 C   0  0  0  0  0  0  0  0  0  0  0  0
   20.6080   77.6880   12.3130 C   0  0  0  0  0  0  0  0  0  0  0  0
   19.9470   77.2770   11.2170 N   0  0  0  0  0  0  0  0  0  0  0  0
   19.9460   77.9240   10.0630 N   0  0  0  0  0  0  0  0  0  0  0  0
   20.6570   79.0630    9.9960 C   0  0  0  0  0  0  0  0  0  0  0  0
   20.7020   79.7350    8.9270 O   0  0  0  0  0  0  0  0  0  0  0  0
   19.2190   77.4330    8.9270 C   0  0  0  0  0  0  0  0  0  0  0  0
   19.3670   76.1240    8.5190 C   0  0  0  0  0  0  0  0  0  0  0  0
   18.6650   75.6320    7.4150 C   0  0  0  0  0  0  0  0  0  0  0  0
   17.8140   76.4500    6.7160 C   0  0  0  0  0  0  0  0  0  0  0  0
   17.6570   77.7540    7.1100 C   0  0  0  0  0  0  0  0  0  0  0  0
   18.3530   78.2220    8.1970 C   0  0  0  0  0  0  0  0  0  0  0  0
   22.0740   79.3610   13.3820 N   0  0  0  0  0  0  0  0  0  0  0  0
   23.4040   78.8650   13.7170 C   0  0  0  0  0  0  0  0  0  0  0  0
   23.2240   78.1230   15.0560 C   0  0  0  0  0  0  0  0  0  0  0  0
   22.5790   78.9700   16.0100 N   0  0  0  0  0  0  0  0  0  0  0  0
   22.3110   80.3640   15.5980 C   0  0  0  0  0  0  0  0  0  0  0  0
   21.5790   80.3960   14.2710 C   0  0  0  0  0  0  0  0  0  0  0  0
   22.1970   78.5420   17.3080 C   0  0  0  0  0  0  0  0  0  0  0  0
   23.0600   78.2270   18.1810 O   0  0  0  0  0  0  0  0  0  0  0  0
   20.7890   78.4350   17.7310 C   0  0  1  0  0  0  0  0  0  0  0  0
   20.6840   77.8130   18.9370 O   0  0  0  0  0  0  0  0  0  0  0  0
   19.5840   78.3370   19.6050 C   0  0  0  0  0  0  0  0  0  0  0  0
   19.7420   79.8220   19.3120 C   0  0  0  0  0  0  0  0  0  0  0  0
   20.1200   79.7870   17.8460 C   0  0  0  0  0  0  0  0  0  0  0  0
   20.5960   77.1430   13.2490 H   0  0  0  0  0  0  0  0  0  0  0  0
   20.0160   75.4260    9.0190 H   0  0  0  0  0  0  0  0  0  0  0  0
   18.7660   74.6070    7.0770 H   0  0  0  0  0  0  0  0  0  0  0  0
   17.2580   76.0950    5.8580 H   0  0  0  0  0  0  0  0  0  0  0  0
   17.0030   78.4290    6.5940 H   0  0  0  0  0  0  0  0  0  0  0  0
   18.2280   79.2430    8.5010 H   0  0  0  0  0  0  0  0  0  0  0  0
   24.0750   79.7220   13.8890 H   0  0  0  0  0  0  0  0  0  0  0  0
   23.7780   78.1310   13.0080 H   0  0  0  0  0  0  0  0  0  0  0  0
   22.5380   77.2850   14.7970 H   0  0  0  0  0  0  0  0  0  0  0  0
   24.2110   77.7250   15.3680 H   0  0  0  0  0  0  0  0  0  0  0  0
   23.3080   80.8170   15.4350 H   0  0  0  0  0  0  0  0  0  0  0  0
   21.7750   80.8900   16.3860 H   0  0  0  0  0  0  0  0  0  0  0  0
   21.7320   81.4010   13.8140 H   0  0  0  0  0  0  0  0  0  0  0  0
   20.4920   80.3000   14.4620 H   0  0  0  0  0  0  0  0  0  0  0  0
   20.2660   77.8990   16.9050 H   0  0  0  0  0  0  0  0  0  0  0  0
   18.6260   77.9460   19.2160 H   0  0  0  0  0  0  0  0  0  0  0  0
   19.6410   78.1670   20.6870 H   0  0  0  0  0  0  0  0  0  0  0  0
   20.5960   80.2150   19.8780 H   0  0  0  0  0  0  0  0  0  0  0  0
   18.7950   80.3640   19.4820 H   0  0  0  0  0  0  0  0  0  0  0  0
   20.7880   80.6250   17.5680 H   0  0  0  0  0  0  0  0  0  0  0  0
   19.1670   79.8100   17.2820 H   0  0  0  0  0  0  0  0  0  0  0  0
  1  2  1  0  0  0  0
  2  3  2  0  0  0  0
  3  4  1  0  0  0  0
  3 15  1  0  0  0  0
  4 28  1  0  0  0  0
  5  4  2  0  0  0  0
  6  5  1  0  0  0  0
  7  6  1  0  0  0  0
  7  2  1  0  0  0  0
  8  7  2  0  0  0  0
  9  6  1  0  0  0  0
 10  9  1  0  0  0  0
 10 29  1  0  0  0  0
 11 10  2  0  0  0  0
 12 13  2  0  0  0  0
 12 11  1  0  0  0  0
 13 14  1  0  0  0  0
 14 33  1  0  0  0  0
 14  9  2  0  0  0  0
 15 16  1  0  0  0  0
 15 20  1  0  0  0  0
 16 34  1  0  0  0  0
 16 17  1  0  0  0  0
 17 37  1  0  0  0  0
 17 18  1  0  0  0  0
 18 21  1  0  0  0  0
 19 18  1  0  0  0  0
 19 39  1  0  0  0  0
 20 41  1  0  0  0  0
 20 19  1  0  0  0  0
 21 23  1  0  0  0  0
 21 22  2  0  0  0  0
 23 42  1  6  0  0  0
 23 27  1  0  0  0  0
 23 24  1  0  0  0  0
 24 25  1  0  0  0  0
 25 44  1  0  0  0  0
 26 46  1  0  0  0  0
 26 25  1  0  0  0  0
 26 45  1  0  0  0  0
 27 26  1  0  0  0  0
 30 11  1  0  0  0  0
 31 12  1  0  0  0  0
 32 13  1  0  0  0  0
 35 16  1  0  0  0  0
 36 17  1  0  0  0  0
 38 19  1  0  0  0  0
 40 20  1  0  0  0  0
 43 25  1  0  0  0  0
 47 27  1  0  0  0  0
 48 27  1  0  0  0  0
M  END
>  <Pose>
1

>  <Score>
-5.84

$$$$
