
 OpenBabel03222202113D

 55 58  0  0  1  0  0  0  0  0999 V2000
   27.9250   77.5330   15.6560 B   0  0  0  0  0  0  0  0  0  0  0  0
   26.0610   77.8780   15.9070 C   0  0  0  0  0  0  0  0  0  0  0  0
   25.1710   76.9480   15.4500 C   0  0  0  0  0  0  0  0  0  0  0  0
   23.8340   77.1600   15.6110 C   0  0  0  0  0  0  0  0  0  0  0  0
   23.2980   78.2790   16.2190 C   0  0  0  0  0  0  0  0  0  0  0  0
   24.2180   79.2010   16.6720 C   0  0  0  0  0  0  0  0  0  0  0  0
   25.5910   79.0140   16.5220 C   0  0  0  0  0  0  0  0  0  0  0  0
   21.8550   78.4080   16.3340 C   0  0  2  0  0  0  0  0  0  0  0  0
   21.3590   78.5550   17.6700 N   0  0  0  0  0  0  0  0  0  0  0  0
   20.6500   77.3940   18.0720 C   0  0  0  0  0  0  0  0  0  0  0  0
   20.2220   77.0480   19.1990 O   0  0  0  0  0  0  0  0  0  0  0  0
   20.4490   76.5400   16.8780 C   0  0  0  0  0  0  0  0  0  0  0  0
   19.8630   75.4290   16.8350 O   0  0  0  0  0  0  0  0  0  0  0  0
   21.0740   77.2650   15.7870 C   0  0  0  0  0  0  0  0  0  0  0  0
   20.9480   76.9000   14.5050 C   0  0  0  0  0  0  0  0  0  0  0  0
   21.6510   77.7080   13.6030 O   0  0  0  0  0  0  0  0  0  0  0  0
   20.1460   75.7630   14.0680 C   0  0  0  0  0  0  0  0  0  0  0  0
   20.4690   74.5340   13.8560 O   0  0  0  0  0  0  0  0  0  0  0  0
   19.4900   73.7750   13.4620 C   0  0  0  0  0  0  0  0  0  0  0  0
   18.3510   74.5630   13.3920 C   0  0  0  0  0  0  0  0  0  0  0  0
   18.7960   75.8270   13.7830 C   0  0  0  0  0  0  0  0  0  0  0  0
   17.1580   74.0040   12.9970 C   0  0  0  0  0  0  0  0  0  0  0  0
   17.0790   72.6700   12.6700 C   0  0  0  0  0  0  0  0  0  0  0  0
   18.2150   71.8730   12.7380 C   0  0  0  0  0  0  0  0  0  0  0  0
   19.3880   72.4360   13.1310 C   0  0  0  0  0  0  0  0  0  0  0  0
   20.5340   71.6720   13.2090 O   0  0  0  0  0  0  0  0  0  0  0  0
   21.7490   71.9690   12.5350 C   0  0  0  0  0  0  0  0  0  0  0  0
   21.5360   79.7040   18.5160 C   0  0  0  0  0  0  0  0  0  0  0  0
   20.3140   80.6030   18.4990 C   0  0  0  0  0  0  0  0  0  0  0  0
   19.6280   80.6570   19.7430 N   0  0  0  0  0  4  0  0  0  0  0  0
   19.1530   81.9480   20.1410 C   0  0  0  0  0  0  0  0  0  0  0  0
   18.5500   79.6780   19.7870 C   0  0  0  0  0  0  0  0  0  0  0  0
   25.5130   76.0310   14.9550 H   0  0  0  0  0  0  0  0  0  0  0  0
   23.1580   76.3850   15.2250 H   0  0  0  0  0  0  0  0  0  0  0  0
   23.8610   80.0820   17.1460 H   0  0  0  0  0  0  0  0  0  0  0  0
   26.2790   79.7450   16.8830 H   0  0  0  0  0  0  0  0  0  0  0  0
   21.5530   79.3700   15.8150 H   0  0  0  0  0  0  0  0  0  0  0  0
   18.1450   76.6870   13.8380 H   0  0  0  0  0  0  0  0  0  0  0  0
   16.2700   74.6100   12.9390 H   0  0  0  0  0  0  0  0  0  0  0  0
   16.1670   72.1940   12.3550 H   0  0  0  0  0  0  0  0  0  0  0  0
   18.1190   70.8110   12.4720 H   0  0  0  0  0  0  0  0  0  0  0  0
   22.5860   71.5320   13.1440 H   0  0  0  0  0  0  0  0  0  0  0  0
   21.6890   71.4930   11.5470 H   0  0  0  0  0  0  0  0  0  0  0  0
   21.9520   73.0370   12.4380 H   0  0  0  0  0  0  0  0  0  0  0  0
   22.4490   80.2780   18.2610 H   0  0  0  0  0  0  0  0  0  0  0  0
   21.6720   79.3740   19.5690 H   0  0  0  0  0  0  0  0  0  0  0  0
   19.6350   80.2610   17.6740 H   0  0  0  0  0  0  0  0  0  0  0  0
   20.5860   81.6490   18.2070 H   0  0  0  0  0  0  0  0  0  0  0  0
   20.3160   80.3530   20.4950 H   0  0  0  0  0  0  0  0  0  0  0  0
   20.0190   82.5980   20.3900 H   0  0  0  0  0  0  0  0  0  0  0  0
   18.4480   82.4130   19.4400 H   0  0  0  0  0  0  0  0  0  0  0  0
   18.5920   81.7980   21.1000 H   0  0  0  0  0  0  0  0  0  0  0  0
   17.6570   80.0920   19.3000 H   0  0  0  0  0  0  0  0  0  0  0  0
   18.8320   78.7720   19.2170 H   0  0  0  0  0  0  0  0  0  0  0  0
   18.3560   79.4300   20.8470 H   0  0  0  0  0  0  0  0  0  0  0  0
  1  2  1  0  0  0  0
  2  7  1  0  0  0  0
  3  4  1  0  0  0  0
  3  2  2  0  0  0  0
  4  5  2  0  0  0  0
  5  8  1  0  0  0  0
  5  6  1  0  0  0  0
  6 35  1  0  0  0  0
  7  6  2  0  0  0  0
  7 36  1  0  0  0  0
  8 37  1  6  0  0  0
  8  9  1  0  0  0  0
  9 10  1  0  0  0  0
  9 28  1  0  0  0  0
 10 11  2  0  0  0  0
 12 10  1  0  0  0  0
 13 12  2  0  0  0  0
 14  8  1  0  0  0  0
 14 12  1  0  0  0  0
 15 14  2  0  0  0  0
 16 15  1  0  0  0  0
 17 15  1  0  0  0  0
 18 17  1  0  0  0  0
 19 18  1  0  0  0  0
 20 19  1  0  0  0  0
 20 21  1  0  0  0  0
 21 38  1  0  0  0  0
 21 17  2  0  0  0  0
 22 20  2  0  0  0  0
 23 24  2  0  0  0  0
 23 22  1  0  0  0  0
 24 25  1  0  0  0  0
 25 26  1  0  0  0  0
 25 19  2  0  0  0  0
 27 42  1  0  0  0  0
 27 26  1  0  0  0  0
 28 46  1  0  0  0  0
 29 28  1  0  0  0  0
 29 30  1  0  0  0  0
 30 32  1  0  0  0  0
 30 31  1  0  0  0  0
 30 49  1  0  0  0  0
 31 50  1  0  0  0  0
 31 52  1  0  0  0  0
 32 55  1  0  0  0  0
 33  3  1  0  0  0  0
 34  4  1  0  0  0  0
 39 22  1  0  0  0  0
 40 23  1  0  0  0  0
 41 24  1  0  0  0  0
 43 27  1  0  0  0  0
 44 27  1  0  0  0  0
 45 28  1  0  0  0  0
 47 29  1  0  0  0  0
 48 29  1  0  0  0  0
 51 31  1  0  0  0  0
 53 32  1  0  0  0  0
 54 32  1  0  0  0  0
M  END
>  <Pose>
1

>  <Score>
-6.06

$$$$
