
 OpenBabel03222202113D

 39 42  0  0  0  0  0  0  0  0999 V2000
   16.3380   70.2710   11.4660 B   0  0  0  0  0  0  0  0  0  0  0  0
   17.6860   71.3880   12.2180 C   0  0  0  0  0  0  0  0  0  0  0  0
   17.3700   72.6940   12.4780 C   0  0  0  0  0  0  0  0  0  0  0  0
   18.3100   73.5020   13.0110 N   0  0  0  0  0  0  0  0  0  0  0  0
   19.5390   73.0410   13.2870 C   0  0  0  0  0  0  0  0  0  0  0  0
   20.4900   73.8600   13.8260 N   0  0  0  0  0  0  0  0  0  0  0  0
   20.2220   75.1500   14.0960 C   0  0  0  0  0  0  0  0  0  0  0  0
   18.9580   75.6010   13.8070 C   0  0  0  0  0  0  0  0  0  0  0  0
   17.9770   74.8020   13.2630 C   0  0  0  0  0  0  0  0  0  0  0  0
   16.8290   75.1870   12.9930 O   0  0  0  0  0  0  0  0  0  0  0  0
   21.3010   76.0020   14.6980 C   0  0  0  0  0  0  0  0  0  0  0  0
   20.7780   76.9590   15.6530 N   0  0  0  0  0  0  0  0  0  0  0  0
   21.0890   78.2490   15.8490 C   0  0  0  0  0  0  0  0  0  0  0  0
   20.3520   78.7830   16.9000 C   0  0  0  0  0  0  0  0  0  0  0  0
   19.5770   77.7630   17.3390 N   0  0  0  0  0  0  0  0  0  0  0  0
   19.8270   76.6790   16.6010 C   0  0  0  0  0  0  0  0  0  0  0  0
   20.4600   80.0630   17.3120 N   0  0  0  0  0  0  0  0  0  0  0  0
   21.3390   80.8320   16.6420 C   0  0  0  0  0  0  0  0  0  0  0  0
   21.4540   82.0320   17.0140 O   0  0  0  0  0  0  0  0  0  0  0  0
   22.0740   80.3670   15.6210 N   0  0  0  0  0  0  0  0  0  0  0  0
   21.9680   79.0870   15.2070 C   0  0  0  0  0  0  0  0  0  0  0  0
   22.6400   78.6370   14.2590 O   0  0  0  0  0  0  0  0  0  0  0  0
   23.0210   81.2000   14.9010 C   0  0  0  0  0  0  0  0  0  0  0  0
   19.6630   80.5580   18.4170 C   0  0  0  0  0  0  0  0  0  0  0  0
   19.8680   71.7200   13.0280 C   0  0  0  0  0  0  0  0  0  0  0  0
   18.9340   70.8730   12.4850 C   0  0  0  0  0  0  0  0  0  0  0  0
   16.3690   73.1020   12.2620 H   0  0  0  0  0  0  0  0  0  0  0  0
   18.7110   76.6300   14.0200 H   0  0  0  0  0  0  0  0  0  0  0  0
   22.0690   75.3490   15.1440 H   0  0  0  0  0  0  0  0  0  0  0  0
   21.7650   76.5680   13.8670 H   0  0  0  0  0  0  0  0  0  0  0  0
   19.3740   75.6970   16.6930 H   0  0  0  0  0  0  0  0  0  0  0  0
   23.8270   80.5960   14.4430 H   0  0  0  0  0  0  0  0  0  0  0  0
   22.4360   81.7720   14.1440 H   0  0  0  0  0  0  0  0  0  0  0  0
   23.4710   81.9490   15.6060 H   0  0  0  0  0  0  0  0  0  0  0  0
   18.7890   81.1360   18.0480 H   0  0  0  0  0  0  0  0  0  0  0  0
   20.3330   81.1780   19.0650 H   0  0  0  0  0  0  0  0  0  0  0  0
   19.3400   79.7050   19.0580 H   0  0  0  0  0  0  0  0  0  0  0  0
   20.8770   71.3770   13.2630 H   0  0  0  0  0  0  0  0  0  0  0  0
   19.1860   69.8260   12.2770 H   0  0  0  0  0  0  0  0  0  0  0  0
  1  2  1  0  0  0  0
  2  3  1  0  0  0  0
  2 26  2  0  0  0  0
  3  4  1  0  0  0  0
  4  9  1  0  0  0  0
  4  5  1  0  0  0  0
  5  6  1  0  0  0  0
  6  7  2  0  0  0  0
  7 11  1  0  0  0  0
  8 28  1  0  0  0  0
  8  7  1  0  0  0  0
  9  8  1  0  0  0  0
 10  9  2  0  0  0  0
 11 29  1  0  0  0  0
 11 12  1  0  0  0  0
 12 13  1  0  0  0  0
 12 16  1  0  0  0  0
 13 14  2  0  0  0  0
 14 17  1  0  0  0  0
 14 15  1  0  0  0  0
 16 31  1  0  0  0  0
 16 15  2  0  0  0  0
 17 24  1  0  0  0  0
 18 19  2  0  0  0  0
 18 17  1  0  0  0  0
 20 18  1  0  0  0  0
 21 20  1  0  0  0  0
 21 13  1  0  0  0  0
 22 21  2  0  0  0  0
 23 34  1  0  0  0  0
 23 20  1  0  0  0  0
 24 37  1  0  0  0  0
 24 36  1  0  0  0  0
 25 38  1  0  0  0  0
 25  5  2  0  0  0  0
 26 25  1  0  0  0  0
 27  3  1  0  0  0  0
 30 11  1  0  0  0  0
 32 23  1  0  0  0  0
 33 23  1  0  0  0  0
 35 24  1  0  0  0  0
 39 26  1  0  0  0  0
M  END
>  <Pose>
1

>  <Score>
-6.23

$$$$
