
 OpenBabel03222202113D

 52 55  0  0  1  0  0  0  0  0999 V2000
   17.3470   78.9560   21.9010 Cl  0  0  0  0  0  0  0  0  0  0  0  0
   18.4510   79.7840   20.8070 C   0  0  0  0  0  0  0  0  0  0  0  0
   19.2560   78.9850   19.9820 C   0  0  0  0  0  0  0  0  0  0  0  0
   20.1120   79.6320   19.1340 C   0  0  0  0  0  0  0  0  0  0  0  0
   20.1810   81.0400   19.0910 C   0  0  0  0  0  0  0  0  0  0  0  0
   19.3890   81.8120   19.9030 C   0  0  0  0  0  0  0  0  0  0  0  0
   18.5290   81.1550   20.7550 C   0  0  0  0  0  0  0  0  0  0  0  0
   20.8400   78.6130   18.3650 C   0  0  2  0  0  0  0  0  0  0  0  0
   22.2520   78.7490   18.3900 N   0  0  0  0  0  0  0  0  0  0  0  0
   22.8390   78.2490   17.2260 C   0  0  1  0  0  0  0  0  0  0  0  0
   21.7100   78.1660   16.2220 C   0  0  2  0  0  0  0  0  0  0  0  0
   20.4820   78.7010   16.8830 C   0  0  1  0  0  0  0  0  0  0  0  0
   19.3520   77.8050   16.5240 C   0  0  0  0  0  0  0  0  0  0  0  0
   18.1570   78.0280   16.8300 O   0  0  0  0  0  0  0  0  0  0  0  0
   19.8840   76.6960   15.7970 N   0  0  0  0  0  0  0  0  0  0  0  0
   21.3120   76.7740   15.9150 C   0  0  0  0  0  0  0  0  0  0  0  0
   22.0800   75.8090   15.7770 O   0  0  0  0  0  0  0  0  0  0  0  0
   19.1690   75.6900   15.0750 C   0  0  0  0  0  0  0  0  0  0  0  0
   19.8030   75.2130   13.8170 C   0  0  0  0  0  0  0  0  0  0  0  0
   19.4360   73.8450   13.3630 C   0  0  0  0  0  0  0  0  0  0  0  0
   18.1140   73.8350   12.6040 C   0  0  0  0  0  0  0  0  0  0  0  0
   24.0530   78.9020   16.6880 C   0  0  0  0  0  0  0  0  0  0  0  0
   25.1950   78.0500   16.3010 C   0  0  0  0  0  0  0  0  0  0  0  0
   24.9550   77.0100   15.2950 C   0  0  0  0  0  0  0  0  0  0  0  0
   24.3500   77.2770   14.2400 O   0  0  0  0  0  0  0  0  0  0  0  0
   25.3900   75.6630   15.4560 N   0  0  0  0  0  0  0  0  0  0  0  0
   20.3590   77.3250   18.8720 C   0  0  0  0  0  0  0  0  0  0  0  0
   20.7140   76.1520   18.5370 O   0  0  0  0  0  0  0  0  0  0  0  0
   19.3720   77.5730   19.8550 N   0  0  0  0  0  0  0  0  0  0  0  0
   20.8750   81.5190   18.4050 H   0  0  0  0  0  0  0  0  0  0  0  0
   19.4170   82.8940   19.8960 H   0  0  0  0  0  0  0  0  0  0  0  0
   17.8940   81.7430   21.4030 H   0  0  0  0  0  0  0  0  0  0  0  0
   22.7130   78.5420   19.2920 H   0  0  0  0  0  0  0  0  0  0  0  0
   23.1260   77.1720   17.4330 H   0  0  0  0  0  0  0  0  0  0  0  0
   21.9520   78.6570   15.2660 H   0  0  0  0  0  0  0  0  0  0  0  0
   20.2120   79.7160   16.5920 H   0  0  0  0  0  0  0  0  0  0  0  0
   18.1680   76.1240   14.7770 H   0  0  0  0  0  0  0  0  0  0  0  0
   18.8970   74.8230   15.7260 H   0  0  0  0  0  0  0  0  0  0  0  0
   19.4720   75.9160   12.9950 H   0  0  0  0  0  0  0  0  0  0  0  0
   20.9110   75.3700   13.8530 H   0  0  0  0  0  0  0  0  0  0  0  0
   19.3420   73.0790   14.1340 H   0  0  0  0  0  0  0  0  0  0  0  0
   20.2510   73.5110   12.6600 H   0  0  0  0  0  0  0  0  0  0  0  0
   17.3770   74.5410   13.0380 H   0  0  0  0  0  0  0  0  0  0  0  0
   17.6640   72.8170   12.5940 H   0  0  0  0  0  0  0  0  0  0  0  0
   18.2570   74.1500   11.5500 H   0  0  0  0  0  0  0  0  0  0  0  0
   23.7230   79.6010   15.8740 H   0  0  0  0  0  0  0  0  0  0  0  0
   24.4310   79.6150   17.4820 H   0  0  0  0  0  0  0  0  0  0  0  0
   26.0470   78.6750   15.8820 H   0  0  0  0  0  0  0  0  0  0  0  0
   25.6740   77.5390   17.1710 H   0  0  0  0  0  0  0  0  0  0  0  0
   24.7430   74.8560   15.5070 H   0  0  0  0  0  0  0  0  0  0  0  0
   26.4040   75.4760   15.5260 H   0  0  0  0  0  0  0  0  0  0  0  0
   18.8090   76.8840   20.4090 H   0  0  0  0  0  0  0  0  0  0  0  0
  2  1  1  0  0  0  0
  3  2  2  0  0  0  0
  4  3  1  0  0  0  0
  5  4  2  0  0  0  0
  5  6  1  0  0  0  0
  6  7  2  0  0  0  0
  7  2  1  0  0  0  0
  7 32  1  0  0  0  0
  8  9  1  0  0  0  0
  8 27  1  1  0  0  0
  8  4  1  0  0  0  0
  9 33  1  0  0  0  0
 10 34  1  1  0  0  0
 10  9  1  0  0  0  0
 11 35  1  6  0  0  0
 11 12  1  0  0  0  0
 11 10  1  0  0  0  0
 12 36  1  6  0  0  0
 12  8  1  0  0  0  0
 13 14  2  0  0  0  0
 13 12  1  0  0  0  0
 15 16  1  0  0  0  0
 15 13  1  0  0  0  0
 16 11  1  0  0  0  0
 17 16  2  0  0  0  0
 18 38  1  0  0  0  0
 18 15  1  0  0  0  0
 19 40  1  0  0  0  0
 19 18  1  0  0  0  0
 20 19  1  0  0  0  0
 20 41  1  0  0  0  0
 21 43  1  0  0  0  0
 21 20  1  0  0  0  0
 22 10  1  0  0  0  0
 22 47  1  0  0  0  0
 23 22  1  0  0  0  0
 23 49  1  0  0  0  0
 24 26  1  0  0  0  0
 24 23  1  0  0  0  0
 25 24  2  0  0  0  0
 26 50  1  0  0  0  0
 26 51  1  0  0  0  0
 27 29  1  0  0  0  0
 28 27  2  0  0  0  0
 29  3  1  0  0  0  0
 29 52  1  0  0  0  0
 30  5  1  0  0  0  0
 31  6  1  0  0  0  0
 37 18  1  0  0  0  0
 39 19  1  0  0  0  0
 42 20  1  0  0  0  0
 44 21  1  0  0  0  0
 45 21  1  0  0  0  0
 46 22  1  0  0  0  0
 48 23  1  0  0  0  0
M  END
>  <Pose>
1

>  <Score>
-6.30

$$$$
