2


 38 41  0  0  0  0  0  0  0  0999 V2000
  -35.5656  -67.1689   47.1407 C   0  0  0  0  0  0  0  0  0  0  0  0
  -35.0183  -68.2456   46.4758 N   0  0  0  0  0  0  0  0  0  0  0  0
  -34.3699  -67.7900   45.4524 N   0  0  0  0  0  0  0  0  0  0  0  0
  -34.4734  -66.4328   45.4198 N   0  0  0  0  0  0  0  0  0  0  0  0
  -35.2065  -66.0182   46.4514 C   0  0  0  0  0  0  0  0  0  0  0  0
  -33.8405  -65.7037   44.3654 C   0  0  0  0  0  0  0  0  0  0  0  0
  -32.9342  -64.7344   44.3776 N   0  0  0  0  0  0  0  0  0  0  0  0
  -32.6639  -64.4368   43.1494 O   0  0  0  0  0  0  0  0  0  0  0  0
  -33.3459  -65.1597   42.3175 N   0  0  0  0  0  0  0  0  0  0  0  0
  -34.1123  -65.9854   43.0170 C   0  0  0  0  0  0  0  0  0  0  0  0
  -35.0315  -66.9656   42.5629 N   0  0  0  0  0  0  0  0  0  0  0  0
  -34.7023  -67.7196   41.9251 H   0  0  0  0  0  0  0  0  0  0  0  0
  -36.0533  -66.9645   42.8469 H   0  0  0  0  0  0  0  0  0  0  0  0
  -37.5326  -66.6760   48.7362 N   0  0  0  0  0  0  0  0  0  0  0  0
  -36.3522  -67.3160   48.3418 C   0  0  0  0  0  0  0  0  0  0  0  0
  -35.8784  -68.1910   49.1869 O   0  0  0  0  0  0  0  0  0  0  0  0
  -38.0324  -65.9854   48.2010 H   0  0  0  0  0  0  0  0  0  0  0  0
  -39.3196  -67.2908   50.1498 C   0  0  0  0  0  0  0  0  0  0  0  0
  -38.0687  -67.0550   50.0153 N   0  0  0  0  0  0  0  0  0  0  0  0
  -39.0750  -70.4613   54.4308 Br  0  0  0  0  0  0  0  0  0  0  0  0
  -39.8949  -69.0617   53.4032 C   0  0  0  0  0  0  0  0  0  0  0  0
  -41.0313  -68.4564   53.9048 C   0  0  0  0  0  0  0  0  0  0  0  0
  -41.6034  -67.4542   53.1519 C   0  0  0  0  0  0  0  0  0  0  0  0
  -41.0487  -67.0796   51.9395 C   0  0  0  0  0  0  0  0  0  0  0  0
  -39.9144  -67.6813   51.4348 C   0  0  0  0  0  0  0  0  0  0  0  0
  -39.3476  -68.6838   52.1939 C   0  0  0  0  0  0  0  0  0  0  0  0
  -38.1911  -69.2954   51.6765 O   0  0  0  0  0  0  0  0  0  0  0  0
  -43.1758  -66.6189   53.8496 Br  0  0  0  0  0  0  0  0  0  0  0  0
  -41.5631  -68.8597   55.1311 O   0  0  0  0  0  0  0  0  0  0  0  0
  -37.7447  -70.0319   52.2008 H   0  0  0  0  0  0  0  0  0  0  0  0
  -35.5797  -64.6553   46.8283 C   0  0  0  0  0  0  0  0  0  0  0  0
  -34.5793  -63.7365   47.2225 N   0  0  0  0  0  0  0  0  0  0  0  0
  -33.8889  -64.1227   48.4443 C   0  0  0  0  0  0  0  0  0  0  0  0
  -34.8443  -64.4240   49.5283 C   0  0  0  0  0  0  0  0  0  0  0  0
  -36.0043  -63.7702   49.6149 O   0  0  0  0  0  0  0  0  0  0  0  0
  -36.3355  -62.8593   48.6650 C   0  0  0  0  0  0  0  0  0  0  0  0
  -35.2980  -62.5028   47.6796 C   0  0  0  0  0  0  0  0  0  0  0  0
  -33.9523  -63.4794   46.4744 H   0  0  0  0  0  0  0  0  0  0  0  0
 20 21  1  0  0  0
 21 22  2  0  0  0
 21 26  1  0  0  0
 22 23  1  0  0  0
 22 29  1  0  0  0
 23 24  2  0  0  0
 23 28  1  0  0  0
 24 25  1  0  0  0
 25 26  2  0  0  0
 25 18  1  0  0  0
 26 27  1  0  0  0
 18 19  2  0  0  0
 19 14  1  0  0  0
 14 15  1  0  0  0
 15 16  2  0  0  0
 15  1  1  0  0  0
  1  2  1  0  0  0
  1  5  2  0  0  0
  2  3  2  0  0  0
  3  4  1  0  0  0
  4  5  1  0  0  0
  4  6  1  0  0  0
  5 31  1  0  0  0
 31 32  1  0  0  0
 32 33  1  0  0  0
 32 37  1  0  0  0
 33 34  1  0  0  0
 34 35  1  0  0  0
 35 36  1  0  0  0
 36 37  1  0  0  0
  6  7  2  0  0  0
  6 10  1  0  0  0
  7  8  1  0  0  0
  8  9  1  0  0  0
  9 10  2  0  0  0
 10 11  1  0  0  0
 27 30  1  0  0  0
 14 17  1  0  0  0
 32 38  1  0  0  0
 11 12  1  0  0  0
 11 13  1  0  0  0
M  CHG 1  29  -1
M  CHG 1  32   1
M  END
> <minimizedAffinity>
-8.03633

$$$$
3


 38 41  0  0  0  0  0  0  0  0999 V2000
  -39.2462  -62.8138   48.0258 C   0  0  0  0  0  0  0  0  0  0  0  0
  -39.9687  -62.0847   47.1148 N   0  0  0  0  0  0  0  0  0  0  0  0
  -39.1601  -61.3263   46.4279 N   0  0  0  0  0  0  0  0  0  0  0  0
  -37.9051  -61.4874   46.8105 N   0  0  0  0  0  0  0  0  0  0  0  0
  -37.9297  -62.3990   47.7975 C   0  0  0  0  0  0  0  0  0  0  0  0
  -36.8044  -60.8183   46.2210 C   0  0  0  0  0  0  0  0  0  0  0  0
  -36.3794  -59.5487   46.3951 N   0  0  0  0  0  0  0  0  0  0  0  0
  -35.3149  -59.3348   45.6682 O   0  0  0  0  0  0  0  0  0  0  0  0
  -34.9941  -60.4136   45.0005 N   0  0  0  0  0  0  0  0  0  0  0  0
  -35.8975  -61.3553   45.3200 C   0  0  0  0  0  0  0  0  0  0  0  0
  -35.8926  -62.6685   44.8023 N   0  0  0  0  0  0  0  0  0  0  0  0
  -35.1503  -63.3238   45.1075 H   0  0  0  0  0  0  0  0  0  0  0  0
  -36.6028  -63.0056   44.1278 H   0  0  0  0  0  0  0  0  0  0  0  0
  -39.9322  -65.1410   48.8511 N   0  0  0  0  0  0  0  0  0  0  0  0
  -39.8049  -63.7636   48.9692 C   0  0  0  0  0  0  0  0  0  0  0  0
  -40.2389  -63.2369   50.0620 O   0  0  0  0  0  0  0  0  0  0  0  0
  -39.6425  -65.7386   48.0409 H   0  0  0  0  0  0  0  0  0  0  0  0
  -39.7795  -66.5219   50.7446 C   0  0  0  0  0  0  0  0  0  0  0  0
  -40.5298  -65.8407   49.9540 N   0  0  0  0  0  0  0  0  0  0  0  0
  -39.0423  -70.4882   54.1898 Br  0  0  0  0  0  0  0  0  0  0  0  0
  -40.0576  -69.0386   53.5139 C   0  0  0  0  0  0  0  0  0  0  0  0
  -41.2439  -68.7046   54.0988 C   0  0  0  0  0  0  0  0  0  0  0  0
  -41.9681  -67.6350   53.5786 C   0  0  0  0  0  0  0  0  0  0  0  0
  -41.4711  -66.9363   52.4829 C   0  0  0  0  0  0  0  0  0  0  0  0
  -40.2816  -67.2652   51.8900 C   0  0  0  0  0  0  0  0  0  0  0  0
  -39.5764  -68.3252   52.4149 C   0  0  0  0  0  0  0  0  0  0  0  0
  -38.3733  -68.6491   51.8069 O   0  0  0  0  0  0  0  0  0  0  0  0
  -43.6198  -67.1447   54.3687 Br  0  0  0  0  0  0  0  0  0  0  0  0
  -41.7568  -69.3878   55.1918 O   0  0  0  0  0  0  0  0  0  0  0  0
  -37.8177  -69.4202   52.1555 H   0  0  0  0  0  0  0  0  0  0  0  0
  -42.6356  -69.1219   55.6051 H   0  0  0  0  0  0  0  0  0  0  0  0
  -36.7780  -62.9399   48.5255 C   0  0  0  0  0  0  0  0  0  0  0  0
  -35.9476  -63.8600   47.7437 N   0  0  0  0  0  0  0  0  0  0  0  0
  -36.3037  -65.2431   48.1166 C   0  0  0  0  0  0  0  0  0  0  0  0
  -36.3633  -65.3666   49.5991 C   0  0  0  0  0  0  0  0  0  0  0  0
  -35.1835  -64.9263   50.1470 O   0  0  0  0  0  0  0  0  0  0  0  0
  -34.1907  -64.6845   49.2343 C   0  0  0  0  0  0  0  0  0  0  0  0
  -34.5391  -63.6787   48.1682 C   0  0  0  0  0  0  0  0  0  0  0  0
 20 21  1  0  0  0
 21 22  2  0  0  0
 21 26  1  0  0  0
 22 23  1  0  0  0
 22 29  1  0  0  0
 23 24  2  0  0  0
 23 28  1  0  0  0
 24 25  1  0  0  0
 25 26  2  0  0  0
 25 18  1  0  0  0
 26 27  1  0  0  0
 18 19  2  0  0  0
 19 14  1  0  0  0
 14 15  1  0  0  0
 15 16  2  0  0  0
 15  1  1  0  0  0
  1  2  1  0  0  0
  1  5  2  0  0  0
  2  3  2  0  0  0
  3  4  1  0  0  0
  4  5  1  0  0  0
  4  6  1  0  0  0
  5 32  1  0  0  0
 32 33  1  0  0  0
 33 34  1  0  0  0
 33 38  1  0  0  0
 34 35  1  0  0  0
 35 36  1  0  0  0
 36 37  1  0  0  0
 37 38  1  0  0  0
  6  7  2  0  0  0
  6 10  1  0  0  0
  7  8  1  0  0  0
  8  9  1  0  0  0
  9 10  2  0  0  0
 10 11  1  0  0  0
 27 30  1  0  0  0
 14 17  1  0  0  0
 11 12  1  0  0  0
 11 13  1  0  0  0
 29 31  1  0  0  0
M  END
> <minimizedAffinity>
-8.04954

$$$$
4


 34 37  0  0  0  0  0  0  0  0999 V2000
  -38.6179  -65.8257   47.9824 C   0  0  0  0  0  0  0  0  0  0  0  0
  -37.6076  -66.5605   48.4420 N   0  0  0  0  0  0  0  0  0  0  0  0
  -36.3012  -66.2339   48.2237 C   0  0  0  0  0  0  0  0  0  0  0  0
  -36.0841  -65.1267   47.5175 N   0  0  0  0  0  0  0  0  0  0  0  0
  -37.0492  -64.3237   47.0152 C   0  0  0  0  0  0  0  0  0  0  0  0
  -38.3288  -64.7242   47.2794 N   0  0  0  0  0  0  0  0  0  0  0  0
  -36.7717  -63.1611   46.2734 N   0  0  0  0  0  0  0  0  0  0  0  0
  -35.4277  -62.8141   45.9314 C   0  0  0  0  0  0  0  0  0  0  0  0
  -35.2141  -61.3595   46.3596 C   0  0  0  0  0  0  0  0  0  0  0  0
  -36.3172  -60.8438   47.0050 O   0  0  0  0  0  0  0  0  0  0  0  0
  -37.4770  -60.8873   46.2719 C   0  0  0  0  0  0  0  0  0  0  0  0
  -37.8380  -62.3066   45.8499 C   0  0  0  0  0  0  0  0  0  0  0  0
  -35.2447  -67.0267   48.7200 N   0  0  0  0  0  0  0  0  0  0  0  0
  -35.4194  -67.8012   49.9169 C   0  0  0  0  0  0  0  0  0  0  0  0
  -34.2010  -67.5582   50.7936 C   0  0  0  0  0  0  0  0  0  0  0  0
  -33.0154  -67.6597   50.0765 O   0  0  0  0  0  0  0  0  0  0  0  0
  -32.9064  -66.7355   49.0623 C   0  0  0  0  0  0  0  0  0  0  0  0
  -33.9890  -67.0605   48.0255 C   0  0  0  0  0  0  0  0  0  0  0  0
  -39.9666  -66.2002   48.2318 N   0  0  0  0  0  0  0  0  0  0  0  0
  -40.7526  -65.9762   47.6126 H   0  0  0  0  0  0  0  0  0  0  0  0
  -40.2422  -66.4195   50.5657 C   0  0  0  0  0  0  0  0  0  0  0  0
  -40.2711  -66.9288   49.3982 N   0  0  0  0  0  0  0  0  0  0  0  0
  -38.9860  -70.2926   54.0769 Br  0  0  0  0  0  0  0  0  0  0  0  0
  -40.0740  -68.8662   53.4192 C   0  0  0  0  0  0  0  0  0  0  0  0
  -41.1981  -68.5290   54.1473 C   0  0  0  0  0  0  0  0  0  0  0  0
  -41.9862  -67.5012   53.6774 C   0  0  0  0  0  0  0  0  0  0  0  0
  -41.6688  -66.8215   52.5150 C   0  0  0  0  0  0  0  0  0  0  0  0
  -40.5520  -67.1499   51.7837 C   0  0  0  0  0  0  0  0  0  0  0  0
  -39.7640  -68.1792   52.2555 C   0  0  0  0  0  0  0  0  0  0  0  0
  -38.6414  -68.5243   51.5409 O   0  0  0  0  0  0  0  0  0  0  0  0
  -43.5485  -67.0244   54.6770 Br  0  0  0  0  0  0  0  0  0  0  0  0
  -41.5025  -69.2246   55.3153 O   0  0  0  0  0  0  0  0  0  0  0  0
  -38.0315  -69.2835   51.8585 H   0  0  0  0  0  0  0  0  0  0  0  0
  -42.3230  -68.9745   55.8417 H   0  0  0  0  0  0  0  0  0  0  0  0
 23 24  1  0  0  0
 24 25  2  0  0  0
 24 29  1  0  0  0
 25 26  1  0  0  0
 25 32  1  0  0  0
 26 27  2  0  0  0
 26 31  1  0  0  0
 27 28  1  0  0  0
 28 29  2  0  0  0
 28 21  1  0  0  0
 29 30  1  0  0  0
 21 22  2  0  0  0
 22 19  1  0  0  0
 19  1  1  0  0  0
  1  2  2  0  0  0
  1  6  1  0  0  0
  2  3  1  0  0  0
  3  4  2  0  0  0
  3 13  1  0  0  0
  4  5  1  0  0  0
  5  6  2  0  0  0
  5  7  1  0  0  0
  7  8  1  0  0  0
  7 12  1  0  0  0
  8  9  1  0  0  0
  9 10  1  0  0  0
 10 11  1  0  0  0
 11 12  1  0  0  0
 13 14  1  0  0  0
 13 18  1  0  0  0
 14 15  1  0  0  0
 15 16  1  0  0  0
 16 17  1  0  0  0
 17 18  1  0  0  0
 30 33  1  0  0  0
 19 20  1  0  0  0
 32 34  1  0  0  0
M  END
> <minimizedAffinity>
-8.20859

$$$$
5


 38 41  0  0  0  0  0  0  0  0999 V2000
  -46.4464  -64.6319   51.9856 N   0  0  0  0  0  0  0  0  0  0  0  0
  -46.1520  -64.0952   50.7718 C   0  0  0  0  0  0  0  0  0  0  0  0
  -47.1922  -64.3177   49.9093 C   0  0  0  0  0  0  0  0  0  0  0  0
  -48.0913  -64.9764   50.6111 N   0  0  0  0  0  0  0  0  0  0  0  0
  -47.6706  -65.1839   51.8888 C   0  0  0  0  0  0  0  0  0  0  0  0
  -47.2215  -63.8921   48.6088 N   0  0  0  0  0  0  0  0  0  0  0  0
  -46.1517  -63.2127   48.1777 C   0  0  0  0  0  0  0  0  0  0  0  0
  -46.1814  -62.8218   46.9765 O   0  0  0  0  0  0  0  0  0  0  0  0
  -45.1045  -62.9641   48.9875 N   0  0  0  0  0  0  0  0  0  0  0  0
  -45.0620  -63.3760   50.2647 C   0  0  0  0  0  0  0  0  0  0  0  0
  -43.9822  -63.1035   51.0727 O   0  0  0  0  0  0  0  0  0  0  0  0
  -48.3793  -64.1953   47.7789 C   0  0  0  0  0  0  0  0  0  0  0  0
  -48.5205  -65.7770   52.8874 N   0  0  0  0  0  0  0  0  0  0  0  0
  -49.5961  -65.1723   53.5740 C   0  0  0  0  0  0  0  0  0  0  0  0
  -50.2486  -66.2562   54.4754 C   0  0  0  0  0  0  0  0  0  0  0  0
  -49.2047  -66.6332   55.4088 N   0  0  0  0  0  0  0  0  0  0  0  0
  -48.3746  -67.5656   54.6227 C   0  0  0  0  0  0  0  0  0  0  0  0
  -48.2678  -67.1901   53.1991 C   0  0  0  0  0  0  0  0  0  0  0  0
  -48.5708  -65.8482   55.6698 H   0  0  0  0  0  0  0  0  0  0  0  0
  -49.7436  -67.3186   56.5664 C   0  0  0  0  0  0  0  0  0  0  0  0
  -49.2107  -68.7344   56.5860 C   0  0  0  0  0  0  0  0  0  0  0  0
  -48.5031  -68.9401   57.7768 O   0  0  0  0  0  0  0  0  0  0  0  0
  -47.5531  -69.1740   57.5873 H   0  0  0  0  0  0  0  0  0  0  0  0
  -45.6098  -64.5999   53.1317 C   0  0  0  0  0  0  0  0  0  0  0  0
  -44.6907  -65.6766   53.4611 C   0  0  0  0  0  0  0  0  0  0  0  0
  -44.0055  -65.6273   54.6881 O   0  0  0  0  0  0  0  0  0  0  0  0
  -44.6097  -65.7035   55.4482 H   0  0  0  0  0  0  0  0  0  0  0  0
  -43.7918  -66.3540   52.5164 C   0  0  0  0  0  0  0  0  0  0  0  0
  -42.4378  -66.2473   52.9507 O   0  0  0  0  0  0  0  0  0  0  0  0
  -41.8992  -68.5860   54.7388 Br  0  0  0  0  0  0  0  0  0  0  0  0
  -40.9482  -68.0862   53.1548 C   0  0  0  0  0  0  0  0  0  0  0  0
  -41.3829  -66.9409   52.4698 C   0  0  0  0  0  0  0  0  0  0  0  0
  -40.6982  -66.5993   51.3485 C   0  0  0  0  0  0  0  0  0  0  0  0
  -39.6081  -67.3445   50.8821 C   0  0  0  0  0  0  0  0  0  0  0  0
  -39.2015  -68.4637   51.5711 C   0  0  0  0  0  0  0  0  0  0  0  0
  -39.8826  -68.8276   52.7129 C   0  0  0  0  0  0  0  0  0  0  0  0
  -37.7340  -69.5530   51.0337 Br  0  0  0  0  0  0  0  0  0  0  0  0
  -41.1694  -65.0731   50.3515 Br  0  0  0  0  0  0  0  0  0  0  0  0
 30 31  1  0  0  0
 31 32  2  0  0  0
 31 36  1  0  0  0
 32 33  1  0  0  0
 32 29  1  0  0  0
 33 34  2  0  0  0
 33 38  1  0  0  0
 34 35  1  0  0  0
 35 36  2  0  0  0
 35 37  1  0  0  0
 29 28  1  0  0  0
 28 25  1  0  0  0
 25 26  1  0  0  0
 25 24  1  0  0  0
 24  1  1  0  0  0
  1  2  1  0  0  0
  1  5  1  0  0  0
  2  3  2  0  0  0
  2 10  1  0  0  0
  3  4  1  0  0  0
  3  6  1  0  0  0
  4  5  2  0  0  0
  5 13  1  0  0  0
 13 14  1  0  0  0
 13 18  1  0  0  0
 14 15  1  0  0  0
 15 16  1  0  0  0
 16 17  1  0  0  0
 16 20  1  0  0  0
 17 18  1  0  0  0
 20 21  1  0  0  0
 21 22  1  0  0  0
  6  7  1  0  0  0
  6 12  1  0  0  0
  7  8  2  0  0  0
  7  9  1  0  0  0
  9 10  2  0  0  0
 10 11  1  0  0  0
 26 27  1  0  0  0
 16 19  1  0  0  0
 22 23  1  0  0  0
M  CHG 1  11  -1
M  CHG 1  16   1
M  END
> <minimizedAffinity>
-7.68185

$$$$
6


 34 37  0  0  0  0  0  0  0  0999 V2000
  -41.0759  -67.3848   52.0921 N   0  0  0  0  0  0  0  0  0  0  0  0
  -40.4073  -68.3788   52.7348 C   0  0  0  0  0  0  0  0  0  0  0  0
  -40.6416  -68.3080   54.0799 C   0  0  0  0  0  0  0  0  0  0  0  0
  -41.4614  -67.2577   54.2421 N   0  0  0  0  0  0  0  0  0  0  0  0
  -41.7298  -66.6890   53.0246 C   0  0  0  0  0  0  0  0  0  0  0  0
  -40.0464  -69.2379   54.9067 C   0  0  0  0  0  0  0  0  0  0  0  0
  -39.2219  -70.2364   54.4144 C   0  0  0  0  0  0  0  0  0  0  0  0
  -39.0031  -70.2824   53.0487 C   0  0  0  0  0  0  0  0  0  0  0  0
  -39.5979  -69.3532   52.2191 C   0  0  0  0  0  0  0  0  0  0  0  0
  -42.5911  -65.5268   52.8445 C   0  0  0  0  0  0  0  0  0  0  0  0
  -42.4104  -64.5561   51.9398 N   0  0  0  0  0  0  0  0  0  0  0  0
  -43.3820  -63.6699   52.0656 O   0  0  0  0  0  0  0  0  0  0  0  0
  -44.1894  -64.0225   53.0158 N   0  0  0  0  0  0  0  0  0  0  0  0
  -43.7318  -65.1834   53.5340 C   0  0  0  0  0  0  0  0  0  0  0  0
  -44.3154  -65.9191   54.5935 N   0  0  0  0  0  0  0  0  0  0  0  0
  -45.0741  -66.5389   54.2789 H   0  0  0  0  0  0  0  0  0  0  0  0
  -44.7592  -65.2054   55.2343 H   0  0  0  0  0  0  0  0  0  0  0  0
  -43.6028  -66.4407   55.1677 H   0  0  0  0  0  0  0  0  0  0  0  0
  -41.0959  -67.1136   50.6886 C   0  0  0  0  0  0  0  0  0  0  0  0
  -39.5699  -65.1708   50.2078 N   0  0  0  0  0  0  0  0  0  0  0  0
  -39.8929  -66.5478   50.1292 C   0  0  0  0  0  0  0  0  0  0  0  0
  -39.0710  -67.2865   49.5376 O   0  0  0  0  0  0  0  0  0  0  0  0
  -40.2469  -64.5471   50.6970 H   0  0  0  0  0  0  0  0  0  0  0  0
  -38.4271  -63.6155   48.8656 C   0  0  0  0  0  0  0  0  0  0  0  0
  -38.4235  -64.6000   49.6806 N   0  0  0  0  0  0  0  0  0  0  0  0
  -35.9458  -60.2257   45.7008 Br  0  0  0  0  0  0  0  0  0  0  0  0
  -35.9432  -61.6159   46.9920 C   0  0  0  0  0  0  0  0  0  0  0  0
  -37.1498  -62.1009   47.4505 C   0  0  0  0  0  0  0  0  0  0  0  0
  -37.1643  -63.0978   48.3768 C   0  0  0  0  0  0  0  0  0  0  0  0
  -35.9784  -63.6459   48.8783 C   0  0  0  0  0  0  0  0  0  0  0  0
  -34.7907  -63.1446   48.4040 C   0  0  0  0  0  0  0  0  0  0  0  0
  -34.7542  -62.1392   47.4698 C   0  0  0  0  0  0  0  0  0  0  0  0
  -33.1393  -63.8574   49.0557 Br  0  0  0  0  0  0  0  0  0  0  0  0
  -38.3318  -61.5701   46.9653 O   0  0  0  0  0  0  0  0  0  0  0  0
 26 27  1  0  0  0
 27 28  2  0  0  0
 27 32  1  0  0  0
 28 29  1  0  0  0
 28 34  1  0  0  0
 29 30  2  0  0  0
 29 24  1  0  0  0
 30 31  1  0  0  0
 31 32  2  0  0  0
 31 33  1  0  0  0
 24 25  2  0  0  0
 25 20  1  0  0  0
 20 21  1  0  0  0
 21 22  2  0  0  0
 21 19  1  0  0  0
 19  1  1  0  0  0
  1  2  1  0  0  0
  1  5  1  0  0  0
  2  3  2  0  0  0
  2  9  1  0  0  0
  3  4  1  0  0  0
  3  6  1  0  0  0
  4  5  2  0  0  0
  5 10  1  0  0  0
 10 11  2  0  0  0
 10 14  1  0  0  0
 11 12  1  0  0  0
 12 13  1  0  0  0
 13 14  2  0  0  0
 14 15  1  0  0  0
  6  7  2  0  0  0
  7  8  1  0  0  0
  8  9  2  0  0  0
 20 23  1  0  0  0
 15 16  1  0  0  0
 15 17  1  0  0  0
 15 18  1  0  0  0
M  CHG 1  15   1
M  CHG 1  34  -1
M  END
> <minimizedAffinity>
-8.86845

$$$$
11


 36 39  0  0  0  0  0  0  0  0999 V2000
  -36.7410  -65.6189   48.3355 C   0  0  0  0  0  0  0  0  0  0  0  0
  -35.7433  -66.1173   49.1891 N   0  0  0  0  0  0  0  0  0  0  0  0
  -35.9601  -67.2952   49.8878 C   0  0  0  0  0  0  0  0  0  0  0  0
  -34.8656  -67.5180   50.6366 C   0  0  0  0  0  0  0  0  0  0  0  0
  -34.0275  -66.5200   50.4041 N   0  0  0  0  0  0  0  0  0  0  0  0
  -34.5700  -65.6286   49.4897 C   0  0  0  0  0  0  0  0  0  0  0  0
  -34.7399  -68.6173   51.4716 C   0  0  0  0  0  0  0  0  0  0  0  0
  -35.8027  -69.4877   51.5011 C   0  0  0  0  0  0  0  0  0  0  0  0
  -36.9489  -69.3092   50.7504 C   0  0  0  0  0  0  0  0  0  0  0  0
  -37.0218  -68.1857   49.9290 C   0  0  0  0  0  0  0  0  0  0  0  0
  -33.7550  -64.4735   49.1591 C   0  0  0  0  0  0  0  0  0  0  0  0
  -34.2629  -63.1760   49.1709 N   0  0  0  0  0  0  0  0  0  0  0  0
  -33.3546  -62.3386   48.8715 O   0  0  0  0  0  0  0  0  0  0  0  0
  -32.2535  -62.9362   48.6492 N   0  0  0  0  0  0  0  0  0  0  0  0
  -32.4640  -64.2859   48.8219 C   0  0  0  0  0  0  0  0  0  0  0  0
  -31.4247  -65.2278   48.6702 N   0  0  0  0  0  0  0  0  0  0  0  0
  -30.4834  -64.6846   48.6040 H   0  0  0  0  0  0  0  0  0  0  0  0
  -31.4960  -65.6880   47.7547 H   0  0  0  0  0  0  0  0  0  0  0  0
  -31.2953  -65.7872   49.5093 H   0  0  0  0  0  0  0  0  0  0  0  0
  -38.7507  -65.2464   49.5801 N   0  0  0  0  0  0  0  0  0  0  0  0
  -37.6722  -64.6162   49.0517 C   0  0  0  0  0  0  0  0  0  0  0  0
  -37.2561  -63.4606   48.9992 O   0  0  0  0  0  0  0  0  0  0  0  0
  -39.1786  -64.0020   50.0747 H   0  0  0  0  0  0  0  0  0  0  0  0
  -40.6215  -66.3832   50.5944 C   0  0  0  0  0  0  0  0  0  0  0  0
  -39.7320  -65.8166   50.0622 N   0  0  0  0  0  0  0  0  0  0  0  0
  -38.9847  -70.1590   53.9643 Br  0  0  0  0  0  0  0  0  0  0  0  0
  -40.1522  -68.7457   53.4720 C   0  0  0  0  0  0  0  0  0  0  0  0
  -41.1982  -68.3904   54.2949 C   0  0  0  0  0  0  0  0  0  0  0  0
  -42.0687  -67.3474   53.8964 C   0  0  0  0  0  0  0  0  0  0  0  0
  -41.8205  -66.7430   52.6982 C   0  0  0  0  0  0  0  0  0  0  0  0
  -40.7705  -67.0729   51.8291 C   0  0  0  0  0  0  0  0  0  0  0  0
  -39.9567  -68.0927   52.2706 C   0  0  0  0  0  0  0  0  0  0  0  0
  -41.4537  -68.9946   55.4915 O   0  0  0  0  0  0  0  0  0  0  0  0
  -43.1109  -67.0139   54.7408 O   0  0  0  0  0  0  0  0  0  0  0  0
  -44.1630  -66.1967   54.3568 C   0  0  0  0  0  0  0  0  0  0  0  0
  -45.2573  -66.8530   53.5633 C   0  0  0  0  0  0  0  0  0  0  0  0
 26 27  1  0  0  0
 27 28  2  0  0  0
 27 32  1  0  0  0
 28 29  1  0  0  0
 28 33  1  0  0  0
 29 30  2  0  0  0
 29 34  1  0  0  0
 30 31  1  0  0  0
 31 32  2  0  0  0
 31 24  1  0  0  0
 24 25  2  0  0  0
 25 20  1  0  0  0
 20 21  1  0  0  0
 21 22  2  0  0  0
 21  1  1  0  0  0
  1  2  1  0  0  0
  2  3  1  0  0  0
  2  6  1  0  0  0
  3  4  2  0  0  0
  3 10  1  0  0  0
  4  5  1  0  0  0
  4  7  1  0  0  0
  5  6  2  0  0  0
  6 11  1  0  0  0
 11 12  2  0  0  0
 11 15  1  0  0  0
 12 13  1  0  0  0
 13 14  1  0  0  0
 14 15  2  0  0  0
 15 16  1  0  0  0
  7  8  2  0  0  0
  8  9  1  0  0  0
  9 10  2  0  0  0
 34 35  1  0  0  0
 35 36  1  0  0  0
 20 23  1  0  0  0
 16 17  1  0  0  0
 16 18  1  0  0  0
 16 19  1  0  0  0
M  CHG 1  16   1
M  CHG 1  33  -1
M  END
> <minimizedAffinity>
-9.41351

$$$$
17


 38 41  0  0  0  0  0  0  0  0999 V2000
  -37.6289  -63.5625   48.7536 C   0  0  0  0  0  0  0  0  0  0  0  0
  -37.7022  -62.4199   48.0588 N   0  0  0  0  0  0  0  0  0  0  0  0
  -36.4938  -61.9979   47.7783 N   0  0  0  0  0  0  0  0  0  0  0  0
  -35.5698  -62.8412   48.2733 N   0  0  0  0  0  0  0  0  0  0  0  0
  -36.2502  -63.8173   48.8813 C   0  0  0  0  0  0  0  0  0  0  0  0
  -34.1610  -62.6248   48.1392 C   0  0  0  0  0  0  0  0  0  0  0  0
  -33.2091  -62.6491   49.0855 N   0  0  0  0  0  0  0  0  0  0  0  0
  -32.0456  -62.4046   48.5314 O   0  0  0  0  0  0  0  0  0  0  0  0
  -32.1838  -62.2156   47.2410 N   0  0  0  0  0  0  0  0  0  0  0  0
  -33.4949  -62.3479   46.9699 C   0  0  0  0  0  0  0  0  0  0  0  0
  -34.0405  -62.2158   45.6667 N   0  0  0  0  0  0  0  0  0  0  0  0
  -34.3279  -61.3087   45.2456 H   0  0  0  0  0  0  0  0  0  0  0  0
  -34.1796  -63.0598   45.0536 H   0  0  0  0  0  0  0  0  0  0  0  0
  -39.2713  -64.1548   50.5542 N   0  0  0  0  0  0  0  0  0  0  0  0
  -38.7113  -64.3851   49.2776 C   0  0  0  0  0  0  0  0  0  0  0  0
  -39.1553  -65.3180   48.5799 O   0  0  0  0  0  0  0  0  0  0  0  0
  -38.8819  -63.3571   51.1349 H   0  0  0  0  0  0  0  0  0  0  0  0
  -41.2520  -64.4232   51.8142 C   0  0  0  0  0  0  0  0  0  0  0  0
  -40.2905  -64.8902   51.1067 N   0  0  0  0  0  0  0  0  0  0  0  0
  -46.3888  -65.5310   51.8062 Br  0  0  0  0  0  0  0  0  0  0  0  0
  -44.6111  -65.8504   52.4138 C   0  0  0  0  0  0  0  0  0  0  0  0
  -44.3238  -66.8536   53.3323 C   0  0  0  0  0  0  0  0  0  0  0  0
  -43.0425  -67.0894   53.7755 C   0  0  0  0  0  0  0  0  0  0  0  0
  -42.0408  -66.2914   53.2763 C   0  0  0  0  0  0  0  0  0  0  0  0
  -42.2905  -65.2822   52.3597 C   0  0  0  0  0  0  0  0  0  0  0  0
  -43.5879  -65.0812   51.9432 C   0  0  0  0  0  0  0  0  0  0  0  0
  -45.3789  -67.6293   53.8036 O   0  0  0  0  0  0  0  0  0  0  0  0
  -45.2003  -68.3680   54.4734 H   0  0  0  0  0  0  0  0  0  0  0  0
  -42.8325  -68.0983   54.6848 O   0  0  0  0  0  0  0  0  0  0  0  0
  -41.8556  -69.0855   54.6287 C   0  0  0  0  0  0  0  0  0  0  0  0
  -40.5707  -68.7442   55.3115 C   0  0  0  0  0  0  0  0  0  0  0  0
  -35.7419  -64.9788   49.6133 C   0  0  0  0  0  0  0  0  0  0  0  0
  -34.9590  -65.9307   48.8667 N   0  0  0  0  0  0  0  0  0  0  0  0
  -34.7505  -67.0472   49.7974 C   0  0  0  0  0  0  0  0  0  0  0  0
  -35.9848  -67.7152   50.2574 C   0  0  0  0  0  0  0  0  0  0  0  0
  -36.9663  -67.6986   49.2785 O   0  0  0  0  0  0  0  0  0  0  0  0
  -36.3517  -67.7711   48.0471 C   0  0  0  0  0  0  0  0  0  0  0  0
  -35.7416  -66.4200   47.7295 C   0  0  0  0  0  0  0  0  0  0  0  0
 20 21  1  0  0  0
 21 22  2  0  0  0
 21 26  1  0  0  0
 22 23  1  0  0  0
 22 27  1  0  0  0
 23 24  2  0  0  0
 23 29  1  0  0  0
 24 25  1  0  0  0
 25 26  2  0  0  0
 25 18  1  0  0  0
 18 19  2  0  0  0
 19 14  1  0  0  0
 14 15  1  0  0  0
 15 16  2  0  0  0
 15  1  1  0  0  0
  1  2  1  0  0  0
  1  5  2  0  0  0
  2  3  2  0  0  0
  3  4  1  0  0  0
  4  5  1  0  0  0
  4  6  1  0  0  0
  5 32  1  0  0  0
 32 33  1  0  0  0
 33 34  1  0  0  0
 33 38  1  0  0  0
 34 35  1  0  0  0
 35 36  1  0  0  0
 36 37  1  0  0  0
 37 38  1  0  0  0
  6  7  2  0  0  0
  6 10  1  0  0  0
  7  8  1  0  0  0
  8  9  1  0  0  0
  9 10  2  0  0  0
 10 11  1  0  0  0
 29 30  1  0  0  0
 30 31  1  0  0  0
 14 17  1  0  0  0
 11 12  1  0  0  0
 11 13  1  0  0  0
 27 28  1  0  0  0
M  END
> <minimizedAffinity>
-8.24155

$$$$
18


 37 40  0  0  0  0  0  0  0  0999 V2000
  -37.1477  -64.9268   48.0810 C   0  0  0  0  0  0  0  0  0  0  0  0
  -36.8097  -64.4709   46.9266 N   0  0  0  0  0  0  0  0  0  0  0  0
  -35.6388  -64.9699   46.5688 N   0  0  0  0  0  0  0  0  0  0  0  0
  -35.2048  -65.7698   47.5322 N   0  0  0  0  0  0  0  0  0  0  0  0
  -36.0514  -65.8202   48.5507 C   0  0  0  0  0  0  0  0  0  0  0  0
  -34.1883  -66.7627   47.2499 C   0  0  0  0  0  0  0  0  0  0  0  0
  -33.1142  -67.1156   47.8225 N   0  0  0  0  0  0  0  0  0  0  0  0
  -32.4647  -68.0646   47.1474 O   0  0  0  0  0  0  0  0  0  0  0  0
  -33.1722  -68.3143   46.1057 N   0  0  0  0  0  0  0  0  0  0  0  0
  -34.2705  -67.5589   46.0664 C   0  0  0  0  0  0  0  0  0  0  0  0
  -35.2730  -67.5295   45.0828 N   0  0  0  0  0  0  0  0  0  0  0  0
  -35.4091  -66.7281   44.4411 H   0  0  0  0  0  0  0  0  0  0  0  0
  -35.9500  -68.3515   44.9329 H   0  0  0  0  0  0  0  0  0  0  0  0
  -38.7187  -64.2697   49.9227 N   0  0  0  0  0  0  0  0  0  0  0  0
  -38.3899  -65.1150   48.7966 C   0  0  0  0  0  0  0  0  0  0  0  0
  -39.1997  -65.9476   48.3907 O   0  0  0  0  0  0  0  0  0  0  0  0
  -38.3857  -63.7103   50.5887 H   0  0  0  0  0  0  0  0  0  0  0  0
  -40.3665  -65.0227   51.1362 C   0  0  0  0  0  0  0  0  0  0  0  0
  -40.3113  -64.3668   49.9616 N   0  0  0  0  0  0  0  0  0  0  0  0
  -40.8816  -69.1712   54.2156 Br  0  0  0  0  0  0  0  0  0  0  0  0
  -41.4972  -67.4779   53.5226 C   0  0  0  0  0  0  0  0  0  0  0  0
  -42.6731  -66.9495   54.0113 C   0  0  0  0  0  0  0  0  0  0  0  0
  -43.1221  -65.7420   53.5534 C   0  0  0  0  0  0  0  0  0  0  0  0
  -42.3693  -65.0935   52.6017 C   0  0  0  0  0  0  0  0  0  0  0  0
  -41.1853  -65.5798   52.0773 C   0  0  0  0  0  0  0  0  0  0  0  0
  -40.7653  -66.8564   52.6048 C   0  0  0  0  0  0  0  0  0  0  0  0
  -43.3993  -67.6563   54.9741 O   0  0  0  0  0  0  0  0  0  0  0  0
  -43.0449  -68.5929   55.2629 H   0  0  0  0  0  0  0  0  0  0  0  0
  -44.3022  -65.1646   54.0372 O   0  0  0  0  0  0  0  0  0  0  0  0
  -45.4120  -64.9956   53.1323 C   0  0  0  0  0  0  0  0  0  0  0  0
  -36.1582  -66.6033   49.7478 C   0  0  0  0  0  0  0  0  0  0  0  0
  -35.9167  -68.0444   49.6509 N   0  0  0  0  0  0  0  0  0  0  0  0
  -37.1024  -68.8103   49.8579 C   0  0  0  0  0  0  0  0  0  0  0  0
  -37.6471  -68.7651   51.2568 C   0  0  0  0  0  0  0  0  0  0  0  0
  -36.8452  -69.5256   52.0910 O   0  0  0  0  0  0  0  0  0  0  0  0
  -35.5507  -69.6312   51.5699 C   0  0  0  0  0  0  0  0  0  0  0  0
  -35.1558  -68.3366   50.9423 C   0  0  0  0  0  0  0  0  0  0  0  0
 20 21  1  0  0  0
 21 22  2  0  0  0
 21 26  1  0  0  0
 22 23  1  0  0  0
 22 27  1  0  0  0
 23 24  2  0  0  0
 23 29  1  0  0  0
 24 25  1  0  0  0
 25 26  2  0  0  0
 25 18  1  0  0  0
 18 19  2  0  0  0
 19 14  1  0  0  0
 14 15  1  0  0  0
 15 16  2  0  0  0
 15  1  1  0  0  0
  1  2  1  0  0  0
  1  5  2  0  0  0
  2  3  2  0  0  0
  3  4  1  0  0  0
  4  5  1  0  0  0
  4  6  1  0  0  0
  5 31  1  0  0  0
 31 32  1  0  0  0
 32 33  1  0  0  0
 32 37  1  0  0  0
 33 34  1  0  0  0
 34 35  1  0  0  0
 35 36  1  0  0  0
 36 37  1  0  0  0
  6  7  2  0  0  0
  6 10  1  0  0  0
  7  8  1  0  0  0
  8  9  1  0  0  0
  9 10  2  0  0  0
 10 11  1  0  0  0
 29 30  1  0  0  0
 14 17  1  0  0  0
 11 12  1  0  0  0
 11 13  1  0  0  0
 27 28  1  0  0  0
M  END
> <minimizedAffinity>
-8.87853

$$$$
20


 34 37  0  0  0  0  0  0  0  0999 V2000
  -38.0250  -64.3665   49.4148 C   0  0  0  0  0  0  0  0  0  0  0  0
  -37.5122  -65.5414   49.7275 N   0  0  0  0  0  0  0  0  0  0  0  0
  -36.2145  -65.8413   49.4345 C   0  0  0  0  0  0  0  0  0  0  0  0
  -35.5091  -64.8652   48.8154 N   0  0  0  0  0  0  0  0  0  0  0  0
  -35.9782  -63.6511   48.4711 C   0  0  0  0  0  0  0  0  0  0  0  0
  -37.2728  -63.4220   48.7870 N   0  0  0  0  0  0  0  0  0  0  0  0
  -35.1579  -62.6523   47.9765 N   0  0  0  0  0  0  0  0  0  0  0  0
  -35.4303  -61.6383   47.0327 C   0  0  0  0  0  0  0  0  0  0  0  0
  -34.4868  -61.8769   45.8502 C   0  0  0  0  0  0  0  0  0  0  0  0
  -33.2004  -61.9042   46.3416 O   0  0  0  0  0  0  0  0  0  0  0  0
  -32.9311  -62.9001   47.2520 C   0  0  0  0  0  0  0  0  0  0  0  0
  -33.7728  -62.6435   48.5350 C   0  0  0  0  0  0  0  0  0  0  0  0
  -35.6028  -67.0544   49.8295 N   0  0  0  0  0  0  0  0  0  0  0  0
  -36.3501  -68.3165   49.7088 C   0  0  0  0  0  0  0  0  0  0  0  0
  -36.1298  -69.0390   51.0629 C   0  0  0  0  0  0  0  0  0  0  0  0
  -34.8035  -69.3642   51.0634 O   0  0  0  0  0  0  0  0  0  0  0  0
  -33.9677  -68.2898   51.1855 C   0  0  0  0  0  0  0  0  0  0  0  0
  -34.2993  -67.0818   50.3725 C   0  0  0  0  0  0  0  0  0  0  0  0
  -39.3453  -63.8809   49.8791 N   0  0  0  0  0  0  0  0  0  0  0  0
  -39.4222  -62.8891   49.9924 H   0  0  0  0  0  0  0  0  0  0  0  0
  -40.8941  -65.7857   50.1481 C   0  0  0  0  0  0  0  0  0  0  0  0
  -40.1647  -64.8901   50.0322 N   0  0  0  0  0  0  0  0  0  0  0  0
  -44.9831  -66.2938   53.4777 Br  0  0  0  0  0  0  0  0  0  0  0  0
  -43.1732  -66.6693   52.9632 C   0  0  0  0  0  0  0  0  0  0  0  0
  -42.3569  -67.3509   53.8230 C   0  0  0  0  0  0  0  0  0  0  0  0
  -41.0381  -67.6078   53.4540 C   0  0  0  0  0  0  0  0  0  0  0  0
  -40.5602  -67.1712   52.2263 C   0  0  0  0  0  0  0  0  0  0  0  0
  -41.3624  -66.4817   51.3642 C   0  0  0  0  0  0  0  0  0  0  0  0
  -42.6616  -66.2477   51.7555 C   0  0  0  0  0  0  0  0  0  0  0  0
  -42.8754  -67.7600   55.0332 O   0  0  0  0  0  0  0  0  0  0  0  0
  -43.8026  -67.5770   55.3328 H   0  0  0  0  0  0  0  0  0  0  0  0
  -40.3000  -68.2972   54.3645 O   0  0  0  0  0  0  0  0  0  0  0  0
  -40.0339  -69.6525   54.4431 C   0  0  0  0  0  0  0  0  0  0  0  0
  -38.8007  -70.0598   53.6502 C   0  0  0  0  0  0  0  0  0  0  0  0
 23 24  1  0  0  0
 24 25  2  0  0  0
 24 29  1  0  0  0
 25 26  1  0  0  0
 25 30  1  0  0  0
 26 27  2  0  0  0
 26 32  1  0  0  0
 27 28  1  0  0  0
 28 29  2  0  0  0
 28 21  1  0  0  0
 21 22  2  0  0  0
 22 19  1  0  0  0
 19  1  1  0  0  0
  1  2  2  0  0  0
  1  6  1  0  0  0
  2  3  1  0  0  0
  3  4  2  0  0  0
  3 13  1  0  0  0
  4  5  1  0  0  0
  5  6  2  0  0  0
  5  7  1  0  0  0
  7  8  1  0  0  0
  7 12  1  0  0  0
  8  9  1  0  0  0
  9 10  1  0  0  0
 10 11  1  0  0  0
 11 12  1  0  0  0
 13 14  1  0  0  0
 13 18  1  0  0  0
 14 15  1  0  0  0
 15 16  1  0  0  0
 16 17  1  0  0  0
 17 18  1  0  0  0
 32 33  1  0  0  0
 33 34  1  0  0  0
 19 20  1  0  0  0
 30 31  1  0  0  0
M  END
> <minimizedAffinity>
-8.18499

$$$$
23


 37 40  0  0  0  0  0  0  0  0999 V2000
  -41.6349  -66.6807   50.8984 C   0  0  0  0  0  0  0  0  0  0  0  0
  -42.5230  -65.9441   51.7727 N   0  0  0  0  0  0  0  0  0  0  0  0
  -42.1002  -64.6213   51.9404 C   0  0  0  0  0  0  0  0  0  0  0  0
  -42.5830  -63.7909   52.7248 O   0  0  0  0  0  0  0  0  0  0  0  0
  -40.9826  -64.3940   51.0236 C   0  0  0  0  0  0  0  0  0  0  0  0
  -40.3827  -63.2914   50.9454 O   0  0  0  0  0  0  0  0  0  0  0  0
  -40.7465  -65.6214   50.2940 C   0  0  0  0  0  0  0  0  0  0  0  0
  -39.8817  -65.7696   49.3271 C   0  0  0  0  0  0  0  0  0  0  0  0
  -39.7046  -67.0174   48.7513 O   0  0  0  0  0  0  0  0  0  0  0  0
  -39.0989  -64.6677   48.8237 C   0  0  0  0  0  0  0  0  0  0  0  0
  -39.7513  -63.8708   47.8739 C   0  0  0  0  0  0  0  0  0  0  0  0
  -39.1399  -62.7661   47.3347 C   0  0  0  0  0  0  0  0  0  0  0  0
  -37.8653  -62.4243   47.7222 C   0  0  0  0  0  0  0  0  0  0  0  0
  -37.2418  -63.2262   48.6599 C   0  0  0  0  0  0  0  0  0  0  0  0
  -37.8399  -64.3376   49.2134 C   0  0  0  0  0  0  0  0  0  0  0  0
  -37.4900  -61.2619   47.0168 O   0  0  0  0  0  0  0  0  0  0  0  0
  -38.3720  -61.1033   45.9100 C   0  0  0  0  0  0  0  0  0  0  0  0
  -39.6526  -61.7973   46.3129 C   0  0  0  0  0  0  0  0  0  0  0  0
  -37.8497  -61.7917   44.6631 C   0  0  0  0  0  0  0  0  0  0  0  0
  -40.5407  -68.9144   55.6406 Br  0  0  0  0  0  0  0  0  0  0  0  0
  -40.2660  -68.6589   53.7820 C   0  0  0  0  0  0  0  0  0  0  0  0
  -39.2462  -69.3787   53.1432 C   0  0  0  0  0  0  0  0  0  0  0  0
  -39.0439  -69.1914   51.7818 C   0  0  0  0  0  0  0  0  0  0  0  0
  -39.8408  -68.3186   51.1198 C   0  0  0  0  0  0  0  0  0  0  0  0
  -40.8482  -67.6081   51.7528 C   0  0  0  0  0  0  0  0  0  0  0  0
  -41.0721  -67.7717   53.0974 C   0  0  0  0  0  0  0  0  0  0  0  0
  -38.4467  -70.2600   53.8261 O   0  0  0  0  0  0  0  0  0  0  0  0
  -37.7306  -70.7573   53.3568 H   0  0  0  0  0  0  0  0  0  0  0  0
  -38.0291  -69.9066   51.1406 O   0  0  0  0  0  0  0  0  0  0  0  0
  -36.9162  -69.2959   50.5462 C   0  0  0  0  0  0  0  0  0  0  0  0
  -43.6842  -66.5722   52.3685 C   0  0  0  0  0  0  0  0  0  0  0  0
  -44.9952  -66.0182   52.0005 C   0  0  0  0  0  0  0  0  0  0  0  0
  -45.7386  -65.2428   53.0239 C   0  0  0  0  0  0  0  0  0  0  0  0
  -46.3316  -64.0243   52.5302 N   0  0  0  0  0  0  0  0  0  0  0  0
  -47.7814  -64.0680   52.7697 C   0  0  0  0  0  0  0  0  0  0  0  0
  -46.1396  -64.0053   51.0913 C   0  0  0  0  0  0  0  0  0  0  0  0
  -45.9313  -63.1604   52.9061 H   0  0  0  0  0  0  0  0  0  0  0  0
 20 21  1  0  0  0
 21 22  2  0  0  0
 21 26  1  0  0  0
 22 23  1  0  0  0
 22 27  1  0  0  0
 23 24  2  0  0  0
 23 29  1  0  0  0
 24 25  1  0  0  0
 25 26  2  0  0  0
 25  1  1  0  0  0
  1  2  1  0  0  0
  1  7  1  0  0  0
  2  3  1  0  0  0
  2 31  1  0  0  0
  3  4  2  0  0  0
  3  5  1  0  0  0
  5  6  2  0  0  0
  5  7  1  0  0  0
  7  8  2  0  0  0
  8  9  1  0  0  0
  8 10  1  0  0  0
 10 11  2  0  0  0
 10 15  1  0  0  0
 11 12  1  0  0  0
 12 13  2  0  0  0
 12 18  1  0  0  0
 13 14  1  0  0  0
 13 16  1  0  0  0
 14 15  2  0  0  0
 16 17  1  0  0  0
 17 18  1  0  0  0
 17 19  1  0  0  0
 31 32  1  0  0  0
 32 33  1  0  0  0
 33 34  1  0  0  0
 34 35  1  0  0  0
 34 36  1  0  0  0
 29 30  1  0  0  0
 34 37  1  0  0  0
 27 28  1  0  0  0
M  CHG 1   9  -1
M  CHG 1  34   1
M  END
> <minimizedAffinity>
-8.09844

$$$$
26


 29 32  0  0  0  0  0  0  0  0999 V2000
  -38.9554  -67.6877   49.7722 C   0  0  0  0  0  0  0  0  0  0  0  0
  -39.3355  -66.5925   48.9807 N   0  0  0  0  0  0  0  0  0  0  0  0
  -40.4941  -65.8563   49.3170 C   0  0  0  0  0  0  0  0  0  0  0  0
  -41.4825  -66.5716   50.1978 C   0  0  0  0  0  0  0  0  0  0  0  0
  -40.8189  -67.2715   51.3233 C   0  0  0  0  0  0  0  0  0  0  0  0
  -41.1988  -67.5082   52.6167 C   0  0  0  0  0  0  0  0  0  0  0  0
  -40.1470  -68.2132   53.1753 C   0  0  0  0  0  0  0  0  0  0  0  0
  -39.1791  -68.3848   52.2359 N   0  0  0  0  0  0  0  0  0  0  0  0
  -39.5881  -67.8083   51.0979 C   0  0  0  0  0  0  0  0  0  0  0  0
  -40.2787  -68.5825   54.4969 C   0  0  0  0  0  0  0  0  0  0  0  0
  -41.4029  -68.2657   55.2295 C   0  0  0  0  0  0  0  0  0  0  0  0
  -42.4505  -67.5625   54.6711 C   0  0  0  0  0  0  0  0  0  0  0  0
  -42.3348  -67.1843   53.3437 C   0  0  0  0  0  0  0  0  0  0  0  0
  -38.5383  -65.9056   48.8494 H   0  0  0  0  0  0  0  0  0  0  0  0
  -39.4670  -66.9485   47.9798 H   0  0  0  0  0  0  0  0  0  0  0  0
  -38.2974  -68.8959   52.4586 H   0  0  0  0  0  0  0  0  0  0  0  0
  -34.4742  -64.9038   49.0260 Br  0  0  0  0  0  0  0  0  0  0  0  0
  -35.4184  -66.4113   49.6964 C   0  0  0  0  0  0  0  0  0  0  0  0
  -34.7436  -67.3999   50.3713 C   0  0  0  0  0  0  0  0  0  0  0  0
  -35.4545  -68.4815   50.8467 C   0  0  0  0  0  0  0  0  0  0  0  0
  -36.8143  -68.6358   50.6850 C   0  0  0  0  0  0  0  0  0  0  0  0
  -37.4847  -67.6398   50.0074 C   0  0  0  0  0  0  0  0  0  0  0  0
  -36.7989  -66.5483   49.5219 C   0  0  0  0  0  0  0  0  0  0  0  0
  -34.4971  -69.8407   51.7789 Br  0  0  0  0  0  0  0  0  0  0  0  0
  -33.3518  -67.3168   50.5782 O   0  0  0  0  0  0  0  0  0  0  0  0
  -32.8702  -66.5073   50.2126 H   0  0  0  0  0  0  0  0  0  0  0  0
  -40.1819  -64.5562   49.9721 C   0  0  0  0  0  0  0  0  0  0  0  0
  -39.0103  -64.0599   49.8505 O   0  0  0  0  0  0  0  0  0  0  0  0
  -41.1599  -63.9040   50.7052 O   0  0  0  0  0  0  0  0  0  0  0  0
 17 18  1  0  0  0
 18 19  2  0  0  0
 18 23  1  0  0  0
 19 20  1  0  0  0
 19 25  1  0  0  0
 20 21  2  0  0  0
 20 24  1  0  0  0
 21 22  1  0  0  0
 22 23  2  0  0  0
 22  1  1  0  0  0
  1  2  1  0  0  0
  1  9  1  0  0  0
  2  3  1  0  0  0
  3  4  1  0  0  0
  3 27  1  0  0  0
  4  5  1  0  0  0
  5  6  1  0  0  0
  5  9  2  0  0  0
  6  7  2  0  0  0
  6 13  1  0  0  0
  7  8  1  0  0  0
  7 10  1  0  0  0
  8  9  1  0  0  0
 10 11  2  0  0  0
 11 12  1  0  0  0
 12 13  2  0  0  0
 27 28  2  0  0  0
 27 29  1  0  0  0
  2 14  1  0  0  0
  2 15  1  0  0  0
  8 16  1  0  0  0
 25 26  1  0  0  0
M  CHG 1   2   1
M  END
> <minimizedAffinity>
-9.01940

$$$$
31


 24 27  0  0  0  0  0  0  0  0999 V2000
  -41.1810  -68.2813   55.0759 Br  0  0  0  0  0  0  0  0  0  0  0  0
  -40.1297  -68.6286   53.5062 C   0  0  0  0  0  0  0  0  0  0  0  0
  -40.0540  -67.7321   52.5005 C   0  0  0  0  0  0  0  0  0  0  0  0
  -39.3220  -68.0285   51.3138 C   0  0  0  0  0  0  0  0  0  0  0  0
  -38.7193  -69.2358   51.2325 C   0  0  0  0  0  0  0  0  0  0  0  0
  -38.8188  -70.1441   52.2682 C   0  0  0  0  0  0  0  0  0  0  0  0
  -39.5127  -69.8568   53.4036 C   0  0  0  0  0  0  0  0  0  0  0  0
  -39.6692  -67.1447   50.1837 C   0  0  0  0  0  0  0  0  0  0  0  0
  -38.7166  -66.2987   49.5908 N   0  0  0  0  0  0  0  0  0  0  0  0
  -37.3643  -66.5283   49.6953 C   0  0  0  0  0  0  0  0  0  0  0  0
  -36.5821  -65.5965   48.8863 N   0  0  0  0  0  0  0  0  0  0  0  0
  -36.9020  -64.2519   49.3364 C   0  0  0  0  0  0  0  0  0  0  0  0
  -38.3233  -63.9796   49.2769 N   0  0  0  0  0  0  0  0  0  0  0  0
  -39.1084  -64.9046   49.9937 C   0  0  0  0  0  0  0  0  0  0  0  0
  -38.7183  -63.9653   47.8837 C   0  0  0  0  0  0  0  0  0  0  0  0
  -38.3793  -65.3282   47.3341 C   0  0  0  0  0  0  0  0  0  0  0  0
  -39.1135  -66.3349   48.1397 C   0  0  0  0  0  0  0  0  0  0  0  0
  -36.8956  -65.6557   47.4797 C   0  0  0  0  0  0  0  0  0  0  0  0
  -40.6649  -66.5320   52.5839 O   0  0  0  0  0  0  0  0  0  0  0  0
  -42.0405  -66.3049   52.2158 C   0  0  0  0  0  0  0  0  0  0  0  0
  -42.5455  -64.9389   52.3228 C   0  0  0  0  0  0  0  0  0  0  0  0
  -42.3962  -64.0630   51.4827 O   0  0  0  0  0  0  0  0  0  0  0  0
  -43.2887  -64.6181   53.4644 O   0  0  0  0  0  0  0  0  0  0  0  0
  -43.6844  -65.5717   54.4140 C   0  0  0  0  0  0  0  0  0  0  0  0
  1  2  1  0  0  0
  2  3  2  0  0  0
  2  7  1  0  0  0
  3  4  1  0  0  0
  3 19  1  0  0  0
  4  5  2  0  0  0
  4  8  1  0  0  0
  5  6  1  0  0  0
  6  7  2  0  0  0
  8  9  1  0  0  0
  9 10  1  0  0  0
  9 14  1  0  0  0
  9 17  1  0  0  0
 10 11  1  0  0  0
 11 12  1  0  0  0
 11 18  1  0  0  0
 12 13  1  0  0  0
 13 14  1  0  0  0
 13 15  1  0  0  0
 15 16  1  0  0  0
 16 17  1  0  0  0
 16 18  1  0  0  0
 19 20  1  0  0  0
 20 21  1  0  0  0
 21 22  2  0  0  0
 21 23  1  0  0  0
 23 24  1  0  0  0
M  CHG 1   9   1
M  END
> <minimizedAffinity>
-7.03629

$$$$
33


 33 36  0  0  0  0  0  0  0  0999 V2000
  -38.2500  -65.1186   48.8074 C   0  0  0  0  0  0  0  0  0  0  0  0
  -37.5747  -66.1280   49.3334 N   0  0  0  0  0  0  0  0  0  0  0  0
  -36.2358  -66.1653   49.4499 C   0  0  0  0  0  0  0  0  0  0  0  0
  -35.5582  -65.0896   48.9934 N   0  0  0  0  0  0  0  0  0  0  0  0
  -36.1954  -64.0215   48.4433 C   0  0  0  0  0  0  0  0  0  0  0  0
  -37.5487  -64.0556   48.3598 N   0  0  0  0  0  0  0  0  0  0  0  0
  -35.4748  -62.9124   47.9564 N   0  0  0  0  0  0  0  0  0  0  0  0
  -34.0662  -62.7608   48.2161 C   0  0  0  0  0  0  0  0  0  0  0  0
  -33.4210  -62.5491   46.8386 C   0  0  0  0  0  0  0  0  0  0  0  0
  -34.0666  -61.5127   46.1957 O   0  0  0  0  0  0  0  0  0  0  0  0
  -35.3571  -61.8930   45.8299 C   0  0  0  0  0  0  0  0  0  0  0  0
  -36.1395  -61.9119   47.1607 C   0  0  0  0  0  0  0  0  0  0  0  0
  -35.5459  -67.2872   50.0252 N   0  0  0  0  0  0  0  0  0  0  0  0
  -34.1743  -67.1901   50.4365 C   0  0  0  0  0  0  0  0  0  0  0  0
  -33.6405  -68.3106   51.2407 C   0  0  0  0  0  0  0  0  0  0  0  0
  -34.4016  -69.4703   51.1921 O   0  0  0  0  0  0  0  0  0  0  0  0
  -35.7494  -69.2209   51.4116 C   0  0  0  0  0  0  0  0  0  0  0  0
  -36.2665  -68.5164   50.1813 C   0  0  0  0  0  0  0  0  0  0  0  0
  -39.6664  -65.1825   48.6964 N   0  0  0  0  0  0  0  0  0  0  0  0
  -40.1262  -64.7771   47.8726 H   0  0  0  0  0  0  0  0  0  0  0  0
  -40.4158  -65.4182   50.9247 C   0  0  0  0  0  0  0  0  0  0  0  0
  -40.4233  -65.7827   49.6886 N   0  0  0  0  0  0  0  0  0  0  0  0
  -40.8146  -68.7354   55.1230 Br  0  0  0  0  0  0  0  0  0  0  0  0
  -41.5426  -67.5423   53.8341 C   0  0  0  0  0  0  0  0  0  0  0  0
  -42.9048  -67.2897   53.8721 C   0  0  0  0  0  0  0  0  0  0  0  0
  -43.4112  -66.4237   52.9218 C   0  0  0  0  0  0  0  0  0  0  0  0
  -42.5967  -65.8436   51.9841 C   0  0  0  0  0  0  0  0  0  0  0  0
  -41.2237  -66.0809   51.9277 C   0  0  0  0  0  0  0  0  0  0  0  0
  -40.7368  -66.9470   52.8822 C   0  0  0  0  0  0  0  0  0  0  0  0
  -43.1164  -64.9691   51.0239 O   0  0  0  0  0  0  0  0  0  0  0  0
  -43.7420  -67.8742   54.8200 O   0  0  0  0  0  0  0  0  0  0  0  0
  -44.1136  -64.7772   51.0384 H   0  0  0  0  0  0  0  0  0  0  0  0
  -43.4209  -68.5073   55.5368 H   0  0  0  0  0  0  0  0  0  0  0  0
 23 24  1  0  0  0
 24 25  2  0  0  0
 24 29  1  0  0  0
 25 26  1  0  0  0
 25 31  1  0  0  0
 26 27  2  0  0  0
 27 28  1  0  0  0
 27 30  1  0  0  0
 28 29  2  0  0  0
 28 21  1  0  0  0
 21 22  2  0  0  0
 22 19  1  0  0  0
 19  1  1  0  0  0
  1  2  2  0  0  0
  1  6  1  0  0  0
  2  3  1  0  0  0
  3  4  2  0  0  0
  3 13  1  0  0  0
  4  5  1  0  0  0
  5  6  2  0  0  0
  5  7  1  0  0  0
  7  8  1  0  0  0
  7 12  1  0  0  0
  8  9  1  0  0  0
  9 10  1  0  0  0
 10 11  1  0  0  0
 11 12  1  0  0  0
 13 14  1  0  0  0
 13 18  1  0  0  0
 14 15  1  0  0  0
 15 16  1  0  0  0
 16 17  1  0  0  0
 17 18  1  0  0  0
 19 20  1  0  0  0
 30 32  1  0  0  0
 31 33  1  0  0  0
M  END
> <minimizedAffinity>
-8.21571

$$$$
35


 33 36  0  0  0  0  0  0  0  0999 V2000
  -39.3126  -66.2714   49.0543 C   0  0  0  0  0  0  0  0  0  0  0  0
  -38.3560  -67.1345   49.4085 N   0  0  0  0  0  0  0  0  0  0  0  0
  -37.0470  -66.7744   49.4851 C   0  0  0  0  0  0  0  0  0  0  0  0
  -36.7067  -65.5090   49.1938 N   0  0  0  0  0  0  0  0  0  0  0  0
  -37.6435  -64.6184   48.8352 C   0  0  0  0  0  0  0  0  0  0  0  0
  -38.9485  -65.0175   48.7693 N   0  0  0  0  0  0  0  0  0  0  0  0
  -37.2899  -63.2715   48.5220 N   0  0  0  0  0  0  0  0  0  0  0  0
  -38.2055  -62.3226   47.9352 C   0  0  0  0  0  0  0  0  0  0  0  0
  -37.5454  -61.5698   46.7998 C   0  0  0  0  0  0  0  0  0  0  0  0
  -36.2391  -61.9795   46.5789 O   0  0  0  0  0  0  0  0  0  0  0  0
  -35.5002  -61.8078   47.7655 C   0  0  0  0  0  0  0  0  0  0  0  0
  -35.9397  -62.8251   48.8000 C   0  0  0  0  0  0  0  0  0  0  0  0
  -36.1181  -67.7644   49.8650 N   0  0  0  0  0  0  0  0  0  0  0  0
  -34.7121  -67.5140   49.6955 C   0  0  0  0  0  0  0  0  0  0  0  0
  -34.0976  -67.7062   51.0909 C   0  0  0  0  0  0  0  0  0  0  0  0
  -34.3342  -69.0414   51.4194 O   0  0  0  0  0  0  0  0  0  0  0  0
  -35.6830  -69.2931   51.6470 C   0  0  0  0  0  0  0  0  0  0  0  0
  -36.5305  -69.0314   50.4182 C   0  0  0  0  0  0  0  0  0  0  0  0
  -40.6528  -66.7068   49.0024 N   0  0  0  0  0  0  0  0  0  0  0  0
  -41.1289  -66.7150   48.0765 H   0  0  0  0  0  0  0  0  0  0  0  0
  -41.0388  -66.6542   51.3283 C   0  0  0  0  0  0  0  0  0  0  0  0
  -41.3512  -67.1288   50.1675 N   0  0  0  0  0  0  0  0  0  0  0  0
  -39.7469  -69.0557   52.7164 Br  0  0  0  0  0  0  0  0  0  0  0  0
  -41.2591  -68.0736   53.3352 C   0  0  0  0  0  0  0  0  0  0  0  0
  -41.8887  -68.4246   54.5156 C   0  0  0  0  0  0  0  0  0  0  0  0
  -42.9866  -67.6938   54.9435 C   0  0  0  0  0  0  0  0  0  0  0  0
  -43.4351  -66.6335   54.1884 C   0  0  0  0  0  0  0  0  0  0  0  0
  -42.7773  -66.3129   53.0107 C   0  0  0  0  0  0  0  0  0  0  0  0
  -41.6871  -67.0192   52.5636 C   0  0  0  0  0  0  0  0  0  0  0  0
  -44.5364  -65.9311   54.6522 O   0  0  0  0  0  0  0  0  0  0  0  0
  -41.4348  -69.4907   55.2701 O   0  0  0  0  0  0  0  0  0  0  0  0
  -44.4826  -65.1279   55.2636 H   0  0  0  0  0  0  0  0  0  0  0  0
  -40.6312  -70.0063   54.9356 H   0  0  0  0  0  0  0  0  0  0  0  0
 23 24  1  0  0  0
 24 25  2  0  0  0
 24 29  1  0  0  0
 25 26  1  0  0  0
 25 31  1  0  0  0
 26 27  2  0  0  0
 27 28  1  0  0  0
 27 30  1  0  0  0
 28 29  2  0  0  0
 29 21  1  0  0  0
 21 22  2  0  0  0
 22 19  1  0  0  0
 19  1  1  0  0  0
  1  2  2  0  0  0
  1  6  1  0  0  0
  2  3  1  0  0  0
  3  4  2  0  0  0
  3 13  1  0  0  0
  4  5  1  0  0  0
  5  6  2  0  0  0
  5  7  1  0  0  0
  7  8  1  0  0  0
  7 12  1  0  0  0
  8  9  1  0  0  0
  9 10  1  0  0  0
 10 11  1  0  0  0
 11 12  1  0  0  0
 13 14  1  0  0  0
 13 18  1  0  0  0
 14 15  1  0  0  0
 15 16  1  0  0  0
 16 17  1  0  0  0
 17 18  1  0  0  0
 19 20  1  0  0  0
 30 32  1  0  0  0
 31 33  1  0  0  0
M  END
> <minimizedAffinity>
-8.52056

$$$$
37


 27 30  0  0  0  0  0  0  0  0999 V2000
  -42.4995  -66.9918   52.9193 N   0  0  0  0  0  0  0  0  0  0  0  0
  -43.2120  -65.9800   52.1755 C   0  0  0  0  0  0  0  0  0  0  0  0
  -44.6516  -66.3055   52.5091 C   0  0  0  0  0  0  0  0  0  0  0  0
  -44.5636  -66.5200   54.0099 C   0  0  0  0  0  0  0  0  0  0  0  0
  -43.2735  -67.2569   54.0752 C   0  0  0  0  0  0  0  0  0  0  0  0
  -42.9338  -67.9998   55.0204 O   0  0  0  0  0  0  0  0  0  0  0  0
  -37.1709  -69.3879   51.0771 Br  0  0  0  0  0  0  0  0  0  0  0  0
  -38.8296  -68.6357   51.6390 C   0  0  0  0  0  0  0  0  0  0  0  0
  -39.3762  -69.0597   52.8444 C   0  0  0  0  0  0  0  0  0  0  0  0
  -40.5662  -68.5037   53.2270 C   0  0  0  0  0  0  0  0  0  0  0  0
  -41.2625  -67.5573   52.5070 C   0  0  0  0  0  0  0  0  0  0  0  0
  -40.6791  -67.1584   51.3016 C   0  0  0  0  0  0  0  0  0  0  0  0
  -39.4790  -67.6901   50.8721 C   0  0  0  0  0  0  0  0  0  0  0  0
  -38.6519  -70.0821   53.6475 C   0  0  0  0  0  0  0  0  0  0  0  0
  -45.5680  -65.1991   52.1628 C   0  0  0  0  0  0  0  0  0  0  0  0
  -46.1467  -64.5305   53.0525 O   0  0  0  0  0  0  0  0  0  0  0  0
  -45.7899  -64.8953   50.8035 N   0  0  0  0  0  0  0  0  0  0  0  0
  -45.3177  -65.4429   50.0624 H   0  0  0  0  0  0  0  0  0  0  0  0
  -46.6740  -63.8219   50.4201 C   0  0  0  0  0  0  0  0  0  0  0  0
  -45.9069  -62.6097   50.0178 C   0  0  0  0  0  0  0  0  0  0  0  0
  -46.3952  -61.3843   49.7009 N   0  0  0  0  0  0  0  0  0  0  0  0
  -45.3764  -60.5631   49.3959 C   0  0  0  0  0  0  0  0  0  0  0  0
  -44.2559  -61.3164   49.5350 N   0  0  0  0  0  0  0  0  0  0  0  0
  -44.5706  -62.5407   49.9062 N   0  0  0  0  0  0  0  0  0  0  0  0
  -45.8811  -59.1965   49.0393 C   0  0  0  0  0  0  0  0  0  0  0  0
  -47.3550  -59.4499   48.8142 C   0  0  0  0  0  0  0  0  0  0  0  0
  -47.6755  -60.7086   49.5928 C   0  0  0  0  0  0  0  0  0  0  0  0
  7  8  1  0  0  0
  8  9  2  0  0  0
  8 13  1  0  0  0
  9 10  1  0  0  0
  9 14  1  0  0  0
 10 11  2  0  0  0
 11 12  1  0  0  0
 11  1  1  0  0  0
 12 13  2  0  0  0
  1  2  1  0  0  0
  1  5  1  0  0  0
  2  3  1  0  0  0
  3  4  1  0  0  0
  3 15  1  0  0  0
  4  5  1  0  0  0
  5  6  2  0  0  0
 15 16  2  0  0  0
 15 17  1  0  0  0
 17 19  1  0  0  0
 19 20  1  0  0  0
 20 21  1  0  0  0
 20 24  2  0  0  0
 21 22  1  0  0  0
 21 27  1  0  0  0
 22 23  2  0  0  0
 22 25  1  0  0  0
 23 24  1  0  0  0
 25 26  1  0  0  0
 26 27  1  0  0  0
 17 18  1  0  0  0
M  END
> <minimizedAffinity>
-8.59719

$$$$
39


 21 23  0  0  0  0  0  0  0  0999 V2000
  -42.7611  -66.1808   52.8643 N   0  0  0  0  0  0  0  0  0  0  0  0
  -43.7054  -65.4811   53.6171 C   0  0  0  0  0  0  0  0  0  0  0  0
  -43.8580  -65.6982   54.8276 O   0  0  0  0  0  0  0  0  0  0  0  0
  -42.7052  -65.9228   51.8340 H   0  0  0  0  0  0  0  0  0  0  0  0
  -41.0542  -67.1241   50.5767 Br  0  0  0  0  0  0  0  0  0  0  0  0
  -40.9718  -67.7756   52.3833 C   0  0  0  0  0  0  0  0  0  0  0  0
  -41.8664  -67.1894   53.2904 C   0  0  0  0  0  0  0  0  0  0  0  0
  -41.7863  -67.6757   54.5780 C   0  0  0  0  0  0  0  0  0  0  0  0
  -40.8765  -68.6749   54.9319 C   0  0  0  0  0  0  0  0  0  0  0  0
  -40.0097  -69.2342   54.0251 C   0  0  0  0  0  0  0  0  0  0  0  0
  -40.0804  -68.7585   52.7379 C   0  0  0  0  0  0  0  0  0  0  0  0
  -39.0439  -70.3033   54.4226 C   0  0  0  0  0  0  0  0  0  0  0  0
  -44.5374  -64.4608   52.9496 C   0  0  0  0  0  0  0  0  0  0  0  0
  -45.8441  -64.8789   52.5583 N   0  0  0  0  0  0  0  0  0  0  0  0
  -46.0329  -64.4850   51.1534 C   0  0  0  0  0  0  0  0  0  0  0  0
  -47.0866  -65.3959   50.5741 C   0  0  0  0  0  0  0  0  0  0  0  0
  -48.0860  -65.5751   51.6267 N   0  0  0  0  0  0  0  0  0  0  0  0
  -47.5380  -66.5960   52.5148 C   0  0  0  0  0  0  0  0  0  0  0  0
  -46.0509  -66.3192   52.6842 C   0  0  0  0  0  0  0  0  0  0  0  0
  -48.1822  -64.3505   52.4054 C   0  0  0  0  0  0  0  0  0  0  0  0
  -46.9225  -64.2342   53.2795 C   0  0  0  0  0  0  0  0  0  0  0  0
  5  6  1  0  0  0
  6  7  2  0  0  0
  6 11  1  0  0  0
  7  8  1  0  0  0
  7  1  1  0  0  0
  8  9  2  0  0  0
  9 10  1  0  0  0
 10 11  2  0  0  0
 10 12  1  0  0  0
  1  2  1  0  0  0
  2  3  2  0  0  0
  2 13  1  0  0  0
 13 14  1  0  0  0
 14 15  1  0  0  0
 14 19  1  0  0  0
 14 21  1  0  0  0
 15 16  1  0  0  0
 16 17  1  0  0  0
 17 18  1  0  0  0
 17 20  1  0  0  0
 18 19  1  0  0  0
 20 21  1  0  0  0
  1  4  1  0  0  0
M  CHG 1  14   1
M  END
> <minimizedAffinity>
-7.04570

$$$$
56


 24 27  0  0  0  0  0  0  0  0999 V2000
  -35.8609  -65.3236   49.0481 C   0  0  0  0  0  0  0  0  0  0  0  0
  -34.7574  -64.5625   48.6588 C   0  0  0  0  0  0  0  0  0  0  0  0
  -33.6031  -64.6985   47.7290 C   0  0  0  0  0  0  0  0  0  0  0  0
  -34.2688  -63.9757   46.6161 N   0  0  0  0  0  0  0  0  0  0  0  0
  -35.5118  -64.3425   46.5932 C   0  0  0  0  0  0  0  0  0  0  0  0
  -35.6934  -65.2915   47.6464 C   0  0  0  0  0  0  0  0  0  0  0  0
  -36.5138  -63.8681   45.6661 N   0  0  0  0  0  0  0  0  0  0  0  0
  -32.5546  -63.9127   48.2201 O   0  0  0  0  0  0  0  0  0  0  0  0
  -31.4280  -64.7117   48.2454 C   0  0  0  0  0  0  0  0  0  0  0  0
  -31.7436  -65.7501   47.1821 C   0  0  0  0  0  0  0  0  0  0  0  0
  -33.1294  -65.9119   47.4294 O   0  0  0  0  0  0  0  0  0  0  0  0
  -36.2744  -63.6591   44.6782 H   0  0  0  0  0  0  0  0  0  0  0  0
  -37.4943  -63.7274   45.9726 H   0  0  0  0  0  0  0  0  0  0  0  0
  -38.3293  -67.3102   49.4072 Br  0  0  0  0  0  0  0  0  0  0  0  0
  -36.5599  -67.4822   50.1025 C   0  0  0  0  0  0  0  0  0  0  0  0
  -35.5925  -66.5408   49.8570 C   0  0  0  0  0  0  0  0  0  0  0  0
  -34.3267  -66.7016   50.3687 C   0  0  0  0  0  0  0  0  0  0  0  0
  -33.9912  -67.8054   51.1408 C   0  0  0  0  0  0  0  0  0  0  0  0
  -34.9446  -68.7606   51.3989 C   0  0  0  0  0  0  0  0  0  0  0  0
  -36.2302  -68.5885   50.8738 C   0  0  0  0  0  0  0  0  0  0  0  0
  -35.2439  -66.6206   47.1337 C   0  0  0  0  0  0  0  0  0  0  0  0
  -34.9114  -67.6764   46.7151 N   0  0  0  0  0  0  0  0  0  0  0  0
  -35.0066  -63.0829   48.7960 C   0  0  0  0  0  0  0  0  0  0  0  0
  -35.2036  -61.9253   48.9253 N   0  0  0  0  0  0  0  0  0  0  0  0
 14 15  1  0  0  0
 15 16  2  0  0  0
 15 20  1  0  0  0
 16 17  1  0  0  0
 16  1  1  0  0  0
 17 18  2  0  0  0
 18 19  1  0  0  0
 19 20  2  0  0  0
  1  2  1  0  0  0
  1  6  1  0  0  0
  2  3  1  0  0  0
  2  6  1  0  0  0
  2 23  1  0  0  0
  3  4  1  0  0  0
  3  8  1  0  0  0
  3 11  1  0  0  0
  4  5  2  0  0  0
  5  6  1  0  0  0
  5  7  1  0  0  0
  6 21  1  0  0  0
 21 22  3  0  0  0
  8  9  1  0  0  0
  9 10  1  0  0  0
 10 11  1  0  0  0
 23 24  3  0  0  0
  7 12  1  0  0  0
  7 13  1  0  0  0
M  END
> <minimizedAffinity>
-6.09882

$$$$
64


 22 25  0  0  0  0  0  0  0  0999 V2000
  -36.6160  -66.6195   49.1191 N   0  0  0  0  0  0  0  0  0  0  0  0
  -36.9124  -65.2397   49.2623 C   0  0  0  0  0  0  0  0  0  0  0  0
  -36.5619  -64.5444   50.2321 O   0  0  0  0  0  0  0  0  0  0  0  0
  -37.6915  -64.7390   48.1066 C   0  0  0  0  0  0  0  0  0  0  0  0
  -39.0660  -64.2966   48.4705 C   0  0  0  0  0  0  0  0  0  0  0  0
  -39.9307  -64.9912   47.5835 O   0  0  0  0  0  0  0  0  0  0  0  0
  -39.4198  -66.2876   47.8526 C   0  0  0  0  0  0  0  0  0  0  0  0
  -37.9978  -66.0360   47.3368 C   0  0  0  0  0  0  0  0  0  0  0  0
  -37.0546  -67.0520   47.8276 C   0  0  0  0  0  0  0  0  0  0  0  0
  -36.6812  -68.1007   47.2583 O   0  0  0  0  0  0  0  0  0  0  0  0
  -39.4758  -66.2999   49.3297 C   0  0  0  0  0  0  0  0  0  0  0  0
  -39.4404  -65.0263   49.7210 C   0  0  0  0  0  0  0  0  0  0  0  0
  -33.5788  -66.1717   49.4431 Br  0  0  0  0  0  0  0  0  0  0  0  0
  -34.6591  -67.4883   50.3446 C   0  0  0  0  0  0  0  0  0  0  0  0
  -36.0020  -67.5061   50.0434 C   0  0  0  0  0  0  0  0  0  0  0  0
  -36.7571  -68.4676   50.7062 C   0  0  0  0  0  0  0  0  0  0  0  0
  -36.2003  -69.3508   51.6109 C   0  0  0  0  0  0  0  0  0  0  0  0
  -34.8395  -69.3038   51.8913 C   0  0  0  0  0  0  0  0  0  0  0  0
  -34.0872  -68.3604   51.2438 C   0  0  0  0  0  0  0  0  0  0  0  0
  -39.3284  -62.8504   48.5131 C   0  0  0  0  0  0  0  0  0  0  0  0
  -39.8378  -62.5362   49.7870 O   0  0  0  0  0  0  0  0  0  0  0  0
  -40.7903  -62.8408   49.8463 H   0  0  0  0  0  0  0  0  0  0  0  0
 13 14  1  0  0  0
 14 15  2  0  0  0
 14 19  1  0  0  0
 15 16  1  0  0  0
 15  1  1  0  0  0
 16 17  2  0  0  0
 17 18  1  0  0  0
 18 19  2  0  0  0
  1  2  1  0  0  0
  1  9  1  0  0  0
  2  3  2  0  0  0
  2  4  1  0  0  0
  4  5  1  0  0  0
  4  8  1  0  0  0
  5  6  1  0  0  0
  5 12  1  0  0  0
  5 20  1  0  0  0
  6  7  1  0  0  0
  7  8  1  0  0  0
  7 11  1  0  0  0
  8  9  1  0  0  0
  9 10  2  0  0  0
 11 12  2  0  0  0
 20 21  1  0  0  0
 21 22  1  0  0  0
M  END
> <minimizedAffinity>
-6.75519

$$$$
67


 22 25  0  0  0  0  0  0  0  0999 V2000
  -39.5613  -67.3710   50.7918 N   0  0  0  0  0  0  0  0  0  0  0  0
  -38.3244  -67.0464   50.0557 C   0  0  0  0  0  0  0  0  0  0  0  0
  -38.7484  -65.9010   49.2608 C   0  0  0  0  0  0  0  0  0  0  0  0
  -38.6793  -64.6496   49.8961 O   0  0  0  0  0  0  0  0  0  0  0  0
  -39.3470  -63.9297   48.8698 C   0  0  0  0  0  0  0  0  0  0  0  0
  -40.6990  -64.6491   48.9712 C   0  0  0  0  0  0  0  0  0  0  0  0
  -40.2415  -66.0737   48.9329 C   0  0  0  0  0  0  0  0  0  0  0  0
  -40.6751  -66.9316   50.0235 C   0  0  0  0  0  0  0  0  0  0  0  0
  -41.8556  -67.2532   50.2714 O   0  0  0  0  0  0  0  0  0  0  0  0
  -38.5690  -64.3733   47.6758 C   0  0  0  0  0  0  0  0  0  0  0  0
  -38.0851  -65.5939   47.9975 C   0  0  0  0  0  0  0  0  0  0  0  0
  -37.9204  -70.0622   51.0807 Br  0  0  0  0  0  0  0  0  0  0  0  0
  -39.0118  -69.1926   52.3479 C   0  0  0  0  0  0  0  0  0  0  0  0
  -39.6657  -68.0081   52.0555 C   0  0  0  0  0  0  0  0  0  0  0  0
  -40.4342  -67.4797   53.0853 C   0  0  0  0  0  0  0  0  0  0  0  0
  -40.5578  -68.0689   54.3185 C   0  0  0  0  0  0  0  0  0  0  0  0
  -39.9071  -69.2313   54.5859 C   0  0  0  0  0  0  0  0  0  0  0  0
  -39.1366  -69.7927   53.6030 C   0  0  0  0  0  0  0  0  0  0  0  0
  -41.2137  -64.3053   50.3347 C   0  0  0  0  0  0  0  0  0  0  0  0
  -40.4680  -64.0604   51.2939 O   0  0  0  0  0  0  0  0  0  0  0  0
  -42.5884  -64.2610   50.5303 O   0  0  0  0  0  0  0  0  0  0  0  0
  -43.0963  -64.4321   51.8589 C   0  0  0  0  0  0  0  0  0  0  0  0
 12 13  1  0  0  0
 13 14  2  0  0  0
 13 18  1  0  0  0
 14 15  1  0  0  0
 14  1  1  0  0  0
 15 16  2  0  0  0
 16 17  1  0  0  0
 17 18  2  0  0  0
  1  2  1  0  0  0
  1  8  1  0  0  0
  2  3  1  0  0  0
  3  4  1  0  0  0
  3  7  1  0  0  0
  3 11  1  0  0  0
  4  5  1  0  0  0
  5  6  1  0  0  0
  5 10  1  0  0  0
  6  7  1  0  0  0
  6 19  1  0  0  0
  7  8  1  0  0  0
  8  9  2  0  0  0
 19 20  2  0  0  0
 19 21  1  0  0  0
 21 22  1  0  0  0
 10 11  2  0  0  0
M  END
> <minimizedAffinity>
-7.29857

$$$$
81


 22 25  0  0  0  0  0  0  0  0999 V2000
  -36.8741  -68.5104   50.5222 C   0  0  0  0  0  0  0  0  0  0  0  0
  -35.5400  -68.6786   50.5648 N   0  0  0  0  0  0  0  0  0  0  0  0
  -34.9384  -67.5554   50.1682 N   0  0  0  0  0  0  0  0  0  0  0  0
  -35.8807  -66.6405   49.8625 C   0  0  0  0  0  0  0  0  0  0  0  0
  -37.0587  -67.2513   50.0879 N   0  0  0  0  0  0  0  0  0  0  0  0
  -35.4891  -65.3904   49.4239 C   0  0  0  0  0  0  0  0  0  0  0  0
  -34.1615  -65.0389   49.2863 C   0  0  0  0  0  0  0  0  0  0  0  0
  -34.0615  -63.7690   48.8452 N   0  0  0  0  0  0  0  0  0  0  0  0
  -35.2891  -63.3088   48.7006 N   0  0  0  0  0  0  0  0  0  0  0  0
  -36.1978  -64.2689   49.0439 C   0  0  0  0  0  0  0  0  0  0  0  0
  -32.8543  -63.0080   48.5672 C   0  0  0  0  0  0  0  0  0  0  0  0
  -33.2536  -65.9804   49.6011 N   0  0  0  0  0  0  0  0  0  0  0  0
  -33.6461  -67.2087   50.0323 C   0  0  0  0  0  0  0  0  0  0  0  0
  -37.9312  -69.5172   50.8840 C   0  0  0  0  0  0  0  0  0  0  0  0
  -41.2274  -68.3375   54.9450 Br  0  0  0  0  0  0  0  0  0  0  0  0
  -40.3588  -68.4035   53.2577 C   0  0  0  0  0  0  0  0  0  0  0  0
  -39.2818  -69.1814   52.9202 C   0  0  0  0  0  0  0  0  0  0  0  0
  -39.0029  -68.9089   51.6379 N   0  0  0  0  0  0  0  0  0  0  0  0
  -39.8546  -68.0094   51.1859 N   0  0  0  0  0  0  0  0  0  0  0  0
  -40.7221  -67.6626   52.1639 C   0  0  0  0  0  0  0  0  0  0  0  0
  -41.8466  -66.6650   52.0506 C   0  0  0  0  0  0  0  0  0  0  0  0
  -38.5843  -70.1362   53.8401 C   0  0  0  0  0  0  0  0  0  0  0  0
 15 16  1  0  0  0
 16 17  2  0  0  0
 16 20  1  0  0  0
 17 18  1  0  0  0
 17 22  1  0  0  0
 18 19  1  0  0  0
 18 14  1  0  0  0
 19 20  2  0  0  0
 20 21  1  0  0  0
 14  1  1  0  0  0
  1  2  2  0  0  0
  1  5  1  0  0  0
  2  3  1  0  0  0
  3  4  1  0  0  0
  3 13  1  0  0  0
  4  5  2  0  0  0
  4  6  1  0  0  0
  6  7  2  0  0  0
  6 10  1  0  0  0
  7  8  1  0  0  0
  7 12  1  0  0  0
  8  9  1  0  0  0
  8 11  1  0  0  0
  9 10  2  0  0  0
 12 13  2  0  0  0
M  END
> <minimizedAffinity>
-7.59230

$$$$
85


 26 29  0  0  0  0  0  0  0  0999 V2000
  -39.2259  -67.6065   50.5579 C   0  0  0  0  0  0  0  0  0  0  0  0
  -38.0061  -68.2742   50.7891 C   0  0  0  0  0  0  0  0  0  0  0  0
  -37.6529  -69.1672   51.7530 N   0  0  0  0  0  0  0  0  0  0  0  0
  -36.4151  -69.4932   51.5358 O   0  0  0  0  0  0  0  0  0  0  0  0
  -35.9534  -68.8680   50.4979 N   0  0  0  0  0  0  0  0  0  0  0  0
  -36.9122  -68.0853   49.9863 C   0  0  0  0  0  0  0  0  0  0  0  0
  -36.9302  -67.2324   48.9014 C   0  0  0  0  0  0  0  0  0  0  0  0
  -38.1276  -66.5794   48.6782 C   0  0  0  0  0  0  0  0  0  0  0  0
  -39.2464  -66.7641   49.4882 C   0  0  0  0  0  0  0  0  0  0  0  0
  -35.8153  -67.0273   48.0686 N   0  0  0  0  0  0  0  0  0  0  0  0
  -35.7036  -67.8234   46.8493 C   0  0  0  0  0  0  0  0  0  0  0  0
  -34.3805  -67.6111   46.1667 C   0  0  0  0  0  0  0  0  0  0  0  0
  -33.3015  -67.4997   46.9799 O   0  0  0  0  0  0  0  0  0  0  0  0
  -33.4727  -66.9618   48.2219 C   0  0  0  0  0  0  0  0  0  0  0  0
  -34.7273  -66.1138   48.2458 C   0  0  0  0  0  0  0  0  0  0  0  0
  -40.8698  -66.9611   52.3237 C   0  0  0  0  0  0  0  0  0  0  0  0
  -40.4445  -65.7463   52.3495 O   0  0  0  0  0  0  0  0  0  0  0  0
  -40.2894  -67.8805   51.4544 N   0  0  0  0  0  0  0  0  0  0  0  0
  -40.7093  -68.8580   51.4808 H   0  0  0  0  0  0  0  0  0  0  0  0
  -44.1123  -65.6499   52.0199 Br  0  0  0  0  0  0  0  0  0  0  0  0
  -43.2541  -66.8346   53.2472 C   0  0  0  0  0  0  0  0  0  0  0  0
  -41.9752  -67.2871   53.2490 C   0  0  0  0  0  0  0  0  0  0  0  0
  -41.8191  -68.1382   54.3204 N   0  0  0  0  0  0  0  0  0  0  0  0
  -42.9724  -68.1851   54.9331 N   0  0  0  0  0  0  0  0  0  0  0  0
  -43.8963  -67.4280   54.3524 C   0  0  0  0  0  0  0  0  0  0  0  0
  -40.6161  -68.8367   54.6906 C   0  0  0  0  0  0  0  0  0  0  0  0
 20 21  1  0  0  0
 21 22  2  0  0  0
 21 25  1  0  0  0
 22 23  1  0  0  0
 22 16  1  0  0  0
 23 24  1  0  0  0
 23 26  1  0  0  0
 24 25  2  0  0  0
 16 17  2  0  0  0
 16 18  1  0  0  0
 18  1  1  0  0  0
  1  2  1  0  0  0
  1  9  2  0  0  0
  2  3  2  0  0  0
  2  6  1  0  0  0
  3  4  1  0  0  0
  4  5  1  0  0  0
  5  6  2  0  0  0
  6  7  1  0  0  0
  7  8  2  0  0  0
  7 10  1  0  0  0
  8  9  1  0  0  0
 10 11  1  0  0  0
 10 15  1  0  0  0
 11 12  1  0  0  0
 12 13  1  0  0  0
 13 14  1  0  0  0
 14 15  1  0  0  0
 18 19  1  0  0  0
M  END
> <minimizedAffinity>
-7.65837

$$$$
95


 26 29  0  0  0  0  0  0  0  0999 V2000
  -36.3105  -67.9118   48.7425 C   0  0  0  0  0  0  0  0  0  0  0  0
  -35.8225  -68.3700   47.6592 O   0  0  0  0  0  0  0  0  0  0  0  0
  -37.0079  -68.6293   49.6846 N   0  0  0  0  0  0  0  0  0  0  0  0
  -36.8830  -69.7594   48.9354 H   0  0  0  0  0  0  0  0  0  0  0  0
  -37.9564  -62.8303   48.2359 Br  0  0  0  0  0  0  0  0  0  0  0  0
  -36.7193  -64.1460   48.8036 C   0  0  0  0  0  0  0  0  0  0  0  0
  -36.9909  -65.4983   48.5637 C   0  0  0  0  0  0  0  0  0  0  0  0
  -36.0825  -66.4371   48.9813 C   0  0  0  0  0  0  0  0  0  0  0  0
  -34.9293  -66.0696   49.6227 C   0  0  0  0  0  0  0  0  0  0  0  0
  -34.6516  -64.7134   49.8646 C   0  0  0  0  0  0  0  0  0  0  0  0
  -35.5651  -63.7678   49.4448 C   0  0  0  0  0  0  0  0  0  0  0  0
  -34.0409  -67.0936   50.0323 N   0  0  0  0  0  0  0  0  0  0  0  0
  -32.9603  -67.4385   49.3589 N   0  0  0  0  0  0  0  0  0  0  0  0
  -32.3217  -68.4151   49.9673 N   0  0  0  0  0  0  0  0  0  0  0  0
  -32.9921  -68.7236   51.0654 N   0  0  0  0  0  0  0  0  0  0  0  0
  -34.0497  -67.9066   51.0990 C   0  0  0  0  0  0  0  0  0  0  0  0
  -37.7013  -69.3433   50.6207 C   0  0  0  0  0  0  0  0  0  0  0  0
  -38.7861  -68.5467   51.3267 C   0  0  0  0  0  0  0  0  0  0  0  0
  -39.2630  -68.8128   52.5623 N   0  0  0  0  0  0  0  0  0  0  0  0
  -40.2102  -67.9259   52.8934 C   0  0  0  0  0  0  0  0  0  0  0  0
  -40.3173  -67.0979   51.8426 N   0  0  0  0  0  0  0  0  0  0  0  0
  -39.4528  -67.4733   50.8886 N   0  0  0  0  0  0  0  0  0  0  0  0
  -40.8538  -67.9992   54.1359 C   0  0  0  0  0  0  0  0  0  0  0  0
  -40.5204  -68.9809   55.0272 C   0  0  0  0  0  0  0  0  0  0  0  0
  -39.5436  -69.8951   54.6854 C   0  0  0  0  0  0  0  0  0  0  0  0
  -38.9269  -69.7942   53.4468 C   0  0  0  0  0  0  0  0  0  0  0  0
  5  6  1  0  0  0
  6  7  2  0  0  0
  6 11  1  0  0  0
  7  8  1  0  0  0
  8  9  2  0  0  0
  8  1  1  0  0  0
  9 10  1  0  0  0
  9 12  1  0  0  0
 10 11  2  0  0  0
 12 13  1  0  0  0
 12 16  1  0  0  0
 13 14  2  0  0  0
 14 15  1  0  0  0
 15 16  2  0  0  0
  1  2  2  0  0  0
  1  3  1  0  0  0
  3 17  1  0  0  0
 17 18  1  0  0  0
 18 19  1  0  0  0
 18 22  2  0  0  0
 19 20  1  0  0  0
 19 26  1  0  0  0
 20 21  2  0  0  0
 20 23  1  0  0  0
 21 22  1  0  0  0
 23 24  2  0  0  0
 24 25  1  0  0  0
 25 26  2  0  0  0
  3  4  1  0  0  0
M  END
> <minimizedAffinity>
-8.24212

$$$$
106


 29 32  0  0  0  0  0  0  0  0999 V2000
  -43.4520  -66.9555   53.7830 C   0  0  0  0  0  0  0  0  0  0  0  0
  -42.3302  -67.5781   53.5482 C   0  0  0  0  0  0  0  0  0  0  0  0
  -41.5760  -67.4289   52.3948 O   0  0  0  0  0  0  0  0  0  0  0  0
  -40.4377  -68.2129   52.4188 C   0  0  0  0  0  0  0  0  0  0  0  0
  -40.3699  -68.9311   53.5910 C   0  0  0  0  0  0  0  0  0  0  0  0
  -39.3096  -69.7820   53.8217 C   0  0  0  0  0  0  0  0  0  0  0  0
  -38.3215  -69.9070   52.8683 C   0  0  0  0  0  0  0  0  0  0  0  0
  -38.4149  -69.1613   51.6767 C   0  0  0  0  0  0  0  0  0  0  0  0
  -39.4509  -68.3144   51.4279 C   0  0  0  0  0  0  0  0  0  0  0  0
  -37.3413  -69.3910   50.8015 O   0  0  0  0  0  0  0  0  0  0  0  0
  -41.5699  -68.5478   54.3424 C   0  0  0  0  0  0  0  0  0  0  0  0
  -41.9031  -68.9691   55.4721 O   0  0  0  0  0  0  0  0  0  0  0  0
  -47.7076  -65.6572   50.7388 Br  0  0  0  0  0  0  0  0  0  0  0  0
  -45.9907  -65.3708   51.5126 C   0  0  0  0  0  0  0  0  0  0  0  0
  -45.3573  -66.2392   52.3543 C   0  0  0  0  0  0  0  0  0  0  0  0
  -44.1140  -66.0092   52.9011 C   0  0  0  0  0  0  0  0  0  0  0  0
  -43.4843  -64.8090   52.5575 C   0  0  0  0  0  0  0  0  0  0  0  0
  -44.0713  -63.9012   51.7197 C   0  0  0  0  0  0  0  0  0  0  0  0
  -45.3275  -64.1881   51.1986 C   0  0  0  0  0  0  0  0  0  0  0  0
  -42.2344  -64.5562   53.0884 O   0  0  0  0  0  0  0  0  0  0  0  0
  -41.1368  -64.3304   52.2433 C   0  0  0  0  0  0  0  0  0  0  0  0
  -39.5880  -67.5155   50.2412 C   0  0  0  0  0  0  0  0  0  0  0  0
  -38.7475  -66.4266   49.9527 N   0  0  0  0  0  0  0  0  0  0  0  0
  -37.6289  -66.7083   49.0947 C   0  0  0  0  0  0  0  0  0  0  0  0
  -37.9654  -66.7104   47.6239 C   0  0  0  0  0  0  0  0  0  0  0  0
  -39.3208  -66.5614   47.3643 O   0  0  0  0  0  0  0  0  0  0  0  0
  -39.6972  -65.3496   47.9334 C   0  0  0  0  0  0  0  0  0  0  0  0
  -39.4884  -65.2733   49.4101 C   0  0  0  0  0  0  0  0  0  0  0  0
  -38.3669  -66.0444   50.8428 H   0  0  0  0  0  0  0  0  0  0  0  0
 13 14  1  0  0  0
 14 15  2  0  0  0
 14 19  1  0  0  0
 15 16  1  0  0  0
 16 17  2  0  0  0
 16  1  1  0  0  0
 17 18  1  0  0  0
 17 20  1  0  0  0
 18 19  2  0  0  0
 20 21  1  0  0  0
  1  2  2  0  0  0
  2  3  1  0  0  0
  2 11  1  0  0  0
  3  4  1  0  0  0
  4  5  2  0  0  0
  4  9  1  0  0  0
  5  6  1  0  0  0
  5 11  1  0  0  0
  6  7  2  0  0  0
  7  8  1  0  0  0
  8  9  2  0  0  0
  8 10  1  0  0  0
  9 22  1  0  0  0
 22 23  1  0  0  0
 23 24  1  0  0  0
 23 28  1  0  0  0
 24 25  1  0  0  0
 25 26  1  0  0  0
 26 27  1  0  0  0
 27 28  1  0  0  0
 11 12  2  0  0  0
 23 29  1  0  0  0
M  CHG 1  10  -1
M  CHG 1  23   1
M  END
> <minimizedAffinity>
-8.96188

$$$$
107


 31 34  0  0  0  0  0  0  0  0999 V2000
  -39.1453  -66.0815   49.0401 C   0  0  0  0  0  0  0  0  0  0  0  0
  -38.2014  -66.9740   49.4093 N   0  0  0  0  0  0  0  0  0  0  0  0
  -36.9098  -66.6352   49.4945 C   0  0  0  0  0  0  0  0  0  0  0  0
  -36.5594  -65.3730   49.2023 N   0  0  0  0  0  0  0  0  0  0  0  0
  -37.4562  -64.4230   48.8247 C   0  0  0  0  0  0  0  0  0  0  0  0
  -38.7509  -64.8392   48.7594 N   0  0  0  0  0  0  0  0  0  0  0  0
  -35.9165  -67.5744   49.8818 N   0  0  0  0  0  0  0  0  0  0  0  0
  -36.2476  -68.8625   50.4499 C   0  0  0  0  0  0  0  0  0  0  0  0
  -35.3298  -69.2036   51.6142 C   0  0  0  0  0  0  0  0  0  0  0  0
  -33.9986  -68.9204   51.2884 O   0  0  0  0  0  0  0  0  0  0  0  0
  -33.8136  -67.5858   51.0178 C   0  0  0  0  0  0  0  0  0  0  0  0
  -34.5143  -67.2633   49.7157 C   0  0  0  0  0  0  0  0  0  0  0  0
  -37.0825  -63.1017   48.5197 N   0  0  0  0  0  0  0  0  0  0  0  0
  -37.9702  -62.2167   47.8262 C   0  0  0  0  0  0  0  0  0  0  0  0
  -37.2031  -61.6655   46.6261 C   0  0  0  0  0  0  0  0  0  0  0  0
  -36.0513  -61.0761   47.1178 O   0  0  0  0  0  0  0  0  0  0  0  0
  -35.1696  -61.9839   47.6552 C   0  0  0  0  0  0  0  0  0  0  0  0
  -35.7889  -62.6164   48.9018 C   0  0  0  0  0  0  0  0  0  0  0  0
  -40.5262  -66.4076   48.9398 N   0  0  0  0  0  0  0  0  0  0  0  0
  -41.0288  -66.3638   48.0121 H   0  0  0  0  0  0  0  0  0  0  0  0
  -41.4239  -66.0995   51.1031 C   0  0  0  0  0  0  0  0  0  0  0  0
  -41.2911  -66.7987   50.0399 N   0  0  0  0  0  0  0  0  0  0  0  0
  -46.1836  -66.2681   53.5081 Br  0  0  0  0  0  0  0  0  0  0  0  0
  -44.3200  -66.6536   53.4023 C   0  0  0  0  0  0  0  0  0  0  0  0
  -43.5712  -66.2476   52.3201 C   0  0  0  0  0  0  0  0  0  0  0  0
  -42.2277  -66.5244   52.2437 C   0  0  0  0  0  0  0  0  0  0  0  0
  -41.6487  -67.2207   53.2823 C   0  0  0  0  0  0  0  0  0  0  0  0
  -42.3969  -67.6390   54.3855 C   0  0  0  0  0  0  0  0  0  0  0  0
  -43.7513  -67.3564   54.4570 C   0  0  0  0  0  0  0  0  0  0  0  0
  -40.2886  -67.4879   53.1792 O   0  0  0  0  0  0  0  0  0  0  0  0
  -39.7537  -68.7808   53.0164 C   0  0  0  0  0  0  0  0  0  0  0  0
 23 24  1  0  0  0
 24 25  2  0  0  0
 24 29  1  0  0  0
 25 26  1  0  0  0
 26 27  2  0  0  0
 26 21  1  0  0  0
 27 28  1  0  0  0
 27 30  1  0  0  0
 28 29  2  0  0  0
 30 31  1  0  0  0
 21 22  2  0  0  0
 22 19  1  0  0  0
 19  1  1  0  0  0
  1  2  2  0  0  0
  1  6  1  0  0  0
  2  3  1  0  0  0
  3  4  2  0  0  0
  3  7  1  0  0  0
  4  5  1  0  0  0
  5  6  2  0  0  0
  5 13  1  0  0  0
 13 14  1  0  0  0
 13 18  1  0  0  0
 14 15  1  0  0  0
 15 16  1  0  0  0
 16 17  1  0  0  0
 17 18  1  0  0  0
  7  8  1  0  0  0
  7 12  1  0  0  0
  8  9  1  0  0  0
  9 10  1  0  0  0
 10 11  1  0  0  0
 11 12  1  0  0  0
 19 20  1  0  0  0
M  END
> <minimizedAffinity>
-7.97133

$$$$
111


 29 32  0  0  0  0  0  0  0  0999 V2000
  -40.6938  -65.1138   51.0203 C   0  0  0  0  0  0  0  0  0  0  0  0
  -41.0938  -65.9845   51.9214 N   0  0  0  0  0  0  0  0  0  0  0  0
  -42.0819  -65.4460   52.7039 C   0  0  0  0  0  0  0  0  0  0  0  0
  -42.2797  -64.1860   52.2540 N   0  0  0  0  0  0  0  0  0  0  0  0
  -41.4739  -63.9762   51.2694 N   0  0  0  0  0  0  0  0  0  0  0  0
  -42.4753  -66.3416   53.6123 N   0  0  0  0  0  0  0  0  0  0  0  0
  -41.7398  -67.4481   53.4171 C   0  0  0  0  0  0  0  0  0  0  0  0
  -40.8590  -67.2475   52.3602 C   0  0  0  0  0  0  0  0  0  0  0  0
  -39.9983  -68.1658   51.9648 N   0  0  0  0  0  0  0  0  0  0  0  0
  -40.0098  -69.3551   52.6446 C   0  0  0  0  0  0  0  0  0  0  0  0
  -39.2342  -70.2997   52.3504 O   0  0  0  0  0  0  0  0  0  0  0  0
  -40.8533  -69.5869   53.6724 N   0  0  0  0  0  0  0  0  0  0  0  0
  -41.7174  -68.6628   54.0753 C   0  0  0  0  0  0  0  0  0  0  0  0
  -42.5270  -68.8175   55.0246 O   0  0  0  0  0  0  0  0  0  0  0  0
  -38.9865  -68.0780   50.9557 C   0  0  0  0  0  0  0  0  0  0  0  0
  -40.8506  -70.4974   54.1784 H   0  0  0  0  0  0  0  0  0  0  0  0
  -35.6774  -65.3178   49.1613 Br  0  0  0  0  0  0  0  0  0  0  0  0
  -37.5498  -65.0598   48.9061 C   0  0  0  0  0  0  0  0  0  0  0  0
  -38.3994  -65.1761   49.9676 C   0  0  0  0  0  0  0  0  0  0  0  0
  -39.7521  -65.0206   49.9413 C   0  0  0  0  0  0  0  0  0  0  0  0
  -40.2451  -64.7100   48.6529 C   0  0  0  0  0  0  0  0  0  0  0  0
  -39.4270  -64.5825   47.5559 C   0  0  0  0  0  0  0  0  0  0  0  0
  -38.0574  -64.7584   47.6769 C   0  0  0  0  0  0  0  0  0  0  0  0
  -41.6069  -64.5255   48.4888 O   0  0  0  0  0  0  0  0  0  0  0  0
  -42.1856  -63.3998   47.9057 C   0  0  0  0  0  0  0  0  0  0  0  0
  -43.4866  -66.1813   54.6155 C   0  0  0  0  0  0  0  0  0  0  0  0
  -44.8399  -66.0439   53.9495 C   0  0  0  0  0  0  0  0  0  0  0  0
  -45.1966  -67.2752   53.4362 O   0  0  0  0  0  0  0  0  0  0  0  0
  -46.5849  -67.4834   53.5068 C   0  0  0  0  0  0  0  0  0  0  0  0
 17 18  1  0  0  0
 18 19  2  0  0  0
 18 23  1  0  0  0
 19 20  1  0  0  0
 20 21  2  0  0  0
 20  1  1  0  0  0
 21 22  1  0  0  0
 21 24  1  0  0  0
 22 23  2  0  0  0
 24 25  1  0  0  0
  1  2  1  0  0  0
  1  5  2  0  0  0
  2  3  1  0  0  0
  2  8  1  0  0  0
  3  4  2  0  0  0
  3  6  1  0  0  0
  4  5  1  0  0  0
  6  7  1  0  0  0
  6 26  1  0  0  0
  7  8  2  0  0  0
  7 13  1  0  0  0
  8  9  1  0  0  0
  9 10  1  0  0  0
  9 15  1  0  0  0
 10 11  2  0  0  0
 10 12  1  0  0  0
 12 13  1  0  0  0
 13 14  2  0  0  0
 26 27  1  0  0  0
 27 28  1  0  0  0
 28 29  1  0  0  0
 12 16  1  0  0  0
M  END
> <minimizedAffinity>
-7.84032

$$$$
127


 29 32  0  0  0  0  0  0  0  0999 V2000
  -37.8414  -67.7049   50.4072 N   0  0  0  0  0  0  0  0  0  0  0  0
  -38.3511  -66.5327   49.7988 C   0  0  0  0  0  0  0  0  0  0  0  0
  -37.3464  -65.5432   49.3478 C   0  0  0  0  0  0  0  0  0  0  0  0
  -36.3533  -66.1539   48.5235 N   0  0  0  0  0  0  0  0  0  0  0  0
  -36.1568  -67.5715   48.6246 C   0  0  0  0  0  0  0  0  0  0  0  0
  -36.5710  -68.1547   49.9557 C   0  0  0  0  0  0  0  0  0  0  0  0
  -35.5404  -65.4047   47.6323 C   0  0  0  0  0  0  0  0  0  0  0  0
  -34.3957  -64.9086   48.0980 C   0  0  0  0  0  0  0  0  0  0  0  0
  -33.7242  -64.9327   49.3449 N   0  0  0  0  0  0  0  0  0  0  0  0
  -32.5357  -64.1955   49.1394 N   0  0  0  0  0  0  0  0  0  0  0  0
  -32.5019  -63.7422   47.7998 C   0  0  0  0  0  0  0  0  0  0  0  0
  -33.5785  -64.1360   47.1368 C   0  0  0  0  0  0  0  0  0  0  0  0
  -34.0320  -63.9592   45.7992 N   0  0  0  0  0  0  0  0  0  0  0  0
  -35.1476  -64.4608   45.3988 C   0  0  0  0  0  0  0  0  0  0  0  0
  -35.9671  -65.2053   46.2687 N   0  0  0  0  0  0  0  0  0  0  0  0
  -31.4307  -62.9313   47.1621 C   0  0  0  0  0  0  0  0  0  0  0  0
  -34.1638  -65.5735   50.5605 C   0  0  0  0  0  0  0  0  0  0  0  0
  -31.8416  -64.0502   49.9020 H   0  0  0  0  0  0  0  0  0  0  0  0
  -36.8709  -65.6270   45.9937 H   0  0  0  0  0  0  0  0  0  0  0  0
  -38.7785  -68.7032   50.7453 C   0  0  0  0  0  0  0  0  0  0  0  0
  -38.8424  -69.0065   52.1761 C   0  0  0  0  0  0  0  0  0  0  0  0
  -37.9341  -69.7058   52.6941 O   0  0  0  0  0  0  0  0  0  0  0  0
  -43.2528  -65.9984   52.3146 Br  0  0  0  0  0  0  0  0  0  0  0  0
  -41.9624  -67.1491   53.1089 C   0  0  0  0  0  0  0  0  0  0  0  0
  -40.8885  -67.6597   52.3911 C   0  0  0  0  0  0  0  0  0  0  0  0
  -39.9586  -68.4894   52.9610 C   0  0  0  0  0  0  0  0  0  0  0  0
  -40.0914  -68.8284   54.2875 C   0  0  0  0  0  0  0  0  0  0  0  0
  -41.1501  -68.3273   55.0020 C   0  0  0  0  0  0  0  0  0  0  0  0
  -42.0998  -67.4853   54.4379 C   0  0  0  0  0  0  0  0  0  0  0  0
 23 24  1  0  0  0
 24 25  2  0  0  0
 24 29  1  0  0  0
 25 26  1  0  0  0
 26 27  2  0  0  0
 26 21  1  0  0  0
 27 28  1  0  0  0
 28 29  2  0  0  0
 21 22  2  0  0  0
 21 20  1  0  0  0
 20  1  1  0  0  0
  1  2  1  0  0  0
  1  6  1  0  0  0
  2  3  1  0  0  0
  3  4  1  0  0  0
  4  5  1  0  0  0
  4  7  1  0  0  0
  5  6  1  0  0  0
  7  8  2  0  0  0
  7 15  1  0  0  0
  8  9  1  0  0  0
  8 12  1  0  0  0
  9 10  1  0  0  0
  9 17  1  0  0  0
 10 11  1  0  0  0
 11 12  2  0  0  0
 11 16  1  0  0  0
 12 13  1  0  0  0
 13 14  2  0  0  0
 14 15  1  0  0  0
 10 18  1  0  0  0
 15 19  1  0  0  0
M  END
> <minimizedAffinity>
-7.95583

$$$$
129


 31 34  0  0  0  0  0  0  0  0999 V2000
  -43.6430  -65.0183   52.7458 C   0  0  0  0  0  0  0  0  0  0  0  0
  -42.7733  -64.0942   52.8127 O   0  0  0  0  0  0  0  0  0  0  0  0
  -44.7670  -64.8923   51.8797 N   0  0  0  0  0  0  0  0  0  0  0  0
  -45.8619  -65.8287   51.8875 C   0  0  0  0  0  0  0  0  0  0  0  0
  -47.0461  -64.9692   52.3911 C   0  0  0  0  0  0  0  0  0  0  0  0
  -47.3982  -64.0861   51.2243 C   0  0  0  0  0  0  0  0  0  0  0  0
  -48.2434  -63.0178   51.7550 N   0  0  0  0  0  0  0  0  0  0  0  0
  -49.3994  -63.4943   52.4177 C   0  0  0  0  0  0  0  0  0  0  0  0
  -50.3497  -64.2399   51.4986 C   0  0  0  0  0  0  0  0  0  0  0  0
  -49.6275  -64.9821   50.4485 C   0  0  0  0  0  0  0  0  0  0  0  0
  -50.1123  -65.8018   49.5008 N   0  0  0  0  0  0  0  0  0  0  0  0
  -49.0624  -66.2361   48.7693 C   0  0  0  0  0  0  0  0  0  0  0  0
  -47.9348  -65.6773   49.2777 N   0  0  0  0  0  0  0  0  0  0  0  0
  -48.2543  -64.8937   50.3259 C   0  0  0  0  0  0  0  0  0  0  0  0
  -46.2432  -63.4590   50.5265 C   0  0  0  0  0  0  0  0  0  0  0  0
  -44.8630  -63.8092   50.9678 C   0  0  0  0  0  0  0  0  0  0  0  0
  -48.4595  -62.2876   51.0292 H   0  0  0  0  0  0  0  0  0  0  0  0
  -47.0202  -65.8975   48.8349 H   0  0  0  0  0  0  0  0  0  0  0  0
  -43.4322  -66.1772   53.6011 C   0  0  0  0  0  0  0  0  0  0  0  0
  -43.5637  -65.7695   55.0599 C   0  0  0  0  0  0  0  0  0  0  0  0
  -41.8487  -68.0671   53.9713 C   0  0  0  0  0  0  0  0  0  0  0  0
  -42.3615  -68.6751   54.8947 O   0  0  0  0  0  0  0  0  0  0  0  0
  -42.2696  -66.9270   53.2934 N   0  0  0  0  0  0  0  0  0  0  0  0
  -41.7234  -66.5970   52.4416 H   0  0  0  0  0  0  0  0  0  0  0  0
  -38.1290  -67.7823   50.1798 Br  0  0  0  0  0  0  0  0  0  0  0  0
  -38.8501  -68.5525   51.7918 C   0  0  0  0  0  0  0  0  0  0  0  0
  -40.0258  -68.0638   52.3101 C   0  0  0  0  0  0  0  0  0  0  0  0
  -40.5318  -68.6115   53.4691 C   0  0  0  0  0  0  0  0  0  0  0  0
  -39.8835  -69.6266   54.0966 C   0  0  0  0  0  0  0  0  0  0  0  0
  -38.7166  -70.1008   53.5633 C   0  0  0  0  0  0  0  0  0  0  0  0
  -38.1565  -69.5817   52.3941 C   0  0  0  0  0  0  0  0  0  0  0  0
 25 26  1  0  0  0
 26 27  2  0  0  0
 26 31  1  0  0  0
 27 28  1  0  0  0
 28 29  2  0  0  0
 28 21  1  0  0  0
 29 30  1  0  0  0
 30 31  2  0  0  0
 21 22  2  0  0  0
 21 23  1  0  0  0
 23 19  1  0  0  0
 19 20  1  0  0  0
 19  1  1  0  0  0
  1  2  2  0  0  0
  1  3  1  0  0  0
  3  4  1  0  0  0
  3 16  1  0  0  0
  4  5  1  0  0  0
  5  6  1  0  0  0
  6  7  1  0  0  0
  6 14  1  0  0  0
  6 15  1  0  0  0
  7  8  1  0  0  0
  8  9  1  0  0  0
  9 10  1  0  0  0
 10 11  1  0  0  0
 10 14  2  0  0  0
 11 12  2  0  0  0
 12 13  1  0  0  0
 13 14  1  0  0  0
 15 16  1  0  0  0
 23 24  1  0  0  0
  7 17  1  0  0  0
 13 18  1  0  0  0
M  END
> <minimizedAffinity>
-8.66485

$$$$
130


 30 33  0  0  0  0  0  0  0  0999 V2000
  -38.1577  -66.0206   48.3614 C   0  0  0  0  0  0  0  0  0  0  0  0
  -38.4150  -66.7914   47.3706 O   0  0  0  0  0  0  0  0  0  0  0  0
  -37.1637  -65.0360   48.2819 N   0  0  0  0  0  0  0  0  0  0  0  0
  -36.8468  -64.1626   49.3662 C   0  0  0  0  0  0  0  0  0  0  0  0
  -35.3808  -63.8437   49.4455 C   0  0  0  0  0  0  0  0  0  0  0  0
  -34.4750  -64.8433   48.7603 C   0  0  0  0  0  0  0  0  0  0  0  0
  -33.1839  -64.1702   48.7210 N   0  0  0  0  0  0  0  0  0  0  0  0
  -32.0829  -64.9578   48.3165 C   0  0  0  0  0  0  0  0  0  0  0  0
  -32.2297  -66.4345   48.3616 C   0  0  0  0  0  0  0  0  0  0  0  0
  -33.2201  -66.8612   49.3987 C   0  0  0  0  0  0  0  0  0  0  0  0
  -33.2519  -67.9105   50.2191 N   0  0  0  0  0  0  0  0  0  0  0  0
  -34.3868  -67.7809   50.9378 C   0  0  0  0  0  0  0  0  0  0  0  0
  -35.0515  -66.6649   50.5665 N   0  0  0  0  0  0  0  0  0  0  0  0
  -34.3212  -66.0641   49.5828 C   0  0  0  0  0  0  0  0  0  0  0  0
  -34.9170  -65.2138   47.3679 C   0  0  0  0  0  0  0  0  0  0  0  0
  -36.3624  -64.8532   47.0771 C   0  0  0  0  0  0  0  0  0  0  0  0
  -33.3445  -63.3534   48.0640 H   0  0  0  0  0  0  0  0  0  0  0  0
  -35.9487  -66.3371   50.9618 H   0  0  0  0  0  0  0  0  0  0  0  0
  -39.0035  -66.2705   49.5838 C   0  0  0  0  0  0  0  0  0  0  0  0
  -38.2803  -68.5570   50.8434 C   0  0  0  0  0  0  0  0  0  0  0  0
  -37.4213  -69.4342   50.4767 O   0  0  0  0  0  0  0  0  0  0  0  0
  -38.6337  -67.4405   50.2283 N   0  0  0  0  0  0  0  0  0  0  0  0
  -37.7551  -67.7154   49.1955 H   0  0  0  0  0  0  0  0  0  0  0  0
  -42.2206  -67.6035   54.3168 Br  0  0  0  0  0  0  0  0  0  0  0  0
  -40.6617  -68.5262   53.7887 C   0  0  0  0  0  0  0  0  0  0  0  0
  -40.0759  -68.2343   52.5664 C   0  0  0  0  0  0  0  0  0  0  0  0
  -38.9468  -68.8895   52.1521 C   0  0  0  0  0  0  0  0  0  0  0  0
  -38.3446  -69.8510   52.9068 C   0  0  0  0  0  0  0  0  0  0  0  0
  -38.9286  -70.1509   54.1415 C   0  0  0  0  0  0  0  0  0  0  0  0
  -40.0677  -69.4914   54.5637 C   0  0  0  0  0  0  0  0  0  0  0  0
 24 25  1  0  0  0
 25 26  2  0  0  0
 25 30  1  0  0  0
 26 27  1  0  0  0
 27 28  2  0  0  0
 27 20  1  0  0  0
 28 29  1  0  0  0
 29 30  2  0  0  0
 20 21  2  0  0  0
 20 22  1  0  0  0
 22 19  1  0  0  0
 19  1  1  0  0  0
  1  2  2  0  0  0
  1  3  1  0  0  0
  3  4  1  0  0  0
  3 16  1  0  0  0
  4  5  1  0  0  0
  5  6  1  0  0  0
  6  7  1  0  0  0
  6 14  1  0  0  0
  6 15  1  0  0  0
  7  8  1  0  0  0
  8  9  1  0  0  0
  9 10  1  0  0  0
 10 11  1  0  0  0
 10 14  2  0  0  0
 11 12  2  0  0  0
 12 13  1  0  0  0
 13 14  1  0  0  0
 15 16  1  0  0  0
 22 23  1  0  0  0
  7 17  1  0  0  0
 13 18  1  0  0  0
M  END
> <minimizedAffinity>
-8.89672

$$$$
131


 30 33  0  0  0  0  0  0  0  0999 V2000
  -35.9110  -68.9974   50.9342 C   0  0  0  0  0  0  0  0  0  0  0  0
  -35.1644  -69.7766   51.5760 O   0  0  0  0  0  0  0  0  0  0  0  0
  -35.4251  -67.7363   50.5556 N   0  0  0  0  0  0  0  0  0  0  0  0
  -36.2227  -66.7881   49.8181 C   0  0  0  0  0  0  0  0  0  0  0  0
  -35.5500  -66.5992   48.4758 C   0  0  0  0  0  0  0  0  0  0  0  0
  -34.0854  -66.2926   48.6792 C   0  0  0  0  0  0  0  0  0  0  0  0
  -33.3169  -67.3611   48.0768 N   0  0  0  0  0  0  0  0  0  0  0  0
  -31.9103  -67.1588   48.0729 C   0  0  0  0  0  0  0  0  0  0  0  0
  -31.4246  -65.7837   47.7941 C   0  0  0  0  0  0  0  0  0  0  0  0
  -32.4847  -64.8117   47.4539 C   0  0  0  0  0  0  0  0  0  0  0  0
  -32.4691  -63.6341   46.7572 N   0  0  0  0  0  0  0  0  0  0  0  0
  -33.7241  -63.1688   46.7632 C   0  0  0  0  0  0  0  0  0  0  0  0
  -34.5088  -64.0231   47.4400 N   0  0  0  0  0  0  0  0  0  0  0  0
  -33.7659  -65.0658   47.8888 C   0  0  0  0  0  0  0  0  0  0  0  0
  -33.6877  -66.0954   50.1064 C   0  0  0  0  0  0  0  0  0  0  0  0
  -34.0834  -67.3434   50.9018 C   0  0  0  0  0  0  0  0  0  0  0  0
  -33.5176  -68.2498   48.6066 H   0  0  0  0  0  0  0  0  0  0  0  0
  -31.6004  -63.2120   46.3160 H   0  0  0  0  0  0  0  0  0  0  0  0
  -37.2805  -69.4831   50.6187 C   0  0  0  0  0  0  0  0  0  0  0  0
  -39.3105  -68.4481   51.6511 C   0  0  0  0  0  0  0  0  0  0  0  0
  -39.5083  -67.8518   50.5615 O   0  0  0  0  0  0  0  0  0  0  0  0
  -38.1832  -69.2965   51.7343 N   0  0  0  0  0  0  0  0  0  0  0  0
  -37.9990  -69.7998   52.6244 H   0  0  0  0  0  0  0  0  0  0  0  0
  -43.5084  -65.8597   53.6645 Br  0  0  0  0  0  0  0  0  0  0  0  0
  -42.1250  -67.1465   53.7941 C   0  0  0  0  0  0  0  0  0  0  0  0
  -41.2623  -67.3201   52.7268 C   0  0  0  0  0  0  0  0  0  0  0  0
  -40.2334  -68.2427   52.7581 C   0  0  0  0  0  0  0  0  0  0  0  0
  -40.0813  -69.0048   53.9076 C   0  0  0  0  0  0  0  0  0  0  0  0
  -40.9423  -68.8272   54.9646 C   0  0  0  0  0  0  0  0  0  0  0  0
  -41.9725  -67.9133   54.9504 C   0  0  0  0  0  0  0  0  0  0  0  0
 24 25  1  0  0  0
 25 26  2  0  0  0
 25 30  1  0  0  0
 26 27  1  0  0  0
 27 28  2  0  0  0
 27 20  1  0  0  0
 28 29  1  0  0  0
 29 30  2  0  0  0
 20 21  2  0  0  0
 20 22  1  0  0  0
 22 19  1  0  0  0
 19  1  1  0  0  0
  1  2  2  0  0  0
  1  3  1  0  0  0
  3  4  1  0  0  0
  3 16  1  0  0  0
  4  5  1  0  0  0
  5  6  1  0  0  0
  6  7  1  0  0  0
  6 14  1  0  0  0
  6 15  1  0  0  0
  7  8  1  0  0  0
  8  9  1  0  0  0
  9 10  1  0  0  0
 10 11  1  0  0  0
 10 14  2  0  0  0
 11 12  1  0  0  0
 12 13  2  0  0  0
 13 14  1  0  0  0
 15 16  1  0  0  0
 22 23  1  0  0  0
  7 17  1  0  0  0
 11 18  1  0  0  0
M  END
> <minimizedAffinity>
-8.59742

$$$$
136


 30 33  0  0  0  0  0  0  0  0999 V2000
  -45.7470  -66.7604   53.3633 C   0  0  0  0  0  0  0  0  0  0  0  0
  -44.5019  -67.3523   53.9951 C   0  0  0  0  0  0  0  0  0  0  0  0
  -43.4498  -66.9351   53.0889 N   0  0  0  0  0  0  0  0  0  0  0  0
  -43.9506  -65.9899   52.1118 C   0  0  0  0  0  0  0  0  0  0  0  0
  -45.2194  -65.4707   52.8015 C   0  0  0  0  0  0  0  0  0  0  0  0
  -42.9577  -64.9314   51.9355 C   0  0  0  0  0  0  0  0  0  0  0  0
  -43.2587  -63.7341   52.0490 O   0  0  0  0  0  0  0  0  0  0  0  0
  -41.6273  -65.3152   51.6271 N   0  0  0  0  0  0  0  0  0  0  0  0
  -41.1438  -66.6099   52.0509 C   0  0  0  0  0  0  0  0  0  0  0  0
  -42.0607  -67.2833   52.9979 C   0  0  0  0  0  0  0  0  0  0  0  0
  -41.6216  -68.1906   53.7526 O   0  0  0  0  0  0  0  0  0  0  0  0
  -40.9708  -64.6951   51.1012 H   0  0  0  0  0  0  0  0  0  0  0  0
  -47.8554  -67.4894   54.3662 C   0  0  0  0  0  0  0  0  0  0  0  0
  -47.8550  -68.4662   53.5299 O   0  0  0  0  0  0  0  0  0  0  0  0
  -46.7971  -66.5587   54.3454 N   0  0  0  0  0  0  0  0  0  0  0  0
  -46.7943  -65.7716   55.0085 H   0  0  0  0  0  0  0  0  0  0  0  0
  -50.4724  -69.6506   58.4574 Br  0  0  0  0  0  0  0  0  0  0  0  0
  -50.1990  -68.2812   57.1491 C   0  0  0  0  0  0  0  0  0  0  0  0
  -49.1649  -68.3761   56.2596 C   0  0  0  0  0  0  0  0  0  0  0  0
  -48.9589  -67.3866   55.3059 C   0  0  0  0  0  0  0  0  0  0  0  0
  -49.8118  -66.3277   55.2877 C   0  0  0  0  0  0  0  0  0  0  0  0
  -50.8569  -66.2407   56.1940 C   0  0  0  0  0  0  0  0  0  0  0  0
  -51.0589  -67.2204   57.1346 C   0  0  0  0  0  0  0  0  0  0  0  0
  -40.7747  -67.5020   50.8848 C   0  0  0  0  0  0  0  0  0  0  0  0
  -39.3818  -67.9762   50.9342 C   0  0  0  0  0  0  0  0  0  0  0  0
  -38.4359  -67.4205   50.0918 C   0  0  0  0  0  0  0  0  0  0  0  0
  -37.1322  -67.8582   50.1318 C   0  0  0  0  0  0  0  0  0  0  0  0
  -36.7050  -68.8516   50.9924 C   0  0  0  0  0  0  0  0  0  0  0  0
  -37.6454  -69.4075   51.8332 C   0  0  0  0  0  0  0  0  0  0  0  0
  -38.9589  -68.9807   51.8071 C   0  0  0  0  0  0  0  0  0  0  0  0
 17 18  1  0  0  0
 18 19  2  0  0  0
 18 23  1  0  0  0
 19 20  1  0  0  0
 20 21  2  0  0  0
 20 13  1  0  0  0
 21 22  1  0  0  0
 22 23  2  0  0  0
 13 14  2  0  0  0
 13 15  1  0  0  0
 15  1  1  0  0  0
  1  2  1  0  0  0
  1  5  1  0  0  0
  2  3  1  0  0  0
  3  4  1  0  0  0
  3 10  1  0  0  0
  4  5  1  0  0  0
  4  6  1  0  0  0
  6  7  2  0  0  0
  6  8  1  0  0  0
  8  9  1  0  0  0
  9 10  1  0  0  0
  9 24  1  0  0  0
 10 11  2  0  0  0
 24 25  1  0  0  0
 25 26  2  0  0  0
 25 30  1  0  0  0
 26 27  1  0  0  0
 27 28  2  0  0  0
 28 29  1  0  0  0
 29 30  2  0  0  0
 15 16  1  0  0  0
  8 12  1  0  0  0
M  END
> <minimizedAffinity>
-8.44050

$$$$
137


 25 28  0  0  0  0  0  0  0  0999 V2000
  -37.1258  -69.3907   51.4526 C   0  0  0  0  0  0  0  0  0  0  0  0
  -35.7474  -68.8970   52.0283 C   0  0  0  0  0  0  0  0  0  0  0  0
  -35.0760  -68.3769   50.8862 N   0  0  0  0  0  0  0  0  0  0  0  0
  -36.0566  -68.0662   49.8563 C   0  0  0  0  0  0  0  0  0  0  0  0
  -37.3588  -68.1467   50.5414 C   0  0  0  0  0  0  0  0  0  0  0  0
  -35.7157  -66.7963   49.1953 C   0  0  0  0  0  0  0  0  0  0  0  0
  -36.6226  -65.9989   48.8986 O   0  0  0  0  0  0  0  0  0  0  0  0
  -34.3698  -66.4847   48.8989 N   0  0  0  0  0  0  0  0  0  0  0  0
  -33.3171  -66.9622   49.7678 C   0  0  0  0  0  0  0  0  0  0  0  0
  -32.1247  -67.2080   48.8655 C   0  0  0  0  0  0  0  0  0  0  0  0
  -32.5547  -66.7329   47.5220 C   0  0  0  0  0  0  0  0  0  0  0  0
  -33.6839  -65.7430   47.8458 C   0  0  0  0  0  0  0  0  0  0  0  0
  -33.7134  -68.1134   50.5720 C   0  0  0  0  0  0  0  0  0  0  0  0
  -32.8228  -68.9198   51.0153 O   0  0  0  0  0  0  0  0  0  0  0  0
  -38.9582  -69.9034   53.3696 C   0  0  0  0  0  0  0  0  0  0  0  0
  -39.0003  -70.8418   54.2238 O   0  0  0  0  0  0  0  0  0  0  0  0
  -38.0280  -69.6398   52.3948 N   0  0  0  0  0  0  0  0  0  0  0  0
  -37.3212  -70.7514   52.7974 H   0  0  0  0  0  0  0  0  0  0  0  0
  -41.6984  -65.6334   51.5651 Br  0  0  0  0  0  0  0  0  0  0  0  0
  -41.4150  -67.0766   52.7688 C   0  0  0  0  0  0  0  0  0  0  0  0
  -40.3425  -67.9275   52.6613 C   0  0  0  0  0  0  0  0  0  0  0  0
  -40.1497  -68.9829   53.5188 C   0  0  0  0  0  0  0  0  0  0  0  0
  -41.0581  -69.2009   54.5227 C   0  0  0  0  0  0  0  0  0  0  0  0
  -42.1579  -68.3643   54.6675 C   0  0  0  0  0  0  0  0  0  0  0  0
  -42.3197  -67.3227   53.7977 C   0  0  0  0  0  0  0  0  0  0  0  0
 19 20  1  0  0  0
 20 21  2  0  0  0
 20 25  1  0  0  0
 21 22  1  0  0  0
 22 23  2  0  0  0
 22 15  1  0  0  0
 23 24  1  0  0  0
 24 25  2  0  0  0
 15 16  2  0  0  0
 15 17  1  0  0  0
 17  1  1  0  0  0
  1  2  1  0  0  0
  1  5  1  0  0  0
  2  3  1  0  0  0
  3  4  1  0  0  0
  3 13  1  0  0  0
  4  5  1  0  0  0
  4  6  1  0  0  0
  6  7  2  0  0  0
  6  8  1  0  0  0
  8  9  1  0  0  0
  8 12  1  0  0  0
  9 10  1  0  0  0
  9 13  1  0  0  0
 10 11  1  0  0  0
 11 12  1  0  0  0
 13 14  2  0  0  0
 17 18  1  0  0  0
M  END
> <minimizedAffinity>
-8.39727

$$$$
138


 25 28  0  0  0  0  0  0  0  0999 V2000
  -43.2669  -65.7209   52.3763 C   0  0  0  0  0  0  0  0  0  0  0  0
  -44.6124  -66.2979   52.0872 C   0  0  0  0  0  0  0  0  0  0  0  0
  -45.4180  -65.1064   51.7678 N   0  0  0  0  0  0  0  0  0  0  0  0
  -44.5308  -63.9716   51.5587 C   0  0  0  0  0  0  0  0  0  0  0  0
  -43.1979  -64.6109   51.3168 C   0  0  0  0  0  0  0  0  0  0  0  0
  -45.0443  -63.2011   50.4295 C   0  0  0  0  0  0  0  0  0  0  0  0
  -44.2780  -62.6456   49.6334 O   0  0  0  0  0  0  0  0  0  0  0  0
  -46.4611  -63.0846   50.2373 N   0  0  0  0  0  0  0  0  0  0  0  0
  -47.2890  -63.5291   51.3320 C   0  0  0  0  0  0  0  0  0  0  0  0
  -48.7136  -63.4482   50.9656 C   0  0  0  0  0  0  0  0  0  0  0  0
  -48.6875  -62.5266   49.7622 C   0  0  0  0  0  0  0  0  0  0  0  0
  -47.3144  -62.6178   49.1883 C   0  0  0  0  0  0  0  0  0  0  0  0
  -46.8256  -64.9256   51.6436 C   0  0  0  0  0  0  0  0  0  0  0  0
  -47.6323  -65.8718   51.7852 O   0  0  0  0  0  0  0  0  0  0  0  0
  -41.7288  -67.3086   53.4393 C   0  0  0  0  0  0  0  0  0  0  0  0
  -42.3032  -67.0929   54.5635 O   0  0  0  0  0  0  0  0  0  0  0  0
  -42.1851  -66.6300   52.2882 N   0  0  0  0  0  0  0  0  0  0  0  0
  -41.7184  -66.8073   51.3804 H   0  0  0  0  0  0  0  0  0  0  0  0
  -37.5289  -69.5333   50.9780 Br  0  0  0  0  0  0  0  0  0  0  0  0
  -38.7204  -69.3264   52.4447 C   0  0  0  0  0  0  0  0  0  0  0  0
  -39.7585  -68.4307   52.4279 C   0  0  0  0  0  0  0  0  0  0  0  0
  -40.6329  -68.2614   53.4719 C   0  0  0  0  0  0  0  0  0  0  0  0
  -40.4333  -69.0454   54.5827 C   0  0  0  0  0  0  0  0  0  0  0  0
  -39.3832  -69.9739   54.6415 C   0  0  0  0  0  0  0  0  0  0  0  0
  -38.5258  -70.1100   53.5614 C   0  0  0  0  0  0  0  0  0  0  0  0
 19 20  1  0  0  0
 20 21  2  0  0  0
 20 25  1  0  0  0
 21 22  1  0  0  0
 22 23  2  0  0  0
 22 15  1  0  0  0
 23 24  1  0  0  0
 24 25  2  0  0  0
 15 16  2  0  0  0
 15 17  1  0  0  0
 17  1  1  0  0  0
  1  2  1  0  0  0
  1  5  1  0  0  0
  2  3  1  0  0  0
  3  4  1  0  0  0
  3 13  1  0  0  0
  4  5  1  0  0  0
  4  6  1  0  0  0
  6  7  2  0  0  0
  6  8  1  0  0  0
  8  9  1  0  0  0
  8 12  1  0  0  0
  9 10  1  0  0  0
  9 13  1  0  0  0
 10 11  1  0  0  0
 11 12  1  0  0  0
 13 14  2  0  0  0
 17 18  1  0  0  0
M  END
> <minimizedAffinity>
-7.79212

$$$$
141


 23 26  0  0  0  0  0  0  0  0999 V2000
  -41.9016  -66.7486   53.3259 N   0  0  0  0  0  0  0  0  0  0  0  0
  -42.7842  -67.5421   54.1424 C   0  0  0  0  0  0  0  0  0  0  0  0
  -42.5866  -68.7129   54.5977 O   0  0  0  0  0  0  0  0  0  0  0  0
  -43.9927  -66.7776   54.3846 C   0  0  0  0  0  0  0  0  0  0  0  0
  -43.6383  -65.3064   54.0913 C   0  0  0  0  0  0  0  0  0  0  0  0
  -44.8286  -64.7317   53.3948 C   0  0  0  0  0  0  0  0  0  0  0  0
  -45.9323  -65.7430   53.7635 C   0  0  0  0  0  0  0  0  0  0  0  0
  -45.0795  -66.9562   53.3342 C   0  0  0  0  0  0  0  0  0  0  0  0
  -44.6159  -66.4572   52.0079 C   0  0  0  0  0  0  0  0  0  0  0  0
  -44.7101  -65.1224   51.9428 C   0  0  0  0  0  0  0  0  0  0  0  0
  -42.5451  -65.5319   53.0659 C   0  0  0  0  0  0  0  0  0  0  0  0
  -42.2825  -64.7339   52.1381 O   0  0  0  0  0  0  0  0  0  0  0  0
  -40.3197  -67.7245   51.6495 C   0  0  0  0  0  0  0  0  0  0  0  0
  -41.1663  -67.7508   50.7392 O   0  0  0  0  0  0  0  0  0  0  0  0
  -40.6424  -67.2402   52.9289 N   0  0  0  0  0  0  0  0  0  0  0  0
  -39.8424  -67.2625   53.6380 H   0  0  0  0  0  0  0  0  0  0  0  0
  -36.2365  -67.4322   48.3373 Br  0  0  0  0  0  0  0  0  0  0  0  0
  -37.0728  -68.1488   49.8901 C   0  0  0  0  0  0  0  0  0  0  0  0
  -38.3344  -67.7173   50.2174 C   0  0  0  0  0  0  0  0  0  0  0  0
  -38.9906  -68.2138   51.3410 C   0  0  0  0  0  0  0  0  0  0  0  0
  -38.3471  -69.1370   52.1051 C   0  0  0  0  0  0  0  0  0  0  0  0
  -37.0815  -69.5661   51.7718 C   0  0  0  0  0  0  0  0  0  0  0  0
  -36.4135  -69.0917   50.6695 C   0  0  0  0  0  0  0  0  0  0  0  0
 17 18  1  0  0  0
 18 19  2  0  0  0
 18 23  1  0  0  0
 19 20  1  0  0  0
 20 21  2  0  0  0
 20 13  1  0  0  0
 21 22  1  0  0  0
 22 23  2  0  0  0
 13 14  2  0  0  0
 13 15  1  0  0  0
 15  1  1  0  0  0
  1  2  1  0  0  0
  1 11  1  0  0  0
  2  3  2  0  0  0
  2  4  1  0  0  0
  4  5  1  0  0  0
  4  8  1  0  0  0
  5  6  1  0  0  0
  5 11  1  0  0  0
  6  7  1  0  0  0
  6 10  1  0  0  0
  7  8  1  0  0  0
  8  9  1  0  0  0
  9 10  2  0  0  0
 11 12  2  0  0  0
 15 16  1  0  0  0
M  END
> <minimizedAffinity>
-8.59487

$$$$
152


 27 30  0  0  0  0  0  0  0  0999 V2000
  -39.5132  -69.4749   52.8675 C   0  0  0  0  0  0  0  0  0  0  0  0
  -40.4115  -68.5055   53.0756 C   0  0  0  0  0  0  0  0  0  0  0  0
  -40.4626  -67.3294   52.4512 O   0  0  0  0  0  0  0  0  0  0  0  0
  -41.5736  -66.5827   52.9187 C   0  0  0  0  0  0  0  0  0  0  0  0
  -42.2617  -67.2749   53.8571 C   0  0  0  0  0  0  0  0  0  0  0  0
  -43.4286  -66.7086   54.3642 C   0  0  0  0  0  0  0  0  0  0  0  0
  -43.8436  -65.4849   53.9406 C   0  0  0  0  0  0  0  0  0  0  0  0
  -43.1027  -64.7904   53.0054 C   0  0  0  0  0  0  0  0  0  0  0  0
  -41.9458  -65.2900   52.4570 C   0  0  0  0  0  0  0  0  0  0  0  0
  -43.5634  -63.5325   52.6096 O   0  0  0  0  0  0  0  0  0  0  0  0
  -41.5372  -68.5578   54.0179 C   0  0  0  0  0  0  0  0  0  0  0  0
  -41.8248  -69.4845   54.7976 O   0  0  0  0  0  0  0  0  0  0  0  0
  -34.2934  -69.7508   51.9610 Br  0  0  0  0  0  0  0  0  0  0  0  0
  -36.0377  -69.1994   51.4175 C   0  0  0  0  0  0  0  0  0  0  0  0
  -37.1307  -69.6628   52.1621 C   0  0  0  0  0  0  0  0  0  0  0  0
  -38.4467  -69.2935   51.8458 C   0  0  0  0  0  0  0  0  0  0  0  0
  -38.6180  -68.4685   50.7714 C   0  0  0  0  0  0  0  0  0  0  0  0
  -37.5346  -67.9870   50.0050 C   0  0  0  0  0  0  0  0  0  0  0  0
  -36.2187  -68.3820   50.3625 C   0  0  0  0  0  0  0  0  0  0  0  0
  -40.8485  -64.5553   51.8606 C   0  0  0  0  0  0  0  0  0  0  0  0
  -40.4030  -64.0905   50.6768 N   0  0  0  0  0  0  0  0  0  0  0  0
  -39.3639  -64.6077   49.8994 C   0  0  0  0  0  0  0  0  0  0  0  0
  -39.8337  -65.5680   48.7846 C   0  0  0  0  0  0  0  0  0  0  0  0
  -40.5905  -64.9522   47.8166 O   0  0  0  0  0  0  0  0  0  0  0  0
  -41.4411  -64.0147   48.4134 C   0  0  0  0  0  0  0  0  0  0  0  0
  -41.6806  -64.2688   49.8076 C   0  0  0  0  0  0  0  0  0  0  0  0
  -40.3029  -63.0074   50.7275 H   0  0  0  0  0  0  0  0  0  0  0  0
 13 14  1  0  0  0
 14 15  2  0  0  0
 14 19  1  0  0  0
 15 16  1  0  0  0
 16 17  2  0  0  0
 16  1  1  0  0  0
 17 18  1  0  0  0
 18 19  2  0  0  0
  1  2  2  0  0  0
  2  3  1  0  0  0
  2 11  1  0  0  0
  3  4  1  0  0  0
  4  5  2  0  0  0
  4  9  1  0  0  0
  5  6  1  0  0  0
  5 11  1  0  0  0
  6  7  2  0  0  0
  7  8  1  0  0  0
  8  9  2  0  0  0
  8 10  1  0  0  0
  9 20  1  0  0  0
 20 21  1  0  0  0
 21 22  1  0  0  0
 21 26  1  0  0  0
 22 23  1  0  0  0
 23 24  1  0  0  0
 24 25  1  0  0  0
 25 26  1  0  0  0
 11 12  2  0  0  0
 21 27  1  0  0  0
M  CHG 1  10  -1
M  CHG 1  21   1
M  END
> <minimizedAffinity>
-9.78104

$$$$
153


 34 37  0  0  0  0  0  0  0  0999 V2000
  -34.6461  -67.0294   48.1777 C   0  0  0  0  0  0  0  0  0  0  0  0
  -33.6914  -67.3729   47.3828 N   0  0  0  0  0  0  0  0  0  0  0  0
  -32.7943  -66.3953   47.3011 N   0  0  0  0  0  0  0  0  0  0  0  0
  -33.2054  -65.3625   48.0829 N   0  0  0  0  0  0  0  0  0  0  0  0
  -34.3092  -65.7043   48.6605 C   0  0  0  0  0  0  0  0  0  0  0  0
  -32.6502  -64.0518   47.7793 C   0  0  0  0  0  0  0  0  0  0  0  0
  -32.2654  -63.3048   48.9527 N   0  0  0  0  0  0  0  0  0  0  0  0
  -31.8022  -62.1889   48.6419 O   0  0  0  0  0  0  0  0  0  0  0  0
  -31.8251  -62.0632   47.3503 N   0  0  0  0  0  0  0  0  0  0  0  0
  -32.3569  -63.2399   46.8239 C   0  0  0  0  0  0  0  0  0  0  0  0
  -32.4892  -63.3725   45.4269 N   0  0  0  0  0  0  0  0  0  0  0  0
  -31.5557  -63.2213   44.9051 H   0  0  0  0  0  0  0  0  0  0  0  0
  -33.2746  -63.5764   44.8399 H   0  0  0  0  0  0  0  0  0  0  0  0
  -36.2762  -67.8294   49.8018 N   0  0  0  0  0  0  0  0  0  0  0  0
  -35.9920  -67.6744   48.4758 C   0  0  0  0  0  0  0  0  0  0  0  0
  -36.7002  -67.9790   47.4912 O   0  0  0  0  0  0  0  0  0  0  0  0
  -35.3491  -67.2488   50.3499 H   0  0  0  0  0  0  0  0  0  0  0  0
  -38.3113  -68.2103   50.9214 C   0  0  0  0  0  0  0  0  0  0  0  0
  -37.0113  -68.2043   50.8252 N   0  0  0  0  0  0  0  0  0  0  0  0
  -42.4891  -67.9936   54.3903 Br  0  0  0  0  0  0  0  0  0  0  0  0
  -40.8318  -68.6760   53.7084 C   0  0  0  0  0  0  0  0  0  0  0  0
  -40.1932  -68.0884   52.6173 C   0  0  0  0  0  0  0  0  0  0  0  0
  -39.0182  -68.6392   52.1438 C   0  0  0  0  0  0  0  0  0  0  0  0
  -38.5189  -69.7575   52.7871 C   0  0  0  0  0  0  0  0  0  0  0  0
  -39.1757  -70.2977   53.8539 C   0  0  0  0  0  0  0  0  0  0  0  0
  -40.3494  -69.8051   54.3611 C   0  0  0  0  0  0  0  0  0  0  0  0
  -35.2082  -65.1027   49.6401 C   0  0  0  0  0  0  0  0  0  0  0  0
  -35.8927  -63.9112   49.4231 N   0  0  0  0  0  0  0  0  0  0  0  0
  -35.5692  -62.6640   49.0459 C   0  0  0  0  0  0  0  0  0  0  0  0
  -36.0989  -62.4346   47.6041 C   0  0  0  0  0  0  0  0  0  0  0  0
  -36.1999  -63.7075   46.9848 N   0  0  0  0  0  0  0  0  0  0  0  0
  -37.2758  -64.4684   47.5448 C   0  0  0  0  0  0  0  0  0  0  0  0
  -37.3139  -64.1799   49.0510 C   0  0  0  0  0  0  0  0  0  0  0  0
  -35.9961  -63.8268   45.6031 C   0  0  0  0  0  0  0  0  0  0  0  0
 20 21  1  0  0  0
 21 22  2  0  0  0
 21 26  1  0  0  0
 22 23  1  0  0  0
 23 24  2  0  0  0
 23 18  1  0  0  0
 24 25  1  0  0  0
 25 26  2  0  0  0
 18 19  2  0  0  0
 19 14  1  0  0  0
 14 15  1  0  0  0
 15 16  2  0  0  0
 15  1  1  0  0  0
  1  2  1  0  0  0
  1  5  2  0  0  0
  2  3  2  0  0  0
  3  4  1  0  0  0
  4  5  1  0  0  0
  4  6  1  0  0  0
  5 27  1  0  0  0
 27 28  1  0  0  0
 28 29  1  0  0  0
 28 33  1  0  0  0
 29 30  1  0  0  0
 30 31  1  0  0  0
 31 32  1  0  0  0
 31 34  1  0  0  0
 32 33  1  0  0  0
  6  7  2  0  0  0
  6 10  1  0  0  0
  7  8  1  0  0  0
  8  9  1  0  0  0
  9 10  2  0  0  0
 10 11  1  0  0  0
 14 17  1  0  0  0
 11 12  1  0  0  0
 11 13  1  0  0  0
M  END
> <minimizedAffinity>
-8.45094

$$$$
156


 29 32  0  0  0  0  0  0  0  0999 V2000
  -36.6071  -66.8418   48.9199 C   0  0  0  0  0  0  0  0  0  0  0  0
  -37.7577  -66.1839   48.7460 N   0  0  0  0  0  0  0  0  0  0  0  0
  -37.8220  -64.9201   48.2415 C   0  0  0  0  0  0  0  0  0  0  0  0
  -36.6358  -64.3594   47.9216 N   0  0  0  0  0  0  0  0  0  0  0  0
  -35.4477  -64.9689   48.0730 C   0  0  0  0  0  0  0  0  0  0  0  0
  -35.4764  -66.2256   48.5813 N   0  0  0  0  0  0  0  0  0  0  0  0
  -34.2271  -64.3626   47.7320 N   0  0  0  0  0  0  0  0  0  0  0  0
  -34.1172  -62.9493   47.4894 C   0  0  0  0  0  0  0  0  0  0  0  0
  -32.7654  -62.5268   48.0806 C   0  0  0  0  0  0  0  0  0  0  0  0
  -32.3997  -63.3870   49.1130 O   0  0  0  0  0  0  0  0  0  0  0  0
  -32.0751  -64.6543   48.7000 C   0  0  0  0  0  0  0  0  0  0  0  0
  -33.0377  -65.1573   47.6152 C   0  0  0  0  0  0  0  0  0  0  0  0
  -39.0497  -64.2451   48.0673 N   0  0  0  0  0  0  0  0  0  0  0  0
  -40.2958  -64.9033   48.3458 C   0  0  0  0  0  0  0  0  0  0  0  0
  -41.0565  -64.0152   49.3242 C   0  0  0  0  0  0  0  0  0  0  0  0
  -41.2404  -62.7944   48.6801 O   0  0  0  0  0  0  0  0  0  0  0  0
  -40.0519  -62.1098   48.5017 C   0  0  0  0  0  0  0  0  0  0  0  0
  -39.0890  -62.8840   47.6073 C   0  0  0  0  0  0  0  0  0  0  0  0
  -36.6123  -68.1615   49.4515 N   0  0  0  0  0  0  0  0  0  0  0  0
  -36.1841  -68.9464   48.9184 H   0  0  0  0  0  0  0  0  0  0  0  0
  -38.4294  -68.6596   50.8881 C   0  0  0  0  0  0  0  0  0  0  0  0
  -37.1882  -68.4455   50.6929 N   0  0  0  0  0  0  0  0  0  0  0  0
  -42.2221  -67.5771   54.5072 Br  0  0  0  0  0  0  0  0  0  0  0  0
  -40.6787  -68.5368   53.9031 C   0  0  0  0  0  0  0  0  0  0  0  0
  -40.1161  -68.2845   52.6754 C   0  0  0  0  0  0  0  0  0  0  0  0
  -39.0026  -68.9518   52.1956 C   0  0  0  0  0  0  0  0  0  0  0  0
  -38.4582  -69.9108   53.0222 C   0  0  0  0  0  0  0  0  0  0  0  0
  -38.9990  -70.1957   54.2737 C   0  0  0  0  0  0  0  0  0  0  0  0
  -40.1104  -69.5037   54.7066 C   0  0  0  0  0  0  0  0  0  0  0  0
 23 24  1  0  0  0
 24 25  2  0  0  0
 24 29  1  0  0  0
 25 26  1  0  0  0
 26 27  2  0  0  0
 26 21  1  0  0  0
 27 28  1  0  0  0
 28 29  2  0  0  0
 21 22  2  0  0  0
 22 19  1  0  0  0
 19  1  1  0  0  0
  1  2  2  0  0  0
  1  6  1  0  0  0
  2  3  1  0  0  0
  3  4  2  0  0  0
  3 13  1  0  0  0
  4  5  1  0  0  0
  5  6  2  0  0  0
  5  7  1  0  0  0
  7  8  1  0  0  0
  7 12  1  0  0  0
  8  9  1  0  0  0
  9 10  1  0  0  0
 10 11  1  0  0  0
 11 12  1  0  0  0
 13 14  1  0  0  0
 13 18  1  0  0  0
 14 15  1  0  0  0
 15 16  1  0  0  0
 16 17  1  0  0  0
 17 18  1  0  0  0
 19 20  1  0  0  0
M  END
> <minimizedAffinity>
-7.89623

$$$$
167


 35 38  0  0  0  0  0  0  0  0999 V2000
  -36.6692  -66.0551   47.6572 C   0  0  0  0  0  0  0  0  0  0  0  0
  -35.6044  -66.8719   48.1059 N   0  0  0  0  0  0  0  0  0  0  0  0
  -36.0047  -67.5862   49.2638 C   0  0  0  0  0  0  0  0  0  0  0  0
  -35.2458  -68.3315   49.9584 O   0  0  0  0  0  0  0  0  0  0  0  0
  -37.4073  -67.3247   49.5037 C   0  0  0  0  0  0  0  0  0  0  0  0
  -38.0192  -67.8369   50.4797 O   0  0  0  0  0  0  0  0  0  0  0  0
  -37.8632  -66.4253   48.4612 C   0  0  0  0  0  0  0  0  0  0  0  0
  -39.1000  -66.0027   48.3288 C   0  0  0  0  0  0  0  0  0  0  0  0
  -39.3957  -65.0960   47.3372 O   0  0  0  0  0  0  0  0  0  0  0  0
  -35.4717  -61.6185   44.9699 Br  0  0  0  0  0  0  0  0  0  0  0  0
  -35.7915  -62.5773   46.5895 C   0  0  0  0  0  0  0  0  0  0  0  0
  -36.0944  -63.9037   46.6390 C   0  0  0  0  0  0  0  0  0  0  0  0
  -36.3336  -64.6337   47.7906 C   0  0  0  0  0  0  0  0  0  0  0  0
  -36.2572  -63.9533   49.0029 C   0  0  0  0  0  0  0  0  0  0  0  0
  -35.9507  -62.6061   48.9896 C   0  0  0  0  0  0  0  0  0  0  0  0
  -35.7176  -61.9042   47.8198 C   0  0  0  0  0  0  0  0  0  0  0  0
  -40.1493  -66.4769   49.1964 C   0  0  0  0  0  0  0  0  0  0  0  0
  -40.5456  -65.8255   50.3778 C   0  0  0  0  0  0  0  0  0  0  0  0
  -41.5641  -66.4977   50.9280 N   0  0  0  0  0  0  0  0  0  0  0  0
  -41.8144  -67.5305   50.1445 N   0  0  0  0  0  0  0  0  0  0  0  0
  -40.9859  -67.5530   49.0899 C   0  0  0  0  0  0  0  0  0  0  0  0
  -39.9044  -64.5821   50.8955 C   0  0  0  0  0  0  0  0  0  0  0  0
  -42.2666  -66.1719   52.1189 C   0  0  0  0  0  0  0  0  0  0  0  0
  -42.0959  -66.9773   53.2370 C   0  0  0  0  0  0  0  0  0  0  0  0
  -42.7386  -66.7141   54.4303 C   0  0  0  0  0  0  0  0  0  0  0  0
  -43.5921  -65.6176   54.5596 C   0  0  0  0  0  0  0  0  0  0  0  0
  -43.7622  -64.8151   53.4456 C   0  0  0  0  0  0  0  0  0  0  0  0
  -43.1127  -65.0981   52.2718 C   0  0  0  0  0  0  0  0  0  0  0  0
  -34.2607  -67.0142   47.4778 C   0  0  0  0  0  0  0  0  0  0  0  0
  -33.2613  -66.1696   48.2253 C   0  0  0  0  0  0  0  0  0  0  0  0
  -32.2945  -65.4586   47.3322 C   0  0  0  0  0  0  0  0  0  0  0  0
  -31.9166  -64.1433   47.7314 N   0  0  0  0  0  0  0  0  0  0  0  0
  -32.1770  -63.0970   46.7982 C   0  0  0  0  0  0  0  0  0  0  0  0
  -32.5811  -63.7871   48.9955 C   0  0  0  0  0  0  0  0  0  0  0  0
  -30.8791  -64.1287   47.9708 H   0  0  0  0  0  0  0  0  0  0  0  0
 10 11  1  0  0  0
 11 12  2  0  0  0
 11 16  1  0  0  0
 12 13  1  0  0  0
 13 14  2  0  0  0
 13  1  1  0  0  0
 14 15  1  0  0  0
 15 16  2  0  0  0
  1  2  1  0  0  0
  1  7  1  0  0  0
  2  3  1  0  0  0
  2 29  1  0  0  0
  3  4  2  0  0  0
  3  5  1  0  0  0
  5  6  2  0  0  0
  5  7  1  0  0  0
  7  8  2  0  0  0
  8  9  1  0  0  0
  8 17  1  0  0  0
 17 18  2  0  0  0
 17 21  1  0  0  0
 18 19  1  0  0  0
 18 22  1  0  0  0
 19 20  1  0  0  0
 19 23  1  0  0  0
 20 21  2  0  0  0
 23 24  2  0  0  0
 23 28  1  0  0  0
 24 25  1  0  0  0
 25 26  2  0  0  0
 26 27  1  0  0  0
 27 28  2  0  0  0
 29 30  1  0  0  0
 30 31  1  0  0  0
 31 32  1  0  0  0
 32 33  1  0  0  0
 32 34  1  0  0  0
 32 35  1  0  0  0
M  CHG 1   9  -1
M  CHG 1  32   1
M  END
> <minimizedAffinity>
-7.21219

$$$$
169


 37 40  0  0  0  0  0  0  0  0999 V2000
  -40.1607  -65.1212   48.0161 C   0  0  0  0  0  0  0  0  0  0  0  0
  -40.5734  -63.7320   47.9633 N   0  0  0  0  0  0  0  0  0  0  0  0
  -40.2429  -63.1713   49.2255 C   0  0  0  0  0  0  0  0  0  0  0  0
  -40.0099  -61.9704   49.4870 O   0  0  0  0  0  0  0  0  0  0  0  0
  -40.2203  -64.2876   50.1966 C   0  0  0  0  0  0  0  0  0  0  0  0
  -39.9776  -64.2232   51.4216 O   0  0  0  0  0  0  0  0  0  0  0  0
  -40.5463  -65.4802   49.4261 C   0  0  0  0  0  0  0  0  0  0  0  0
  -41.0898  -66.5623   49.8926 C   0  0  0  0  0  0  0  0  0  0  0  0
  -41.3936  -67.5971   48.9833 O   0  0  0  0  0  0  0  0  0  0  0  0
  -41.4172  -66.8154   51.2884 C   0  0  0  0  0  0  0  0  0  0  0  0
  -42.4452  -66.4452   52.0883 C   0  0  0  0  0  0  0  0  0  0  0  0
  -42.2653  -67.0158   53.2976 N   0  0  0  0  0  0  0  0  0  0  0  0
  -41.1474  -67.7519   53.3256 C   0  0  0  0  0  0  0  0  0  0  0  0
  -40.5944  -67.6444   52.0774 C   0  0  0  0  0  0  0  0  0  0  0  0
  -39.3275  -68.3008   51.6345 C   0  0  0  0  0  0  0  0  0  0  0  0
  -43.5835  -65.5229   51.7592 C   0  0  0  0  0  0  0  0  0  0  0  0
  -42.9290  -66.8896   54.1160 H   0  0  0  0  0  0  0  0  0  0  0  0
  -40.6176  -68.5230   54.4682 C   0  0  0  0  0  0  0  0  0  0  0  0
  -40.4023  -67.9421   55.5423 O   0  0  0  0  0  0  0  0  0  0  0  0
  -40.3626  -69.8758   54.3488 O   0  0  0  0  0  0  0  0  0  0  0  0
  -39.0741  -70.4404   54.4312 C   0  0  0  0  0  0  0  0  0  0  0  0
  -35.5456  -67.4769   49.3513 Br  0  0  0  0  0  0  0  0  0  0  0  0
  -36.5453  -66.1655   48.3928 C   0  0  0  0  0  0  0  0  0  0  0  0
  -37.9160  -66.1133   48.5313 C   0  0  0  0  0  0  0  0  0  0  0  0
  -38.6880  -65.1776   47.8552 C   0  0  0  0  0  0  0  0  0  0  0  0
  -37.9900  -64.3034   47.0356 C   0  0  0  0  0  0  0  0  0  0  0  0
  -36.6197  -64.3473   46.8909 C   0  0  0  0  0  0  0  0  0  0  0  0
  -35.8753  -65.2853   47.5717 C   0  0  0  0  0  0  0  0  0  0  0  0
  -41.2078  -63.0348   46.8416 C   0  0  0  0  0  0  0  0  0  0  0  0
  -42.6258  -62.6320   47.1817 C   0  0  0  0  0  0  0  0  0  0  0  0
  -42.7313  -61.3537   47.8060 N   0  0  0  0  0  0  0  0  0  0  0  0
  -44.0912  -60.8296   47.8507 C   0  0  0  0  0  0  0  0  0  0  0  0
  -44.1268  -59.7520   48.9003 C   0  0  0  0  0  0  0  0  0  0  0  0
  -42.8613  -59.2537   49.0847 O   0  0  0  0  0  0  0  0  0  0  0  0
  -42.1538  -59.0425   47.9143 C   0  0  0  0  0  0  0  0  0  0  0  0
  -41.9485  -60.3323   47.1214 C   0  0  0  0  0  0  0  0  0  0  0  0
  -42.3405  -61.4061   48.7639 H   0  0  0  0  0  0  0  0  0  0  0  0
 22 23  1  0  0  0
 23 24  2  0  0  0
 23 28  1  0  0  0
 24 25  1  0  0  0
 25 26  2  0  0  0
 25  1  1  0  0  0
 26 27  1  0  0  0
 27 28  2  0  0  0
  1  2  1  0  0  0
  1  7  1  0  0  0
  2  3  1  0  0  0
  2 29  1  0  0  0
  3  4  2  0  0  0
  3  5  1  0  0  0
  5  6  2  0  0  0
  5  7  1  0  0  0
  7  8  2  0  0  0
  8  9  1  0  0  0
  8 10  1  0  0  0
 10 11  2  0  0  0
 10 14  1  0  0  0
 11 12  1  0  0  0
 11 16  1  0  0  0
 12 13  1  0  0  0
 13 14  2  0  0  0
 13 18  1  0  0  0
 14 15  1  0  0  0
 18 19  2  0  0  0
 18 20  1  0  0  0
 20 21  1  0  0  0
 29 30  1  0  0  0
 30 31  1  0  0  0
 31 32  1  0  0  0
 31 36  1  0  0  0
 32 33  1  0  0  0
 33 34  1  0  0  0
 34 35  1  0  0  0
 35 36  1  0  0  0
 12 17  1  0  0  0
 31 37  1  0  0  0
M  CHG 1   9  -1
M  CHG 1  31   1
M  END
> <minimizedAffinity>
-7.81712

$$$$
170


 35 38  0  0  0  0  0  0  0  0999 V2000
  -38.1471  -67.1617   48.9400 C   0  0  0  0  0  0  0  0  0  0  0  0
  -39.2855  -66.3613   49.3462 N   0  0  0  0  0  0  0  0  0  0  0  0
  -38.8726  -65.0757   49.7559 C   0  0  0  0  0  0  0  0  0  0  0  0
  -39.4555  -64.2011   50.4468 O   0  0  0  0  0  0  0  0  0  0  0  0
  -37.5110  -64.8937   49.1932 C   0  0  0  0  0  0  0  0  0  0  0  0
  -36.8316  -63.8599   49.3518 O   0  0  0  0  0  0  0  0  0  0  0  0
  -37.1828  -66.1080   48.4687 C   0  0  0  0  0  0  0  0  0  0  0  0
  -36.2599  -66.2269   47.5492 C   0  0  0  0  0  0  0  0  0  0  0  0
  -36.1085  -67.4562   46.8843 O   0  0  0  0  0  0  0  0  0  0  0  0
  -38.9493  -70.2051   53.2762 Br  0  0  0  0  0  0  0  0  0  0  0  0
  -37.8272  -69.3489   51.9967 C   0  0  0  0  0  0  0  0  0  0  0  0
  -38.3798  -68.5933   50.9688 C   0  0  0  0  0  0  0  0  0  0  0  0
  -37.5828  -67.9671   50.0375 C   0  0  0  0  0  0  0  0  0  0  0  0
  -36.2159  -68.1013   50.1368 C   0  0  0  0  0  0  0  0  0  0  0  0
  -35.6616  -68.8500   51.1557 C   0  0  0  0  0  0  0  0  0  0  0  0
  -36.4511  -69.4804   52.0935 C   0  0  0  0  0  0  0  0  0  0  0  0
  -35.3828  -65.1439   47.1933 C   0  0  0  0  0  0  0  0  0  0  0  0
  -34.2294  -64.9828   47.9751 C   0  0  0  0  0  0  0  0  0  0  0  0
  -33.3601  -63.9555   47.7343 C   0  0  0  0  0  0  0  0  0  0  0  0
  -33.5753  -63.0339   46.7171 C   0  0  0  0  0  0  0  0  0  0  0  0
  -34.6999  -63.2089   45.9725 C   0  0  0  0  0  0  0  0  0  0  0  0
  -35.5885  -64.2395   46.2022 C   0  0  0  0  0  0  0  0  0  0  0  0
  -32.1332  -63.7979   48.5794 C   0  0  0  0  0  0  0  0  0  0  0  0
  -32.6498  -62.0262   46.5385 O   0  0  0  0  0  0  0  0  0  0  0  0
  -31.8879  -61.9401   45.3436 C   0  0  0  0  0  0  0  0  0  0  0  0
  -40.6918  -66.7948   49.3368 C   0  0  0  0  0  0  0  0  0  0  0  0
  -41.1358  -67.1178   50.7366 C   0  0  0  0  0  0  0  0  0  0  0  0
  -42.1065  -66.1546   51.3299 C   0  0  0  0  0  0  0  0  0  0  0  0
  -42.1721  -66.2103   52.7741 N   0  0  0  0  0  0  0  0  0  0  0  0
  -43.5369  -66.1260   53.2548 C   0  0  0  0  0  0  0  0  0  0  0  0
  -43.9396  -67.3992   53.9486 C   0  0  0  0  0  0  0  0  0  0  0  0
  -43.0846  -67.5718   55.0562 O   0  0  0  0  0  0  0  0  0  0  0  0
  -41.7705  -67.7600   54.6340 C   0  0  0  0  0  0  0  0  0  0  0  0
  -41.5540  -67.4753   53.1823 C   0  0  0  0  0  0  0  0  0  0  0  0
  -41.6080  -65.4708   53.2430 H   0  0  0  0  0  0  0  0  0  0  0  0
 10 11  1  0  0  0
 11 12  2  0  0  0
 11 16  1  0  0  0
 12 13  1  0  0  0
 13 14  2  0  0  0
 13  1  1  0  0  0
 14 15  1  0  0  0
 15 16  2  0  0  0
  1  2  1  0  0  0
  1  7  1  0  0  0
  2  3  1  0  0  0
  2 26  1  0  0  0
  3  4  2  0  0  0
  3  5  1  0  0  0
  5  6  2  0  0  0
  5  7  1  0  0  0
  7  8  2  0  0  0
  8  9  1  0  0  0
  8 17  1  0  0  0
 17 18  2  0  0  0
 17 22  1  0  0  0
 18 19  1  0  0  0
 19 20  2  0  0  0
 19 23  1  0  0  0
 20 21  1  0  0  0
 20 24  1  0  0  0
 21 22  2  0  0  0
 24 25  1  0  0  0
 26 27  1  0  0  0
 27 28  1  0  0  0
 28 29  1  0  0  0
 29 30  1  0  0  0
 29 34  1  0  0  0
 30 31  1  0  0  0
 31 32  1  0  0  0
 32 33  1  0  0  0
 33 34  1  0  0  0
 29 35  1  0  0  0
M  CHG 1   9  -1
M  CHG 1  29   1
M  END
> <minimizedAffinity>
-8.45007

$$$$
175


 32 35  0  0  0  0  0  0  0  0999 V2000
  -39.8494  -64.2003   48.9529 C   0  0  0  0  0  0  0  0  0  0  0  0
  -38.9982  -64.9494   48.0777 N   0  0  0  0  0  0  0  0  0  0  0  0
  -39.4881  -66.2816   48.0889 C   0  0  0  0  0  0  0  0  0  0  0  0
  -39.2469  -67.1607   47.2247 O   0  0  0  0  0  0  0  0  0  0  0  0
  -40.3344  -66.4797   49.2892 C   0  0  0  0  0  0  0  0  0  0  0  0
  -40.9308  -67.5123   49.6385 O   0  0  0  0  0  0  0  0  0  0  0  0
  -40.3189  -65.2019   49.9757 C   0  0  0  0  0  0  0  0  0  0  0  0
  -40.5996  -64.9570   51.2368 C   0  0  0  0  0  0  0  0  0  0  0  0
  -40.4638  -63.6785   51.7343 O   0  0  0  0  0  0  0  0  0  0  0  0
  -45.0345  -62.7285   49.0682 Br  0  0  0  0  0  0  0  0  0  0  0  0
  -43.3436  -62.9010   48.1971 C   0  0  0  0  0  0  0  0  0  0  0  0
  -42.2511  -63.4609   48.8513 C   0  0  0  0  0  0  0  0  0  0  0  0
  -41.0176  -63.5997   48.2498 C   0  0  0  0  0  0  0  0  0  0  0  0
  -40.9146  -63.1465   46.9421 C   0  0  0  0  0  0  0  0  0  0  0  0
  -41.9844  -62.5879   46.2758 C   0  0  0  0  0  0  0  0  0  0  0  0
  -43.1919  -62.4717   46.9160 C   0  0  0  0  0  0  0  0  0  0  0  0
  -41.0572  -65.9940   52.1259 C   0  0  0  0  0  0  0  0  0  0  0  0
  -42.3472  -66.2319   52.5029 C   0  0  0  0  0  0  0  0  0  0  0  0
  -42.6486  -67.2938   53.3352 C   0  0  0  0  0  0  0  0  0  0  0  0
  -41.7036  -68.1625   53.8317 C   0  0  0  0  0  0  0  0  0  0  0  0
  -40.4006  -67.9205   53.4507 C   0  0  0  0  0  0  0  0  0  0  0  0
  -40.0799  -66.8711   52.6252 C   0  0  0  0  0  0  0  0  0  0  0  0
  -42.0552  -69.2994   54.7278 C   0  0  0  0  0  0  0  0  0  0  0  0
  -37.8386  -64.4704   47.2994 C   0  0  0  0  0  0  0  0  0  0  0  0
  -36.6538  -64.4602   48.2242 C   0  0  0  0  0  0  0  0  0  0  0  0
  -35.4798  -65.0680   47.7113 N   0  0  0  0  0  0  0  0  0  0  0  0
  -34.3476  -65.0946   48.5906 C   0  0  0  0  0  0  0  0  0  0  0  0
  -34.2529  -66.3317   49.4411 C   0  0  0  0  0  0  0  0  0  0  0  0
  -34.5573  -67.4937   48.7676 O   0  0  0  0  0  0  0  0  0  0  0  0
  -35.8073  -67.4540   48.1955 C   0  0  0  0  0  0  0  0  0  0  0  0
  -35.8063  -66.3596   47.1618 C   0  0  0  0  0  0  0  0  0  0  0  0
  -35.1867  -64.4904   46.8669 H   0  0  0  0  0  0  0  0  0  0  0  0
 10 11  1  0  0  0
 11 12  2  0  0  0
 11 16  1  0  0  0
 12 13  1  0  0  0
 13 14  2  0  0  0
 13  1  1  0  0  0
 14 15  1  0  0  0
 15 16  2  0  0  0
  1  2  1  0  0  0
  1  7  1  0  0  0
  2  3  1  0  0  0
  2 24  1  0  0  0
  3  4  2  0  0  0
  3  5  1  0  0  0
  5  6  2  0  0  0
  5  7  1  0  0  0
  7  8  2  0  0  0
  8  9  1  0  0  0
  8 17  1  0  0  0
 17 18  2  0  0  0
 17 22  1  0  0  0
 18 19  1  0  0  0
 19 20  2  0  0  0
 20 21  1  0  0  0
 20 23  1  0  0  0
 21 22  2  0  0  0
 24 25  1  0  0  0
 25 26  1  0  0  0
 26 27  1  0  0  0
 26 31  1  0  0  0
 27 28  1  0  0  0
 28 29  1  0  0  0
 29 30  1  0  0  0
 30 31  1  0  0  0
 26 32  1  0  0  0
M  CHG 1   9  -1
M  CHG 1  26   1
M  END
> <minimizedAffinity>
-7.57384

$$$$
176


 33 36  0  0  0  0  0  0  0  0999 V2000
  -42.3668  -66.7553   51.5913 C   0  0  0  0  0  0  0  0  0  0  0  0
  -43.4084  -65.8500   52.0487 N   0  0  0  0  0  0  0  0  0  0  0  0
  -42.7947  -64.5550   52.2150 C   0  0  0  0  0  0  0  0  0  0  0  0
  -43.2783  -63.6161   52.8943 O   0  0  0  0  0  0  0  0  0  0  0  0
  -41.5579  -64.5726   51.4629 C   0  0  0  0  0  0  0  0  0  0  0  0
  -40.7019  -63.6417   51.3367 O   0  0  0  0  0  0  0  0  0  0  0  0
  -41.4387  -65.8859   50.8443 C   0  0  0  0  0  0  0  0  0  0  0  0
  -40.6221  -66.1930   49.8471 C   0  0  0  0  0  0  0  0  0  0  0  0
  -40.6606  -67.5517   49.4691 O   0  0  0  0  0  0  0  0  0  0  0  0
  -38.5867  -70.1589   53.3011 Br  0  0  0  0  0  0  0  0  0  0  0  0
  -40.0427  -68.9693   53.5755 C   0  0  0  0  0  0  0  0  0  0  0  0
  -40.6732  -68.3036   52.5333 C   0  0  0  0  0  0  0  0  0  0  0  0
  -41.7249  -67.4405   52.7413 C   0  0  0  0  0  0  0  0  0  0  0  0
  -42.1475  -67.2442   54.0220 C   0  0  0  0  0  0  0  0  0  0  0  0
  -41.5196  -67.9117   55.0827 C   0  0  0  0  0  0  0  0  0  0  0  0
  -40.4678  -68.7741   54.8726 C   0  0  0  0  0  0  0  0  0  0  0  0
  -39.7487  -65.2502   49.1680 C   0  0  0  0  0  0  0  0  0  0  0  0
  -40.1173  -64.4309   48.1275 C   0  0  0  0  0  0  0  0  0  0  0  0
  -39.2514  -63.5288   47.5429 C   0  0  0  0  0  0  0  0  0  0  0  0
  -37.9542  -63.4139   47.9889 C   0  0  0  0  0  0  0  0  0  0  0  0
  -37.5658  -64.2295   49.0330 C   0  0  0  0  0  0  0  0  0  0  0  0
  -38.4399  -65.1287   49.6118 C   0  0  0  0  0  0  0  0  0  0  0  0
  -36.8271  -62.2668   47.2576 Cl  0  0  0  0  0  0  0  0  0  0  0  0
  -44.7494  -66.2175   52.3705 C   0  0  0  0  0  0  0  0  0  0  0  0
  -45.8532  -65.7386   51.5198 C   0  0  0  0  0  0  0  0  0  0  0  0
  -46.7712  -64.6833   52.0130 C   0  0  0  0  0  0  0  0  0  0  0  0
  -46.7430  -63.4108   51.3747 N   0  0  0  0  0  0  0  0  0  0  0  0
  -45.9519  -63.4567   50.1712 C   0  0  0  0  0  0  0  0  0  0  0  0
  -46.7672  -63.7492   48.9290 C   0  0  0  0  0  0  0  0  0  0  0  0
  -47.6515  -62.6976   48.6778 O   0  0  0  0  0  0  0  0  0  0  0  0
  -47.9512  -62.0081   49.8541 C   0  0  0  0  0  0  0  0  0  0  0  0
  -48.1236  -63.0360   50.9377 C   0  0  0  0  0  0  0  0  0  0  0  0
  -46.4862  -62.6543   52.0037 H   0  0  0  0  0  0  0  0  0  0  0  0
 10 11  1  0  0  0
 11 12  2  0  0  0
 11 16  1  0  0  0
 12 13  1  0  0  0
 13 14  2  0  0  0
 13  1  1  0  0  0
 14 15  1  0  0  0
 15 16  2  0  0  0
  1  2  1  0  0  0
  1  7  1  0  0  0
  2  3  1  0  0  0
  2 24  1  0  0  0
  3  4  2  0  0  0
  3  5  1  0  0  0
  5  6  2  0  0  0
  5  7  1  0  0  0
  7  8  2  0  0  0
  8  9  1  0  0  0
  8 17  1  0  0  0
 17 18  2  0  0  0
 17 22  1  0  0  0
 18 19  1  0  0  0
 19 20  2  0  0  0
 20 21  1  0  0  0
 20 23  1  0  0  0
 21 22  2  0  0  0
 24 25  1  0  0  0
 25 26  1  0  0  0
 26 27  1  0  0  0
 27 28  1  0  0  0
 27 32  1  0  0  0
 28 29  1  0  0  0
 29 30  1  0  0  0
 30 31  1  0  0  0
 31 32  1  0  0  0
 27 33  1  0  0  0
M  CHG 1   9  -1
M  CHG 1  27   1
M  END
> <minimizedAffinity>
-8.24353

$$$$
182


 36 40  0  0  0  0  0  0  0  0999 V2000
  -37.4694  -63.9360   47.3111 C   0  0  0  0  0  0  0  0  0  0  0  0
  -38.5775  -63.0614   47.1465 N   0  0  0  0  0  0  0  0  0  0  0  0
  -39.7039  -63.9778   46.9452 C   0  0  0  0  0  0  0  0  0  0  0  0
  -40.7437  -63.7340   46.3125 O   0  0  0  0  0  0  0  0  0  0  0  0
  -39.3474  -65.2254   47.6408 C   0  0  0  0  0  0  0  0  0  0  0  0
  -40.0197  -66.2775   47.7348 O   0  0  0  0  0  0  0  0  0  0  0  0
  -38.0258  -64.9853   48.2152 C   0  0  0  0  0  0  0  0  0  0  0  0
  -37.5207  -65.5427   49.2852 C   0  0  0  0  0  0  0  0  0  0  0  0
  -36.2413  -65.1067   49.6931 O   0  0  0  0  0  0  0  0  0  0  0  0
  -38.2110  -66.5752   50.0436 C   0  0  0  0  0  0  0  0  0  0  0  0
  -39.2765  -66.5267   50.8561 N   0  0  0  0  0  0  0  0  0  0  0  0
  -39.5124  -67.7407   51.3611 C   0  0  0  0  0  0  0  0  0  0  0  0
  -38.5710  -68.5789   50.8529 N   0  0  0  0  0  0  0  0  0  0  0  0
  -37.7522  -67.9020   50.0373 C   0  0  0  0  0  0  0  0  0  0  0  0
  -36.5898  -68.4449   49.2790 C   0  0  0  0  0  0  0  0  0  0  0  0
  -40.5758  -67.9787   52.2290 C   0  0  0  0  0  0  0  0  0  0  0  0
  -41.3832  -66.9039   52.5460 C   0  0  0  0  0  0  0  0  0  0  0  0
  -41.1123  -65.6608   52.0047 C   0  0  0  0  0  0  0  0  0  0  0  0
  -40.0564  -65.4499   51.1518 C   0  0  0  0  0  0  0  0  0  0  0  0
  -40.7889  -69.3473   52.7607 C   0  0  0  0  0  0  0  0  0  0  0  0
  -32.2783  -64.2724   46.2575 Br  0  0  0  0  0  0  0  0  0  0  0  0
  -33.7624  -63.5249   47.2111 C   0  0  0  0  0  0  0  0  0  0  0  0
  -35.0426  -63.9439   46.9598 C   0  0  0  0  0  0  0  0  0  0  0  0
  -36.1694  -63.4276   47.6309 C   0  0  0  0  0  0  0  0  0  0  0  0
  -35.8535  -62.4636   48.5626 C   0  0  0  0  0  0  0  0  0  0  0  0
  -34.5741  -62.0266   48.8311 C   0  0  0  0  0  0  0  0  0  0  0  0
  -33.5053  -62.5614   48.1487 C   0  0  0  0  0  0  0  0  0  0  0  0
  -38.7404  -61.6189   47.0993 C   0  0  0  0  0  0  0  0  0  0  0  0
  -38.1408  -60.9504   45.9107 C   0  0  0  0  0  0  0  0  0  0  0  0
  -37.1775  -59.9264   46.2644 N   0  0  0  0  0  0  0  0  0  0  0  0
  -35.8741  -60.2102   45.7065 C   0  0  0  0  0  0  0  0  0  0  0  0
  -35.8967  -59.9625   44.1948 C   0  0  0  0  0  0  0  0  0  0  0  0
  -36.1018  -58.5873   44.0388 O   0  0  0  0  0  0  0  0  0  0  0  0
  -37.4406  -58.3584   44.4179 C   0  0  0  0  0  0  0  0  0  0  0  0
  -37.6449  -58.6052   45.8940 C   0  0  0  0  0  0  0  0  0  0  0  0
  -37.0584  -59.9181   47.3071 H   0  0  0  0  0  0  0  0  0  0  0  0
 21 22  1  0  0  0
 22 23  2  0  0  0
 22 27  1  0  0  0
 23 24  1  0  0  0
 24 25  2  0  0  0
 24  1  1  0  0  0
 25 26  1  0  0  0
 26 27  2  0  0  0
  1  2  1  0  0  0
  1  7  1  0  0  0
  2  3  1  0  0  0
  2 28  1  0  0  0
  3  4  2  0  0  0
  3  5  1  0  0  0
  5  6  2  0  0  0
  5  7  1  0  0  0
  7  8  2  0  0  0
  8  9  1  0  0  0
  8 10  1  0  0  0
 10 11  1  0  0  0
 10 14  2  0  0  0
 11 12  1  0  0  0
 11 19  1  0  0  0
 12 13  2  0  0  0
 12 16  1  0  0  0
 13 14  1  0  0  0
 14 15  1  0  0  0
 16 17  2  0  0  0
 16 20  1  0  0  0
 17 18  1  0  0  0
 18 19  2  0  0  0
 28 29  1  0  0  0
 29 30  1  0  0  0
 30 31  1  0  0  0
 30 35  1  0  0  0
 31 32  1  0  0  0
 32 33  1  0  0  0
 33 34  1  0  0  0
 34 35  1  0  0  0
 30 36  1  0  0  0
M  CHG 1   9  -1
M  CHG 1  30   1
M  END
> <minimizedAffinity>
-7.19694

$$$$
184


 33 36  0  0  0  0  0  0  0  0999 V2000
  -37.0228  -64.2211   49.5792 C   0  0  0  0  0  0  0  0  0  0  0  0
  -36.9360  -63.0268   48.7616 N   0  0  0  0  0  0  0  0  0  0  0  0
  -35.5620  -62.6233   48.8345 C   0  0  0  0  0  0  0  0  0  0  0  0
  -35.0965  -61.4811   48.6737 O   0  0  0  0  0  0  0  0  0  0  0  0
  -34.7845  -63.8189   49.1371 C   0  0  0  0  0  0  0  0  0  0  0  0
  -33.5370  -63.9700   49.3011 O   0  0  0  0  0  0  0  0  0  0  0  0
  -35.7409  -64.9112   49.2337 C   0  0  0  0  0  0  0  0  0  0  0  0
  -35.4697  -66.1930   49.0874 C   0  0  0  0  0  0  0  0  0  0  0  0
  -36.5408  -67.0750   49.2891 O   0  0  0  0  0  0  0  0  0  0  0  0
  -34.1688  -66.7406   48.7330 C   0  0  0  0  0  0  0  0  0  0  0  0
  -33.5688  -66.7140   47.5339 N   0  0  0  0  0  0  0  0  0  0  0  0
  -32.3394  -67.2873   47.5955 C   0  0  0  0  0  0  0  0  0  0  0  0
  -32.1980  -67.6768   48.8929 N   0  0  0  0  0  0  0  0  0  0  0  0
  -33.2678  -67.3693   49.6060 C   0  0  0  0  0  0  0  0  0  0  0  0
  -33.5849  -67.5840   51.0353 C   0  0  0  0  0  0  0  0  0  0  0  0
  -31.5072  -67.4047   46.4934 C   0  0  0  0  0  0  0  0  0  0  0  0
  -31.9224  -66.9274   45.2676 C   0  0  0  0  0  0  0  0  0  0  0  0
  -33.1828  -66.3436   45.2129 C   0  0  0  0  0  0  0  0  0  0  0  0
  -33.9730  -66.2453   46.3160 C   0  0  0  0  0  0  0  0  0  0  0  0
  -41.3653  -66.8618   51.2369 Br  0  0  0  0  0  0  0  0  0  0  0  0
  -40.1453  -66.3048   49.8914 C   0  0  0  0  0  0  0  0  0  0  0  0
  -39.0700  -65.4867   50.2395 C   0  0  0  0  0  0  0  0  0  0  0  0
  -38.1844  -65.0744   49.3014 C   0  0  0  0  0  0  0  0  0  0  0  0
  -38.3821  -65.4916   47.9807 C   0  0  0  0  0  0  0  0  0  0  0  0
  -39.4339  -66.2911   47.6449 C   0  0  0  0  0  0  0  0  0  0  0  0
  -40.3458  -66.7222   48.5835 C   0  0  0  0  0  0  0  0  0  0  0  0
  -38.0041  -62.3478   48.0242 C   0  0  0  0  0  0  0  0  0  0  0  0
  -37.6666  -62.0761   46.6042 C   0  0  0  0  0  0  0  0  0  0  0  0
  -37.5255  -60.6760   46.1692 C   0  0  0  0  0  0  0  0  0  0  0  0
  -36.2235  -60.1115   46.2458 N   0  0  0  0  0  0  0  0  0  0  0  0
  -36.2572  -58.7286   45.8346 C   0  0  0  0  0  0  0  0  0  0  0  0
  -35.3407  -60.7942   45.2813 C   0  0  0  0  0  0  0  0  0  0  0  0
  -35.7450  -60.2503   47.1625 H   0  0  0  0  0  0  0  0  0  0  0  0
 20 21  1  0  0  0
 21 22  2  0  0  0
 21 26  1  0  0  0
 22 23  1  0  0  0
 23 24  2  0  0  0
 23  1  1  0  0  0
 24 25  1  0  0  0
 25 26  2  0  0  0
  1  2  1  0  0  0
  1  7  1  0  0  0
  2  3  1  0  0  0
  2 27  1  0  0  0
  3  4  2  0  0  0
  3  5  1  0  0  0
  5  6  2  0  0  0
  5  7  1  0  0  0
  7  8  2  0  0  0
  8  9  1  0  0  0
  8 10  1  0  0  0
 10 11  1  0  0  0
 10 14  2  0  0  0
 11 12  1  0  0  0
 11 19  1  0  0  0
 12 13  2  0  0  0
 12 16  1  0  0  0
 13 14  1  0  0  0
 14 15  1  0  0  0
 16 17  2  0  0  0
 17 18  1  0  0  0
 18 19  2  0  0  0
 27 28  1  0  0  0
 28 29  1  0  0  0
 29 30  1  0  0  0
 30 31  1  0  0  0
 30 32  1  0  0  0
 30 33  1  0  0  0
M  CHG 1   9  -1
M  CHG 1  30   1
M  END
> <minimizedAffinity>
-6.23513

$$$$
188


 31 34  0  0  0  0  0  0  0  0999 V2000
  -39.5981  -64.1388   48.9855 C   0  0  0  0  0  0  0  0  0  0  0  0
  -38.6657  -64.9575   48.2251 N   0  0  0  0  0  0  0  0  0  0  0  0
  -39.3735  -66.2116   48.0801 C   0  0  0  0  0  0  0  0  0  0  0  0
  -39.2032  -67.0630   47.1814 O   0  0  0  0  0  0  0  0  0  0  0  0
  -40.3383  -66.3324   49.1650 C   0  0  0  0  0  0  0  0  0  0  0  0
  -41.1652  -67.2394   49.4399 O   0  0  0  0  0  0  0  0  0  0  0  0
  -40.1907  -65.1187   49.9673 C   0  0  0  0  0  0  0  0  0  0  0  0
  -40.5077  -64.9039   51.2116 C   0  0  0  0  0  0  0  0  0  0  0  0
  -40.2900  -63.6127   51.7379 O   0  0  0  0  0  0  0  0  0  0  0  0
  -41.2264  -62.5286   44.1253 Br  0  0  0  0  0  0  0  0  0  0  0  0
  -41.5520  -62.9412   45.9698 C   0  0  0  0  0  0  0  0  0  0  0  0
  -40.5334  -63.3729   46.8054 C   0  0  0  0  0  0  0  0  0  0  0  0
  -40.7343  -63.6789   48.1332 C   0  0  0  0  0  0  0  0  0  0  0  0
  -42.0159  -63.5420   48.6309 C   0  0  0  0  0  0  0  0  0  0  0  0
  -43.0541  -63.1088   47.8027 C   0  0  0  0  0  0  0  0  0  0  0  0
  -42.8300  -62.8070   46.4726 C   0  0  0  0  0  0  0  0  0  0  0  0
  -41.0654  -65.9659   52.0287 C   0  0  0  0  0  0  0  0  0  0  0  0
  -40.3528  -66.9427   52.5231 O   0  0  0  0  0  0  0  0  0  0  0  0
  -41.0924  -67.7647   53.2156 C   0  0  0  0  0  0  0  0  0  0  0  0
  -42.3758  -67.3103   53.1827 C   0  0  0  0  0  0  0  0  0  0  0  0
  -42.3664  -66.1422   52.4116 C   0  0  0  0  0  0  0  0  0  0  0  0
  -37.3602  -64.6715   47.6919 C   0  0  0  0  0  0  0  0  0  0  0  0
  -36.3293  -64.3356   48.7447 C   0  0  0  0  0  0  0  0  0  0  0  0
  -36.2133  -65.4557   49.7009 C   0  0  0  0  0  0  0  0  0  0  0  0
  -35.4810  -66.6038   49.2162 N   0  0  0  0  0  0  0  0  0  0  0  0
  -34.1639  -66.7071   49.7991 C   0  0  0  0  0  0  0  0  0  0  0  0
  -34.0691  -67.6097   50.9770 C   0  0  0  0  0  0  0  0  0  0  0  0
  -34.7715  -68.7922   50.8785 O   0  0  0  0  0  0  0  0  0  0  0  0
  -36.0909  -68.6261   50.4791 C   0  0  0  0  0  0  0  0  0  0  0  0
  -36.2011  -67.8317   49.2033 C   0  0  0  0  0  0  0  0  0  0  0  0
  -35.2937  -66.3706   48.1894 H   0  0  0  0  0  0  0  0  0  0  0  0
 10 11  1  0  0  0
 11 12  2  0  0  0
 11 16  1  0  0  0
 12 13  1  0  0  0
 13 14  2  0  0  0
 13  1  1  0  0  0
 14 15  1  0  0  0
 15 16  2  0  0  0
  1  2  1  0  0  0
  1  7  1  0  0  0
  2  3  1  0  0  0
  2 22  1  0  0  0
  3  4  2  0  0  0
  3  5  1  0  0  0
  5  6  2  0  0  0
  5  7  1  0  0  0
  7  8  2  0  0  0
  8  9  1  0  0  0
  8 17  1  0  0  0
 17 18  1  0  0  0
 17 21  2  0  0  0
 18 19  1  0  0  0
 19 20  2  0  0  0
 20 21  1  0  0  0
 22 23  1  0  0  0
 23 24  1  0  0  0
 24 25  1  0  0  0
 25 26  1  0  0  0
 25 30  1  0  0  0
 26 27  1  0  0  0
 27 28  1  0  0  0
 28 29  1  0  0  0
 29 30  1  0  0  0
 25 31  1  0  0  0
M  CHG 1   9  -1
M  CHG 1  25   1
M  END
> <minimizedAffinity>
-6.86847

$$$$
191


 34 37  0  0  0  0  0  0  0  0999 V2000
  -39.6318  -64.0573   48.7046 C   0  0  0  0  0  0  0  0  0  0  0  0
  -38.7321  -64.8998   47.9431 N   0  0  0  0  0  0  0  0  0  0  0  0
  -39.3320  -66.2135   47.9448 C   0  0  0  0  0  0  0  0  0  0  0  0
  -39.1106  -67.1163   47.1020 O   0  0  0  0  0  0  0  0  0  0  0  0
  -40.2257  -66.2652   49.1059 C   0  0  0  0  0  0  0  0  0  0  0  0
  -40.9498  -67.2177   49.4937 O   0  0  0  0  0  0  0  0  0  0  0  0
  -40.1493  -64.9770   49.7853 C   0  0  0  0  0  0  0  0  0  0  0  0
  -40.4732  -64.7016   51.0371 C   0  0  0  0  0  0  0  0  0  0  0  0
  -40.3505  -63.4141   51.4952 O   0  0  0  0  0  0  0  0  0  0  0  0
  -40.9613  -65.7500   51.9527 C   0  0  0  0  0  0  0  0  0  0  0  0
  -40.2702  -66.7774   52.3663 O   0  0  0  0  0  0  0  0  0  0  0  0
  -40.9234  -67.5536   53.1647 C   0  0  0  0  0  0  0  0  0  0  0  0
  -42.1759  -67.0080   53.3110 C   0  0  0  0  0  0  0  0  0  0  0  0
  -42.1982  -65.8641   52.5411 C   0  0  0  0  0  0  0  0  0  0  0  0
  -43.0787  -67.6575   54.1242 C   0  0  0  0  0  0  0  0  0  0  0  0
  -42.7535  -68.8261   54.7828 C   0  0  0  0  0  0  0  0  0  0  0  0
  -41.4669  -69.3450   54.6055 C   0  0  0  0  0  0  0  0  0  0  0  0
  -40.5417  -68.7261   53.8037 C   0  0  0  0  0  0  0  0  0  0  0  0
  -39.2899  -69.2673   53.6584 O   0  0  0  0  0  0  0  0  0  0  0  0
  -38.8247  -70.4564   54.2119 C   0  0  0  0  0  0  0  0  0  0  0  0
  -44.7983  -62.6159   48.5924 Br  0  0  0  0  0  0  0  0  0  0  0  0
  -43.0832  -62.8351   47.7459 C   0  0  0  0  0  0  0  0  0  0  0  0
  -42.0237  -63.3287   48.4503 C   0  0  0  0  0  0  0  0  0  0  0  0
  -40.7538  -63.5120   47.8990 C   0  0  0  0  0  0  0  0  0  0  0  0
  -40.6336  -63.1552   46.5741 C   0  0  0  0  0  0  0  0  0  0  0  0
  -41.7073  -62.6502   45.8451 C   0  0  0  0  0  0  0  0  0  0  0  0
  -42.9285  -62.4917   46.4355 C   0  0  0  0  0  0  0  0  0  0  0  0
  -37.5006  -64.5374   47.2852 C   0  0  0  0  0  0  0  0  0  0  0  0
  -36.3143  -64.6888   48.2063 C   0  0  0  0  0  0  0  0  0  0  0  0
  -35.3636  -65.7704   47.8401 C   0  0  0  0  0  0  0  0  0  0  0  0
  -35.9678  -67.0290   47.5323 N   0  0  0  0  0  0  0  0  0  0  0  0
  -36.0770  -67.8589   48.7353 C   0  0  0  0  0  0  0  0  0  0  0  0
  -35.2646  -67.7507   46.5171 C   0  0  0  0  0  0  0  0  0  0  0  0
  -36.9703  -66.9254   47.2026 H   0  0  0  0  0  0  0  0  0  0  0  0
 21 22  1  0  0  0
 22 23  2  0  0  0
 22 27  1  0  0  0
 23 24  1  0  0  0
 24 25  2  0  0  0
 24  1  1  0  0  0
 25 26  1  0  0  0
 26 27  2  0  0  0
  1  2  1  0  0  0
  1  7  1  0  0  0
  2  3  1  0  0  0
  2 28  1  0  0  0
  3  4  2  0  0  0
  3  5  1  0  0  0
  5  6  2  0  0  0
  5  7  1  0  0  0
  7  8  2  0  0  0
  8  9  1  0  0  0
  8 10  1  0  0  0
 10 11  1  0  0  0
 10 14  2  0  0  0
 11 12  1  0  0  0
 12 13  2  0  0  0
 12 18  1  0  0  0
 13 14  1  0  0  0
 13 15  1  0  0  0
 15 16  2  0  0  0
 16 17  1  0  0  0
 17 18  2  0  0  0
 18 19  1  0  0  0
 19 20  1  0  0  0
 28 29  1  0  0  0
 29 30  1  0  0  0
 30 31  1  0  0  0
 31 32  1  0  0  0
 31 33  1  0  0  0
 31 34  1  0  0  0
M  CHG 1   9  -1
M  CHG 1  31   1
M  END
> <minimizedAffinity>
-7.50419

$$$$
199


 25 28  0  0  0  0  0  0  0  0999 V2000
  -43.9156  -66.2853   54.2198 C   0  0  0  0  0  0  0  0  0  0  0  0
  -44.5888  -66.0937   52.8857 C   0  0  0  0  0  0  0  0  0  0  0  0
  -43.6184  -65.0538   52.5126 N   0  0  0  0  0  0  0  0  0  0  0  0
  -43.3099  -64.9440   53.9265 C   0  0  0  0  0  0  0  0  0  0  0  0
  -43.2250  -64.4745   51.2751 C   0  0  0  0  0  0  0  0  0  0  0  0
  -44.0027  -63.5743   50.6194 N   0  0  0  0  0  0  0  0  0  0  0  0
  -43.6015  -63.0320   49.4323 C   0  0  0  0  0  0  0  0  0  0  0  0
  -42.4330  -63.3680   48.8772 N   0  0  0  0  0  0  0  0  0  0  0  0
  -41.6197  -64.2460   49.4667 C   0  0  0  0  0  0  0  0  0  0  0  0
  -40.4153  -64.7412   49.1183 N   0  0  0  0  0  0  0  0  0  0  0  0
  -40.0688  -65.5789   50.0713 N   0  0  0  0  0  0  0  0  0  0  0  0
  -41.0154  -65.6324   51.0152 N   0  0  0  0  0  0  0  0  0  0  0  0
  -42.0272  -64.7931   50.6664 C   0  0  0  0  0  0  0  0  0  0  0  0
  -39.6237  -64.4324   47.9301 C   0  0  0  0  0  0  0  0  0  0  0  0
  -41.6445  -67.2250   53.7226 N   0  0  0  0  0  0  0  0  0  0  0  0
  -42.9310  -67.4226   54.2476 C   0  0  0  0  0  0  0  0  0  0  0  0
  -43.3559  -68.4740   54.7482 O   0  0  0  0  0  0  0  0  0  0  0  0
  -41.3960  -66.2521   53.3103 H   0  0  0  0  0  0  0  0  0  0  0  0
  -37.7147  -69.2825   50.8481 Br  0  0  0  0  0  0  0  0  0  0  0  0
  -38.7938  -69.1987   52.4163 C   0  0  0  0  0  0  0  0  0  0  0  0
  -39.8116  -68.2821   52.5403 C   0  0  0  0  0  0  0  0  0  0  0  0
  -40.6240  -68.1947   53.6807 C   0  0  0  0  0  0  0  0  0  0  0  0
  -40.3508  -69.0811   54.6844 C   0  0  0  0  0  0  0  0  0  0  0  0
  -39.3153  -70.0089   54.5490 C   0  0  0  0  0  0  0  0  0  0  0  0
  -38.5436  -70.0717   53.4330 C   0  0  0  0  0  0  0  0  0  0  0  0
 19 20  1  0  0  0
 20 21  2  0  0  0
 20 25  1  0  0  0
 21 22  1  0  0  0
 22 23  2  0  0  0
 22 15  1  0  0  0
 23 24  1  0  0  0
 24 25  2  0  0  0
 15 16  1  0  0  0
 16 17  2  0  0  0
 16  1  1  0  0  0
  1  2  1  0  0  0
  1  4  1  0  0  0
  2  3  1  0  0  0
  3  4  1  0  0  0
  3  5  1  0  0  0
  5  6  2  0  0  0
  5 13  1  0  0  0
  6  7  1  0  0  0
  7  8  2  0  0  0
  8  9  1  0  0  0
  9 10  1  0  0  0
  9 13  2  0  0  0
 10 11  1  0  0  0
 10 14  1  0  0  0
 11 12  2  0  0  0
 12 13  1  0  0  0
 15 18  1  0  0  0
M  END
> <minimizedAffinity>
-8.21595

$$$$
200


 21 24  0  0  0  0  0  0  0  0999 V2000
  -41.0225  -67.6030   51.9243 C   0  0  0  0  0  0  0  0  0  0  0  0
  -41.2955  -66.4098   51.4076 N   0  0  0  0  0  0  0  0  0  0  0  0
  -42.0594  -65.4698   51.9891 C   0  0  0  0  0  0  0  0  0  0  0  0
  -42.4726  -64.2269   51.6857 N   0  0  0  0  0  0  0  0  0  0  0  0
  -43.2228  -63.7383   52.6225 O   0  0  0  0  0  0  0  0  0  0  0  0
  -43.3187  -64.6284   53.5453 N   0  0  0  0  0  0  0  0  0  0  0  0
  -42.6244  -65.7338   53.2289 C   0  0  0  0  0  0  0  0  0  0  0  0
  -42.3780  -66.9265   53.7909 N   0  0  0  0  0  0  0  0  0  0  0  0
  -42.8012  -67.4076   54.9571 N   0  0  0  0  0  0  0  0  0  0  0  0
  -42.2930  -68.6430   55.0828 N   0  0  0  0  0  0  0  0  0  0  0  0
  -41.5656  -68.9018   53.9943 N   0  0  0  0  0  0  0  0  0  0  0  0
  -41.6097  -67.8429   53.1819 C   0  0  0  0  0  0  0  0  0  0  0  0
  -40.2263  -68.6219   51.3502 N   0  0  0  0  0  0  0  0  0  0  0  0
  -40.6627  -69.5601   51.1204 H   0  0  0  0  0  0  0  0  0  0  0  0
  -36.2337  -66.1810   48.7294 Br  0  0  0  0  0  0  0  0  0  0  0  0
  -36.9287  -67.4900   49.9289 C   0  0  0  0  0  0  0  0  0  0  0  0
  -38.2841  -67.5822   50.2000 C   0  0  0  0  0  0  0  0  0  0  0  0
  -38.8546  -68.4936   51.0468 C   0  0  0  0  0  0  0  0  0  0  0  0
  -37.9337  -69.3735   51.6542 C   0  0  0  0  0  0  0  0  0  0  0  0
  -36.5842  -69.3107   51.4086 C   0  0  0  0  0  0  0  0  0  0  0  0
  -36.0745  -68.3684   50.5436 C   0  0  0  0  0  0  0  0  0  0  0  0
 15 16  1  0  0  0
 16 17  2  0  0  0
 16 21  1  0  0  0
 17 18  1  0  0  0
 18 19  2  0  0  0
 18 13  1  0  0  0
 19 20  1  0  0  0
 20 21  2  0  0  0
 13  1  1  0  0  0
  1  2  2  0  0  0
  1 12  1  0  0  0
  2  3  1  0  0  0
  3  4  2  0  0  0
  3  7  1  0  0  0
  4  5  1  0  0  0
  5  6  1  0  0  0
  6  7  2  0  0  0
  7  8  1  0  0  0
  8  9  1  0  0  0
  8 12  1  0  0  0
  9 10  2  0  0  0
 10 11  1  0  0  0
 11 12  2  0  0  0
 13 14  1  0  0  0
M  END
> <minimizedAffinity>
-8.32953

$$$$
201


 25 28  0  0  0  0  0  0  0  0999 V2000
  -39.7404  -64.1840   49.1518 C   0  0  0  0  0  0  0  0  0  0  0  0
  -39.8716  -64.7595   48.0430 O   0  0  0  0  0  0  0  0  0  0  0  0
  -38.8473  -63.0982   49.2541 N   0  0  0  0  0  0  0  0  0  0  0  0
  -38.7515  -62.6322   50.1842 H   0  0  0  0  0  0  0  0  0  0  0  0
  -41.2454  -65.9197   51.9547 N   0  0  0  0  0  0  0  0  0  0  0  0
  -42.0186  -64.8725   51.8405 N   0  0  0  0  0  0  0  0  0  0  0  0
  -41.6162  -64.1010   50.8437 N   0  0  0  0  0  0  0  0  0  0  0  0
  -40.5249  -64.6727   50.2789 C   0  0  0  0  0  0  0  0  0  0  0  0
  -40.3065  -65.8252   50.9988 C   0  0  0  0  0  0  0  0  0  0  0  0
  -39.0203  -70.2393   54.1894 Br  0  0  0  0  0  0  0  0  0  0  0  0
  -40.4199  -68.9635   53.9722 C   0  0  0  0  0  0  0  0  0  0  0  0
  -40.3048  -67.9226   53.0450 C   0  0  0  0  0  0  0  0  0  0  0  0
  -41.3149  -67.0046   52.8900 C   0  0  0  0  0  0  0  0  0  0  0  0
  -42.4395  -67.1422   53.6743 C   0  0  0  0  0  0  0  0  0  0  0  0
  -42.5669  -68.1791   54.6051 C   0  0  0  0  0  0  0  0  0  0  0  0
  -41.5487  -69.0933   54.7515 C   0  0  0  0  0  0  0  0  0  0  0  0
  -38.0533  -62.5859   48.1605 C   0  0  0  0  0  0  0  0  0  0  0  0
  -36.5831  -62.7399   48.4396 C   0  0  0  0  0  0  0  0  0  0  0  0
  -35.9234  -63.8396   48.8761 N   0  0  0  0  0  0  0  0  0  0  0  0
  -34.6211  -63.5609   48.9949 C   0  0  0  0  0  0  0  0  0  0  0  0
  -34.4828  -62.2651   48.6250 N   0  0  0  0  0  0  0  0  0  0  0  0
  -35.6594  -61.7733   48.2915 N   0  0  0  0  0  0  0  0  0  0  0  0
  -33.8514  -64.7635   49.4808 C   0  0  0  0  0  0  0  0  0  0  0  0
  -34.9726  -65.6119   50.0427 C   0  0  0  0  0  0  0  0  0  0  0  0
  -36.2053  -65.2140   49.2533 C   0  0  0  0  0  0  0  0  0  0  0  0
 10 11  1  0  0  0
 11 12  2  0  0  0
 11 16  1  0  0  0
 12 13  1  0  0  0
 13 14  2  0  0  0
 13  5  1  0  0  0
 14 15  1  0  0  0
 15 16  2  0  0  0
  5  6  1  0  0  0
  5  9  1  0  0  0
  6  7  2  0  0  0
  7  8  1  0  0  0
  8  9  2  0  0  0
  8  1  1  0  0  0
  1  2  2  0  0  0
  1  3  1  0  0  0
  3 17  1  0  0  0
 17 18  1  0  0  0
 18 19  1  0  0  0
 18 22  2  0  0  0
 19 20  1  0  0  0
 19 25  1  0  0  0
 20 21  2  0  0  0
 20 23  1  0  0  0
 21 22  1  0  0  0
 23 24  1  0  0  0
 24 25  1  0  0  0
  3  4  1  0  0  0
M  END
> <minimizedAffinity>
-8.03468

$$$$
205


 25 28  0  0  0  0  0  0  0  0999 V2000
  -40.4340  -67.8927   52.3390 N   0  0  0  0  0  0  0  0  0  0  0  0
  -40.8187  -68.4544   53.6100 C   0  0  0  0  0  0  0  0  0  0  0  0
  -40.4079  -69.5710   54.0352 O   0  0  0  0  0  0  0  0  0  0  0  0
  -41.7298  -67.5330   54.2862 C   0  0  0  0  0  0  0  0  0  0  0  0
  -42.7462  -68.0637   55.0307 O   0  0  0  0  0  0  0  0  0  0  0  0
  -43.7672  -67.1362   54.8363 N   0  0  0  0  0  0  0  0  0  0  0  0
  -43.7295  -66.7191   53.4925 C   0  0  0  0  0  0  0  0  0  0  0  0
  -42.4693  -66.9562   53.1018 C   0  0  0  0  0  0  0  0  0  0  0  0
  -41.4786  -66.9529   52.0318 C   0  0  0  0  0  0  0  0  0  0  0  0
  -41.5304  -66.2438   51.0049 O   0  0  0  0  0  0  0  0  0  0  0  0
  -44.4328  -66.8140   55.5501 H   0  0  0  0  0  0  0  0  0  0  0  0
  -37.2869  -66.3908   48.3035 Br  0  0  0  0  0  0  0  0  0  0  0  0
  -37.8102  -67.5700   49.7080 C   0  0  0  0  0  0  0  0  0  0  0  0
  -38.8993  -67.3324   50.5079 C   0  0  0  0  0  0  0  0  0  0  0  0
  -39.3051  -68.1775   51.5384 C   0  0  0  0  0  0  0  0  0  0  0  0
  -38.5256  -69.3094   51.7202 C   0  0  0  0  0  0  0  0  0  0  0  0
  -37.4324  -69.5568   50.9255 C   0  0  0  0  0  0  0  0  0  0  0  0
  -37.0428  -68.7006   49.8997 C   0  0  0  0  0  0  0  0  0  0  0  0
  -44.7767  -66.1108   52.6867 C   0  0  0  0  0  0  0  0  0  0  0  0
  -46.1091  -66.5336   52.6656 C   0  0  0  0  0  0  0  0  0  0  0  0
  -46.7827  -65.7457   51.8513 N   0  0  0  0  0  0  0  0  0  0  0  0
  -45.9439  -64.8415   51.3514 N   0  0  0  0  0  0  0  0  0  0  0  0
  -44.7305  -65.0409   51.8374 C   0  0  0  0  0  0  0  0  0  0  0  0
  -48.2057  -65.8308   51.5274 C   0  0  0  0  0  0  0  0  0  0  0  0
  -46.6714  -67.6875   53.4061 C   0  0  0  0  0  0  0  0  0  0  0  0
 12 13  1  0  0  0
 13 14  2  0  0  0
 13 18  1  0  0  0
 14 15  1  0  0  0
 15 16  2  0  0  0
 15  1  1  0  0  0
 16 17  1  0  0  0
 17 18  2  0  0  0
  1  2  1  0  0  0
  1  9  1  0  0  0
  2  3  2  0  0  0
  2  4  1  0  0  0
  4  5  1  0  0  0
  4  8  1  0  0  0
  5  6  1  0  0  0
  6  7  1  0  0  0
  7  8  2  0  0  0
  7 19  1  0  0  0
  8  9  1  0  0  0
  9 10  2  0  0  0
 19 20  2  0  0  0
 19 23  1  0  0  0
 20 21  1  0  0  0
 20 25  1  0  0  0
 21 22  1  0  0  0
 21 24  1  0  0  0
 22 23  2  0  0  0
  6 11  1  0  0  0
M  END
> <minimizedAffinity>
-8.79938

$$$$
211


 22 25  0  0  0  0  0  0  0  0999 V2000
  -42.4259  -66.3617   53.2099 N   0  0  0  0  0  0  0  0  0  0  0  0
  -42.7191  -64.9937   52.9640 C   0  0  0  0  0  0  0  0  0  0  0  0
  -41.8695  -64.1289   52.5341 O   0  0  0  0  0  0  0  0  0  0  0  0
  -44.1331  -64.7438   53.2787 C   0  0  0  0  0  0  0  0  0  0  0  0
  -44.9311  -64.9049   52.0218 C   0  0  0  0  0  0  0  0  0  0  0  0
  -44.8331  -66.3103   51.8562 O   0  0  0  0  0  0  0  0  0  0  0  0
  -45.4684  -66.6550   53.0786 C   0  0  0  0  0  0  0  0  0  0  0  0
  -44.5508  -65.9553   54.0642 C   0  0  0  0  0  0  0  0  0  0  0  0
  -43.3481  -66.8025   54.1920 C   0  0  0  0  0  0  0  0  0  0  0  0
  -43.1895  -67.7359   55.0218 O   0  0  0  0  0  0  0  0  0  0  0  0
  -46.7381  -65.9093   52.9234 C   0  0  0  0  0  0  0  0  0  0  0  0
  -46.4010  -64.8042   52.2320 C   0  0  0  0  0  0  0  0  0  0  0  0
  -38.7303  -70.1059   53.8503 Br  0  0  0  0  0  0  0  0  0  0  0  0
  -39.6638  -68.8537   52.7519 C   0  0  0  0  0  0  0  0  0  0  0  0
  -40.6486  -68.0864   53.2867 C   0  0  0  0  0  0  0  0  0  0  0  0
  -41.3872  -67.1482   52.5818 C   0  0  0  0  0  0  0  0  0  0  0  0
  -41.0773  -67.0088   51.2483 C   0  0  0  0  0  0  0  0  0  0  0  0
  -40.0702  -67.7833   50.6669 C   0  0  0  0  0  0  0  0  0  0  0  0
  -39.3630  -68.7034   51.4121 C   0  0  0  0  0  0  0  0  0  0  0  0
  -44.4379  -64.1414   50.8521 C   0  0  0  0  0  0  0  0  0  0  0  0
  -44.3684  -62.7904   51.1964 O   0  0  0  0  0  0  0  0  0  0  0  0
  -44.7872  -62.2348   50.4923 H   0  0  0  0  0  0  0  0  0  0  0  0
 13 14  1  0  0  0
 14 15  2  0  0  0
 14 19  1  0  0  0
 15 16  1  0  0  0
 16 17  2  0  0  0
 16  1  1  0  0  0
 17 18  1  0  0  0
 18 19  2  0  0  0
  1  2  1  0  0  0
  1  9  1  0  0  0
  2  3  2  0  0  0
  2  4  1  0  0  0
  4  5  1  0  0  0
  4  8  1  0  0  0
  5  6  1  0  0  0
  5 12  1  0  0  0
  5 20  1  0  0  0
  6  7  1  0  0  0
  7  8  1  0  0  0
  7 11  1  0  0  0
  8  9  1  0  0  0
  9 10  2  0  0  0
 11 12  2  0  0  0
 20 21  1  0  0  0
 21 22  1  0  0  0
M  END
> <minimizedAffinity>
-8.29876

$$$$
213


 25 28  0  0  0  0  0  0  0  0999 V2000
  -41.7770  -66.9825   53.0971 N   0  0  0  0  0  0  0  0  0  0  0  0
  -41.6157  -65.7205   52.4130 C   0  0  0  0  0  0  0  0  0  0  0  0
  -40.7779  -65.4193   51.5557 O   0  0  0  0  0  0  0  0  0  0  0  0
  -42.6677  -64.7953   52.9254 C   0  0  0  0  0  0  0  0  0  0  0  0
  -43.1796  -63.9324   51.9738 O   0  0  0  0  0  0  0  0  0  0  0  0
  -44.4689  -63.7626   52.4201 N   0  0  0  0  0  0  0  0  0  0  0  0
  -44.9047  -65.0899   52.7645 C   0  0  0  0  0  0  0  0  0  0  0  0
  -43.8245  -65.7618   53.0822 C   0  0  0  0  0  0  0  0  0  0  0  0
  -43.1611  -66.9985   53.5123 C   0  0  0  0  0  0  0  0  0  0  0  0
  -43.7502  -67.8886   54.1347 O   0  0  0  0  0  0  0  0  0  0  0  0
  -45.0203  -62.9015   52.5001 H   0  0  0  0  0  0  0  0  0  0  0  0
  -37.7263  -69.6590   51.0052 Br  0  0  0  0  0  0  0  0  0  0  0  0
  -38.9064  -69.2377   52.4372 C   0  0  0  0  0  0  0  0  0  0  0  0
  -39.9065  -68.2743   52.2710 C   0  0  0  0  0  0  0  0  0  0  0  0
  -40.7709  -67.9558   53.2937 C   0  0  0  0  0  0  0  0  0  0  0  0
  -40.6155  -68.6184   54.4859 C   0  0  0  0  0  0  0  0  0  0  0  0
  -39.6140  -69.5849   54.6567 C   0  0  0  0  0  0  0  0  0  0  0  0
  -38.7495  -69.9022   53.6311 C   0  0  0  0  0  0  0  0  0  0  0  0
  -46.2398  -65.6240   52.7652 C   0  0  0  0  0  0  0  0  0  0  0  0
  -46.7992  -66.2392   53.8832 C   0  0  0  0  0  0  0  0  0  0  0  0
  -48.0564  -66.6260   53.6011 N   0  0  0  0  0  0  0  0  0  0  0  0
  -48.2714  -66.2629   52.3483 N   0  0  0  0  0  0  0  0  0  0  0  0
  -47.2193  -65.6591   51.7997 C   0  0  0  0  0  0  0  0  0  0  0  0
  -47.0880  -65.1034   50.4104 C   0  0  0  0  0  0  0  0  0  0  0  0
  -48.9881  -67.3134   54.5101 C   0  0  0  0  0  0  0  0  0  0  0  0
 12 13  1  0  0  0
 13 14  2  0  0  0
 13 18  1  0  0  0
 14 15  1  0  0  0
 15 16  2  0  0  0
 15  1  1  0  0  0
 16 17  1  0  0  0
 17 18  2  0  0  0
  1  2  1  0  0  0
  1  9  1  0  0  0
  2  3  2  0  0  0
  2  4  1  0  0  0
  4  5  1  0  0  0
  4  8  1  0  0  0
  5  6  1  0  0  0
  6  7  1  0  0  0
  7  8  2  0  0  0
  7 19  1  0  0  0
  8  9  1  0  0  0
  9 10  2  0  0  0
 19 20  2  0  0  0
 19 23  1  0  0  0
 20 21  1  0  0  0
 21 22  1  0  0  0
 21 25  1  0  0  0
 22 23  2  0  0  0
 23 24  1  0  0  0
  6 11  1  0  0  0
M  END
> <minimizedAffinity>
-8.84621

$$$$
216


 28 31  0  0  0  0  0  0  0  0999 V2000
  -40.4176  -64.1820   49.4010 C   0  0  0  0  0  0  0  0  0  0  0  0
  -40.3821  -62.9401   49.5875 O   0  0  0  0  0  0  0  0  0  0  0  0
  -39.6522  -64.8048   48.3925 N   0  0  0  0  0  0  0  0  0  0  0  0
  -39.6668  -66.2405   48.1490 C   0  0  0  0  0  0  0  0  0  0  0  0
  -38.3267  -66.6507   47.5517 C   0  0  0  0  0  0  0  0  0  0  0  0
  -37.2437  -65.7711   47.9454 N   0  0  0  0  0  0  0  0  0  0  0  0
  -37.4340  -64.4973   47.3459 C   0  0  0  0  0  0  0  0  0  0  0  0
  -38.8027  -63.9456   47.5581 C   0  0  0  0  0  0  0  0  0  0  0  0
  -41.8527  -65.8339   52.2485 N   0  0  0  0  0  0  0  0  0  0  0  0
  -40.7558  -65.0444   51.7088 C   0  0  0  0  0  0  0  0  0  0  0  0
  -41.2730  -64.9803   50.2565 C   0  0  0  0  0  0  0  0  0  0  0  0
  -42.6263  -64.3311   50.5675 C   0  0  0  0  0  0  0  0  0  0  0  0
  -43.0064  -65.1823   51.7290 C   0  0  0  0  0  0  0  0  0  0  0  0
  -44.1673  -65.3068   52.1821 O   0  0  0  0  0  0  0  0  0  0  0  0
  -38.8865  -70.0160   53.3575 Br  0  0  0  0  0  0  0  0  0  0  0  0
  -40.4045  -68.9391   53.6787 C   0  0  0  0  0  0  0  0  0  0  0  0
  -40.6100  -67.8048   52.9014 C   0  0  0  0  0  0  0  0  0  0  0  0
  -41.6967  -66.9684   53.0769 C   0  0  0  0  0  0  0  0  0  0  0  0
  -42.5744  -67.3274   54.0762 C   0  0  0  0  0  0  0  0  0  0  0  0
  -42.4328  -68.4373   54.8832 C   0  0  0  0  0  0  0  0  0  0  0  0
  -41.3342  -69.2420   54.6725 C   0  0  0  0  0  0  0  0  0  0  0  0
  -36.9982  -65.8029   49.3432 C   0  0  0  0  0  0  0  0  0  0  0  0
  -35.5608  -66.0710   49.7098 C   0  0  0  0  0  0  0  0  0  0  0  0
  -35.3496  -67.3274   50.3696 N   0  0  0  0  0  0  0  0  0  0  0  0
  -34.2304  -67.7973   50.9235 C   0  0  0  0  0  0  0  0  0  0  0  0
  -34.4603  -69.0273   51.4313 N   0  0  0  0  0  0  0  0  0  0  0  0
  -35.7396  -69.3426   51.1978 C   0  0  0  0  0  0  0  0  0  0  0  0
  -36.2873  -68.2711   50.5318 C   0  0  0  0  0  0  0  0  0  0  0  0
 15 16  1  0  0  0
 16 17  2  0  0  0
 16 21  1  0  0  0
 17 18  1  0  0  0
 18 19  2  0  0  0
 18  9  1  0  0  0
 19 20  1  0  0  0
 20 21  2  0  0  0
  9 10  1  0  0  0
  9 13  1  0  0  0
 10 11  1  0  0  0
 11 12  1  0  0  0
 11  1  1  0  0  0
 12 13  1  0  0  0
 13 14  2  0  0  0
  1  2  2  0  0  0
  1  3  1  0  0  0
  3  4  1  0  0  0
  3  8  1  0  0  0
  4  5  1  0  0  0
  5  6  1  0  0  0
  6  7  1  0  0  0
  6 22  1  0  0  0
  7  8  1  0  0  0
 22 23  1  0  0  0
 23 24  1  0  0  0
 24 25  1  0  0  0
 24 28  1  0  0  0
 25 26  2  0  0  0
 26 27  1  0  0  0
 27 28  2  0  0  0
M  END
> <minimizedAffinity>
-8.14705

$$$$
219


 27 30  0  0  0  0  0  0  0  0999 V2000
  -41.6450  -64.9135   49.4589 N   0  0  0  0  0  0  0  0  0  0  0  0
  -41.8185  -64.8702   50.8697 C   0  0  0  0  0  0  0  0  0  0  0  0
  -41.2217  -63.9023   51.4582 O   0  0  0  0  0  0  0  0  0  0  0  0
  -42.1128  -65.6777   48.9275 H   0  0  0  0  0  0  0  0  0  0  0  0
  -42.6117  -65.8363   51.6570 C   0  0  0  0  0  0  0  0  0  0  0  0
  -41.8327  -66.7679   52.4262 N   0  0  0  0  0  0  0  0  0  0  0  0
  -40.8961  -67.6687   51.8115 C   0  0  0  0  0  0  0  0  0  0  0  0
  -40.8252  -67.9976   50.6010 O   0  0  0  0  0  0  0  0  0  0  0  0
  -40.0037  -68.1627   52.8600 C   0  0  0  0  0  0  0  0  0  0  0  0
  -40.4486  -67.4973   54.1777 C   0  0  0  0  0  0  0  0  0  0  0  0
  -40.5847  -68.5961   55.1718 C   0  0  0  0  0  0  0  0  0  0  0  0
  -39.5571  -69.6094   54.6247 C   0  0  0  0  0  0  0  0  0  0  0  0
  -40.1852  -69.6127   53.2166 C   0  0  0  0  0  0  0  0  0  0  0  0
  -41.6191  -69.8221   53.6124 C   0  0  0  0  0  0  0  0  0  0  0  0
  -41.8198  -69.3483   54.8377 C   0  0  0  0  0  0  0  0  0  0  0  0
  -41.8007  -66.9784   53.8442 C   0  0  0  0  0  0  0  0  0  0  0  0
  -42.7467  -66.7592   54.6204 O   0  0  0  0  0  0  0  0  0  0  0  0
  -40.8580  -63.9540   48.7454 C   0  0  0  0  0  0  0  0  0  0  0  0
  -39.8940  -64.6615   47.7802 C   0  0  0  0  0  0  0  0  0  0  0  0
  -38.8811  -65.1748   48.3991 O   0  0  0  0  0  0  0  0  0  0  0  0
  -37.1187  -69.4100   50.8542 Br  0  0  0  0  0  0  0  0  0  0  0  0
  -36.9256  -67.6706   50.0906 C   0  0  0  0  0  0  0  0  0  0  0  0
  -37.9737  -67.0158   49.5038 C   0  0  0  0  0  0  0  0  0  0  0  0
  -37.8597  -65.7348   48.9338 C   0  0  0  0  0  0  0  0  0  0  0  0
  -36.5717  -65.1676   49.0129 C   0  0  0  0  0  0  0  0  0  0  0  0
  -35.5179  -65.8223   49.6016 C   0  0  0  0  0  0  0  0  0  0  0  0
  -35.6923  -67.0799   50.1439 C   0  0  0  0  0  0  0  0  0  0  0  0
 21 22  1  0  0  0
 22 23  2  0  0  0
 22 27  1  0  0  0
 23 24  1  0  0  0
 24 25  2  0  0  0
 24 20  1  0  0  0
 25 26  1  0  0  0
 26 27  2  0  0  0
 20 19  1  0  0  0
 19 18  1  0  0  0
 18  1  1  0  0  0
  1  2  1  0  0  0
  2  3  2  0  0  0
  2  5  1  0  0  0
  5  6  1  0  0  0
  6  7  1  0  0  0
  6 16  1  0  0  0
  7  8  2  0  0  0
  7  9  1  0  0  0
  9 10  1  0  0  0
  9 13  1  0  0  0
 10 11  1  0  0  0
 10 16  1  0  0  0
 11 12  1  0  0  0
 11 15  1  0  0  0
 12 13  1  0  0  0
 13 14  1  0  0  0
 14 15  2  0  0  0
 16 17  2  0  0  0
  1  4  1  0  0  0
M  END
> <minimizedAffinity>
-7.73852

$$$$
226


 30 33  0  0  0  0  0  0  0  0999 V2000
  -39.2561  -68.0167   50.9926 N   0  0  0  0  0  0  0  0  0  0  0  0
  -39.9595  -68.4086   52.0679 C   0  0  0  0  0  0  0  0  0  0  0  0
  -40.8307  -67.4050   52.4464 C   0  0  0  0  0  0  0  0  0  0  0  0
  -40.6230  -66.4166   51.5679 N   0  0  0  0  0  0  0  0  0  0  0  0
  -39.6757  -66.7587   50.6765 C   0  0  0  0  0  0  0  0  0  0  0  0
  -41.6425  -67.5785   53.5051 N   0  0  0  0  0  0  0  0  0  0  0  0
  -41.6179  -68.7244   54.2081 C   0  0  0  0  0  0  0  0  0  0  0  0
  -42.3581  -68.9277   55.2022 O   0  0  0  0  0  0  0  0  0  0  0  0
  -40.7649  -69.7218   53.8457 N   0  0  0  0  0  0  0  0  0  0  0  0
  -39.9340  -69.5960   52.7955 C   0  0  0  0  0  0  0  0  0  0  0  0
  -39.1488  -70.5514   52.4895 O   0  0  0  0  0  0  0  0  0  0  0  0
  -42.5659  -66.5455   53.9276 C   0  0  0  0  0  0  0  0  0  0  0  0
  -40.7780  -70.5975   54.4185 H   0  0  0  0  0  0  0  0  0  0  0  0
  -39.1671  -66.0096   49.5884 N   0  0  0  0  0  0  0  0  0  0  0  0
  -38.2327  -64.9618   49.8450 C   0  0  0  0  0  0  0  0  0  0  0  0
  -37.4620  -64.4428   48.6888 C   0  0  0  0  0  0  0  0  0  0  0  0
  -38.0744  -64.6114   47.4042 N   0  0  0  0  0  0  0  0  0  0  0  0
  -38.4559  -66.0037   47.2690 C   0  0  0  0  0  0  0  0  0  0  0  0
  -39.5858  -66.3095   48.2537 C   0  0  0  0  0  0  0  0  0  0  0  0
  -39.1628  -63.7081   47.1612 C   0  0  0  0  0  0  0  0  0  0  0  0
  -38.2553  -68.7659   50.2868 C   0  0  0  0  0  0  0  0  0  0  0  0
  -36.8732  -68.5437   50.8151 C   0  0  0  0  0  0  0  0  0  0  0  0
  -36.5346  -69.0017   51.9185 O   0  0  0  0  0  0  0  0  0  0  0  0
  -32.7164  -65.3387   47.5310 Br  0  0  0  0  0  0  0  0  0  0  0  0
  -33.9792  -66.3121   48.5674 C   0  0  0  0  0  0  0  0  0  0  0  0
  -34.9604  -67.0686   47.9432 C   0  0  0  0  0  0  0  0  0  0  0  0
  -35.8939  -67.7879   48.6708 C   0  0  0  0  0  0  0  0  0  0  0  0
  -35.8916  -67.7838   50.0441 C   0  0  0  0  0  0  0  0  0  0  0  0
  -34.9084  -67.0259   50.6547 C   0  0  0  0  0  0  0  0  0  0  0  0
  -33.9741  -66.3069   49.9446 C   0  0  0  0  0  0  0  0  0  0  0  0
 24 25  1  0  0  0
 25 26  2  0  0  0
 25 30  1  0  0  0
 26 27  1  0  0  0
 27 28  2  0  0  0
 28 29  1  0  0  0
 28 22  1  0  0  0
 29 30  2  0  0  0
 22 23  2  0  0  0
 22 21  1  0  0  0
 21  1  1  0  0  0
  1  2  1  0  0  0
  1  5  1  0  0  0
  2  3  2  0  0  0
  2 10  1  0  0  0
  3  4  1  0  0  0
  3  6  1  0  0  0
  4  5  2  0  0  0
  5 14  1  0  0  0
 14 15  1  0  0  0
 14 19  1  0  0  0
 15 16  1  0  0  0
 16 17  1  0  0  0
 17 18  1  0  0  0
 17 20  1  0  0  0
 18 19  1  0  0  0
  6  7  1  0  0  0
  6 12  1  0  0  0
  7  8  2  0  0  0
  7  9  1  0  0  0
  9 10  1  0  0  0
 10 11  2  0  0  0
  9 13  1  0  0  0
M  END
> <minimizedAffinity>
-7.49547

$$$$
231


 34 37  0  0  0  0  0  0  0  0999 V2000
  -36.8686  -67.1539   49.4911 C   0  0  0  0  0  0  0  0  0  0  0  0
  -36.2532  -65.7804   49.6028 C   0  0  0  0  0  0  0  0  0  0  0  0
  -34.8598  -66.0482   49.3295 N   0  0  0  0  0  0  0  0  0  0  0  0
  -34.8352  -67.1046   48.3751 C   0  0  0  0  0  0  0  0  0  0  0  0
  -33.8050  -67.5353   47.7704 O   0  0  0  0  0  0  0  0  0  0  0  0
  -36.2123  -67.6085   48.2103 C   0  0  0  0  0  0  0  0  0  0  0  0
  -36.6743  -68.2422   47.2482 O   0  0  0  0  0  0  0  0  0  0  0  0
  -36.8535  -64.7784   48.7358 C   0  0  0  0  0  0  0  0  0  0  0  0
  -37.9493  -64.0035   49.1421 C   0  0  0  0  0  0  0  0  0  0  0  0
  -38.5108  -63.0521   48.3159 C   0  0  0  0  0  0  0  0  0  0  0  0
  -38.0096  -62.8236   47.0477 C   0  0  0  0  0  0  0  0  0  0  0  0
  -36.9317  -63.5737   46.6283 C   0  0  0  0  0  0  0  0  0  0  0  0
  -36.3791  -64.5265   47.4697 C   0  0  0  0  0  0  0  0  0  0  0  0
  -38.5563  -61.8723   46.1956 O   0  0  0  0  0  0  0  0  0  0  0  0
  -39.5924  -62.2845   48.7105 O   0  0  0  0  0  0  0  0  0  0  0  0
  -40.9299  -62.6792   48.5415 C   0  0  0  0  0  0  0  0  0  0  0  0
  -38.3170  -67.1769   49.4045 C   0  0  0  0  0  0  0  0  0  0  0  0
  -38.9064  -66.8938   48.3411 O   0  0  0  0  0  0  0  0  0  0  0  0
  -41.6141  -68.7800   54.3221 Br  0  0  0  0  0  0  0  0  0  0  0  0
  -40.6077  -68.2637   52.7984 C   0  0  0  0  0  0  0  0  0  0  0  0
  -39.5148  -69.0154   52.4391 C   0  0  0  0  0  0  0  0  0  0  0  0
  -38.7789  -68.6536   51.3409 C   0  0  0  0  0  0  0  0  0  0  0  0
  -39.1089  -67.5350   50.5670 C   0  0  0  0  0  0  0  0  0  0  0  0
  -40.2167  -66.8237   50.9811 C   0  0  0  0  0  0  0  0  0  0  0  0
  -40.9824  -67.1578   52.0827 C   0  0  0  0  0  0  0  0  0  0  0  0
  -33.6751  -65.4261   49.8659 C   0  0  0  0  0  0  0  0  0  0  0  0
  -33.4077  -64.0627   49.3046 C   0  0  0  0  0  0  0  0  0  0  0  0
  -32.0807  -63.8250   48.8854 N   0  0  0  0  0  0  0  0  0  0  0  0
  -32.0873  -62.6614   47.9926 C   0  0  0  0  0  0  0  0  0  0  0  0
  -32.7242  -62.9543   46.6745 C   0  0  0  0  0  0  0  0  0  0  0  0
  -32.9040  -64.2890   46.4050 O   0  0  0  0  0  0  0  0  0  0  0  0
  -31.7966  -65.0221   46.7536 C   0  0  0  0  0  0  0  0  0  0  0  0
  -31.4247  -64.8845   48.2052 C   0  0  0  0  0  0  0  0  0  0  0  0
  -31.4710  -63.5316   49.6987 H   0  0  0  0  0  0  0  0  0  0  0  0
 19 20  1  0  0  0
 20 21  2  0  0  0
 20 25  1  0  0  0
 21 22  1  0  0  0
 22 23  2  0  0  0
 23 24  1  0  0  0
 23 17  1  0  0  0
 24 25  2  0  0  0
 17 18  2  0  0  0
 17  1  1  0  0  0
  1  2  1  0  0  0
  1  6  1  0  0  0
  2  3  1  0  0  0
  2  8  1  0  0  0
  3  4  1  0  0  0
  3 26  1  0  0  0
  4  5  2  0  0  0
  4  6  1  0  0  0
  6  7  2  0  0  0
 26 27  1  0  0  0
 27 28  1  0  0  0
 28 29  1  0  0  0
 28 33  1  0  0  0
 29 30  1  0  0  0
 30 31  1  0  0  0
 31 32  1  0  0  0
 32 33  1  0  0  0
  8  9  2  0  0  0
  8 13  1  0  0  0
  9 10  1  0  0  0
 10 11  2  0  0  0
 10 15  1  0  0  0
 11 12  1  0  0  0
 11 14  1  0  0  0
 12 13  2  0  0  0
 15 16  1  0  0  0
 28 34  1  0  0  0
M  CHG 1  14  -1
M  CHG 1  28   1
M  END
> <minimizedAffinity>
-7.66308

$$$$
235


 25 28  0  0  0  0  0  0  0  0999 V2000
  -35.0711  -67.2846   49.7008 C   0  0  0  0  0  0  0  0  0  0  0  0
  -34.2397  -67.1859   48.5114 N   0  0  0  0  0  0  0  0  0  0  0  0
  -34.3716  -67.4405   47.1618 N   0  0  0  0  0  0  0  0  0  0  0  0
  -33.4734  -67.1440   46.2899 C   0  0  0  0  0  0  0  0  0  0  0  0
  -32.2423  -66.5195   46.7161 C   0  0  0  0  0  0  0  0  0  0  0  0
  -32.0307  -66.2705   47.9875 C   0  0  0  0  0  0  0  0  0  0  0  0
  -32.9950  -66.6120   49.0165 C   0  0  0  0  0  0  0  0  0  0  0  0
  -33.5098  -65.4846   49.8395 C   0  0  0  0  0  0  0  0  0  0  0  0
  -34.9324  -65.8817   50.2500 C   0  0  0  0  0  0  0  0  0  0  0  0
  -35.7819  -64.9114   49.5628 C   0  0  0  0  0  0  0  0  0  0  0  0
  -37.0293  -65.0140   49.4004 O   0  0  0  0  0  0  0  0  0  0  0  0
  -34.9785  -63.8399   49.1081 N   0  0  0  0  0  0  0  0  0  0  0  0
  -33.6066  -64.2130   49.1125 C   0  0  0  0  0  0  0  0  0  0  0  0
  -32.6527  -63.5821   48.5959 O   0  0  0  0  0  0  0  0  0  0  0  0
  -36.4576  -67.6308   49.3590 C   0  0  0  0  0  0  0  0  0  0  0  0
  -36.7659  -67.5827   48.1238 O   0  0  0  0  0  0  0  0  0  0  0  0
  -40.7748  -69.3545   53.4219 Br  0  0  0  0  0  0  0  0  0  0  0  0
  -39.4276  -68.8316   52.1744 C   0  0  0  0  0  0  0  0  0  0  0  0
  -39.6859  -67.8988   51.1939 C   0  0  0  0  0  0  0  0  0  0  0  0
  -38.7481  -67.4905   50.2729 C   0  0  0  0  0  0  0  0  0  0  0  0
  -37.4825  -68.0169   50.3023 C   0  0  0  0  0  0  0  0  0  0  0  0
  -37.2106  -68.9562   51.2843 C   0  0  0  0  0  0  0  0  0  0  0  0
  -38.1547  -69.3582   52.2008 C   0  0  0  0  0  0  0  0  0  0  0  0
  -35.4580  -62.5421   48.6940 C   0  0  0  0  0  0  0  0  0  0  0  0
  -35.7610  -62.4546   47.2291 C   0  0  0  0  0  0  0  0  0  0  0  0
 17 18  1  0  0  0
 18 19  2  0  0  0
 18 23  1  0  0  0
 19 20  1  0  0  0
 20 21  2  0  0  0
 21 22  1  0  0  0
 21 15  1  0  0  0
 22 23  2  0  0  0
 15 16  2  0  0  0
 15  1  1  0  0  0
  1  2  1  0  0  0
  1  9  1  0  0  0
  2  3  1  0  0  0
  2  7  1  0  0  0
  3  4  2  0  0  0
  4  5  1  0  0  0
  5  6  2  0  0  0
  6  7  1  0  0  0
  7  8  1  0  0  0
  8  9  1  0  0  0
  8 13  1  0  0  0
  9 10  1  0  0  0
 10 11  2  0  0  0
 10 12  1  0  0  0
 12 13  1  0  0  0
 12 24  1  0  0  0
 13 14  2  0  0  0
 24 25  1  0  0  0
M  END
> <minimizedAffinity>
-7.58959

$$$$
243


 30 33  0  0  0  0  0  0  0  0999 V2000
  -44.0854  -67.0778   54.1678 C   0  0  0  0  0  0  0  0  0  0  0  0
  -45.3150  -67.2860   53.3179 C   0  0  0  0  0  0  0  0  0  0  0  0
  -45.5893  -65.9788   52.7607 N   0  0  0  0  0  0  0  0  0  0  0  0
  -44.9095  -64.9554   53.5372 C   0  0  0  0  0  0  0  0  0  0  0  0
  -44.0693  -65.6279   54.5657 C   0  0  0  0  0  0  0  0  0  0  0  0
  -44.1287  -64.1565   52.5655 C   0  0  0  0  0  0  0  0  0  0  0  0
  -42.9249  -63.9093   52.8002 O   0  0  0  0  0  0  0  0  0  0  0  0
  -44.7847  -63.7000   51.3966 N   0  0  0  0  0  0  0  0  0  0  0  0
  -46.0191  -64.2614   50.8983 C   0  0  0  0  0  0  0  0  0  0  0  0
  -46.3512  -65.4990   51.6606 C   0  0  0  0  0  0  0  0  0  0  0  0
  -47.3772  -66.1935   51.3262 O   0  0  0  0  0  0  0  0  0  0  0  0
  -44.3193  -62.9050   50.8844 H   0  0  0  0  0  0  0  0  0  0  0  0
  -41.9195  -68.2454   53.9632 C   0  0  0  0  0  0  0  0  0  0  0  0
  -42.1114  -68.8327   55.0814 O   0  0  0  0  0  0  0  0  0  0  0  0
  -42.8677  -67.3563   53.4507 N   0  0  0  0  0  0  0  0  0  0  0  0
  -42.7096  -66.8829   52.5456 H   0  0  0  0  0  0  0  0  0  0  0  0
  -36.6119  -69.5869   51.0451 Br  0  0  0  0  0  0  0  0  0  0  0  0
  -38.2291  -69.1967   51.9633 C   0  0  0  0  0  0  0  0  0  0  0  0
  -38.5790  -69.7826   53.1627 C   0  0  0  0  0  0  0  0  0  0  0  0
  -39.7620  -69.4770   53.8042 C   0  0  0  0  0  0  0  0  0  0  0  0
  -40.6594  -68.5701   53.2798 C   0  0  0  0  0  0  0  0  0  0  0  0
  -40.3106  -67.9862   52.0839 C   0  0  0  0  0  0  0  0  0  0  0  0
  -39.1350  -68.2829   51.4367 C   0  0  0  0  0  0  0  0  0  0  0  0
  -47.1361  -63.2464   50.9331 C   0  0  0  0  0  0  0  0  0  0  0  0
  -47.2183  -62.4831   49.6560 C   0  0  0  0  0  0  0  0  0  0  0  0
  -47.5048  -61.1174   49.6640 C   0  0  0  0  0  0  0  0  0  0  0  0
  -47.5678  -60.4627   48.4539 C   0  0  0  0  0  0  0  0  0  0  0  0
  -47.3597  -61.0964   47.2413 C   0  0  0  0  0  0  0  0  0  0  0  0
  -47.0803  -62.4424   47.2843 C   0  0  0  0  0  0  0  0  0  0  0  0
  -47.0050  -63.1504   48.4634 C   0  0  0  0  0  0  0  0  0  0  0  0
 17 18  1  0  0  0
 18 19  2  0  0  0
 18 23  1  0  0  0
 19 20  1  0  0  0
 20 21  2  0  0  0
 21 22  1  0  0  0
 21 13  1  0  0  0
 22 23  2  0  0  0
 13 14  2  0  0  0
 13 15  1  0  0  0
 15  1  1  0  0  0
  1  2  1  0  0  0
  1  5  1  0  0  0
  2  3  1  0  0  0
  3  4  1  0  0  0
  3 10  1  0  0  0
  4  5  1  0  0  0
  4  6  1  0  0  0
  6  7  2  0  0  0
  6  8  1  0  0  0
  8  9  1  0  0  0
  9 10  1  0  0  0
  9 24  1  0  0  0
 10 11  2  0  0  0
 24 25  1  0  0  0
 25 26  2  0  0  0
 25 30  1  0  0  0
 26 27  1  0  0  0
 27 28  2  0  0  0
 28 29  1  0  0  0
 29 30  2  0  0  0
 15 16  1  0  0  0
  8 12  1  0  0  0
M  END
> <minimizedAffinity>
-8.34055

$$$$
244


 25 28  0  0  0  0  0  0  0  0999 V2000
  -44.1369  -67.1046   54.2930 C   0  0  0  0  0  0  0  0  0  0  0  0
  -45.4692  -67.3744   53.6332 C   0  0  0  0  0  0  0  0  0  0  0  0
  -45.7293  -66.1430   52.9088 N   0  0  0  0  0  0  0  0  0  0  0  0
  -45.0345  -65.0525   53.5642 C   0  0  0  0  0  0  0  0  0  0  0  0
  -44.1493  -65.6306   54.6165 C   0  0  0  0  0  0  0  0  0  0  0  0
  -44.2856  -64.3301   52.5048 C   0  0  0  0  0  0  0  0  0  0  0  0
  -43.0906  -63.9713   52.6218 O   0  0  0  0  0  0  0  0  0  0  0  0
  -44.9299  -64.0153   51.2843 N   0  0  0  0  0  0  0  0  0  0  0  0
  -46.0349  -64.7945   50.7655 C   0  0  0  0  0  0  0  0  0  0  0  0
  -47.0310  -63.7160   50.4795 C   0  0  0  0  0  0  0  0  0  0  0  0
  -46.1355  -62.6249   49.8805 C   0  0  0  0  0  0  0  0  0  0  0  0
  -44.7109  -62.9657   50.3287 C   0  0  0  0  0  0  0  0  0  0  0  0
  -46.4864  -65.8072   51.7527 C   0  0  0  0  0  0  0  0  0  0  0  0
  -47.5975  -66.4147   51.5759 O   0  0  0  0  0  0  0  0  0  0  0  0
  -41.8725  -68.0071   53.9679 C   0  0  0  0  0  0  0  0  0  0  0  0
  -41.8464  -68.3418   55.1705 O   0  0  0  0  0  0  0  0  0  0  0  0
  -43.0220  -67.3637   53.4425 N   0  0  0  0  0  0  0  0  0  0  0  0
  -43.0860  -67.0647   52.4370 H   0  0  0  0  0  0  0  0  0  0  0  0
  -37.0164  -69.0535   50.2825 Br  0  0  0  0  0  0  0  0  0  0  0  0
  -38.4859  -68.7756   51.4514 C   0  0  0  0  0  0  0  0  0  0  0  0
  -39.4372  -67.8185   51.1428 C   0  0  0  0  0  0  0  0  0  0  0  0
  -40.5222  -67.5765   51.9563 C   0  0  0  0  0  0  0  0  0  0  0  0
  -40.6985  -68.2921   53.1198 C   0  0  0  0  0  0  0  0  0  0  0  0
  -39.7660  -69.2357   53.4293 C   0  0  0  0  0  0  0  0  0  0  0  0
  -38.6624  -69.4935   52.6193 C   0  0  0  0  0  0  0  0  0  0  0  0
 19 20  1  0  0  0
 20 21  2  0  0  0
 20 25  1  0  0  0
 21 22  1  0  0  0
 22 23  2  0  0  0
 23 24  1  0  0  0
 23 15  1  0  0  0
 24 25  2  0  0  0
 15 16  2  0  0  0
 15 17  1  0  0  0
 17  1  1  0  0  0
  1  2  1  0  0  0
  1  5  1  0  0  0
  2  3  1  0  0  0
  3  4  1  0  0  0
  3 13  1  0  0  0
  4  5  1  0  0  0
  4  6  1  0  0  0
  6  7  2  0  0  0
  6  8  1  0  0  0
  8  9  1  0  0  0
  8 12  1  0  0  0
  9 10  1  0  0  0
  9 13  1  0  0  0
 10 11  1  0  0  0
 11 12  1  0  0  0
 13 14  2  0  0  0
 17 18  1  0  0  0
M  END
> <minimizedAffinity>
-8.22517

$$$$
247


 23 26  0  0  0  0  0  0  0  0999 V2000
  -42.9990  -66.0496   52.1457 N   0  0  0  0  0  0  0  0  0  0  0  0
  -41.8612  -66.7250   52.6695 C   0  0  0  0  0  0  0  0  0  0  0  0
  -41.9818  -67.7433   53.4325 O   0  0  0  0  0  0  0  0  0  0  0  0
  -40.6079  -66.0780   52.2017 C   0  0  0  0  0  0  0  0  0  0  0  0
  -41.1334  -65.0528   51.2152 C   0  0  0  0  0  0  0  0  0  0  0  0
  -40.9096  -65.7808   49.9071 C   0  0  0  0  0  0  0  0  0  0  0  0
  -39.4339  -66.1630   50.1468 C   0  0  0  0  0  0  0  0  0  0  0  0
  -39.7803  -67.0229   51.3768 C   0  0  0  0  0  0  0  0  0  0  0  0
  -40.7591  -67.9491   50.7043 C   0  0  0  0  0  0  0  0  0  0  0  0
  -41.4975  -67.1486   49.9452 C   0  0  0  0  0  0  0  0  0  0  0  0
  -42.5637  -64.8625   51.5142 C   0  0  0  0  0  0  0  0  0  0  0  0
  -43.2346  -63.8414   51.2502 O   0  0  0  0  0  0  0  0  0  0  0  0
  -45.1501  -66.1877   53.3485 C   0  0  0  0  0  0  0  0  0  0  0  0
  -44.6677  -65.6214   54.3826 O   0  0  0  0  0  0  0  0  0  0  0  0
  -44.3660  -66.4269   52.2000 N   0  0  0  0  0  0  0  0  0  0  0  0
  -44.7872  -66.8813   51.3699 H   0  0  0  0  0  0  0  0  0  0  0  0
  -50.9982  -68.0648   53.5012 Br  0  0  0  0  0  0  0  0  0  0  0  0
  -49.1871  -67.4524   53.4549 C   0  0  0  0  0  0  0  0  0  0  0  0
  -48.1683  -68.3374   53.6564 C   0  0  0  0  0  0  0  0  0  0  0  0
  -46.8557  -67.9138   53.6236 C   0  0  0  0  0  0  0  0  0  0  0  0
  -46.5383  -66.5801   53.3857 C   0  0  0  0  0  0  0  0  0  0  0  0
  -47.5785  -65.7023   53.1846 C   0  0  0  0  0  0  0  0  0  0  0  0
  -48.8863  -66.1120   53.2153 C   0  0  0  0  0  0  0  0  0  0  0  0
 17 18  1  0  0  0
 18 19  2  0  0  0
 18 23  1  0  0  0
 19 20  1  0  0  0
 20 21  2  0  0  0
 21 22  1  0  0  0
 21 13  1  0  0  0
 22 23  2  0  0  0
 13 14  2  0  0  0
 13 15  1  0  0  0
 15  1  1  0  0  0
  1  2  1  0  0  0
  1 11  1  0  0  0
  2  3  2  0  0  0
  2  4  1  0  0  0
  4  5  1  0  0  0
  4  8  1  0  0  0
  5  6  1  0  0  0
  5 11  1  0  0  0
  6  7  1  0  0  0
  6 10  1  0  0  0
  7  8  1  0  0  0
  8  9  1  0  0  0
  9 10  2  0  0  0
 11 12  2  0  0  0
 15 16  1  0  0  0
M  END
> <minimizedAffinity>
-7.51639

$$$$
257


 31 34  0  0  0  0  0  0  0  0999 V2000
  -38.2268  -67.6086   50.1956 C   0  0  0  0  0  0  0  0  0  0  0  0
  -39.4080  -67.0978   49.9613 C   0  0  0  0  0  0  0  0  0  0  0  0
  -40.7095  -67.4089   50.6346 C   0  0  0  0  0  0  0  0  0  0  0  0
  -41.3061  -66.0803   50.7032 N   0  0  0  0  0  0  0  0  0  0  0  0
  -40.9697  -65.4730   49.4398 C   0  0  0  0  0  0  0  0  0  0  0  0
  -41.6245  -64.5664   48.8999 O   0  0  0  0  0  0  0  0  0  0  0  0
  -39.7453  -66.1174   48.9403 C   0  0  0  0  0  0  0  0  0  0  0  0
  -39.1262  -65.8803   47.8699 O   0  0  0  0  0  0  0  0  0  0  0  0
  -38.1025  -68.5881   51.2003 O   0  0  0  0  0  0  0  0  0  0  0  0
  -33.2758  -65.8669   46.9117 Br  0  0  0  0  0  0  0  0  0  0  0  0
  -34.8076  -66.4130   47.9045 C   0  0  0  0  0  0  0  0  0  0  0  0
  -35.5590  -67.5227   47.5818 C   0  0  0  0  0  0  0  0  0  0  0  0
  -36.6644  -67.9027   48.3113 C   0  0  0  0  0  0  0  0  0  0  0  0
  -37.0758  -67.1646   49.4286 C   0  0  0  0  0  0  0  0  0  0  0  0
  -36.3137  -66.0582   49.7374 C   0  0  0  0  0  0  0  0  0  0  0  0
  -35.1960  -65.6723   49.0004 C   0  0  0  0  0  0  0  0  0  0  0  0
  -40.4800  -68.0110   51.9711 C   0  0  0  0  0  0  0  0  0  0  0  0
  -40.5023  -69.3498   52.0696 N   0  0  0  0  0  0  0  0  0  0  0  0
  -40.2981  -70.0033   53.2158 C   0  0  0  0  0  0  0  0  0  0  0  0
  -40.0545  -69.2622   54.3486 C   0  0  0  0  0  0  0  0  0  0  0  0
  -40.0225  -67.8886   54.2943 C   0  0  0  0  0  0  0  0  0  0  0  0
  -40.2381  -67.2661   53.0918 C   0  0  0  0  0  0  0  0  0  0  0  0
  -42.0644  -65.5244   51.7860 C   0  0  0  0  0  0  0  0  0  0  0  0
  -43.5297  -65.9267   51.7233 C   0  0  0  0  0  0  0  0  0  0  0  0
  -43.9146  -66.4862   53.0927 C   0  0  0  0  0  0  0  0  0  0  0  0
  -45.3416  -66.3846   53.3296 N   0  0  0  0  0  0  0  0  0  0  0  0
  -46.0813  -65.2551   53.4250 C   0  0  0  0  0  0  0  0  0  0  0  0
  -47.3630  -65.5918   53.6477 N   0  0  0  0  0  0  0  0  0  0  0  0
  -47.4746  -66.9274   53.6999 C   0  0  0  0  0  0  0  0  0  0  0  0
  -46.1955  -67.4054   53.4981 C   0  0  0  0  0  0  0  0  0  0  0  0
  -48.1757  -64.9237   53.7663 H   0  0  0  0  0  0  0  0  0  0  0  0
 10 11  1  0  0  0
 11 12  2  0  0  0
 11 16  1  0  0  0
 12 13  1  0  0  0
 13 14  2  0  0  0
 14 15  1  0  0  0
 14  1  1  0  0  0
 15 16  2  0  0  0
  1  2  2  0  0  0
  1  9  1  0  0  0
  2  3  1  0  0  0
  2  7  1  0  0  0
  3  4  1  0  0  0
  3 17  1  0  0  0
  4  5  1  0  0  0
  4 23  1  0  0  0
  5  6  2  0  0  0
  5  7  1  0  0  0
  7  8  2  0  0  0
 23 24  1  0  0  0
 24 25  1  0  0  0
 25 26  1  0  0  0
 26 27  1  0  0  0
 26 30  1  0  0  0
 27 28  2  0  0  0
 28 29  1  0  0  0
 29 30  2  0  0  0
 17 18  2  0  0  0
 17 22  1  0  0  0
 18 19  1  0  0  0
 19 20  2  0  0  0
 20 21  1  0  0  0
 21 22  2  0  0  0
 28 31  1  0  0  0
M  CHG 1   9  -1
M  END
> <minimizedAffinity>
-7.47969

$$$$
263


 34 37  0  0  0  0  0  0  0  0999 V2000
  -37.0155  -67.3839   50.1873 C   0  0  0  0  0  0  0  0  0  0  0  0
  -38.1775  -66.9161   49.8150 C   0  0  0  0  0  0  0  0  0  0  0  0
  -39.5343  -67.4863   50.1375 C   0  0  0  0  0  0  0  0  0  0  0  0
  -40.3664  -66.3347   50.2053 N   0  0  0  0  0  0  0  0  0  0  0  0
  -39.8030  -65.3496   49.3058 C   0  0  0  0  0  0  0  0  0  0  0  0
  -40.3793  -64.3515   48.8104 O   0  0  0  0  0  0  0  0  0  0  0  0
  -38.4121  -65.7104   49.0535 C   0  0  0  0  0  0  0  0  0  0  0  0
  -37.6049  -65.0605   48.3070 O   0  0  0  0  0  0  0  0  0  0  0  0
  -36.9918  -68.5479   50.9876 O   0  0  0  0  0  0  0  0  0  0  0  0
  -31.8835  -64.8035   48.0923 Br  0  0  0  0  0  0  0  0  0  0  0  0
  -33.4889  -65.5803   48.8122 C   0  0  0  0  0  0  0  0  0  0  0  0
  -34.0467  -66.6403   48.1339 C   0  0  0  0  0  0  0  0  0  0  0  0
  -35.1873  -67.2094   48.6255 C   0  0  0  0  0  0  0  0  0  0  0  0
  -35.7791  -66.7294   49.7927 C   0  0  0  0  0  0  0  0  0  0  0  0
  -35.2208  -65.6841   50.4520 C   0  0  0  0  0  0  0  0  0  0  0  0
  -34.0695  -65.1002   49.9669 C   0  0  0  0  0  0  0  0  0  0  0  0
  -39.4816  -68.3629   51.3006 C   0  0  0  0  0  0  0  0  0  0  0  0
  -40.0300  -68.1037   52.5278 C   0  0  0  0  0  0  0  0  0  0  0  0
  -39.9444  -68.9876   53.5717 C   0  0  0  0  0  0  0  0  0  0  0  0
  -39.2886  -70.1758   53.3962 C   0  0  0  0  0  0  0  0  0  0  0  0
  -38.7101  -70.4959   52.1718 C   0  0  0  0  0  0  0  0  0  0  0  0
  -38.8145  -69.5892   51.1487 C   0  0  0  0  0  0  0  0  0  0  0  0
  -40.5332  -68.6557   54.8080 N   0  0  0  0  0  0  0  0  0  0  0  0
  -39.9850  -67.8713   55.6242 O   0  0  0  0  0  0  0  0  0  0  0  0
  -41.7504  -69.2135   55.1257 O   0  0  0  0  0  0  0  0  0  0  0  0
  -41.5943  -66.0281   50.9153 C   0  0  0  0  0  0  0  0  0  0  0  0
  -41.5170  -64.8805   51.8696 C   0  0  0  0  0  0  0  0  0  0  0  0
  -42.6334  -64.8432   52.8002 N   0  0  0  0  0  0  0  0  0  0  0  0
  -42.7104  -66.0897   53.5689 C   0  0  0  0  0  0  0  0  0  0  0  0
  -43.8161  -65.8460   54.6050 C   0  0  0  0  0  0  0  0  0  0  0  0
  -45.0283  -65.5720   54.0204 O   0  0  0  0  0  0  0  0  0  0  0  0
  -44.9906  -64.5481   53.0867 C   0  0  0  0  0  0  0  0  0  0  0  0
  -43.8791  -64.7346   52.0835 C   0  0  0  0  0  0  0  0  0  0  0  0
  -42.5804  -64.0928   53.4937 H   0  0  0  0  0  0  0  0  0  0  0  0
 10 11  1  0  0  0
 11 12  2  0  0  0
 11 16  1  0  0  0
 12 13  1  0  0  0
 13 14  2  0  0  0
 14 15  1  0  0  0
 14  1  1  0  0  0
 15 16  2  0  0  0
  1  2  2  0  0  0
  1  9  1  0  0  0
  2  3  1  0  0  0
  2  7  1  0  0  0
  3  4  1  0  0  0
  3 17  1  0  0  0
  4  5  1  0  0  0
  4 26  1  0  0  0
  5  6  2  0  0  0
  5  7  1  0  0  0
  7  8  2  0  0  0
 26 27  1  0  0  0
 27 28  1  0  0  0
 28 29  1  0  0  0
 28 33  1  0  0  0
 29 30  1  0  0  0
 30 31  1  0  0  0
 31 32  1  0  0  0
 32 33  1  0  0  0
 17 18  2  0  0  0
 17 22  1  0  0  0
 18 19  1  0  0  0
 19 20  2  0  0  0
 19 23  1  0  0  0
 20 21  1  0  0  0
 21 22  2  0  0  0
 23 24  2  0  0  0
 23 25  1  0  0  0
 28 34  1  0  0  0
M  CHG 1   9  -1
M  CHG 1  25  -1
M  CHG 1  28   1
M  END
> <minimizedAffinity>
-8.73149

$$$$
265


 35 38  0  0  0  0  0  0  0  0999 V2000
  -38.0669  -65.3577   48.2857 C   0  0  0  0  0  0  0  0  0  0  0  0
  -39.0644  -64.5016   48.3098 C   0  0  0  0  0  0  0  0  0  0  0  0
  -40.5297  -64.8530   48.3508 C   0  0  0  0  0  0  0  0  0  0  0  0
  -41.2331  -63.6195   48.2808 N   0  0  0  0  0  0  0  0  0  0  0  0
  -40.3258  -62.4989   48.3371 C   0  0  0  0  0  0  0  0  0  0  0  0
  -40.5899  -61.2890   48.3660 O   0  0  0  0  0  0  0  0  0  0  0  0
  -38.9564  -63.0618   48.3572 C   0  0  0  0  0  0  0  0  0  0  0  0
  -37.8872  -62.3724   48.4099 O   0  0  0  0  0  0  0  0  0  0  0  0
  -38.4325  -66.7238   48.3072 O   0  0  0  0  0  0  0  0  0  0  0  0
  -32.0540  -63.8234   48.3185 Br  0  0  0  0  0  0  0  0  0  0  0  0
  -33.9098  -64.2847   48.2664 C   0  0  0  0  0  0  0  0  0  0  0  0
  -34.5854  -64.5336   49.4418 C   0  0  0  0  0  0  0  0  0  0  0  0
  -35.9233  -64.8648   49.4242 C   0  0  0  0  0  0  0  0  0  0  0  0
  -36.6655  -64.9676   48.2405 C   0  0  0  0  0  0  0  0  0  0  0  0
  -35.9749  -64.7166   47.0784 C   0  0  0  0  0  0  0  0  0  0  0  0
  -34.6154  -64.3793   47.0908 C   0  0  0  0  0  0  0  0  0  0  0  0
  -40.7168  -65.5183   49.6770 C   0  0  0  0  0  0  0  0  0  0  0  0
  -41.1739  -66.7981   49.6953 C   0  0  0  0  0  0  0  0  0  0  0  0
  -41.3698  -67.4584   50.8908 C   0  0  0  0  0  0  0  0  0  0  0  0
  -41.1022  -66.8233   52.0731 C   0  0  0  0  0  0  0  0  0  0  0  0
  -40.6401  -65.5330   52.0522 C   0  0  0  0  0  0  0  0  0  0  0  0
  -40.4414  -64.8647   50.8550 C   0  0  0  0  0  0  0  0  0  0  0  0
  -41.3092  -67.5124   53.3491 C   0  0  0  0  0  0  0  0  0  0  0  0
  -40.3193  -67.9818   53.9662 O   0  0  0  0  0  0  0  0  0  0  0  0
  -42.5425  -67.6784   53.9174 O   0  0  0  0  0  0  0  0  0  0  0  0
  -43.1733  -66.6817   54.6901 C   0  0  0  0  0  0  0  0  0  0  0  0
  -42.6528  -63.4140   48.1771 C   0  0  0  0  0  0  0  0  0  0  0  0
  -43.3153  -62.9072   49.4116 C   0  0  0  0  0  0  0  0  0  0  0  0
  -44.2852  -63.7859   49.9939 N   0  0  0  0  0  0  0  0  0  0  0  0
  -45.6218  -63.2312   50.0551 C   0  0  0  0  0  0  0  0  0  0  0  0
  -46.5458  -64.3434   50.5066 C   0  0  0  0  0  0  0  0  0  0  0  0
  -46.1887  -64.6173   51.8486 O   0  0  0  0  0  0  0  0  0  0  0  0
  -44.9227  -65.2065   51.7897 C   0  0  0  0  0  0  0  0  0  0  0  0
  -43.9317  -64.1267   51.3862 C   0  0  0  0  0  0  0  0  0  0  0  0
  -44.2988  -64.7281   49.5202 H   0  0  0  0  0  0  0  0  0  0  0  0
 10 11  1  0  0  0
 11 12  2  0  0  0
 11 16  1  0  0  0
 12 13  1  0  0  0
 13 14  2  0  0  0
 14 15  1  0  0  0
 14  1  1  0  0  0
 15 16  2  0  0  0
  1  2  2  0  0  0
  1  9  1  0  0  0
  2  3  1  0  0  0
  2  7  1  0  0  0
  3  4  1  0  0  0
  3 17  1  0  0  0
  4  5  1  0  0  0
  4 27  1  0  0  0
  5  6  2  0  0  0
  5  7  1  0  0  0
  7  8  2  0  0  0
 27 28  1  0  0  0
 28 29  1  0  0  0
 29 30  1  0  0  0
 29 34  1  0  0  0
 30 31  1  0  0  0
 31 32  1  0  0  0
 32 33  1  0  0  0
 33 34  1  0  0  0
 17 18  2  0  0  0
 17 22  1  0  0  0
 18 19  1  0  0  0
 19 20  2  0  0  0
 20 21  1  0  0  0
 20 23  1  0  0  0
 21 22  2  0  0  0
 23 24  2  0  0  0
 23 25  1  0  0  0
 25 26  1  0  0  0
 29 35  1  0  0  0
M  CHG 1   9  -1
M  CHG 1  29   1
M  END
> <minimizedAffinity>
-7.09344

$$$$
274


 31 34  0  0  0  0  0  0  0  0999 V2000
  -38.8346  -65.7844   47.8390 C   0  0  0  0  0  0  0  0  0  0  0  0
  -37.7415  -65.8910   48.5695 C   0  0  0  0  0  0  0  0  0  0  0  0
  -36.8462  -67.0630   48.7883 C   0  0  0  0  0  0  0  0  0  0  0  0
  -35.5191  -66.4404   48.9261 N   0  0  0  0  0  0  0  0  0  0  0  0
  -35.7604  -65.2180   49.5954 C   0  0  0  0  0  0  0  0  0  0  0  0
  -34.9143  -64.5868   50.2416 O   0  0  0  0  0  0  0  0  0  0  0  0
  -37.1545  -64.8387   49.3953 C   0  0  0  0  0  0  0  0  0  0  0  0
  -37.7971  -63.8413   49.8090 O   0  0  0  0  0  0  0  0  0  0  0  0
  -39.2629  -66.9321   47.1432 O   0  0  0  0  0  0  0  0  0  0  0  0
  -42.2589  -60.6739   47.1745 Br  0  0  0  0  0  0  0  0  0  0  0  0
  -41.1947  -62.2547   47.3887 C   0  0  0  0  0  0  0  0  0  0  0  0
  -41.5370  -63.2271   48.3001 C   0  0  0  0  0  0  0  0  0  0  0  0
  -40.7620  -64.3670   48.4500 C   0  0  0  0  0  0  0  0  0  0  0  0
  -39.6262  -64.5744   47.6995 C   0  0  0  0  0  0  0  0  0  0  0  0
  -39.2868  -63.6013   46.7879 C   0  0  0  0  0  0  0  0  0  0  0  0
  -40.0636  -62.4494   46.6320 C   0  0  0  0  0  0  0  0  0  0  0  0
  -37.2113  -67.8918   49.9392 C   0  0  0  0  0  0  0  0  0  0  0  0
  -36.2622  -68.7076   50.5668 C   0  0  0  0  0  0  0  0  0  0  0  0
  -36.5369  -69.4992   51.6392 C   0  0  0  0  0  0  0  0  0  0  0  0
  -37.8152  -69.5255   52.1653 C   0  0  0  0  0  0  0  0  0  0  0  0
  -38.7632  -68.7404   51.5741 C   0  0  0  0  0  0  0  0  0  0  0  0
  -38.4796  -67.9276   50.4726 C   0  0  0  0  0  0  0  0  0  0  0  0
  -34.3335  -67.0527   48.4482 C   0  0  0  0  0  0  0  0  0  0  0  0
  -33.7680  -66.6002   47.1653 C   0  0  0  0  0  0  0  0  0  0  0  0
  -32.4304  -66.0941   47.2019 N   0  0  0  0  0  0  0  0  0  0  0  0
  -31.9831  -65.6074   48.4595 C   0  0  0  0  0  0  0  0  0  0  0  0
  -31.9386  -64.0956   48.4118 C   0  0  0  0  0  0  0  0  0  0  0  0
  -33.0236  -63.5561   47.7263 O   0  0  0  0  0  0  0  0  0  0  0  0
  -32.9972  -63.8519   46.3763 C   0  0  0  0  0  0  0  0  0  0  0  0
  -32.1696  -65.1027   46.1812 C   0  0  0  0  0  0  0  0  0  0  0  0
  -31.8153  -66.9283   46.9507 H   0  0  0  0  0  0  0  0  0  0  0  0
 10 11  1  0  0  0
 11 12  2  0  0  0
 11 16  1  0  0  0
 12 13  1  0  0  0
 13 14  2  0  0  0
 14 15  1  0  0  0
 14  1  1  0  0  0
 15 16  2  0  0  0
  1  2  2  0  0  0
  1  9  1  0  0  0
  2  3  1  0  0  0
  2  7  1  0  0  0
  3  4  1  0  0  0
  3 17  1  0  0  0
  4  5  1  0  0  0
  4 23  1  0  0  0
  5  6  2  0  0  0
  5  7  1  0  0  0
  7  8  2  0  0  0
 23 24  1  0  0  0
 24 25  1  0  0  0
 25 26  1  0  0  0
 25 30  1  0  0  0
 26 27  1  0  0  0
 27 28  1  0  0  0
 28 29  1  0  0  0
 29 30  1  0  0  0
 17 18  2  0  0  0
 17 22  1  0  0  0
 18 19  1  0  0  0
 19 20  2  0  0  0
 20 21  1  0  0  0
 21 22  2  0  0  0
 25 31  1  0  0  0
M  CHG 1   9  -1
M  CHG 1  25   1
M  END
> <minimizedAffinity>
-6.80158

$$$$
278


 30 33  0  0  0  0  0  0  0  0999 V2000
  -40.5284  -66.7371   52.1737 N   0  0  0  0  0  0  0  0  0  0  0  0
  -40.3142  -67.7201   53.0804 C   0  0  0  0  0  0  0  0  0  0  0  0
  -39.4251  -68.6036   52.4897 C   0  0  0  0  0  0  0  0  0  0  0  0
  -39.0315  -69.7228   53.1993 C   0  0  0  0  0  0  0  0  0  0  0  0
  -39.5046  -69.9837   54.4912 C   0  0  0  0  0  0  0  0  0  0  0  0
  -40.3938  -69.0696   55.0401 C   0  0  0  0  0  0  0  0  0  0  0  0
  -40.8015  -67.9502   54.3577 C   0  0  0  0  0  0  0  0  0  0  0  0
  -39.0961  -68.1660   51.2375 N   0  0  0  0  0  0  0  0  0  0  0  0
  -39.7975  -67.0122   51.0769 C   0  0  0  0  0  0  0  0  0  0  0  0
  -39.7475  -66.2989   50.0021 N   0  0  0  0  0  0  0  0  0  0  0  0
  -40.3250  -65.4065   49.9512 H   0  0  0  0  0  0  0  0  0  0  0  0
  -39.2024  -66.4999   49.1608 H   0  0  0  0  0  0  0  0  0  0  0  0
  -41.4029  -65.6327   52.4415 C   0  0  0  0  0  0  0  0  0  0  0  0
  -42.5229  -65.5058   51.4537 C   0  0  0  0  0  0  0  0  0  0  0  0
  -42.6860  -64.2334   50.9413 O   0  0  0  0  0  0  0  0  0  0  0  0
  -42.8603  -63.5551   51.6224 H   0  0  0  0  0  0  0  0  0  0  0  0
  -47.8694  -67.1354   54.0281 Br  0  0  0  0  0  0  0  0  0  0  0  0
  -46.2060  -66.6269   53.2280 C   0  0  0  0  0  0  0  0  0  0  0  0
  -46.2107  -65.7626   52.1568 C   0  0  0  0  0  0  0  0  0  0  0  0
  -45.0174  -65.4031   51.5891 C   0  0  0  0  0  0  0  0  0  0  0  0
  -43.8379  -65.9005   52.0845 C   0  0  0  0  0  0  0  0  0  0  0  0
  -43.8723  -66.7617   53.1547 C   0  0  0  0  0  0  0  0  0  0  0  0
  -45.0543  -67.1549   53.7627 C   0  0  0  0  0  0  0  0  0  0  0  0
  -38.1850  -68.8432   50.3644 C   0  0  0  0  0  0  0  0  0  0  0  0
  -36.7415  -68.5178   50.6307 C   0  0  0  0  0  0  0  0  0  0  0  0
  -36.2027  -67.3648   50.0860 C   0  0  0  0  0  0  0  0  0  0  0  0
  -34.8865  -66.9966   50.2863 C   0  0  0  0  0  0  0  0  0  0  0  0
  -34.1085  -67.8231   51.0584 C   0  0  0  0  0  0  0  0  0  0  0  0
  -34.6162  -68.9703   51.6087 C   0  0  0  0  0  0  0  0  0  0  0  0
  -35.9253  -69.3071   51.3913 C   0  0  0  0  0  0  0  0  0  0  0  0
 17 18  1  0  0  0
 18 19  2  0  0  0
 18 23  1  0  0  0
 19 20  1  0  0  0
 20 21  2  0  0  0
 21 22  1  0  0  0
 21 14  1  0  0  0
 22 23  2  0  0  0
 14 15  1  0  0  0
 14 13  1  0  0  0
 13  1  1  0  0  0
  1  2  1  0  0  0
  1  9  1  0  0  0
  2  3  1  0  0  0
  2  7  2  0  0  0
  3  4  2  0  0  0
  3  8  1  0  0  0
  4  5  1  0  0  0
  5  6  2  0  0  0
  6  7  1  0  0  0
  8  9  1  0  0  0
  8 24  1  0  0  0
  9 10  2  0  0  0
 24 25  1  0  0  0
 25 26  2  0  0  0
 25 30  1  0  0  0
 26 27  1  0  0  0
 27 28  2  0  0  0
 28 29  1  0  0  0
 29 30  2  0  0  0
 15 16  1  0  0  0
 10 11  1  0  0  0
 10 12  1  0  0  0
M  END
> <minimizedAffinity>
-9.32064

$$$$
289


 31 34  0  0  0  0  0  0  0  0999 V2000
  -40.6784  -66.5713   51.4370 C   0  0  0  0  0  0  0  0  0  0  0  0
  -41.6154  -66.8040   52.3709 N   0  0  0  0  0  0  0  0  0  0  0  0
  -41.2183  -67.8348   53.1536 C   0  0  0  0  0  0  0  0  0  0  0  0
  -39.9919  -68.2774   52.7085 C   0  0  0  0  0  0  0  0  0  0  0  0
  -39.6890  -67.4982   51.6701 N   0  0  0  0  0  0  0  0  0  0  0  0
  -39.3891  -69.3036   53.3370 N   0  0  0  0  0  0  0  0  0  0  0  0
  -39.9477  -69.9140   54.3908 C   0  0  0  0  0  0  0  0  0  0  0  0
  -39.3458  -70.8800   54.9604 O   0  0  0  0  0  0  0  0  0  0  0  0
  -41.1434  -69.4972   54.8410 N   0  0  0  0  0  0  0  0  0  0  0  0
  -41.7713  -68.4785   54.2379 C   0  0  0  0  0  0  0  0  0  0  0  0
  -42.8880  -68.0906   54.6612 O   0  0  0  0  0  0  0  0  0  0  0  0
  -38.0817  -69.7438   52.8383 C   0  0  0  0  0  0  0  0  0  0  0  0
  -41.5919  -69.9766   55.6749 H   0  0  0  0  0  0  0  0  0  0  0  0
  -38.7947  -65.1000   48.8796 N   0  0  0  0  0  0  0  0  0  0  0  0
  -39.9344  -65.5422   48.1940 C   0  0  0  0  0  0  0  0  0  0  0  0
  -41.1249  -65.7667   49.1207 C   0  0  0  0  0  0  0  0  0  0  0  0
  -40.6637  -65.5696   50.4507 N   0  0  0  0  0  0  0  0  0  0  0  0
  -40.1405  -64.2612   50.7616 C   0  0  0  0  0  0  0  0  0  0  0  0
  -38.8835  -64.1314   49.8933 C   0  0  0  0  0  0  0  0  0  0  0  0
  -37.6895  -65.9994   48.9104 C   0  0  0  0  0  0  0  0  0  0  0  0
  -32.0966  -63.3983   48.5553 Br  0  0  0  0  0  0  0  0  0  0  0  0
  -33.8432  -64.1942   48.6519 C   0  0  0  0  0  0  0  0  0  0  0  0
  -34.2121  -64.9509   49.7452 C   0  0  0  0  0  0  0  0  0  0  0  0
  -35.4700  -65.5280   49.8169 C   0  0  0  0  0  0  0  0  0  0  0  0
  -36.3683  -65.3536   48.7943 C   0  0  0  0  0  0  0  0  0  0  0  0
  -36.0165  -64.5990   47.6950 C   0  0  0  0  0  0  0  0  0  0  0  0
  -34.7600  -64.0306   47.6383 C   0  0  0  0  0  0  0  0  0  0  0  0
  -42.8828  -66.1481   52.5503 C   0  0  0  0  0  0  0  0  0  0  0  0
  -42.7465  -64.8371   53.2912 C   0  0  0  0  0  0  0  0  0  0  0  0
  -43.3121  -63.7615   52.6369 O   0  0  0  0  0  0  0  0  0  0  0  0
  -44.0269  -64.3080   51.5459 C   0  0  0  0  0  0  0  0  0  0  0  0
 21 22  1  0  0  0
 22 23  2  0  0  0
 22 27  1  0  0  0
 23 24  1  0  0  0
 24 25  2  0  0  0
 25 26  1  0  0  0
 25 20  1  0  0  0
 26 27  2  0  0  0
 20 14  1  0  0  0
 14 15  1  0  0  0
 14 19  1  0  0  0
 15 16  1  0  0  0
 16 17  1  0  0  0
 17 18  1  0  0  0
 17  1  1  0  0  0
 18 19  1  0  0  0
  1  2  1  0  0  0
  1  5  2  0  0  0
  2  3  1  0  0  0
  2 28  1  0  0  0
  3  4  2  0  0  0
  3 10  1  0  0  0
  4  5  1  0  0  0
  4  6  1  0  0  0
  6  7  1  0  0  0
  6 12  1  0  0  0
  7  8  2  0  0  0
  7  9  1  0  0  0
  9 10  1  0  0  0
 10 11  2  0  0  0
 28 29  1  0  0  0
 29 30  1  0  0  0
 30 31  1  0  0  0
  9 13  1  0  0  0
M  END
> <minimizedAffinity>
-7.61038

$$$$
293


 27 30  0  0  0  0  0  0  0  0999 V2000
  -43.2140  -67.1270   54.3595 C   0  0  0  0  0  0  0  0  0  0  0  0
  -42.0839  -67.7145   53.9490 C   0  0  0  0  0  0  0  0  0  0  0  0
  -41.5353  -67.5211   52.6916 O   0  0  0  0  0  0  0  0  0  0  0  0
  -40.3614  -68.2490   52.5266 C   0  0  0  0  0  0  0  0  0  0  0  0
  -40.1246  -68.9338   53.6800 C   0  0  0  0  0  0  0  0  0  0  0  0
  -39.0123  -69.7427   53.7868 C   0  0  0  0  0  0  0  0  0  0  0  0
  -38.1793  -69.8211   52.7013 C   0  0  0  0  0  0  0  0  0  0  0  0
  -38.4206  -69.1176   51.5140 C   0  0  0  0  0  0  0  0  0  0  0  0
  -39.5222  -68.3088   51.3879 C   0  0  0  0  0  0  0  0  0  0  0  0
  -37.5221  -69.2525   50.4545 O   0  0  0  0  0  0  0  0  0  0  0  0
  -41.2039  -68.6262   54.6287 C   0  0  0  0  0  0  0  0  0  0  0  0
  -41.3609  -69.0497   55.8022 O   0  0  0  0  0  0  0  0  0  0  0  0
  -46.3294  -63.4023   50.4960 Br  0  0  0  0  0  0  0  0  0  0  0  0
  -45.3547  -64.5471   51.6940 C   0  0  0  0  0  0  0  0  0  0  0  0
  -45.7932  -65.8215   51.9719 C   0  0  0  0  0  0  0  0  0  0  0  0
  -45.0946  -66.6440   52.8352 C   0  0  0  0  0  0  0  0  0  0  0  0
  -43.9283  -66.2300   53.4567 C   0  0  0  0  0  0  0  0  0  0  0  0
  -43.4928  -64.9546   53.1749 C   0  0  0  0  0  0  0  0  0  0  0  0
  -44.1947  -64.1175   52.3035 C   0  0  0  0  0  0  0  0  0  0  0  0
  -39.9066  -67.5161   50.2138 C   0  0  0  0  0  0  0  0  0  0  0  0
  -39.8790  -66.1085   50.3143 N   0  0  0  0  0  0  0  0  0  0  0  0
  -38.8966  -65.5098   49.4347 C   0  0  0  0  0  0  0  0  0  0  0  0
  -39.5116  -65.2885   48.0651 C   0  0  0  0  0  0  0  0  0  0  0  0
  -40.3066  -64.1548   48.1317 O   0  0  0  0  0  0  0  0  0  0  0  0
  -40.8910  -64.1148   49.4023 C   0  0  0  0  0  0  0  0  0  0  0  0
  -41.1657  -65.5273   49.8930 C   0  0  0  0  0  0  0  0  0  0  0  0
  -39.7616  -65.7860   51.2963 H   0  0  0  0  0  0  0  0  0  0  0  0
 13 14  1  0  0  0
 14 15  2  0  0  0
 14 19  1  0  0  0
 15 16  1  0  0  0
 16 17  2  0  0  0
 17 18  1  0  0  0
 17  1  1  0  0  0
 18 19  2  0  0  0
  1  2  2  0  0  0
  2  3  1  0  0  0
  2 11  1  0  0  0
  3  4  1  0  0  0
  4  5  2  0  0  0
  4  9  1  0  0  0
  5  6  1  0  0  0
  5 11  1  0  0  0
  6  7  2  0  0  0
  7  8  1  0  0  0
  8  9  2  0  0  0
  8 10  1  0  0  0
  9 20  1  0  0  0
 20 21  1  0  0  0
 21 22  1  0  0  0
 21 26  1  0  0  0
 22 23  1  0  0  0
 23 24  1  0  0  0
 24 25  1  0  0  0
 25 26  1  0  0  0
 11 12  2  0  0  0
 21 27  1  0  0  0
M  CHG 1  10  -1
M  CHG 1  21   1
M  END
> <minimizedAffinity>
-8.94310

$$$$
294


 35 38  0  0  0  0  0  0  0  0999 V2000
  -42.0377  -65.7832   52.6635 N   0  0  0  0  0  0  0  0  0  0  0  0
  -41.6916  -66.9173   53.3455 N   0  0  0  0  0  0  0  0  0  0  0  0
  -40.6300  -67.4741   52.7464 C   0  0  0  0  0  0  0  0  0  0  0  0
  -40.3428  -66.6815   51.7152 N   0  0  0  0  0  0  0  0  0  0  0  0
  -41.2246  -65.6139   51.6548 C   0  0  0  0  0  0  0  0  0  0  0  0
  -39.9291  -68.6922   53.1344 C   0  0  0  0  0  0  0  0  0  0  0  0
  -39.0847  -69.4109   52.3884 N   0  0  0  0  0  0  0  0  0  0  0  0
  -38.6557  -70.4442   53.0920 O   0  0  0  0  0  0  0  0  0  0  0  0
  -39.1874  -70.4350   54.2812 N   0  0  0  0  0  0  0  0  0  0  0  0
  -40.0013  -69.3370   54.3433 C   0  0  0  0  0  0  0  0  0  0  0  0
  -40.7606  -68.9831   55.4880 N   0  0  0  0  0  0  0  0  0  0  0  0
  -40.4560  -69.3190   56.4442 H   0  0  0  0  0  0  0  0  0  0  0  0
  -41.6194  -68.4011   55.4552 H   0  0  0  0  0  0  0  0  0  0  0  0
  -41.1400  -64.5971   50.6267 C   0  0  0  0  0  0  0  0  0  0  0  0
  -42.2756  -63.9876   50.1005 N   0  0  0  0  0  0  0  0  0  0  0  0
  -41.9336  -63.1221   49.2289 O   0  0  0  0  0  0  0  0  0  0  0  0
  -40.6642  -63.0904   49.1179 N   0  0  0  0  0  0  0  0  0  0  0  0
  -40.1308  -64.0060   49.9825 C   0  0  0  0  0  0  0  0  0  0  0  0
  -38.7437  -64.1719   50.0757 N   0  0  0  0  0  0  0  0  0  0  0  0
  -38.2658  -64.8494   49.4374 H   0  0  0  0  0  0  0  0  0  0  0  0
  -38.1326  -63.6541   50.7410 H   0  0  0  0  0  0  0  0  0  0  0  0
  -43.1528  -64.9807   53.1264 C   0  0  0  0  0  0  0  0  0  0  0  0
  -44.9759  -66.7119   52.8856 N   0  0  0  0  0  0  0  0  0  0  0  0
  -44.2279  -65.8299   53.7025 C   0  0  0  0  0  0  0  0  0  0  0  0
  -44.4800  -65.7695   54.9269 O   0  0  0  0  0  0  0  0  0  0  0  0
  -44.7842  -66.7863   51.8404 H   0  0  0  0  0  0  0  0  0  0  0  0
  -47.2199  -67.3177   53.3009 C   0  0  0  0  0  0  0  0  0  0  0  0
  -45.9651  -67.4862   53.4515 N   0  0  0  0  0  0  0  0  0  0  0  0
  -51.4856  -70.9547   55.9169 Br  0  0  0  0  0  0  0  0  0  0  0  0
  -50.1699  -69.8387   55.1001 C   0  0  0  0  0  0  0  0  0  0  0  0
  -49.5914  -68.7891   55.7982 C   0  0  0  0  0  0  0  0  0  0  0  0
  -48.6367  -67.9674   55.2259 C   0  0  0  0  0  0  0  0  0  0  0  0
  -48.2249  -68.1707   53.9256 C   0  0  0  0  0  0  0  0  0  0  0  0
  -48.8054  -69.2165   53.2403 C   0  0  0  0  0  0  0  0  0  0  0  0
  -49.7581  -70.0430   53.7999 C   0  0  0  0  0  0  0  0  0  0  0  0
 29 30  1  0  0  0
 30 31  2  0  0  0
 30 35  1  0  0  0
 31 32  1  0  0  0
 32 33  2  0  0  0
 33 34  1  0  0  0
 33 27  1  0  0  0
 34 35  2  0  0  0
 27 28  2  0  0  0
 28 23  1  0  0  0
 23 24  1  0  0  0
 24 25  2  0  0  0
 24 22  1  0  0  0
 22  1  1  0  0  0
  1  2  1  0  0  0
  1  5  1  0  0  0
  2  3  2  0  0  0
  3  4  1  0  0  0
  3  6  1  0  0  0
  4  5  2  0  0  0
  5 14  1  0  0  0
 14 15  2  0  0  0
 14 18  1  0  0  0
 15 16  1  0  0  0
 16 17  1  0  0  0
 17 18  2  0  0  0
 18 19  1  0  0  0
  6  7  2  0  0  0
  6 10  1  0  0  0
  7  8  1  0  0  0
  8  9  1  0  0  0
  9 10  2  0  0  0
 10 11  1  0  0  0
 23 26  1  0  0  0
 19 20  1  0  0  0
 19 21  1  0  0  0
 11 12  1  0  0  0
 11 13  1  0  0  0
M  END
> <minimizedAffinity>
-8.65709

$$$$
302


 29 33  0  0  0  0  0  0  0  0999 V2000
  -37.4310  -67.8100   49.7919 C   0  0  0  0  0  0  0  0  0  0  0  0
  -38.6519  -67.2365   49.8106 N   0  0  0  0  0  0  0  0  0  0  0  0
  -39.3490  -67.6615   50.8934 C   0  0  0  0  0  0  0  0  0  0  0  0
  -38.5748  -68.5162   51.5838 N   0  0  0  0  0  0  0  0  0  0  0  0
  -37.4026  -68.6109   50.9149 C   0  0  0  0  0  0  0  0  0  0  0  0
  -39.3074  -68.9074   52.6441 C   0  0  0  0  0  0  0  0  0  0  0  0
  -40.5429  -68.2968   52.6193 C   0  0  0  0  0  0  0  0  0  0  0  0
  -41.5010  -68.5249   53.6004 C   0  0  0  0  0  0  0  0  0  0  0  0
  -41.2206  -69.3854   54.6368 C   0  0  0  0  0  0  0  0  0  0  0  0
  -39.9830  -69.9912   54.6535 C   0  0  0  0  0  0  0  0  0  0  0  0
  -39.0150  -69.7835   53.6944 C   0  0  0  0  0  0  0  0  0  0  0  0
  -40.5364  -67.5195   51.5041 N   0  0  0  0  0  0  0  0  0  0  0  0
  -39.0271  -66.5662   49.1094 H   0  0  0  0  0  0  0  0  0  0  0  0
  -33.0053  -66.9485   45.5793 Br  0  0  0  0  0  0  0  0  0  0  0  0
  -34.3642  -67.2114   46.8777 C   0  0  0  0  0  0  0  0  0  0  0  0
  -35.5553  -67.8179   46.5287 C   0  0  0  0  0  0  0  0  0  0  0  0
  -36.5504  -68.0102   47.4839 C   0  0  0  0  0  0  0  0  0  0  0  0
  -36.3881  -67.6097   48.7907 C   0  0  0  0  0  0  0  0  0  0  0  0
  -35.1979  -67.0066   49.1301 C   0  0  0  0  0  0  0  0  0  0  0  0
  -34.1888  -66.8052   48.1848 C   0  0  0  0  0  0  0  0  0  0  0  0
  -41.6699  -66.7048   51.1182 C   0  0  0  0  0  0  0  0  0  0  0  0
  -41.6921  -65.3882   51.8636 C   0  0  0  0  0  0  0  0  0  0  0  0
  -42.9891  -65.1591   52.4337 N   0  0  0  0  0  0  0  0  0  0  0  0
  -42.9032  -65.1062   53.8780 C   0  0  0  0  0  0  0  0  0  0  0  0
  -43.9922  -65.9015   54.5561 C   0  0  0  0  0  0  0  0  0  0  0  0
  -45.2261  -65.5198   54.0250 O   0  0  0  0  0  0  0  0  0  0  0  0
  -45.2943  -65.7229   52.6632 C   0  0  0  0  0  0  0  0  0  0  0  0
  -43.9688  -66.1441   52.0850 C   0  0  0  0  0  0  0  0  0  0  0  0
  -43.3649  -64.2264   52.1272 H   0  0  0  0  0  0  0  0  0  0  0  0
 14 15  1  0  0  0
 15 16  2  0  0  0
 15 20  1  0  0  0
 16 17  1  0  0  0
 17 18  2  0  0  0
 18 19  1  0  0  0
 18  1  1  0  0  0
 19 20  2  0  0  0
  1  2  1  0  0  0
  1  5  2  0  0  0
  2  3  2  0  0  0
  3  4  1  0  0  0
  3 12  1  0  0  0
  4  5  1  0  0  0
  4  6  1  0  0  0
  6  7  2  0  0  0
  6 11  1  0  0  0
  7  8  1  0  0  0
  7 12  1  0  0  0
  8  9  2  0  0  0
  9 10  1  0  0  0
 10 11  2  0  0  0
 12 21  1  0  0  0
 21 22  1  0  0  0
 22 23  1  0  0  0
 23 24  1  0  0  0
 23 28  1  0  0  0
 24 25  1  0  0  0
 25 26  1  0  0  0
 26 27  1  0  0  0
 27 28  1  0  0  0
  2 13  1  0  0  0
 23 29  1  0  0  0
M  CHG 1  23   1
M  END
> <minimizedAffinity>
-8.20246

$$$$
305


 27 30  0  0  0  0  0  0  0  0999 V2000
  -40.6391  -65.2058   50.5046 C   0  0  0  0  0  0  0  0  0  0  0  0
  -41.1330  -65.8820   51.5337 N   0  0  0  0  0  0  0  0  0  0  0  0
  -42.1805  -65.2198   52.0839 C   0  0  0  0  0  0  0  0  0  0  0  0
  -42.3392  -64.0980   51.3571 N   0  0  0  0  0  0  0  0  0  0  0  0
  -41.4471  -64.0688   50.4216 N   0  0  0  0  0  0  0  0  0  0  0  0
  -42.7022  -65.8825   53.1231 N   0  0  0  0  0  0  0  0  0  0  0  0
  -41.9726  -66.9980   53.2311 C   0  0  0  0  0  0  0  0  0  0  0  0
  -40.9787  -67.0343   52.2434 C   0  0  0  0  0  0  0  0  0  0  0  0
  -40.1596  -68.0677   52.1346 N   0  0  0  0  0  0  0  0  0  0  0  0
  -40.3121  -69.0913   53.0303 C   0  0  0  0  0  0  0  0  0  0  0  0
  -39.5535  -70.0872   52.9647 O   0  0  0  0  0  0  0  0  0  0  0  0
  -41.2453  -69.0826   53.9900 N   0  0  0  0  0  0  0  0  0  0  0  0
  -42.0921  -68.0468   54.1121 C   0  0  0  0  0  0  0  0  0  0  0  0
  -42.9828  -68.0037   55.0004 O   0  0  0  0  0  0  0  0  0  0  0  0
  -39.1832  -68.2952   51.1009 C   0  0  0  0  0  0  0  0  0  0  0  0
  -41.3601  -69.8598   54.6721 H   0  0  0  0  0  0  0  0  0  0  0  0
  -35.7350  -66.1496   46.9542 Br  0  0  0  0  0  0  0  0  0  0  0  0
  -37.2857  -65.8417   47.9969 C   0  0  0  0  0  0  0  0  0  0  0  0
  -37.2065  -65.0471   49.1215 C   0  0  0  0  0  0  0  0  0  0  0  0
  -38.3188  -64.8246   49.8717 C   0  0  0  0  0  0  0  0  0  0  0  0
  -39.5614  -65.3739   49.5488 C   0  0  0  0  0  0  0  0  0  0  0  0
  -39.5705  -66.1545   48.4214 C   0  0  0  0  0  0  0  0  0  0  0  0
  -38.4823  -66.4140   47.6268 C   0  0  0  0  0  0  0  0  0  0  0  0
  -43.8129  -65.4796   53.9557 C   0  0  0  0  0  0  0  0  0  0  0  0
  -45.1260  -65.4532   53.2036 C   0  0  0  0  0  0  0  0  0  0  0  0
  -45.3772  -66.6565   52.5557 O   0  0  0  0  0  0  0  0  0  0  0  0
  -46.1184  -67.4524   53.4288 C   0  0  0  0  0  0  0  0  0  0  0  0
 17 18  1  0  0  0
 18 19  2  0  0  0
 18 23  1  0  0  0
 19 20  1  0  0  0
 20 21  2  0  0  0
 21 22  1  0  0  0
 21  1  1  0  0  0
 22 23  2  0  0  0
  1  2  1  0  0  0
  1  5  2  0  0  0
  2  3  1  0  0  0
  2  8  1  0  0  0
  3  4  2  0  0  0
  3  6  1  0  0  0
  4  5  1  0  0  0
  6  7  1  0  0  0
  6 24  1  0  0  0
  7  8  2  0  0  0
  7 13  1  0  0  0
  8  9  1  0  0  0
  9 10  1  0  0  0
  9 15  1  0  0  0
 10 11  2  0  0  0
 10 12  1  0  0  0
 12 13  1  0  0  0
 13 14  2  0  0  0
 24 25  1  0  0  0
 25 26  1  0  0  0
 26 27  1  0  0  0
 12 16  1  0  0  0
M  END
> <minimizedAffinity>
-7.97675

$$$$
309


 33 36  0  0  0  0  0  0  0  0999 V2000
  -37.1666  -67.6784   49.4914 C   0  0  0  0  0  0  0  0  0  0  0  0
  -38.4159  -67.1071   49.4595 C   0  0  0  0  0  0  0  0  0  0  0  0
  -39.3494  -67.3761   50.3519 O   0  0  0  0  0  0  0  0  0  0  0  0
  -39.1375  -68.2130   51.3352 C   0  0  0  0  0  0  0  0  0  0  0  0
  -37.9293  -68.8080   51.4208 C   0  0  0  0  0  0  0  0  0  0  0  0
  -37.6750  -69.6914   52.4466 C   0  0  0  0  0  0  0  0  0  0  0  0
  -38.6696  -69.9395   53.3575 C   0  0  0  0  0  0  0  0  0  0  0  0
  -39.9267  -69.3129   53.2588 C   0  0  0  0  0  0  0  0  0  0  0  0
  -40.2016  -68.4362   52.2523 C   0  0  0  0  0  0  0  0  0  0  0  0
  -40.8021  -69.6837   54.2656 O   0  0  0  0  0  0  0  0  0  0  0  0
  -36.9029  -68.5788   50.5251 C   0  0  0  0  0  0  0  0  0  0  0  0
  -35.7977  -69.1248   50.6056 O   0  0  0  0  0  0  0  0  0  0  0  0
  -32.8838  -66.2216   45.3126 Br  0  0  0  0  0  0  0  0  0  0  0  0
  -34.2273  -66.6832   46.5930 C   0  0  0  0  0  0  0  0  0  0  0  0
  -34.2123  -66.0630   47.8077 C   0  0  0  0  0  0  0  0  0  0  0  0
  -35.1729  -66.3886   48.7403 C   0  0  0  0  0  0  0  0  0  0  0  0
  -36.1734  -67.3295   48.5111 C   0  0  0  0  0  0  0  0  0  0  0  0
  -36.1665  -67.9373   47.2830 C   0  0  0  0  0  0  0  0  0  0  0  0
  -35.1981  -67.6223   46.3158 C   0  0  0  0  0  0  0  0  0  0  0  0
  -38.7159  -66.1569   48.3769 C   0  0  0  0  0  0  0  0  0  0  0  0
  -39.3340  -66.5873   47.3710 O   0  0  0  0  0  0  0  0  0  0  0  0
  -38.3626  -64.8434   48.4053 O   0  0  0  0  0  0  0  0  0  0  0  0
  -38.3949  -64.0670   47.2323 C   0  0  0  0  0  0  0  0  0  0  0  0
  -36.9923  -63.8942   46.7186 C   0  0  0  0  0  0  0  0  0  0  0  0
  -41.4394  -67.7366   52.0077 C   0  0  0  0  0  0  0  0  0  0  0  0
  -41.8599  -66.6216   52.7533 N   0  0  0  0  0  0  0  0  0  0  0  0
  -42.6922  -66.9802   53.8461 C   0  0  0  0  0  0  0  0  0  0  0  0
  -43.6880  -66.0081   54.3430 C   0  0  0  0  0  0  0  0  0  0  0  0
  -43.9959  -64.9964   53.4274 N   0  0  0  0  0  0  0  0  0  0  0  0
  -42.9520  -64.3815   52.7310 C   0  0  0  0  0  0  0  0  0  0  0  0
  -42.0710  -65.3956   52.0723 C   0  0  0  0  0  0  0  0  0  0  0  0
  -45.3271  -64.6148   53.2077 C   0  0  0  0  0  0  0  0  0  0  0  0
  -40.8978  -66.3743   53.3080 H   0  0  0  0  0  0  0  0  0  0  0  0
 13 14  1  0  0  0
 14 15  2  0  0  0
 14 19  1  0  0  0
 15 16  1  0  0  0
 16 17  2  0  0  0
 17 18  1  0  0  0
 17  1  1  0  0  0
 18 19  2  0  0  0
  1  2  2  0  0  0
  1 11  1  0  0  0
  2  3  1  0  0  0
  2 20  1  0  0  0
  3  4  1  0  0  0
  4  5  2  0  0  0
  4  9  1  0  0  0
  5  6  1  0  0  0
  5 11  1  0  0  0
  6  7  2  0  0  0
  7  8  1  0  0  0
  8  9  2  0  0  0
  8 10  1  0  0  0
  9 25  1  0  0  0
 25 26  1  0  0  0
 26 27  1  0  0  0
 26 31  1  0  0  0
 27 28  1  0  0  0
 28 29  1  0  0  0
 29 30  1  0  0  0
 29 32  1  0  0  0
 30 31  1  0  0  0
 11 12  2  0  0  0
 20 21  2  0  0  0
 20 22  1  0  0  0
 22 23  1  0  0  0
 23 24  1  0  0  0
 26 33  1  0  0  0
M  CHG 1  10  -1
M  CHG 1  26   1
M  END
> <minimizedAffinity>
-8.68389

$$$$
320


 32 36  0  0  0  0  0  0  0  0999 V2000
  -37.6385  -67.6765   49.6449 C   0  0  0  0  0  0  0  0  0  0  0  0
  -37.5471  -68.4954   50.7826 C   0  0  0  0  0  0  0  0  0  0  0  0
  -38.6979  -68.3752   51.4322 N   0  0  0  0  0  0  0  0  0  0  0  0
  -39.3000  -68.8439   52.5678 C   0  0  0  0  0  0  0  0  0  0  0  0
  -40.5365  -68.2497   52.5932 C   0  0  0  0  0  0  0  0  0  0  0  0
  -40.6271  -67.4796   51.5197 N   0  0  0  0  0  0  0  0  0  0  0  0
  -39.4821  -67.5487   50.7818 C   0  0  0  0  0  0  0  0  0  0  0  0
  -38.8446  -67.0984   49.6607 N   0  0  0  0  0  0  0  0  0  0  0  0
  -41.4430  -68.4986   53.6278 C   0  0  0  0  0  0  0  0  0  0  0  0
  -41.0955  -69.3593   54.6465 C   0  0  0  0  0  0  0  0  0  0  0  0
  -39.8498  -69.9428   54.5974 C   0  0  0  0  0  0  0  0  0  0  0  0
  -38.9424  -69.6998   53.5730 C   0  0  0  0  0  0  0  0  0  0  0  0
  -41.4654  -66.9065   51.3068 H   0  0  0  0  0  0  0  0  0  0  0  0
  -32.8592  -66.9859   45.7915 Br  0  0  0  0  0  0  0  0  0  0  0  0
  -34.3606  -67.2060   46.9775 C   0  0  0  0  0  0  0  0  0  0  0  0
  -34.3079  -66.8062   48.2775 C   0  0  0  0  0  0  0  0  0  0  0  0
  -35.3752  -66.9642   49.1141 C   0  0  0  0  0  0  0  0  0  0  0  0
  -36.5589  -67.5352   48.6923 C   0  0  0  0  0  0  0  0  0  0  0  0
  -36.6131  -67.9335   47.3999 C   0  0  0  0  0  0  0  0  0  0  0  0
  -35.5150  -67.7765   46.5196 C   0  0  0  0  0  0  0  0  0  0  0  0
  -39.4704  -66.1673   48.7725 C   0  0  0  0  0  0  0  0  0  0  0  0
  -39.6143  -64.7750   49.2386 C   0  0  0  0  0  0  0  0  0  0  0  0
  -39.0680  -63.6774   48.3989 C   0  0  0  0  0  0  0  0  0  0  0  0
  -37.9189  -63.0474   49.0108 N   0  0  0  0  0  0  0  0  0  0  0  0
  -38.0807  -62.1528   49.4665 H   0  0  0  0  0  0  0  0  0  0  0  0
  -37.6436  -63.7023   49.8307 H   0  0  0  0  0  0  0  0  0  0  0  0
  -36.7655  -63.0253   48.1607 C   0  0  0  0  0  0  0  0  0  0  0  0
  -35.4458  -63.0751   48.8773 C   0  0  0  0  0  0  0  0  0  0  0  0
  -34.3994  -62.5567   47.8797 C   0  0  0  0  0  0  0  0  0  0  0  0
  -34.3651  -63.4764   46.7086 C   0  0  0  0  0  0  0  0  0  0  0  0
  -35.7190  -63.7163   46.0817 C   0  0  0  0  0  0  0  0  0  0  0  0
  -36.7326  -64.1585   47.1432 C   0  0  0  0  0  0  0  0  0  0  0  0
 14 15  1  0  0  0
 15 16  2  0  0  0
 15 20  1  0  0  0
 16 17  1  0  0  0
 17 18  2  0  0  0
 18 19  1  0  0  0
 18  1  1  0  0  0
 19 20  2  0  0  0
  1  2  2  0  0  0
  1  8  1  0  0  0
  2  3  1  0  0  0
  3  4  1  0  0  0
  3  7  1  0  0  0
  4  5  2  0  0  0
  4 12  1  0  0  0
  5  6  1  0  0  0
  5  9  1  0  0  0
  6  7  2  0  0  0
  7  8  1  0  0  0
  8 21  1  0  0  0
 21 22  1  0  0  0
 22 23  1  0  0  0
 23 24  1  0  0  0
 24 27  1  0  0  0
 27 28  1  0  0  0
 27 32  1  0  0  0
 28 29  1  0  0  0
 29 30  1  0  0  0
 30 31  1  0  0  0
 31 32  1  0  0  0
  9 10  2  0  0  0
 10 11  1  0  0  0
 11 12  2  0  0  0
  6 13  1  0  0  0
 24 25  1  0  0  0
 24 26  1  0  0  0
M  CHG 1  24   1
M  END
> <minimizedAffinity>
-7.47823

$$$$
324


 34 38  0  0  0  0  0  0  0  0999 V2000
  -40.0293  -65.5628   49.8928 C   0  0  0  0  0  0  0  0  0  0  0  0
  -40.4918  -65.8827   51.1833 C   0  0  0  0  0  0  0  0  0  0  0  0
  -39.9791  -67.0464   51.5975 N   0  0  0  0  0  0  0  0  0  0  0  0
  -39.9557  -67.9325   52.6233 C   0  0  0  0  0  0  0  0  0  0  0  0
  -39.1210  -68.9502   52.2309 C   0  0  0  0  0  0  0  0  0  0  0  0
  -38.6605  -68.6580   50.9828 N   0  0  0  0  0  0  0  0  0  0  0  0
  -39.2002  -67.4821   50.6115 C   0  0  0  0  0  0  0  0  0  0  0  0
  -39.2278  -66.5791   49.5670 N   0  0  0  0  0  0  0  0  0  0  0  0
  -38.9198  -69.9975   53.1053 C   0  0  0  0  0  0  0  0  0  0  0  0
  -39.5353  -70.0397   54.3499 C   0  0  0  0  0  0  0  0  0  0  0  0
  -40.3694  -69.0227   54.7400 C   0  0  0  0  0  0  0  0  0  0  0  0
  -40.5724  -67.9600   53.8515 C   0  0  0  0  0  0  0  0  0  0  0  0
  -38.0053  -69.2609   50.4385 H   0  0  0  0  0  0  0  0  0  0  0  0
  -41.5348  -60.3037   46.9256 Br  0  0  0  0  0  0  0  0  0  0  0  0
  -41.0827  -61.9358   47.8257 C   0  0  0  0  0  0  0  0  0  0  0  0
  -42.0299  -62.9010   48.0530 C   0  0  0  0  0  0  0  0  0  0  0  0
  -41.6970  -64.0956   48.7128 C   0  0  0  0  0  0  0  0  0  0  0  0
  -40.4438  -64.3673   49.1598 C   0  0  0  0  0  0  0  0  0  0  0  0
  -39.4957  -63.3725   48.9167 C   0  0  0  0  0  0  0  0  0  0  0  0
  -39.8145  -62.1909   48.2664 C   0  0  0  0  0  0  0  0  0  0  0  0
  -38.4945  -66.7860   48.3360 C   0  0  0  0  0  0  0  0  0  0  0  0
  -37.0796  -66.2584   48.3677 C   0  0  0  0  0  0  0  0  0  0  0  0
  -36.1107  -67.3200   48.8248 C   0  0  0  0  0  0  0  0  0  0  0  0
  -35.2729  -66.9396   49.9285 N   0  0  0  0  0  0  0  0  0  0  0  0
  -35.2511  -65.4855   49.9283 C   0  0  0  0  0  0  0  0  0  0  0  0
  -33.9073  -64.8844   50.1039 C   0  0  0  0  0  0  0  0  0  0  0  0
  -32.8481  -65.4670   49.3262 N   0  0  0  0  0  0  0  0  0  0  0  0
  -33.1287  -66.8173   48.8860 C   0  0  0  0  0  0  0  0  0  0  0  0
  -33.9633  -67.5012   49.9493 C   0  0  0  0  0  0  0  0  0  0  0  0
  -32.0248  -65.5751   49.9984 H   0  0  0  0  0  0  0  0  0  0  0  0
  -32.3853  -64.5859   48.3019 C   0  0  0  0  0  0  0  0  0  0  0  0
  -32.5690  -63.1290   48.5584 C   0  0  0  0  0  0  0  0  0  0  0  0
  -31.4542  -62.5136   49.1248 O   0  0  0  0  0  0  0  0  0  0  0  0
  -30.6498  -62.7872   48.6512 H   0  0  0  0  0  0  0  0  0  0  0  0
 14 15  1  0  0  0
 15 16  2  0  0  0
 15 20  1  0  0  0
 16 17  1  0  0  0
 17 18  2  0  0  0
 18 19  1  0  0  0
 18  1  1  0  0  0
 19 20  2  0  0  0
  1  2  2  0  0  0
  1  8  1  0  0  0
  2  3  1  0  0  0
  3  4  1  0  0  0
  3  7  1  0  0  0
  4  5  2  0  0  0
  4 12  1  0  0  0
  5  6  1  0  0  0
  5  9  1  0  0  0
  6  7  2  0  0  0
  7  8  1  0  0  0
  8 21  1  0  0  0
 21 22  1  0  0  0
 22 23  1  0  0  0
 23 24  1  0  0  0
 24 25  1  0  0  0
 24 29  1  0  0  0
 25 26  1  0  0  0
 26 27  1  0  0  0
 27 28  1  0  0  0
 27 31  1  0  0  0
 28 29  1  0  0  0
 31 32  1  0  0  0
 32 33  1  0  0  0
  9 10  2  0  0  0
 10 11  1  0  0  0
 11 12  2  0  0  0
  6 13  1  0  0  0
 27 30  1  0  0  0
 33 34  1  0  0  0
M  CHG 1  27   1
M  END
> <minimizedAffinity>
-7.52652

$$$$
346


 35 38  0  0  0  0  0  0  0  0999 V2000
  -41.9962  -66.0964   52.9755 C   0  0  0  0  0  0  0  0  0  0  0  0
  -41.8096  -67.3190   53.7083 N   0  0  0  0  0  0  0  0  0  0  0  0
  -43.0515  -67.9040   54.0494 C   0  0  0  0  0  0  0  0  0  0  0  0
  -43.2646  -68.9673   54.7102 O   0  0  0  0  0  0  0  0  0  0  0  0
  -44.1432  -67.0674   53.5025 C   0  0  0  0  0  0  0  0  0  0  0  0
  -45.3656  -67.3040   53.6287 O   0  0  0  0  0  0  0  0  0  0  0  0
  -43.4836  -65.9700   52.8267 C   0  0  0  0  0  0  0  0  0  0  0  0
  -44.1415  -65.0019   52.2284 C   0  0  0  0  0  0  0  0  0  0  0  0
  -43.3887  -63.9519   51.6616 O   0  0  0  0  0  0  0  0  0  0  0  0
  -39.0653  -66.0035   47.5150 Br  0  0  0  0  0  0  0  0  0  0  0  0
  -39.9878  -66.0554   49.1994 C   0  0  0  0  0  0  0  0  0  0  0  0
  -39.6609  -65.1472   50.1816 C   0  0  0  0  0  0  0  0  0  0  0  0
  -40.3185  -65.1624   51.4157 C   0  0  0  0  0  0  0  0  0  0  0  0
  -41.3078  -66.0843   51.6821 C   0  0  0  0  0  0  0  0  0  0  0  0
  -41.6048  -66.9739   50.6747 C   0  0  0  0  0  0  0  0  0  0  0  0
  -40.9683  -66.9731   49.4561 C   0  0  0  0  0  0  0  0  0  0  0  0
  -45.5720  -64.9077   52.0837 C   0  0  0  0  0  0  0  0  0  0  0  0
  -46.3203  -65.4232   51.0842 C   0  0  0  0  0  0  0  0  0  0  0  0
  -47.6928  -65.2889   51.0856 C   0  0  0  0  0  0  0  0  0  0  0  0
  -48.3862  -64.6362   52.0822 C   0  0  0  0  0  0  0  0  0  0  0  0
  -47.5987  -64.1179   53.0913 C   0  0  0  0  0  0  0  0  0  0  0  0
  -46.2363  -64.2327   53.1196 C   0  0  0  0  0  0  0  0  0  0  0  0
  -48.4798  -65.8801   49.9535 C   0  0  0  0  0  0  0  0  0  0  0  0
  -49.7694  -64.5044   52.0773 O   0  0  0  0  0  0  0  0  0  0  0  0
  -50.5546  -65.2149   53.0238 C   0  0  0  0  0  0  0  0  0  0  0  0
  -40.5051  -67.8574   54.0491 C   0  0  0  0  0  0  0  0  0  0  0  0
  -40.1616  -69.1123   53.2944 C   0  0  0  0  0  0  0  0  0  0  0  0
  -38.7238  -69.4925   53.4739 C   0  0  0  0  0  0  0  0  0  0  0  0
  -37.8810  -69.0451   52.4034 N   0  0  0  0  0  0  0  0  0  0  0  0
  -38.4736  -69.2219   51.0936 C   0  0  0  0  0  0  0  0  0  0  0  0
  -37.5738  -68.4807   50.0990 C   0  0  0  0  0  0  0  0  0  0  0  0
  -36.3823  -68.1050   50.7011 O   0  0  0  0  0  0  0  0  0  0  0  0
  -35.7671  -69.2229   51.3067 C   0  0  0  0  0  0  0  0  0  0  0  0
  -36.5942  -69.6725   52.5058 C   0  0  0  0  0  0  0  0  0  0  0  0
  -37.7259  -67.9987   52.5141 H   0  0  0  0  0  0  0  0  0  0  0  0
 10 11  1  0  0  0
 11 12  2  0  0  0
 11 16  1  0  0  0
 12 13  1  0  0  0
 13 14  2  0  0  0
 14 15  1  0  0  0
 14  1  1  0  0  0
 15 16  2  0  0  0
  1  2  1  0  0  0
  1  7  1  0  0  0
  2  3  1  0  0  0
  2 26  1  0  0  0
  3  4  2  0  0  0
  3  5  1  0  0  0
  5  6  2  0  0  0
  5  7  1  0  0  0
  7  8  2  0  0  0
  8  9  1  0  0  0
  8 17  1  0  0  0
 17 18  2  0  0  0
 17 22  1  0  0  0
 18 19  1  0  0  0
 19 20  2  0  0  0
 19 23  1  0  0  0
 20 21  1  0  0  0
 20 24  1  0  0  0
 21 22  2  0  0  0
 24 25  1  0  0  0
 26 27  1  0  0  0
 27 28  1  0  0  0
 28 29  1  0  0  0
 29 30  1  0  0  0
 29 34  1  0  0  0
 30 31  1  0  0  0
 31 32  1  0  0  0
 32 33  1  0  0  0
 33 34  1  0  0  0
 29 35  1  0  0  0
M  CHG 1   9  -1
M  CHG 1  29   1
M  END
> <minimizedAffinity>
-7.27330

$$$$
347


 34 37  0  0  0  0  0  0  0  0999 V2000
  -39.7957  -64.2218   49.0404 C   0  0  0  0  0  0  0  0  0  0  0  0
  -38.9064  -65.0559   48.2580 N   0  0  0  0  0  0  0  0  0  0  0  0
  -39.5497  -66.3264   48.1374 C   0  0  0  0  0  0  0  0  0  0  0  0
  -39.3832  -67.1715   47.2234 O   0  0  0  0  0  0  0  0  0  0  0  0
  -40.4346  -66.4353   49.2922 C   0  0  0  0  0  0  0  0  0  0  0  0
  -41.2065  -67.3709   49.6201 O   0  0  0  0  0  0  0  0  0  0  0  0
  -40.2863  -65.2098   50.0707 C   0  0  0  0  0  0  0  0  0  0  0  0
  -40.5613  -65.0409   51.3407 C   0  0  0  0  0  0  0  0  0  0  0  0
  -40.3821  -63.7402   51.8441 O   0  0  0  0  0  0  0  0  0  0  0  0
  -44.3865  -61.9866   45.5842 Br  0  0  0  0  0  0  0  0  0  0  0  0
  -42.9753  -62.6841   46.6620 C   0  0  0  0  0  0  0  0  0  0  0  0
  -41.7187  -62.8492   46.1288 C   0  0  0  0  0  0  0  0  0  0  0  0
  -40.6826  -63.3586   46.9161 C   0  0  0  0  0  0  0  0  0  0  0  0
  -40.8887  -63.7046   48.2288 C   0  0  0  0  0  0  0  0  0  0  0  0
  -42.1570  -63.5285   48.7348 C   0  0  0  0  0  0  0  0  0  0  0  0
  -43.1942  -63.0253   47.9704 C   0  0  0  0  0  0  0  0  0  0  0  0
  -41.0213  -66.1156   52.2141 C   0  0  0  0  0  0  0  0  0  0  0  0
  -40.2264  -67.1518   52.6486 C   0  0  0  0  0  0  0  0  0  0  0  0
  -40.6606  -68.1852   53.4594 C   0  0  0  0  0  0  0  0  0  0  0  0
  -41.9647  -68.1892   53.8640 C   0  0  0  0  0  0  0  0  0  0  0  0
  -42.8054  -67.1602   53.4497 C   0  0  0  0  0  0  0  0  0  0  0  0
  -42.3371  -66.1465   52.6409 C   0  0  0  0  0  0  0  0  0  0  0  0
  -39.7274  -69.1390   53.7976 O   0  0  0  0  0  0  0  0  0  0  0  0
  -38.8031  -69.7561   52.9693 C   0  0  0  0  0  0  0  0  0  0  0  0
  -37.5974  -64.6907   47.6900 C   0  0  0  0  0  0  0  0  0  0  0  0
  -36.6064  -64.3494   48.8130 C   0  0  0  0  0  0  0  0  0  0  0  0
  -36.4270  -65.5520   49.6947 C   0  0  0  0  0  0  0  0  0  0  0  0
  -35.7731  -66.5947   48.9413 N   0  0  0  0  0  0  0  0  0  0  0  0
  -36.3337  -67.8950   49.1347 C   0  0  0  0  0  0  0  0  0  0  0  0
  -36.0218  -68.4769   50.4712 C   0  0  0  0  0  0  0  0  0  0  0  0
  -34.6554  -68.5130   50.6886 O   0  0  0  0  0  0  0  0  0  0  0  0
  -34.1873  -67.1988   50.6597 C   0  0  0  0  0  0  0  0  0  0  0  0
  -34.3557  -66.6805   49.2446 C   0  0  0  0  0  0  0  0  0  0  0  0
  -35.8382  -66.3520   47.9255 H   0  0  0  0  0  0  0  0  0  0  0  0
 10 11  1  0  0  0
 11 12  2  0  0  0
 11 16  1  0  0  0
 12 13  1  0  0  0
 13 14  2  0  0  0
 14 15  1  0  0  0
 14  1  1  0  0  0
 15 16  2  0  0  0
  1  2  1  0  0  0
  1  7  1  0  0  0
  2  3  1  0  0  0
  2 25  1  0  0  0
  3  4  2  0  0  0
  3  5  1  0  0  0
  5  6  2  0  0  0
  5  7  1  0  0  0
  7  8  2  0  0  0
  8  9  1  0  0  0
  8 17  1  0  0  0
 17 18  2  0  0  0
 17 22  1  0  0  0
 18 19  1  0  0  0
 19 20  2  0  0  0
 19 23  1  0  0  0
 20 21  1  0  0  0
 21 22  2  0  0  0
 23 24  1  0  0  0
 25 26  1  0  0  0
 26 27  1  0  0  0
 27 28  1  0  0  0
 28 29  1  0  0  0
 28 33  1  0  0  0
 29 30  1  0  0  0
 30 31  1  0  0  0
 31 32  1  0  0  0
 32 33  1  0  0  0
 28 34  1  0  0  0
M  CHG 1   9  -1
M  CHG 1  28   1
M  END
> <minimizedAffinity>
-7.58051

$$$$
349


 32 35  0  0  0  0  0  0  0  0999 V2000
  -41.5196  -65.7356   51.3360 C   0  0  0  0  0  0  0  0  0  0  0  0
  -41.2936  -65.4687   49.9814 N   0  0  0  0  0  0  0  0  0  0  0  0
  -41.9059  -64.1382   49.7859 C   0  0  0  0  0  0  0  0  0  0  0  0
  -41.5497  -63.2493   48.9641 O   0  0  0  0  0  0  0  0  0  0  0  0
  -43.0059  -64.0984   50.7548 C   0  0  0  0  0  0  0  0  0  0  0  0
  -43.8375  -63.1626   50.9614 O   0  0  0  0  0  0  0  0  0  0  0  0
  -42.9644  -65.3946   51.4589 C   0  0  0  0  0  0  0  0  0  0  0  0
  -43.9698  -66.0550   51.9871 C   0  0  0  0  0  0  0  0  0  0  0  0
  -43.7683  -67.3067   52.5565 O   0  0  0  0  0  0  0  0  0  0  0  0
  -39.1914  -70.4932   54.4495 Br  0  0  0  0  0  0  0  0  0  0  0  0
  -39.9162  -69.0016   53.4915 C   0  0  0  0  0  0  0  0  0  0  0  0
  -40.0599  -69.0211   52.1211 C   0  0  0  0  0  0  0  0  0  0  0  0
  -40.5785  -67.9456   51.4586 C   0  0  0  0  0  0  0  0  0  0  0  0
  -40.9873  -66.7798   52.1238 C   0  0  0  0  0  0  0  0  0  0  0  0
  -40.8451  -66.7665   53.4663 C   0  0  0  0  0  0  0  0  0  0  0  0
  -40.3153  -67.8627   54.1483 C   0  0  0  0  0  0  0  0  0  0  0  0
  -45.3282  -65.5363   52.0241 C   0  0  0  0  0  0  0  0  0  0  0  0
  -46.2790  -65.7100   51.0678 C   0  0  0  0  0  0  0  0  0  0  0  0
  -47.5567  -65.1984   51.2468 C   0  0  0  0  0  0  0  0  0  0  0  0
  -47.8780  -64.5087   52.3935 C   0  0  0  0  0  0  0  0  0  0  0  0
  -46.9450  -64.3112   53.3842 C   0  0  0  0  0  0  0  0  0  0  0  0
  -45.6744  -64.8320   53.1829 C   0  0  0  0  0  0  0  0  0  0  0  0
  -49.2418  -63.9440   52.6214 C   0  0  0  0  0  0  0  0  0  0  0  0
  -40.6385  -66.0935   48.8420 C   0  0  0  0  0  0  0  0  0  0  0  0
  -39.1785  -65.7481   48.7081 C   0  0  0  0  0  0  0  0  0  0  0  0
  -38.3286  -66.8821   48.5492 N   0  0  0  0  0  0  0  0  0  0  0  0
  -37.6073  -67.1451   49.7803 C   0  0  0  0  0  0  0  0  0  0  0  0
  -36.7555  -68.3717   49.5868 C   0  0  0  0  0  0  0  0  0  0  0  0
  -35.7396  -68.0084   48.6878 O   0  0  0  0  0  0  0  0  0  0  0  0
  -36.3323  -67.7156   47.4817 C   0  0  0  0  0  0  0  0  0  0  0  0
  -37.2823  -66.5487   47.5619 C   0  0  0  0  0  0  0  0  0  0  0  0
  -38.8261  -67.7232   48.2230 H   0  0  0  0  0  0  0  0  0  0  0  0
 10 11  1  0  0  0
 11 12  2  0  0  0
 11 16  1  0  0  0
 12 13  1  0  0  0
 13 14  2  0  0  0
 14 15  1  0  0  0
 14  1  1  0  0  0
 15 16  2  0  0  0
  1  2  1  0  0  0
  1  7  1  0  0  0
  2  3  1  0  0  0
  2 24  1  0  0  0
  3  4  2  0  0  0
  3  5  1  0  0  0
  5  6  2  0  0  0
  5  7  1  0  0  0
  7  8  2  0  0  0
  8  9  1  0  0  0
  8 17  1  0  0  0
 17 18  2  0  0  0
 17 22  1  0  0  0
 18 19  1  0  0  0
 19 20  2  0  0  0
 20 21  1  0  0  0
 20 23  1  0  0  0
 21 22  2  0  0  0
 24 25  1  0  0  0
 25 26  1  0  0  0
 26 27  1  0  0  0
 26 31  1  0  0  0
 27 28  1  0  0  0
 28 29  1  0  0  0
 29 30  1  0  0  0
 30 31  1  0  0  0
 26 32  1  0  0  0
M  CHG 1   9  -1
M  CHG 1  26   1
M  END
> <minimizedAffinity>
-7.47053

$$$$
351


 32 35  0  0  0  0  0  0  0  0999 V2000
  -40.8642  -65.9776   50.2458 C   0  0  0  0  0  0  0  0  0  0  0  0
  -41.6420  -64.8587   50.6352 N   0  0  0  0  0  0  0  0  0  0  0  0
  -41.7398  -64.0738   49.4085 C   0  0  0  0  0  0  0  0  0  0  0  0
  -42.6857  -63.3008   49.0944 O   0  0  0  0  0  0  0  0  0  0  0  0
  -40.5286  -64.3737   48.6467 C   0  0  0  0  0  0  0  0  0  0  0  0
  -40.1787  -63.9197   47.5264 O   0  0  0  0  0  0  0  0  0  0  0  0
  -39.7729  -65.3295   49.4592 C   0  0  0  0  0  0  0  0  0  0  0  0
  -38.4642  -65.5051   49.4915 C   0  0  0  0  0  0  0  0  0  0  0  0
  -37.9017  -66.4158   50.3719 O   0  0  0  0  0  0  0  0  0  0  0  0
  -39.1963  -70.2406   54.3328 Br  0  0  0  0  0  0  0  0  0  0  0  0
  -39.7059  -68.9565   53.0258 C   0  0  0  0  0  0  0  0  0  0  0  0
  -39.6604  -69.2010   51.6724 C   0  0  0  0  0  0  0  0  0  0  0  0
  -40.0452  -68.2283   50.7378 C   0  0  0  0  0  0  0  0  0  0  0  0
  -40.4798  -66.9985   51.1438 C   0  0  0  0  0  0  0  0  0  0  0  0
  -40.5150  -66.7823   52.5059 C   0  0  0  0  0  0  0  0  0  0  0  0
  -40.1421  -67.7251   53.4363 C   0  0  0  0  0  0  0  0  0  0  0  0
  -37.5332  -64.7892   48.6303 C   0  0  0  0  0  0  0  0  0  0  0  0
  -37.0457  -63.5903   49.1680 C   0  0  0  0  0  0  0  0  0  0  0  0
  -36.1276  -62.8127   48.5013 C   0  0  0  0  0  0  0  0  0  0  0  0
  -35.6801  -63.2445   47.2575 C   0  0  0  0  0  0  0  0  0  0  0  0
  -36.1633  -64.4242   46.7357 C   0  0  0  0  0  0  0  0  0  0  0  0
  -37.0835  -65.1969   47.4128 C   0  0  0  0  0  0  0  0  0  0  0  0
  -34.5135  -62.2473   46.4186 Cl  0  0  0  0  0  0  0  0  0  0  0  0
  -42.3057  -64.4666   51.8816 C   0  0  0  0  0  0  0  0  0  0  0  0
  -43.7490  -64.8577   51.9634 C   0  0  0  0  0  0  0  0  0  0  0  0
  -44.2768  -64.7745   53.3068 N   0  0  0  0  0  0  0  0  0  0  0  0
  -43.6530  -65.6990   54.2116 C   0  0  0  0  0  0  0  0  0  0  0  0
  -44.0077  -67.1346   53.9561 C   0  0  0  0  0  0  0  0  0  0  0  0
  -45.3880  -67.3319   53.8906 O   0  0  0  0  0  0  0  0  0  0  0  0
  -45.8454  -66.5422   52.8248 C   0  0  0  0  0  0  0  0  0  0  0  0
  -45.6909  -65.0981   53.2512 C   0  0  0  0  0  0  0  0  0  0  0  0
  -44.1980  -63.8205   53.7090 H   0  0  0  0  0  0  0  0  0  0  0  0
 10 11  1  0  0  0
 11 12  2  0  0  0
 11 16  1  0  0  0
 12 13  1  0  0  0
 13 14  2  0  0  0
 14 15  1  0  0  0
 14  1  1  0  0  0
 15 16  2  0  0  0
  1  2  1  0  0  0
  1  7  1  0  0  0
  2  3  1  0  0  0
  2 24  1  0  0  0
  3  4  2  0  0  0
  3  5  1  0  0  0
  5  6  2  0  0  0
  5  7  1  0  0  0
  7  8  2  0  0  0
  8  9  1  0  0  0
  8 17  1  0  0  0
 17 18  2  0  0  0
 17 22  1  0  0  0
 18 19  1  0  0  0
 19 20  2  0  0  0
 20 21  1  0  0  0
 20 23  1  0  0  0
 21 22  2  0  0  0
 24 25  1  0  0  0
 25 26  1  0  0  0
 26 27  1  0  0  0
 26 31  1  0  0  0
 27 28  1  0  0  0
 28 29  1  0  0  0
 29 30  1  0  0  0
 30 31  1  0  0  0
 26 32  1  0  0  0
M  CHG 1   9  -1
M  CHG 1  26   1
M  END
> <minimizedAffinity>
-8.03408

$$$$
354


 32 35  0  0  0  0  0  0  0  0999 V2000
  -37.9002  -67.8293   49.8425 C   0  0  0  0  0  0  0  0  0  0  0  0
  -36.5209  -68.0307   50.1513 N   0  0  0  0  0  0  0  0  0  0  0  0
  -36.4869  -69.1592   51.0629 C   0  0  0  0  0  0  0  0  0  0  0  0
  -35.4718  -69.8707   51.2802 O   0  0  0  0  0  0  0  0  0  0  0  0
  -37.8056  -69.2965   51.6508 C   0  0  0  0  0  0  0  0  0  0  0  0
  -38.1914  -70.1567   52.4996 O   0  0  0  0  0  0  0  0  0  0  0  0
  -38.6187  -68.2439   51.0767 C   0  0  0  0  0  0  0  0  0  0  0  0
  -39.7366  -67.7607   51.5889 C   0  0  0  0  0  0  0  0  0  0  0  0
  -40.3389  -66.6959   50.8757 O   0  0  0  0  0  0  0  0  0  0  0  0
  -39.8343  -62.5315   47.3132 Br  0  0  0  0  0  0  0  0  0  0  0  0
  -39.2214  -64.1445   48.1303 C   0  0  0  0  0  0  0  0  0  0  0  0
  -38.4239  -64.1420   49.2540 C   0  0  0  0  0  0  0  0  0  0  0  0
  -37.9885  -65.3185   49.8334 C   0  0  0  0  0  0  0  0  0  0  0  0
  -38.3141  -66.5351   49.3375 C   0  0  0  0  0  0  0  0  0  0  0  0
  -39.1276  -66.5248   48.1920 C   0  0  0  0  0  0  0  0  0  0  0  0
  -39.5733  -65.3662   47.5990 C   0  0  0  0  0  0  0  0  0  0  0  0
  -40.3643  -68.2511   52.7994 C   0  0  0  0  0  0  0  0  0  0  0  0
  -40.0650  -67.5515   53.9751 C   0  0  0  0  0  0  0  0  0  0  0  0
  -40.6252  -67.8823   55.1912 C   0  0  0  0  0  0  0  0  0  0  0  0
  -41.4899  -68.9102   55.2654 N   0  0  0  0  0  0  0  0  0  0  0  0
  -41.7969  -69.6017   54.1485 C   0  0  0  0  0  0  0  0  0  0  0  0
  -41.2378  -69.2769   52.9141 C   0  0  0  0  0  0  0  0  0  0  0  0
  -35.3017  -67.3811   49.6659 C   0  0  0  0  0  0  0  0  0  0  0  0
  -34.4404  -66.7788   50.7233 C   0  0  0  0  0  0  0  0  0  0  0  0
  -34.2714  -65.2793   50.5337 C   0  0  0  0  0  0  0  0  0  0  0  0
  -34.0312  -64.9496   49.1481 N   0  0  0  0  0  0  0  0  0  0  0  0
  -34.7336  -63.7571   48.7312 C   0  0  0  0  0  0  0  0  0  0  0  0
  -34.0736  -63.2917   47.4310 C   0  0  0  0  0  0  0  0  0  0  0  0
  -32.8549  -62.6919   47.7465 O   0  0  0  0  0  0  0  0  0  0  0  0
  -32.1858  -63.3871   48.7530 C   0  0  0  0  0  0  0  0  0  0  0  0
  -32.6418  -64.8296   48.8290 C   0  0  0  0  0  0  0  0  0  0  0  0
  -34.4194  -65.7426   48.5832 H   0  0  0  0  0  0  0  0  0  0  0  0
 10 11  1  0  0  0
 11 12  2  0  0  0
 11 16  1  0  0  0
 12 13  1  0  0  0
 13 14  2  0  0  0
 14 15  1  0  0  0
 14  1  1  0  0  0
 15 16  2  0  0  0
  1  2  1  0  0  0
  1  7  1  0  0  0
  2  3  1  0  0  0
  2 23  1  0  0  0
  3  4  2  0  0  0
  3  5  1  0  0  0
  5  6  2  0  0  0
  5  7  1  0  0  0
  7  8  2  0  0  0
  8  9  1  0  0  0
  8 17  1  0  0  0
 17 18  2  0  0  0
 17 22  1  0  0  0
 18 19  1  0  0  0
 19 20  2  0  0  0
 20 21  1  0  0  0
 21 22  2  0  0  0
 23 24  1  0  0  0
 24 25  1  0  0  0
 25 26  1  0  0  0
 26 27  1  0  0  0
 26 31  1  0  0  0
 27 28  1  0  0  0
 28 29  1  0  0  0
 29 30  1  0  0  0
 30 31  1  0  0  0
 26 32  1  0  0  0
M  CHG 1   9  -1
M  CHG 1  26   1
M  END
> <minimizedAffinity>
-7.65106

$$$$
361


 33 36  0  0  0  0  0  0  0  0999 V2000
  -42.0774  -66.4916   50.8456 C   0  0  0  0  0  0  0  0  0  0  0  0
  -43.0130  -65.6845   51.6505 N   0  0  0  0  0  0  0  0  0  0  0  0
  -42.1865  -64.7247   52.2996 C   0  0  0  0  0  0  0  0  0  0  0  0
  -42.4835  -64.1489   53.3859 O   0  0  0  0  0  0  0  0  0  0  0  0
  -40.9764  -64.5329   51.5073 C   0  0  0  0  0  0  0  0  0  0  0  0
  -40.0266  -63.7638   51.7612 O   0  0  0  0  0  0  0  0  0  0  0  0
  -41.1248  -65.4219   50.3700 C   0  0  0  0  0  0  0  0  0  0  0  0
  -40.5913  -65.3114   49.1802 C   0  0  0  0  0  0  0  0  0  0  0  0
  -40.8778  -66.2294   48.1798 O   0  0  0  0  0  0  0  0  0  0  0  0
  -39.6767  -64.2350   48.8501 C   0  0  0  0  0  0  0  0  0  0  0  0
  -38.3389  -64.1248   48.9820 N   0  0  0  0  0  0  0  0  0  0  0  0
  -37.9169  -62.9194   48.5732 C   0  0  0  0  0  0  0  0  0  0  0  0
  -39.0214  -62.2531   48.1732 N   0  0  0  0  0  0  0  0  0  0  0  0
  -40.1001  -62.9977   48.3182 C   0  0  0  0  0  0  0  0  0  0  0  0
  -41.5301  -62.6781   48.0058 C   0  0  0  0  0  0  0  0  0  0  0  0
  -36.5744  -62.5395   48.5826 C   0  0  0  0  0  0  0  0  0  0  0  0
  -35.6138  -63.4198   49.0244 C   0  0  0  0  0  0  0  0  0  0  0  0
  -36.0645  -64.6524   49.4374 C   0  0  0  0  0  0  0  0  0  0  0  0
  -37.3947  -64.9982   49.4175 C   0  0  0  0  0  0  0  0  0  0  0  0
  -38.7633  -70.3062   54.4743 Br  0  0  0  0  0  0  0  0  0  0  0  0
  -39.7906  -69.1307   53.3540 C   0  0  0  0  0  0  0  0  0  0  0  0
  -39.4672  -68.9649   52.0197 C   0  0  0  0  0  0  0  0  0  0  0  0
  -40.2218  -68.1087   51.2196 C   0  0  0  0  0  0  0  0  0  0  0  0
  -41.2975  -67.4064   51.7087 C   0  0  0  0  0  0  0  0  0  0  0  0
  -41.6028  -67.5864   53.0403 C   0  0  0  0  0  0  0  0  0  0  0  0
  -40.8650  -68.4281   53.8391 C   0  0  0  0  0  0  0  0  0  0  0  0
  -44.4371  -65.8700   51.7452 C   0  0  0  0  0  0  0  0  0  0  0  0
  -44.9908  -66.6941   52.8401 C   0  0  0  0  0  0  0  0  0  0  0  0
  -45.7250  -66.0676   53.9584 C   0  0  0  0  0  0  0  0  0  0  0  0
  -47.0779  -66.4751   54.1884 N   0  0  0  0  0  0  0  0  0  0  0  0
  -47.9229  -65.7019   53.2342 C   0  0  0  0  0  0  0  0  0  0  0  0
  -47.2545  -67.8533   53.7788 C   0  0  0  0  0  0  0  0  0  0  0  0
  -47.4488  -66.3384   55.1284 H   0  0  0  0  0  0  0  0  0  0  0  0
 20 21  1  0  0  0
 21 22  2  0  0  0
 21 26  1  0  0  0
 22 23  1  0  0  0
 23 24  2  0  0  0
 24 25  1  0  0  0
 24  1  1  0  0  0
 25 26  2  0  0  0
  1  2  1  0  0  0
  1  7  1  0  0  0
  2  3  1  0  0  0
  2 27  1  0  0  0
  3  4  2  0  0  0
  3  5  1  0  0  0
  5  6  2  0  0  0
  5  7  1  0  0  0
  7  8  2  0  0  0
  8  9  1  0  0  0
  8 10  1  0  0  0
 10 11  1  0  0  0
 10 14  2  0  0  0
 11 12  1  0  0  0
 11 19  1  0  0  0
 12 13  2  0  0  0
 12 16  1  0  0  0
 13 14  1  0  0  0
 14 15  1  0  0  0
 16 17  2  0  0  0
 17 18  1  0  0  0
 18 19  2  0  0  0
 27 28  1  0  0  0
 28 29  1  0  0  0
 29 30  1  0  0  0
 30 31  1  0  0  0
 30 32  1  0  0  0
 30 33  1  0  0  0
M  CHG 1   9  -1
M  CHG 1  30   1
M  END
> <minimizedAffinity>
-8.15688

$$$$
362


 36 40  0  0  0  0  0  0  0  0999 V2000
  -38.3173  -62.8160   47.9656 C   0  0  0  0  0  0  0  0  0  0  0  0
  -37.1655  -62.1004   47.6076 N   0  0  0  0  0  0  0  0  0  0  0  0
  -36.2287  -62.4541   48.6607 C   0  0  0  0  0  0  0  0  0  0  0  0
  -35.2325  -61.7770   49.0881 O   0  0  0  0  0  0  0  0  0  0  0  0
  -36.6192  -63.7615   49.1763 C   0  0  0  0  0  0  0  0  0  0  0  0
  -36.1110  -64.4788   50.0967 O   0  0  0  0  0  0  0  0  0  0  0  0
  -37.7936  -64.1390   48.3926 C   0  0  0  0  0  0  0  0  0  0  0  0
  -38.2775  -65.3462   48.1686 C   0  0  0  0  0  0  0  0  0  0  0  0
  -39.4467  -65.5004   47.4364 O   0  0  0  0  0  0  0  0  0  0  0  0
  -37.6326  -66.5551   48.6577 C   0  0  0  0  0  0  0  0  0  0  0  0
  -38.0276  -67.3526   49.6644 N   0  0  0  0  0  0  0  0  0  0  0  0
  -37.1797  -68.4003   49.7867 C   0  0  0  0  0  0  0  0  0  0  0  0
  -36.2450  -68.2426   48.8359 N   0  0  0  0  0  0  0  0  0  0  0  0
  -36.4797  -67.1389   48.1299 C   0  0  0  0  0  0  0  0  0  0  0  0
  -35.7227  -66.5604   46.9879 C   0  0  0  0  0  0  0  0  0  0  0  0
  -37.3406  -69.3739   50.7495 C   0  0  0  0  0  0  0  0  0  0  0  0
  -38.3851  -69.3195   51.6418 C   0  0  0  0  0  0  0  0  0  0  0  0
  -39.2564  -68.2587   51.5327 C   0  0  0  0  0  0  0  0  0  0  0  0
  -39.0538  -67.3251   50.5643 C   0  0  0  0  0  0  0  0  0  0  0  0
  -43.5097  -62.9054   44.6930 Br  0  0  0  0  0  0  0  0  0  0  0  0
  -41.8845  -62.8832   45.6919 C   0  0  0  0  0  0  0  0  0  0  0  0
  -40.6455  -62.8594   45.0790 C   0  0  0  0  0  0  0  0  0  0  0  0
  -39.4704  -62.8432   45.8003 C   0  0  0  0  0  0  0  0  0  0  0  0
  -39.5020  -62.8495   47.1654 C   0  0  0  0  0  0  0  0  0  0  0  0
  -40.7239  -62.8728   47.7756 C   0  0  0  0  0  0  0  0  0  0  0  0
  -41.9070  -62.8894   47.0733 C   0  0  0  0  0  0  0  0  0  0  0  0
  -36.7189  -61.1851   46.6080 C   0  0  0  0  0  0  0  0  0  0  0  0
  -35.9700  -61.5868   45.4374 C   0  0  0  0  0  0  0  0  0  0  0  0
  -34.4736  -61.3799   45.4501 C   0  0  0  0  0  0  0  0  0  0  0  0
  -33.7608  -62.6421   45.2780 N   0  0  0  0  0  0  0  0  0  0  0  0
  -33.4052  -63.2838   46.5090 C   0  0  0  0  0  0  0  0  0  0  0  0
  -32.0866  -62.8555   47.0825 C   0  0  0  0  0  0  0  0  0  0  0  0
  -31.5824  -61.7155   46.5155 O   0  0  0  0  0  0  0  0  0  0  0  0
  -31.5020  -61.7239   45.1475 C   0  0  0  0  0  0  0  0  0  0  0  0
  -32.5869  -62.4957   44.4719 C   0  0  0  0  0  0  0  0  0  0  0  0
  -34.4260  -63.2856   44.7810 H   0  0  0  0  0  0  0  0  0  0  0  0
 20 21  1  0  0  0
 21 22  2  0  0  0
 21 26  1  0  0  0
 22 23  1  0  0  0
 23 24  2  0  0  0
 24 25  1  0  0  0
 24  1  1  0  0  0
 25 26  2  0  0  0
  1  2  1  0  0  0
  1  7  1  0  0  0
  2  3  1  0  0  0
  2 27  1  0  0  0
  3  4  2  0  0  0
  3  5  1  0  0  0
  5  6  2  0  0  0
  5  7  1  0  0  0
  7  8  2  0  0  0
  8  9  1  0  0  0
  8 10  1  0  0  0
 10 11  1  0  0  0
 10 14  2  0  0  0
 11 12  1  0  0  0
 11 19  1  0  0  0
 12 13  2  0  0  0
 12 16  1  0  0  0
 13 14  1  0  0  0
 14 15  1  0  0  0
 16 17  2  0  0  0
 17 18  1  0  0  0
 18 19  2  0  0  0
 27 28  1  0  0  0
 28 29  1  0  0  0
 29 30  1  0  0  0
 30 31  1  0  0  0
 30 35  1  0  0  0
 31 32  1  0  0  0
 32 33  1  0  0  0
 33 34  1  0  0  0
 34 35  1  0  0  0
 30 36  1  0  0  0
M  CHG 1   9  -1
M  CHG 1  30   1
M  END
> <minimizedAffinity>
-7.38542

$$$$
364


 32 35  0  0  0  0  0  0  0  0999 V2000
  -41.9328  -66.5097   50.9282 C   0  0  0  0  0  0  0  0  0  0  0  0
  -42.9533  -65.8164   51.6648 N   0  0  0  0  0  0  0  0  0  0  0  0
  -42.5030  -64.4883   51.8680 C   0  0  0  0  0  0  0  0  0  0  0  0
  -43.0345  -63.6411   52.6413 O   0  0  0  0  0  0  0  0  0  0  0  0
  -41.3192  -64.2501   51.0385 C   0  0  0  0  0  0  0  0  0  0  0  0
  -40.6469  -63.1932   50.9477 O   0  0  0  0  0  0  0  0  0  0  0  0
  -41.0585  -65.4843   50.3196 C   0  0  0  0  0  0  0  0  0  0  0  0
  -40.2384  -65.6197   49.2899 C   0  0  0  0  0  0  0  0  0  0  0  0
  -40.1801  -66.8868   48.6772 O   0  0  0  0  0  0  0  0  0  0  0  0
  -39.3872  -64.5969   48.7349 C   0  0  0  0  0  0  0  0  0  0  0  0
  -38.1043  -64.2683   48.9304 N   0  0  0  0  0  0  0  0  0  0  0  0
  -37.7676  -63.1920   48.1988 C   0  0  0  0  0  0  0  0  0  0  0  0
  -38.8647  -62.8234   47.5162 N   0  0  0  0  0  0  0  0  0  0  0  0
  -39.8656  -63.6526   47.8166 C   0  0  0  0  0  0  0  0  0  0  0  0
  -41.2448  -63.5711   47.2589 C   0  0  0  0  0  0  0  0  0  0  0  0
  -36.4925  -62.6369   48.1899 C   0  0  0  0  0  0  0  0  0  0  0  0
  -35.5283  -63.2178   48.9666 C   0  0  0  0  0  0  0  0  0  0  0  0
  -35.8711  -64.3261   49.7192 C   0  0  0  0  0  0  0  0  0  0  0  0
  -37.1478  -64.8376   49.6948 C   0  0  0  0  0  0  0  0  0  0  0  0
  -38.7024  -70.5059   54.4306 Br  0  0  0  0  0  0  0  0  0  0  0  0
  -39.7058  -69.2570   53.3888 C   0  0  0  0  0  0  0  0  0  0  0  0
  -39.7514  -69.4168   52.0334 C   0  0  0  0  0  0  0  0  0  0  0  0
  -40.4692  -68.5248   51.2715 C   0  0  0  0  0  0  0  0  0  0  0  0
  -41.1663  -67.4545   51.7847 C   0  0  0  0  0  0  0  0  0  0  0  0
  -41.0995  -67.3204   53.1725 C   0  0  0  0  0  0  0  0  0  0  0  0
  -40.3862  -68.2025   53.9493 C   0  0  0  0  0  0  0  0  0  0  0  0
  -44.2422  -66.3751   52.1290 C   0  0  0  0  0  0  0  0  0  0  0  0
  -44.4360  -66.0725   53.5995 C   0  0  0  0  0  0  0  0  0  0  0  0
  -45.7884  -65.8148   53.9506 N   0  0  0  0  0  0  0  0  0  0  0  0
  -46.2585  -64.7037   53.1228 C   0  0  0  0  0  0  0  0  0  0  0  0
  -46.6830  -66.9185   53.7862 C   0  0  0  0  0  0  0  0  0  0  0  0
  -45.8819  -65.4850   54.9525 H   0  0  0  0  0  0  0  0  0  0  0  0
 20 21  1  0  0  0
 21 22  2  0  0  0
 21 26  1  0  0  0
 22 23  1  0  0  0
 23 24  2  0  0  0
 24 25  1  0  0  0
 24  1  1  0  0  0
 25 26  2  0  0  0
  1  2  1  0  0  0
  1  7  1  0  0  0
  2  3  1  0  0  0
  2 27  1  0  0  0
  3  4  2  0  0  0
  3  5  1  0  0  0
  5  6  2  0  0  0
  5  7  1  0  0  0
  7  8  2  0  0  0
  8  9  1  0  0  0
  8 10  1  0  0  0
 10 11  1  0  0  0
 10 14  2  0  0  0
 11 12  1  0  0  0
 11 19  1  0  0  0
 12 13  2  0  0  0
 12 16  1  0  0  0
 13 14  1  0  0  0
 14 15  1  0  0  0
 16 17  2  0  0  0
 17 18  1  0  0  0
 18 19  2  0  0  0
 27 28  1  0  0  0
 28 29  1  0  0  0
 29 30  1  0  0  0
 29 31  1  0  0  0
 29 32  1  0  0  0
M  CHG 1   9  -1
M  CHG 1  29   1
M  END
> <minimizedAffinity>
-7.91597

$$$$
381


 29 32  0  0  0  0  0  0  0  0999 V2000
  -42.1982  -64.8348   50.8087 N   0  0  0  0  0  0  0  0  0  0  0  0
  -41.5824  -65.8359   51.4306 N   0  0  0  0  0  0  0  0  0  0  0  0
  -42.0447  -66.3396   52.6107 C   0  0  0  0  0  0  0  0  0  0  0  0
  -43.1486  -65.8120   53.1619 N   0  0  0  0  0  0  0  0  0  0  0  0
  -43.4527  -66.4688   54.4141 C   0  0  0  0  0  0  0  0  0  0  0  0
  -42.4034  -67.5202   54.6215 C   0  0  0  0  0  0  0  0  0  0  0  0
  -41.5878  -67.4120   53.4264 N   0  0  0  0  0  0  0  0  0  0  0  0
  -43.8120  -64.8025   52.5825 C   0  0  0  0  0  0  0  0  0  0  0  0
  -44.8434  -64.3110   53.0995 O   0  0  0  0  0  0  0  0  0  0  0  0
  -43.3021  -64.3319   51.3891 C   0  0  0  0  0  0  0  0  0  0  0  0
  -43.8893  -63.3844   50.8084 O   0  0  0  0  0  0  0  0  0  0  0  0
  -40.5024  -68.2793   53.1597 C   0  0  0  0  0  0  0  0  0  0  0  0
  -39.8573  -68.3442   51.9539 C   0  0  0  0  0  0  0  0  0  0  0  0
  -38.8081  -69.2154   51.7194 C   0  0  0  0  0  0  0  0  0  0  0  0
  -38.3823  -70.0578   52.7286 C   0  0  0  0  0  0  0  0  0  0  0  0
  -39.0090  -70.0085   53.9338 C   0  0  0  0  0  0  0  0  0  0  0  0
  -40.0542  -69.1383   54.1586 C   0  0  0  0  0  0  0  0  0  0  0  0
  -41.7305  -64.3027   49.5180 C   0  0  0  0  0  0  0  0  0  0  0  0
  -39.2611  -64.8141   50.0238 N   0  0  0  0  0  0  0  0  0  0  0  0
  -40.3952  -64.8079   49.2028 C   0  0  0  0  0  0  0  0  0  0  0  0
  -40.3056  -65.2980   48.0076 O   0  0  0  0  0  0  0  0  0  0  0  0
  -39.3774  -64.3944   50.9895 H   0  0  0  0  0  0  0  0  0  0  0  0
  -33.6059  -66.6492   48.3932 Br  0  0  0  0  0  0  0  0  0  0  0  0
  -35.3677  -66.1194   48.9092 C   0  0  0  0  0  0  0  0  0  0  0  0
  -36.3703  -67.0322   49.1041 C   0  0  0  0  0  0  0  0  0  0  0  0
  -37.6597  -66.6303   49.4795 C   0  0  0  0  0  0  0  0  0  0  0  0
  -38.0042  -65.3166   49.6766 C   0  0  0  0  0  0  0  0  0  0  0  0
  -36.9498  -64.4057   49.4693 C   0  0  0  0  0  0  0  0  0  0  0  0
  -35.6902  -64.7904   49.1019 C   0  0  0  0  0  0  0  0  0  0  0  0
 23 24  1  0  0  0
 24 25  2  0  0  0
 24 29  1  0  0  0
 25 26  1  0  0  0
 26 27  2  0  0  0
 27 28  1  0  0  0
 27 19  1  0  0  0
 28 29  2  0  0  0
 19 20  1  0  0  0
 20 21  2  0  0  0
 20 18  1  0  0  0
 18  1  1  0  0  0
  1  2  1  0  0  0
  1 10  1  0  0  0
  2  3  2  0  0  0
  3  4  1  0  0  0
  3  7  1  0  0  0
  4  5  1  0  0  0
  4  8  1  0  0  0
  5  6  1  0  0  0
  6  7  1  0  0  0
  7 12  1  0  0  0
 12 13  2  0  0  0
 12 17  1  0  0  0
 13 14  1  0  0  0
 14 15  2  0  0  0
 15 16  1  0  0  0
 16 17  2  0  0  0
  8  9  2  0  0  0
  8 10  1  0  0  0
 10 11  2  0  0  0
 19 22  1  0  0  0
M  END
> <minimizedAffinity>
-8.77140

$$$$
382


 31 34  0  0  0  0  0  0  0  0999 V2000
  -35.9918  -69.0439   50.9770 N   0  0  0  0  0  0  0  0  0  0  0  0
  -34.8586  -69.2489   51.6489 N   0  0  0  0  0  0  0  0  0  0  0  0
  -34.0466  -68.2354   51.4555 N   0  0  0  0  0  0  0  0  0  0  0  0
  -34.6600  -67.3444   50.6402 C   0  0  0  0  0  0  0  0  0  0  0  0
  -35.8616  -67.8598   50.3539 C   0  0  0  0  0  0  0  0  0  0  0  0
  -36.4512  -66.9279   49.5257 C   0  0  0  0  0  0  0  0  0  0  0  0
  -37.6148  -67.0800   49.0477 O   0  0  0  0  0  0  0  0  0  0  0  0
  -35.6517  -65.8733   49.3038 N   0  0  0  0  0  0  0  0  0  0  0  0
  -34.5131  -66.1322   50.0078 C   0  0  0  0  0  0  0  0  0  0  0  0
  -33.5288  -65.3439   50.0291 O   0  0  0  0  0  0  0  0  0  0  0  0
  -34.6867  -70.0974   52.2272 H   0  0  0  0  0  0  0  0  0  0  0  0
  -33.0805  -68.0874   51.8403 H   0  0  0  0  0  0  0  0  0  0  0  0
  -35.9003  -64.7057   48.5075 C   0  0  0  0  0  0  0  0  0  0  0  0
  -36.2708  -63.5141   49.0930 C   0  0  0  0  0  0  0  0  0  0  0  0
  -36.5012  -62.3835   48.3348 C   0  0  0  0  0  0  0  0  0  0  0  0
  -36.3755  -62.3861   46.9574 C   0  0  0  0  0  0  0  0  0  0  0  0
  -36.0049  -63.5769   46.3691 C   0  0  0  0  0  0  0  0  0  0  0  0
  -35.7742  -64.7082   47.1347 C   0  0  0  0  0  0  0  0  0  0  0  0
  -36.6266  -61.1484   46.1707 C   0  0  0  0  0  0  0  0  0  0  0  0
  -37.1134  -69.9619   50.9610 C   0  0  0  0  0  0  0  0  0  0  0  0
  -39.2268  -68.6503   51.4199 N   0  0  0  0  0  0  0  0  0  0  0  0
  -38.1785  -69.4398   51.9108 C   0  0  0  0  0  0  0  0  0  0  0  0
  -38.0987  -69.7235   53.1243 O   0  0  0  0  0  0  0  0  0  0  0  0
  -39.2494  -68.4283   50.3745 H   0  0  0  0  0  0  0  0  0  0  0  0
  -43.7581  -66.0065   54.6260 Br  0  0  0  0  0  0  0  0  0  0  0  0
  -42.3680  -66.8753   53.6643 C   0  0  0  0  0  0  0  0  0  0  0  0
  -41.9250  -68.1344   53.9801 C   0  0  0  0  0  0  0  0  0  0  0  0
  -40.9048  -68.7245   53.2465 C   0  0  0  0  0  0  0  0  0  0  0  0
  -40.2851  -68.1056   52.1825 C   0  0  0  0  0  0  0  0  0  0  0  0
  -40.7661  -66.8157   51.8872 C   0  0  0  0  0  0  0  0  0  0  0  0
  -41.7637  -66.2364   52.6041 C   0  0  0  0  0  0  0  0  0  0  0  0
 25 26  1  0  0  0
 26 27  2  0  0  0
 26 31  1  0  0  0
 27 28  1  0  0  0
 28 29  2  0  0  0
 29 30  1  0  0  0
 29 21  1  0  0  0
 30 31  2  0  0  0
 21 22  1  0  0  0
 22 23  2  0  0  0
 22 20  1  0  0  0
 20  1  1  0  0  0
  1  2  1  0  0  0
  1  5  1  0  0  0
  2  3  1  0  0  0
  3  4  1  0  0  0
  4  5  2  0  0  0
  4  9  1  0  0  0
  5  6  1  0  0  0
  6  7  2  0  0  0
  6  8  1  0  0  0
  8  9  1  0  0  0
  8 13  1  0  0  0
  9 10  2  0  0  0
 13 14  2  0  0  0
 13 18  1  0  0  0
 14 15  1  0  0  0
 15 16  2  0  0  0
 16 17  1  0  0  0
 16 19  1  0  0  0
 17 18  2  0  0  0
 21 24  1  0  0  0
  2 11  1  0  0  0
  3 12  1  0  0  0
M  END
> <minimizedAffinity>
-8.28849

$$$$
385


 32 35  0  0  0  0  0  0  0  0999 V2000
  -37.1974  -68.9266   50.1816 C   0  0  0  0  0  0  0  0  0  0  0  0
  -36.8988  -68.6730   48.7339 C   0  0  0  0  0  0  0  0  0  0  0  0
  -37.2846  -67.3396   48.2551 C   0  0  0  0  0  0  0  0  0  0  0  0
  -36.6024  -66.8251   47.3276 O   0  0  0  0  0  0  0  0  0  0  0  0
  -38.3899  -66.6668   48.8314 N   0  0  0  0  0  0  0  0  0  0  0  0
  -38.9183  -67.1044   50.0652 C   0  0  0  0  0  0  0  0  0  0  0  0
  -39.9956  -66.4472   50.5968 N   0  0  0  0  0  0  0  0  0  0  0  0
  -40.5539  -66.8156   51.7517 C   0  0  0  0  0  0  0  0  0  0  0  0
  -40.0229  -67.8649   52.3921 N   0  0  0  0  0  0  0  0  0  0  0  0
  -38.9486  -68.5536   51.9072 C   0  0  0  0  0  0  0  0  0  0  0  0
  -38.3533  -68.1934   50.7145 C   0  0  0  0  0  0  0  0  0  0  0  0
  -38.4126  -69.6556   52.6322 N   0  0  0  0  0  0  0  0  0  0  0  0
  -38.8420  -65.8311   48.3592 H   0  0  0  0  0  0  0  0  0  0  0  0
  -37.7742  -70.3424   52.2199 H   0  0  0  0  0  0  0  0  0  0  0  0
  -38.6906  -69.7744   53.6397 H   0  0  0  0  0  0  0  0  0  0  0  0
  -41.6898  -66.1039   52.2946 N   0  0  0  0  0  0  0  0  0  0  0  0
  -42.4703  -66.7793   53.2715 C   0  0  0  0  0  0  0  0  0  0  0  0
  -43.3295  -65.8764   54.1087 C   0  0  0  0  0  0  0  0  0  0  0  0
  -43.1243  -64.5311   53.8226 O   0  0  0  0  0  0  0  0  0  0  0  0
  -43.2168  -64.2715   52.4619 C   0  0  0  0  0  0  0  0  0  0  0  0
  -41.9483  -64.7626   51.8134 C   0  0  0  0  0  0  0  0  0  0  0  0
  -35.1436  -67.5704   50.5014 N   0  0  0  0  0  0  0  0  0  0  0  0
  -35.8958  -68.5694   50.9313 C   0  0  0  0  0  0  0  0  0  0  0  0
  -35.7420  -69.3719   51.9357 O   0  0  0  0  0  0  0  0  0  0  0  0
  -34.1756  -67.9083   51.3983 H   0  0  0  0  0  0  0  0  0  0  0  0
  -31.4860  -63.3109   48.1134 Br  0  0  0  0  0  0  0  0  0  0  0  0
  -32.6437  -64.6234   48.9020 C   0  0  0  0  0  0  0  0  0  0  0  0
  -32.3621  -65.9634   48.8068 C   0  0  0  0  0  0  0  0  0  0  0  0
  -33.1691  -66.8946   49.3524 C   0  0  0  0  0  0  0  0  0  0  0  0
  -34.3616  -66.5341   50.0568 C   0  0  0  0  0  0  0  0  0  0  0  0
  -34.6062  -65.1803   50.1290 C   0  0  0  0  0  0  0  0  0  0  0  0
  -33.7815  -64.2334   49.5739 C   0  0  0  0  0  0  0  0  0  0  0  0
 26 27  1  0  0  0
 27 28  2  0  0  0
 27 32  1  0  0  0
 28 29  1  0  0  0
 29 30  2  0  0  0
 30 31  1  0  0  0
 30 22  1  0  0  0
 31 32  2  0  0  0
 22 23  1  0  0  0
 23 24  2  0  0  0
 23  1  1  0  0  0
  1  2  1  0  0  0
  1 11  1  0  0  0
  2  3  1  0  0  0
  3  4  2  0  0  0
  3  5  1  0  0  0
  5  6  1  0  0  0
  6  7  2  0  0  0
  6 11  1  0  0  0
  7  8  1  0  0  0
  8  9  2  0  0  0
  8 16  1  0  0  0
  9 10  1  0  0  0
 10 11  2  0  0  0
 10 12  1  0  0  0
 16 17  1  0  0  0
 16 21  1  0  0  0
 17 18  1  0  0  0
 18 19  1  0  0  0
 19 20  1  0  0  0
 20 21  1  0  0  0
 22 25  1  0  0  0
  5 13  1  0  0  0
 12 14  1  0  0  0
 12 15  1  0  0  0
M  END
> <minimizedAffinity>
-8.46718

$$$$
386


 36 39  0  0  0  0  0  0  0  0999 V2000
  -44.6932  -66.1528   53.7539 C   0  0  0  0  0  0  0  0  0  0  0  0
  -45.3665  -67.4899   53.5070 C   0  0  0  0  0  0  0  0  0  0  0  0
  -46.7943  -67.2245   53.1553 C   0  0  0  0  0  0  0  0  0  0  0  0
  -47.6957  -67.8310   53.7057 O   0  0  0  0  0  0  0  0  0  0  0  0
  -47.0250  -66.2543   52.1694 N   0  0  0  0  0  0  0  0  0  0  0  0
  -46.0506  -65.2726   51.8773 C   0  0  0  0  0  0  0  0  0  0  0  0
  -46.2181  -64.3960   50.8665 N   0  0  0  0  0  0  0  0  0  0  0  0
  -45.3160  -63.5006   50.4638 C   0  0  0  0  0  0  0  0  0  0  0  0
  -44.1481  -63.5097   51.1574 N   0  0  0  0  0  0  0  0  0  0  0  0
  -43.9105  -64.3614   52.1878 C   0  0  0  0  0  0  0  0  0  0  0  0
  -44.8344  -65.2720   52.6008 C   0  0  0  0  0  0  0  0  0  0  0  0
  -42.6831  -64.3060   52.8430 O   0  0  0  0  0  0  0  0  0  0  0  0
  -47.9157  -66.2119   51.6048 H   0  0  0  0  0  0  0  0  0  0  0  0
  -41.8297  -64.6794   52.4331 H   0  0  0  0  0  0  0  0  0  0  0  0
  -45.5363  -62.5575   49.4328 N   0  0  0  0  0  0  0  0  0  0  0  0
  -45.1933  -61.1594   49.4601 C   0  0  0  0  0  0  0  0  0  0  0  0
  -44.6929  -60.7624   48.0745 C   0  0  0  0  0  0  0  0  0  0  0  0
  -44.0441  -61.9086   47.3557 C   0  0  0  0  0  0  0  0  0  0  0  0
  -44.9881  -63.0440   47.1708 C   0  0  0  0  0  0  0  0  0  0  0  0
  -46.1572  -63.0083   48.1820 C   0  0  0  0  0  0  0  0  0  0  0  0
  -42.7689  -62.3134   47.9935 C   0  0  0  0  0  0  0  0  0  0  0  0
  -41.9228  -61.4230   48.2145 O   0  0  0  0  0  0  0  0  0  0  0  0
  -42.4585  -63.6426   48.3577 N   0  0  0  0  0  0  0  0  0  0  0  0
  -43.1695  -64.3050   48.7182 H   0  0  0  0  0  0  0  0  0  0  0  0
  -41.4749  -63.9702   48.2589 H   0  0  0  0  0  0  0  0  0  0  0  0
  -42.3377  -66.9245   53.9296 N   0  0  0  0  0  0  0  0  0  0  0  0
  -43.3823  -66.2520   54.4502 C   0  0  0  0  0  0  0  0  0  0  0  0
  -43.4369  -65.6001   55.5803 O   0  0  0  0  0  0  0  0  0  0  0  0
  -41.5472  -66.4890   54.9299 H   0  0  0  0  0  0  0  0  0  0  0  0
  -37.8536  -69.8079   51.0913 Br  0  0  0  0  0  0  0  0  0  0  0  0
  -39.2343  -68.9326   52.0453 C   0  0  0  0  0  0  0  0  0  0  0  0
  -39.9125  -67.8775   51.4605 C   0  0  0  0  0  0  0  0  0  0  0  0
  -40.9112  -67.2004   52.0768 C   0  0  0  0  0  0  0  0  0  0  0  0
  -41.2726  -67.6102   53.4005 C   0  0  0  0  0  0  0  0  0  0  0  0
  -40.5799  -68.6612   53.9524 C   0  0  0  0  0  0  0  0  0  0  0  0
  -39.5675  -69.3353   53.3068 C   0  0  0  0  0  0  0  0  0  0  0  0
 30 31  1  0  0  0
 31 32  2  0  0  0
 31 36  1  0  0  0
 32 33  1  0  0  0
 33 34  2  0  0  0
 34 35  1  0  0  0
 34 26  1  0  0  0
 35 36  2  0  0  0
 26 27  1  0  0  0
 27 28  2  0  0  0
 27  1  1  0  0  0
  1  2  1  0  0  0
  1 11  1  0  0  0
  2  3  1  0  0  0
  3  4  2  0  0  0
  3  5  1  0  0  0
  5  6  1  0  0  0
  6  7  2  0  0  0
  6 11  1  0  0  0
  7  8  1  0  0  0
  8  9  2  0  0  0
  8 15  1  0  0  0
  9 10  1  0  0  0
 10 11  2  0  0  0
 10 12  1  0  0  0
 15 16  1  0  0  0
 15 20  1  0  0  0
 16 17  1  0  0  0
 17 18  1  0  0  0
 18 19  1  0  0  0
 18 21  1  0  0  0
 19 20  1  0  0  0
 21 22  2  0  0  0
 21 23  1  0  0  0
 26 29  1  0  0  0
  5 13  1  0  0  0
 12 14  1  0  0  0
 23 24  1  0  0  0
 23 25  1  0  0  0
M  END
> <minimizedAffinity>
-9.14175

$$$$
393


 27 30  0  0  0  0  0  0  0  0999 V2000
  -38.9828  -68.0231   51.0436 N   0  0  0  0  0  0  0  0  0  0  0  0
  -38.2609  -69.0911   51.2767 N   0  0  0  0  0  0  0  0  0  0  0  0
  -37.2281  -69.2122   50.4192 C   0  0  0  0  0  0  0  0  0  0  0  0
  -37.3091  -68.1337   49.5817 C   0  0  0  0  0  0  0  0  0  0  0  0
  -38.4084  -67.4079   49.9891 C   0  0  0  0  0  0  0  0  0  0  0  0
  -36.3906  -67.8482   48.4863 C   0  0  0  0  0  0  0  0  0  0  0  0
  -36.8077  -68.0907   47.3283 O   0  0  0  0  0  0  0  0  0  0  0  0
  -35.0924  -67.3261   48.6739 N   0  0  0  0  0  0  0  0  0  0  0  0
  -34.2623  -67.0793   47.5195 C   0  0  0  0  0  0  0  0  0  0  0  0
  -34.0655  -65.5975   47.3993 C   0  0  0  0  0  0  0  0  0  0  0  0
  -34.3003  -64.9060   48.6615 N   0  0  0  0  0  0  0  0  0  0  0  0
  -34.1972  -65.5576   49.9229 C   0  0  0  0  0  0  0  0  0  0  0  0
  -33.8628  -64.9012   50.9393 O   0  0  0  0  0  0  0  0  0  0  0  0
  -34.5007  -67.0075   49.9533 C   0  0  0  0  0  0  0  0  0  0  0  0
  -34.5580  -63.8748   48.6143 H   0  0  0  0  0  0  0  0  0  0  0  0
  -43.9803  -66.2876   54.2009 Br  0  0  0  0  0  0  0  0  0  0  0  0
  -42.4280  -66.8274   53.2231 C   0  0  0  0  0  0  0  0  0  0  0  0
  -42.3535  -66.6248   51.8610 C   0  0  0  0  0  0  0  0  0  0  0  0
  -41.2253  -67.0203   51.1713 C   0  0  0  0  0  0  0  0  0  0  0  0
  -40.1407  -67.6225   51.7809 C   0  0  0  0  0  0  0  0  0  0  0  0
  -40.2296  -67.8178   53.1471 C   0  0  0  0  0  0  0  0  0  0  0  0
  -41.3513  -67.4270   53.8505 C   0  0  0  0  0  0  0  0  0  0  0  0
  -38.8870  -66.1803   49.3945 N   0  0  0  0  0  0  0  0  0  0  0  0
  -38.6488  -64.9343   49.7759 C   0  0  0  0  0  0  0  0  0  0  0  0
  -39.2897  -64.0444   48.9453 C   0  0  0  0  0  0  0  0  0  0  0  0
  -39.9457  -64.8195   48.0190 C   0  0  0  0  0  0  0  0  0  0  0  0
  -39.6833  -66.1388   48.3139 C   0  0  0  0  0  0  0  0  0  0  0  0
 16 17  1  0  0  0
 17 18  2  0  0  0
 17 22  1  0  0  0
 18 19  1  0  0  0
 19 20  2  0  0  0
 20 21  1  0  0  0
 20  1  1  0  0  0
 21 22  2  0  0  0
  1  2  1  0  0  0
  1  5  1  0  0  0
  2  3  2  0  0  0
  3  4  1  0  0  0
  4  5  2  0  0  0
  4  6  1  0  0  0
  5 23  1  0  0  0
 23 24  1  0  0  0
 23 27  1  0  0  0
 24 25  2  0  0  0
 25 26  1  0  0  0
 26 27  2  0  0  0
  6  7  2  0  0  0
  6  8  1  0  0  0
  8  9  1  0  0  0
  8 14  1  0  0  0
  9 10  1  0  0  0
 10 11  1  0  0  0
 11 12  1  0  0  0
 12 13  2  0  0  0
 12 14  1  0  0  0
 11 15  1  0  0  0
M  END
> <minimizedAffinity>
-7.75885

$$$$
395


 28 31  0  0  0  0  0  0  0  0999 V2000
  -43.2179  -65.9459   53.3993 N   0  0  0  0  0  0  0  0  0  0  0  0
  -43.0475  -64.6445   53.2424 N   0  0  0  0  0  0  0  0  0  0  0  0
  -44.2037  -64.0198   53.0964 N   0  0  0  0  0  0  0  0  0  0  0  0
  -45.2044  -64.9390   53.1560 C   0  0  0  0  0  0  0  0  0  0  0  0
  -44.5473  -66.1413   53.3469 C   0  0  0  0  0  0  0  0  0  0  0  0
  -45.3057  -67.2392   53.4430 N   0  0  0  0  0  0  0  0  0  0  0  0
  -46.6450  -67.1620   53.3562 C   0  0  0  0  0  0  0  0  0  0  0  0
  -47.2949  -65.9904   53.1692 N   0  0  0  0  0  0  0  0  0  0  0  0
  -46.5741  -64.8673   53.0673 C   0  0  0  0  0  0  0  0  0  0  0  0
  -47.1719  -63.7824   52.8940 O   0  0  0  0  0  0  0  0  0  0  0  0
  -38.8894  -70.2730   54.1309 Br  0  0  0  0  0  0  0  0  0  0  0  0
  -40.2389  -68.9307   53.9181 C   0  0  0  0  0  0  0  0  0  0  0  0
  -40.3996  -68.2621   52.7227 C   0  0  0  0  0  0  0  0  0  0  0  0
  -41.3711  -67.2873   52.5500 C   0  0  0  0  0  0  0  0  0  0  0  0
  -42.2191  -66.9520   53.5844 C   0  0  0  0  0  0  0  0  0  0  0  0
  -42.0524  -67.6257   54.7779 C   0  0  0  0  0  0  0  0  0  0  0  0
  -41.0870  -68.5954   54.9525 C   0  0  0  0  0  0  0  0  0  0  0  0
  -48.7435  -66.0085   53.0868 C   0  0  0  0  0  0  0  0  0  0  0  0
  -49.3051  -67.0323   54.0402 C   0  0  0  0  0  0  0  0  0  0  0  0
  -49.1833  -66.8840   55.2855 O   0  0  0  0  0  0  0  0  0  0  0  0
  -49.9791  -68.1791   53.5581 N   0  0  0  0  0  0  0  0  0  0  0  0
  -50.5201  -69.1666   54.4613 C   0  0  0  0  0  0  0  0  0  0  0  0
  -50.1370  -70.5281   53.9070 C   0  0  0  0  0  0  0  0  0  0  0  0
  -50.5342  -70.7240   52.6095 O   0  0  0  0  0  0  0  0  0  0  0  0
  -51.0218  -69.6063   51.9782 C   0  0  0  0  0  0  0  0  0  0  0  0
  -50.1379  -68.3861   52.1375 C   0  0  0  0  0  0  0  0  0  0  0  0
  -51.3244  -69.8237   50.5250 C   0  0  0  0  0  0  0  0  0  0  0  0
  -50.8781  -71.5594   54.7644 C   0  0  0  0  0  0  0  0  0  0  0  0
 11 12  1  0  0  0
 12 13  2  0  0  0
 12 17  1  0  0  0
 13 14  1  0  0  0
 14 15  2  0  0  0
 15 16  1  0  0  0
 15  1  1  0  0  0
 16 17  2  0  0  0
  1  2  1  0  0  0
  1  5  1  0  0  0
  2  3  2  0  0  0
  3  4  1  0  0  0
  4  5  2  0  0  0
  4  9  1  0  0  0
  5  6  1  0  0  0
  6  7  2  0  0  0
  7  8  1  0  0  0
  8  9  1  0  0  0
  8 18  1  0  0  0
  9 10  2  0  0  0
 18 19  1  0  0  0
 19 20  2  0  0  0
 19 21  1  0  0  0
 21 22  1  0  0  0
 21 26  1  0  0  0
 22 23  1  0  0  0
 23 24  1  0  0  0
 23 28  1  0  0  0
 24 25  1  0  0  0
 25 26  1  0  0  0
 25 27  1  0  0  0
M  END
> <minimizedAffinity>
-8.55284

$$$$
399


 28 31  0  0  0  0  0  0  0  0999 V2000
  -43.3300  -66.3919   53.0081 N   0  0  0  0  0  0  0  0  0  0  0  0
  -42.4604  -67.2092   53.7838 C   0  0  0  0  0  0  0  0  0  0  0  0
  -42.7988  -67.8521   54.8004 O   0  0  0  0  0  0  0  0  0  0  0  0
  -41.0953  -67.2048   53.2372 C   0  0  0  0  0  0  0  0  0  0  0  0
  -41.0666  -65.8912   52.4642 C   0  0  0  0  0  0  0  0  0  0  0  0
  -42.4927  -65.7392   52.0340 C   0  0  0  0  0  0  0  0  0  0  0  0
  -42.7874  -65.1296   50.9892 O   0  0  0  0  0  0  0  0  0  0  0  0
  -49.4297  -65.6214   53.4961 Br  0  0  0  0  0  0  0  0  0  0  0  0
  -47.5367  -65.8677   53.3451 C   0  0  0  0  0  0  0  0  0  0  0  0
  -46.9728  -67.1141   53.3362 C   0  0  0  0  0  0  0  0  0  0  0  0
  -45.5891  -67.2870   53.2263 C   0  0  0  0  0  0  0  0  0  0  0  0
  -44.7443  -66.2200   53.1221 C   0  0  0  0  0  0  0  0  0  0  0  0
  -45.3022  -64.9742   53.1311 C   0  0  0  0  0  0  0  0  0  0  0  0
  -46.6889  -64.7890   53.2420 C   0  0  0  0  0  0  0  0  0  0  0  0
  -40.7788  -68.3097   52.3607 N   0  0  0  0  0  0  0  0  0  0  0  0
  -40.6169  -67.8950   50.9879 C   0  0  0  0  0  0  0  0  0  0  0  0
  -39.1800  -67.6864   50.5643 C   0  0  0  0  0  0  0  0  0  0  0  0
  -38.3200  -68.7100   51.1013 N   0  0  0  0  0  0  0  0  0  0  0  0
  -39.0183  -69.8211   51.7037 C   0  0  0  0  0  0  0  0  0  0  0  0
  -39.7896  -69.1856   52.8759 C   0  0  0  0  0  0  0  0  0  0  0  0
  -41.6903  -68.8815   52.3423 H   0  0  0  0  0  0  0  0  0  0  0  0
  -36.9228  -68.6502   51.0735 C   0  0  0  0  0  0  0  0  0  0  0  0
  -36.1742  -67.7630   50.3267 C   0  0  0  0  0  0  0  0  0  0  0  0
  -34.7887  -67.7629   50.3173 C   0  0  0  0  0  0  0  0  0  0  0  0
  -34.0973  -68.6722   51.0718 C   0  0  0  0  0  0  0  0  0  0  0  0
  -34.7959  -69.5837   51.8376 C   0  0  0  0  0  0  0  0  0  0  0  0
  -36.1792  -69.5635   51.8306 C   0  0  0  0  0  0  0  0  0  0  0  0
  -32.7034  -68.7260   51.1076 O   0  0  0  0  0  0  0  0  0  0  0  0
  8  9  1  0  0  0
  9 10  2  0  0  0
  9 14  1  0  0  0
 10 11  1  0  0  0
 11 12  2  0  0  0
 12 13  1  0  0  0
 12  1  1  0  0  0
 13 14  2  0  0  0
  1  2  1  0  0  0
  1  6  1  0  0  0
  2  3  2  0  0  0
  2  4  1  0  0  0
  4  5  1  0  0  0
  4 15  1  0  0  0
  5  6  1  0  0  0
  6  7  2  0  0  0
 15 16  1  0  0  0
 15 20  1  0  0  0
 16 17  1  0  0  0
 17 18  1  0  0  0
 18 19  1  0  0  0
 18 22  1  0  0  0
 19 20  1  0  0  0
 22 23  2  0  0  0
 22 27  1  0  0  0
 23 24  1  0  0  0
 24 25  2  0  0  0
 25 26  1  0  0  0
 25 28  1  0  0  0
 26 27  2  0  0  0
 15 21  1  0  0  0
M  CHG 1  15   1
M  CHG 1  28  -1
M  END
> <minimizedAffinity>
-8.70055

$$$$
400


 31 34  0  0  0  0  0  0  0  0999 V2000
  -38.4475  -64.9685   47.5002 N   0  0  0  0  0  0  0  0  0  0  0  0
  -38.6507  -66.2466   48.0530 C   0  0  0  0  0  0  0  0  0  0  0  0
  -37.5455  -67.1814   47.5437 C   0  0  0  0  0  0  0  0  0  0  0  0
  -36.1951  -66.7832   48.0965 C   0  0  0  0  0  0  0  0  0  0  0  0
  -36.0691  -65.3132   48.0839 C   0  0  0  0  0  0  0  0  0  0  0  0
  -37.1008  -64.6630   47.1969 C   0  0  0  0  0  0  0  0  0  0  0  0
  -40.8779  -64.3093   49.5777 N   0  0  0  0  0  0  0  0  0  0  0  0
  -39.4988  -63.9827   49.3755 C   0  0  0  0  0  0  0  0  0  0  0  0
  -38.6192  -63.7941   50.2506 O   0  0  0  0  0  0  0  0  0  0  0  0
  -39.2654  -63.9003   47.9104 C   0  0  0  0  0  0  0  0  0  0  0  0
  -40.6282  -63.8756   47.2551 C   0  0  0  0  0  0  0  0  0  0  0  0
  -41.5486  -63.8223   48.4222 C   0  0  0  0  0  0  0  0  0  0  0  0
  -42.7609  -63.4071   48.4110 O   0  0  0  0  0  0  0  0  0  0  0  0
  -43.2835  -67.2553   54.4331 Br  0  0  0  0  0  0  0  0  0  0  0  0
  -42.5366  -66.3454   52.9260 C   0  0  0  0  0  0  0  0  0  0  0  0
  -41.8129  -67.0036   51.9589 C   0  0  0  0  0  0  0  0  0  0  0  0
  -41.2689  -66.3299   50.8584 C   0  0  0  0  0  0  0  0  0  0  0  0
  -41.4419  -64.9799   50.7077 C   0  0  0  0  0  0  0  0  0  0  0  0
  -42.1670  -64.3307   51.6819 C   0  0  0  0  0  0  0  0  0  0  0  0
  -42.7106  -64.9869   52.7749 C   0  0  0  0  0  0  0  0  0  0  0  0
  -36.0138  -67.4253   49.3321 N   0  0  0  0  0  0  0  0  0  0  0  0
  -35.3469  -66.7413   50.3589 C   0  0  0  0  0  0  0  0  0  0  0  0
  -34.1794  -67.6389   50.8049 C   0  0  0  0  0  0  0  0  0  0  0  0
  -34.8185  -68.8717   51.4113 C   0  0  0  0  0  0  0  0  0  0  0  0
  -36.2568  -69.0356   51.0484 C   0  0  0  0  0  0  0  0  0  0  0  0
  -36.5475  -68.6747   49.5839 C   0  0  0  0  0  0  0  0  0  0  0  0
  -35.1869  -67.3519   47.1328 C   0  0  0  0  0  0  0  0  0  0  0  0
  -33.9589  -67.3783   47.4472 O   0  0  0  0  0  0  0  0  0  0  0  0
  -35.5432  -67.8710   45.8656 N   0  0  0  0  0  0  0  0  0  0  0  0
  -35.1790  -67.4280   45.0136 H   0  0  0  0  0  0  0  0  0  0  0  0
  -36.1674  -68.6963   45.7830 H   0  0  0  0  0  0  0  0  0  0  0  0
 14 15  1  0  0  0
 15 16  2  0  0  0
 15 20  1  0  0  0
 16 17  1  0  0  0
 17 18  2  0  0  0
 18 19  1  0  0  0
 18  7  1  0  0  0
 19 20  2  0  0  0
  7  8  1  0  0  0
  7 12  1  0  0  0
  8  9  2  0  0  0
  8 10  1  0  0  0
 10 11  1  0  0  0
 10  1  1  0  0  0
 11 12  1  0  0  0
 12 13  2  0  0  0
  1  2  1  0  0  0
  1  6  1  0  0  0
  2  3  1  0  0  0
  3  4  1  0  0  0
  4  5  1  0  0  0
  4 21  1  0  0  0
  4 27  1  0  0  0
  5  6  1  0  0  0
 21 22  1  0  0  0
 21 26  1  0  0  0
 22 23  1  0  0  0
 23 24  1  0  0  0
 24 25  1  0  0  0
 25 26  1  0  0  0
 27 28  2  0  0  0
 27 29  1  0  0  0
 29 30  1  0  0  0
 29 31  1  0  0  0
M  END
> <minimizedAffinity>
-7.78294

$$$$
408


 31 34  0  0  0  0  0  0  0  0999 V2000
  -35.6609  -65.9650   49.3847 N   0  0  0  0  0  0  0  0  0  0  0  0
  -36.5439  -66.9566   49.5916 C   0  0  0  0  0  0  0  0  0  0  0  0
  -37.7088  -66.9788   49.0879 O   0  0  0  0  0  0  0  0  0  0  0  0
  -36.0070  -67.9392   50.4236 C   0  0  0  0  0  0  0  0  0  0  0  0
  -34.7787  -67.5222   50.7162 C   0  0  0  0  0  0  0  0  0  0  0  0
  -34.2814  -68.4818   51.5170 N   0  0  0  0  0  0  0  0  0  0  0  0
  -35.1762  -69.4391   51.6979 N   0  0  0  0  0  0  0  0  0  0  0  0
  -36.2511  -69.1115   51.0228 N   0  0  0  0  0  0  0  0  0  0  0  0
  -34.5581  -66.3144   50.0851 C   0  0  0  0  0  0  0  0  0  0  0  0
  -33.5192  -65.6193   50.1264 O   0  0  0  0  0  0  0  0  0  0  0  0
  -33.3077  -68.4155   51.9090 H   0  0  0  0  0  0  0  0  0  0  0  0
  -34.9970  -70.2839   52.2879 H   0  0  0  0  0  0  0  0  0  0  0  0
  -36.4777  -60.8503   46.0424 Br  0  0  0  0  0  0  0  0  0  0  0  0
  -36.2209  -62.4483   47.0751 C   0  0  0  0  0  0  0  0  0  0  0  0
  -36.4437  -62.4597   48.4353 C   0  0  0  0  0  0  0  0  0  0  0  0
  -36.2593  -63.6087   49.1809 C   0  0  0  0  0  0  0  0  0  0  0  0
  -35.8440  -64.7927   48.5955 C   0  0  0  0  0  0  0  0  0  0  0  0
  -35.6265  -64.7593   47.2329 C   0  0  0  0  0  0  0  0  0  0  0  0
  -35.8077  -63.6203   46.4824 C   0  0  0  0  0  0  0  0  0  0  0  0
  -37.4818  -69.8546   50.9253 C   0  0  0  0  0  0  0  0  0  0  0  0
  -38.4360  -69.5036   52.0295 C   0  0  0  0  0  0  0  0  0  0  0  0
  -38.0321  -69.8032   53.1783 O   0  0  0  0  0  0  0  0  0  0  0  0
  -39.6705  -68.8941   51.7916 N   0  0  0  0  0  0  0  0  0  0  0  0
  -39.8760  -68.6997   50.7544 H   0  0  0  0  0  0  0  0  0  0  0  0
  -40.6314  -68.5258   52.7406 C   0  0  0  0  0  0  0  0  0  0  0  0
  -41.1453  -67.2213   52.6604 C   0  0  0  0  0  0  0  0  0  0  0  0
  -42.0894  -66.8178   53.5703 C   0  0  0  0  0  0  0  0  0  0  0  0
  -42.5649  -67.6393   54.5705 C   0  0  0  0  0  0  0  0  0  0  0  0
  -42.0703  -68.9069   54.6551 C   0  0  0  0  0  0  0  0  0  0  0  0
  -41.1203  -69.3235   53.7460 C   0  0  0  0  0  0  0  0  0  0  0  0
  -40.6912  -66.2782   51.6199 C   0  0  0  0  0  0  0  0  0  0  0  0
 13 14  1  0  0  0
 14 15  2  0  0  0
 14 19  1  0  0  0
 15 16  1  0  0  0
 16 17  2  0  0  0
 17 18  1  0  0  0
 17  1  1  0  0  0
 18 19  2  0  0  0
  1  2  1  0  0  0
  1  9  1  0  0  0
  2  3  2  0  0  0
  2  4  1  0  0  0
  4  5  2  0  0  0
  4  8  1  0  0  0
  5  6  1  0  0  0
  5  9  1  0  0  0
  6  7  1  0  0  0
  7  8  1  0  0  0
  8 20  1  0  0  0
 20 21  1  0  0  0
 21 22  2  0  0  0
 21 23  1  0  0  0
 23 25  1  0  0  0
 25 26  2  0  0  0
 25 30  1  0  0  0
 26 27  1  0  0  0
 26 31  1  0  0  0
 27 28  2  0  0  0
 28 29  1  0  0  0
 29 30  2  0  0  0
  9 10  2  0  0  0
  6 11  1  0  0  0
  7 12  1  0  0  0
 23 24  1  0  0  0
M  END
> <minimizedAffinity>
-8.56241

$$$$
411


 34 37  0  0  0  0  0  0  0  0999 V2000
  -35.7657  -66.1073   49.4088 N   0  0  0  0  0  0  0  0  0  0  0  0
  -36.6625  -67.0768   49.6525 C   0  0  0  0  0  0  0  0  0  0  0  0
  -37.8273  -67.0539   49.1787 O   0  0  0  0  0  0  0  0  0  0  0  0
  -36.1276  -68.0597   50.4684 C   0  0  0  0  0  0  0  0  0  0  0  0
  -34.8824  -67.6793   50.7244 C   0  0  0  0  0  0  0  0  0  0  0  0
  -34.3648  -68.6317   51.5154 N   0  0  0  0  0  0  0  0  0  0  0  0
  -35.2697  -69.5684   51.7363 N   0  0  0  0  0  0  0  0  0  0  0  0
  -36.3611  -69.2354   51.1004 N   0  0  0  0  0  0  0  0  0  0  0  0
  -34.6533  -66.4823   50.0788 C   0  0  0  0  0  0  0  0  0  0  0  0
  -33.5592  -65.8268   50.1060 O   0  0  0  0  0  0  0  0  0  0  0  0
  -33.4050  -68.6623   51.9131 H   0  0  0  0  0  0  0  0  0  0  0  0
  -35.1566  -70.4482   52.3227 H   0  0  0  0  0  0  0  0  0  0  0  0
  -36.3153  -60.9023   46.1590 Br  0  0  0  0  0  0  0  0  0  0  0  0
  -36.1414  -62.5281   47.1561 C   0  0  0  0  0  0  0  0  0  0  0  0
  -35.8542  -63.7257   46.5313 C   0  0  0  0  0  0  0  0  0  0  0  0
  -35.7283  -64.9042   47.2609 C   0  0  0  0  0  0  0  0  0  0  0  0
  -35.8871  -64.9221   48.6310 C   0  0  0  0  0  0  0  0  0  0  0  0
  -36.1740  -63.7246   49.2487 C   0  0  0  0  0  0  0  0  0  0  0  0
  -36.2981  -62.5549   48.5274 C   0  0  0  0  0  0  0  0  0  0  0  0
  -37.6100  -69.9575   51.0539 C   0  0  0  0  0  0  0  0  0  0  0  0
  -38.6029  -69.2887   51.9757 C   0  0  0  0  0  0  0  0  0  0  0  0
  -38.4900  -69.4462   53.2116 O   0  0  0  0  0  0  0  0  0  0  0  0
  -39.6361  -68.5023   51.4455 N   0  0  0  0  0  0  0  0  0  0  0  0
  -39.6708  -68.4114   50.3782 H   0  0  0  0  0  0  0  0  0  0  0  0
  -40.6204  -67.8215   52.1891 C   0  0  0  0  0  0  0  0  0  0  0  0
  -41.0397  -66.5320   51.9800 C   0  0  0  0  0  0  0  0  0  0  0  0
  -41.9984  -65.9152   52.7569 C   0  0  0  0  0  0  0  0  0  0  0  0
  -42.5575  -66.6367   53.7906 C   0  0  0  0  0  0  0  0  0  0  0  0
  -42.1626  -67.9421   54.0348 C   0  0  0  0  0  0  0  0  0  0  0  0
  -41.2088  -68.5333   53.2521 C   0  0  0  0  0  0  0  0  0  0  0  0
  -43.5274  -66.0332   54.5865 O   0  0  0  0  0  0  0  0  0  0  0  0
  -44.8881  -66.1452   54.2197 C   0  0  0  0  0  0  0  0  0  0  0  0
  -42.4043  -64.6038   52.5202 O   0  0  0  0  0  0  0  0  0  0  0  0
  -43.2461  -64.3655   51.3847 C   0  0  0  0  0  0  0  0  0  0  0  0
 13 14  1  0  0  0
 14 15  2  0  0  0
 14 19  1  0  0  0
 15 16  1  0  0  0
 16 17  2  0  0  0
 17 18  1  0  0  0
 17  1  1  0  0  0
 18 19  2  0  0  0
  1  2  1  0  0  0
  1  9  1  0  0  0
  2  3  2  0  0  0
  2  4  1  0  0  0
  4  5  2  0  0  0
  4  8  1  0  0  0
  5  6  1  0  0  0
  5  9  1  0  0  0
  6  7  1  0  0  0
  7  8  1  0  0  0
  8 20  1  0  0  0
 20 21  1  0  0  0
 21 22  2  0  0  0
 21 23  1  0  0  0
 23 25  1  0  0  0
 25 26  2  0  0  0
 25 30  1  0  0  0
 26 27  1  0  0  0
 27 28  2  0  0  0
 27 33  1  0  0  0
 28 29  1  0  0  0
 28 31  1  0  0  0
 29 30  2  0  0  0
 31 32  1  0  0  0
 33 34  1  0  0  0
  9 10  2  0  0  0
  6 11  1  0  0  0
  7 12  1  0  0  0
 23 24  1  0  0  0
M  END
> <minimizedAffinity>
-8.12079

$$$$
412


 34 37  0  0  0  0  0  0  0  0999 V2000
  -42.2980  -67.1872   53.0148 N   0  0  0  0  0  0  0  0  0  0  0  0
  -41.3944  -67.9819   52.4361 C   0  0  0  0  0  0  0  0  0  0  0  0
  -41.1697  -68.0126   51.1801 O   0  0  0  0  0  0  0  0  0  0  0  0
  -40.7173  -68.7815   53.3272 C   0  0  0  0  0  0  0  0  0  0  0  0
  -41.2401  -68.4523   54.5241 C   0  0  0  0  0  0  0  0  0  0  0  0
  -40.5877  -69.2277   55.4237 N   0  0  0  0  0  0  0  0  0  0  0  0
  -39.7058  -69.9942   54.8071 N   0  0  0  0  0  0  0  0  0  0  0  0
  -39.7810  -69.7237   53.5200 N   0  0  0  0  0  0  0  0  0  0  0  0
  -42.2019  -67.4850   54.3477 C   0  0  0  0  0  0  0  0  0  0  0  0
  -42.9124  -66.9229   55.2156 O   0  0  0  0  0  0  0  0  0  0  0  0
  -40.7771  -69.2046   56.4529 H   0  0  0  0  0  0  0  0  0  0  0  0
  -39.0858  -70.6807   55.3149 H   0  0  0  0  0  0  0  0  0  0  0  0
  -46.1346  -63.0628   50.5004 Br  0  0  0  0  0  0  0  0  0  0  0  0
  -44.9307  -64.3467   51.2880 C   0  0  0  0  0  0  0  0  0  0  0  0
  -43.5787  -64.1088   51.3483 C   0  0  0  0  0  0  0  0  0  0  0  0
  -42.7039  -65.0463   51.9196 C   0  0  0  0  0  0  0  0  0  0  0  0
  -43.1836  -66.2263   52.4331 C   0  0  0  0  0  0  0  0  0  0  0  0
  -44.5434  -66.4411   52.3619 C   0  0  0  0  0  0  0  0  0  0  0  0
  -45.4083  -65.5298   51.8032 C   0  0  0  0  0  0  0  0  0  0  0  0
  -38.9793  -70.3463   52.5065 C   0  0  0  0  0  0  0  0  0  0  0  0
  -37.9846  -69.4570   51.9117 C   0  0  0  0  0  0  0  0  0  0  0  0
  -36.8259  -69.3094   52.3986 O   0  0  0  0  0  0  0  0  0  0  0  0
  -38.3445  -68.7349   50.7519 N   0  0  0  0  0  0  0  0  0  0  0  0
  -39.3176  -68.8393   50.3282 H   0  0  0  0  0  0  0  0  0  0  0  0
  -37.3916  -67.8669   50.1609 C   0  0  0  0  0  0  0  0  0  0  0  0
  -37.8594  -66.6564   49.7127 C   0  0  0  0  0  0  0  0  0  0  0  0
  -36.9880  -65.7549   49.0897 C   0  0  0  0  0  0  0  0  0  0  0  0
  -35.6684  -66.0843   48.9270 C   0  0  0  0  0  0  0  0  0  0  0  0
  -35.1792  -67.3092   49.3757 C   0  0  0  0  0  0  0  0  0  0  0  0
  -36.0675  -68.1785   49.9898 C   0  0  0  0  0  0  0  0  0  0  0  0
  -33.8411  -67.5738   49.1734 O   0  0  0  0  0  0  0  0  0  0  0  0
  -32.8294  -66.6493   48.9208 C   0  0  0  0  0  0  0  0  0  0  0  0
  -37.5626  -64.5739   48.6847 O   0  0  0  0  0  0  0  0  0  0  0  0
  -36.9270  -63.3485   48.6957 C   0  0  0  0  0  0  0  0  0  0  0  0
 13 14  1  0  0  0
 14 15  2  0  0  0
 14 19  1  0  0  0
 15 16  1  0  0  0
 16 17  2  0  0  0
 17 18  1  0  0  0
 17  1  1  0  0  0
 18 19  2  0  0  0
  1  2  1  0  0  0
  1  9  1  0  0  0
  2  3  2  0  0  0
  2  4  1  0  0  0
  4  5  2  0  0  0
  4  8  1  0  0  0
  5  6  1  0  0  0
  5  9  1  0  0  0
  6  7  1  0  0  0
  7  8  1  0  0  0
  8 20  1  0  0  0
 20 21  1  0  0  0
 21 22  2  0  0  0
 21 23  1  0  0  0
 23 25  1  0  0  0
 25 26  2  0  0  0
 25 30  1  0  0  0
 26 27  1  0  0  0
 27 28  2  0  0  0
 27 33  1  0  0  0
 28 29  1  0  0  0
 29 30  2  0  0  0
 29 31  1  0  0  0
 31 32  1  0  0  0
 33 34  1  0  0  0
  9 10  2  0  0  0
  6 11  1  0  0  0
  7 12  1  0  0  0
 23 24  1  0  0  0
M  END
> <minimizedAffinity>
-8.09377

$$$$
414


 35 38  0  0  0  0  0  0  0  0999 V2000
  -35.7156  -66.0323   49.3809 N   0  0  0  0  0  0  0  0  0  0  0  0
  -36.5949  -67.0449   49.5892 C   0  0  0  0  0  0  0  0  0  0  0  0
  -37.7683  -67.1286   49.1095 O   0  0  0  0  0  0  0  0  0  0  0  0
  -36.0208  -67.9946   50.4164 C   0  0  0  0  0  0  0  0  0  0  0  0
  -34.8019  -67.5378   50.6932 C   0  0  0  0  0  0  0  0  0  0  0  0
  -34.2168  -68.4517   51.5043 N   0  0  0  0  0  0  0  0  0  0  0  0
  -35.0932  -69.4335   51.6946 N   0  0  0  0  0  0  0  0  0  0  0  0
  -36.2129  -69.1867   51.0424 N   0  0  0  0  0  0  0  0  0  0  0  0
  -34.6017  -66.3323   50.0636 C   0  0  0  0  0  0  0  0  0  0  0  0
  -33.5734  -65.6213   50.1029 O   0  0  0  0  0  0  0  0  0  0  0  0
  -33.2563  -68.3846   51.8975 H   0  0  0  0  0  0  0  0  0  0  0  0
  -34.9148  -70.2710   52.2758 H   0  0  0  0  0  0  0  0  0  0  0  0
  -36.9584  -61.0831   45.9852 Br  0  0  0  0  0  0  0  0  0  0  0  0
  -36.5786  -62.6063   47.0585 C   0  0  0  0  0  0  0  0  0  0  0  0
  -36.6904  -62.6073   48.4329 C   0  0  0  0  0  0  0  0  0  0  0  0
  -36.4107  -63.7132   49.1732 C   0  0  0  0  0  0  0  0  0  0  0  0
  -35.9995  -64.8930   48.5724 C   0  0  0  0  0  0  0  0  0  0  0  0
  -35.8843  -64.9059   47.2059 C   0  0  0  0  0  0  0  0  0  0  0  0
  -36.1689  -63.7845   46.4746 C   0  0  0  0  0  0  0  0  0  0  0  0
  -37.4323  -69.9827   50.9664 C   0  0  0  0  0  0  0  0  0  0  0  0
  -38.4596  -69.4010   51.9066 C   0  0  0  0  0  0  0  0  0  0  0  0
  -38.2412  -69.7041   53.1058 O   0  0  0  0  0  0  0  0  0  0  0  0
  -39.5018  -68.6245   51.4038 N   0  0  0  0  0  0  0  0  0  0  0  0
  -39.5042  -68.4869   50.3434 H   0  0  0  0  0  0  0  0  0  0  0  0
  -40.5436  -68.0069   52.1395 C   0  0  0  0  0  0  0  0  0  0  0  0
  -41.1380  -68.5302   53.2630 C   0  0  0  0  0  0  0  0  0  0  0  0
  -42.1663  -67.8559   53.9361 C   0  0  0  0  0  0  0  0  0  0  0  0
  -42.6266  -66.6364   53.5006 C   0  0  0  0  0  0  0  0  0  0  0  0
  -42.0392  -66.1039   52.3790 C   0  0  0  0  0  0  0  0  0  0  0  0
  -41.0262  -66.7703   51.7169 C   0  0  0  0  0  0  0  0  0  0  0  0
  -43.6988  -65.9710   54.2331 C   0  0  0  0  0  0  0  0  0  0  0  0
  -43.4886  -65.6518   55.4301 O   0  0  0  0  0  0  0  0  0  0  0  0
  -44.9233  -65.6694   53.7058 O   0  0  0  0  0  0  0  0  0  0  0  0
  -45.6228  -66.4185   52.7541 C   0  0  0  0  0  0  0  0  0  0  0  0
  -46.3033  -67.5646   53.5157 C   0  0  0  0  0  0  0  0  0  0  0  0
 13 14  1  0  0  0
 14 15  2  0  0  0
 14 19  1  0  0  0
 15 16  1  0  0  0
 16 17  2  0  0  0
 17 18  1  0  0  0
 17  1  1  0  0  0
 18 19  2  0  0  0
  1  2  1  0  0  0
  1  9  1  0  0  0
  2  3  2  0  0  0
  2  4  1  0  0  0
  4  5  2  0  0  0
  4  8  1  0  0  0
  5  6  1  0  0  0
  5  9  1  0  0  0
  6  7  1  0  0  0
  7  8  1  0  0  0
  8 20  1  0  0  0
 20 21  1  0  0  0
 21 22  2  0  0  0
 21 23  1  0  0  0
 23 25  1  0  0  0
 25 26  2  0  0  0
 25 30  1  0  0  0
 26 27  1  0  0  0
 27 28  2  0  0  0
 28 29  1  0  0  0
 28 31  1  0  0  0
 29 30  2  0  0  0
 31 32  2  0  0  0
 31 33  1  0  0  0
 33 34  1  0  0  0
 34 35  1  0  0  0
  9 10  2  0  0  0
  6 11  1  0  0  0
  7 12  1  0  0  0
 23 24  1  0  0  0
M  END
> <minimizedAffinity>
-8.59252

$$$$
416


 33 36  0  0  0  0  0  0  0  0999 V2000
  -35.7086  -66.0253   49.4004 N   0  0  0  0  0  0  0  0  0  0  0  0
  -36.5134  -67.0799   49.7108 C   0  0  0  0  0  0  0  0  0  0  0  0
  -37.6891  -67.2055   49.2922 O   0  0  0  0  0  0  0  0  0  0  0  0
  -35.8614  -67.9707   50.5357 C   0  0  0  0  0  0  0  0  0  0  0  0
  -34.6534  -67.4633   50.7333 C   0  0  0  0  0  0  0  0  0  0  0  0
  -33.9917  -68.3138   51.5390 N   0  0  0  0  0  0  0  0  0  0  0  0
  -34.8009  -69.3245   51.8214 N   0  0  0  0  0  0  0  0  0  0  0  0
  -35.9616  -69.1450   51.2195 N   0  0  0  0  0  0  0  0  0  0  0  0
  -34.5583  -66.2774   50.0411 C   0  0  0  0  0  0  0  0  0  0  0  0
  -33.5488  -65.5063   49.9907 O   0  0  0  0  0  0  0  0  0  0  0  0
  -33.0231  -68.2298   51.8928 H   0  0  0  0  0  0  0  0  0  0  0  0
  -34.5431  -70.1490   52.4384 H   0  0  0  0  0  0  0  0  0  0  0  0
  -37.0779  -61.0611   46.0046 Br  0  0  0  0  0  0  0  0  0  0  0  0
  -36.6516  -62.6125   47.0309 C   0  0  0  0  0  0  0  0  0  0  0  0
  -36.1954  -63.7762   46.4483 C   0  0  0  0  0  0  0  0  0  0  0  0
  -35.8871  -64.8937   47.2093 C   0  0  0  0  0  0  0  0  0  0  0  0
  -36.0192  -64.9008   48.5826 C   0  0  0  0  0  0  0  0  0  0  0  0
  -36.4774  -63.7355   49.1704 C   0  0  0  0  0  0  0  0  0  0  0  0
  -36.7848  -62.6234   48.4139 C   0  0  0  0  0  0  0  0  0  0  0  0
  -37.1222  -69.9856   51.2633 C   0  0  0  0  0  0  0  0  0  0  0  0
  -38.1938  -69.4806   52.2007 C   0  0  0  0  0  0  0  0  0  0  0  0
  -38.0932  -69.8559   53.3889 O   0  0  0  0  0  0  0  0  0  0  0  0
  -39.2220  -68.6479   51.7638 N   0  0  0  0  0  0  0  0  0  0  0  0
  -39.1989  -68.4031   50.7123 H   0  0  0  0  0  0  0  0  0  0  0  0
  -40.2891  -68.0759   52.4771 C   0  0  0  0  0  0  0  0  0  0  0  0
  -40.9114  -68.7940   53.4984 C   0  0  0  0  0  0  0  0  0  0  0  0
  -41.9655  -68.2827   54.2066 C   0  0  0  0  0  0  0  0  0  0  0  0
  -42.4547  -67.0075   53.9194 C   0  0  0  0  0  0  0  0  0  0  0  0
  -41.8201  -66.3258   52.9097 C   0  0  0  0  0  0  0  0  0  0  0  0
  -40.7597  -66.8337   52.1961 C   0  0  0  0  0  0  0  0  0  0  0  0
  -43.5179  -66.5345   54.6528 O   0  0  0  0  0  0  0  0  0  0  0  0
  -44.7335  -66.0742   54.1582 C   0  0  0  0  0  0  0  0  0  0  0  0
  -45.4863  -67.0717   53.3463 C   0  0  0  0  0  0  0  0  0  0  0  0
 13 14  1  0  0  0
 14 15  2  0  0  0
 14 19  1  0  0  0
 15 16  1  0  0  0
 16 17  2  0  0  0
 17 18  1  0  0  0
 17  1  1  0  0  0
 18 19  2  0  0  0
  1  2  1  0  0  0
  1  9  1  0  0  0
  2  3  2  0  0  0
  2  4  1  0  0  0
  4  5  2  0  0  0
  4  8  1  0  0  0
  5  6  1  0  0  0
  5  9  1  0  0  0
  6  7  1  0  0  0
  7  8  1  0  0  0
  8 20  1  0  0  0
 20 21  1  0  0  0
 21 22  2  0  0  0
 21 23  1  0  0  0
 23 25  1  0  0  0
 25 26  2  0  0  0
 25 30  1  0  0  0
 26 27  1  0  0  0
 27 28  2  0  0  0
 28 29  1  0  0  0
 28 31  1  0  0  0
 29 30  2  0  0  0
 31 32  1  0  0  0
 32 33  1  0  0  0
  9 10  2  0  0  0
  6 11  1  0  0  0
  7 12  1  0  0  0
 23 24  1  0  0  0
M  END
> <minimizedAffinity>
-8.21172

$$$$
421


 28 31  0  0  0  0  0  0  0  0999 V2000
  -46.7150  -66.0547   53.3265 N   0  0  0  0  0  0  0  0  0  0  0  0
  -45.5157  -66.6748   53.3836 C   0  0  0  0  0  0  0  0  0  0  0  0
  -45.2889  -67.9036   53.6243 O   0  0  0  0  0  0  0  0  0  0  0  0
  -44.4886  -65.7819   53.1389 C   0  0  0  0  0  0  0  0  0  0  0  0
  -45.0911  -64.6088   52.9319 C   0  0  0  0  0  0  0  0  0  0  0  0
  -44.0869  -63.7317   52.6911 N   0  0  0  0  0  0  0  0  0  0  0  0
  -42.9365  -64.3807   52.7572 N   0  0  0  0  0  0  0  0  0  0  0  0
  -43.1539  -65.6557   53.0337 N   0  0  0  0  0  0  0  0  0  0  0  0
  -46.4560  -64.7663   53.0453 C   0  0  0  0  0  0  0  0  0  0  0  0
  -47.3512  -63.8943   52.9176 O   0  0  0  0  0  0  0  0  0  0  0  0
  -44.2286  -62.7078   52.4881 H   0  0  0  0  0  0  0  0  0  0  0  0
  -41.9702  -63.9854   52.6189 H   0  0  0  0  0  0  0  0  0  0  0  0
  -52.2320  -68.7024   54.0649 Br  0  0  0  0  0  0  0  0  0  0  0  0
  -50.5148  -67.8809   53.8601 C   0  0  0  0  0  0  0  0  0  0  0  0
  -49.7054  -67.6143   54.9452 C   0  0  0  0  0  0  0  0  0  0  0  0
  -48.4591  -67.0158   54.7810 C   0  0  0  0  0  0  0  0  0  0  0  0
  -47.9933  -66.6713   53.5294 C   0  0  0  0  0  0  0  0  0  0  0  0
  -48.8132  -66.9437   52.4538 C   0  0  0  0  0  0  0  0  0  0  0  0
  -50.0523  -67.5368   52.6069 C   0  0  0  0  0  0  0  0  0  0  0  0
  -42.1654  -66.6816   53.1870 C   0  0  0  0  0  0  0  0  0  0  0  0
  -41.3547  -67.0522   52.1338 C   0  0  0  0  0  0  0  0  0  0  0  0
  -40.3873  -68.0421   52.2519 C   0  0  0  0  0  0  0  0  0  0  0  0
  -40.2102  -68.6937   53.4538 C   0  0  0  0  0  0  0  0  0  0  0  0
  -41.0188  -68.3256   54.5078 C   0  0  0  0  0  0  0  0  0  0  0  0
  -41.9827  -67.3369   54.3867 C   0  0  0  0  0  0  0  0  0  0  0  0
  -39.2265  -69.7135   53.6060 N   0  0  0  0  0  0  0  0  0  0  0  0
  -39.2693  -70.5432   54.5337 O   0  0  0  0  0  0  0  0  0  0  0  0
  -38.2048  -69.7891   52.7136 O   0  0  0  0  0  0  0  0  0  0  0  0
 13 14  1  0  0  0
 14 15  2  0  0  0
 14 19  1  0  0  0
 15 16  1  0  0  0
 16 17  2  0  0  0
 17 18  1  0  0  0
 17  1  1  0  0  0
 18 19  2  0  0  0
  1  2  1  0  0  0
  1  9  1  0  0  0
  2  3  2  0  0  0
  2  4  1  0  0  0
  4  5  2  0  0  0
  4  8  1  0  0  0
  5  6  1  0  0  0
  5  9  1  0  0  0
  6  7  1  0  0  0
  7  8  1  0  0  0
  8 20  1  0  0  0
 20 21  2  0  0  0
 20 25  1  0  0  0
 21 22  1  0  0  0
 22 23  2  0  0  0
 23 24  1  0  0  0
 23 26  1  0  0  0
 24 25  2  0  0  0
 26 27  2  0  0  0
 26 28  1  0  0  0
  9 10  2  0  0  0
  6 11  1  0  0  0
  7 12  1  0  0  0
M  CHG 1  28  -1
M  END
> <minimizedAffinity>
-7.74296

$$$$
425


 24 28  0  0  0  0  0  0  0  0999 V2000
  -36.9545  -67.2781   49.1114 N   0  0  0  0  0  0  0  0  0  0  0  0
  -35.5427  -67.2830   49.2539 C   0  0  0  0  0  0  0  0  0  0  0  0
  -34.9211  -67.9860   50.0864 O   0  0  0  0  0  0  0  0  0  0  0  0
  -34.9513  -66.3363   48.2705 C   0  0  0  0  0  0  0  0  0  0  0  0
  -34.7168  -64.9802   48.8609 C   0  0  0  0  0  0  0  0  0  0  0  0
  -34.9090  -64.1687   47.7207 O   0  0  0  0  0  0  0  0  0  0  0  0
  -36.2467  -64.5581   47.4583 C   0  0  0  0  0  0  0  0  0  0  0  0
  -36.0896  -66.0308   47.2958 C   0  0  0  0  0  0  0  0  0  0  0  0
  -37.2829  -66.7399   47.8309 C   0  0  0  0  0  0  0  0  0  0  0  0
  -38.3658  -66.8344   47.2471 O   0  0  0  0  0  0  0  0  0  0  0  0
  -36.8421  -64.2921   48.7937 C   0  0  0  0  0  0  0  0  0  0  0  0
  -35.8946  -64.6214   49.6665 C   0  0  0  0  0  0  0  0  0  0  0  0
  -40.7489  -69.2695   53.4425 Br  0  0  0  0  0  0  0  0  0  0  0  0
  -39.5610  -68.6568   52.0966 C   0  0  0  0  0  0  0  0  0  0  0  0
  -38.4271  -69.3793   51.8144 C   0  0  0  0  0  0  0  0  0  0  0  0
  -37.5829  -68.9117   50.8316 C   0  0  0  0  0  0  0  0  0  0  0  0
  -37.8401  -67.7525   50.1335 C   0  0  0  0  0  0  0  0  0  0  0  0
  -38.9859  -67.0218   50.4170 C   0  0  0  0  0  0  0  0  0  0  0  0
  -39.8397  -67.4996   51.4133 C   0  0  0  0  0  0  0  0  0  0  0  0
  -33.4063  -64.7800   49.4917 C   0  0  0  0  0  0  0  0  0  0  0  0
  -32.9240  -63.5045   49.3822 O   0  0  0  0  0  0  0  0  0  0  0  0
  -31.8459  -63.5114   48.5330 C   0  0  0  0  0  0  0  0  0  0  0  0
  -31.6589  -64.9279   48.0990 C   0  0  0  0  0  0  0  0  0  0  0  0
  -32.4531  -65.6456   48.9862 O   0  0  0  0  0  0  0  0  0  0  0  0
 13 14  1  0  0  0
 14 15  2  0  0  0
 14 19  1  0  0  0
 15 16  1  0  0  0
 16 17  2  0  0  0
 17 18  1  0  0  0
 17  1  1  0  0  0
 18 19  2  0  0  0
  1  2  1  0  0  0
  1  9  1  0  0  0
  2  3  2  0  0  0
  2  4  1  0  0  0
  4  5  1  0  0  0
  4  8  1  0  0  0
  5  6  1  0  0  0
  5 12  1  0  0  0
  5 20  1  0  0  0
  6  7  1  0  0  0
  7  8  1  0  0  0
  7 11  1  0  0  0
  8  9  1  0  0  0
  9 10  2  0  0  0
 11 12  2  0  0  0
 20 21  1  0  0  0
 20 24  1  0  0  0
 21 22  1  0  0  0
 22 23  1  0  0  0
 23 24  1  0  0  0
M  END
> <minimizedAffinity>
-7.93907

$$$$
426


 29 32  0  0  0  0  0  0  0  0999 V2000
  -42.2034  -67.3927   53.3830 N   0  0  0  0  0  0  0  0  0  0  0  0
  -41.8808  -68.4031   54.3581 C   0  0  0  0  0  0  0  0  0  0  0  0
  -42.7076  -69.0823   55.0306 O   0  0  0  0  0  0  0  0  0  0  0  0
  -40.4035  -68.4877   54.4153 C   0  0  0  0  0  0  0  0  0  0  0  0
  -39.8885  -69.8183   54.6718 N   0  0  0  0  0  0  0  0  0  0  0  0
  -38.7233  -69.7615   53.8459 N   0  0  0  0  0  0  0  0  0  0  0  0
  -39.0622  -69.0985   52.6277 C   0  0  0  0  0  0  0  0  0  0  0  0
  -40.0862  -68.3150   52.9472 C   0  0  0  0  0  0  0  0  0  0  0  0
  -41.0754  -67.3415   52.5014 C   0  0  0  0  0  0  0  0  0  0  0  0
  -40.8778  -66.6158   51.4878 O   0  0  0  0  0  0  0  0  0  0  0  0
  -40.5456  -70.4705   54.1580 H   0  0  0  0  0  0  0  0  0  0  0  0
  -37.7842  -70.1369   54.0812 H   0  0  0  0  0  0  0  0  0  0  0  0
  -47.4170  -64.1778   52.9637 Br  0  0  0  0  0  0  0  0  0  0  0  0
  -45.7681  -65.1676   53.0937 C   0  0  0  0  0  0  0  0  0  0  0  0
  -45.8046  -66.5360   53.1778 C   0  0  0  0  0  0  0  0  0  0  0  0
  -44.6332  -67.2163   53.2696 C   0  0  0  0  0  0  0  0  0  0  0  0
  -43.3728  -66.6065   53.2853 C   0  0  0  0  0  0  0  0  0  0  0  0
  -43.3630  -65.2404   53.1999 C   0  0  0  0  0  0  0  0  0  0  0  0
  -44.5436  -64.5277   53.1057 C   0  0  0  0  0  0  0  0  0  0  0  0
  -38.4319  -69.2339   51.3192 C   0  0  0  0  0  0  0  0  0  0  0  0
  -38.0252  -70.3404   50.8939 O   0  0  0  0  0  0  0  0  0  0  0  0
  -38.2466  -68.1504   50.4732 O   0  0  0  0  0  0  0  0  0  0  0  0
  -37.2598  -68.1612   49.4509 C   0  0  0  0  0  0  0  0  0  0  0  0
  -36.1371  -67.2424   49.8369 C   0  0  0  0  0  0  0  0  0  0  0  0
  -35.0469  -67.7267   50.5578 C   0  0  0  0  0  0  0  0  0  0  0  0
  -34.0007  -66.9243   50.9252 C   0  0  0  0  0  0  0  0  0  0  0  0
  -34.0257  -65.5786   50.5689 C   0  0  0  0  0  0  0  0  0  0  0  0
  -35.1053  -65.1041   49.8571 C   0  0  0  0  0  0  0  0  0  0  0  0
  -36.1671  -65.9323   49.4861 C   0  0  0  0  0  0  0  0  0  0  0  0
 13 14  1  0  0  0
 14 15  2  0  0  0
 14 19  1  0  0  0
 15 16  1  0  0  0
 16 17  2  0  0  0
 17 18  1  0  0  0
 17  1  1  0  0  0
 18 19  2  0  0  0
  1  2  1  0  0  0
  1  9  1  0  0  0
  2  3  2  0  0  0
  2  4  1  0  0  0
  4  5  1  0  0  0
  4  8  1  0  0  0
  5  6  1  0  0  0
  6  7  1  0  0  0
  7  8  2  0  0  0
  7 20  1  0  0  0
  8  9  1  0  0  0
  9 10  2  0  0  0
 20 21  2  0  0  0
 20 22  1  0  0  0
 22 23  1  0  0  0
 23 24  1  0  0  0
 24 25  2  0  0  0
 24 29  1  0  0  0
 25 26  1  0  0  0
 26 27  2  0  0  0
 27 28  1  0  0  0
 28 29  2  0  0  0
  5 11  1  0  0  0
  6 12  1  0  0  0
M  END
> <minimizedAffinity>
-8.71686

$$$$
428


 28 31  0  0  0  0  0  0  0  0999 V2000
  -39.2284  -67.3403   50.9356 N   0  0  0  0  0  0  0  0  0  0  0  0
  -38.5804  -68.6260   50.9349 C   0  0  0  0  0  0  0  0  0  0  0  0
  -39.0588  -69.5632   51.6317 O   0  0  0  0  0  0  0  0  0  0  0  0
  -37.4261  -68.7636   50.1378 N   0  0  0  0  0  0  0  0  0  0  0  0
  -36.9285  -67.8369   49.4295 C   0  0  0  0  0  0  0  0  0  0  0  0
  -37.4550  -66.4551   49.3054 C   0  0  0  0  0  0  0  0  0  0  0  0
  -36.3591  -65.5069   49.6507 C   0  0  0  0  0  0  0  0  0  0  0  0
  -36.3991  -64.2252   49.0457 N   0  0  0  0  0  0  0  0  0  0  0  0
  -37.5952  -63.8951   48.3771 C   0  0  0  0  0  0  0  0  0  0  0  0
  -38.3450  -64.8872   47.7331 C   0  0  0  0  0  0  0  0  0  0  0  0
  -39.5020  -64.5479   47.0901 C   0  0  0  0  0  0  0  0  0  0  0  0
  -39.9940  -63.2640   47.0309 C   0  0  0  0  0  0  0  0  0  0  0  0
  -39.2526  -62.2905   47.6670 C   0  0  0  0  0  0  0  0  0  0  0  0
  -38.0725  -62.6037   48.3284 C   0  0  0  0  0  0  0  0  0  0  0  0
  -41.2546  -62.9349   46.3250 C   0  0  0  0  0  0  0  0  0  0  0  0
  -37.7792  -66.2584   47.8217 C   0  0  0  0  0  0  0  0  0  0  0  0
  -35.2393  -63.9841   48.1709 C   0  0  0  0  0  0  0  0  0  0  0  0
  -38.6661  -66.3024   50.1396 C   0  0  0  0  0  0  0  0  0  0  0  0
  -39.2868  -65.1892   50.1864 O   0  0  0  0  0  0  0  0  0  0  0  0
  -35.7665  -68.1141   48.6778 O   0  0  0  0  0  0  0  0  0  0  0  0
  -36.2858  -63.5041   49.8196 H   0  0  0  0  0  0  0  0  0  0  0  0
  -44.4095  -66.3380   54.0211 Br  0  0  0  0  0  0  0  0  0  0  0  0
  -42.7729  -66.6610   53.0965 C   0  0  0  0  0  0  0  0  0  0  0  0
  -42.7362  -66.5143   51.7358 C   0  0  0  0  0  0  0  0  0  0  0  0
  -41.5472  -66.7482   51.0558 C   0  0  0  0  0  0  0  0  0  0  0  0
  -40.3974  -67.1252   51.7122 C   0  0  0  0  0  0  0  0  0  0  0  0
  -40.4566  -67.2670   53.0809 C   0  0  0  0  0  0  0  0  0  0  0  0
  -41.6295  -67.0394   53.7817 C   0  0  0  0  0  0  0  0  0  0  0  0
 22 23  1  0  0  0
 23 24  2  0  0  0
 23 28  1  0  0  0
 24 25  1  0  0  0
 25 26  2  0  0  0
 26 27  1  0  0  0
 26  1  1  0  0  0
 27 28  2  0  0  0
  1  2  1  0  0  0
  1 18  1  0  0  0
  2  3  2  0  0  0
  2  4  1  0  0  0
  4  5  2  0  0  0
  5  6  1  0  0  0
  5 20  1  0  0  0
  6  7  1  0  0  0
  6 16  1  0  0  0
  6 18  1  0  0  0
  7  8  1  0  0  0
  8  9  1  0  0  0
  8 17  1  0  0  0
  9 10  2  0  0  0
  9 14  1  0  0  0
 10 11  1  0  0  0
 10 16  1  0  0  0
 11 12  2  0  0  0
 12 13  1  0  0  0
 12 15  1  0  0  0
 13 14  2  0  0  0
 18 19  2  0  0  0
  8 21  1  0  0  0
M  CHG 1   8   1
M  CHG 1  20  -1
M  END
> <minimizedAffinity>
-7.85696

$$$$
429


 36 39  0  0  0  0  0  0  0  0999 V2000
  -35.1316  -66.4371   49.6212 N   0  0  0  0  0  0  0  0  0  0  0  0
  -33.7339  -66.6696   49.8054 C   0  0  0  0  0  0  0  0  0  0  0  0
  -32.9283  -65.8125   49.3204 O   0  0  0  0  0  0  0  0  0  0  0  0
  -33.2994  -67.8214   50.5057 N   0  0  0  0  0  0  0  0  0  0  0  0
  -34.1827  -68.7936   51.0564 C   0  0  0  0  0  0  0  0  0  0  0  0
  -33.7653  -69.8110   51.6769 O   0  0  0  0  0  0  0  0  0  0  0  0
  -35.6317  -68.5851   50.8856 C   0  0  0  0  0  0  0  0  0  0  0  0
  -36.5038  -69.4540   51.3732 C   0  0  0  0  0  0  0  0  0  0  0  0
  -36.0468  -67.3898   50.1603 C   0  0  0  0  0  0  0  0  0  0  0  0
  -37.2734  -67.1696   49.9894 O   0  0  0  0  0  0  0  0  0  0  0  0
  -32.2676  -67.9538   50.6191 H   0  0  0  0  0  0  0  0  0  0  0  0
  -37.0027  -61.5263   46.4723 Br  0  0  0  0  0  0  0  0  0  0  0  0
  -36.4185  -63.0535   47.4678 C   0  0  0  0  0  0  0  0  0  0  0  0
  -36.1413  -64.2512   46.8305 C   0  0  0  0  0  0  0  0  0  0  0  0
  -35.7195  -65.3480   47.5570 C   0  0  0  0  0  0  0  0  0  0  0  0
  -35.5594  -65.2997   48.9274 C   0  0  0  0  0  0  0  0  0  0  0  0
  -35.8316  -64.1142   49.5769 C   0  0  0  0  0  0  0  0  0  0  0  0
  -36.2512  -63.0283   48.8353 C   0  0  0  0  0  0  0  0  0  0  0  0
  -37.8941  -69.2257   51.1920 N   0  0  0  0  0  0  0  0  0  0  0  0
  -38.2063  -69.1092   50.1899 H   0  0  0  0  0  0  0  0  0  0  0  0
  -38.8321  -69.1474   52.2084 N   0  0  0  0  0  0  0  0  0  0  0  0
  -38.7262  -69.8793   52.9703 H   0  0  0  0  0  0  0  0  0  0  0  0
  -39.8764  -68.1838   52.2721 C   0  0  0  0  0  0  0  0  0  0  0  0
  -40.9098  -68.2229   53.1194 N   0  0  0  0  0  0  0  0  0  0  0  0
  -41.7024  -67.1589   52.9100 C   0  0  0  0  0  0  0  0  0  0  0  0
  -41.1350  -66.4199   51.8806 C   0  0  0  0  0  0  0  0  0  0  0  0
  -40.0344  -67.0848   51.5333 N   0  0  0  0  0  0  0  0  0  0  0  0
  -41.6994  -65.2841   51.4329 N   0  0  0  0  0  0  0  0  0  0  0  0
  -42.8322  -64.8621   51.9951 C   0  0  0  0  0  0  0  0  0  0  0  0
  -43.3966  -63.7952   51.6024 O   0  0  0  0  0  0  0  0  0  0  0  0
  -43.4410  -65.5367   53.0071 N   0  0  0  0  0  0  0  0  0  0  0  0
  -42.8653  -66.6789   53.4499 C   0  0  0  0  0  0  0  0  0  0  0  0
  -43.4215  -67.3016   54.3779 O   0  0  0  0  0  0  0  0  0  0  0  0
  -44.6637  -65.0382   53.5832 C   0  0  0  0  0  0  0  0  0  0  0  0
  -41.0558  -64.5759   50.3661 C   0  0  0  0  0  0  0  0  0  0  0  0
  -41.2244  -69.2176   54.1511 C   0  0  0  0  0  0  0  0  0  0  0  0
 12 13  1  0  0  0
 13 14  2  0  0  0
 13 18  1  0  0  0
 14 15  1  0  0  0
 15 16  2  0  0  0
 16 17  1  0  0  0
 16  1  1  0  0  0
 17 18  2  0  0  0
  1  2  1  0  0  0
  1  9  1  0  0  0
  2  3  2  0  0  0
  2  4  1  0  0  0
  4  5  1  0  0  0
  5  6  2  0  0  0
  5  7  1  0  0  0
  7  8  2  0  0  0
  7  9  1  0  0  0
  8 19  1  0  0  0
 19 21  1  0  0  0
 21 23  1  0  0  0
 23 24  1  0  0  0
 23 27  2  0  0  0
 24 25  1  0  0  0
 24 36  1  0  0  0
 25 26  2  0  0  0
 25 32  1  0  0  0
 26 27  1  0  0  0
 26 28  1  0  0  0
 28 29  1  0  0  0
 28 35  1  0  0  0
 29 30  2  0  0  0
 29 31  1  0  0  0
 31 32  1  0  0  0
 31 34  1  0  0  0
 32 33  2  0  0  0
  9 10  2  0  0  0
  4 11  1  0  0  0
 19 20  1  0  0  0
 21 22  1  0  0  0
M  END
> <minimizedAffinity>
-9.02192

$$$$
436


 29 32  0  0  0  0  0  0  0  0999 V2000
  -39.4224  -68.3154   51.4641 N   0  0  0  0  0  0  0  0  0  0  0  0
  -39.0481  -69.6703   51.8170 C   0  0  0  0  0  0  0  0  0  0  0  0
  -37.8015  -70.1425   51.1057 C   0  0  0  0  0  0  0  0  0  0  0  0
  -36.7839  -68.9938   51.1834 C   0  0  0  0  0  0  0  0  0  0  0  0
  -37.3089  -67.9732   50.3142 N   0  0  0  0  0  0  0  0  0  0  0  0
  -38.6295  -67.6598   50.4821 C   0  0  0  0  0  0  0  0  0  0  0  0
  -38.9539  -66.7008   49.5994 N   0  0  0  0  0  0  0  0  0  0  0  0
  -37.8278  -66.4286   48.8933 C   0  0  0  0  0  0  0  0  0  0  0  0
  -36.7847  -67.2262   49.3380 C   0  0  0  0  0  0  0  0  0  0  0  0
  -35.5310  -67.1301   48.7670 C   0  0  0  0  0  0  0  0  0  0  0  0
  -34.5974  -67.8824   49.2056 O   0  0  0  0  0  0  0  0  0  0  0  0
  -35.3261  -66.2506   47.7706 N   0  0  0  0  0  0  0  0  0  0  0  0
  -36.3547  -65.4892   47.3588 C   0  0  0  0  0  0  0  0  0  0  0  0
  -36.1191  -64.6784   46.4226 O   0  0  0  0  0  0  0  0  0  0  0  0
  -37.5728  -65.5651   47.8946 N   0  0  0  0  0  0  0  0  0  0  0  0
  -38.6639  -64.7250   47.4234 C   0  0  0  0  0  0  0  0  0  0  0  0
  -44.1249  -65.9213   54.5063 Br  0  0  0  0  0  0  0  0  0  0  0  0
  -42.6877  -66.6334   53.5146 C   0  0  0  0  0  0  0  0  0  0  0  0
  -42.5031  -66.3492   52.1777 C   0  0  0  0  0  0  0  0  0  0  0  0
  -41.4310  -66.8889   51.4651 C   0  0  0  0  0  0  0  0  0  0  0  0
  -40.5359  -67.7202   52.0988 C   0  0  0  0  0  0  0  0  0  0  0  0
  -40.7517  -67.9812   53.4324 C   0  0  0  0  0  0  0  0  0  0  0  0
  -41.7934  -67.4667   54.1561 C   0  0  0  0  0  0  0  0  0  0  0  0
  -34.0106  -66.1411   47.1642 C   0  0  0  0  0  0  0  0  0  0  0  0
  -33.8946  -67.1778   46.0862 C   0  0  0  0  0  0  0  0  0  0  0  0
  -33.1248  -68.1570   46.2242 O   0  0  0  0  0  0  0  0  0  0  0  0
  -34.6437  -67.0837   44.8913 N   0  0  0  0  0  0  0  0  0  0  0  0
  -35.0362  -67.9205   44.4032 H   0  0  0  0  0  0  0  0  0  0  0  0
  -34.8386  -66.1555   44.4408 H   0  0  0  0  0  0  0  0  0  0  0  0
 17 18  1  0  0  0
 18 19  2  0  0  0
 18 23  1  0  0  0
 19 20  1  0  0  0
 20 21  2  0  0  0
 21 22  1  0  0  0
 21  1  1  0  0  0
 22 23  2  0  0  0
  1  2  1  0  0  0
  1  6  1  0  0  0
  2  3  1  0  0  0
  3  4  1  0  0  0
  4  5  1  0  0  0
  5  6  1  0  0  0
  5  9  1  0  0  0
  6  7  2  0  0  0
  7  8  1  0  0  0
  8  9  2  0  0  0
  8 15  1  0  0  0
  9 10  1  0  0  0
 10 11  2  0  0  0
 10 12  1  0  0  0
 12 13  1  0  0  0
 12 24  1  0  0  0
 13 14  2  0  0  0
 13 15  1  0  0  0
 15 16  1  0  0  0
 24 25  1  0  0  0
 25 26  2  0  0  0
 25 27  1  0  0  0
 27 28  1  0  0  0
 27 29  1  0  0  0
M  END
> <minimizedAffinity>
-8.45862

$$$$
439


 28 32  0  0  0  0  0  0  0  0999 V2000
  -39.6777  -67.6611   51.4580 N   0  0  0  0  0  0  0  0  0  0  0  0
  -38.8577  -68.6202   51.8745 N   0  0  0  0  0  0  0  0  0  0  0  0
  -37.7774  -68.6957   51.0753 C   0  0  0  0  0  0  0  0  0  0  0  0
  -36.7623  -69.5406   51.2039 C   0  0  0  0  0  0  0  0  0  0  0  0
  -37.8946  -67.7389   50.0881 C   0  0  0  0  0  0  0  0  0  0  0  0
  -37.0524  -67.4651   49.0879 C   0  0  0  0  0  0  0  0  0  0  0  0
  -39.1010  -67.1147   50.3671 C   0  0  0  0  0  0  0  0  0  0  0  0
  -39.5741  -66.1751   49.6875 O   0  0  0  0  0  0  0  0  0  0  0  0
  -39.0276  -69.2272   52.7009 H   0  0  0  0  0  0  0  0  0  0  0  0
  -45.0300  -65.9894   53.9728 Br  0  0  0  0  0  0  0  0  0  0  0  0
  -43.3477  -66.5230   53.2087 C   0  0  0  0  0  0  0  0  0  0  0  0
  -42.4047  -67.1833   53.9379 C   0  0  0  0  0  0  0  0  0  0  0  0
  -41.1984  -67.5533   53.3486 C   0  0  0  0  0  0  0  0  0  0  0  0
  -40.9208  -67.2679   52.0279 C   0  0  0  0  0  0  0  0  0  0  0  0
  -41.8972  -66.5990   51.3219 C   0  0  0  0  0  0  0  0  0  0  0  0
  -43.0974  -66.2224   51.8799 C   0  0  0  0  0  0  0  0  0  0  0  0
  -37.4035  -66.4194   48.1896 N   0  0  0  0  0  0  0  0  0  0  0  0
  -38.2452  -66.5450   47.6086 H   0  0  0  0  0  0  0  0  0  0  0  0
  -36.6289  -65.2174   48.0754 C   0  0  0  0  0  0  0  0  0  0  0  0
  -35.2670  -65.5114   47.5319 C   0  0  0  0  0  0  0  0  0  0  0  0
  -34.5503  -64.2585   47.3400 N   0  0  0  0  0  0  0  0  0  0  0  0
  -35.3123  -63.4527   46.3937 C   0  0  0  0  0  0  0  0  0  0  0  0
  -36.6071  -63.0939   46.9186 N   0  0  0  0  0  0  0  0  0  0  0  0
  -36.4443  -62.4411   48.2140 C   0  0  0  0  0  0  0  0  0  0  0  0
  -35.7306  -63.2797   49.1502 N   0  0  0  0  0  0  0  0  0  0  0  0
  -34.4272  -63.5860   48.6082 C   0  0  0  0  0  0  0  0  0  0  0  0
  -36.4646  -64.4983   49.3939 C   0  0  0  0  0  0  0  0  0  0  0  0
  -37.3875  -64.2858   47.1247 C   0  0  0  0  0  0  0  0  0  0  0  0
 10 11  1  0  0  0
 11 12  2  0  0  0
 11 16  1  0  0  0
 12 13  1  0  0  0
 13 14  2  0  0  0
 14 15  1  0  0  0
 14  1  1  0  0  0
 15 16  2  0  0  0
  1  2  1  0  0  0
  1  7  1  0  0  0
  2  3  1  0  0  0
  3  4  2  0  0  0
  3  5  1  0  0  0
  5  6  2  0  0  0
  5  7  1  0  0  0
  6 17  1  0  0  0
 17 19  1  0  0  0
 19 20  1  0  0  0
 19 27  1  0  0  0
 19 28  1  0  0  0
 20 21  1  0  0  0
 21 22  1  0  0  0
 21 26  1  0  0  0
 22 23  1  0  0  0
 23 24  1  0  0  0
 23 28  1  0  0  0
 24 25  1  0  0  0
 25 26  1  0  0  0
 25 27  1  0  0  0
  7  8  2  0  0  0
  2  9  1  0  0  0
 17 18  1  0  0  0
M  END
> <minimizedAffinity>
-7.68734

$$$$
441


 36 39  0  0  0  0  0  0  0  0999 V2000
  -39.6852  -68.6515   51.6563 C   0  0  0  0  0  0  0  0  0  0  0  0
  -39.8016  -67.7226   50.6893 N   0  0  0  0  0  0  0  0  0  0  0  0
  -38.7507  -67.4166   49.9462 C   0  0  0  0  0  0  0  0  0  0  0  0
  -38.6189  -66.5404   48.9417 N   0  0  0  0  0  0  0  0  0  0  0  0
  -37.3299  -66.6341   48.5425 C   0  0  0  0  0  0  0  0  0  0  0  0
  -36.6845  -67.5429   49.2796 N   0  0  0  0  0  0  0  0  0  0  0  0
  -37.5292  -68.0624   50.1725 C   0  0  0  0  0  0  0  0  0  0  0  0
  -37.4022  -69.0174   51.1638 C   0  0  0  0  0  0  0  0  0  0  0  0
  -38.4966  -69.2852   51.8813 N   0  0  0  0  0  0  0  0  0  0  0  0
  -36.1683  -69.6251   51.3445 O   0  0  0  0  0  0  0  0  0  0  0  0
  -35.6719  -69.8858   50.4851 H   0  0  0  0  0  0  0  0  0  0  0  0
  -39.5481  -65.6601   48.3442 C   0  0  0  0  0  0  0  0  0  0  0  0
  -38.9850  -64.9539   47.2731 O   0  0  0  0  0  0  0  0  0  0  0  0
  -38.6552  -63.7319   47.8534 C   0  0  0  0  0  0  0  0  0  0  0  0
  -39.9787  -63.3805   48.5163 C   0  0  0  0  0  0  0  0  0  0  0  0
  -40.2509  -64.7092   49.2174 C   0  0  0  0  0  0  0  0  0  0  0  0
  -41.6419  -64.9532   49.2596 O   0  0  0  0  0  0  0  0  0  0  0  0
  -39.8984  -62.3190   49.3732 O   0  0  0  0  0  0  0  0  0  0  0  0
  -41.9910  -64.3608   49.9717 H   0  0  0  0  0  0  0  0  0  0  0  0
  -39.1798  -61.6560   49.1198 H   0  0  0  0  0  0  0  0  0  0  0  0
  -38.2394  -62.7064   46.8389 C   0  0  0  0  0  0  0  0  0  0  0  0
  -37.6744  -61.5851   47.3828 O   0  0  0  0  0  0  0  0  0  0  0  0
  -36.6940  -61.7257   47.4470 H   0  0  0  0  0  0  0  0  0  0  0  0
  -41.0489  -68.3865   53.7208 C   0  0  0  0  0  0  0  0  0  0  0  0
  -40.2937  -67.4935   54.1439 O   0  0  0  0  0  0  0  0  0  0  0  0
  -40.7938  -69.0051   52.4803 N   0  0  0  0  0  0  0  0  0  0  0  0
  -41.4374  -69.7669   52.1191 H   0  0  0  0  0  0  0  0  0  0  0  0
  -42.2164  -68.8039   54.5188 C   0  0  0  0  0  0  0  0  0  0  0  0
  -42.9167  -67.7291   55.0753 O   0  0  0  0  0  0  0  0  0  0  0  0
  -46.4562  -64.2883   51.5176 Br  0  0  0  0  0  0  0  0  0  0  0  0
  -45.3344  -65.3673   52.6418 C   0  0  0  0  0  0  0  0  0  0  0  0
  -45.6555  -66.6891   52.8586 C   0  0  0  0  0  0  0  0  0  0  0  0
  -44.8385  -67.4738   53.6773 C   0  0  0  0  0  0  0  0  0  0  0  0
  -43.7159  -66.9471   54.2706 C   0  0  0  0  0  0  0  0  0  0  0  0
  -43.4126  -65.6278   54.0414 C   0  0  0  0  0  0  0  0  0  0  0  0
  -44.2068  -64.8426   53.2388 C   0  0  0  0  0  0  0  0  0  0  0  0
 30 31  1  0  0  0
 31 32  2  0  0  0
 31 36  1  0  0  0
 32 33  1  0  0  0
 33 34  2  0  0  0
 34 35  1  0  0  0
 34 29  1  0  0  0
 35 36  2  0  0  0
 29 28  1  0  0  0
 28 24  1  0  0  0
 24 25  2  0  0  0
 24 26  1  0  0  0
 26  1  1  0  0  0
  1  2  2  0  0  0
  1  9  1  0  0  0
  2  3  1  0  0  0
  3  4  1  0  0  0
  3  7  2  0  0  0
  4  5  1  0  0  0
  4 12  1  0  0  0
  5  6  2  0  0  0
  6  7  1  0  0  0
  7  8  1  0  0  0
  8  9  2  0  0  0
  8 10  1  0  0  0
 12 13  1  0  0  0
 12 16  1  0  0  0
 13 14  1  0  0  0
 14 15  1  0  0  0
 14 21  1  0  0  0
 15 16  1  0  0  0
 15 18  1  0  0  0
 16 17  1  0  0  0
 21 22  1  0  0  0
 26 27  1  0  0  0
 10 11  1  0  0  0
 17 19  1  0  0  0
 18 20  1  0  0  0
 22 23  1  0  0  0
M  END
> <minimizedAffinity>
-8.43883

$$$$
444


 33 36  0  0  0  0  0  0  0  0999 V2000
  -40.9537  -66.7922   52.2100 N   0  0  0  0  0  0  0  0  0  0  0  0
  -42.0634  -66.7210   52.9808 C   0  0  0  0  0  0  0  0  0  0  0  0
  -43.0171  -65.9972   52.3021 C   0  0  0  0  0  0  0  0  0  0  0  0
  -42.4517  -65.6599   51.1617 N   0  0  0  0  0  0  0  0  0  0  0  0
  -41.1687  -66.1299   51.0625 C   0  0  0  0  0  0  0  0  0  0  0  0
  -44.2633  -65.7305   52.7911 N   0  0  0  0  0  0  0  0  0  0  0  0
  -44.5617  -66.2055   54.0014 C   0  0  0  0  0  0  0  0  0  0  0  0
  -45.7088  -65.9698   54.4684 O   0  0  0  0  0  0  0  0  0  0  0  0
  -43.6529  -66.9123   54.6864 N   0  0  0  0  0  0  0  0  0  0  0  0
  -42.4106  -67.1928   54.2281 C   0  0  0  0  0  0  0  0  0  0  0  0
  -41.5895  -67.8487   54.8854 O   0  0  0  0  0  0  0  0  0  0  0  0
  -45.2125  -64.9584   51.9882 C   0  0  0  0  0  0  0  0  0  0  0  0
  -43.9226  -67.2662   55.6276 H   0  0  0  0  0  0  0  0  0  0  0  0
  -40.2985  -65.8458   49.9501 N   0  0  0  0  0  0  0  0  0  0  0  0
  -39.3727  -64.7189   50.2002 C   0  0  0  0  0  0  0  0  0  0  0  0
  -38.2769  -64.5938   49.2209 C   0  0  0  0  0  0  0  0  0  0  0  0
  -38.6570  -64.9672   47.8815 N   0  0  0  0  0  0  0  0  0  0  0  0
  -38.9910  -66.3551   47.9369 C   0  0  0  0  0  0  0  0  0  0  0  0
  -40.2671  -66.5938   48.7436 C   0  0  0  0  0  0  0  0  0  0  0  0
  -39.6614  -64.1152   47.3356 C   0  0  0  0  0  0  0  0  0  0  0  0
  -39.7412  -67.5137   52.5302 C   0  0  0  0  0  0  0  0  0  0  0  0
  -39.7089  -68.9495   52.0941 C   0  0  0  0  0  0  0  0  0  0  0  0
  -40.8178  -69.6691   52.5612 O   0  0  0  0  0  0  0  0  0  0  0  0
  -40.9651  -70.4661   51.9565 H   0  0  0  0  0  0  0  0  0  0  0  0
  -38.4846  -69.7344   52.4445 C   0  0  0  0  0  0  0  0  0  0  0  0
  -37.4332  -69.5198   51.6822 O   0  0  0  0  0  0  0  0  0  0  0  0
  -33.0497  -66.2806   49.1931 Br  0  0  0  0  0  0  0  0  0  0  0  0
  -34.4359  -67.3101   49.9853 C   0  0  0  0  0  0  0  0  0  0  0  0
  -34.1430  -68.0919   51.0700 C   0  0  0  0  0  0  0  0  0  0  0  0
  -35.1453  -68.8403   51.6478 C   0  0  0  0  0  0  0  0  0  0  0  0
  -36.4411  -68.8313   51.1720 C   0  0  0  0  0  0  0  0  0  0  0  0
  -36.7109  -68.0150   50.0503 C   0  0  0  0  0  0  0  0  0  0  0  0
  -35.7221  -67.2808   49.4857 C   0  0  0  0  0  0  0  0  0  0  0  0
 27 28  1  0  0  0
 28 29  2  0  0  0
 28 33  1  0  0  0
 29 30  1  0  0  0
 30 31  2  0  0  0
 31 32  1  0  0  0
 31 26  1  0  0  0
 32 33  2  0  0  0
 26 25  1  0  0  0
 25 22  1  0  0  0
 22 23  1  0  0  0
 22 21  1  0  0  0
 21  1  1  0  0  0
  1  2  1  0  0  0
  1  5  1  0  0  0
  2  3  2  0  0  0
  2 10  1  0  0  0
  3  4  1  0  0  0
  3  6  1  0  0  0
  4  5  2  0  0  0
  5 14  1  0  0  0
 14 15  1  0  0  0
 14 19  1  0  0  0
 15 16  1  0  0  0
 16 17  1  0  0  0
 17 18  1  0  0  0
 17 20  1  0  0  0
 18 19  1  0  0  0
  6  7  1  0  0  0
  6 12  1  0  0  0
  7  8  2  0  0  0
  7  9  1  0  0  0
  9 10  1  0  0  0
 10 11  2  0  0  0
 23 24  1  0  0  0
  9 13  1  0  0  0
M  END
> <minimizedAffinity>
-7.98385

$$$$
454


 21 25  0  0  0  0  0  0  0  0999 V2000
  -40.5090  -67.5268   50.3698 C   0  0  0  0  0  0  0  0  0  0  0  0
  -39.4686  -69.1896   52.8333 Br  0  0  0  0  0  0  0  0  0  0  0  0
  -40.8899  -67.9108   52.7624 C   0  0  0  0  0  0  0  0  0  0  0  0
  -41.6678  -67.6697   53.8796 C   0  0  0  0  0  0  0  0  0  0  0  0
  -42.7004  -66.7546   53.8425 C   0  0  0  0  0  0  0  0  0  0  0  0
  -43.0464  -66.0283   52.7277 C   0  0  0  0  0  0  0  0  0  0  0  0
  -42.2738  -66.2727   51.6254 C   0  0  0  0  0  0  0  0  0  0  0  0
  -41.2158  -67.1843   51.6045 C   0  0  0  0  0  0  0  0  0  0  0  0
  -44.1267  -65.2548   53.1207 O   0  0  0  0  0  0  0  0  0  0  0  0
  -44.8090  -65.9628   54.1927 C   0  0  0  0  0  0  0  0  0  0  0  0
  -43.5987  -66.3855   54.8901 O   0  0  0  0  0  0  0  0  0  0  0  0
  -39.5783  -66.6358   49.8146 N   0  0  0  0  0  0  0  0  0  0  0  0
  -40.0953  -66.5339   48.4024 C   0  0  0  0  0  0  0  0  0  0  0  0
  -39.2076  -65.9407   47.4946 N   0  0  0  0  0  0  0  0  0  0  0  0
  -37.9722  -66.7035   47.5359 C   0  0  0  0  0  0  0  0  0  0  0  0
  -37.4140  -66.5409   48.8555 N   0  0  0  0  0  0  0  0  0  0  0  0
  -38.2216  -67.1794   49.8440 C   0  0  0  0  0  0  0  0  0  0  0  0
  -37.2279  -65.1390   49.2472 C   0  0  0  0  0  0  0  0  0  0  0  0
  -38.5488  -64.5335   49.2954 N   0  0  0  0  0  0  0  0  0  0  0  0
  -39.4467  -65.2686   50.2114 C   0  0  0  0  0  0  0  0  0  0  0  0
  -39.0393  -64.5521   47.9381 C   0  0  0  0  0  0  0  0  0  0  0  0
  2  3  1  0  0  0
  3  4  2  0  0  0
  3  8  1  0  0  0
  4  5  1  0  0  0
  5  6  2  0  0  0
  5 11  1  0  0  0
  6  7  1  0  0  0
  6  9  1  0  0  0
  7  8  2  0  0  0
  8  1  1  0  0  0
  1 12  1  0  0  0
 12 13  1  0  0  0
 12 17  1  0  0  0
 12 20  1  0  0  0
 13 14  1  0  0  0
 14 15  1  0  0  0
 14 21  1  0  0  0
 15 16  1  0  0  0
 16 17  1  0  0  0
 16 18  1  0  0  0
 18 19  1  0  0  0
 19 20  1  0  0  0
 19 21  1  0  0  0
  9 10  1  0  0  0
 10 11  1  0  0  0
M  CHG 1  12   1
M  END
> <minimizedAffinity>
-7.08749

$$$$
455


 26 29  0  0  0  0  0  0  0  0999 V2000
  -39.5547  -65.5736   49.4874 N   0  0  0  0  0  0  0  0  0  0  0  0
  -38.9517  -64.3231   48.9567 C   0  0  0  0  0  0  0  0  0  0  0  0
  -39.7821  -63.2293   49.6199 C   0  0  0  0  0  0  0  0  0  0  0  0
  -40.9529  -63.7048   50.2607 N   0  0  0  0  0  0  0  0  0  0  0  0
  -41.7294  -64.5900   49.4325 C   0  0  0  0  0  0  0  0  0  0  0  0
  -40.8418  -65.6158   48.7907 C   0  0  0  0  0  0  0  0  0  0  0  0
  -38.7304  -66.7034   49.1054 C   0  0  0  0  0  0  0  0  0  0  0  0
  -35.9603  -68.0075   49.2079 Br  0  0  0  0  0  0  0  0  0  0  0  0
  -37.3684  -68.3122   50.4620 C   0  0  0  0  0  0  0  0  0  0  0  0
  -37.1825  -69.1664   51.5248 C   0  0  0  0  0  0  0  0  0  0  0  0
  -38.1845  -69.3952   52.4348 C   0  0  0  0  0  0  0  0  0  0  0  0
  -39.3738  -68.7482   52.2538 C   0  0  0  0  0  0  0  0  0  0  0  0
  -39.5586  -67.8838   51.1760 C   0  0  0  0  0  0  0  0  0  0  0  0
  -38.5682  -67.6368   50.2481 C   0  0  0  0  0  0  0  0  0  0  0  0
  -40.3981  -68.9654   53.1617 O   0  0  0  0  0  0  0  0  0  0  0  0
  -40.3911  -70.0030   54.1078 C   0  0  0  0  0  0  0  0  0  0  0  0
  -38.9998  -70.3412   54.5383 C   0  0  0  0  0  0  0  0  0  0  0  0
  -38.0360  -70.2483   53.5204 O   0  0  0  0  0  0  0  0  0  0  0  0
  -40.8693  -64.0516   51.6286 C   0  0  0  0  0  0  0  0  0  0  0  0
  -42.0936  -64.5168   52.2534 C   0  0  0  0  0  0  0  0  0  0  0  0
  -43.0798  -63.7611   52.3822 O   0  0  0  0  0  0  0  0  0  0  0  0
  -42.2073  -65.8418   52.7338 N   0  0  0  0  0  0  0  0  0  0  0  0
  -41.4160  -66.5442   52.6593 H   0  0  0  0  0  0  0  0  0  0  0  0
  -43.4208  -66.3438   53.3671 C   0  0  0  0  0  0  0  0  0  0  0  0
  -43.6944  -66.0660   54.7861 C   0  0  0  0  0  0  0  0  0  0  0  0
  -43.1909  -67.4283   54.4162 C   0  0  0  0  0  0  0  0  0  0  0  0
  8  9  1  0  0  0
  9 10  2  0  0  0
  9 14  1  0  0  0
 10 11  1  0  0  0
 11 12  2  0  0  0
 11 18  1  0  0  0
 12 13  1  0  0  0
 12 15  1  0  0  0
 13 14  2  0  0  0
 14  7  1  0  0  0
  7  1  1  0  0  0
  1  2  1  0  0  0
  1  6  1  0  0  0
  2  3  1  0  0  0
  3  4  1  0  0  0
  4  5  1  0  0  0
  4 19  1  0  0  0
  5  6  1  0  0  0
 19 20  1  0  0  0
 20 21  2  0  0  0
 20 22  1  0  0  0
 22 24  1  0  0  0
 24 25  1  0  0  0
 24 26  1  0  0  0
 25 26  1  0  0  0
 15 16  1  0  0  0
 16 17  1  0  0  0
 17 18  1  0  0  0
 22 23  1  0  0  0
M  END
> <minimizedAffinity>
-7.23592

$$$$
459


 29 32  0  0  0  0  0  0  0  0999 V2000
  -39.2081  -68.2415   51.5159 C   0  0  0  0  0  0  0  0  0  0  0  0
  -39.7410  -68.0508   52.7980 C   0  0  0  0  0  0  0  0  0  0  0  0
  -40.8040  -67.2133   53.0485 C   0  0  0  0  0  0  0  0  0  0  0  0
  -41.3985  -66.5119   52.0225 C   0  0  0  0  0  0  0  0  0  0  0  0
  -40.8863  -66.6862   50.7545 C   0  0  0  0  0  0  0  0  0  0  0  0
  -39.8087  -67.5354   50.4977 C   0  0  0  0  0  0  0  0  0  0  0  0
  -42.5305  -65.6165   52.2737 C   0  0  0  0  0  0  0  0  0  0  0  0
  -43.8097  -65.9309   52.5367 N   0  0  0  0  0  0  0  0  0  0  0  0
  -44.5036  -64.7999   52.7004 N   0  0  0  0  0  0  0  0  0  0  0  0
  -43.6775  -63.7760   52.5422 N   0  0  0  0  0  0  0  0  0  0  0  0
  -42.4808  -64.2749   52.2830 N   0  0  0  0  0  0  0  0  0  0  0  0
  -45.9126  -64.6486   52.9981 C   0  0  0  0  0  0  0  0  0  0  0  0
  -46.6487  -64.2266   51.7864 C   0  0  0  0  0  0  0  0  0  0  0  0
  -47.6467  -63.4965   51.8973 O   0  0  0  0  0  0  0  0  0  0  0  0
  -46.2028  -64.6634   50.5204 N   0  0  0  0  0  0  0  0  0  0  0  0
  -45.7080  -65.5873   50.3766 H   0  0  0  0  0  0  0  0  0  0  0  0
  -46.3575  -64.0671   49.6799 H   0  0  0  0  0  0  0  0  0  0  0  0
  -38.1351  -69.0933   51.3208 O   0  0  0  0  0  0  0  0  0  0  0  0
  -37.3140  -69.0683   50.1919 C   0  0  0  0  0  0  0  0  0  0  0  0
  -34.8546  -69.7639   51.8560 Br  0  0  0  0  0  0  0  0  0  0  0  0
  -35.1100  -68.1312   50.8878 C   0  0  0  0  0  0  0  0  0  0  0  0
  -34.1536  -67.1467   50.8718 C   0  0  0  0  0  0  0  0  0  0  0  0
  -34.3549  -65.9765   50.1684 C   0  0  0  0  0  0  0  0  0  0  0  0
  -35.5349  -65.8046   49.4762 C   0  0  0  0  0  0  0  0  0  0  0  0
  -36.5004  -66.8097   49.4974 C   0  0  0  0  0  0  0  0  0  0  0  0
  -36.3182  -67.9828   50.1936 C   0  0  0  0  0  0  0  0  0  0  0  0
  -35.4705  -64.5640   48.8734 O   0  0  0  0  0  0  0  0  0  0  0  0
  -34.1467  -64.0609   48.9175 C   0  0  0  0  0  0  0  0  0  0  0  0
  -33.5923  -64.8241   49.9671 O   0  0  0  0  0  0  0  0  0  0  0  0
 20 21  1  0  0  0
 21 22  2  0  0  0
 21 26  1  0  0  0
 22 23  1  0  0  0
 23 24  2  0  0  0
 23 29  1  0  0  0
 24 25  1  0  0  0
 24 27  1  0  0  0
 25 26  2  0  0  0
 26 19  1  0  0  0
 19 18  1  0  0  0
 18  1  1  0  0  0
  1  2  2  0  0  0
  1  6  1  0  0  0
  2  3  1  0  0  0
  3  4  2  0  0  0
  4  5  1  0  0  0
  4  7  1  0  0  0
  5  6  2  0  0  0
  7  8  2  0  0  0
  7 11  1  0  0  0
  8  9  1  0  0  0
  9 10  1  0  0  0
  9 12  1  0  0  0
 10 11  2  0  0  0
 12 13  1  0  0  0
 13 14  2  0  0  0
 13 15  1  0  0  0
 27 28  1  0  0  0
 28 29  1  0  0  0
 15 16  1  0  0  0
 15 17  1  0  0  0
M  END
> <minimizedAffinity>
-8.09599

$$$$
467


 28 31  0  0  0  0  0  0  0  0999 V2000
  -37.8153  -67.8514   49.6027 N   0  0  0  0  0  0  0  0  0  0  0  0
  -38.1499  -68.1757   48.6698 H   0  0  0  0  0  0  0  0  0  0  0  0
  -36.4396  -67.5835   49.7730 C   0  0  0  0  0  0  0  0  0  0  0  0
  -35.9850  -66.4330   49.2496 N   0  0  0  0  0  0  0  0  0  0  0  0
  -34.6898  -66.0336   49.3654 C   0  0  0  0  0  0  0  0  0  0  0  0
  -33.8851  -66.8573   50.0350 N   0  0  0  0  0  0  0  0  0  0  0  0
  -34.2723  -68.0094   50.5770 C   0  0  0  0  0  0  0  0  0  0  0  0
  -35.5839  -68.3641   50.4312 N   0  0  0  0  0  0  0  0  0  0  0  0
  -34.2974  -64.8269   48.7820 N   0  0  0  0  0  0  0  0  0  0  0  0
  -35.1241  -63.6467   48.8681 C   0  0  0  0  0  0  0  0  0  0  0  0
  -34.3327  -62.4003   48.5320 C   0  0  0  0  0  0  0  0  0  0  0  0
  -33.0277  -62.4120   48.9010 O   0  0  0  0  0  0  0  0  0  0  0  0
  -32.3155  -63.5656   48.7920 C   0  0  0  0  0  0  0  0  0  0  0  0
  -33.0421  -64.7061   48.0854 C   0  0  0  0  0  0  0  0  0  0  0  0
  -33.4105  -68.8442   51.2677 O   0  0  0  0  0  0  0  0  0  0  0  0
  -33.9002  -69.9516   51.9755 C   0  0  0  0  0  0  0  0  0  0  0  0
  -39.1004  -68.5516   51.4822 C   0  0  0  0  0  0  0  0  0  0  0  0
  -38.7366  -67.7010   50.6201 N   0  0  0  0  0  0  0  0  0  0  0  0
  -38.9169  -70.3190   54.0219 Br  0  0  0  0  0  0  0  0  0  0  0  0
  -40.1561  -68.9259   53.6852 C   0  0  0  0  0  0  0  0  0  0  0  0
  -41.1151  -68.6065   54.6282 C   0  0  0  0  0  0  0  0  0  0  0  0
  -42.0494  -67.5894   54.4237 C   0  0  0  0  0  0  0  0  0  0  0  0
  -41.9902  -66.8886   53.2215 C   0  0  0  0  0  0  0  0  0  0  0  0
  -41.0244  -67.2251   52.2956 C   0  0  0  0  0  0  0  0  0  0  0  0
  -40.0894  -68.2389   52.4934 C   0  0  0  0  0  0  0  0  0  0  0  0
  -43.0013  -65.9555   53.2636 O   0  0  0  0  0  0  0  0  0  0  0  0
  -43.8312  -66.1559   54.3907 C   0  0  0  0  0  0  0  0  0  0  0  0
  -43.0947  -67.0648   55.1663 O   0  0  0  0  0  0  0  0  0  0  0  0
 19 20  1  0  0  0
 20 21  2  0  0  0
 20 25  1  0  0  0
 21 22  1  0  0  0
 22 23  2  0  0  0
 22 28  1  0  0  0
 23 24  1  0  0  0
 23 26  1  0  0  0
 24 25  2  0  0  0
 25 17  1  0  0  0
 17 18  2  0  0  0
 18  1  1  0  0  0
  1  3  1  0  0  0
  3  4  2  0  0  0
  3  8  1  0  0  0
  4  5  1  0  0  0
  5  6  2  0  0  0
  5  9  1  0  0  0
  6  7  1  0  0  0
  7  8  2  0  0  0
  7 15  1  0  0  0
 15 16  1  0  0  0
  9 10  1  0  0  0
  9 14  1  0  0  0
 10 11  1  0  0  0
 11 12  1  0  0  0
 12 13  1  0  0  0
 13 14  1  0  0  0
 26 27  1  0  0  0
 27 28  1  0  0  0
  1  2  1  0  0  0
M  END
> <minimizedAffinity>
-8.13242

$$$$
469


 32 36  0  0  0  0  0  0  0  0999 V2000
  -36.9321  -68.5271   49.9086 C   0  0  0  0  0  0  0  0  0  0  0  0
  -36.1962  -67.4866   49.2286 N   0  0  0  0  0  0  0  0  0  0  0  0
  -35.9828  -67.6762   47.8733 C   0  0  0  0  0  0  0  0  0  0  0  0
  -34.7792  -67.1226   47.2132 C   0  0  0  0  0  0  0  0  0  0  0  0
  -34.2255  -66.0917   48.0434 N   0  0  0  0  0  0  0  0  0  0  0  0
  -33.9394  -66.5126   49.3918 C   0  0  0  0  0  0  0  0  0  0  0  0
  -35.2673  -66.8030   50.0416 C   0  0  0  0  0  0  0  0  0  0  0  0
  -33.9552  -64.7665   47.6642 C   0  0  0  0  0  0  0  0  0  0  0  0
  -32.7095  -64.2291   47.6305 N   0  0  0  0  0  0  0  0  0  0  0  0
  -32.4819  -62.9559   47.2611 C   0  0  0  0  0  0  0  0  0  0  0  0
  -33.4935  -62.1459   46.9021 N   0  0  0  0  0  0  0  0  0  0  0  0
  -34.7649  -62.5947   46.9051 C   0  0  0  0  0  0  0  0  0  0  0  0
  -35.9548  -62.0166   46.5994 N   0  0  0  0  0  0  0  0  0  0  0  0
  -36.8749  -62.9451   46.7883 N   0  0  0  0  0  0  0  0  0  0  0  0
  -36.3410  -64.0965   47.2021 C   0  0  0  0  0  0  0  0  0  0  0  0
  -34.9812  -63.8953   47.2845 C   0  0  0  0  0  0  0  0  0  0  0  0
  -36.1457  -60.6357   46.1524 C   0  0  0  0  0  0  0  0  0  0  0  0
  -38.6664  -68.6228   51.7045 N   0  0  0  0  0  0  0  0  0  0  0  0
  -38.2018  -67.9922   50.5318 C   0  0  0  0  0  0  0  0  0  0  0  0
  -38.7443  -67.0321   49.9602 O   0  0  0  0  0  0  0  0  0  0  0  0
  -38.0905  -69.4397   52.0815 H   0  0  0  0  0  0  0  0  0  0  0  0
  -38.8974  -70.2934   54.1873 Br  0  0  0  0  0  0  0  0  0  0  0  0
  -40.1036  -68.9434   53.6176 C   0  0  0  0  0  0  0  0  0  0  0  0
  -41.2267  -68.6236   54.3433 C   0  0  0  0  0  0  0  0  0  0  0  0
  -42.0972  -67.6582   53.9450 C   0  0  0  0  0  0  0  0  0  0  0  0
  -41.8567  -66.9706   52.7754 C   0  0  0  0  0  0  0  0  0  0  0  0
  -40.7200  -67.2792   52.0200 C   0  0  0  0  0  0  0  0  0  0  0  0
  -39.8319  -68.2615   52.4226 C   0  0  0  0  0  0  0  0  0  0  0  0
  -42.7484  -66.0007   52.3938 O   0  0  0  0  0  0  0  0  0  0  0  0
  -44.0961  -65.9629   52.7951 C   0  0  0  0  0  0  0  0  0  0  0  0
  -44.4080  -66.9090   53.9100 C   0  0  0  0  0  0  0  0  0  0  0  0
  -43.2422  -67.3035   54.6454 O   0  0  0  0  0  0  0  0  0  0  0  0
 22 23  1  0  0  0
 23 24  2  0  0  0
 23 28  1  0  0  0
 24 25  1  0  0  0
 25 26  2  0  0  0
 25 32  1  0  0  0
 26 27  1  0  0  0
 26 29  1  0  0  0
 27 28  2  0  0  0
 28 18  1  0  0  0
 18 19  1  0  0  0
 19 20  2  0  0  0
 19  1  1  0  0  0
  1  2  1  0  0  0
  2  3  1  0  0  0
  2  7  1  0  0  0
  3  4  1  0  0  0
  4  5  1  0  0  0
  5  6  1  0  0  0
  5  8  1  0  0  0
  6  7  1  0  0  0
  8  9  2  0  0  0
  8 16  1  0  0  0
  9 10  1  0  0  0
 10 11  2  0  0  0
 11 12  1  0  0  0
 12 13  1  0  0  0
 12 16  2  0  0  0
 13 14  1  0  0  0
 13 17  1  0  0  0
 14 15  2  0  0  0
 15 16  1  0  0  0
 29 30  1  0  0  0
 30 31  1  0  0  0
 31 32  1  0  0  0
 18 21  1  0  0  0
M  END
> <minimizedAffinity>
-8.24271

$$$$
471


 27 30  0  0  0  0  0  0  0  0999 V2000
  -38.6156  -64.6816   49.0600 C   0  0  0  0  0  0  0  0  0  0  0  0
  -38.4408  -63.4688   48.7454 O   0  0  0  0  0  0  0  0  0  0  0  0
  -37.7538  -65.6635   48.5317 N   0  0  0  0  0  0  0  0  0  0  0  0
  -36.6940  -65.2559   47.6449 C   0  0  0  0  0  0  0  0  0  0  0  0
  -35.3299  -65.7259   48.1038 C   0  0  0  0  0  0  0  0  0  0  0  0
  -35.4868  -66.9484   48.7994 N   0  0  0  0  0  0  0  0  0  0  0  0
  -36.5494  -67.7315   48.3038 C   0  0  0  0  0  0  0  0  0  0  0  0
  -37.8466  -67.0759   48.8121 C   0  0  0  0  0  0  0  0  0  0  0  0
  -41.4050  -69.0354   54.7059 Br  0  0  0  0  0  0  0  0  0  0  0  0
  -41.5858  -67.6070   53.4552 C   0  0  0  0  0  0  0  0  0  0  0  0
  -40.5483  -67.2963   52.5926 C   0  0  0  0  0  0  0  0  0  0  0  0
  -40.6508  -66.2631   51.6723 C   0  0  0  0  0  0  0  0  0  0  0  0
  -41.8445  -65.5678   51.6687 C   0  0  0  0  0  0  0  0  0  0  0  0
  -42.8893  -65.8535   52.5129 C   0  0  0  0  0  0  0  0  0  0  0  0
  -42.7619  -66.8822   53.4144 C   0  0  0  0  0  0  0  0  0  0  0  0
  -41.9519  -64.5363   50.7537 C   0  0  0  0  0  0  0  0  0  0  0  0
  -43.0275  -63.8535   50.6983 O   0  0  0  0  0  0  0  0  0  0  0  0
  -40.8867  -64.2714   49.9190 C   0  0  0  0  0  0  0  0  0  0  0  0
  -39.7225  -65.0020   49.9698 C   0  0  0  0  0  0  0  0  0  0  0  0
  -39.6709  -65.9667   50.8540 O   0  0  0  0  0  0  0  0  0  0  0  0
  -35.2782  -66.9293   50.1914 C   0  0  0  0  0  0  0  0  0  0  0  0
  -34.5884  -68.0912   50.7449 C   0  0  0  0  0  0  0  0  0  0  0  0
  -33.2590  -68.2812   50.7451 N   0  0  0  0  0  0  0  0  0  0  0  0
  -33.0350  -69.4107   51.3160 O   0  0  0  0  0  0  0  0  0  0  0  0
  -34.1498  -69.9828   51.6969 N   0  0  0  0  0  0  0  0  0  0  0  0
  -35.1719  -69.1702   51.3499 C   0  0  0  0  0  0  0  0  0  0  0  0
  -36.6278  -69.4098   51.5820 C   0  0  0  0  0  0  0  0  0  0  0  0
  9 10  1  0  0  0
 10 11  2  0  0  0
 10 15  1  0  0  0
 11 12  1  0  0  0
 12 13  2  0  0  0
 12 20  1  0  0  0
 13 14  1  0  0  0
 13 16  1  0  0  0
 14 15  2  0  0  0
 16 17  2  0  0  0
 16 18  1  0  0  0
 18 19  2  0  0  0
 19 20  1  0  0  0
 19  1  1  0  0  0
  1  2  2  0  0  0
  1  3  1  0  0  0
  3  4  1  0  0  0
  3  8  1  0  0  0
  4  5  1  0  0  0
  5  6  1  0  0  0
  6  7  1  0  0  0
  6 21  1  0  0  0
  7  8  1  0  0  0
 21 22  1  0  0  0
 22 23  2  0  0  0
 22 26  1  0  0  0
 23 24  1  0  0  0
 24 25  1  0  0  0
 25 26  2  0  0  0
 26 27  1  0  0  0
M  END
> <minimizedAffinity>
-9.04832

$$$$
473


 29 32  0  0  0  0  0  0  0  0999 V2000
  -36.2506  -67.4522   49.4597 C   0  0  0  0  0  0  0  0  0  0  0  0
  -34.9146  -66.8348   49.2961 C   0  0  0  0  0  0  0  0  0  0  0  0
  -33.8988  -67.4658   48.9039 O   0  0  0  0  0  0  0  0  0  0  0  0
  -34.7145  -65.4378   49.5884 N   0  0  0  0  0  0  0  0  0  0  0  0
  -33.4152  -64.8257   49.4303 C   0  0  0  0  0  0  0  0  0  0  0  0
  -33.4621  -63.4914   48.7640 C   0  0  0  0  0  0  0  0  0  0  0  0
  -34.7899  -63.0496   48.4094 N   0  0  0  0  0  0  0  0  0  0  0  0
  -35.9893  -63.4195   49.1120 C   0  0  0  0  0  0  0  0  0  0  0  0
  -35.7931  -64.5849   50.0507 C   0  0  0  0  0  0  0  0  0  0  0  0
  -34.9221  -62.1815   47.2793 C   0  0  0  0  0  0  0  0  0  0  0  0
  -35.9868  -61.3453   47.1434 N   0  0  0  0  0  0  0  0  0  0  0  0
  -36.1470  -60.5226   46.1081 C   0  0  0  0  0  0  0  0  0  0  0  0
  -35.1849  -60.5091   45.1093 C   0  0  0  0  0  0  0  0  0  0  0  0
  -34.1116  -61.3294   45.2136 N   0  0  0  0  0  0  0  0  0  0  0  0
  -33.9846  -62.1451   46.2726 C   0  0  0  0  0  0  0  0  0  0  0  0
  -36.3733  -68.3565   50.6534 C   0  0  0  0  0  0  0  0  0  0  0  0
  -37.6070  -69.1730   50.5418 C   0  0  0  0  0  0  0  0  0  0  0  0
  -43.7893  -66.0269   54.2729 Br  0  0  0  0  0  0  0  0  0  0  0  0
  -42.2394  -67.0757   53.9019 C   0  0  0  0  0  0  0  0  0  0  0  0
  -41.6442  -66.9732   52.6608 C   0  0  0  0  0  0  0  0  0  0  0  0
  -40.5187  -67.7103   52.3416 C   0  0  0  0  0  0  0  0  0  0  0  0
  -40.0102  -68.5555   53.3085 C   0  0  0  0  0  0  0  0  0  0  0  0
  -40.6135  -68.6499   54.5460 C   0  0  0  0  0  0  0  0  0  0  0  0
  -41.7365  -67.9168   54.8723 C   0  0  0  0  0  0  0  0  0  0  0  0
  -38.8456  -69.2078   52.7362 C   0  0  0  0  0  0  0  0  0  0  0  0
  -38.1317  -70.0568   53.3607 O   0  0  0  0  0  0  0  0  0  0  0  0
  -38.6761  -68.7306   51.4098 N   0  0  0  0  0  0  0  0  0  0  0  0
  -39.6933  -67.8022   51.1276 C   0  0  0  0  0  0  0  0  0  0  0  0
  -39.8859  -67.1589   50.0596 O   0  0  0  0  0  0  0  0  0  0  0  0
 18 19  1  0  0  0
 19 20  2  0  0  0
 19 24  1  0  0  0
 20 21  1  0  0  0
 21 22  2  0  0  0
 21 28  1  0  0  0
 22 23  1  0  0  0
 22 25  1  0  0  0
 23 24  2  0  0  0
 25 26  2  0  0  0
 25 27  1  0  0  0
 27 28  1  0  0  0
 27 17  1  0  0  0
 28 29  2  0  0  0
 17 16  1  0  0  0
 16  1  1  0  0  0
  1  2  1  0  0  0
  2  3  2  0  0  0
  2  4  1  0  0  0
  4  5  1  0  0  0
  4  9  1  0  0  0
  5  6  1  0  0  0
  6  7  1  0  0  0
  7  8  1  0  0  0
  7 10  1  0  0  0
  8  9  1  0  0  0
 10 11  2  0  0  0
 10 15  1  0  0  0
 11 12  1  0  0  0
 12 13  2  0  0  0
 13 14  1  0  0  0
 14 15  2  0  0  0
M  END
> <minimizedAffinity>
-8.68633

$$$$
483


 31 34  0  0  0  0  0  0  0  0999 V2000
  -39.6023  -63.5029   49.5712 N   0  0  0  0  0  0  0  0  0  0  0  0
  -39.6685  -62.4014   48.6828 C   0  0  0  0  0  0  0  0  0  0  0  0
  -40.6229  -61.5967   48.7797 O   0  0  0  0  0  0  0  0  0  0  0  0
  -38.8153  -64.1773   49.4861 H   0  0  0  0  0  0  0  0  0  0  0  0
  -36.8406  -68.0440   48.8619 Br  0  0  0  0  0  0  0  0  0  0  0  0
  -38.2799  -67.6468   50.0381 C   0  0  0  0  0  0  0  0  0  0  0  0
  -38.8745  -66.3799   50.0729 C   0  0  0  0  0  0  0  0  0  0  0  0
  -39.9187  -66.0865   50.9239 C   0  0  0  0  0  0  0  0  0  0  0  0
  -40.4003  -67.0836   51.7807 C   0  0  0  0  0  0  0  0  0  0  0  0
  -39.8035  -68.3349   51.7368 C   0  0  0  0  0  0  0  0  0  0  0  0
  -38.7628  -68.6083   50.8813 C   0  0  0  0  0  0  0  0  0  0  0  0
  -41.4721  -66.5840   52.5727 N   0  0  0  0  0  0  0  0  0  0  0  0
  -41.6651  -65.2289   52.1976 C   0  0  0  0  0  0  0  0  0  0  0  0
  -42.4977  -64.3826   52.6248 O   0  0  0  0  0  0  0  0  0  0  0  0
  -40.6906  -64.8721   51.1441 C   0  0  0  0  0  0  0  0  0  0  0  0
  -40.5637  -63.7309   50.5588 N   0  0  0  0  0  0  0  0  0  0  0  0
  -42.2648  -67.2540   53.5841 C   0  0  0  0  0  0  0  0  0  0  0  0
  -41.4026  -67.8776   54.5754 C   0  0  0  0  0  0  0  0  0  0  0  0
  -40.6978  -68.4082   55.3939 C   0  0  0  0  0  0  0  0  0  0  0  0
  -38.6390  -62.2110   47.6709 C   0  0  0  0  0  0  0  0  0  0  0  0
  -37.3206  -62.6184   48.1174 N   0  0  0  0  0  0  0  0  0  0  0  0
  -36.2779  -61.8387   48.3460 N   0  0  0  0  0  0  0  0  0  0  0  0
  -35.2420  -62.5596   48.7427 N   0  0  0  0  0  0  0  0  0  0  0  0
  -35.6212  -63.8486   48.7727 C   0  0  0  0  0  0  0  0  0  0  0  0
  -36.9029  -63.8479   48.3838 N   0  0  0  0  0  0  0  0  0  0  0  0
  -34.7732  -64.9726   49.1569 C   0  0  0  0  0  0  0  0  0  0  0  0
  -33.9554  -65.5719   48.2233 C   0  0  0  0  0  0  0  0  0  0  0  0
  -33.1422  -66.6477   48.5874 C   0  0  0  0  0  0  0  0  0  0  0  0
  -33.1291  -67.1400   49.8727 C   0  0  0  0  0  0  0  0  0  0  0  0
  -33.9489  -66.5394   50.8120 C   0  0  0  0  0  0  0  0  0  0  0  0
  -34.7540  -65.4709   50.4415 C   0  0  0  0  0  0  0  0  0  0  0  0
  5  6  1  0  0  0
  6  7  2  0  0  0
  6 11  1  0  0  0
  7  8  1  0  0  0
  8  9  2  0  0  0
  8 15  1  0  0  0
  9 10  1  0  0  0
  9 12  1  0  0  0
 10 11  2  0  0  0
 12 13  1  0  0  0
 12 17  1  0  0  0
 13 14  2  0  0  0
 13 15  1  0  0  0
 15 16  2  0  0  0
 16  1  1  0  0  0
  1  2  1  0  0  0
  2  3  2  0  0  0
  2 20  1  0  0  0
 20 21  1  0  0  0
 21 22  1  0  0  0
 21 25  1  0  0  0
 22 23  2  0  0  0
 23 24  1  0  0  0
 24 25  2  0  0  0
 24 26  1  0  0  0
 26 27  2  0  0  0
 26 31  1  0  0  0
 27 28  1  0  0  0
 28 29  2  0  0  0
 29 30  1  0  0  0
 30 31  2  0  0  0
 17 18  1  0  0  0
 18 19  3  0  0  0
  1  4  1  0  0  0
M  END
> <minimizedAffinity>
-8.69829

$$$$
484


 35 38  0  0  0  0  0  0  0  0999 V2000
  -41.8076  -66.6374   50.2225 Br  0  0  0  0  0  0  0  0  0  0  0  0
  -39.9326  -66.9341   50.0155 C   0  0  0  0  0  0  0  0  0  0  0  0
  -39.2424  -67.8572   50.8150 C   0  0  0  0  0  0  0  0  0  0  0  0
  -37.9060  -67.9930   50.5723 C   0  0  0  0  0  0  0  0  0  0  0  0
  -37.2172  -67.2852   49.6094 C   0  0  0  0  0  0  0  0  0  0  0  0
  -37.8960  -66.3762   48.8304 C   0  0  0  0  0  0  0  0  0  0  0  0
  -39.2725  -66.2124   49.0451 C   0  0  0  0  0  0  0  0  0  0  0  0
  -35.8383  -67.6309   49.5805 N   0  0  0  0  0  0  0  0  0  0  0  0
  -35.6536  -68.6296   50.6175 C   0  0  0  0  0  0  0  0  0  0  0  0
  -34.5724  -69.1916   50.8893 O   0  0  0  0  0  0  0  0  0  0  0  0
  -36.9490  -68.8278   51.2288 C   0  0  0  0  0  0  0  0  0  0  0  0
  -37.2378  -69.4906   52.2816 N   0  0  0  0  0  0  0  0  0  0  0  0
  -38.0451  -69.7695   53.0761 N   0  0  0  0  0  0  0  0  0  0  0  0
  -39.0170  -70.1274   54.0379 C   0  0  0  0  0  0  0  0  0  0  0  0
  -39.2809  -71.1740   54.5861 O   0  0  0  0  0  0  0  0  0  0  0  0
  -37.7345  -71.1217   53.0162 H   0  0  0  0  0  0  0  0  0  0  0  0
  -39.8690  -68.8853   54.3848 C   0  0  0  0  0  0  0  0  0  0  0  0
  -41.0613  -69.4386   54.9824 O   0  0  0  0  0  0  0  0  0  0  0  0
  -42.2474  -68.6923   54.7282 N   0  0  0  0  0  0  0  0  0  0  0  0
  -42.2115  -67.5726   54.1183 C   0  0  0  0  0  0  0  0  0  0  0  0
  -43.4271  -66.8268   53.8866 C   0  0  0  0  0  0  0  0  0  0  0  0
  -44.6790  -67.3439   53.8825 C   0  0  0  0  0  0  0  0  0  0  0  0
  -45.7316  -66.4501   53.5579 C   0  0  0  0  0  0  0  0  0  0  0  0
  -45.6224  -65.1547   53.2693 C   0  0  0  0  0  0  0  0  0  0  0  0
  -44.3533  -64.6850   53.2909 C   0  0  0  0  0  0  0  0  0  0  0  0
  -43.2320  -65.3727   53.5618 C   0  0  0  0  0  0  0  0  0  0  0  0
  -46.7535  -64.3861   52.9729 O   0  0  0  0  0  0  0  0  0  0  0  0
  -47.9648  -65.0072   52.5583 C   0  0  0  0  0  0  0  0  0  0  0  0
  -34.7448  -67.2099   48.7200 C   0  0  0  0  0  0  0  0  0  0  0  0
  -34.5980  -65.8386   48.7011 N   0  0  0  0  0  0  0  0  0  0  0  0
  -33.7583  -65.3684   49.7267 C   0  0  0  0  0  0  0  0  0  0  0  0
  -32.7901  -64.3267   49.1608 C   0  0  0  0  0  0  0  0  0  0  0  0
  -32.2171  -64.9924   48.0427 O   0  0  0  0  0  0  0  0  0  0  0  0
  -33.1435  -64.9995   46.9914 C   0  0  0  0  0  0  0  0  0  0  0  0
  -34.5554  -65.2133   47.4408 C   0  0  0  0  0  0  0  0  0  0  0  0
  1  2  1  0  0  0
  2  3  2  0  0  0
  2  7  1  0  0  0
  3  4  1  0  0  0
  4  5  2  0  0  0
  4 11  1  0  0  0
  5  6  1  0  0  0
  5  8  1  0  0  0
  6  7  2  0  0  0
  8  9  1  0  0  0
  8 29  1  0  0  0
  9 10  2  0  0  0
  9 11  1  0  0  0
 11 12  2  0  0  0
 12 13  1  0  0  0
 13 14  1  0  0  0
 14 15  2  0  0  0
 14 17  1  0  0  0
 17 18  1  0  0  0
 18 19  1  0  0  0
 19 20  2  0  0  0
 20 21  1  0  0  0
 21 22  2  0  0  0
 21 26  1  0  0  0
 22 23  1  0  0  0
 23 24  2  0  0  0
 24 25  1  0  0  0
 24 27  1  0  0  0
 25 26  2  0  0  0
 27 28  1  0  0  0
 29 30  1  0  0  0
 30 31  1  0  0  0
 30 35  1  0  0  0
 31 32  1  0  0  0
 32 33  1  0  0  0
 33 34  1  0  0  0
 34 35  1  0  0  0
 13 16  1  0  0  0
M  END
> <minimizedAffinity>
-8.28217

$$$$
485


 34 37  0  0  0  0  0  0  0  0999 V2000
  -38.9446  -70.4197   53.9197 Br  0  0  0  0  0  0  0  0  0  0  0  0
  -40.2876  -69.0467   53.8418 C   0  0  0  0  0  0  0  0  0  0  0  0
  -40.1773  -67.9818   52.9776 C   0  0  0  0  0  0  0  0  0  0  0  0
  -41.1214  -66.9648   52.8858 C   0  0  0  0  0  0  0  0  0  0  0  0
  -42.2432  -67.0299   53.7174 C   0  0  0  0  0  0  0  0  0  0  0  0
  -42.3544  -68.0980   54.5841 C   0  0  0  0  0  0  0  0  0  0  0  0
  -41.3964  -69.1052   54.6591 C   0  0  0  0  0  0  0  0  0  0  0  0
  -43.0970  -65.9023   53.4775 N   0  0  0  0  0  0  0  0  0  0  0  0
  -42.4707  -65.1253   52.4655 C   0  0  0  0  0  0  0  0  0  0  0  0
  -42.9202  -64.0593   51.9892 O   0  0  0  0  0  0  0  0  0  0  0  0
  -41.2304  -65.7669   52.0742 C   0  0  0  0  0  0  0  0  0  0  0  0
  -40.3899  -65.3641   51.1892 N   0  0  0  0  0  0  0  0  0  0  0  0
  -40.5632  -64.2006   50.4489 N   0  0  0  0  0  0  0  0  0  0  0  0
  -39.5984  -63.8298   49.4894 C   0  0  0  0  0  0  0  0  0  0  0  0
  -38.5564  -64.5418   49.2776 O   0  0  0  0  0  0  0  0  0  0  0  0
  -41.3962  -63.6168   50.6071 H   0  0  0  0  0  0  0  0  0  0  0  0
  -39.7042  -62.6064   48.6554 C   0  0  0  0  0  0  0  0  0  0  0  0
  -41.0435  -62.1142   48.6737 O   0  0  0  0  0  0  0  0  0  0  0  0
  -41.9060  -62.4226   47.6353 C   0  0  0  0  0  0  0  0  0  0  0  0
  -43.2123  -62.7745   47.9014 C   0  0  0  0  0  0  0  0  0  0  0  0
  -44.0733  -63.0831   46.8528 C   0  0  0  0  0  0  0  0  0  0  0  0
  -43.6292  -63.0410   45.5451 C   0  0  0  0  0  0  0  0  0  0  0  0
  -42.3347  -62.6915   45.2979 C   0  0  0  0  0  0  0  0  0  0  0  0
  -41.4784  -62.3845   46.3424 C   0  0  0  0  0  0  0  0  0  0  0  0
  -43.6843  -62.8263   49.1884 O   0  0  0  0  0  0  0  0  0  0  0  0
  -44.9409  -62.2864   49.5113 C   0  0  0  0  0  0  0  0  0  0  0  0
  -44.3532  -65.6506   54.1633 C   0  0  0  0  0  0  0  0  0  0  0  0
  -45.4967  -65.6186   53.3244 N   0  0  0  0  0  0  0  0  0  0  0  0
  -46.3910  -66.7183   53.4485 C   0  0  0  0  0  0  0  0  0  0  0  0
  -47.5485  -66.6318   52.4495 C   0  0  0  0  0  0  0  0  0  0  0  0
  -47.1950  -65.6243   51.4912 N   0  0  0  0  0  0  0  0  0  0  0  0
  -47.1353  -64.3110   52.0540 C   0  0  0  0  0  0  0  0  0  0  0  0
  -46.1332  -64.3397   53.1939 C   0  0  0  0  0  0  0  0  0  0  0  0
  -47.9239  -65.7120   50.2586 C   0  0  0  0  0  0  0  0  0  0  0  0
  1  2  1  0  0  0
  2  3  2  0  0  0
  2  7  1  0  0  0
  3  4  1  0  0  0
  4  5  2  0  0  0
  4 11  1  0  0  0
  5  6  1  0  0  0
  5  8  1  0  0  0
  6  7  2  0  0  0
  8  9  1  0  0  0
  8 27  1  0  0  0
  9 10  2  0  0  0
  9 11  1  0  0  0
 11 12  2  0  0  0
 12 13  1  0  0  0
 13 14  1  0  0  0
 14 15  2  0  0  0
 14 17  1  0  0  0
 17 18  1  0  0  0
 18 19  1  0  0  0
 19 20  2  0  0  0
 19 24  1  0  0  0
 20 21  1  0  0  0
 20 25  1  0  0  0
 21 22  2  0  0  0
 22 23  1  0  0  0
 23 24  2  0  0  0
 25 26  1  0  0  0
 27 28  1  0  0  0
 28 29  1  0  0  0
 28 33  1  0  0  0
 29 30  1  0  0  0
 30 31  1  0  0  0
 31 32  1  0  0  0
 31 34  1  0  0  0
 32 33  1  0  0  0
 13 16  1  0  0  0
M  END
> <minimizedAffinity>
-7.98929

$$$$
500


 32 35  0  0  0  0  0  0  0  0999 V2000
  -37.3415  -67.6215   49.7603 Br  0  0  0  0  0  0  0  0  0  0  0  0
  -35.8648  -66.5563   49.1344 C   0  0  0  0  0  0  0  0  0  0  0  0
  -35.2996  -66.7037   47.9011 C   0  0  0  0  0  0  0  0  0  0  0  0
  -34.2284  -65.9452   47.5048 C   0  0  0  0  0  0  0  0  0  0  0  0
  -33.7458  -65.0291   48.3960 C   0  0  0  0  0  0  0  0  0  0  0  0
  -34.3092  -64.8554   49.6667 C   0  0  0  0  0  0  0  0  0  0  0  0
  -35.3861  -65.6257   50.0550 C   0  0  0  0  0  0  0  0  0  0  0  0
  -32.6207  -64.3486   47.8751 N   0  0  0  0  0  0  0  0  0  0  0  0
  -32.3799  -64.8575   46.6009 C   0  0  0  0  0  0  0  0  0  0  0  0
  -31.4309  -64.4793   45.8651 O   0  0  0  0  0  0  0  0  0  0  0  0
  -33.4195  -65.9017   46.2738 C   0  0  0  0  0  0  0  0  0  0  0  0
  -34.0771  -65.4092   45.0734 C   0  0  0  0  0  0  0  0  0  0  0  0
  -33.9491  -66.0828   43.8972 C   0  0  0  0  0  0  0  0  0  0  0  0
  -34.6588  -65.3820   42.9689 N   0  0  0  0  0  0  0  0  0  0  0  0
  -35.1959  -64.3327   43.5355 N   0  0  0  0  0  0  0  0  0  0  0  0
  -34.8788  -64.2783   44.8498 C   0  0  0  0  0  0  0  0  0  0  0  0
  -33.1973  -67.2684   43.7732 O   0  0  0  0  0  0  0  0  0  0  0  0
  -32.5762  -67.7318   44.9167 C   0  0  0  0  0  0  0  0  0  0  0  0
  -32.6614  -67.1273   46.0681 C   0  0  0  0  0  0  0  0  0  0  0  0
  -31.8024  -68.9491   44.7920 N   0  0  0  0  0  0  0  0  0  0  0  0
  -31.8469  -63.2907   48.5562 C   0  0  0  0  0  0  0  0  0  0  0  0
  -35.8041  -63.5968   43.0723 H   0  0  0  0  0  0  0  0  0  0  0  0
  -31.9195  -69.6241   44.0166 H   0  0  0  0  0  0  0  0  0  0  0  0
  -31.0974  -69.1448   45.5205 H   0  0  0  0  0  0  0  0  0  0  0  0
  -31.9591  -67.6958   47.2226 C   0  0  0  0  0  0  0  0  0  0  0  0
  -31.4270  -68.1373   48.1361 N   0  0  0  0  0  0  0  0  0  0  0  0
  -35.3391  -63.2299   45.7954 C   0  0  0  0  0  0  0  0  0  0  0  0
  -36.8049  -63.2798   45.9880 C   0  0  0  0  0  0  0  0  0  0  0  0
  -37.6605  -62.8163   45.1915 O   0  0  0  0  0  0  0  0  0  0  0  0
  -37.2706  -63.8843   47.1345 O   0  0  0  0  0  0  0  0  0  0  0  0
  -37.5948  -63.2429   48.3392 C   0  0  0  0  0  0  0  0  0  0  0  0
  -38.6532  -64.0357   49.0694 C   0  0  0  0  0  0  0  0  0  0  0  0
  1  2  1  0  0  0
  2  3  2  0  0  0
  2  7  1  0  0  0
  3  4  1  0  0  0
  4  5  2  0  0  0
  4 11  1  0  0  0
  5  6  1  0  0  0
  5  8  1  0  0  0
  6  7  2  0  0  0
  8  9  1  0  0  0
  8 21  1  0  0  0
  9 10  2  0  0  0
  9 11  1  0  0  0
 11 12  1  0  0  0
 11 19  1  0  0  0
 12 13  1  0  0  0
 12 16  2  0  0  0
 13 14  2  0  0  0
 13 17  1  0  0  0
 14 15  1  0  0  0
 15 16  1  0  0  0
 16 27  1  0  0  0
 27 28  1  0  0  0
 28 29  2  0  0  0
 28 30  1  0  0  0
 30 31  1  0  0  0
 31 32  1  0  0  0
 17 18  1  0  0  0
 18 19  2  0  0  0
 18 20  1  0  0  0
 19 25  1  0  0  0
 25 26  3  0  0  0
 15 22  1  0  0  0
 20 23  1  0  0  0
 20 24  1  0  0  0
M  END
> <minimizedAffinity>
-5.33444

$$$$
502


 27 30  0  0  0  0  0  0  0  0999 V2000
  -32.8579  -64.5044   42.5016 Br  0  0  0  0  0  0  0  0  0  0  0  0
  -32.7978  -65.1502   44.3165 C   0  0  0  0  0  0  0  0  0  0  0  0
  -33.7138  -64.7328   45.2458 C   0  0  0  0  0  0  0  0  0  0  0  0
  -33.6513  -65.2094   46.5384 C   0  0  0  0  0  0  0  0  0  0  0  0
  -32.6547  -66.0973   46.8410 C   0  0  0  0  0  0  0  0  0  0  0  0
  -31.7132  -66.5260   45.8835 C   0  0  0  0  0  0  0  0  0  0  0  0
  -31.7905  -66.0427   44.6046 C   0  0  0  0  0  0  0  0  0  0  0  0
  -32.7208  -66.4961   48.2068 N   0  0  0  0  0  0  0  0  0  0  0  0
  -33.8045  -65.8335   48.7969 C   0  0  0  0  0  0  0  0  0  0  0  0
  -34.1607  -65.9515   50.0091 O   0  0  0  0  0  0  0  0  0  0  0  0
  -34.4637  -64.9684   47.7561 C   0  0  0  0  0  0  0  0  0  0  0  0
  -35.8320  -65.4588   47.6378 C   0  0  0  0  0  0  0  0  0  0  0  0
  -36.8939  -64.6732   47.9624 C   0  0  0  0  0  0  0  0  0  0  0  0
  -38.0146  -65.4216   47.7411 N   0  0  0  0  0  0  0  0  0  0  0  0
  -37.6837  -66.6174   47.3010 N   0  0  0  0  0  0  0  0  0  0  0  0
  -36.3566  -66.6859   47.2220 C   0  0  0  0  0  0  0  0  0  0  0  0
  -35.4925  -67.8250   46.7801 C   0  0  0  0  0  0  0  0  0  0  0  0
  -36.7520  -63.3601   48.4240 O   0  0  0  0  0  0  0  0  0  0  0  0
  -35.4453  -62.8961   48.5360 C   0  0  0  0  0  0  0  0  0  0  0  0
  -34.3858  -63.6028   48.2401 C   0  0  0  0  0  0  0  0  0  0  0  0
  -35.2345  -61.5366   49.0113 N   0  0  0  0  0  0  0  0  0  0  0  0
  -31.8178  -67.4350   48.8896 C   0  0  0  0  0  0  0  0  0  0  0  0
  -38.3158  -67.4181   47.0415 H   0  0  0  0  0  0  0  0  0  0  0  0
  -35.1556  -61.4453   50.0438 H   0  0  0  0  0  0  0  0  0  0  0  0
  -35.1684  -60.7297   48.3943 H   0  0  0  0  0  0  0  0  0  0  0  0
  -33.0782  -62.9481   48.4194 C   0  0  0  0  0  0  0  0  0  0  0  0
  -32.0364  -62.4446   48.5780 N   0  0  0  0  0  0  0  0  0  0  0  0
  1  2  1  0  0  0
  2  3  2  0  0  0
  2  7  1  0  0  0
  3  4  1  0  0  0
  4  5  2  0  0  0
  4 11  1  0  0  0
  5  6  1  0  0  0
  5  8  1  0  0  0
  6  7  2  0  0  0
  8  9  1  0  0  0
  8 22  1  0  0  0
  9 10  2  0  0  0
  9 11  1  0  0  0
 11 12  1  0  0  0
 11 20  1  0  0  0
 12 13  1  0  0  0
 12 16  2  0  0  0
 13 14  2  0  0  0
 13 18  1  0  0  0
 14 15  1  0  0  0
 15 16  1  0  0  0
 16 17  1  0  0  0
 18 19  1  0  0  0
 19 20  2  0  0  0
 19 21  1  0  0  0
 20 26  1  0  0  0
 26 27  3  0  0  0
 15 23  1  0  0  0
 21 24  1  0  0  0
 21 25  1  0  0  0
M  END
> <minimizedAffinity>
-5.75917

$$$$
504


 29 32  0  0  0  0  0  0  0  0999 V2000
  -35.2403  -63.1750   42.2399 Br  0  0  0  0  0  0  0  0  0  0  0  0
  -34.6344  -63.3709   44.0300 C   0  0  0  0  0  0  0  0  0  0  0  0
  -35.3517  -64.0358   44.9954 C   0  0  0  0  0  0  0  0  0  0  0  0
  -34.8376  -64.1359   46.2877 C   0  0  0  0  0  0  0  0  0  0  0  0
  -33.6469  -63.6057   46.6557 C   0  0  0  0  0  0  0  0  0  0  0  0
  -32.9175  -62.9302   45.6733 C   0  0  0  0  0  0  0  0  0  0  0  0
  -33.4096  -62.8212   44.3920 C   0  0  0  0  0  0  0  0  0  0  0  0
  -33.3532  -63.8454   48.0186 N   0  0  0  0  0  0  0  0  0  0  0  0
  -34.4272  -64.5773   48.5610 C   0  0  0  0  0  0  0  0  0  0  0  0
  -34.5273  -64.9780   49.7535 O   0  0  0  0  0  0  0  0  0  0  0  0
  -35.4351  -64.8054   47.4879 C   0  0  0  0  0  0  0  0  0  0  0  0
  -36.7204  -64.1495   47.8370 C   0  0  0  0  0  0  0  0  0  0  0  0
  -37.8403  -64.7772   47.8358 C   0  0  0  0  0  0  0  0  0  0  0  0
  -37.9517  -66.1864   47.4929 N   0  0  0  0  0  0  0  0  0  0  0  0
  -36.7359  -66.8223   47.1583 C   0  0  0  0  0  0  0  0  0  0  0  0
  -35.5871  -66.2041   47.1535 C   0  0  0  0  0  0  0  0  0  0  0  0
  -36.7863  -68.2325   46.8065 N   0  0  0  0  0  0  0  0  0  0  0  0
  -38.9244  -63.8260   48.2320 C   0  0  0  0  0  0  0  0  0  0  0  0
  -38.2918  -62.6197   48.4499 O   0  0  0  0  0  0  0  0  0  0  0  0
  -36.9513  -62.7221   48.2330 C   0  0  0  0  0  0  0  0  0  0  0  0
  -36.0394  -61.8464   48.3277 O   0  0  0  0  0  0  0  0  0  0  0  0
  -39.6570  -64.3539   49.4505 C   0  0  0  0  0  0  0  0  0  0  0  0
  -39.9152  -63.6400   47.0974 C   0  0  0  0  0  0  0  0  0  0  0  0
  -32.1604  -63.4243   48.7694 C   0  0  0  0  0  0  0  0  0  0  0  0
  -38.8798  -66.6429   47.5080 H   0  0  0  0  0  0  0  0  0  0  0  0
  -36.3637  -68.9007   47.4826 H   0  0  0  0  0  0  0  0  0  0  0  0
  -37.2179  -68.5539   45.9289 H   0  0  0  0  0  0  0  0  0  0  0  0
  -34.4160  -66.9916   46.7872 C   0  0  0  0  0  0  0  0  0  0  0  0
  -33.4896  -67.6304   46.5128 N   0  0  0  0  0  0  0  0  0  0  0  0
  1  2  1  0  0  0
  2  3  2  0  0  0
  2  7  1  0  0  0
  3  4  1  0  0  0
  4  5  2  0  0  0
  4 11  1  0  0  0
  5  6  1  0  0  0
  5  8  1  0  0  0
  6  7  2  0  0  0
  8  9  1  0  0  0
  8 24  1  0  0  0
  9 10  2  0  0  0
  9 11  1  0  0  0
 11 12  1  0  0  0
 11 16  1  0  0  0
 12 13  2  0  0  0
 12 20  1  0  0  0
 13 14  1  0  0  0
 13 18  1  0  0  0
 14 15  1  0  0  0
 15 16  2  0  0  0
 15 17  1  0  0  0
 16 28  1  0  0  0
 28 29  3  0  0  0
 18 19  1  0  0  0
 18 22  1  0  0  0
 18 23  1  0  0  0
 19 20  1  0  0  0
 20 21  2  0  0  0
 14 25  1  0  0  0
 17 26  1  0  0  0
 17 27  1  0  0  0
M  END
> <minimizedAffinity>
-5.86000

$$$$
505


 30 33  0  0  0  0  0  0  0  0999 V2000
  -47.1803  -64.8873   46.2272 Br  0  0  0  0  0  0  0  0  0  0  0  0
  -46.1828  -63.4436   46.9641 C   0  0  0  0  0  0  0  0  0  0  0  0
  -44.8124  -63.4153   46.8236 C   0  0  0  0  0  0  0  0  0  0  0  0
  -44.0567  -62.3657   47.3556 C   0  0  0  0  0  0  0  0  0  0  0  0
  -44.7210  -61.3804   48.0122 C   0  0  0  0  0  0  0  0  0  0  0  0
  -46.1238  -61.4110   48.1559 C   0  0  0  0  0  0  0  0  0  0  0  0
  -46.8599  -62.4468   47.6290 C   0  0  0  0  0  0  0  0  0  0  0  0
  -43.7805  -60.4183   48.4721 N   0  0  0  0  0  0  0  0  0  0  0  0
  -42.4820  -60.8056   48.0953 C   0  0  0  0  0  0  0  0  0  0  0  0
  -41.4038  -60.2032   48.3267 O   0  0  0  0  0  0  0  0  0  0  0  0
  -42.5886  -62.0938   47.3481 C   0  0  0  0  0  0  0  0  0  0  0  0
  -41.8486  -63.1601   48.0322 C   0  0  0  0  0  0  0  0  0  0  0  0
  -40.8945  -63.8861   47.3968 C   0  0  0  0  0  0  0  0  0  0  0  0
  -40.5900  -63.6287   46.0566 O   0  0  0  0  0  0  0  0  0  0  0  0
  -41.2571  -62.6354   45.3676 C   0  0  0  0  0  0  0  0  0  0  0  0
  -42.1744  -61.9260   45.9523 C   0  0  0  0  0  0  0  0  0  0  0  0
  -40.8906  -62.4286   43.9934 N   0  0  0  0  0  0  0  0  0  0  0  0
  -40.2158  -64.8930   48.0888 C   0  0  0  0  0  0  0  0  0  0  0  0
  -39.3396  -65.5532   47.4926 O   0  0  0  0  0  0  0  0  0  0  0  0
  -40.5260  -65.1339   49.4065 C   0  0  0  0  0  0  0  0  0  0  0  0
  -41.5047  -64.3653   50.0005 C   0  0  0  0  0  0  0  0  0  0  0  0
  -42.0977  -63.4496   49.3119 O   0  0  0  0  0  0  0  0  0  0  0  0
  -44.1681  -59.2115   49.2281 C   0  0  0  0  0  0  0  0  0  0  0  0
  -41.6281  -62.3852   43.2925 H   0  0  0  0  0  0  0  0  0  0  0  0
  -39.9021  -62.3327   43.7650 H   0  0  0  0  0  0  0  0  0  0  0  0
  -41.8637  -64.6115   51.4506 C   0  0  0  0  0  0  0  0  0  0  0  0
  -43.0005  -63.8691   51.7704 O   0  0  0  0  0  0  0  0  0  0  0  0
  -43.0383  -63.0582   51.1796 H   0  0  0  0  0  0  0  0  0  0  0  0
  -42.8321  -60.8902   45.1427 C   0  0  0  0  0  0  0  0  0  0  0  0
  -43.3361  -60.0815   44.5187 N   0  0  0  0  0  0  0  0  0  0  0  0
  1  2  1  0  0  0
  2  3  2  0  0  0
  2  7  1  0  0  0
  3  4  1  0  0  0
  4  5  2  0  0  0
  4 11  1  0  0  0
  5  6  1  0  0  0
  5  8  1  0  0  0
  6  7  2  0  0  0
  8  9  1  0  0  0
  8 23  1  0  0  0
  9 10  2  0  0  0
  9 11  1  0  0  0
 11 12  1  0  0  0
 11 16  1  0  0  0
 12 13  2  0  0  0
 12 22  1  0  0  0
 13 14  1  0  0  0
 13 18  1  0  0  0
 14 15  1  0  0  0
 15 16  2  0  0  0
 15 17  1  0  0  0
 16 29  1  0  0  0
 29 30  3  0  0  0
 18 19  2  0  0  0
 18 20  1  0  0  0
 20 21  2  0  0  0
 21 22  1  0  0  0
 21 26  1  0  0  0
 26 27  1  0  0  0
 17 24  1  0  0  0
 17 25  1  0  0  0
 27 28  1  0  0  0
M  END
> <minimizedAffinity>
-5.45500

$$$$
513


 33 36  0  0  0  0  0  0  0  0999 V2000
  -40.6533  -65.0099   50.5364 N   0  0  0  0  0  0  0  0  0  0  0  0
  -39.8983  -64.9591   49.3339 C   0  0  0  0  0  0  0  0  0  0  0  0
  -40.3919  -65.5003   48.3318 O   0  0  0  0  0  0  0  0  0  0  0  0
  -40.2303  -64.5665   51.3804 H   0  0  0  0  0  0  0  0  0  0  0  0
  -41.8942  -65.6112   50.6388 N   0  0  0  0  0  0  0  0  0  0  0  0
  -42.2564  -66.2013   49.8409 H   0  0  0  0  0  0  0  0  0  0  0  0
  -38.3207  -69.4983   52.0395 Br  0  0  0  0  0  0  0  0  0  0  0  0
  -39.7867  -68.7975   53.0517 C   0  0  0  0  0  0  0  0  0  0  0  0
  -40.5990  -67.7956   52.5215 C   0  0  0  0  0  0  0  0  0  0  0  0
  -41.6650  -67.2501   53.2032 C   0  0  0  0  0  0  0  0  0  0  0  0
  -41.9129  -67.7404   54.4635 C   0  0  0  0  0  0  0  0  0  0  0  0
  -41.1172  -68.7478   55.0283 C   0  0  0  0  0  0  0  0  0  0  0  0
  -40.0669  -69.2602   54.3116 C   0  0  0  0  0  0  0  0  0  0  0  0
  -43.0392  -67.0445   54.9791 N   0  0  0  0  0  0  0  0  0  0  0  0
  -43.5121  -66.1017   54.0347 C   0  0  0  0  0  0  0  0  0  0  0  0
  -44.4819  -65.3116   54.1335 O   0  0  0  0  0  0  0  0  0  0  0  0
  -42.6356  -66.2062   52.8569 C   0  0  0  0  0  0  0  0  0  0  0  0
  -42.7367  -65.4986   51.7527 C   0  0  0  0  0  0  0  0  0  0  0  0
  -43.4707  -67.1971   55.9207 H   0  0  0  0  0  0  0  0  0  0  0  0
  -38.5785  -64.2976   49.2321 C   0  0  0  0  0  0  0  0  0  0  0  0
  -37.5256  -65.1988   49.3047 N   0  0  0  0  0  0  0  0  0  0  0  0
  -36.2134  -65.0563   49.1251 C   0  0  0  0  0  0  0  0  0  0  0  0
  -35.6048  -66.2975   49.2552 C   0  0  0  0  0  0  0  0  0  0  0  0
  -36.5850  -67.1824   49.5176 N   0  0  0  0  0  0  0  0  0  0  0  0
  -37.7261  -66.5326   49.5484 C   0  0  0  0  0  0  0  0  0  0  0  0
  -34.2356  -66.4129   49.1209 C   0  0  0  0  0  0  0  0  0  0  0  0
  -33.7135  -67.5511   49.2414 O   0  0  0  0  0  0  0  0  0  0  0  0
  -33.5505  -65.3078   48.8685 N   0  0  0  0  0  0  0  0  0  0  0  0
  -34.1502  -64.1102   48.7470 C   0  0  0  0  0  0  0  0  0  0  0  0
  -33.4637  -63.0885   48.5089 O   0  0  0  0  0  0  0  0  0  0  0  0
  -35.4971  -63.9422   48.8705 N   0  0  0  0  0  0  0  0  0  0  0  0
  -36.1027  -62.6450   48.7714 C   0  0  0  0  0  0  0  0  0  0  0  0
  -32.0879  -65.3754   48.7133 C   0  0  0  0  0  0  0  0  0  0  0  0
  7  8  1  0  0  0
  8  9  2  0  0  0
  8 13  1  0  0  0
  9 10  1  0  0  0
 10 11  2  0  0  0
 10 17  1  0  0  0
 11 12  1  0  0  0
 11 14  1  0  0  0
 12 13  2  0  0  0
 14 15  1  0  0  0
 15 16  2  0  0  0
 15 17  1  0  0  0
 17 18  2  0  0  0
 18  5  1  0  0  0
  5  1  1  0  0  0
  1  2  1  0  0  0
  2  3  2  0  0  0
  2 20  1  0  0  0
 20 21  1  0  0  0
 21 22  1  0  0  0
 21 25  1  0  0  0
 22 23  2  0  0  0
 22 31  1  0  0  0
 23 24  1  0  0  0
 23 26  1  0  0  0
 24 25  2  0  0  0
 26 27  2  0  0  0
 26 28  1  0  0  0
 28 29  1  0  0  0
 28 33  1  0  0  0
 29 30  2  0  0  0
 29 31  1  0  0  0
 31 32  1  0  0  0
 14 19  1  0  0  0
  5  6  1  0  0  0
  1  4  1  0  0  0
M  END
> <minimizedAffinity>
-9.08810

$$$$
526


 31 34  0  0  0  0  0  0  0  0999 V2000
  -43.1703  -66.6462   53.9768 N   0  0  0  0  0  0  0  0  0  0  0  0
  -44.2811  -66.1655   53.2590 C   0  0  0  0  0  0  0  0  0  0  0  0
  -44.2108  -66.1454   51.9789 O   0  0  0  0  0  0  0  0  0  0  0  0
  -43.2079  -66.6574   55.0322 H   0  0  0  0  0  0  0  0  0  0  0  0
  -37.8856  -67.0850   49.1381 Br  0  0  0  0  0  0  0  0  0  0  0  0
  -38.5195  -67.9725   50.6913 C   0  0  0  0  0  0  0  0  0  0  0  0
  -39.6303  -67.5499   51.3643 C   0  0  0  0  0  0  0  0  0  0  0  0
  -40.0784  -68.2007   52.4932 C   0  0  0  0  0  0  0  0  0  0  0  0
  -39.4494  -69.2930   53.0008 C   0  0  0  0  0  0  0  0  0  0  0  0
  -38.3110  -69.7329   52.3176 C   0  0  0  0  0  0  0  0  0  0  0  0
  -37.8606  -69.0886   51.1931 C   0  0  0  0  0  0  0  0  0  0  0  0
  -40.0939  -69.7798   54.1581 N   0  0  0  0  0  0  0  0  0  0  0  0
  -41.2261  -68.9545   54.4436 C   0  0  0  0  0  0  0  0  0  0  0  0
  -42.0601  -69.0124   55.3495 O   0  0  0  0  0  0  0  0  0  0  0  0
  -41.2259  -67.9209   53.3656 C   0  0  0  0  0  0  0  0  0  0  0  0
  -42.0728  -67.0844   53.3255 N   0  0  0  0  0  0  0  0  0  0  0  0
  -39.8182  -70.6031   54.7452 H   0  0  0  0  0  0  0  0  0  0  0  0
  -45.5519  -65.6780   53.8033 C   0  0  0  0  0  0  0  0  0  0  0  0
  -46.4319  -66.6711   54.3511 N   0  0  0  0  0  0  0  0  0  0  0  0
  -47.5579  -67.1532   53.6262 C   0  0  0  0  0  0  0  0  0  0  0  0
  -47.7322  -66.6357   52.4549 O   0  0  0  0  0  0  0  0  0  0  0  0
  -46.2974  -67.0629   55.2957 H   0  0  0  0  0  0  0  0  0  0  0  0
  -48.4970  -68.1372   54.0700 C   0  0  0  0  0  0  0  0  0  0  0  0
  -49.0156  -69.1622   53.2929 C   0  0  0  0  0  0  0  0  0  0  0  0
  -49.8970  -70.0672   53.7777 C   0  0  0  0  0  0  0  0  0  0  0  0
  -50.3276  -70.0119   55.0882 C   0  0  0  0  0  0  0  0  0  0  0  0
  -49.8489  -69.0210   55.8860 C   0  0  0  0  0  0  0  0  0  0  0  0
  -48.9322  -68.0757   55.4021 C   0  0  0  0  0  0  0  0  0  0  0  0
  -51.2225  -71.0720   55.3078 O   0  0  0  0  0  0  0  0  0  0  0  0
  -50.7151  -72.0862   54.4074 C   0  0  0  0  0  0  0  0  0  0  0  0
  -50.5811  -71.2147   53.2285 O   0  0  0  0  0  0  0  0  0  0  0  0
  5  6  1  0  0  0
  6  7  2  0  0  0
  6 11  1  0  0  0
  7  8  1  0  0  0
  8  9  2  0  0  0
  8 15  1  0  0  0
  9 10  1  0  0  0
  9 12  1  0  0  0
 10 11  2  0  0  0
 12 13  1  0  0  0
 13 14  2  0  0  0
 13 15  1  0  0  0
 15 16  2  0  0  0
 16  1  1  0  0  0
  1  2  1  0  0  0
  2  3  2  0  0  0
  2 18  1  0  0  0
 18 19  1  0  0  0
 19 20  1  0  0  0
 20 21  2  0  0  0
 20 23  1  0  0  0
 23 24  2  0  0  0
 23 28  1  0  0  0
 24 25  1  0  0  0
 25 26  2  0  0  0
 25 31  1  0  0  0
 26 27  1  0  0  0
 26 29  1  0  0  0
 27 28  2  0  0  0
 29 30  1  0  0  0
 30 31  1  0  0  0
 12 17  1  0  0  0
  1  4  1  0  0  0
 19 22  1  0  0  0
M  END
> <minimizedAffinity>
-8.91450

$$$$
550


 30 35  0  0  0  0  0  0  0  0999 V2000
  -34.6896  -65.7893   49.1312 Br  0  0  0  0  0  0  0  0  0  0  0  0
  -36.5670  -66.0666   48.9406 C   0  0  0  0  0  0  0  0  0  0  0  0
  -37.3569  -66.5215   49.9899 C   0  0  0  0  0  0  0  0  0  0  0  0
  -38.7039  -66.7186   49.8462 C   0  0  0  0  0  0  0  0  0  0  0  0
  -39.2568  -66.4446   48.6042 C   0  0  0  0  0  0  0  0  0  0  0  0
  -38.4791  -65.9933   47.5586 C   0  0  0  0  0  0  0  0  0  0  0  0
  -37.1264  -65.7998   47.7148 C   0  0  0  0  0  0  0  0  0  0  0  0
  -40.6640  -66.6971   48.6253 N   0  0  0  0  0  0  0  0  0  0  0  0
  -41.0233  -67.1448   49.9149 C   0  0  0  0  0  0  0  0  0  0  0  0
  -42.1773  -67.4427   50.2549 O   0  0  0  0  0  0  0  0  0  0  0  0
  -39.7829  -67.1746   50.7189 C   0  0  0  0  0  0  0  0  0  0  0  0
  -39.6504  -68.5003   51.2440 N   0  0  0  0  0  0  0  0  0  0  0  0
  -40.6282  -68.5514   52.3292 C   0  0  0  0  0  0  0  0  0  0  0  0
  -40.6918  -67.1746   52.9037 C   0  0  0  0  0  0  0  0  0  0  0  0
  -39.8859  -66.3390   51.9705 C   0  0  0  0  0  0  0  0  0  0  0  0
  -40.6616  -65.1157   51.7937 C   0  0  0  0  0  0  0  0  0  0  0  0
  -40.2865  -64.0791   51.2012 O   0  0  0  0  0  0  0  0  0  0  0  0
  -41.9218  -65.2708   52.3970 N   0  0  0  0  0  0  0  0  0  0  0  0
  -42.0799  -66.6119   52.8855 C   0  0  0  0  0  0  0  0  0  0  0  0
  -43.1303  -67.2107   53.2270 O   0  0  0  0  0  0  0  0  0  0  0  0
  -40.0247  -69.4759   53.3763 C   0  0  0  0  0  0  0  0  0  0  0  0
  -38.7077  -69.9540   52.8013 C   0  0  0  0  0  0  0  0  0  0  0  0
  -38.3750  -68.7805   51.8699 C   0  0  0  0  0  0  0  0  0  0  0  0
  -41.3124  -66.5635   47.7944 H   0  0  0  0  0  0  0  0  0  0  0  0
  -42.9249  -64.2609   52.5234 C   0  0  0  0  0  0  0  0  0  0  0  0
  -43.9258  -64.2193   51.4269 C   0  0  0  0  0  0  0  0  0  0  0  0
  -43.9897  -62.9957   50.7702 O   0  0  0  0  0  0  0  0  0  0  0  0
  -45.1241  -63.1079   49.9777 C   0  0  0  0  0  0  0  0  0  0  0  0
  -46.1493  -63.8899   50.7374 C   0  0  0  0  0  0  0  0  0  0  0  0
  -45.3171  -64.5916   51.8103 C   0  0  0  0  0  0  0  0  0  0  0  0
  1  2  1  0  0  0
  2  3  2  0  0  0
  2  7  1  0  0  0
  3  4  1  0  0  0
  4  5  2  0  0  0
  4 11  1  0  0  0
  5  6  1  0  0  0
  5  8  1  0  0  0
  6  7  2  0  0  0
  8  9  1  0  0  0
  9 10  2  0  0  0
  9 11  1  0  0  0
 11 12  1  0  0  0
 11 15  1  0  0  0
 12 13  1  0  0  0
 12 23  1  0  0  0
 13 14  1  0  0  0
 13 21  1  0  0  0
 14 15  1  0  0  0
 14 19  1  0  0  0
 15 16  1  0  0  0
 16 17  2  0  0  0
 16 18  1  0  0  0
 18 19  1  0  0  0
 18 25  1  0  0  0
 19 20  2  0  0  0
 25 26  1  0  0  0
 26 27  1  0  0  0
 26 30  1  0  0  0
 27 28  1  0  0  0
 28 29  1  0  0  0
 29 30  1  0  0  0
 21 22  1  0  0  0
 22 23  1  0  0  0
  8 24  1  0  0  0
M  END
> <minimizedAffinity>
-8.35737

$$$$
556


 30 33  0  0  0  0  0  0  0  0999 V2000
  -40.5498  -64.4136   51.5662 Br  0  0  0  0  0  0  0  0  0  0  0  0
  -39.6563  -65.2878   50.1259 C   0  0  0  0  0  0  0  0  0  0  0  0
  -38.2852  -65.3449   50.1811 C   0  0  0  0  0  0  0  0  0  0  0  0
  -37.5845  -65.9766   49.1480 C   0  0  0  0  0  0  0  0  0  0  0  0
  -38.2750  -66.5181   48.1131 C   0  0  0  0  0  0  0  0  0  0  0  0
  -39.6802  -66.4708   48.0372 C   0  0  0  0  0  0  0  0  0  0  0  0
  -40.3419  -65.8439   49.0665 C   0  0  0  0  0  0  0  0  0  0  0  0
  -37.3925  -67.1019   47.1728 N   0  0  0  0  0  0  0  0  0  0  0  0
  -36.0915  -66.9141   47.6429 C   0  0  0  0  0  0  0  0  0  0  0  0
  -34.9950  -67.2916   47.0740 O   0  0  0  0  0  0  0  0  0  0  0  0
  -36.1600  -66.1886   48.9465 C   0  0  0  0  0  0  0  0  0  0  0  0
  -35.4812  -67.0233   49.9029 C   0  0  0  0  0  0  0  0  0  0  0  0
  -34.3168  -66.6468   50.4598 C   0  0  0  0  0  0  0  0  0  0  0  0
  -33.9404  -67.6530   51.3165 N   0  0  0  0  0  0  0  0  0  0  0  0
  -34.8514  -68.6012   51.2723 N   0  0  0  0  0  0  0  0  0  0  0  0
  -35.8309  -68.2855   50.4244 C   0  0  0  0  0  0  0  0  0  0  0  0
  -37.0496  -69.0717   50.0758 C   0  0  0  0  0  0  0  0  0  0  0  0
  -33.6744  -65.4308   50.1629 O   0  0  0  0  0  0  0  0  0  0  0  0
  -34.3138  -64.6105   49.2420 C   0  0  0  0  0  0  0  0  0  0  0  0
  -35.4382  -64.9224   48.6721 C   0  0  0  0  0  0  0  0  0  0  0  0
  -33.7158  -63.3442   48.8848 N   0  0  0  0  0  0  0  0  0  0  0  0
  -37.6360  -67.5977   46.2682 H   0  0  0  0  0  0  0  0  0  0  0  0
  -33.0744  -67.6608   51.9018 H   0  0  0  0  0  0  0  0  0  0  0  0
  -33.1848  -63.2917   48.0124 H   0  0  0  0  0  0  0  0  0  0  0  0
  -33.8375  -62.5423   49.5041 H   0  0  0  0  0  0  0  0  0  0  0  0
  -36.0416  -63.9691   47.6962 C   0  0  0  0  0  0  0  0  0  0  0  0
  -35.8798  -64.1980   46.4842 O   0  0  0  0  0  0  0  0  0  0  0  0
  -36.7599  -62.8667   48.0713 O   0  0  0  0  0  0  0  0  0  0  0  0
  -37.7292  -62.2298   47.2739 C   0  0  0  0  0  0  0  0  0  0  0  0
  -39.0777  -62.3918   47.9834 C   0  0  0  0  0  0  0  0  0  0  0  0
  1  2  1  0  0  0
  2  3  2  0  0  0
  2  7  1  0  0  0
  3  4  1  0  0  0
  4  5  2  0  0  0
  4 11  1  0  0  0
  5  6  1  0  0  0
  5  8  1  0  0  0
  6  7  2  0  0  0
  8  9  1  0  0  0
  9 10  2  0  0  0
  9 11  1  0  0  0
 11 12  1  0  0  0
 11 20  1  0  0  0
 12 13  2  0  0  0
 12 16  1  0  0  0
 13 14  1  0  0  0
 13 18  1  0  0  0
 14 15  1  0  0  0
 15 16  2  0  0  0
 16 17  1  0  0  0
 18 19  1  0  0  0
 19 20  2  0  0  0
 19 21  1  0  0  0
 20 26  1  0  0  0
 26 27  2  0  0  0
 26 28  1  0  0  0
 28 29  1  0  0  0
 29 30  1  0  0  0
  8 22  1  0  0  0
 14 23  1  0  0  0
 21 24  1  0  0  0
 21 25  1  0  0  0
M  END
> <minimizedAffinity>
-6.89546

$$$$
558


 29 32  0  0  0  0  0  0  0  0999 V2000
  -34.1137  -64.3544   41.9685 Br  0  0  0  0  0  0  0  0  0  0  0  0
  -34.6269  -63.3370   43.4878 C   0  0  0  0  0  0  0  0  0  0  0  0
  -34.5508  -63.8509   44.7863 C   0  0  0  0  0  0  0  0  0  0  0  0
  -34.9224  -63.1102   45.8768 C   0  0  0  0  0  0  0  0  0  0  0  0
  -35.3811  -61.8384   45.6959 C   0  0  0  0  0  0  0  0  0  0  0  0
  -35.4765  -61.2785   44.4143 C   0  0  0  0  0  0  0  0  0  0  0  0
  -35.0954  -62.0451   43.3393 C   0  0  0  0  0  0  0  0  0  0  0  0
  -35.7137  -61.2401   46.9371 N   0  0  0  0  0  0  0  0  0  0  0  0
  -35.4501  -62.1855   47.9437 C   0  0  0  0  0  0  0  0  0  0  0  0
  -35.6078  -62.0581   49.1865 O   0  0  0  0  0  0  0  0  0  0  0  0
  -34.9337  -63.4222   47.3173 C   0  0  0  0  0  0  0  0  0  0  0  0
  -35.8684  -64.5572   47.6087 C   0  0  0  0  0  0  0  0  0  0  0  0
  -35.5368  -65.6847   48.1807 C   0  0  0  0  0  0  0  0  0  0  0  0
  -34.1873  -65.8687   48.5643 N   0  0  0  0  0  0  0  0  0  0  0  0
  -33.2294  -64.8487   48.3290 C   0  0  0  0  0  0  0  0  0  0  0  0
  -33.5587  -63.7174   47.7557 C   0  0  0  0  0  0  0  0  0  0  0  0
  -31.8488  -65.0605   48.7319 N   0  0  0  0  0  0  0  0  0  0  0  0
  -36.7480  -66.5346   48.2843 C   0  0  0  0  0  0  0  0  0  0  0  0
  -37.8110  -65.8075   47.7247 O   0  0  0  0  0  0  0  0  0  0  0  0
  -37.3091  -64.5923   47.3016 C   0  0  0  0  0  0  0  0  0  0  0  0
  -37.9936  -63.6691   46.7402 O   0  0  0  0  0  0  0  0  0  0  0  0
  -37.1182  -66.7761   49.7494 C   0  0  0  0  0  0  0  0  0  0  0  0
  -36.5455  -67.8657   47.5741 C   0  0  0  0  0  0  0  0  0  0  0  0
  -36.0931  -60.2497   47.0623 H   0  0  0  0  0  0  0  0  0  0  0  0
  -33.8622  -66.7559   49.0283 H   0  0  0  0  0  0  0  0  0  0  0  0
  -31.0493  -64.5679   48.3014 H   0  0  0  0  0  0  0  0  0  0  0  0
  -31.6692  -65.7397   49.4889 H   0  0  0  0  0  0  0  0  0  0  0  0
  -32.5087  -62.7152   47.5488 C   0  0  0  0  0  0  0  0  0  0  0  0
  -31.6696  -61.9385   47.3768 N   0  0  0  0  0  0  0  0  0  0  0  0
  1  2  1  0  0  0
  2  3  2  0  0  0
  2  7  1  0  0  0
  3  4  1  0  0  0
  4  5  2  0  0  0
  4 11  1  0  0  0
  5  6  1  0  0  0
  5  8  1  0  0  0
  6  7  2  0  0  0
  8  9  1  0  0  0
  9 10  2  0  0  0
  9 11  1  0  0  0
 11 12  1  0  0  0
 11 16  1  0  0  0
 12 13  2  0  0  0
 12 20  1  0  0  0
 13 14  1  0  0  0
 13 18  1  0  0  0
 14 15  1  0  0  0
 15 16  2  0  0  0
 15 17  1  0  0  0
 16 28  1  0  0  0
 28 29  3  0  0  0
 18 19  1  0  0  0
 18 22  1  0  0  0
 18 23  1  0  0  0
 19 20  1  0  0  0
 20 21  2  0  0  0
  8 24  1  0  0  0
 14 25  1  0  0  0
 17 26  1  0  0  0
 17 27  1  0  0  0
M  END
> <minimizedAffinity>
-5.85212

$$$$
559


 32 35  0  0  0  0  0  0  0  0999 V2000
  -41.5412  -67.5456   54.9341 Br  0  0  0  0  0  0  0  0  0  0  0  0
  -41.8315  -66.5498   53.3188 C   0  0  0  0  0  0  0  0  0  0  0  0
  -40.8168  -66.3346   52.4047 C   0  0  0  0  0  0  0  0  0  0  0  0
  -41.0156  -65.6198   51.2413 C   0  0  0  0  0  0  0  0  0  0  0  0
  -42.2873  -65.1264   51.0346 C   0  0  0  0  0  0  0  0  0  0  0  0
  -43.3109  -65.3405   51.9524 C   0  0  0  0  0  0  0  0  0  0  0  0
  -43.0881  -66.0498   53.0925 C   0  0  0  0  0  0  0  0  0  0  0  0
  -42.3078  -64.4103   49.7896 N   0  0  0  0  0  0  0  0  0  0  0  0
  -41.0171  -64.4576   49.2069 C   0  0  0  0  0  0  0  0  0  0  0  0
  -40.7165  -63.9141   48.1187 O   0  0  0  0  0  0  0  0  0  0  0  0
  -40.1441  -65.2420   50.1050 C   0  0  0  0  0  0  0  0  0  0  0  0
  -39.0012  -64.4732   50.5178 N   0  0  0  0  0  0  0  0  0  0  0  0
  -38.0887  -64.5780   49.3983 C   0  0  0  0  0  0  0  0  0  0  0  0
  -38.1845  -66.0260   48.9974 C   0  0  0  0  0  0  0  0  0  0  0  0
  -39.5995  -66.4080   49.3597 C   0  0  0  0  0  0  0  0  0  0  0  0
  -39.4812  -67.6554   50.1279 C   0  0  0  0  0  0  0  0  0  0  0  0
  -40.4228  -68.3883   50.5233 O   0  0  0  0  0  0  0  0  0  0  0  0
  -38.0866  -67.9424   50.3801 N   0  0  0  0  0  0  0  0  0  0  0  0
  -37.3089  -66.9084   49.7987 C   0  0  0  0  0  0  0  0  0  0  0  0
  -36.0710  -66.7858   49.9580 O   0  0  0  0  0  0  0  0  0  0  0  0
  -43.1628  -63.9445   49.4156 H   0  0  0  0  0  0  0  0  0  0  0  0
  -38.5680  -64.9290   51.3371 H   0  0  0  0  0  0  0  0  0  0  0  0
  -37.5553  -69.0761   51.0950 C   0  0  0  0  0  0  0  0  0  0  0  0
  -36.0656  -68.9605   51.3097 C   0  0  0  0  0  0  0  0  0  0  0  0
  -38.2631  -69.1825   52.4491 C   0  0  0  0  0  0  0  0  0  0  0  0
  -37.7986  -70.3580   50.3293 C   0  0  0  0  0  0  0  0  0  0  0  0
  -36.7042  -64.1539   49.8078 C   0  0  0  0  0  0  0  0  0  0  0  0
  -36.0336  -63.4191   48.7228 C   0  0  0  0  0  0  0  0  0  0  0  0
  -35.4833  -64.0757   47.7969 O   0  0  0  0  0  0  0  0  0  0  0  0
  -35.9564  -62.0060   48.6330 N   0  0  0  0  0  0  0  0  0  0  0  0
  -35.6913  -61.3734   49.4018 H   0  0  0  0  0  0  0  0  0  0  0  0
  -36.1914  -61.5755   47.7002 H   0  0  0  0  0  0  0  0  0  0  0  0
  1  2  1  0  0  0
  2  3  2  0  0  0
  2  7  1  0  0  0
  3  4  1  0  0  0
  4  5  2  0  0  0
  4 11  1  0  0  0
  5  6  1  0  0  0
  5  8  1  0  0  0
  6  7  2  0  0  0
  8  9  1  0  0  0
  9 10  2  0  0  0
  9 11  1  0  0  0
 11 12  1  0  0  0
 11 15  1  0  0  0
 12 13  1  0  0  0
 13 14  1  0  0  0
 13 27  1  0  0  0
 14 15  1  0  0  0
 14 19  1  0  0  0
 15 16  1  0  0  0
 16 17  2  0  0  0
 16 18  1  0  0  0
 18 19  1  0  0  0
 18 23  1  0  0  0
 19 20  2  0  0  0
 23 24  1  0  0  0
 23 25  1  0  0  0
 23 26  1  0  0  0
 27 28  1  0  0  0
 28 29  2  0  0  0
 28 30  1  0  0  0
  8 21  1  0  0  0
 12 22  1  0  0  0
 30 31  1  0  0  0
 30 32  1  0  0  0
M  END
> <minimizedAffinity>
-7.75196

$$$$
566


 30 33  0  0  0  0  0  0  0  0999 V2000
  -38.6330  -69.9397   52.9071 Br  0  0  0  0  0  0  0  0  0  0  0  0
  -39.2247  -68.6964   51.5861 C   0  0  0  0  0  0  0  0  0  0  0  0
  -38.3343  -68.1212   50.7152 C   0  0  0  0  0  0  0  0  0  0  0  0
  -38.7593  -67.2031   49.7379 C   0  0  0  0  0  0  0  0  0  0  0  0
  -40.0750  -66.8518   49.6216 C   0  0  0  0  0  0  0  0  0  0  0  0
  -40.9850  -67.4403   50.5116 C   0  0  0  0  0  0  0  0  0  0  0  0
  -40.5480  -68.3353   51.4601 C   0  0  0  0  0  0  0  0  0  0  0  0
  -40.2600  -65.9160   48.5690 N   0  0  0  0  0  0  0  0  0  0  0  0
  -38.9909  -65.6694   47.9970 C   0  0  0  0  0  0  0  0  0  0  0  0
  -38.8330  -64.8643   47.0202 O   0  0  0  0  0  0  0  0  0  0  0  0
  -38.0014  -66.4632   48.7050 C   0  0  0  0  0  0  0  0  0  0  0  0
  -37.2466  -67.3522   47.8432 N   0  0  0  0  0  0  0  0  0  0  0  0
  -36.0987  -66.5849   47.3952 C   0  0  0  0  0  0  0  0  0  0  0  0
  -35.6964  -65.8639   48.6495 C   0  0  0  0  0  0  0  0  0  0  0  0
  -36.9789  -65.5432   49.3386 C   0  0  0  0  0  0  0  0  0  0  0  0
  -37.2365  -64.1211   49.0630 C   0  0  0  0  0  0  0  0  0  0  0  0
  -38.3223  -63.4666   49.1952 O   0  0  0  0  0  0  0  0  0  0  0  0
  -36.0441  -63.5046   48.5935 N   0  0  0  0  0  0  0  0  0  0  0  0
  -35.1032  -64.5370   48.3775 C   0  0  0  0  0  0  0  0  0  0  0  0
  -33.9007  -64.3900   48.0014 O   0  0  0  0  0  0  0  0  0  0  0  0
  -41.1960  -65.5133   48.3073 H   0  0  0  0  0  0  0  0  0  0  0  0
  -37.8115  -67.7298   47.0613 H   0  0  0  0  0  0  0  0  0  0  0  0
  -35.0488  -67.5209   46.8850 C   0  0  0  0  0  0  0  0  0  0  0  0
  -33.9983  -67.5308   47.8111 O   0  0  0  0  0  0  0  0  0  0  0  0
  -34.4870  -67.0111   45.5807 C   0  0  0  0  0  0  0  0  0  0  0  0
  -33.1209  -67.4847   47.3515 H   0  0  0  0  0  0  0  0  0  0  0  0
  -35.8260  -62.0881   48.3756 C   0  0  0  0  0  0  0  0  0  0  0  0
  -35.4572  -61.7780   46.9610 C   0  0  0  0  0  0  0  0  0  0  0  0
  -36.6915  -62.0858   46.1040 C   0  0  0  0  0  0  0  0  0  0  0  0
  -36.3625  -63.1179   45.0608 C   0  0  0  0  0  0  0  0  0  0  0  0
  1  2  1  0  0  0
  2  3  2  0  0  0
  2  7  1  0  0  0
  3  4  1  0  0  0
  4  5  2  0  0  0
  4 11  1  0  0  0
  5  6  1  0  0  0
  5  8  1  0  0  0
  6  7  2  0  0  0
  8  9  1  0  0  0
  9 10  2  0  0  0
  9 11  1  0  0  0
 11 12  1  0  0  0
 11 15  1  0  0  0
 12 13  1  0  0  0
 13 14  1  0  0  0
 13 23  1  0  0  0
 14 15  1  0  0  0
 14 19  1  0  0  0
 15 16  1  0  0  0
 16 17  2  0  0  0
 16 18  1  0  0  0
 18 19  1  0  0  0
 18 27  1  0  0  0
 19 20  2  0  0  0
 27 28  1  0  0  0
 28 29  1  0  0  0
 29 30  1  0  0  0
 23 24  1  0  0  0
 23 25  1  0  0  0
  8 21  1  0  0  0
 12 22  1  0  0  0
 24 26  1  0  0  0
M  END
> <minimizedAffinity>
-6.92521

$$$$
571


 34 38  0  0  0  0  0  0  0  0999 V2000
  -32.7218  -67.5374   45.0194 Br  0  0  0  0  0  0  0  0  0  0  0  0
  -32.8587  -65.9303   46.0414 C   0  0  0  0  0  0  0  0  0  0  0  0
  -34.0391  -65.5154   46.6166 C   0  0  0  0  0  0  0  0  0  0  0  0
  -34.1358  -64.3300   47.3612 C   0  0  0  0  0  0  0  0  0  0  0  0
  -32.9934  -63.5809   47.5033 C   0  0  0  0  0  0  0  0  0  0  0  0
  -31.8001  -63.9931   46.9273 C   0  0  0  0  0  0  0  0  0  0  0  0
  -31.7176  -65.1584   46.1976 C   0  0  0  0  0  0  0  0  0  0  0  0
  -33.2444  -62.4134   48.2614 N   0  0  0  0  0  0  0  0  0  0  0  0
  -34.6095  -62.4235   48.6149 C   0  0  0  0  0  0  0  0  0  0  0  0
  -35.1416  -61.5039   49.2982 O   0  0  0  0  0  0  0  0  0  0  0  0
  -35.2262  -63.6444   48.0553 C   0  0  0  0  0  0  0  0  0  0  0  0
  -36.3016  -63.2930   47.1227 N   0  0  0  0  0  0  0  0  0  0  0  0
  -37.2810  -64.3495   47.2442 C   0  0  0  0  0  0  0  0  0  0  0  0
  -37.1491  -64.9477   48.5890 C   0  0  0  0  0  0  0  0  0  0  0  0
  -35.8700  -64.3759   49.1727 C   0  0  0  0  0  0  0  0  0  0  0  0
  -35.1587  -65.5126   49.7453 C   0  0  0  0  0  0  0  0  0  0  0  0
  -33.9957  -65.5037   50.2197 O   0  0  0  0  0  0  0  0  0  0  0  0
  -35.9878  -66.6935   49.6970 N   0  0  0  0  0  0  0  0  0  0  0  0
  -36.9253  -66.4061   48.6383 C   0  0  0  0  0  0  0  0  0  0  0  0
  -37.4458  -67.2593   47.9041 O   0  0  0  0  0  0  0  0  0  0  0  0
  -32.5352  -61.6716   48.5151 H   0  0  0  0  0  0  0  0  0  0  0  0
  -35.9466  -63.2128   46.1426 H   0  0  0  0  0  0  0  0  0  0  0  0
  -38.6628  -63.8186   46.9443 C   0  0  0  0  0  0  0  0  0  0  0  0
  -39.6003  -64.8185   47.1179 O   0  0  0  0  0  0  0  0  0  0  0  0
  -38.9869  -62.5777   47.7404 C   0  0  0  0  0  0  0  0  0  0  0  0
  -40.5156  -64.4965   47.0128 H   0  0  0  0  0  0  0  0  0  0  0  0
  -35.9409  -67.8668   50.5096 C   0  0  0  0  0  0  0  0  0  0  0  0
  -37.0062  -68.8922   50.2513 C   0  0  0  0  0  0  0  0  0  0  0  0
  -38.1322  -68.8725   51.2008 C   0  0  0  0  0  0  0  0  0  0  0  0
  -39.2463  -68.0910   50.9203 C   0  0  0  0  0  0  0  0  0  0  0  0
  -40.2991  -68.0844   51.7724 C   0  0  0  0  0  0  0  0  0  0  0  0
  -40.3227  -68.8247   52.9190 C   0  0  0  0  0  0  0  0  0  0  0  0
  -39.2063  -69.6015   53.1889 C   0  0  0  0  0  0  0  0  0  0  0  0
  -38.1324  -69.6242   52.3463 C   0  0  0  0  0  0  0  0  0  0  0  0
  1  2  1  0  0  0
  2  3  2  0  0  0
  2  7  1  0  0  0
  3  4  1  0  0  0
  4  5  2  0  0  0
  4 11  1  0  0  0
  5  6  1  0  0  0
  5  8  1  0  0  0
  6  7  2  0  0  0
  8  9  1  0  0  0
  9 10  2  0  0  0
  9 11  1  0  0  0
 11 12  1  0  0  0
 11 15  1  0  0  0
 12 13  1  0  0  0
 13 14  1  0  0  0
 13 23  1  0  0  0
 14 15  1  0  0  0
 14 19  1  0  0  0
 15 16  1  0  0  0
 16 17  2  0  0  0
 16 18  1  0  0  0
 18 19  1  0  0  0
 18 27  1  0  0  0
 19 20  2  0  0  0
 27 28  1  0  0  0
 28 29  1  0  0  0
 29 30  2  0  0  0
 29 34  1  0  0  0
 30 31  1  0  0  0
 31 32  2  0  0  0
 32 33  1  0  0  0
 33 34  2  0  0  0
 23 24  1  0  0  0
 23 25  1  0  0  0
  8 21  1  0  0  0
 12 22  1  0  0  0
 24 26  1  0  0  0
M  END
> <minimizedAffinity>
-8.55328

$$$$
578


 27 30  0  0  0  0  0  0  0  0999 V2000
  -37.6888  -69.4062   52.4349 Br  0  0  0  0  0  0  0  0  0  0  0  0
  -37.6439  -68.4646   50.7738 C   0  0  0  0  0  0  0  0  0  0  0  0
  -38.3937  -67.3372   50.5507 C   0  0  0  0  0  0  0  0  0  0  0  0
  -38.3863  -66.6190   49.3418 C   0  0  0  0  0  0  0  0  0  0  0  0
  -37.5775  -67.0929   48.3530 C   0  0  0  0  0  0  0  0  0  0  0  0
  -36.8019  -68.2487   48.5635 C   0  0  0  0  0  0  0  0  0  0  0  0
  -36.8318  -68.9292   49.7581 C   0  0  0  0  0  0  0  0  0  0  0  0
  -37.6592  -66.2704   47.1972 N   0  0  0  0  0  0  0  0  0  0  0  0
  -38.5660  -65.2320   47.4866 C   0  0  0  0  0  0  0  0  0  0  0  0
  -38.8914  -64.2788   46.6878 O   0  0  0  0  0  0  0  0  0  0  0  0
  -39.0665  -65.4361   48.8579 C   0  0  0  0  0  0  0  0  0  0  0  0
  -38.5902  -64.2423   49.5793 N   0  0  0  0  0  0  0  0  0  0  0  0
  -39.6790  -63.3247   49.7085 C   0  0  0  0  0  0  0  0  0  0  0  0
  -40.8885  -64.1848   49.7187 C   0  0  0  0  0  0  0  0  0  0  0  0
  -40.5478  -65.4309   48.9470 C   0  0  0  0  0  0  0  0  0  0  0  0
  -41.1955  -66.4845   49.6944 C   0  0  0  0  0  0  0  0  0  0  0  0
  -41.3967  -67.6600   49.2692 O   0  0  0  0  0  0  0  0  0  0  0  0
  -41.5664  -65.9879   50.9729 N   0  0  0  0  0  0  0  0  0  0  0  0
  -41.1132  -64.6504   51.1236 C   0  0  0  0  0  0  0  0  0  0  0  0
  -40.9618  -64.0627   52.2129 O   0  0  0  0  0  0  0  0  0  0  0  0
  -39.7249  -62.2447   48.6531 C   0  0  0  0  0  0  0  0  0  0  0  0
  -37.1425  -66.3969   46.2779 H   0  0  0  0  0  0  0  0  0  0  0  0
  -38.1862  -64.5042   50.5054 H   0  0  0  0  0  0  0  0  0  0  0  0
  -42.3031  -66.7840   51.9452 C   0  0  0  0  0  0  0  0  0  0  0  0
  -41.3889  -67.5630   52.8417 C   0  0  0  0  0  0  0  0  0  0  0  0
  -41.9439  -67.7620   54.2264 C   0  0  0  0  0  0  0  0  0  0  0  0
  -40.7687  -68.2046   55.1052 C   0  0  0  0  0  0  0  0  0  0  0  0
  1  2  1  0  0  0
  2  3  2  0  0  0
  2  7  1  0  0  0
  3  4  1  0  0  0
  4  5  2  0  0  0
  4 11  1  0  0  0
  5  6  1  0  0  0
  5  8  1  0  0  0
  6  7  2  0  0  0
  8  9  1  0  0  0
  9 10  2  0  0  0
  9 11  1  0  0  0
 11 12  1  0  0  0
 11 15  1  0  0  0
 12 13  1  0  0  0
 13 14  1  0  0  0
 13 21  1  0  0  0
 14 15  1  0  0  0
 14 19  1  0  0  0
 15 16  1  0  0  0
 16 17  2  0  0  0
 16 18  1  0  0  0
 18 19  1  0  0  0
 18 24  1  0  0  0
 19 20  2  0  0  0
 24 25  1  0  0  0
 25 26  1  0  0  0
 26 27  1  0  0  0
  8 22  1  0  0  0
 12 23  1  0  0  0
M  END
> <minimizedAffinity>
-7.35631

$$$$
579


 32 35  0  0  0  0  0  0  0  0999 V2000
  -40.6488  -67.4171   52.1350 Br  0  0  0  0  0  0  0  0  0  0  0  0
  -39.7235  -66.9572   50.5319 C   0  0  0  0  0  0  0  0  0  0  0  0
  -38.3685  -66.7146   50.4940 C   0  0  0  0  0  0  0  0  0  0  0  0
  -37.6976  -66.3794   49.3184 C   0  0  0  0  0  0  0  0  0  0  0  0
  -38.4067  -66.2833   48.1472 C   0  0  0  0  0  0  0  0  0  0  0  0
  -39.7717  -66.5213   48.1537 C   0  0  0  0  0  0  0  0  0  0  0  0
  -40.4202  -66.8568   49.3481 C   0  0  0  0  0  0  0  0  0  0  0  0
  -37.5316  -65.9370   47.0696 N   0  0  0  0  0  0  0  0  0  0  0  0
  -36.2185  -65.8103   47.5884 C   0  0  0  0  0  0  0  0  0  0  0  0
  -35.2296  -65.5251   46.8855 O   0  0  0  0  0  0  0  0  0  0  0  0
  -36.2702  -66.0687   49.0185 C   0  0  0  0  0  0  0  0  0  0  0  0
  -35.4253  -67.2337   49.2787 N   0  0  0  0  0  0  0  0  0  0  0  0
  -34.7680  -66.9655   50.5229 C   0  0  0  0  0  0  0  0  0  0  0  0
  -34.5005  -65.5055   50.4775 C   0  0  0  0  0  0  0  0  0  0  0  0
  -35.7804  -64.9540   49.8938 C   0  0  0  0  0  0  0  0  0  0  0  0
  -35.3766  -63.7354   49.2057 C   0  0  0  0  0  0  0  0  0  0  0  0
  -36.1359  -62.8093   48.8484 O   0  0  0  0  0  0  0  0  0  0  0  0
  -33.9684  -63.7902   49.0137 N   0  0  0  0  0  0  0  0  0  0  0  0
  -33.4949  -65.0785   49.4735 C   0  0  0  0  0  0  0  0  0  0  0  0
  -32.4557  -65.6034   49.0422 O   0  0  0  0  0  0  0  0  0  0  0  0
  -37.8425  -65.8039   46.0671 H   0  0  0  0  0  0  0  0  0  0  0  0
  -34.6886  -67.3213   48.5387 H   0  0  0  0  0  0  0  0  0  0  0  0
  -33.1854  -62.7251   48.4573 C   0  0  0  0  0  0  0  0  0  0  0  0
  -32.9249  -62.8211   46.9910 C   0  0  0  0  0  0  0  0  0  0  0  0
  -33.4095  -61.7384   46.2758 O   0  0  0  0  0  0  0  0  0  0  0  0
  -34.6665  -61.9994   45.7356 C   0  0  0  0  0  0  0  0  0  0  0  0
  -33.5786  -67.8275   50.7737 C   0  0  0  0  0  0  0  0  0  0  0  0
  -34.0024  -69.1030   51.3618 C   0  0  0  0  0  0  0  0  0  0  0  0
  -35.1881  -69.5058   51.1930 O   0  0  0  0  0  0  0  0  0  0  0  0
  -33.0932  -69.8966   52.1220 N   0  0  0  0  0  0  0  0  0  0  0  0
  -33.1928  -70.9318   52.1447 H   0  0  0  0  0  0  0  0  0  0  0  0
  -32.3290  -69.4317   52.6536 H   0  0  0  0  0  0  0  0  0  0  0  0
  1  2  1  0  0  0
  2  3  2  0  0  0
  2  7  1  0  0  0
  3  4  1  0  0  0
  4  5  2  0  0  0
  4 11  1  0  0  0
  5  6  1  0  0  0
  5  8  1  0  0  0
  6  7  2  0  0  0
  8  9  1  0  0  0
  9 10  2  0  0  0
  9 11  1  0  0  0
 11 12  1  0  0  0
 11 15  1  0  0  0
 12 13  1  0  0  0
 13 14  1  0  0  0
 13 27  1  0  0  0
 14 15  1  0  0  0
 14 19  1  0  0  0
 15 16  1  0  0  0
 16 17  2  0  0  0
 16 18  1  0  0  0
 18 19  1  0  0  0
 18 23  1  0  0  0
 19 20  2  0  0  0
 23 24  1  0  0  0
 24 25  1  0  0  0
 25 26  1  0  0  0
 27 28  1  0  0  0
 28 29  2  0  0  0
 28 30  1  0  0  0
  8 21  1  0  0  0
 12 22  1  0  0  0
 30 31  1  0  0  0
 30 32  1  0  0  0
M  END
> <minimizedAffinity>
-7.28267

$$$$
588


 24 27  0  0  0  0  0  0  0  0999 V2000
  -40.6747  -68.6396   54.9852 Br  0  0  0  0  0  0  0  0  0  0  0  0
  -40.2497  -68.0471   53.2248 C   0  0  0  0  0  0  0  0  0  0  0  0
  -39.2076  -68.6417   52.5748 C   0  0  0  0  0  0  0  0  0  0  0  0
  -38.8765  -68.2307   51.2948 C   0  0  0  0  0  0  0  0  0  0  0  0
  -39.5996  -67.2195   50.6740 C   0  0  0  0  0  0  0  0  0  0  0  0
  -40.6563  -66.6086   51.3181 C   0  0  0  0  0  0  0  0  0  0  0  0
  -40.9487  -67.0493   52.5892 C   0  0  0  0  0  0  0  0  0  0  0  0
  -39.3548  -66.7198   49.3747 N   0  0  0  0  0  0  0  0  0  0  0  0
  -40.3160  -66.0974   48.6821 N   0  0  0  0  0  0  0  0  0  0  0  0
  -39.7769  -65.7639   47.5409 N   0  0  0  0  0  0  0  0  0  0  0  0
  -38.5134  -66.1545   47.4945 N   0  0  0  0  0  0  0  0  0  0  0  0
  -38.2329  -66.7737   48.6777 C   0  0  0  0  0  0  0  0  0  0  0  0
  -36.8721  -67.3451   48.9669 C   0  0  0  0  0  0  0  0  0  0  0  0
  -36.9864  -68.6455   49.6222 N   0  0  0  0  0  0  0  0  0  0  0  0
  -37.7334  -68.9954   50.7814 C   0  0  0  0  0  0  0  0  0  0  0  0
  -37.3943  -70.0332   51.4158 O   0  0  0  0  0  0  0  0  0  0  0  0
  -36.2388  -66.4226   49.9732 C   0  0  0  0  0  0  0  0  0  0  0  0
  -34.7556  -66.5978   49.9551 C   0  0  0  0  0  0  0  0  0  0  0  0
  -34.3174  -66.2242   48.7122 O   0  0  0  0  0  0  0  0  0  0  0  0
  -34.7243  -67.0216   47.6769 C   0  0  0  0  0  0  0  0  0  0  0  0
  -36.1168  -67.4858   47.6966 C   0  0  0  0  0  0  0  0  0  0  0  0
  -34.1195  -65.6286   50.9596 C   0  0  0  0  0  0  0  0  0  0  0  0
  -34.3090  -67.9768   50.3608 C   0  0  0  0  0  0  0  0  0  0  0  0
  -36.4445  -69.4535   49.1892 H   0  0  0  0  0  0  0  0  0  0  0  0
  1  2  1  0  0  0
  2  3  2  0  0  0
  2  7  1  0  0  0
  3  4  1  0  0  0
  4  5  2  0  0  0
  4 15  1  0  0  0
  5  6  1  0  0  0
  5  8  1  0  0  0
  6  7  2  0  0  0
  8  9  1  0  0  0
  8 12  1  0  0  0
  9 10  2  0  0  0
 10 11  1  0  0  0
 11 12  2  0  0  0
 12 13  1  0  0  0
 13 14  1  0  0  0
 13 17  1  0  0  0
 13 21  1  0  0  0
 14 15  1  0  0  0
 15 16  2  0  0  0
 17 18  1  0  0  0
 18 19  1  0  0  0
 18 22  1  0  0  0
 18 23  1  0  0  0
 19 20  1  0  0  0
 20 21  1  0  0  0
 14 24  1  0  0  0
M  END
> <minimizedAffinity>
-8.64939

$$$$
591


 23 26  0  0  0  0  0  0  0  0999 V2000
  -36.8389  -67.9621   49.0171 Br  0  0  0  0  0  0  0  0  0  0  0  0
  -38.2070  -67.9815   50.3642 C   0  0  0  0  0  0  0  0  0  0  0  0
  -38.9931  -66.8691   50.5767 C   0  0  0  0  0  0  0  0  0  0  0  0
  -39.9749  -66.8885   51.5454 C   0  0  0  0  0  0  0  0  0  0  0  0
  -40.2216  -67.9928   52.3387 C   0  0  0  0  0  0  0  0  0  0  0  0
  -39.4177  -69.1071   52.1112 C   0  0  0  0  0  0  0  0  0  0  0  0
  -38.4349  -69.0957   51.1437 C   0  0  0  0  0  0  0  0  0  0  0  0
  -41.1731  -68.1770   53.3612 N   0  0  0  0  0  0  0  0  0  0  0  0
  -41.1378  -69.1841   54.2186 N   0  0  0  0  0  0  0  0  0  0  0  0
  -42.1714  -69.0544   55.0354 N   0  0  0  0  0  0  0  0  0  0  0  0
  -42.8437  -67.9814   54.6938 N   0  0  0  0  0  0  0  0  0  0  0  0
  -42.2387  -67.3951   53.6310 C   0  0  0  0  0  0  0  0  0  0  0  0
  -42.7866  -66.1718   53.0420 C   0  0  0  0  0  0  0  0  0  0  0  0
  -41.8621  -65.3000   52.4040 N   0  0  0  0  0  0  0  0  0  0  0  0
  -40.7140  -65.6278   51.6382 C   0  0  0  0  0  0  0  0  0  0  0  0
  -40.2053  -64.7385   50.9044 O   0  0  0  0  0  0  0  0  0  0  0  0
  -43.8737  -66.4856   52.0023 C   0  0  0  0  0  0  0  0  0  0  0  0
  -44.9112  -65.3924   52.0423 C   0  0  0  0  0  0  0  0  0  0  0  0
  -45.7463  -65.6287   53.1982 N   0  0  0  0  0  0  0  0  0  0  0  0
  -44.9077  -65.8684   54.3426 C   0  0  0  0  0  0  0  0  0  0  0  0
  -43.4888  -65.3931   54.1489 C   0  0  0  0  0  0  0  0  0  0  0  0
  -46.5975  -66.7797   52.9006 C   0  0  0  0  0  0  0  0  0  0  0  0
  -42.0580  -64.2841   52.5155 H   0  0  0  0  0  0  0  0  0  0  0  0
  1  2  1  0  0  0
  2  3  2  0  0  0
  2  7  1  0  0  0
  3  4  1  0  0  0
  4  5  2  0  0  0
  4 15  1  0  0  0
  5  6  1  0  0  0
  5  8  1  0  0  0
  6  7  2  0  0  0
  8  9  1  0  0  0
  8 12  1  0  0  0
  9 10  2  0  0  0
 10 11  1  0  0  0
 11 12  2  0  0  0
 12 13  1  0  0  0
 13 14  1  0  0  0
 13 17  1  0  0  0
 13 21  1  0  0  0
 14 15  1  0  0  0
 15 16  2  0  0  0
 17 18  1  0  0  0
 18 19  1  0  0  0
 19 20  1  0  0  0
 19 22  1  0  0  0
 20 21  1  0  0  0
 14 23  1  0  0  0
M  END
> <minimizedAffinity>
-9.05963

$$$$
592


 27 30  0  0  0  0  0  0  0  0999 V2000
  -38.7414  -70.1337   51.8338 Br  0  0  0  0  0  0  0  0  0  0  0  0
  -38.9671  -68.3344   51.2693 C   0  0  0  0  0  0  0  0  0  0  0  0
  -38.2742  -67.8916   50.1770 C   0  0  0  0  0  0  0  0  0  0  0  0
  -38.4406  -66.5661   49.7625 C   0  0  0  0  0  0  0  0  0  0  0  0
  -39.2843  -65.7636   50.4565 C   0  0  0  0  0  0  0  0  0  0  0  0
  -39.9973  -66.2240   51.5828 C   0  0  0  0  0  0  0  0  0  0  0  0
  -39.8304  -67.5263   51.9874 C   0  0  0  0  0  0  0  0  0  0  0  0
  -39.4838  -64.4458   50.0865 O   0  0  0  0  0  0  0  0  0  0  0  0
  -38.8044  -63.9586   48.9908 C   0  0  0  0  0  0  0  0  0  0  0  0
  -37.9737  -64.6745   48.2713 C   0  0  0  0  0  0  0  0  0  0  0  0
  -37.6998  -66.0705   48.5835 C   0  0  0  0  0  0  0  0  0  0  0  0
  -36.2502  -66.3621   48.6931 C   0  0  0  0  0  0  0  0  0  0  0  0
  -35.9089  -67.2466   47.7080 C   0  0  0  0  0  0  0  0  0  0  0  0
  -34.5733  -67.5124   47.8115 N   0  0  0  0  0  0  0  0  0  0  0  0
  -34.1290  -66.8033   48.8338 N   0  0  0  0  0  0  0  0  0  0  0  0
  -35.1117  -66.0901   49.3986 C   0  0  0  0  0  0  0  0  0  0  0  0
  -34.9273  -65.1883   50.5758 C   0  0  0  0  0  0  0  0  0  0  0  0
  -37.0287  -67.5887   46.9198 N   0  0  0  0  0  0  0  0  0  0  0  0
  -38.1338  -66.8882   47.4301 C   0  0  0  0  0  0  0  0  0  0  0  0
  -39.3187  -66.9227   47.0033 O   0  0  0  0  0  0  0  0  0  0  0  0
  -39.0219  -62.5876   48.6194 N   0  0  0  0  0  0  0  0  0  0  0  0
  -33.1158  -66.8332   49.1254 H   0  0  0  0  0  0  0  0  0  0  0  0
  -37.0126  -68.2658   46.0864 H   0  0  0  0  0  0  0  0  0  0  0  0
  -39.3329  -61.9026   49.3417 H   0  0  0  0  0  0  0  0  0  0  0  0
  -38.8800  -62.2434   47.6434 H   0  0  0  0  0  0  0  0  0  0  0  0
  -37.2988  -64.0920   47.1360 C   0  0  0  0  0  0  0  0  0  0  0  0
  -36.7654  -63.6071   46.2298 N   0  0  0  0  0  0  0  0  0  0  0  0
  1  2  1  0  0  0
  2  3  2  0  0  0
  2  7  1  0  0  0
  3  4  1  0  0  0
  4  5  2  0  0  0
  4 11  1  0  0  0
  5  6  1  0  0  0
  5  8  1  0  0  0
  6  7  2  0  0  0
  8  9  1  0  0  0
  9 10  2  0  0  0
  9 21  1  0  0  0
 10 11  1  0  0  0
 10 26  1  0  0  0
 11 12  1  0  0  0
 11 19  1  0  0  0
 12 13  1  0  0  0
 12 16  2  0  0  0
 13 14  2  0  0  0
 13 18  1  0  0  0
 14 15  1  0  0  0
 15 16  1  0  0  0
 16 17  1  0  0  0
 18 19  1  0  0  0
 19 20  2  0  0  0
 26 27  3  0  0  0
 15 22  1  0  0  0
 18 23  1  0  0  0
 21 24  1  0  0  0
 21 25  1  0  0  0
M  END
> <minimizedAffinity>
-6.83952

$$$$
596


 29 32  0  0  0  0  0  0  0  0999 V2000
  -39.1879  -65.3678   50.0941 C   0  0  0  0  0  0  0  0  0  0  0  0
  -40.1950  -64.5344   50.5537 C   0  0  0  0  0  0  0  0  0  0  0  0
  -41.1004  -64.9863   51.4902 C   0  0  0  0  0  0  0  0  0  0  0  0
  -41.9968  -64.1642   51.8609 O   0  0  0  0  0  0  0  0  0  0  0  0
  -41.0249  -66.1941   51.9584 O   0  0  0  0  0  0  0  0  0  0  0  0
  -40.1206  -67.0121   51.5778 C   0  0  0  0  0  0  0  0  0  0  0  0
  -39.1559  -66.6340   50.6243 C   0  0  0  0  0  0  0  0  0  0  0  0
  -38.1946  -67.5253   50.2461 C   0  0  0  0  0  0  0  0  0  0  0  0
  -38.2156  -68.7968   50.8295 C   0  0  0  0  0  0  0  0  0  0  0  0
  -39.1778  -69.1380   51.7591 C   0  0  0  0  0  0  0  0  0  0  0  0
  -40.1602  -68.2630   52.1653 C   0  0  0  0  0  0  0  0  0  0  0  0
  -39.1120  -70.4477   52.2820 O   0  0  0  0  0  0  0  0  0  0  0  0
  -32.1973  -62.7271   48.0320 Br  0  0  0  0  0  0  0  0  0  0  0  0
  -33.9522  -63.3200   47.6338 C   0  0  0  0  0  0  0  0  0  0  0  0
  -34.8297  -63.7024   48.6321 C   0  0  0  0  0  0  0  0  0  0  0  0
  -36.1221  -64.1303   48.3893 C   0  0  0  0  0  0  0  0  0  0  0  0
  -36.5461  -64.1718   47.0767 C   0  0  0  0  0  0  0  0  0  0  0  0
  -35.7112  -63.8013   46.0331 C   0  0  0  0  0  0  0  0  0  0  0  0
  -34.4323  -63.3830   46.3178 C   0  0  0  0  0  0  0  0  0  0  0  0
  -37.7888  -64.5814   46.8143 O   0  0  0  0  0  0  0  0  0  0  0  0
  -38.6195  -64.9426   47.7274 C   0  0  0  0  0  0  0  0  0  0  0  0
  -39.8045  -65.3315   47.4862 O   0  0  0  0  0  0  0  0  0  0  0  0
  -38.2569  -64.9250   49.0574 C   0  0  0  0  0  0  0  0  0  0  0  0
  -36.9855  -64.5121   49.3854 C   0  0  0  0  0  0  0  0  0  0  0  0
  -41.1860  -68.7239   53.0617 C   0  0  0  0  0  0  0  0  0  0  0  0
  -41.5487  -68.0681   54.2509 N   0  0  0  0  0  0  0  0  0  0  0  0
  -42.9506  -67.9125   54.5241 C   0  0  0  0  0  0  0  0  0  0  0  0
  -40.7909  -68.5703   55.4257 C   0  0  0  0  0  0  0  0  0  0  0  0
  -41.2067  -67.0671   54.1666 H   0  0  0  0  0  0  0  0  0  0  0  0
 13 14  1  0  0  0
 14 15  2  0  0  0
 14 19  1  0  0  0
 15 16  1  0  0  0
 16 17  2  0  0  0
 16 24  1  0  0  0
 17 18  1  0  0  0
 17 20  1  0  0  0
 18 19  2  0  0  0
 20 21  1  0  0  0
 21 22  2  0  0  0
 21 23  1  0  0  0
 23 24  2  0  0  0
 23  1  1  0  0  0
  1  2  2  0  0  0
  1  7  1  0  0  0
  2  3  1  0  0  0
  3  4  2  0  0  0
  3  5  1  0  0  0
  5  6  1  0  0  0
  6  7  2  0  0  0
  6 11  1  0  0  0
  7  8  1  0  0  0
  8  9  2  0  0  0
  9 10  1  0  0  0
 10 11  2  0  0  0
 10 12  1  0  0  0
 11 25  1  0  0  0
 25 26  1  0  0  0
 26 27  1  0  0  0
 26 28  1  0  0  0
 26 29  1  0  0  0
M  CHG 1  12  -1
M  CHG 1  26   1
M  END
> <minimizedAffinity>
-8.42890

$$$$
610


 32 35  0  0  0  0  0  0  0  0999 V2000
  -41.7201  -61.3000   47.0284 Br  0  0  0  0  0  0  0  0  0  0  0  0
  -39.9420  -61.8982   47.3770 C   0  0  0  0  0  0  0  0  0  0  0  0
  -39.7112  -63.0083   48.1847 C   0  0  0  0  0  0  0  0  0  0  0  0
  -38.4181  -63.4448   48.4383 C   0  0  0  0  0  0  0  0  0  0  0  0
  -37.3454  -62.7768   47.8882 C   0  0  0  0  0  0  0  0  0  0  0  0
  -36.0808  -63.2044   48.1317 N   0  0  0  0  0  0  0  0  0  0  0  0
  -35.8319  -64.2763   48.9050 C   0  0  0  0  0  0  0  0  0  0  0  0
  -36.8858  -64.9123   49.4306 N   0  0  0  0  0  0  0  0  0  0  0  0
  -38.1649  -64.5440   49.2325 C   0  0  0  0  0  0  0  0  0  0  0  0
  -37.6013  -61.6717   47.0868 C   0  0  0  0  0  0  0  0  0  0  0  0
  -38.8764  -61.2219   46.8217 C   0  0  0  0  0  0  0  0  0  0  0  0
  -34.4827  -64.6999   49.1375 N   0  0  0  0  0  0  0  0  0  0  0  0
  -34.0554  -65.5824   48.0861 C   0  0  0  0  0  0  0  0  0  0  0  0
  -34.6223  -66.9589   48.1675 C   0  0  0  0  0  0  0  0  0  0  0  0
  -35.2380  -67.2306   49.4474 N   0  0  0  0  0  0  0  0  0  0  0  0
  -34.5867  -66.6749   50.6134 C   0  0  0  0  0  0  0  0  0  0  0  0
  -34.2717  -65.2199   50.4533 C   0  0  0  0  0  0  0  0  0  0  0  0
  -36.4192  -68.0100   49.4825 C   0  0  0  0  0  0  0  0  0  0  0  0
  -36.9260  -68.4570   48.4302 O   0  0  0  0  0  0  0  0  0  0  0  0
  -33.9058  -63.8139   49.0191 H   0  0  0  0  0  0  0  0  0  0  0  0
  -37.0118  -68.2615   50.8282 C   0  0  0  0  0  0  0  0  0  0  0  0
  -38.0326  -69.3580   50.7838 C   0  0  0  0  0  0  0  0  0  0  0  0
  -38.6114  -69.6681   52.0999 C   0  0  0  0  0  0  0  0  0  0  0  0
  -37.8923  -69.8334   53.1071 O   0  0  0  0  0  0  0  0  0  0  0  0
  -39.9808  -69.7781   52.2275 O   0  0  0  0  0  0  0  0  0  0  0  0
  -39.2390  -65.3050   49.8499 C   0  0  0  0  0  0  0  0  0  0  0  0
  -39.8353  -66.3575   49.1690 C   0  0  0  0  0  0  0  0  0  0  0  0
  -40.8466  -67.1100   49.7267 C   0  0  0  0  0  0  0  0  0  0  0  0
  -41.3111  -66.8454   50.9984 C   0  0  0  0  0  0  0  0  0  0  0  0
  -40.7131  -65.7917   51.6788 C   0  0  0  0  0  0  0  0  0  0  0  0
  -39.7033  -65.0444   51.1137 C   0  0  0  0  0  0  0  0  0  0  0  0
  -39.2621  -66.7194   47.5391 Cl  0  0  0  0  0  0  0  0  0  0  0  0
  1  2  1  0  0  0
  2  3  2  0  0  0
  2 11  1  0  0  0
  3  4  1  0  0  0
  4  5  2  0  0  0
  4  9  1  0  0  0
  5  6  1  0  0  0
  5 10  1  0  0  0
  6  7  2  0  0  0
  7  8  1  0  0  0
  7 12  1  0  0  0
  8  9  2  0  0  0
  9 26  1  0  0  0
 26 27  2  0  0  0
 26 31  1  0  0  0
 27 28  1  0  0  0
 27 32  1  0  0  0
 28 29  2  0  0  0
 29 30  1  0  0  0
 30 31  2  0  0  0
 12 13  1  0  0  0
 12 17  1  0  0  0
 13 14  1  0  0  0
 14 15  1  0  0  0
 15 16  1  0  0  0
 15 18  1  0  0  0
 16 17  1  0  0  0
 18 19  2  0  0  0
 18 21  1  0  0  0
 21 22  1  0  0  0
 22 23  1  0  0  0
 23 24  2  0  0  0
 23 25  1  0  0  0
 10 11  2  0  0  0
 12 20  1  0  0  0
M  CHG 1  12   1
M  END
> <minimizedAffinity>
-7.11840

$$$$
611


 33 36  0  0  0  0  0  0  0  0999 V2000
  -38.8301  -69.8057   52.3726 Br  0  0  0  0  0  0  0  0  0  0  0  0
  -39.5585  -68.2098   51.6127 C   0  0  0  0  0  0  0  0  0  0  0  0
  -38.9232  -67.5271   50.5906 C   0  0  0  0  0  0  0  0  0  0  0  0
  -39.4219  -66.3752   50.0224 C   0  0  0  0  0  0  0  0  0  0  0  0
  -40.6179  -65.8504   50.4764 C   0  0  0  0  0  0  0  0  0  0  0  0
  -41.1224  -64.7133   49.9363 N   0  0  0  0  0  0  0  0  0  0  0  0
  -40.5009  -64.0472   48.9487 C   0  0  0  0  0  0  0  0  0  0  0  0
  -39.3378  -64.5572   48.5051 N   0  0  0  0  0  0  0  0  0  0  0  0
  -38.7919  -65.6883   49.0104 C   0  0  0  0  0  0  0  0  0  0  0  0
  -41.2585  -66.5236   51.4930 C   0  0  0  0  0  0  0  0  0  0  0  0
  -40.7502  -67.6848   52.0626 C   0  0  0  0  0  0  0  0  0  0  0  0
  -41.0608  -62.8568   48.4056 N   0  0  0  0  0  0  0  0  0  0  0  0
  -41.7293  -63.1233   47.1514 C   0  0  0  0  0  0  0  0  0  0  0  0
  -42.6608  -61.9898   46.8593 C   0  0  0  0  0  0  0  0  0  0  0  0
  -42.3131  -60.8727   47.7136 N   0  0  0  0  0  0  0  0  0  0  0  0
  -40.9033  -60.5520   47.8471 C   0  0  0  0  0  0  0  0  0  0  0  0
  -40.0954  -61.8137   48.1745 C   0  0  0  0  0  0  0  0  0  0  0  0
  -43.3387  -60.1643   48.3614 C   0  0  0  0  0  0  0  0  0  0  0  0
  -43.0116  -59.2025   49.0999 O   0  0  0  0  0  0  0  0  0  0  0  0
  -41.7532  -62.5008   49.0973 H   0  0  0  0  0  0  0  0  0  0  0  0
  -44.7534  -60.5087   48.2052 C   0  0  0  0  0  0  0  0  0  0  0  0
  -45.3081  -60.9952   49.5129 C   0  0  0  0  0  0  0  0  0  0  0  0
  -45.8345  -62.4110   49.4312 C   0  0  0  0  0  0  0  0  0  0  0  0
  -45.1604  -63.3348   50.3648 C   0  0  0  0  0  0  0  0  0  0  0  0
  -43.9332  -63.1665   50.5576 O   0  0  0  0  0  0  0  0  0  0  0  0
  -45.8819  -64.3405   50.9903 O   0  0  0  0  0  0  0  0  0  0  0  0
  -37.5291  -66.1947   48.4946 C   0  0  0  0  0  0  0  0  0  0  0  0
  -36.3134  -65.6337   48.8544 C   0  0  0  0  0  0  0  0  0  0  0  0
  -35.1077  -66.0935   48.3557 C   0  0  0  0  0  0  0  0  0  0  0  0
  -35.1478  -67.1662   47.4572 C   0  0  0  0  0  0  0  0  0  0  0  0
  -36.3400  -67.7470   47.0783 C   0  0  0  0  0  0  0  0  0  0  0  0
  -37.4998  -67.2619   47.5929 C   0  0  0  0  0  0  0  0  0  0  0  0
  -36.2920  -64.2885   49.9834 Cl  0  0  0  0  0  0  0  0  0  0  0  0
  1  2  1  0  0  0
  2  3  2  0  0  0
  2 11  1  0  0  0
  3  4  1  0  0  0
  4  5  2  0  0  0
  4  9  1  0  0  0
  5  6  1  0  0  0
  5 10  1  0  0  0
  6  7  2  0  0  0
  7  8  1  0  0  0
  7 12  1  0  0  0
  8  9  2  0  0  0
  9 27  1  0  0  0
 27 28  2  0  0  0
 27 32  1  0  0  0
 28 29  1  0  0  0
 28 33  1  0  0  0
 29 30  2  0  0  0
 30 31  1  0  0  0
 31 32  2  0  0  0
 12 13  1  0  0  0
 12 17  1  0  0  0
 13 14  1  0  0  0
 14 15  1  0  0  0
 15 16  1  0  0  0
 15 18  1  0  0  0
 16 17  1  0  0  0
 18 19  2  0  0  0
 18 21  1  0  0  0
 21 22  1  0  0  0
 22 23  1  0  0  0
 23 24  1  0  0  0
 24 25  2  0  0  0
 24 26  1  0  0  0
 10 11  2  0  0  0
 12 20  1  0  0  0
M  CHG 1  12   1
M  END
> <minimizedAffinity>
-7.27361

$$$$
616


 28 31  0  0  0  0  0  0  0  0999 V2000
  -38.2447  -68.6302   50.9575 C   0  0  0  0  0  0  0  0  0  0  0  0
  -37.6290  -69.7473   51.1485 O   0  0  0  0  0  0  0  0  0  0  0  0
  -37.7362  -67.8261   49.9371 N   0  0  0  0  0  0  0  0  0  0  0  0
  -38.2307  -66.5358   49.5391 C   0  0  0  0  0  0  0  0  0  0  0  0
  -37.3882  -65.9138   48.4178 C   0  0  0  0  0  0  0  0  0  0  0  0
  -35.9836  -66.0206   48.7812 N   0  0  0  0  0  0  0  0  0  0  0  0
  -35.4728  -67.2677   49.3523 C   0  0  0  0  0  0  0  0  0  0  0  0
  -36.5754  -68.3093   49.1425 C   0  0  0  0  0  0  0  0  0  0  0  0
  -35.0959  -64.9379   48.5971 C   0  0  0  0  0  0  0  0  0  0  0  0
  -35.5714  -63.8838   48.1112 O   0  0  0  0  0  0  0  0  0  0  0  0
  -44.9241  -65.7460   53.9491 Br  0  0  0  0  0  0  0  0  0  0  0  0
  -43.2931  -66.7287   53.7158 C   0  0  0  0  0  0  0  0  0  0  0  0
  -42.5292  -66.6063   52.5840 C   0  0  0  0  0  0  0  0  0  0  0  0
  -41.3424  -67.3263   52.4215 C   0  0  0  0  0  0  0  0  0  0  0  0
  -40.9231  -68.1760   53.4080 C   0  0  0  0  0  0  0  0  0  0  0  0
  -39.7481  -68.7538   53.0085 N   0  0  0  0  0  0  0  0  0  0  0  0
  -39.3819  -68.3173   51.8005 C   0  0  0  0  0  0  0  0  0  0  0  0
  -40.4039  -67.4063   51.4323 C   0  0  0  0  0  0  0  0  0  0  0  0
  -41.6872  -68.3049   54.5524 C   0  0  0  0  0  0  0  0  0  0  0  0
  -42.8643  -67.5862   54.7048 C   0  0  0  0  0  0  0  0  0  0  0  0
  -39.2582  -69.4285   53.6139 H   0  0  0  0  0  0  0  0  0  0  0  0
  -33.6990  -65.0872   48.9730 C   0  0  0  0  0  0  0  0  0  0  0  0
  -32.7566  -64.9831   47.8810 N   0  0  0  0  0  0  0  0  0  0  0  0
  -33.2583  -65.7590   46.7446 C   0  0  0  0  0  0  0  0  0  0  0  0
  -32.6428  -67.1146   46.7068 C   0  0  0  0  0  0  0  0  0  0  0  0
  -32.4390  -67.6000   47.9963 O   0  0  0  0  0  0  0  0  0  0  0  0
  -31.4272  -66.8927   48.6497 C   0  0  0  0  0  0  0  0  0  0  0  0
  -31.4245  -65.4383   48.2383 C   0  0  0  0  0  0  0  0  0  0  0  0
 11 12  1  0  0  0
 12 13  2  0  0  0
 12 20  1  0  0  0
 13 14  1  0  0  0
 14 15  2  0  0  0
 14 18  1  0  0  0
 15 16  1  0  0  0
 15 19  1  0  0  0
 16 17  1  0  0  0
 17 18  2  0  0  0
 17  1  1  0  0  0
  1  2  2  0  0  0
  1  3  1  0  0  0
  3  4  1  0  0  0
  3  8  1  0  0  0
  4  5  1  0  0  0
  5  6  1  0  0  0
  6  7  1  0  0  0
  6  9  1  0  0  0
  7  8  1  0  0  0
  9 10  2  0  0  0
  9 22  1  0  0  0
 22 23  1  0  0  0
 23 24  1  0  0  0
 23 28  1  0  0  0
 24 25  1  0  0  0
 25 26  1  0  0  0
 26 27  1  0  0  0
 27 28  1  0  0  0
 19 20  2  0  0  0
 16 21  1  0  0  0
M  END
> <minimizedAffinity>
-8.21874

$$$$
617


 25 28  0  0  0  0  0  0  0  0999 V2000
  -36.6628  -68.0880   49.1006 Br  0  0  0  0  0  0  0  0  0  0  0  0
  -37.8522  -68.4649   50.5364 C   0  0  0  0  0  0  0  0  0  0  0  0
  -38.9389  -67.6571   50.8005 C   0  0  0  0  0  0  0  0  0  0  0  0
  -39.8108  -67.9167   51.8382 C   0  0  0  0  0  0  0  0  0  0  0  0
  -39.5709  -69.0257   52.6274 C   0  0  0  0  0  0  0  0  0  0  0  0
  -40.5563  -69.0356   53.5429 N   0  0  0  0  0  0  0  0  0  0  0  0
  -41.3993  -67.9882   53.3630 C   0  0  0  0  0  0  0  0  0  0  0  0
  -40.9411  -67.2651   52.2824 C   0  0  0  0  0  0  0  0  0  0  0  0
  -41.6251  -66.1653   51.9100 N   0  0  0  0  0  0  0  0  0  0  0  0
  -42.7333  -65.7596   52.5586 C   0  0  0  0  0  0  0  0  0  0  0  0
  -43.2018  -66.4429   53.6113 N   0  0  0  0  0  0  0  0  0  0  0  0
  -42.5351  -67.5403   53.9988 C   0  0  0  0  0  0  0  0  0  0  0  0
  -42.9597  -68.1938   54.9844 O   0  0  0  0  0  0  0  0  0  0  0  0
  -38.4779  -69.8264   52.3523 C   0  0  0  0  0  0  0  0  0  0  0  0
  -37.6002  -69.5742   51.3172 C   0  0  0  0  0  0  0  0  0  0  0  0
  -40.6787  -69.7377   54.2959 H   0  0  0  0  0  0  0  0  0  0  0  0
  -44.4122  -66.0033   54.3266 C   0  0  0  0  0  0  0  0  0  0  0  0
  -45.4113  -65.4699   53.3737 C   0  0  0  0  0  0  0  0  0  0  0  0
  -46.3598  -66.3894   52.8595 N   0  0  0  0  0  0  0  0  0  0  0  0
  -47.5443  -65.8117   52.3257 C   0  0  0  0  0  0  0  0  0  0  0  0
  -48.6903  -65.7876   53.2963 C   0  0  0  0  0  0  0  0  0  0  0  0
  -48.7341  -66.9668   54.1341 N   0  0  0  0  0  0  0  0  0  0  0  0
  -47.9315  -68.0409   53.5734 C   0  0  0  0  0  0  0  0  0  0  0  0
  -46.4972  -67.5749   53.6273 C   0  0  0  0  0  0  0  0  0  0  0  0
  -48.4498  -66.7643   55.1197 H   0  0  0  0  0  0  0  0  0  0  0  0
  1  2  1  0  0  0
  2  3  2  0  0  0
  2 15  1  0  0  0
  3  4  1  0  0  0
  4  5  2  0  0  0
  4  8  1  0  0  0
  5  6  1  0  0  0
  5 14  1  0  0  0
  6  7  1  0  0  0
  7  8  2  0  0  0
  7 12  1  0  0  0
  8  9  1  0  0  0
  9 10  2  0  0  0
 10 11  1  0  0  0
 11 12  1  0  0  0
 11 17  1  0  0  0
 12 13  2  0  0  0
 17 18  1  0  0  0
 18 19  1  0  0  0
 19 20  1  0  0  0
 19 24  1  0  0  0
 20 21  1  0  0  0
 21 22  1  0  0  0
 22 23  1  0  0  0
 23 24  1  0  0  0
 14 15  2  0  0  0
  6 16  1  0  0  0
 22 25  1  0  0  0
M  END
> <minimizedAffinity>
-7.92582

$$$$
624


 22 25  0  0  0  0  0  0  0  0999 V2000
  -39.0052  -70.3365   54.1345 Br  0  0  0  0  0  0  0  0  0  0  0  0
  -38.9768  -69.2813   52.5492 C   0  0  0  0  0  0  0  0  0  0  0  0
  -40.1347  -68.6481   52.1492 C   0  0  0  0  0  0  0  0  0  0  0  0
  -40.1462  -67.8653   50.9877 C   0  0  0  0  0  0  0  0  0  0  0  0
  -38.9938  -67.7520   50.2792 C   0  0  0  0  0  0  0  0  0  0  0  0
  -37.8136  -68.3651   50.6388 C   0  0  0  0  0  0  0  0  0  0  0  0
  -37.8270  -69.1265   51.7787 C   0  0  0  0  0  0  0  0  0  0  0  0
  -36.7256  -68.1662   49.8314 C   0  0  0  0  0  0  0  0  0  0  0  0
  -35.6551  -68.7126   50.1446 O   0  0  0  0  0  0  0  0  0  0  0  0
  -36.7745  -67.3830   48.6879 C   0  0  0  0  0  0  0  0  0  0  0  0
  -37.9851  -66.7981   48.3844 C   0  0  0  0  0  0  0  0  0  0  0  0
  -39.0809  -66.9919   49.1863 N   0  0  0  0  0  0  0  0  0  0  0  0
  -40.4415  -66.5094   49.1059 C   0  0  0  0  0  0  0  0  0  0  0  0
  -41.1757  -67.0747   50.2913 C   0  0  0  0  0  0  0  0  0  0  0  0
  -35.6054  -67.1803   47.8389 C   0  0  0  0  0  0  0  0  0  0  0  0
  -35.3720  -67.9947   46.9167 O   0  0  0  0  0  0  0  0  0  0  0  0
  -34.7288  -66.0651   48.0509 N   0  0  0  0  0  0  0  0  0  0  0  0
  -33.5624  -65.8412   47.2240 C   0  0  0  0  0  0  0  0  0  0  0  0
  -32.3755  -65.7204   48.1884 C   0  0  0  0  0  0  0  0  0  0  0  0
  -32.6558  -64.7666   49.1370 O   0  0  0  0  0  0  0  0  0  0  0  0
  -33.7086  -65.0873   49.9679 C   0  0  0  0  0  0  0  0  0  0  0  0
  -34.9781  -65.1099   49.1121 C   0  0  0  0  0  0  0  0  0  0  0  0
  1  2  1  0  0  0
  2  3  2  0  0  0
  2  7  1  0  0  0
  3  4  1  0  0  0
  4  5  2  0  0  0
  4 14  1  0  0  0
  5  6  1  0  0  0
  5 12  1  0  0  0
  6  7  2  0  0  0
  6  8  1  0  0  0
  8  9  2  0  0  0
  8 10  1  0  0  0
 10 11  2  0  0  0
 10 15  1  0  0  0
 11 12  1  0  0  0
 12 13  1  0  0  0
 13 14  1  0  0  0
 15 16  2  0  0  0
 15 17  1  0  0  0
 17 18  1  0  0  0
 17 22  1  0  0  0
 18 19  1  0  0  0
 19 20  1  0  0  0
 20 21  1  0  0  0
 21 22  1  0  0  0
M  END
> <minimizedAffinity>
-8.37980

$$$$
625


 31 34  0  0  0  0  0  0  0  0999 V2000
  -34.5455  -69.7727   51.7686 Br  0  0  0  0  0  0  0  0  0  0  0  0
  -35.9003  -68.7200   50.9893 C   0  0  0  0  0  0  0  0  0  0  0  0
  -37.2391  -68.9602   51.2520 C   0  0  0  0  0  0  0  0  0  0  0  0
  -38.2397  -68.2235   50.6875 C   0  0  0  0  0  0  0  0  0  0  0  0
  -39.5930  -68.2773   50.8725 N   0  0  0  0  0  0  0  0  0  0  0  0
  -40.1334  -67.2850   50.1438 C   0  0  0  0  0  0  0  0  0  0  0  0
  -39.0984  -66.5996   49.4521 C   0  0  0  0  0  0  0  0  0  0  0  0
  -37.9373  -67.2201   49.8360 C   0  0  0  0  0  0  0  0  0  0  0  0
  -36.5940  -66.9563   49.5561 C   0  0  0  0  0  0  0  0  0  0  0  0
  -35.5664  -67.6951   50.1243 C   0  0  0  0  0  0  0  0  0  0  0  0
  -34.2052  -67.4486   49.8702 O   0  0  0  0  0  0  0  0  0  0  0  0
  -33.4963  -68.0329   50.3365 H   0  0  0  0  0  0  0  0  0  0  0  0
  -39.2322  -65.5802   48.4029 C   0  0  0  0  0  0  0  0  0  0  0  0
  -39.2387  -65.9800   47.2077 O   0  0  0  0  0  0  0  0  0  0  0  0
  -39.3629  -64.2473   48.6083 O   0  0  0  0  0  0  0  0  0  0  0  0
  -38.6212  -63.1674   48.1676 C   0  0  0  0  0  0  0  0  0  0  0  0
  -37.1301  -63.2570   48.4680 C   0  0  0  0  0  0  0  0  0  0  0  0
  -40.2314  -69.4529   51.4958 C   0  0  0  0  0  0  0  0  0  0  0  0
  -40.4533  -69.0562   52.9733 C   0  0  0  0  0  0  0  0  0  0  0  0
  -39.6138  -69.6496   53.8706 C   0  0  0  0  0  0  0  0  0  0  0  0
  -39.7476  -69.3284   55.2317 C   0  0  0  0  0  0  0  0  0  0  0  0
  -40.6762  -68.4438   55.6928 C   0  0  0  0  0  0  0  0  0  0  0  0
  -41.5081  -67.8603   54.7367 C   0  0  0  0  0  0  0  0  0  0  0  0
  -41.3888  -68.1753   53.3774 C   0  0  0  0  0  0  0  0  0  0  0  0
  -41.5246  -66.8412   50.0595 C   0  0  0  0  0  0  0  0  0  0  0  0
  -41.9453  -65.7269   50.8506 N   0  0  0  0  0  0  0  0  0  0  0  0
  -41.2376  -64.8946   51.6525 C   0  0  0  0  0  0  0  0  0  0  0  0
  -42.1539  -64.4838   52.8306 C   0  0  0  0  0  0  0  0  0  0  0  0
  -43.5217  -64.6541   52.1741 C   0  0  0  0  0  0  0  0  0  0  0  0
  -43.2663  -65.9712   51.4541 C   0  0  0  0  0  0  0  0  0  0  0  0
  -42.3377  -65.0392   49.9757 H   0  0  0  0  0  0  0  0  0  0  0  0
  1  2  1  0  0  0
  2  3  2  0  0  0
  2 10  1  0  0  0
  3  4  1  0  0  0
  4  5  1  0  0  0
  4  8  2  0  0  0
  5  6  1  0  0  0
  5 18  1  0  0  0
  6  7  2  0  0  0
  6 25  1  0  0  0
  7  8  1  0  0  0
  7 13  1  0  0  0
  8  9  1  0  0  0
  9 10  2  0  0  0
 10 11  1  0  0  0
 13 14  2  0  0  0
 13 15  1  0  0  0
 15 16  1  0  0  0
 16 17  1  0  0  0
 25 26  1  0  0  0
 26 27  1  0  0  0
 26 30  1  0  0  0
 27 28  1  0  0  0
 28 29  1  0  0  0
 29 30  1  0  0  0
 18 19  1  0  0  0
 19 20  2  0  0  0
 19 24  1  0  0  0
 20 21  1  0  0  0
 21 22  2  0  0  0
 22 23  1  0  0  0
 23 24  2  0  0  0
 11 12  1  0  0  0
 26 31  1  0  0  0
M  CHG 1  26   1
M  END
> <minimizedAffinity>
-7.69473

$$$$
626


 32 35  0  0  0  0  0  0  0  0999 V2000
  -36.1124  -66.7136   50.2096 N   0  0  0  0  0  0  0  0  0  0  0  0
  -36.4209  -67.9696   49.6714 C   0  0  0  0  0  0  0  0  0  0  0  0
  -36.2128  -68.2045   48.4539 O   0  0  0  0  0  0  0  0  0  0  0  0
  -36.3062  -66.6160   51.2529 H   0  0  0  0  0  0  0  0  0  0  0  0
  -38.2971  -64.8267   49.4129 Br  0  0  0  0  0  0  0  0  0  0  0  0
  -36.4195  -64.5980   49.0932 C   0  0  0  0  0  0  0  0  0  0  0  0
  -35.9901  -63.4666   48.4380 C   0  0  0  0  0  0  0  0  0  0  0  0
  -34.6545  -63.2729   48.1832 C   0  0  0  0  0  0  0  0  0  0  0  0
  -33.9115  -62.3198   47.5897 N   0  0  0  0  0  0  0  0  0  0  0  0
  -32.6075  -62.6526   47.6227 C   0  0  0  0  0  0  0  0  0  0  0  0
  -32.5626  -63.8391   48.2537 N   0  0  0  0  0  0  0  0  0  0  0  0
  -33.7978  -64.2474   48.6102 C   0  0  0  0  0  0  0  0  0  0  0  0
  -34.2302  -65.4017   49.2787 C   0  0  0  0  0  0  0  0  0  0  0  0
  -35.5681  -65.5982   49.5355 C   0  0  0  0  0  0  0  0  0  0  0  0
  -31.5329  -61.9044   47.1027 O   0  0  0  0  0  0  0  0  0  0  0  0
  -31.6811  -64.3898   48.4504 H   0  0  0  0  0  0  0  0  0  0  0  0
  -31.0801  -61.2684   47.7724 H   0  0  0  0  0  0  0  0  0  0  0  0
  -36.9889  -69.0762   50.4490 C   0  0  0  0  0  0  0  0  0  0  0  0
  -38.0034  -68.7832   51.3808 N   0  0  0  0  0  0  0  0  0  0  0  0
  -39.2353  -68.2749   50.8963 C   0  0  0  0  0  0  0  0  0  0  0  0
  -40.0431  -67.5774   51.9913 C   0  0  0  0  0  0  0  0  0  0  0  0
  -40.1874  -68.4718   53.0591 N   0  0  0  0  0  0  0  0  0  0  0  0
  -39.4948  -69.6998   53.0158 C   0  0  0  0  0  0  0  0  0  0  0  0
  -38.0876  -69.6590   52.5002 C   0  0  0  0  0  0  0  0  0  0  0  0
  -40.5947  -67.9344   54.2775 C   0  0  0  0  0  0  0  0  0  0  0  0
  -42.0188  -67.6735   54.4895 C   0  0  0  0  0  0  0  0  0  0  0  0
  -42.6590  -68.6045   55.1162 O   0  0  0  0  0  0  0  0  0  0  0  0
  -42.7547  -66.5586   54.1040 N   0  0  0  0  0  0  0  0  0  0  0  0
  -42.2943  -65.7706   53.6046 H   0  0  0  0  0  0  0  0  0  0  0  0
  -44.1816  -66.4079   54.3732 C   0  0  0  0  0  0  0  0  0  0  0  0
  -44.9928  -65.4322   53.6279 C   0  0  0  0  0  0  0  0  0  0  0  0
  -45.1500  -66.9103   53.3239 C   0  0  0  0  0  0  0  0  0  0  0  0
  5  6  1  0  0  0
  6  7  2  0  0  0
  6 14  1  0  0  0
  7  8  1  0  0  0
  8  9  1  0  0  0
  8 12  2  0  0  0
  9 10  2  0  0  0
 10 11  1  0  0  0
 10 15  1  0  0  0
 11 12  1  0  0  0
 12 13  1  0  0  0
 13 14  2  0  0  0
 14  1  1  0  0  0
  1  2  1  0  0  0
  2  3  2  0  0  0
  2 18  1  0  0  0
 18 19  1  0  0  0
 19 20  1  0  0  0
 19 24  1  0  0  0
 20 21  1  0  0  0
 21 22  1  0  0  0
 22 23  1  0  0  0
 22 25  1  0  0  0
 23 24  1  0  0  0
 25 26  1  0  0  0
 26 27  2  0  0  0
 26 28  1  0  0  0
 28 30  1  0  0  0
 30 31  1  0  0  0
 30 32  1  0  0  0
 31 32  1  0  0  0
 11 16  1  0  0  0
  1  4  1  0  0  0
 28 29  1  0  0  0
 15 17  1  0  0  0
M  END
> <minimizedAffinity>
-7.62352

$$$$
631


 29 32  0  0  0  0  0  0  0  0999 V2000
  -41.6127  -66.9166   53.1511 N   0  0  0  0  0  0  0  0  0  0  0  0
  -40.4660  -67.0877   52.2321 C   0  0  0  0  0  0  0  0  0  0  0  0
  -40.3893  -68.5965   52.0608 C   0  0  0  0  0  0  0  0  0  0  0  0
  -40.8467  -69.1098   53.4097 C   0  0  0  0  0  0  0  0  0  0  0  0
  -41.5477  -67.9893   54.0879 C   0  0  0  0  0  0  0  0  0  0  0  0
  -41.9944  -67.9699   55.2428 O   0  0  0  0  0  0  0  0  0  0  0  0
  -48.5608  -65.6016   53.1315 Br  0  0  0  0  0  0  0  0  0  0  0  0
  -46.6494  -65.7192   53.0955 C   0  0  0  0  0  0  0  0  0  0  0  0
  -45.8665  -64.5886   52.8707 C   0  0  0  0  0  0  0  0  0  0  0  0
  -44.5009  -64.7546   52.8586 C   0  0  0  0  0  0  0  0  0  0  0  0
  -43.4789  -63.9005   52.6739 N   0  0  0  0  0  0  0  0  0  0  0  0
  -42.3260  -64.5584   52.7555 N   0  0  0  0  0  0  0  0  0  0  0  0
  -42.5304  -65.8616   52.9959 C   0  0  0  0  0  0  0  0  0  0  0  0
  -43.9324  -65.9823   53.0613 C   0  0  0  0  0  0  0  0  0  0  0  0
  -44.6906  -67.0973   53.2835 C   0  0  0  0  0  0  0  0  0  0  0  0
  -46.0561  -66.9573   53.2990 C   0  0  0  0  0  0  0  0  0  0  0  0
  -41.4062  -64.0898   52.6422 H   0  0  0  0  0  0  0  0  0  0  0  0
  -38.9816  -68.8844   51.7427 C   0  0  0  0  0  0  0  0  0  0  0  0
  -38.2962  -69.6469   52.4628 O   0  0  0  0  0  0  0  0  0  0  0  0
  -38.4171  -68.2729   50.5906 N   0  0  0  0  0  0  0  0  0  0  0  0
  -39.0190  -67.6412   50.0271 H   0  0  0  0  0  0  0  0  0  0  0  0
  -37.0442  -68.5081   50.2009 C   0  0  0  0  0  0  0  0  0  0  0  0
  -36.3712  -67.2658   49.6568 C   0  0  0  0  0  0  0  0  0  0  0  0
  -35.9072  -67.4840   48.2728 C   0  0  0  0  0  0  0  0  0  0  0  0
  -34.6403  -67.2936   47.8708 N   0  0  0  0  0  0  0  0  0  0  0  0
  -34.5246  -67.5745   46.5724 C   0  0  0  0  0  0  0  0  0  0  0  0
  -35.7506  -67.9566   46.1232 N   0  0  0  0  0  0  0  0  0  0  0  0
  -36.5833  -67.8981   47.1669 C   0  0  0  0  0  0  0  0  0  0  0  0
  -35.9227  -68.2288   45.1288 H   0  0  0  0  0  0  0  0  0  0  0  0
  7  8  1  0  0  0
  8  9  2  0  0  0
  8 16  1  0  0  0
  9 10  1  0  0  0
 10 11  2  0  0  0
 10 14  1  0  0  0
 11 12  1  0  0  0
 12 13  1  0  0  0
 13 14  2  0  0  0
 13  1  1  0  0  0
 14 15  1  0  0  0
 15 16  2  0  0  0
  1  2  1  0  0  0
  1  5  1  0  0  0
  2  3  1  0  0  0
  3  4  1  0  0  0
  3 18  1  0  0  0
  4  5  1  0  0  0
  5  6  2  0  0  0
 18 19  2  0  0  0
 18 20  1  0  0  0
 20 22  1  0  0  0
 22 23  1  0  0  0
 23 24  1  0  0  0
 24 25  1  0  0  0
 24 28  2  0  0  0
 25 26  2  0  0  0
 26 27  1  0  0  0
 27 28  1  0  0  0
 12 17  1  0  0  0
 20 21  1  0  0  0
 27 29  1  0  0  0
M  END
> <minimizedAffinity>
-8.66753

$$$$
648


 32 35  0  0  0  0  0  0  0  0999 V2000
  -33.5781  -64.7799   48.2851 C   0  0  0  0  0  0  0  0  0  0  0  0
  -33.0402  -64.8985   49.4447 O   0  0  0  0  0  0  0  0  0  0  0  0
  -34.8145  -64.1949   48.2158 N   0  0  0  0  0  0  0  0  0  0  0  0
  -35.5786  -63.9895   47.0246 C   0  0  0  0  0  0  0  0  0  0  0  0
  -36.7357  -64.9339   47.0273 C   0  0  0  0  0  0  0  0  0  0  0  0
  -37.1302  -65.2916   48.3822 N   0  0  0  0  0  0  0  0  0  0  0  0
  -36.8216  -64.4977   49.5247 C   0  0  0  0  0  0  0  0  0  0  0  0
  -35.5147  -63.7170   49.4258 C   0  0  0  0  0  0  0  0  0  0  0  0
  -37.8082  -66.5546   48.4674 C   0  0  0  0  0  0  0  0  0  0  0  0
  -37.9004  -67.2434   47.3670 O   0  0  0  0  0  0  0  0  0  0  0  0
  -31.7183  -62.6596   46.4072 Br  0  0  0  0  0  0  0  0  0  0  0  0
  -31.9820  -64.5626   46.3108 C   0  0  0  0  0  0  0  0  0  0  0  0
  -31.4251  -65.4281   45.4091 C   0  0  0  0  0  0  0  0  0  0  0  0
  -31.8771  -66.6509   45.7059 N   0  0  0  0  0  0  0  0  0  0  0  0
  -32.6762  -66.5712   46.7365 N   0  0  0  0  0  0  0  0  0  0  0  0
  -32.7998  -65.2873   47.1839 C   0  0  0  0  0  0  0  0  0  0  0  0
  -31.4858  -67.8238   44.9338 C   0  0  0  0  0  0  0  0  0  0  0  0
  -31.7177  -69.1154   45.6713 C   0  0  0  0  0  0  0  0  0  0  0  0
  -38.3749  -67.0970   49.6528 C   0  0  0  0  0  0  0  0  0  0  0  0
  -37.7301  -68.0456   50.4362 N   0  0  0  0  0  0  0  0  0  0  0  0
  -38.4987  -68.4031   51.4124 N   0  0  0  0  0  0  0  0  0  0  0  0
  -39.6632  -67.7623   51.3715 C   0  0  0  0  0  0  0  0  0  0  0  0
  -39.5791  -66.9259   50.2400 C   0  0  0  0  0  0  0  0  0  0  0  0
  -36.4003  -68.5591   50.2073 C   0  0  0  0  0  0  0  0  0  0  0  0
  -40.7969  -67.8427   52.2748 C   0  0  0  0  0  0  0  0  0  0  0  0
  -41.1200  -69.0163   52.6788 O   0  0  0  0  0  0  0  0  0  0  0  0
  -41.5463  -66.7673   52.7256 N   0  0  0  0  0  0  0  0  0  0  0  0
  -42.6463  -67.0360   53.6574 C   0  0  0  0  0  0  0  0  0  0  0  0
  -43.8711  -66.3879   53.0466 C   0  0  0  0  0  0  0  0  0  0  0  0
  -43.6187  -65.0044   53.0865 O   0  0  0  0  0  0  0  0  0  0  0  0
  -42.6669  -64.6768   52.1613 C   0  0  0  0  0  0  0  0  0  0  0  0
  -41.3419  -65.4078   52.3337 C   0  0  0  0  0  0  0  0  0  0  0  0
 11 12  1  0  0  0
 12 13  2  0  0  0
 12 16  1  0  0  0
 13 14  1  0  0  0
 14 15  1  0  0  0
 14 17  1  0  0  0
 15 16  2  0  0  0
 16  1  1  0  0  0
  1  2  2  0  0  0
  1  3  1  0  0  0
  3  4  1  0  0  0
  3  8  1  0  0  0
  4  5  1  0  0  0
  5  6  1  0  0  0
  6  7  1  0  0  0
  6  9  1  0  0  0
  7  8  1  0  0  0
  9 10  2  0  0  0
  9 19  1  0  0  0
 19 20  1  0  0  0
 19 23  2  0  0  0
 20 21  1  0  0  0
 20 24  1  0  0  0
 21 22  2  0  0  0
 22 23  1  0  0  0
 22 25  1  0  0  0
 25 26  2  0  0  0
 25 27  1  0  0  0
 27 28  1  0  0  0
 27 32  1  0  0  0
 28 29  1  0  0  0
 29 30  1  0  0  0
 30 31  1  0  0  0
 31 32  1  0  0  0
 17 18  1  0  0  0
M  END
> <minimizedAffinity>
-7.28500

$$$$
653


 29 32  0  0  0  0  0  0  0  0999 V2000
  -41.0351  -66.3636   51.9024 C   0  0  0  0  0  0  0  0  0  0  0  0
  -41.5704  -67.1385   52.8995 C   0  0  0  0  0  0  0  0  0  0  0  0
  -41.0329  -68.3727   53.2162 C   0  0  0  0  0  0  0  0  0  0  0  0
  -39.9404  -68.8646   52.5372 C   0  0  0  0  0  0  0  0  0  0  0  0
  -39.3814  -68.0800   51.5102 C   0  0  0  0  0  0  0  0  0  0  0  0
  -39.9138  -66.8573   51.1976 C   0  0  0  0  0  0  0  0  0  0  0  0
  -39.3170  -66.0462   50.1338 C   0  0  0  0  0  0  0  0  0  0  0  0
  -38.4878  -66.7399   49.1278 C   0  0  0  0  0  0  0  0  0  0  0  0
  -37.7353  -67.8693   49.6594 N   0  0  0  0  0  0  0  0  0  0  0  0
  -38.2652  -68.6218   50.7422 C   0  0  0  0  0  0  0  0  0  0  0  0
  -37.7550  -69.7498   51.0169 O   0  0  0  0  0  0  0  0  0  0  0  0
  -36.4743  -68.1706   49.0216 C   0  0  0  0  0  0  0  0  0  0  0  0
  -41.7952  -68.8791   54.2506 O   0  0  0  0  0  0  0  0  0  0  0  0
  -42.6968  -67.9090   54.7204 C   0  0  0  0  0  0  0  0  0  0  0  0
  -42.6767  -66.8751   53.7399 O   0  0  0  0  0  0  0  0  0  0  0  0
  -39.3747  -70.0931   52.8273 O   0  0  0  0  0  0  0  0  0  0  0  0
  -38.8896  -70.3885   54.1204 C   0  0  0  0  0  0  0  0  0  0  0  0
  -41.6135  -65.0602   51.5117 C   0  0  0  0  0  0  0  0  0  0  0  0
  -44.0638  -64.3768   51.7821 C   0  0  0  0  0  0  0  0  0  0  0  0
  -43.8471  -63.4818   52.6611 O   0  0  0  0  0  0  0  0  0  0  0  0
  -43.0382  -65.1198   51.2391 N   0  0  0  0  0  0  0  0  0  0  0  0
  -43.2888  -65.8523   50.5022 H   0  0  0  0  0  0  0  0  0  0  0  0
  -45.4744  -64.5930   51.3616 C   0  0  0  0  0  0  0  0  0  0  0  0
  -48.7647  -67.1756   54.8336 Br  0  0  0  0  0  0  0  0  0  0  0  0
  -47.3261  -66.6921   53.6751 C   0  0  0  0  0  0  0  0  0  0  0  0
  -47.1881  -65.5360   52.9421 C   0  0  0  0  0  0  0  0  0  0  0  0
  -46.0394  -65.6029   52.2770 N   0  0  0  0  0  0  0  0  0  0  0  0
  -45.4686  -66.7659   52.5807 N   0  0  0  0  0  0  0  0  0  0  0  0
  -46.2191  -67.4740   53.4378 C   0  0  0  0  0  0  0  0  0  0  0  0
 24 25  1  0  0  0
 25 26  2  0  0  0
 25 29  1  0  0  0
 26 27  1  0  0  0
 27 28  1  0  0  0
 27 23  1  0  0  0
 28 29  2  0  0  0
 23 19  1  0  0  0
 19 20  2  0  0  0
 19 21  1  0  0  0
 21 18  1  0  0  0
 18  1  1  0  0  0
  1  2  2  0  0  0
  1  6  1  0  0  0
  2  3  1  0  0  0
  2 15  1  0  0  0
  3  4  2  0  0  0
  3 13  1  0  0  0
  4  5  1  0  0  0
  4 16  1  0  0  0
  5  6  2  0  0  0
  5 10  1  0  0  0
  6  7  1  0  0  0
  7  8  1  0  0  0
  8  9  1  0  0  0
  9 10  1  0  0  0
  9 12  1  0  0  0
 10 11  2  0  0  0
 16 17  1  0  0  0
 13 14  1  0  0  0
 14 15  1  0  0  0
 21 22  1  0  0  0
M  END
> <minimizedAffinity>
-8.23066

$$$$
662


 25 29  0  0  0  0  0  0  0  0999 V2000
  -39.5786  -68.1454   51.9383 C   0  0  0  0  0  0  0  0  0  0  0  0
  -39.9756  -69.0428   52.8545 N   0  0  0  0  0  0  0  0  0  0  0  0
  -41.0620  -68.6023   53.4889 N   0  0  0  0  0  0  0  0  0  0  0  0
  -41.3744  -67.3829   52.9638 C   0  0  0  0  0  0  0  0  0  0  0  0
  -40.4508  -67.1272   52.0172 N   0  0  0  0  0  0  0  0  0  0  0  0
  -42.4738  -66.7170   53.4628 C   0  0  0  0  0  0  0  0  0  0  0  0
  -43.2672  -67.2370   54.4700 C   0  0  0  0  0  0  0  0  0  0  0  0
  -44.2556  -66.3691   54.7450 N   0  0  0  0  0  0  0  0  0  0  0  0
  -44.0981  -65.3309   53.9396 N   0  0  0  0  0  0  0  0  0  0  0  0
  -43.0231  -65.5044   53.1426 C   0  0  0  0  0  0  0  0  0  0  0  0
  -42.9209  -68.4396   54.9559 N   0  0  0  0  0  0  0  0  0  0  0  0
  -41.8496  -69.0852   54.4667 C   0  0  0  0  0  0  0  0  0  0  0  0
  -45.0158  -66.4676   55.4513 H   0  0  0  0  0  0  0  0  0  0  0  0
  -37.0699  -68.0329   49.3333 N   0  0  0  0  0  0  0  0  0  0  0  0
  -38.2320  -67.6799   49.8545 N   0  0  0  0  0  0  0  0  0  0  0  0
  -38.4279  -68.2712   51.0453 C   0  0  0  0  0  0  0  0  0  0  0  0
  -37.3035  -69.0390   51.2629 C   0  0  0  0  0  0  0  0  0  0  0  0
  -36.4519  -68.8794   50.1744 C   0  0  0  0  0  0  0  0  0  0  0  0
  -36.5440  -67.5717   48.0458 C   0  0  0  0  0  0  0  0  0  0  0  0
  -32.8118  -63.7962   48.9774 Br  0  0  0  0  0  0  0  0  0  0  0  0
  -33.6838  -65.4244   48.5705 C   0  0  0  0  0  0  0  0  0  0  0  0
  -35.0461  -65.6413   48.5259 C   0  0  0  0  0  0  0  0  0  0  0  0
  -35.2563  -66.9275   48.2001 N   0  0  0  0  0  0  0  0  0  0  0  0
  -34.0836  -67.5147   48.0423 N   0  0  0  0  0  0  0  0  0  0  0  0
  -33.0875  -66.6260   48.2597 C   0  0  0  0  0  0  0  0  0  0  0  0
 20 21  1  0  0  0
 21 22  2  0  0  0
 21 25  1  0  0  0
 22 23  1  0  0  0
 23 24  1  0  0  0
 23 19  1  0  0  0
 24 25  2  0  0  0
 19 14  1  0  0  0
 14 15  1  0  0  0
 14 18  1  0  0  0
 15 16  2  0  0  0
 16 17  1  0  0  0
 16  1  1  0  0  0
 17 18  2  0  0  0
  1  2  2  0  0  0
  1  5  1  0  0  0
  2  3  1  0  0  0
  3  4  1  0  0  0
  3 12  1  0  0  0
  4  5  2  0  0  0
  4  6  1  0  0  0
  6  7  2  0  0  0
  6 10  1  0  0  0
  7  8  1  0  0  0
  7 11  1  0  0  0
  8  9  1  0  0  0
  9 10  2  0  0  0
 11 12  2  0  0  0
  8 13  1  0  0  0
M  END
> <minimizedAffinity>
-8.10330

$$$$
663


 28 31  0  0  0  0  0  0  0  0999 V2000
  -37.1024  -67.9149   49.5590 C   0  0  0  0  0  0  0  0  0  0  0  0
  -36.0960  -68.5911   50.0138 O   0  0  0  0  0  0  0  0  0  0  0  0
  -36.9307  -67.3535   48.3051 N   0  0  0  0  0  0  0  0  0  0  0  0
  -37.8244  -66.5982   47.4692 C   0  0  0  0  0  0  0  0  0  0  0  0
  -37.4562  -65.1360   47.6304 C   0  0  0  0  0  0  0  0  0  0  0  0
  -35.9534  -64.9798   47.7468 C   0  0  0  0  0  0  0  0  0  0  0  0
  -35.5898  -63.7864   47.0145 N   0  0  0  0  0  0  0  0  0  0  0  0
  -35.7552  -62.6750   47.8822 C   0  0  0  0  0  0  0  0  0  0  0  0
  -35.8882  -61.4474   47.5689 O   0  0  0  0  0  0  0  0  0  0  0  0
  -35.7444  -63.1946   49.2213 N   0  0  0  0  0  0  0  0  0  0  0  0
  -35.5715  -64.6247   49.1263 C   0  0  0  0  0  0  0  0  0  0  0  0
  -35.1743  -65.3491   50.0640 O   0  0  0  0  0  0  0  0  0  0  0  0
  -35.1886  -66.1334   47.1825 C   0  0  0  0  0  0  0  0  0  0  0  0
  -35.5768  -67.4841   47.6809 C   0  0  0  0  0  0  0  0  0  0  0  0
  -35.2627  -63.7085   46.0319 H   0  0  0  0  0  0  0  0  0  0  0  0
  -35.8399  -62.6832   50.1256 H   0  0  0  0  0  0  0  0  0  0  0  0
  -40.5760  -67.6379   52.0806 C   0  0  0  0  0  0  0  0  0  0  0  0
  -40.2269  -66.6578   51.1840 C   0  0  0  0  0  0  0  0  0  0  0  0
  -39.1095  -66.7586   50.3991 C   0  0  0  0  0  0  0  0  0  0  0  0
  -38.2382  -67.8661   50.4514 C   0  0  0  0  0  0  0  0  0  0  0  0
  -38.5995  -68.8409   51.3516 C   0  0  0  0  0  0  0  0  0  0  0  0
  -39.7474  -68.7249   52.1514 C   0  0  0  0  0  0  0  0  0  0  0  0
  -45.4025  -66.0127   53.9549 Br  0  0  0  0  0  0  0  0  0  0  0  0
  -43.7082  -66.8951   53.7142 C   0  0  0  0  0  0  0  0  0  0  0  0
  -42.8021  -66.7015   52.6947 C   0  0  0  0  0  0  0  0  0  0  0  0
  -41.7410  -67.5066   52.8818 N   0  0  0  0  0  0  0  0  0  0  0  0
  -41.9744  -68.1844   53.9856 N   0  0  0  0  0  0  0  0  0  0  0  0
  -43.1455  -67.8545   54.5264 C   0  0  0  0  0  0  0  0  0  0  0  0
 23 24  1  0  0  0
 24 25  2  0  0  0
 24 28  1  0  0  0
 25 26  1  0  0  0
 26 27  1  0  0  0
 26 17  1  0  0  0
 27 28  2  0  0  0
 17 18  2  0  0  0
 17 22  1  0  0  0
 18 19  1  0  0  0
 19 20  2  0  0  0
 20 21  1  0  0  0
 20  1  1  0  0  0
 21 22  2  0  0  0
  1  2  2  0  0  0
  1  3  1  0  0  0
  3  4  1  0  0  0
  3 14  1  0  0  0
  4  5  1  0  0  0
  5  6  1  0  0  0
  6  7  1  0  0  0
  6 11  1  0  0  0
  6 13  1  0  0  0
  7  8  1  0  0  0
  8  9  2  0  0  0
  8 10  1  0  0  0
 10 11  1  0  0  0
 11 12  2  0  0  0
 13 14  1  0  0  0
  7 15  1  0  0  0
 10 16  1  0  0  0
M  END
> <minimizedAffinity>
-8.31744

$$$$
666


 28 31  0  0  0  0  0  0  0  0999 V2000
  -44.4059  -64.2937   51.7725 C   0  0  0  0  0  0  0  0  0  0  0  0
  -45.3247  -65.1493   52.1108 C   0  0  0  0  0  0  0  0  0  0  0  0
  -44.6348  -66.2759   52.7417 C   0  0  0  0  0  0  0  0  0  0  0  0
  -45.2270  -67.3039   53.1962 O   0  0  0  0  0  0  0  0  0  0  0  0
  -43.2166  -66.0594   52.7733 N   0  0  0  0  0  0  0  0  0  0  0  0
  -43.0590  -64.7844   52.1520 C   0  0  0  0  0  0  0  0  0  0  0  0
  -41.9681  -64.1846   51.9615 O   0  0  0  0  0  0  0  0  0  0  0  0
  -42.2198  -66.9245   53.2933 C   0  0  0  0  0  0  0  0  0  0  0  0
  -42.2115  -67.3752   54.5885 C   0  0  0  0  0  0  0  0  0  0  0  0
  -41.2127  -68.2491   55.0665 C   0  0  0  0  0  0  0  0  0  0  0  0
  -40.2056  -68.6789   54.2328 C   0  0  0  0  0  0  0  0  0  0  0  0
  -40.2096  -68.2313   52.9365 C   0  0  0  0  0  0  0  0  0  0  0  0
  -41.2057  -67.3666   52.4805 C   0  0  0  0  0  0  0  0  0  0  0  0
  -46.7398  -65.0546   51.9357 N   0  0  0  0  0  0  0  0  0  0  0  0
  -47.4797  -64.3561   52.8159 C   0  0  0  0  0  0  0  0  0  0  0  0
  -48.8746  -64.2500   52.6777 C   0  0  0  0  0  0  0  0  0  0  0  0
  -49.5107  -64.8733   51.6205 C   0  0  0  0  0  0  0  0  0  0  0  0
  -48.7310  -65.5824   50.7321 C   0  0  0  0  0  0  0  0  0  0  0  0
  -47.3738  -65.6605   50.9024 C   0  0  0  0  0  0  0  0  0  0  0  0
  -44.5494  -63.0405   51.1315 N   0  0  0  0  0  0  0  0  0  0  0  0
  -44.6587  -62.1850   51.6753 H   0  0  0  0  0  0  0  0  0  0  0  0
  -44.4022  -62.8363   45.0132 Br  0  0  0  0  0  0  0  0  0  0  0  0
  -44.4539  -62.9130   46.9226 C   0  0  0  0  0  0  0  0  0  0  0  0
  -43.3142  -62.8910   47.6823 C   0  0  0  0  0  0  0  0  0  0  0  0
  -43.3759  -62.9382   49.0178 N   0  0  0  0  0  0  0  0  0  0  0  0
  -44.5398  -63.0100   49.7176 C   0  0  0  0  0  0  0  0  0  0  0  0
  -45.6989  -63.0343   48.9323 C   0  0  0  0  0  0  0  0  0  0  0  0
  -45.6682  -62.9858   47.5651 C   0  0  0  0  0  0  0  0  0  0  0  0
 22 23  1  0  0  0
 23 24  2  0  0  0
 23 28  1  0  0  0
 24 25  1  0  0  0
 25 26  2  0  0  0
 26 27  1  0  0  0
 26 20  1  0  0  0
 27 28  2  0  0  0
 20  1  1  0  0  0
  1  2  2  0  0  0
  1  6  1  0  0  0
  2  3  1  0  0  0
  2 14  1  0  0  0
  3  4  2  0  0  0
  3  5  1  0  0  0
  5  6  1  0  0  0
  5  8  1  0  0  0
  6  7  2  0  0  0
  8  9  2  0  0  0
  8 13  1  0  0  0
  9 10  1  0  0  0
 10 11  2  0  0  0
 11 12  1  0  0  0
 12 13  2  0  0  0
 14 15  2  0  0  0
 14 19  1  0  0  0
 15 16  1  0  0  0
 16 17  2  0  0  0
 17 18  1  0  0  0
 18 19  2  0  0  0
 20 21  1  0  0  0
M  END
> <minimizedAffinity>
-7.37841

$$$$
670


 23 26  0  0  0  0  0  0  0  0999 V2000
  -38.8510  -69.7860   51.9064 C   0  0  0  0  0  0  0  0  0  0  0  0
  -39.7007  -69.1843   52.8998 N   0  0  0  0  0  0  0  0  0  0  0  0
  -40.5857  -68.1655   52.5472 N   0  0  0  0  0  0  0  0  0  0  0  0
  -41.4440  -67.5414   53.4923 C   0  0  0  0  0  0  0  0  0  0  0  0
  -42.2625  -66.5820   53.1053 C   0  0  0  0  0  0  0  0  0  0  0  0
  -42.8957  -65.6539   52.1474 C   0  0  0  0  0  0  0  0  0  0  0  0
  -43.3300  -65.5957   53.5344 C   0  0  0  0  0  0  0  0  0  0  0  0
  -41.4248  -67.9543   54.8818 C   0  0  0  0  0  0  0  0  0  0  0  0
  -40.5925  -68.9190   55.2394 C   0  0  0  0  0  0  0  0  0  0  0  0
  -39.6970  -69.5748   54.2646 C   0  0  0  0  0  0  0  0  0  0  0  0
  -38.9139  -70.4909   54.6310 O   0  0  0  0  0  0  0  0  0  0  0  0
  -40.5934  -67.8690   51.5279 H   0  0  0  0  0  0  0  0  0  0  0  0
  -36.3825  -68.2008   50.2603 N   0  0  0  0  0  0  0  0  0  0  0  0
  -36.4859  -69.4097   51.0254 C   0  0  0  0  0  0  0  0  0  0  0  0
  -37.7645  -68.8113   51.5775 C   0  0  0  0  0  0  0  0  0  0  0  0
  -37.8140  -68.2421   50.1640 C   0  0  0  0  0  0  0  0  0  0  0  0
  -31.8668  -64.6143   48.2956 Br  0  0  0  0  0  0  0  0  0  0  0  0
  -33.2844  -65.7476   48.9005 C   0  0  0  0  0  0  0  0  0  0  0  0
  -33.8355  -65.5710   50.1494 C   0  0  0  0  0  0  0  0  0  0  0  0
  -34.8176  -66.3675   50.5492 N   0  0  0  0  0  0  0  0  0  0  0  0
  -35.3463  -67.3718   49.8172 C   0  0  0  0  0  0  0  0  0  0  0  0
  -34.7942  -67.5422   48.5795 N   0  0  0  0  0  0  0  0  0  0  0  0
  -33.7971  -66.7636   48.1228 C   0  0  0  0  0  0  0  0  0  0  0  0
 17 18  1  0  0  0
 18 19  2  0  0  0
 18 23  1  0  0  0
 19 20  1  0  0  0
 20 21  2  0  0  0
 21 22  1  0  0  0
 21 13  1  0  0  0
 22 23  2  0  0  0
 13 14  1  0  0  0
 13 16  1  0  0  0
 14 15  1  0  0  0
 15 16  1  0  0  0
 15  1  1  0  0  0
  1  2  1  0  0  0
  2  3  1  0  0  0
  2 10  1  0  0  0
  3  4  1  0  0  0
  4  5  2  0  0  0
  4  8  1  0  0  0
  5  6  1  0  0  0
  5  7  1  0  0  0
  6  7  1  0  0  0
  8  9  2  0  0  0
  9 10  1  0  0  0
 10 11  2  0  0  0
  3 12  1  0  0  0
M  END
> <minimizedAffinity>
-7.84490

$$$$
677


 29 32  0  0  0  0  0  0  0  0999 V2000
  -39.9534  -67.3373   50.9770 C   0  0  0  0  0  0  0  0  0  0  0  0
  -38.8946  -68.2358   51.3588 C   0  0  0  0  0  0  0  0  0  0  0  0
  -38.9720  -68.9087   52.5226 C   0  0  0  0  0  0  0  0  0  0  0  0
  -40.0755  -68.7518   53.3812 C   0  0  0  0  0  0  0  0  0  0  0  0
  -41.0934  -67.8973   53.0337 C   0  0  0  0  0  0  0  0  0  0  0  0
  -41.0222  -67.1882   51.8239 C   0  0  0  0  0  0  0  0  0  0  0  0
  -42.0664  -66.1899   51.4775 C   0  0  0  0  0  0  0  0  0  0  0  0
  -42.9009  -65.7386   52.6715 C   0  0  0  0  0  0  0  0  0  0  0  0
  -43.3317  -66.8579   53.4759 N   0  0  0  0  0  0  0  0  0  0  0  0
  -42.2702  -67.7333   53.8814 C   0  0  0  0  0  0  0  0  0  0  0  0
  -42.4212  -68.3231   54.9713 O   0  0  0  0  0  0  0  0  0  0  0  0
  -44.7154  -67.0758   53.8393 C   0  0  0  0  0  0  0  0  0  0  0  0
  -40.0788  -69.4601   54.5247 O   0  0  0  0  0  0  0  0  0  0  0  0
  -37.8137  -69.6946   52.6238 O   0  0  0  0  0  0  0  0  0  0  0  0
  -37.1277  -69.6994   51.3898 C   0  0  0  0  0  0  0  0  0  0  0  0
  -37.7002  -68.5907   50.7247 O   0  0  0  0  0  0  0  0  0  0  0  0
  -40.7138  -69.5087   55.2451 H   0  0  0  0  0  0  0  0  0  0  0  0
  -39.6877  -66.7252   49.6926 C   0  0  0  0  0  0  0  0  0  0  0  0
  -38.4449  -64.6595   49.3719 C   0  0  0  0  0  0  0  0  0  0  0  0
  -39.4598  -64.0589   49.7628 O   0  0  0  0  0  0  0  0  0  0  0  0
  -38.4827  -66.1349   49.3041 N   0  0  0  0  0  0  0  0  0  0  0  0
  -37.5743  -66.5183   49.0051 H   0  0  0  0  0  0  0  0  0  0  0  0
  -33.1359  -64.2575   49.0802 Br  0  0  0  0  0  0  0  0  0  0  0  0
  -34.9137  -63.6213   48.7940 C   0  0  0  0  0  0  0  0  0  0  0  0
  -35.1300  -62.4205   48.1960 C   0  0  0  0  0  0  0  0  0  0  0  0
  -36.3645  -61.9640   47.9899 N   0  0  0  0  0  0  0  0  0  0  0  0
  -37.4177  -62.6980   48.3771 C   0  0  0  0  0  0  0  0  0  0  0  0
  -37.2556  -63.9338   48.9934 C   0  0  0  0  0  0  0  0  0  0  0  0
  -35.9837  -64.4125   49.2096 C   0  0  0  0  0  0  0  0  0  0  0  0
 23 24  1  0  0  0
 24 25  2  0  0  0
 24 29  1  0  0  0
 25 26  1  0  0  0
 26 27  2  0  0  0
 27 28  1  0  0  0
 28 29  2  0  0  0
 28 19  1  0  0  0
 19 20  2  0  0  0
 19 21  1  0  0  0
 21 18  1  0  0  0
 18  1  1  0  0  0
  1  2  2  0  0  0
  1  6  1  0  0  0
  2  3  1  0  0  0
  2 16  1  0  0  0
  3  4  2  0  0  0
  3 14  1  0  0  0
  4  5  1  0  0  0
  4 13  1  0  0  0
  5  6  2  0  0  0
  5 10  1  0  0  0
  6  7  1  0  0  0
  7  8  1  0  0  0
  8  9  1  0  0  0
  9 10  1  0  0  0
  9 12  1  0  0  0
 10 11  2  0  0  0
 14 15  1  0  0  0
 15 16  1  0  0  0
 21 22  1  0  0  0
 13 17  1  0  0  0
M  END
> <minimizedAffinity>
-8.84465

$$$$
680


 24 27  0  0  0  0  0  0  0  0999 V2000
  -38.3429  -68.8651   51.2549 C   0  0  0  0  0  0  0  0  0  0  0  0
  -38.2694  -70.1343   51.4477 O   0  0  0  0  0  0  0  0  0  0  0  0
  -39.4613  -68.1948   51.7850 N   0  0  0  0  0  0  0  0  0  0  0  0
  -40.0163  -66.8786   51.8427 C   0  0  0  0  0  0  0  0  0  0  0  0
  -41.3981  -67.5431   51.9795 C   0  0  0  0  0  0  0  0  0  0  0  0
  -40.6107  -68.6320   52.6036 C   0  0  0  0  0  0  0  0  0  0  0  0
  -42.2737  -66.7847   52.8297 N   0  0  0  0  0  0  0  0  0  0  0  0
  -42.5918  -67.0123   54.2156 C   0  0  0  0  0  0  0  0  0  0  0  0
  -41.8615  -67.6131   55.0226 O   0  0  0  0  0  0  0  0  0  0  0  0
  -43.9397  -66.3804   54.4275 C   0  0  0  0  0  0  0  0  0  0  0  0
  -43.7847  -65.1374   53.5834 C   0  0  0  0  0  0  0  0  0  0  0  0
  -45.1222  -64.5671   53.2005 C   0  0  0  0  0  0  0  0  0  0  0  0
  -45.8995  -65.5837   52.4421 C   0  0  0  0  0  0  0  0  0  0  0  0
  -45.7880  -66.8429   52.8126 C   0  0  0  0  0  0  0  0  0  0  0  0
  -44.9577  -67.3424   53.9177 C   0  0  0  0  0  0  0  0  0  0  0  0
  -43.0060  -65.6312   52.4313 C   0  0  0  0  0  0  0  0  0  0  0  0
  -43.0246  -65.0825   51.3021 O   0  0  0  0  0  0  0  0  0  0  0  0
  -36.5147  -65.5241   47.4250 Br  0  0  0  0  0  0  0  0  0  0  0  0
  -36.3065  -66.8128   48.8105 C   0  0  0  0  0  0  0  0  0  0  0  0
  -35.0430  -67.2322   49.1523 C   0  0  0  0  0  0  0  0  0  0  0  0
  -34.8765  -68.1494   50.1390 N   0  0  0  0  0  0  0  0  0  0  0  0
  -35.9263  -68.6612   50.7908 C   0  0  0  0  0  0  0  0  0  0  0  0
  -37.2482  -68.2919   50.5082 C   0  0  0  0  0  0  0  0  0  0  0  0
  -37.3750  -67.3595   49.5037 C   0  0  0  0  0  0  0  0  0  0  0  0
 18 19  1  0  0  0
 19 20  2  0  0  0
 19 24  1  0  0  0
 20 21  1  0  0  0
 21 22  2  0  0  0
 22 23  1  0  0  0
 23 24  2  0  0  0
 23  1  1  0  0  0
  1  2  2  0  0  0
  1  3  1  0  0  0
  3  4  1  0  0  0
  3  6  1  0  0  0
  4  5  1  0  0  0
  5  6  1  0  0  0
  5  7  1  0  0  0
  7  8  1  0  0  0
  7 16  1  0  0  0
  8  9  2  0  0  0
  8 10  1  0  0  0
 10 11  1  0  0  0
 10 15  1  0  0  0
 11 12  1  0  0  0
 11 16  1  0  0  0
 12 13  1  0  0  0
 13 14  2  0  0  0
 14 15  1  0  0  0
 16 17  2  0  0  0
M  END
> <minimizedAffinity>
-8.11967

$$$$
681


 25 28  0  0  0  0  0  0  0  0999 V2000
  -38.6644  -65.7121   48.0332 C   0  0  0  0  0  0  0  0  0  0  0  0
  -39.0737  -65.0141   47.0542 O   0  0  0  0  0  0  0  0  0  0  0  0
  -39.5512  -65.9775   49.0840 N   0  0  0  0  0  0  0  0  0  0  0  0
  -39.6141  -66.6746   50.3411 C   0  0  0  0  0  0  0  0  0  0  0  0
  -41.1138  -66.4512   50.4633 C   0  0  0  0  0  0  0  0  0  0  0  0
  -40.9452  -65.5364   49.2884 C   0  0  0  0  0  0  0  0  0  0  0  0
  -33.6006  -64.6189   49.2352 Br  0  0  0  0  0  0  0  0  0  0  0  0
  -34.9645  -65.7660   48.5147 C   0  0  0  0  0  0  0  0  0  0  0  0
  -34.5905  -66.9840   47.9951 C   0  0  0  0  0  0  0  0  0  0  0  0
  -35.5576  -67.7643   47.4998 N   0  0  0  0  0  0  0  0  0  0  0  0
  -36.8702  -67.3895   47.4986 C   0  0  0  0  0  0  0  0  0  0  0  0
  -37.3045  -66.1896   48.0026 C   0  0  0  0  0  0  0  0  0  0  0  0
  -36.2798  -65.3764   48.5214 C   0  0  0  0  0  0  0  0  0  0  0  0
  -41.5705  -65.8642   51.6415 O   0  0  0  0  0  0  0  0  0  0  0  0
  -42.3797  -66.4604   52.5868 C   0  0  0  0  0  0  0  0  0  0  0  0
  -43.6835  -66.1954   52.6019 C   0  0  0  0  0  0  0  0  0  0  0  0
  -44.5897  -66.7932   53.5741 C   0  0  0  0  0  0  0  0  0  0  0  0
  -45.8800  -66.5085   53.5594 C   0  0  0  0  0  0  0  0  0  0  0  0
  -44.0324  -67.6852   54.5291 N   0  0  0  0  0  0  0  0  0  0  0  0
  -42.6218  -67.9515   54.4893 C   0  0  0  0  0  0  0  0  0  0  0  0
  -41.8411  -67.3688   53.5684 N   0  0  0  0  0  0  0  0  0  0  0  0
  -40.5814  -67.7780   53.7512 N   0  0  0  0  0  0  0  0  0  0  0  0
  -40.5884  -68.6175   54.7927 C   0  0  0  0  0  0  0  0  0  0  0  0
  -41.8404  -68.7260   55.2481 N   0  0  0  0  0  0  0  0  0  0  0  0
  -44.6659  -68.1156   55.2235 H   0  0  0  0  0  0  0  0  0  0  0  0
  7  8  1  0  0  0
  8  9  2  0  0  0
  8 13  1  0  0  0
  9 10  1  0  0  0
 10 11  2  0  0  0
 11 12  1  0  0  0
 12 13  2  0  0  0
 12  1  1  0  0  0
  1  2  2  0  0  0
  1  3  1  0  0  0
  3  4  1  0  0  0
  3  6  1  0  0  0
  4  5  1  0  0  0
  5  6  1  0  0  0
  5 14  1  0  0  0
 14 15  1  0  0  0
 15 16  2  0  0  0
 15 21  1  0  0  0
 16 17  1  0  0  0
 17 18  2  0  0  0
 17 19  1  0  0  0
 19 20  1  0  0  0
 20 21  1  0  0  0
 20 24  2  0  0  0
 21 22  1  0  0  0
 22 23  2  0  0  0
 23 24  1  0  0  0
 19 25  1  0  0  0
M  END
> <minimizedAffinity>
-7.57422

$$$$
683


 20 22  0  0  0  0  0  0  0  0999 V2000
  -41.6104  -66.3015   50.0564 N   0  0  0  0  0  0  0  0  0  0  0  0
  -41.7080  -64.8632   50.2434 C   0  0  0  0  0  0  0  0  0  0  0  0
  -41.4246  -64.4549   51.6714 C   0  0  0  0  0  0  0  0  0  0  0  0
  -42.7105  -64.4605   52.4792 C   0  0  0  0  0  0  0  0  0  0  0  0
  -43.1397  -65.8752   52.7964 C   0  0  0  0  0  0  0  0  0  0  0  0
  -42.0292  -66.7987   52.5148 C   0  0  0  0  0  0  0  0  0  0  0  0
  -41.3790  -66.9684   51.3162 C   0  0  0  0  0  0  0  0  0  0  0  0
  -40.3842  -67.8549   51.2293 N   0  0  0  0  0  0  0  0  0  0  0  0
  -39.9933  -68.5916   52.2729 C   0  0  0  0  0  0  0  0  0  0  0  0
  -40.6284  -68.4391   53.4788 C   0  0  0  0  0  0  0  0  0  0  0  0
  -41.6602  -67.5304   53.5981 C   0  0  0  0  0  0  0  0  0  0  0  0
  -42.3117  -67.3873   54.8704 N   0  0  0  0  0  0  0  0  0  0  0  0
  -40.2622  -69.1806   54.5989 C   0  0  0  0  0  0  0  0  0  0  0  0
  -39.2351  -70.0811   54.4650 C   0  0  0  0  0  0  0  0  0  0  0  0
  -38.5997  -70.2328   53.2570 C   0  0  0  0  0  0  0  0  0  0  0  0
  -38.9743  -69.4848   52.1418 C   0  0  0  0  0  0  0  0  0  0  0  0
  -40.4522  -66.5597   49.2079 C   0  0  0  0  0  0  0  0  0  0  0  0
  -42.4779  -66.6699   49.6034 H   0  0  0  0  0  0  0  0  0  0  0  0
  -42.2392  -66.4959   55.3856 H   0  0  0  0  0  0  0  0  0  0  0  0
  -42.8599  -68.1744   55.2874 H   0  0  0  0  0  0  0  0  0  0  0  0
  1  2  1  0  0  0
  1  7  1  0  0  0
  1 17  1  0  0  0
  2  3  1  0  0  0
  3  4  1  0  0  0
  4  5  1  0  0  0
  5  6  1  0  0  0
  6  7  2  0  0  0
  6 11  1  0  0  0
  7  8  1  0  0  0
  8  9  2  0  0  0
  9 10  1  0  0  0
  9 16  1  0  0  0
 10 11  2  0  0  0
 10 13  1  0  0  0
 11 12  1  0  0  0
 13 14  2  0  0  0
 14 15  1  0  0  0
 15 16  2  0  0  0
  1 18  1  0  0  0
 12 19  1  0  0  0
 12 20  1  0  0  0
M  CHG 1   1   1
M  END
> <minimizedAffinity>
-8.14344

$$$$
684


 19 21  0  0  0  0  0  0  0  0999 V2000
  -43.0991  -65.7449   52.3233 N   0  0  0  0  0  0  0  0  0  0  0  0
  -43.2358  -65.0952   53.6400 C   0  0  0  0  0  0  0  0  0  0  0  0
  -43.9615  -66.0244   54.5567 C   0  0  0  0  0  0  0  0  0  0  0  0
  -43.1622  -67.2896   54.7166 C   0  0  0  0  0  0  0  0  0  0  0  0
  -42.1063  -67.4776   53.7080 C   0  0  0  0  0  0  0  0  0  0  0  0
  -42.0745  -66.7341   52.5495 C   0  0  0  0  0  0  0  0  0  0  0  0
  -41.0923  -66.9555   51.6782 N   0  0  0  0  0  0  0  0  0  0  0  0
  -40.1196  -67.8729   51.8654 C   0  0  0  0  0  0  0  0  0  0  0  0
  -40.1201  -68.6358   53.0142 C   0  0  0  0  0  0  0  0  0  0  0  0
  -41.1167  -68.4413   53.9447 C   0  0  0  0  0  0  0  0  0  0  0  0
  -41.1138  -69.2303   55.1286 N   0  0  0  0  0  0  0  0  0  0  0  0
  -39.1157  -69.5856   53.2109 C   0  0  0  0  0  0  0  0  0  0  0  0
  -38.1100  -69.7953   52.2937 C   0  0  0  0  0  0  0  0  0  0  0  0
  -38.1151  -69.0294   51.1456 C   0  0  0  0  0  0  0  0  0  0  0  0
  -39.1122  -68.0858   50.9493 C   0  0  0  0  0  0  0  0  0  0  0  0
  -42.6446  -64.7118   51.4151 C   0  0  0  0  0  0  0  0  0  0  0  0
  -43.9948  -66.1705   52.0319 H   0  0  0  0  0  0  0  0  0  0  0  0
  -40.3545  -69.0415   55.8195 H   0  0  0  0  0  0  0  0  0  0  0  0
  -41.7998  -69.9662   55.3494 H   0  0  0  0  0  0  0  0  0  0  0  0
  1  2  1  0  0  0
  1  6  1  0  0  0
  1 16  1  0  0  0
  2  3  1  0  0  0
  3  4  1  0  0  0
  4  5  1  0  0  0
  5  6  2  0  0  0
  5 10  1  0  0  0
  6  7  1  0  0  0
  7  8  2  0  0  0
  8  9  1  0  0  0
  8 15  1  0  0  0
  9 10  2  0  0  0
  9 12  1  0  0  0
 10 11  1  0  0  0
 12 13  2  0  0  0
 13 14  1  0  0  0
 14 15  2  0  0  0
  1 17  1  0  0  0
 11 18  1  0  0  0
 11 19  1  0  0  0
M  CHG 1   1   1
M  END
> <minimizedAffinity>
-8.03918

$$$$
692


 29 32  0  0  0  0  0  0  0  0999 V2000
  -38.9818  -69.9080   52.0516 Br  0  0  0  0  0  0  0  0  0  0  0  0
  -40.0103  -68.3191   52.2162 C   0  0  0  0  0  0  0  0  0  0  0  0
  -39.7529  -67.2526   51.3761 C   0  0  0  0  0  0  0  0  0  0  0  0
  -40.4738  -66.0510   51.4459 C   0  0  0  0  0  0  0  0  0  0  0  0
  -41.4717  -65.9248   52.3799 C   0  0  0  0  0  0  0  0  0  0  0  0
  -41.7343  -66.9875   53.2229 C   0  0  0  0  0  0  0  0  0  0  0  0
  -41.0266  -68.1675   53.1549 C   0  0  0  0  0  0  0  0  0  0  0  0
  -43.1111  -66.8470   54.5293 Br  0  0  0  0  0  0  0  0  0  0  0  0
  -40.1557  -64.9485   50.5467 C   0  0  0  0  0  0  0  0  0  0  0  0
  -40.5042  -63.8012   50.9388 O   0  0  0  0  0  0  0  0  0  0  0  0
  -39.4770  -65.1485   49.2713 C   0  0  0  0  0  0  0  0  0  0  0  0
  -39.0392  -66.6340   49.1718 C   0  0  0  0  0  0  0  0  0  0  0  0
  -38.7829  -67.2325   50.3891 O   0  0  0  0  0  0  0  0  0  0  0  0
  -40.2421  -64.9239   48.0491 C   0  0  0  0  0  0  0  0  0  0  0  0
  -40.8033  -63.7262   47.6261 N   0  0  0  0  0  0  0  0  0  0  0  0
  -42.1929  -63.4564   47.8250 C   0  0  0  0  0  0  0  0  0  0  0  0
  -42.3324  -61.9124   47.8361 C   0  0  0  0  0  0  0  0  0  0  0  0
  -42.1539  -61.4902   46.3926 C   0  0  0  0  0  0  0  0  0  0  0  0
  -41.4983  -62.5750   45.5673 C   0  0  0  0  0  0  0  0  0  0  0  0
  -40.3724  -63.2520   46.3191 C   0  0  0  0  0  0  0  0  0  0  0  0
  -40.3464  -62.9913   48.2827 H   0  0  0  0  0  0  0  0  0  0  0  0
  -38.2301  -64.2779   49.2661 C   0  0  0  0  0  0  0  0  0  0  0  0
  -37.0255  -65.0218   48.9910 N   0  0  0  0  0  0  0  0  0  0  0  0
  -35.9100  -64.2995   49.5857 C   0  0  0  0  0  0  0  0  0  0  0  0
  -35.9217  -62.8911   49.0916 C   0  0  0  0  0  0  0  0  0  0  0  0
  -35.9494  -62.7390   47.6151 C   0  0  0  0  0  0  0  0  0  0  0  0
  -36.7318  -63.7704   46.8781 C   0  0  0  0  0  0  0  0  0  0  0  0
  -36.6867  -65.1081   47.5822 C   0  0  0  0  0  0  0  0  0  0  0  0
  -37.0890  -65.9953   49.3379 H   0  0  0  0  0  0  0  0  0  0  0  0
  1  2  1  0  0  0
  2  3  2  0  0  0
  2  7  1  0  0  0
  3  4  1  0  0  0
  3 13  1  0  0  0
  4  5  2  0  0  0
  4  9  1  0  0  0
  5  6  1  0  0  0
  6  7  2  0  0  0
  6  8  1  0  0  0
  9 10  2  0  0  0
  9 11  1  0  0  0
 11 12  1  0  0  0
 11 14  1  0  0  0
 11 22  1  0  0  0
 12 13  1  0  0  0
 14 15  1  0  0  0
 15 16  1  0  0  0
 15 20  1  0  0  0
 16 17  1  0  0  0
 17 18  1  0  0  0
 18 19  1  0  0  0
 19 20  1  0  0  0
 22 23  1  0  0  0
 23 24  1  0  0  0
 23 28  1  0  0  0
 24 25  1  0  0  0
 25 26  1  0  0  0
 26 27  1  0  0  0
 27 28  1  0  0  0
 15 21  1  0  0  0
 23 29  1  0  0  0
M  CHG 1  15   1
M  CHG 1  23   1
M  END
> <minimizedAffinity>
-7.01929

$$$$
693


 33 36  0  0  0  0  0  0  0  0999 V2000
  -40.5702  -64.9993   48.6866 N   0  0  0  0  0  0  0  0  0  0  0  0
  -39.9509  -63.7299   48.6644 C   0  0  0  0  0  0  0  0  0  0  0  0
  -40.2491  -62.8649   49.5140 O   0  0  0  0  0  0  0  0  0  0  0  0
  -40.3709  -65.7671   48.0107 H   0  0  0  0  0  0  0  0  0  0  0  0
  -41.1443  -68.8232   55.0584 Br  0  0  0  0  0  0  0  0  0  0  0  0
  -42.0761  -67.6739   53.8441 C   0  0  0  0  0  0  0  0  0  0  0  0
  -41.4751  -67.1858   52.7019 C   0  0  0  0  0  0  0  0  0  0  0  0
  -42.1398  -66.3559   51.8153 C   0  0  0  0  0  0  0  0  0  0  0  0
  -43.4424  -66.0367   52.1313 C   0  0  0  0  0  0  0  0  0  0  0  0
  -44.0753  -66.5029   53.2616 C   0  0  0  0  0  0  0  0  0  0  0  0
  -43.3964  -67.3331   54.1384 C   0  0  0  0  0  0  0  0  0  0  0  0
  -45.8860  -66.0222   53.6410 Br  0  0  0  0  0  0  0  0  0  0  0  0
  -41.2824  -65.9899   50.6978 C   0  0  0  0  0  0  0  0  0  0  0  0
  -41.5205  -65.2491   49.6813 N   0  0  0  0  0  0  0  0  0  0  0  0
  -40.0019  -66.6617   50.9451 C   0  0  0  0  0  0  0  0  0  0  0  0
  -39.0044  -66.5757   50.1798 O   0  0  0  0  0  0  0  0  0  0  0  0
  -40.1712  -67.3653   52.1596 N   0  0  0  0  0  0  0  0  0  0  0  0
  -39.4370  -67.9422   52.6039 H   0  0  0  0  0  0  0  0  0  0  0  0
  -38.9231  -63.3583   47.6411 C   0  0  0  0  0  0  0  0  0  0  0  0
  -37.9772  -64.4173   47.4201 N   0  0  0  0  0  0  0  0  0  0  0  0
  -36.7869  -64.5611   48.1835 C   0  0  0  0  0  0  0  0  0  0  0  0
  -36.5569  -63.7274   49.0866 O   0  0  0  0  0  0  0  0  0  0  0  0
  -38.1316  -65.1374   46.6758 H   0  0  0  0  0  0  0  0  0  0  0  0
  -35.7932  -65.6544   47.9636 C   0  0  0  0  0  0  0  0  0  0  0  0
  -36.2793  -66.8940   48.3857 O   0  0  0  0  0  0  0  0  0  0  0  0
  -35.8149  -67.5955   49.4961 C   0  0  0  0  0  0  0  0  0  0  0  0
  -34.5844  -67.2423   49.9838 C   0  0  0  0  0  0  0  0  0  0  0  0
  -34.0936  -67.9287   51.0946 C   0  0  0  0  0  0  0  0  0  0  0  0
  -34.7972  -68.9393   51.7092 C   0  0  0  0  0  0  0  0  0  0  0  0
  -36.0341  -69.2677   51.1891 C   0  0  0  0  0  0  0  0  0  0  0  0
  -36.5233  -68.5943   50.0944 C   0  0  0  0  0  0  0  0  0  0  0  0
  -33.8771  -66.2397   49.3800 O   0  0  0  0  0  0  0  0  0  0  0  0
  -34.4438  -65.3156   48.4927 C   0  0  0  0  0  0  0  0  0  0  0  0
  5  6  1  0  0  0
  6  7  2  0  0  0
  6 11  1  0  0  0
  7  8  1  0  0  0
  7 17  1  0  0  0
  8  9  2  0  0  0
  8 13  1  0  0  0
  9 10  1  0  0  0
 10 11  2  0  0  0
 10 12  1  0  0  0
 13 14  2  0  0  0
 13 15  1  0  0  0
 14  1  1  0  0  0
  1  2  1  0  0  0
  2  3  2  0  0  0
  2 19  1  0  0  0
 19 20  1  0  0  0
 20 21  1  0  0  0
 21 22  2  0  0  0
 21 24  1  0  0  0
 24 25  1  0  0  0
 24 33  1  0  0  0
 25 26  1  0  0  0
 26 27  2  0  0  0
 26 31  1  0  0  0
 27 28  1  0  0  0
 27 32  1  0  0  0
 28 29  2  0  0  0
 29 30  1  0  0  0
 30 31  2  0  0  0
 32 33  1  0  0  0
 15 16  2  0  0  0
 15 17  1  0  0  0
  1  4  1  0  0  0
 20 23  1  0  0  0
 17 18  1  0  0  0
M  END
> <minimizedAffinity>
-8.94628

$$$$
695


 22 25  0  0  0  0  0  0  0  0999 V2000
  -37.7723  -69.6174   50.8903 C   0  0  0  0  0  0  0  0  0  0  0  0
  -40.7107  -68.5760   55.2497 Br  0  0  0  0  0  0  0  0  0  0  0  0
  -40.2600  -68.3115   53.4012 C   0  0  0  0  0  0  0  0  0  0  0  0
  -41.0046  -67.3942   52.6902 C   0  0  0  0  0  0  0  0  0  0  0  0
  -40.6827  -67.2043   51.3689 C   0  0  0  0  0  0  0  0  0  0  0  0
  -39.6384  -67.9235   50.7845 C   0  0  0  0  0  0  0  0  0  0  0  0
  -38.8898  -68.8407   51.4849 C   0  0  0  0  0  0  0  0  0  0  0  0
  -39.2265  -69.0257   52.8291 C   0  0  0  0  0  0  0  0  0  0  0  0
  -41.5693  -66.2413   50.8836 O   0  0  0  0  0  0  0  0  0  0  0  0
  -42.7194  -66.2535   51.7436 C   0  0  0  0  0  0  0  0  0  0  0  0
  -42.0774  -66.5474   52.9926 O   0  0  0  0  0  0  0  0  0  0  0  0
  -37.1802  -68.8591   49.8156 N   0  0  0  0  0  0  0  0  0  0  0  0
  -37.5202  -68.9307   48.8418 H   0  0  0  0  0  0  0  0  0  0  0  0
  -36.0819  -67.9801   50.1231 C   0  0  0  0  0  0  0  0  0  0  0  0
  -34.9713  -68.4413   50.7140 N   0  0  0  0  0  0  0  0  0  0  0  0
  -33.9501  -67.6133   50.9976 C   0  0  0  0  0  0  0  0  0  0  0  0
  -34.0116  -66.2578   50.6891 C   0  0  0  0  0  0  0  0  0  0  0  0
  -35.1193  -65.8066   50.1012 N   0  0  0  0  0  0  0  0  0  0  0  0
  -36.1523  -66.6399   49.8136 C   0  0  0  0  0  0  0  0  0  0  0  0
  -37.1168  -65.9086   49.2317 N   0  0  0  0  0  0  0  0  0  0  0  0
  -36.7299  -64.6472   49.1421 N   0  0  0  0  0  0  0  0  0  0  0  0
  -35.5070  -64.5906   49.6762 C   0  0  0  0  0  0  0  0  0  0  0  0
  2  3  1  0  0  0
  3  4  2  0  0  0
  3  8  1  0  0  0
  4  5  1  0  0  0
  4 11  1  0  0  0
  5  6  2  0  0  0
  5  9  1  0  0  0
  6  7  1  0  0  0
  7  8  2  0  0  0
  7  1  1  0  0  0
  1 12  1  0  0  0
 12 14  1  0  0  0
 14 15  2  0  0  0
 14 19  1  0  0  0
 15 16  1  0  0  0
 16 17  2  0  0  0
 17 18  1  0  0  0
 18 19  1  0  0  0
 18 22  1  0  0  0
 19 20  2  0  0  0
 20 21  1  0  0  0
 21 22  2  0  0  0
  9 10  1  0  0  0
 10 11  1  0  0  0
 12 13  1  0  0  0
M  END
> <minimizedAffinity>
-7.42776

$$$$
696


 28 31  0  0  0  0  0  0  0  0999 V2000
  -36.1457  -64.6684   48.7963 Br  0  0  0  0  0  0  0  0  0  0  0  0
  -37.1927  -66.0618   49.5482 C   0  0  0  0  0  0  0  0  0  0  0  0
  -38.5662  -65.8588   49.7386 C   0  0  0  0  0  0  0  0  0  0  0  0
  -39.3687  -66.8242   50.2652 C   0  0  0  0  0  0  0  0  0  0  0  0
  -38.8012  -68.0352   50.6211 C   0  0  0  0  0  0  0  0  0  0  0  0
  -37.4393  -68.2452   50.4361 C   0  0  0  0  0  0  0  0  0  0  0  0
  -36.6311  -67.2683   49.9025 C   0  0  0  0  0  0  0  0  0  0  0  0
  -36.7896  -69.5350   50.8061 C   0  0  0  0  0  0  0  0  0  0  0  0
  -40.8322  -66.6005   50.4186 C   0  0  0  0  0  0  0  0  0  0  0  0
  -41.2709  -65.2027   50.6697 C   0  0  0  0  0  0  0  0  0  0  0  0
  -40.1213  -64.2016   50.4024 C   0  0  0  0  0  0  0  0  0  0  0  0
  -39.2203  -64.6781   49.4165 O   0  0  0  0  0  0  0  0  0  0  0  0
  -41.3514  -67.1505   49.2130 O   0  0  0  0  0  0  0  0  0  0  0  0
  -41.4077  -68.1201   49.2630 H   0  0  0  0  0  0  0  0  0  0  0  0
  -41.6067  -64.9398   52.1255 C   0  0  0  0  0  0  0  0  0  0  0  0
  -42.6508  -65.7839   52.6654 N   0  0  0  0  0  0  0  0  0  0  0  0
  -43.5044  -64.9961   53.5550 C   0  0  0  0  0  0  0  0  0  0  0  0
  -44.1530  -65.9329   54.5055 C   0  0  0  0  0  0  0  0  0  0  0  0
  -43.4593  -67.2313   54.2673 C   0  0  0  0  0  0  0  0  0  0  0  0
  -42.1514  -66.7636   53.6157 C   0  0  0  0  0  0  0  0  0  0  0  0
  -43.2059  -66.3031   51.9700 H   0  0  0  0  0  0  0  0  0  0  0  0
  -42.3367  -64.7643   49.7386 C   0  0  0  0  0  0  0  0  0  0  0  0
  -42.9703  -63.5538   49.6326 N   0  0  0  0  0  0  0  0  0  0  0  0
  -42.9639  -63.0952   48.2251 C   0  0  0  0  0  0  0  0  0  0  0  0
  -44.2316  -62.3629   48.0132 C   0  0  0  0  0  0  0  0  0  0  0  0
  -45.1892  -62.8701   49.0221 C   0  0  0  0  0  0  0  0  0  0  0  0
  -44.2791  -63.4132   50.1223 C   0  0  0  0  0  0  0  0  0  0  0  0
  -42.3508  -62.7369   50.0666 H   0  0  0  0  0  0  0  0  0  0  0  0
  1  2  1  0  0  0
  2  3  2  0  0  0
  2  7  1  0  0  0
  3  4  1  0  0  0
  3 12  1  0  0  0
  4  5  2  0  0  0
  4  9  1  0  0  0
  5  6  1  0  0  0
  6  7  2  0  0  0
  6  8  1  0  0  0
  9 10  1  0  0  0
  9 13  1  0  0  0
 10 11  1  0  0  0
 10 15  1  0  0  0
 10 22  1  0  0  0
 11 12  1  0  0  0
 15 16  1  0  0  0
 16 17  1  0  0  0
 16 20  1  0  0  0
 17 18  1  0  0  0
 18 19  1  0  0  0
 19 20  1  0  0  0
 22 23  1  0  0  0
 23 24  1  0  0  0
 23 27  1  0  0  0
 24 25  1  0  0  0
 25 26  1  0  0  0
 26 27  1  0  0  0
 16 21  1  0  0  0
 23 28  1  0  0  0
 13 14  1  0  0  0
M  CHG 1  16   1
M  CHG 1  23   1
M  END
> <minimizedAffinity>
-6.69994

$$$$
699


 32 35  0  0  0  0  0  0  0  0999 V2000
  -45.3020  -65.2957   52.0747 C   0  0  0  0  0  0  0  0  0  0  0  0
  -45.6852  -64.9976   50.7929 O   0  0  0  0  0  0  0  0  0  0  0  0
  -45.1765  -64.2856   50.3644 H   0  0  0  0  0  0  0  0  0  0  0  0
  -43.8598  -64.9576   52.3564 C   0  0  0  0  0  0  0  0  0  0  0  0
  -42.9685  -65.8140   51.6685 O   0  0  0  0  0  0  0  0  0  0  0  0
  -40.7935  -67.1862   50.0318 Br  0  0  0  0  0  0  0  0  0  0  0  0
  -41.1779  -67.4358   51.8784 C   0  0  0  0  0  0  0  0  0  0  0  0
  -40.4195  -68.3259   52.6127 C   0  0  0  0  0  0  0  0  0  0  0  0
  -40.6755  -68.5265   53.9531 C   0  0  0  0  0  0  0  0  0  0  0  0
  -41.7102  -67.8036   54.5108 C   0  0  0  0  0  0  0  0  0  0  0  0
  -42.4634  -66.9151   53.7695 C   0  0  0  0  0  0  0  0  0  0  0  0
  -42.2152  -66.7076   52.4276 C   0  0  0  0  0  0  0  0  0  0  0  0
  -39.9147  -69.4194   54.6893 C   0  0  0  0  0  0  0  0  0  0  0  0
  -38.8794  -70.1425   54.1329 C   0  0  0  0  0  0  0  0  0  0  0  0
  -38.6230  -69.9427   52.7908 C   0  0  0  0  0  0  0  0  0  0  0  0
  -39.3813  -69.0525   52.0564 C   0  0  0  0  0  0  0  0  0  0  0  0
  -46.1995  -64.6826   53.0930 C   0  0  0  0  0  0  0  0  0  0  0  0
  -47.1726  -65.5991   53.6447 N   0  0  0  0  0  0  0  0  0  0  0  0
  -46.6894  -66.9410   53.3717 C   0  0  0  0  0  0  0  0  0  0  0  0
  -47.7504  -68.0073   53.6797 C   0  0  0  0  0  0  0  0  0  0  0  0
  -48.9130  -67.7298   52.9148 N   0  0  0  0  0  0  0  0  0  0  0  0
  -48.8384  -66.5000   52.0987 C   0  0  0  0  0  0  0  0  0  0  0  0
  -48.4514  -65.3669   52.9897 C   0  0  0  0  0  0  0  0  0  0  0  0
  -50.0704  -68.5159   52.8881 C   0  0  0  0  0  0  0  0  0  0  0  0
  -51.0105  -68.0325   52.0920 O   0  0  0  0  0  0  0  0  0  0  0  0
  -47.2955  -65.5115   54.6755 H   0  0  0  0  0  0  0  0  0  0  0  0
  -50.4245  -69.7281   53.5526 C   0  0  0  0  0  0  0  0  0  0  0  0
  -50.4845  -69.9352   54.9012 C   0  0  0  0  0  0  0  0  0  0  0  0
  -50.8371  -71.1442   55.4848 C   0  0  0  0  0  0  0  0  0  0  0  0
  -51.1496  -72.2114   54.7053 C   0  0  0  0  0  0  0  0  0  0  0  0
  -51.0986  -72.0349   53.3379 C   0  0  0  0  0  0  0  0  0  0  0  0
  -50.7492  -70.8400   52.7610 C   0  0  0  0  0  0  0  0  0  0  0  0
  6  7  1  0  0  0
  7  8  2  0  0  0
  7 12  1  0  0  0
  8  9  1  0  0  0
  8 16  1  0  0  0
  9 10  2  0  0  0
  9 13  1  0  0  0
 10 11  1  0  0  0
 11 12  2  0  0  0
 12  5  1  0  0  0
  5  4  1  0  0  0
  4  1  1  0  0  0
  1  2  1  0  0  0
  1 17  1  0  0  0
 17 18  1  0  0  0
 18 19  1  0  0  0
 18 23  1  0  0  0
 19 20  1  0  0  0
 20 21  1  0  0  0
 21 22  1  0  0  0
 21 24  1  0  0  0
 22 23  1  0  0  0
 24 25  2  0  0  0
 24 27  1  0  0  0
 27 28  2  0  0  0
 27 32  1  0  0  0
 28 29  1  0  0  0
 29 30  2  0  0  0
 30 31  1  0  0  0
 31 32  2  0  0  0
 13 14  2  0  0  0
 14 15  1  0  0  0
 15 16  2  0  0  0
  2  3  1  0  0  0
 18 26  1  0  0  0
M  CHG 1  18   1
M  END
> <minimizedAffinity>
-8.92660

$$$$
706


 30 33  0  0  0  0  0  0  0  0999 V2000
  -40.8831  -66.7752   52.3996 C   0  0  0  0  0  0  0  0  0  0  0  0
  -41.5215  -68.9945   54.7621 Br  0  0  0  0  0  0  0  0  0  0  0  0
  -42.6011  -67.6608   53.8812 C   0  0  0  0  0  0  0  0  0  0  0  0
  -42.2081  -66.8037   52.9204 N   0  0  0  0  0  0  0  0  0  0  0  0
  -43.2449  -66.0316   52.5587 C   0  0  0  0  0  0  0  0  0  0  0  0
  -44.3299  -66.4184   53.3213 C   0  0  0  0  0  0  0  0  0  0  0  0
  -43.9013  -67.4097   54.1136 N   0  0  0  0  0  0  0  0  0  0  0  0
  -45.5075  -65.7868   53.1402 N   0  0  0  0  0  0  0  0  0  0  0  0
  -45.6724  -64.7907   52.2419 C   0  0  0  0  0  0  0  0  0  0  0  0
  -46.7968  -64.2232   52.1032 O   0  0  0  0  0  0  0  0  0  0  0  0
  -44.6372  -64.3892   51.4820 N   0  0  0  0  0  0  0  0  0  0  0  0
  -43.4587  -65.0125   51.6543 C   0  0  0  0  0  0  0  0  0  0  0  0
  -42.4924  -64.6492   50.9531 O   0  0  0  0  0  0  0  0  0  0  0  0
  -44.8393  -63.3191   50.5243 C   0  0  0  0  0  0  0  0  0  0  0  0
  -46.6393  -66.1983   53.9452 C   0  0  0  0  0  0  0  0  0  0  0  0
  -40.6006  -67.6185   51.2102 C   0  0  0  0  0  0  0  0  0  0  0  0
  -39.2500  -67.6958   50.7644 N   0  0  0  0  0  0  0  0  0  0  0  0
  -38.7020  -66.9430   49.7781 C   0  0  0  0  0  0  0  0  0  0  0  0
  -37.3848  -67.2952   49.6156 C   0  0  0  0  0  0  0  0  0  0  0  0
  -37.1661  -68.2636   50.5207 N   0  0  0  0  0  0  0  0  0  0  0  0
  -38.2877  -68.5067   51.2128 C   0  0  0  0  0  0  0  0  0  0  0  0
  -38.5358  -69.7969   52.6237 Br  0  0  0  0  0  0  0  0  0  0  0  0
  -36.5660  -66.7143   48.6984 N   0  0  0  0  0  0  0  0  0  0  0  0
  -37.1058  -65.7519   47.9290 C   0  0  0  0  0  0  0  0  0  0  0  0
  -36.3568  -65.2052   47.0742 O   0  0  0  0  0  0  0  0  0  0  0  0
  -38.3887  -65.3663   48.0433 N   0  0  0  0  0  0  0  0  0  0  0  0
  -39.1833  -65.9413   48.9448 C   0  0  0  0  0  0  0  0  0  0  0  0
  -40.3935  -65.6268   49.1026 O   0  0  0  0  0  0  0  0  0  0  0  0
  -38.9213  -64.3248   47.1905 C   0  0  0  0  0  0  0  0  0  0  0  0
  -35.1722  -67.1131   48.5547 C   0  0  0  0  0  0  0  0  0  0  0  0
  2  3  1  0  0  0
  3  4  1  0  0  0
  3  7  2  0  0  0
  4  5  1  0  0  0
  4  1  1  0  0  0
  5  6  2  0  0  0
  5 12  1  0  0  0
  6  7  1  0  0  0
  6  8  1  0  0  0
  8  9  1  0  0  0
  8 15  1  0  0  0
  9 10  2  0  0  0
  9 11  1  0  0  0
 11 12  1  0  0  0
 11 14  1  0  0  0
 12 13  2  0  0  0
  1 16  1  0  0  0
 16 17  1  0  0  0
 17 18  1  0  0  0
 17 21  1  0  0  0
 18 19  2  0  0  0
 18 27  1  0  0  0
 19 20  1  0  0  0
 19 23  1  0  0  0
 20 21  2  0  0  0
 21 22  1  0  0  0
 23 24  1  0  0  0
 23 30  1  0  0  0
 24 25  2  0  0  0
 24 26  1  0  0  0
 26 27  1  0  0  0
 26 29  1  0  0  0
 27 28  2  0  0  0
M  END
> <minimizedAffinity>
-8.23700

$$$$
708


 31 34  0  0  0  0  0  0  0  0999 V2000
  -38.1458  -65.4713   49.4378 C   0  0  0  0  0  0  0  0  0  0  0  0
  -39.1895  -66.5481   49.3812 C   0  0  0  0  0  0  0  0  0  0  0  0
  -41.5988  -64.7093   50.5649 Br  0  0  0  0  0  0  0  0  0  0  0  0
  -40.7385  -66.2339   51.3138 C   0  0  0  0  0  0  0  0  0  0  0  0
  -39.7331  -66.9069   50.6750 N   0  0  0  0  0  0  0  0  0  0  0  0
  -39.3987  -67.9032   51.5189 C   0  0  0  0  0  0  0  0  0  0  0  0
  -40.1762  -67.8622   52.6651 C   0  0  0  0  0  0  0  0  0  0  0  0
  -41.0002  -66.8054   52.4984 N   0  0  0  0  0  0  0  0  0  0  0  0
  -40.0631  -68.7284   53.6867 N   0  0  0  0  0  0  0  0  0  0  0  0
  -39.1257  -69.6849   53.5627 C   0  0  0  0  0  0  0  0  0  0  0  0
  -38.9796  -70.5330   54.5060 O   0  0  0  0  0  0  0  0  0  0  0  0
  -38.3478  -69.7609   52.4671 N   0  0  0  0  0  0  0  0  0  0  0  0
  -38.4599  -68.8847   51.4301 C   0  0  0  0  0  0  0  0  0  0  0  0
  -37.7291  -68.9677   50.4215 O   0  0  0  0  0  0  0  0  0  0  0  0
  -40.8807  -68.6789   54.8800 C   0  0  0  0  0  0  0  0  0  0  0  0
  -37.6173  -70.4958   52.3554 H   0  0  0  0  0  0  0  0  0  0  0  0
  -37.6516  -65.0072   48.0978 C   0  0  0  0  0  0  0  0  0  0  0  0
  -36.2078  -65.1780   48.0121 N   0  0  0  0  0  0  0  0  0  0  0  0
  -35.2386  -64.2632   48.2426 C   0  0  0  0  0  0  0  0  0  0  0  0
  -33.9975  -64.8255   48.0540 C   0  0  0  0  0  0  0  0  0  0  0  0
  -34.2295  -66.1042   47.7028 N   0  0  0  0  0  0  0  0  0  0  0  0
  -35.5642  -66.3084   47.6793 C   0  0  0  0  0  0  0  0  0  0  0  0
  -36.4640  -67.9368   47.2486 Br  0  0  0  0  0  0  0  0  0  0  0  0
  -32.8420  -64.1534   48.2116 N   0  0  0  0  0  0  0  0  0  0  0  0
  -32.9445  -62.8519   48.5768 C   0  0  0  0  0  0  0  0  0  0  0  0
  -31.8573  -62.2151   48.7276 O   0  0  0  0  0  0  0  0  0  0  0  0
  -34.1422  -62.2615   48.7722 N   0  0  0  0  0  0  0  0  0  0  0  0
  -35.2939  -62.9449   48.6117 C   0  0  0  0  0  0  0  0  0  0  0  0
  -36.4230  -62.4255   48.7856 O   0  0  0  0  0  0  0  0  0  0  0  0
  -31.5457  -64.7928   47.9997 C   0  0  0  0  0  0  0  0  0  0  0  0
  -34.1588  -61.2608   49.0524 H   0  0  0  0  0  0  0  0  0  0  0  0
  3  4  1  0  0  0
  4  5  1  0  0  0
  4  8  2  0  0  0
  5  6  1  0  0  0
  5  2  1  0  0  0
  6  7  2  0  0  0
  6 13  1  0  0  0
  7  8  1  0  0  0
  7  9  1  0  0  0
  9 10  1  0  0  0
  9 15  1  0  0  0
 10 11  2  0  0  0
 10 12  1  0  0  0
 12 13  1  0  0  0
 13 14  2  0  0  0
  2  1  1  0  0  0
  1 17  1  0  0  0
 17 18  1  0  0  0
 18 19  1  0  0  0
 18 22  1  0  0  0
 19 20  2  0  0  0
 19 28  1  0  0  0
 20 21  1  0  0  0
 20 24  1  0  0  0
 21 22  2  0  0  0
 22 23  1  0  0  0
 24 25  1  0  0  0
 24 30  1  0  0  0
 25 26  2  0  0  0
 25 27  1  0  0  0
 27 28  1  0  0  0
 28 29  2  0  0  0
 12 16  1  0  0  0
 27 31  1  0  0  0
M  END
> <minimizedAffinity>
-8.19901

$$$$
709


 30 33  0  0  0  0  0  0  0  0999 V2000
  -41.1575  -66.5637   52.3904 C   0  0  0  0  0  0  0  0  0  0  0  0
  -41.7748  -69.0289   54.4068 Br  0  0  0  0  0  0  0  0  0  0  0  0
  -42.9076  -67.6358   53.7570 C   0  0  0  0  0  0  0  0  0  0  0  0
  -42.4771  -66.6689   52.9125 N   0  0  0  0  0  0  0  0  0  0  0  0
  -43.5462  -65.8729   52.6776 C   0  0  0  0  0  0  0  0  0  0  0  0
  -44.6537  -66.3418   53.3785 C   0  0  0  0  0  0  0  0  0  0  0  0
  -44.2059  -67.4370   54.0331 N   0  0  0  0  0  0  0  0  0  0  0  0
  -45.8420  -65.7167   53.2990 N   0  0  0  0  0  0  0  0  0  0  0  0
  -45.9878  -64.6196   52.5355 C   0  0  0  0  0  0  0  0  0  0  0  0
  -47.1078  -64.0221   52.4548 O   0  0  0  0  0  0  0  0  0  0  0  0
  -44.9526  -64.1228   51.8345 N   0  0  0  0  0  0  0  0  0  0  0  0
  -43.7505  -64.7501   51.9119 C   0  0  0  0  0  0  0  0  0  0  0  0
  -42.7531  -64.3147   51.2650 O   0  0  0  0  0  0  0  0  0  0  0  0
  -46.9958  -66.1973   54.0242 C   0  0  0  0  0  0  0  0  0  0  0  0
  -45.0435  -63.2738   51.2362 H   0  0  0  0  0  0  0  0  0  0  0  0
  -40.8575  -67.3258   51.1492 C   0  0  0  0  0  0  0  0  0  0  0  0
  -39.5772  -67.1701   50.5545 N   0  0  0  0  0  0  0  0  0  0  0  0
  -38.4580  -67.8646   50.8176 C   0  0  0  0  0  0  0  0  0  0  0  0
  -37.4356  -67.3878   50.0240 C   0  0  0  0  0  0  0  0  0  0  0  0
  -37.9968  -66.4015   49.2952 N   0  0  0  0  0  0  0  0  0  0  0  0
  -39.2823  -66.2479   49.5912 C   0  0  0  0  0  0  0  0  0  0  0  0
  -40.5191  -64.9811   48.8307 Br  0  0  0  0  0  0  0  0  0  0  0  0
  -36.2194  -67.9266   50.1002 N   0  0  0  0  0  0  0  0  0  0  0  0
  -35.9744  -68.9323   50.9441 C   0  0  0  0  0  0  0  0  0  0  0  0
  -34.8202  -69.4670   51.0408 O   0  0  0  0  0  0  0  0  0  0  0  0
  -36.9168  -69.4526   51.7501 N   0  0  0  0  0  0  0  0  0  0  0  0
  -38.1385  -68.9098   51.6702 C   0  0  0  0  0  0  0  0  0  0  0  0
  -39.0227  -69.3894   52.4141 O   0  0  0  0  0  0  0  0  0  0  0  0
  -35.1392  -67.4364   49.2762 C   0  0  0  0  0  0  0  0  0  0  0  0
  -36.6904  -70.2456   52.4033 H   0  0  0  0  0  0  0  0  0  0  0  0
  2  3  1  0  0  0
  3  4  1  0  0  0
  3  7  2  0  0  0
  4  5  1  0  0  0
  4  1  1  0  0  0
  5  6  2  0  0  0
  5 12  1  0  0  0
  6  7  1  0  0  0
  6  8  1  0  0  0
  8  9  1  0  0  0
  8 14  1  0  0  0
  9 10  2  0  0  0
  9 11  1  0  0  0
 11 12  1  0  0  0
 12 13  2  0  0  0
  1 16  1  0  0  0
 16 17  1  0  0  0
 17 18  1  0  0  0
 17 21  1  0  0  0
 18 19  2  0  0  0
 18 27  1  0  0  0
 19 20  1  0  0  0
 19 23  1  0  0  0
 20 21  2  0  0  0
 21 22  1  0  0  0
 23 24  1  0  0  0
 23 29  1  0  0  0
 24 25  2  0  0  0
 24 26  1  0  0  0
 26 27  1  0  0  0
 27 28  2  0  0  0
 11 15  1  0  0  0
 26 30  1  0  0  0
M  END
> <minimizedAffinity>
-8.13276

$$$$
716


 31 35  0  0  0  0  0  0  0  0999 V2000
  -36.9933  -66.6592   49.4334 C   0  0  0  0  0  0  0  0  0  0  0  0
  -38.2091  -67.1281   50.2002 C   0  0  0  0  0  0  0  0  0  0  0  0
  -39.3984  -66.3034   49.8030 C   0  0  0  0  0  0  0  0  0  0  0  0
  -39.6755  -66.6361   48.3303 C   0  0  0  0  0  0  0  0  0  0  0  0
  -38.4515  -66.2929   47.5196 C   0  0  0  0  0  0  0  0  0  0  0  0
  -37.2172  -67.0233   47.9815 C   0  0  0  0  0  0  0  0  0  0  0  0
  -38.2328  -64.8150   47.5874 C   0  0  0  0  0  0  0  0  0  0  0  0
  -37.9901  -64.4304   49.0298 C   0  0  0  0  0  0  0  0  0  0  0  0
  -36.7940  -65.1779   49.5157 C   0  0  0  0  0  0  0  0  0  0  0  0
  -39.1784  -64.8292   49.8770 C   0  0  0  0  0  0  0  0  0  0  0  0
  -33.8555  -70.1133   52.1876 Br  0  0  0  0  0  0  0  0  0  0  0  0
  -34.4802  -68.6879   51.0670 C   0  0  0  0  0  0  0  0  0  0  0  0
  -35.7546  -68.3621   50.7841 N   0  0  0  0  0  0  0  0  0  0  0  0
  -35.8020  -67.3146   49.9708 N   0  0  0  0  0  0  0  0  0  0  0  0
  -34.5189  -66.9804   49.7414 C   0  0  0  0  0  0  0  0  0  0  0  0
  -33.6963  -67.8079   50.4035 N   0  0  0  0  0  0  0  0  0  0  0  0
  -40.5927  -66.6537   50.6011 C   0  0  0  0  0  0  0  0  0  0  0  0
  -41.5844  -67.1372   49.9988 O   0  0  0  0  0  0  0  0  0  0  0  0
  -40.6182  -66.4488   52.0107 N   0  0  0  0  0  0  0  0  0  0  0  0
  -39.7612  -66.0451   52.4329 H   0  0  0  0  0  0  0  0  0  0  0  0
  -41.7169  -66.7533   52.8570 C   0  0  0  0  0  0  0  0  0  0  0  0
  -42.8599  -66.0094   52.9383 C   0  0  0  0  0  0  0  0  0  0  0  0
  -43.6651  -66.6121   53.8451 N   0  0  0  0  0  0  0  0  0  0  0  0
  -43.0546  -67.6813   54.3093 N   0  0  0  0  0  0  0  0  0  0  0  0
  -41.8547  -67.8099   53.7335 C   0  0  0  0  0  0  0  0  0  0  0  0
  -44.9887  -66.1950   54.2734 C   0  0  0  0  0  0  0  0  0  0  0  0
  -43.2608  -64.7991   52.2496 C   0  0  0  0  0  0  0  0  0  0  0  0
  -43.2625  -63.6868   52.8336 O   0  0  0  0  0  0  0  0  0  0  0  0
  -43.6746  -64.7731   50.8902 N   0  0  0  0  0  0  0  0  0  0  0  0
  -42.9701  -64.4492   50.1657 H   0  0  0  0  0  0  0  0  0  0  0  0
  -44.6159  -65.0453   50.5477 H   0  0  0  0  0  0  0  0  0  0  0  0
 11 12  1  0  0  0
 12 13  2  0  0  0
 12 16  1  0  0  0
 13 14  1  0  0  0
 14 15  1  0  0  0
 14  1  1  0  0  0
 15 16  2  0  0  0
  1  2  1  0  0  0
  1  6  1  0  0  0
  1  9  1  0  0  0
  2  3  1  0  0  0
  3  4  1  0  0  0
  3 10  1  0  0  0
  3 17  1  0  0  0
  4  5  1  0  0  0
  5  6  1  0  0  0
  5  7  1  0  0  0
  7  8  1  0  0  0
  8  9  1  0  0  0
  8 10  1  0  0  0
 17 18  2  0  0  0
 17 19  1  0  0  0
 19 21  1  0  0  0
 21 22  2  0  0  0
 21 25  1  0  0  0
 22 23  1  0  0  0
 22 27  1  0  0  0
 23 24  1  0  0  0
 23 26  1  0  0  0
 24 25  2  0  0  0
 27 28  2  0  0  0
 27 29  1  0  0  0
 19 20  1  0  0  0
 29 30  1  0  0  0
 29 31  1  0  0  0
M  END
> <minimizedAffinity>
-7.84611

$$$$
723


 23 26  0  0  0  0  0  0  0  0999 V2000
  -35.4875  -64.9416   48.5615 N   0  0  0  0  0  0  0  0  0  0  0  0
  -35.3512  -64.9535   47.1388 C   0  0  0  0  0  0  0  0  0  0  0  0
  -34.7540  -63.7133   46.5945 C   0  0  0  0  0  0  0  0  0  0  0  0
  -34.6010  -62.6601   47.4545 O   0  0  0  0  0  0  0  0  0  0  0  0
  -35.6427  -62.5479   48.3686 C   0  0  0  0  0  0  0  0  0  0  0  0
  -35.7287  -63.7288   49.2811 C   0  0  0  0  0  0  0  0  0  0  0  0
  -38.6479  -65.5729   48.2394 Br  0  0  0  0  0  0  0  0  0  0  0  0
  -37.8315  -66.8724   49.3654 C   0  0  0  0  0  0  0  0  0  0  0  0
  -38.4302  -67.9198   49.9751 N   0  0  0  0  0  0  0  0  0  0  0  0
  -37.5664  -68.6370   50.6560 N   0  0  0  0  0  0  0  0  0  0  0  0
  -36.3711  -68.0429   50.4883 C   0  0  0  0  0  0  0  0  0  0  0  0
  -35.1519  -68.3550   50.9400 N   0  0  0  0  0  0  0  0  0  0  0  0
  -34.0750  -67.6127   50.6258 C   0  0  0  0  0  0  0  0  0  0  0  0
  -34.1953  -66.5260   49.8428 N   0  0  0  0  0  0  0  0  0  0  0  0
  -35.4108  -66.1432   49.3432 C   0  0  0  0  0  0  0  0  0  0  0  0
  -36.4925  -66.9112   49.6722 C   0  0  0  0  0  0  0  0  0  0  0  0
  -37.8637  -69.8285   51.4290 C   0  0  0  0  0  0  0  0  0  0  0  0
  -34.6896  -66.1891   46.6628 C   0  0  0  0  0  0  0  0  0  0  0  0
  -33.3811  -66.3500   46.4608 N   0  0  0  0  0  0  0  0  0  0  0  0
  -33.2143  -67.6316   46.0255 C   0  0  0  0  0  0  0  0  0  0  0  0
  -34.4402  -68.1839   45.9856 N   0  0  0  0  0  0  0  0  0  0  0  0
  -35.3091  -67.2964   46.3731 O   0  0  0  0  0  0  0  0  0  0  0  0
  -31.9419  -68.2977   45.6644 C   0  0  0  0  0  0  0  0  0  0  0  0
  7  8  1  0  0  0
  8  9  2  0  0  0
  8 16  1  0  0  0
  9 10  1  0  0  0
 10 11  1  0  0  0
 10 17  1  0  0  0
 11 12  1  0  0  0
 11 16  2  0  0  0
 12 13  2  0  0  0
 13 14  1  0  0  0
 14 15  2  0  0  0
 15 16  1  0  0  0
 15  1  1  0  0  0
  1  2  1  0  0  0
  1  6  1  0  0  0
  2  3  1  0  0  0
  2 18  1  0  0  0
  3  4  1  0  0  0
  4  5  1  0  0  0
  5  6  1  0  0  0
 18 19  2  0  0  0
 18 22  1  0  0  0
 19 20  1  0  0  0
 20 21  2  0  0  0
 20 23  1  0  0  0
 21 22  1  0  0  0
M  END
> <minimizedAffinity>
-5.91628

$$$$
727


 21 24  0  0  0  0  0  0  0  0999 V2000
  -40.9134  -68.3428   55.2368 Br  0  0  0  0  0  0  0  0  0  0  0  0
  -40.2020  -68.3730   53.4714 C   0  0  0  0  0  0  0  0  0  0  0  0
  -39.0728  -69.0297   53.0740 N   0  0  0  0  0  0  0  0  0  0  0  0
  -38.9086  -68.8418   51.7863 N   0  0  0  0  0  0  0  0  0  0  0  0
  -39.8994  -68.0729   51.3059 C   0  0  0  0  0  0  0  0  0  0  0  0
  -40.2032  -67.6031   50.0853 N   0  0  0  0  0  0  0  0  0  0  0  0
  -41.2793  -66.8515   49.8690 C   0  0  0  0  0  0  0  0  0  0  0  0
  -42.0861  -66.5477   50.8813 N   0  0  0  0  0  0  0  0  0  0  0  0
  -41.8688  -66.9753   52.1692 C   0  0  0  0  0  0  0  0  0  0  0  0
  -40.7551  -67.7511   52.3725 C   0  0  0  0  0  0  0  0  0  0  0  0
  -37.8334  -69.3562   50.9253 C   0  0  0  0  0  0  0  0  0  0  0  0
  -42.7222  -66.5966   53.2054 N   0  0  0  0  0  0  0  0  0  0  0  0
  -42.7620  -65.2326   53.6850 C   0  0  0  0  0  0  0  0  0  0  0  0
  -44.0939  -64.6191   53.2049 C   0  0  0  0  0  0  0  0  0  0  0  0
  -45.1570  -65.6447   53.2765 C   0  0  0  0  0  0  0  0  0  0  0  0
  -46.4809  -65.4582   53.0678 N   0  0  0  0  0  0  0  0  0  0  0  0
  -47.0927  -66.6433   53.2314 C   0  0  0  0  0  0  0  0  0  0  0  0
  -46.2010  -67.5832   53.5391 N   0  0  0  0  0  0  0  0  0  0  0  0
  -44.9992  -66.9664   53.5680 C   0  0  0  0  0  0  0  0  0  0  0  0
  -43.6433  -67.4970   53.8507 C   0  0  0  0  0  0  0  0  0  0  0  0
  -47.1670  -64.2379   52.7289 C   0  0  0  0  0  0  0  0  0  0  0  0
  1  2  1  0  0  0
  2  3  2  0  0  0
  2 10  1  0  0  0
  3  4  1  0  0  0
  4  5  1  0  0  0
  4 11  1  0  0  0
  5  6  1  0  0  0
  5 10  2  0  0  0
  6  7  2  0  0  0
  7  8  1  0  0  0
  8  9  2  0  0  0
  9 10  1  0  0  0
  9 12  1  0  0  0
 12 13  1  0  0  0
 12 20  1  0  0  0
 13 14  1  0  0  0
 14 15  1  0  0  0
 15 16  1  0  0  0
 15 19  2  0  0  0
 16 17  1  0  0  0
 16 21  1  0  0  0
 17 18  2  0  0  0
 18 19  1  0  0  0
 19 20  1  0  0  0
M  END
> <minimizedAffinity>
-7.29138

$$$$
729


 27 30  0  0  0  0  0  0  0  0999 V2000
  -38.6274  -65.9219   49.1417 N   0  0  0  0  0  0  0  0  0  0  0  0
  -38.9412  -64.7085   49.8413 C   0  0  0  0  0  0  0  0  0  0  0  0
  -39.9643  -65.1166   50.9048 C   0  0  0  0  0  0  0  0  0  0  0  0
  -40.6031  -66.3900   50.5541 N   0  0  0  0  0  0  0  0  0  0  0  0
  -40.9363  -66.3929   49.1274 C   0  0  0  0  0  0  0  0  0  0  0  0
  -39.6677  -66.4564   48.2970 C   0  0  0  0  0  0  0  0  0  0  0  0
  -37.3410  -63.9655   46.9646 Br  0  0  0  0  0  0  0  0  0  0  0  0
  -36.0347  -65.1499   47.6615 C   0  0  0  0  0  0  0  0  0  0  0  0
  -34.7282  -65.2304   47.3520 N   0  0  0  0  0  0  0  0  0  0  0  0
  -34.1294  -66.1811   48.0175 N   0  0  0  0  0  0  0  0  0  0  0  0
  -35.0531  -66.7660   48.8039 C   0  0  0  0  0  0  0  0  0  0  0  0
  -35.0032  -67.7860   49.6779 N   0  0  0  0  0  0  0  0  0  0  0  0
  -36.0778  -68.2067   50.3508 C   0  0  0  0  0  0  0  0  0  0  0  0
  -37.2421  -67.5991   50.1563 N   0  0  0  0  0  0  0  0  0  0  0  0
  -37.3934  -66.5630   49.2976 C   0  0  0  0  0  0  0  0  0  0  0  0
  -36.2732  -66.1287   48.5983 C   0  0  0  0  0  0  0  0  0  0  0  0
  -32.7366  -66.6047   47.9847 C   0  0  0  0  0  0  0  0  0  0  0  0
  -41.8435  -66.4490   51.3116 C   0  0  0  0  0  0  0  0  0  0  0  0
  -42.4349  -65.0128   51.3143 C   0  0  0  0  0  0  0  0  0  0  0  0
  -41.5979  -66.8545   52.7068 C   0  0  0  0  0  0  0  0  0  0  0  0
  -42.4311  -66.3235   53.5532 O   0  0  0  0  0  0  0  0  0  0  0  0
  -40.6054  -67.7093   53.2123 N   0  0  0  0  0  0  0  0  0  0  0  0
  -39.5596  -68.3820   52.5028 C   0  0  0  0  0  0  0  0  0  0  0  0
  -39.3798  -69.8360   52.8867 C   0  0  0  0  0  0  0  0  0  0  0  0
  -39.6293  -70.1303   54.3256 C   0  0  0  0  0  0  0  0  0  0  0  0
  -40.8627  -69.4281   54.8524 C   0  0  0  0  0  0  0  0  0  0  0  0
  -40.6149  -67.9529   54.6729 C   0  0  0  0  0  0  0  0  0  0  0  0
  7  8  1  0  0  0
  8  9  2  0  0  0
  8 16  1  0  0  0
  9 10  1  0  0  0
 10 11  1  0  0  0
 10 17  1  0  0  0
 11 12  1  0  0  0
 11 16  2  0  0  0
 12 13  2  0  0  0
 13 14  1  0  0  0
 14 15  2  0  0  0
 15 16  1  0  0  0
 15  1  1  0  0  0
  1  2  1  0  0  0
  1  6  1  0  0  0
  2  3  1  0  0  0
  3  4  1  0  0  0
  4  5  1  0  0  0
  4 18  1  0  0  0
  5  6  1  0  0  0
 18 19  1  0  0  0
 18 20  1  0  0  0
 20 21  2  0  0  0
 20 22  1  0  0  0
 22 23  1  0  0  0
 22 27  1  0  0  0
 23 24  1  0  0  0
 24 25  1  0  0  0
 25 26  1  0  0  0
 26 27  1  0  0  0
M  END
> <minimizedAffinity>
-7.85175

$$$$
737


 21 24  0  0  0  0  0  0  0  0999 V2000
  -42.1722  -66.5858   52.6824 C   0  0  0  0  0  0  0  0  0  0  0  0
  -43.4462  -66.2900   52.5595 C   0  0  0  0  0  0  0  0  0  0  0  0
  -44.4650  -66.8713   53.4473 C   0  0  0  0  0  0  0  0  0  0  0  0
  -45.7494  -66.5831   53.3350 C   0  0  0  0  0  0  0  0  0  0  0  0
  -43.9714  -67.7640   54.4344 N   0  0  0  0  0  0  0  0  0  0  0  0
  -42.5764  -68.0744   54.5534 C   0  0  0  0  0  0  0  0  0  0  0  0
  -41.7204  -67.4802   53.6795 N   0  0  0  0  0  0  0  0  0  0  0  0
  -40.5036  -67.9329   54.0028 N   0  0  0  0  0  0  0  0  0  0  0  0
  -40.5638  -68.7823   55.0388 C   0  0  0  0  0  0  0  0  0  0  0  0
  -41.8618  -68.8633   55.3746 N   0  0  0  0  0  0  0  0  0  0  0  0
  -44.6435  -68.2095   55.0950 H   0  0  0  0  0  0  0  0  0  0  0  0
  -38.8964  -62.5946   48.0728 Br  0  0  0  0  0  0  0  0  0  0  0  0
  -39.4059  -64.3732   48.5756 C   0  0  0  0  0  0  0  0  0  0  0  0
  -39.7884  -64.8165   49.7786 N   0  0  0  0  0  0  0  0  0  0  0  0
  -40.0584  -66.1187   49.7081 C   0  0  0  0  0  0  0  0  0  0  0  0
  -39.8389  -66.5024   48.4231 N   0  0  0  0  0  0  0  0  0  0  0  0
  -39.4357  -65.4409   47.7024 C   0  0  0  0  0  0  0  0  0  0  0  0
  -40.5084  -66.8698   50.9174 C   0  0  0  0  0  0  0  0  0  0  0  0
  -41.2396  -65.9999   51.8049 N   0  0  0  0  0  0  0  0  0  0  0  0
  -41.0707  -64.5663   51.8491 C   0  0  0  0  0  0  0  0  0  0  0  0
  -39.9187  -64.0799   51.0198 C   0  0  0  0  0  0  0  0  0  0  0  0
 12 13  1  0  0  0
 13 14  1  0  0  0
 13 17  2  0  0  0
 14 15  1  0  0  0
 14 21  1  0  0  0
 15 16  2  0  0  0
 15 18  1  0  0  0
 16 17  1  0  0  0
 18 19  1  0  0  0
 19 20  1  0  0  0
 19  1  1  0  0  0
 20 21  1  0  0  0
  1  2  2  0  0  0
  1  7  1  0  0  0
  2  3  1  0  0  0
  3  4  2  0  0  0
  3  5  1  0  0  0
  5  6  1  0  0  0
  6  7  1  0  0  0
  6 10  2  0  0  0
  7  8  1  0  0  0
  8  9  2  0  0  0
  9 10  1  0  0  0
  5 11  1  0  0  0
M  END
> <minimizedAffinity>
-7.15625

$$$$
743


 30 33  0  0  0  0  0  0  0  0999 V2000
  -35.6571  -67.9728   50.2934 C   0  0  0  0  0  0  0  0  0  0  0  0
  -34.8429  -68.7292   50.9205 O   0  0  0  0  0  0  0  0  0  0  0  0
  -35.3629  -66.5942   50.1141 N   0  0  0  0  0  0  0  0  0  0  0  0
  -34.1411  -66.0541   50.6431 C   0  0  0  0  0  0  0  0  0  0  0  0
  -33.5570  -64.9459   49.8216 C   0  0  0  0  0  0  0  0  0  0  0  0
  -34.5683  -64.2251   48.9796 C   0  0  0  0  0  0  0  0  0  0  0  0
  -34.1773  -62.8645   48.7685 N   0  0  0  0  0  0  0  0  0  0  0  0
  -35.1057  -62.0944   48.0128 C   0  0  0  0  0  0  0  0  0  0  0  0
  -35.6685  -62.7718   46.8072 C   0  0  0  0  0  0  0  0  0  0  0  0
  -35.1507  -64.1508   46.6171 C   0  0  0  0  0  0  0  0  0  0  0  0
  -35.0845  -64.9315   45.5377 N   0  0  0  0  0  0  0  0  0  0  0  0
  -34.5283  -66.1040   45.8723 C   0  0  0  0  0  0  0  0  0  0  0  0
  -34.2312  -66.0848   47.1786 N   0  0  0  0  0  0  0  0  0  0  0  0
  -34.6110  -64.8876   47.6428 C   0  0  0  0  0  0  0  0  0  0  0  0
  -35.9521  -64.3574   49.5951 C   0  0  0  0  0  0  0  0  0  0  0  0
  -36.3500  -65.8035   49.3853 C   0  0  0  0  0  0  0  0  0  0  0  0
  -34.0500  -62.4155   49.7021 H   0  0  0  0  0  0  0  0  0  0  0  0
  -33.7780  -66.8716   47.7454 H   0  0  0  0  0  0  0  0  0  0  0  0
  -36.8847  -68.6052   49.7849 C   0  0  0  0  0  0  0  0  0  0  0  0
  -37.5785  -69.4510   50.8076 C   0  0  0  0  0  0  0  0  0  0  0  0
  -39.2772  -69.3251   52.6370 C   0  0  0  0  0  0  0  0  0  0  0  0
  -38.9442  -70.4940   52.9931 O   0  0  0  0  0  0  0  0  0  0  0  0
  -38.6025  -68.7559   51.5233 N   0  0  0  0  0  0  0  0  0  0  0  0
  -38.8732  -67.7983   51.2288 H   0  0  0  0  0  0  0  0  0  0  0  0
  -43.6207  -66.3527   53.6032 Br  0  0  0  0  0  0  0  0  0  0  0  0
  -42.0548  -67.4532   53.8036 C   0  0  0  0  0  0  0  0  0  0  0  0
  -41.2800  -67.9447   52.8837 O   0  0  0  0  0  0  0  0  0  0  0  0
  -40.3113  -68.6438   53.3744 C   0  0  0  0  0  0  0  0  0  0  0  0
  -40.4330  -68.6294   54.7691 C   0  0  0  0  0  0  0  0  0  0  0  0
  -41.5528  -67.8641   55.0175 C   0  0  0  0  0  0  0  0  0  0  0  0
 25 26  1  0  0  0
 26 27  1  0  0  0
 26 30  2  0  0  0
 27 28  1  0  0  0
 28 29  2  0  0  0
 28 21  1  0  0  0
 29 30  1  0  0  0
 21 22  2  0  0  0
 21 23  1  0  0  0
 23 20  1  0  0  0
 20 19  1  0  0  0
 19  1  1  0  0  0
  1  2  2  0  0  0
  1  3  1  0  0  0
  3  4  1  0  0  0
  3 16  1  0  0  0
  4  5  1  0  0  0
  5  6  1  0  0  0
  6  7  1  0  0  0
  6 14  1  0  0  0
  6 15  1  0  0  0
  7  8  1  0  0  0
  8  9  1  0  0  0
  9 10  1  0  0  0
 10 11  1  0  0  0
 10 14  2  0  0  0
 11 12  2  0  0  0
 12 13  1  0  0  0
 13 14  1  0  0  0
 15 16  1  0  0  0
 23 24  1  0  0  0
  7 17  1  0  0  0
 13 18  1  0  0  0
M  END
> <minimizedAffinity>
-7.97363

$$$$
746


 30 33  0  0  0  0  0  0  0  0999 V2000
  -40.7749  -65.9073   49.7056 C   0  0  0  0  0  0  0  0  0  0  0  0
  -41.2509  -67.0828   49.5289 O   0  0  0  0  0  0  0  0  0  0  0  0
  -39.6429  -65.5622   48.9585 N   0  0  0  0  0  0  0  0  0  0  0  0
  -39.0029  -64.2662   49.0540 C   0  0  0  0  0  0  0  0  0  0  0  0
  -37.6064  -64.4779   49.5512 C   0  0  0  0  0  0  0  0  0  0  0  0
  -36.8657  -65.4934   48.7403 C   0  0  0  0  0  0  0  0  0  0  0  0
  -35.6512  -64.8792   48.2332 N   0  0  0  0  0  0  0  0  0  0  0  0
  -34.8005  -64.5695   49.3675 C   0  0  0  0  0  0  0  0  0  0  0  0
  -34.0835  -65.8749   49.7304 C   0  0  0  0  0  0  0  0  0  0  0  0
  -35.1573  -66.8610   50.0001 C   0  0  0  0  0  0  0  0  0  0  0  0
  -35.1038  -68.0209   50.6825 N   0  0  0  0  0  0  0  0  0  0  0  0
  -36.3333  -68.5584   50.6521 C   0  0  0  0  0  0  0  0  0  0  0  0
  -37.1339  -67.7321   49.9549 N   0  0  0  0  0  0  0  0  0  0  0  0
  -36.4343  -66.6651   49.5347 C   0  0  0  0  0  0  0  0  0  0  0  0
  -37.7240  -65.9297   47.5530 C   0  0  0  0  0  0  0  0  0  0  0  0
  -39.0291  -66.4855   48.0213 C   0  0  0  0  0  0  0  0  0  0  0  0
  -35.8584  -63.9538   47.7639 H   0  0  0  0  0  0  0  0  0  0  0  0
  -34.2862  -68.4699   51.1673 H   0  0  0  0  0  0  0  0  0  0  0  0
  -41.4889  -65.0648   50.6799 C   0  0  0  0  0  0  0  0  0  0  0  0
  -40.6798  -64.6049   51.8379 C   0  0  0  0  0  0  0  0  0  0  0  0
  -43.8116  -64.9819   51.6384 C   0  0  0  0  0  0  0  0  0  0  0  0
  -43.7871  -63.7341   51.6367 O   0  0  0  0  0  0  0  0  0  0  0  0
  -42.6946  -65.6990   51.1735 N   0  0  0  0  0  0  0  0  0  0  0  0
  -42.7254  -66.7391   51.1794 H   0  0  0  0  0  0  0  0  0  0  0  0
  -48.9826  -66.2977   52.0251 Br  0  0  0  0  0  0  0  0  0  0  0  0
  -47.0799  -66.2445   52.3134 C   0  0  0  0  0  0  0  0  0  0  0  0
  -46.2357  -65.4659   51.6873 O   0  0  0  0  0  0  0  0  0  0  0  0
  -44.9930  -65.6790   52.1218 C   0  0  0  0  0  0  0  0  0  0  0  0
  -45.0745  -66.6594   53.0855 C   0  0  0  0  0  0  0  0  0  0  0  0
  -46.3881  -67.0309   53.2207 C   0  0  0  0  0  0  0  0  0  0  0  0
 25 26  1  0  0  0
 26 27  1  0  0  0
 26 30  2  0  0  0
 27 28  1  0  0  0
 28 29  2  0  0  0
 28 21  1  0  0  0
 29 30  1  0  0  0
 21 22  2  0  0  0
 21 23  1  0  0  0
 23 19  1  0  0  0
 19 20  1  0  0  0
 19  1  1  0  0  0
  1  2  2  0  0  0
  1  3  1  0  0  0
  3  4  1  0  0  0
  3 16  1  0  0  0
  4  5  1  0  0  0
  5  6  1  0  0  0
  6  7  1  0  0  0
  6 14  1  0  0  0
  6 15  1  0  0  0
  7  8  1  0  0  0
  8  9  1  0  0  0
  9 10  1  0  0  0
 10 11  1  0  0  0
 10 14  2  0  0  0
 11 12  1  0  0  0
 12 13  2  0  0  0
 13 14  1  0  0  0
 15 16  1  0  0  0
 23 24  1  0  0  0
  7 17  1  0  0  0
 11 18  1  0  0  0
M  END
> <minimizedAffinity>
-7.72793

$$$$
754


 27 30  0  0  0  0  0  0  0  0999 V2000
  -41.0093  -66.9114   50.0050 C   0  0  0  0  0  0  0  0  0  0  0  0
  -41.5488  -67.7243   49.2408 O   0  0  0  0  0  0  0  0  0  0  0  0
  -40.0913  -65.9631   49.4909 N   0  0  0  0  0  0  0  0  0  0  0  0
  -39.7899  -65.9472   48.0740 C   0  0  0  0  0  0  0  0  0  0  0  0
  -38.3266  -66.1950   47.7994 C   0  0  0  0  0  0  0  0  0  0  0  0
  -37.5917  -65.6803   48.9668 N   0  0  0  0  0  0  0  0  0  0  0  0
  -38.1253  -64.5108   49.5768 C   0  0  0  0  0  0  0  0  0  0  0  0
  -39.4051  -64.9726   50.2982 C   0  0  0  0  0  0  0  0  0  0  0  0
  -36.4356  -66.3969   49.3604 C   0  0  0  0  0  0  0  0  0  0  0  0
  -35.1954  -66.0450   48.9210 N   0  0  0  0  0  0  0  0  0  0  0  0
  -34.0917  -66.7166   49.2842 C   0  0  0  0  0  0  0  0  0  0  0  0
  -34.1872  -67.7801   50.1113 N   0  0  0  0  0  0  0  0  0  0  0  0
  -35.3690  -68.2000   50.5955 C   0  0  0  0  0  0  0  0  0  0  0  0
  -36.5013  -67.4754   50.1943 C   0  0  0  0  0  0  0  0  0  0  0  0
  -35.4975  -69.3682   51.5079 C   0  0  0  0  0  0  0  0  0  0  0  0
  -32.8230  -66.3098   48.8001 N   0  0  0  0  0  0  0  0  0  0  0  0
  -31.8666  -67.2225   48.2223 C   0  0  0  0  0  0  0  0  0  0  0  0
  -31.4246  -66.7224   46.8796 C   0  0  0  0  0  0  0  0  0  0  0  0
  -31.8429  -65.4191   46.6179 O   0  0  0  0  0  0  0  0  0  0  0  0
  -31.5688  -64.5872   47.6999 C   0  0  0  0  0  0  0  0  0  0  0  0
  -32.4511  -64.9137   48.8801 C   0  0  0  0  0  0  0  0  0  0  0  0
  -43.5844  -66.0312   54.6565 Br  0  0  0  0  0  0  0  0  0  0  0  0
  -42.3325  -66.6381   53.3132 C   0  0  0  0  0  0  0  0  0  0  0  0
  -42.3379  -66.3892   52.0536 O   0  0  0  0  0  0  0  0  0  0  0  0
  -41.3451  -66.9584   51.4393 C   0  0  0  0  0  0  0  0  0  0  0  0
  -40.6218  -67.6439   52.3883 C   0  0  0  0  0  0  0  0  0  0  0  0
  -41.2528  -67.4405   53.5888 C   0  0  0  0  0  0  0  0  0  0  0  0
 22 23  1  0  0  0
 23 24  1  0  0  0
 23 27  2  0  0  0
 24 25  1  0  0  0
 25 26  2  0  0  0
 25  1  1  0  0  0
 26 27  1  0  0  0
  1  2  2  0  0  0
  1  3  1  0  0  0
  3  4  1  0  0  0
  3  8  1  0  0  0
  4  5  1  0  0  0
  5  6  1  0  0  0
  6  7  1  0  0  0
  6  9  1  0  0  0
  7  8  1  0  0  0
  9 10  2  0  0  0
  9 14  1  0  0  0
 10 11  1  0  0  0
 11 12  2  0  0  0
 11 16  1  0  0  0
 12 13  1  0  0  0
 13 14  2  0  0  0
 13 15  1  0  0  0
 16 17  1  0  0  0
 16 21  1  0  0  0
 17 18  1  0  0  0
 18 19  1  0  0  0
 19 20  1  0  0  0
 20 21  1  0  0  0
M  END
> <minimizedAffinity>
-7.70100

$$$$
755


 28 31  0  0  0  0  0  0  0  0999 V2000
  -35.5473  -65.9293   48.2876 C   0  0  0  0  0  0  0  0  0  0  0  0
  -34.4352  -66.4371   48.0794 O   0  0  0  0  0  0  0  0  0  0  0  0
  -36.6811  -66.7391   48.5604 N   0  0  0  0  0  0  0  0  0  0  0  0
  -37.9873  -66.1327   48.8040 C   0  0  0  0  0  0  0  0  0  0  0  0
  -39.0112  -67.2163   49.1355 C   0  0  0  0  0  0  0  0  0  0  0  0
  -38.4336  -68.0507   50.1709 N   0  0  0  0  0  0  0  0  0  0  0  0
  -37.1740  -68.6942   49.9146 C   0  0  0  0  0  0  0  0  0  0  0  0
  -36.6089  -68.1856   48.6132 C   0  0  0  0  0  0  0  0  0  0  0  0
  -39.0914  -68.2418   51.4300 C   0  0  0  0  0  0  0  0  0  0  0  0
  -38.6938  -69.1849   52.2955 N   0  0  0  0  0  0  0  0  0  0  0  0
  -39.3280  -69.3408   53.4631 C   0  0  0  0  0  0  0  0  0  0  0  0
  -40.3765  -68.5688   53.8097 N   0  0  0  0  0  0  0  0  0  0  0  0
  -40.8259  -67.6044   52.9870 C   0  0  0  0  0  0  0  0  0  0  0  0
  -40.1585  -67.4593   51.7891 C   0  0  0  0  0  0  0  0  0  0  0  0
  -38.8794  -70.3874   54.4150 C   0  0  0  0  0  0  0  0  0  0  0  0
  -41.9231  -66.7672   53.3061 N   0  0  0  0  0  0  0  0  0  0  0  0
  -42.7523  -67.0544   54.4585 C   0  0  0  0  0  0  0  0  0  0  0  0
  -43.6169  -65.8358   54.7053 C   0  0  0  0  0  0  0  0  0  0  0  0
  -44.4517  -65.6203   53.5545 N   0  0  0  0  0  0  0  0  0  0  0  0
  -43.7729  -65.6683   52.2978 C   0  0  0  0  0  0  0  0  0  0  0  0
  -42.2770  -65.6009   52.5200 C   0  0  0  0  0  0  0  0  0  0  0  0
  -45.6251  -66.4526   53.6337 C   0  0  0  0  0  0  0  0  0  0  0  0
  -36.4818  -61.0438   46.2721 Br  0  0  0  0  0  0  0  0  0  0  0  0
  -36.0666  -62.4499   47.4975 C   0  0  0  0  0  0  0  0  0  0  0  0
  -36.0068  -63.7254   47.2095 O   0  0  0  0  0  0  0  0  0  0  0  0
  -35.6991  -64.4564   48.2519 C   0  0  0  0  0  0  0  0  0  0  0  0
  -35.5455  -63.5845   49.3028 C   0  0  0  0  0  0  0  0  0  0  0  0
  -35.7751  -62.3151   48.8379 C   0  0  0  0  0  0  0  0  0  0  0  0
 23 24  1  0  0  0
 24 25  1  0  0  0
 24 28  2  0  0  0
 25 26  1  0  0  0
 26 27  2  0  0  0
 26  1  1  0  0  0
 27 28  1  0  0  0
  1  2  2  0  0  0
  1  3  1  0  0  0
  3  4  1  0  0  0
  3  8  1  0  0  0
  4  5  1  0  0  0
  5  6  1  0  0  0
  6  7  1  0  0  0
  6  9  1  0  0  0
  7  8  1  0  0  0
  9 10  2  0  0  0
  9 14  1  0  0  0
 10 11  1  0  0  0
 11 12  2  0  0  0
 11 15  1  0  0  0
 12 13  1  0  0  0
 13 14  2  0  0  0
 13 16  1  0  0  0
 16 17  1  0  0  0
 16 21  1  0  0  0
 17 18  1  0  0  0
 18 19  1  0  0  0
 19 20  1  0  0  0
 19 22  1  0  0  0
 20 21  1  0  0  0
M  END
> <minimizedAffinity>
-7.94119

$$$$
767


 32 35  0  0  0  0  0  0  0  0999 V2000
  -44.1234  -63.0048   49.2919 C   0  0  0  0  0  0  0  0  0  0  0  0
  -41.7532  -63.3452   48.6174 C   0  0  0  0  0  0  0  0  0  0  0  0
  -41.6535  -62.0882   48.4116 O   0  0  0  0  0  0  0  0  0  0  0  0
  -43.0028  -63.8537   49.0689 N   0  0  0  0  0  0  0  0  0  0  0  0
  -43.0910  -64.8729   49.2386 H   0  0  0  0  0  0  0  0  0  0  0  0
  -38.8537  -65.5425   48.6014 C   0  0  0  0  0  0  0  0  0  0  0  0
  -39.1222  -65.3096   47.2969 N   0  0  0  0  0  0  0  0  0  0  0  0
  -40.1560  -64.5235   47.1984 O   0  0  0  0  0  0  0  0  0  0  0  0
  -40.6034  -64.2113   48.3879 C   0  0  0  0  0  0  0  0  0  0  0  0
  -39.7982  -64.8408   49.2518 N   0  0  0  0  0  0  0  0  0  0  0  0
  -36.3770  -69.4267   51.3468 Br  0  0  0  0  0  0  0  0  0  0  0  0
  -36.7525  -67.9199   50.2572 C   0  0  0  0  0  0  0  0  0  0  0  0
  -37.9032  -67.4133   49.9340 O   0  0  0  0  0  0  0  0  0  0  0  0
  -37.7869  -66.3646   49.1596 C   0  0  0  0  0  0  0  0  0  0  0  0
  -36.4320  -66.1719   48.9609 C   0  0  0  0  0  0  0  0  0  0  0  0
  -35.7486  -67.1586   49.6554 C   0  0  0  0  0  0  0  0  0  0  0  0
  -44.9646  -63.4360   50.4744 C   0  0  0  0  0  0  0  0  0  0  0  0
  -44.4764  -64.6839   51.0440 N   0  0  0  0  0  0  0  0  0  0  0  0
  -43.7014  -64.6419   52.2156 C   0  0  0  0  0  0  0  0  0  0  0  0
  -43.4898  -63.4693   52.6905 O   0  0  0  0  0  0  0  0  0  0  0  0
  -44.6889  -65.5999   50.6092 H   0  0  0  0  0  0  0  0  0  0  0  0
  -43.1242  -65.7472   52.9374 C   0  0  0  0  0  0  0  0  0  0  0  0
  -41.9689  -66.3423   52.4326 C   0  0  0  0  0  0  0  0  0  0  0  0
  -41.3928  -67.3904   53.1055 C   0  0  0  0  0  0  0  0  0  0  0  0
  -41.9445  -67.8508   54.2605 C   0  0  0  0  0  0  0  0  0  0  0  0
  -41.3541  -68.9182   54.9417 C   0  0  0  0  0  0  0  0  0  0  0  0
  -40.2151  -69.5298   54.4775 C   0  0  0  0  0  0  0  0  0  0  0  0
  -39.6642  -69.0616   53.3121 C   0  0  0  0  0  0  0  0  0  0  0  0
  -40.2339  -68.0105   52.6287 C   0  0  0  0  0  0  0  0  0  0  0  0
  -43.0231  -67.2741   54.7065 O   0  0  0  0  0  0  0  0  0  0  0  0
  -43.6310  -66.2571   54.1063 C   0  0  0  0  0  0  0  0  0  0  0  0
  -44.6652  -65.7935   54.6417 O   0  0  0  0  0  0  0  0  0  0  0  0
 11 12  1  0  0  0
 12 13  1  0  0  0
 12 16  2  0  0  0
 13 14  1  0  0  0
 14 15  2  0  0  0
 14  6  1  0  0  0
 15 16  1  0  0  0
  6  7  2  0  0  0
  6 10  1  0  0  0
  7  8  1  0  0  0
  8  9  1  0  0  0
  9 10  2  0  0  0
  9  2  1  0  0  0
  2  3  2  0  0  0
  2  4  1  0  0  0
  4  1  1  0  0  0
  1 17  1  0  0  0
 17 18  1  0  0  0
 18 19  1  0  0  0
 19 20  2  0  0  0
 19 22  1  0  0  0
 22 23  2  0  0  0
 22 31  1  0  0  0
 23 24  1  0  0  0
 24 25  2  0  0  0
 24 29  1  0  0  0
 25 26  1  0  0  0
 25 30  1  0  0  0
 26 27  2  0  0  0
 27 28  1  0  0  0
 28 29  2  0  0  0
 30 31  1  0  0  0
 31 32  2  0  0  0
  4  5  1  0  0  0
 18 21  1  0  0  0
M  END
> <minimizedAffinity>
-9.42466

$$$$
769


 26 29  0  0  0  0  0  0  0  0999 V2000
  -34.3572  -67.5584   50.3872 C   0  0  0  0  0  0  0  0  0  0  0  0
  -33.3026  -68.1544   50.9109 O   0  0  0  0  0  0  0  0  0  0  0  0
  -35.5639  -68.2208   50.5572 N   0  0  0  0  0  0  0  0  0  0  0  0
  -35.5758  -69.5104   51.2937 C   0  0  0  0  0  0  0  0  0  0  0  0
  -36.5493  -69.4022   52.4433 C   0  0  0  0  0  0  0  0  0  0  0  0
  -37.8278  -69.0691   51.9528 N   0  0  0  0  0  0  0  0  0  0  0  0
  -37.8383  -68.9044   50.5395 C   0  0  0  0  0  0  0  0  0  0  0  0
  -36.8361  -67.8091   50.1020 C   0  0  0  0  0  0  0  0  0  0  0  0
  -35.5580  -62.5742   48.8253 Br  0  0  0  0  0  0  0  0  0  0  0  0
  -34.4367  -64.0790   48.9921 C   0  0  0  0  0  0  0  0  0  0  0  0
  -34.8626  -65.2427   49.6397 C   0  0  0  0  0  0  0  0  0  0  0  0
  -34.0109  -66.3099   49.7353 C   0  0  0  0  0  0  0  0  0  0  0  0
  -32.7428  -66.1605   49.1662 C   0  0  0  0  0  0  0  0  0  0  0  0
  -32.3937  -65.0622   48.5760 O   0  0  0  0  0  0  0  0  0  0  0  0
  -33.1680  -64.0407   48.4676 C   0  0  0  0  0  0  0  0  0  0  0  0
  -32.7365  -63.0170   47.8763 O   0  0  0  0  0  0  0  0  0  0  0  0
  -38.9131  -69.8727   52.4179 C   0  0  0  0  0  0  0  0  0  0  0  0
  -39.9875  -69.1482   53.1201 C   0  0  0  0  0  0  0  0  0  0  0  0
  -40.8112  -68.2362   52.5456 C   0  0  0  0  0  0  0  0  0  0  0  0
  -41.7833  -67.6090   53.2847 C   0  0  0  0  0  0  0  0  0  0  0  0
  -41.9206  -67.9069   54.6134 C   0  0  0  0  0  0  0  0  0  0  0  0
  -41.0965  -68.8291   55.2184 C   0  0  0  0  0  0  0  0  0  0  0  0
  -40.1446  -69.4343   54.4640 C   0  0  0  0  0  0  0  0  0  0  0  0
  -42.9548  -67.1599   55.1510 O   0  0  0  0  0  0  0  0  0  0  0  0
  -43.2169  -66.1202   54.2192 C   0  0  0  0  0  0  0  0  0  0  0  0
  -42.7619  -66.6475   52.9877 O   0  0  0  0  0  0  0  0  0  0  0  0
  9 10  1  0  0  0
 10 11  2  0  0  0
 10 15  1  0  0  0
 11 12  1  0  0  0
 12 13  2  0  0  0
 12  1  1  0  0  0
 13 14  1  0  0  0
 14 15  1  0  0  0
 15 16  2  0  0  0
  1  2  2  0  0  0
  1  3  1  0  0  0
  3  4  1  0  0  0
  3  8  1  0  0  0
  4  5  1  0  0  0
  5  6  1  0  0  0
  6  7  1  0  0  0
  6 17  1  0  0  0
  7  8  1  0  0  0
 17 18  1  0  0  0
 18 19  2  0  0  0
 18 23  1  0  0  0
 19 20  1  0  0  0
 20 21  2  0  0  0
 20 26  1  0  0  0
 21 22  1  0  0  0
 21 24  1  0  0  0
 22 23  2  0  0  0
 24 25  1  0  0  0
 25 26  1  0  0  0
M  END
> <minimizedAffinity>
-8.47463

$$$$
776


 38 41  0  0  0  0  0  0  0  0999 V2000
  -33.8569  -65.1367   49.2966 C   0  0  0  0  0  0  0  0  0  0  0  0
  -33.6828  -66.5720   48.7835 C   0  0  0  0  0  0  0  0  0  0  0  0
  -35.0126  -67.1127   48.3837 C   0  0  0  0  0  0  0  0  0  0  0  0
  -35.8979  -67.1713   49.6083 C   0  0  0  0  0  0  0  0  0  0  0  0
  -35.4505  -66.3532   50.6288 O   0  0  0  0  0  0  0  0  0  0  0  0
  -35.0455  -65.0972   50.1984 C   0  0  0  0  0  0  0  0  0  0  0  0
  -37.2907  -66.8930   49.1740 C   0  0  0  0  0  0  0  0  0  0  0  0
  -38.2085  -66.9869   50.4028 C   0  0  0  0  0  0  0  0  0  0  0  0
  -38.2249  -68.3476   50.8278 N   0  0  0  0  0  0  0  0  0  0  0  0
  -37.2206  -69.2270   50.1403 C   0  0  0  0  0  0  0  0  0  0  0  0
  -35.8684  -68.5942   50.1243 C   0  0  0  0  0  0  0  0  0  0  0  0
  -39.0534  -68.8987   51.7857 C   0  0  0  0  0  0  0  0  0  0  0  0
  -38.8948  -70.1899   51.9909 O   0  0  0  0  0  0  0  0  0  0  0  0
  -33.2249  -67.3232   49.8688 O   0  0  0  0  0  0  0  0  0  0  0  0
  -32.6465  -66.6414   47.7089 C   0  0  0  0  0  0  0  0  0  0  0  0
  -32.8415  -66.7635   50.5899 H   0  0  0  0  0  0  0  0  0  0  0  0
  -36.1551  -63.1253   45.0077 Br  0  0  0  0  0  0  0  0  0  0  0  0
  -34.7480  -63.1426   46.2888 C   0  0  0  0  0  0  0  0  0  0  0  0
  -34.7890  -64.0794   47.2902 C   0  0  0  0  0  0  0  0  0  0  0  0
  -33.8438  -64.1739   48.2426 N   0  0  0  0  0  0  0  0  0  0  0  0
  -32.8302  -63.2619   48.1406 C   0  0  0  0  0  0  0  0  0  0  0  0
  -31.9019  -63.2863   49.0003 O   0  0  0  0  0  0  0  0  0  0  0  0
  -32.7611  -62.3452   47.1884 N   0  0  0  0  0  0  0  0  0  0  0  0
  -33.7052  -62.2510   46.2367 C   0  0  0  0  0  0  0  0  0  0  0  0
  -33.6752  -61.3975   45.3164 O   0  0  0  0  0  0  0  0  0  0  0  0
  -31.9761  -61.6628   47.1358 H   0  0  0  0  0  0  0  0  0  0  0  0
  -40.0576  -68.3093   52.5983 C   0  0  0  0  0  0  0  0  0  0  0  0
  -41.0191  -67.4566   52.0265 C   0  0  0  0  0  0  0  0  0  0  0  0
  -42.0356  -66.8486   52.6918 C   0  0  0  0  0  0  0  0  0  0  0  0
  -42.1231  -67.1056   54.0757 C   0  0  0  0  0  0  0  0  0  0  0  0
  -41.2099  -67.9229   54.6488 C   0  0  0  0  0  0  0  0  0  0  0  0
  -40.1683  -68.5362   53.9319 C   0  0  0  0  0  0  0  0  0  0  0  0
  -42.9464  -66.0239   52.1018 O   0  0  0  0  0  0  0  0  0  0  0  0
  -44.2980  -65.9084   52.2352 C   0  0  0  0  0  0  0  0  0  0  0  0
  -44.7092  -64.6686   52.9529 C   0  0  0  0  0  0  0  0  0  0  0  0
  -43.8958  -63.5430   52.4908 N   0  0  0  0  0  0  0  0  0  0  0  0
  -44.2467  -63.1467   51.6069 H   0  0  0  0  0  0  0  0  0  0  0  0
  -42.8907  -63.7408   52.5138 H   0  0  0  0  0  0  0  0  0  0  0  0
 17 18  1  0  0  0
 18 19  2  0  0  0
 18 24  1  0  0  0
 19 20  1  0  0  0
 20 21  1  0  0  0
 20  1  1  0  0  0
 21 22  2  0  0  0
 21 23  1  0  0  0
 23 24  1  0  0  0
 24 25  2  0  0  0
  1  2  1  0  0  0
  1  6  1  0  0  0
  2  3  1  0  0  0
  2 14  1  0  0  0
  2 15  1  0  0  0
  3  4  1  0  0  0
  4  5  1  0  0  0
  4  7  1  0  0  0
  4 11  1  0  0  0
  5  6  1  0  0  0
  7  8  1  0  0  0
  8  9  1  0  0  0
  9 10  1  0  0  0
  9 12  1  0  0  0
 10 11  1  0  0  0
 12 13  2  0  0  0
 12 27  1  0  0  0
 27 28  2  0  0  0
 27 32  1  0  0  0
 28 29  1  0  0  0
 29 30  2  0  0  0
 29 33  1  0  0  0
 30 31  1  0  0  0
 31 32  2  0  0  0
 33 34  1  0  0  0
 34 35  1  0  0  0
 35 36  1  0  0  0
 23 26  1  0  0  0
 36 37  1  0  0  0
 36 38  1  0  0  0
 14 16  1  0  0  0
M  END
> <minimizedAffinity>
-9.07810

$$$$
783


 39 42  0  0  0  0  0  0  0  0999 V2000
  -39.8785  -65.3984   48.2506 C   0  0  0  0  0  0  0  0  0  0  0  0
  -40.1843  -66.2232   49.4362 C   0  0  0  0  0  0  0  0  0  0  0  0
  -41.4550  -65.7992   50.1825 C   0  0  0  0  0  0  0  0  0  0  0  0
  -41.3946  -64.3359   50.5439 C   0  0  0  0  0  0  0  0  0  0  0  0
  -40.5108  -63.6440   49.7373 O   0  0  0  0  0  0  0  0  0  0  0  0
  -40.4771  -64.0307   48.4333 C   0  0  0  0  0  0  0  0  0  0  0  0
  -41.0057  -64.2447   52.0085 C   0  0  0  0  0  0  0  0  0  0  0  0
  -42.2309  -64.1039   52.8712 C   0  0  0  0  0  0  0  0  0  0  0  0
  -43.2651  -64.9598   52.3485 N   0  0  0  0  0  0  0  0  0  0  0  0
  -43.8214  -64.5674   51.0621 C   0  0  0  0  0  0  0  0  0  0  0  0
  -42.7717  -63.7487   50.3461 C   0  0  0  0  0  0  0  0  0  0  0  0
  -43.7051  -66.0792   53.0593 C   0  0  0  0  0  0  0  0  0  0  0  0
  -44.6284  -66.7660   52.4878 O   0  0  0  0  0  0  0  0  0  0  0  0
  -40.4932  -67.5258   48.9667 O   0  0  0  0  0  0  0  0  0  0  0  0
  -39.0635  -66.3998   50.4084 C   0  0  0  0  0  0  0  0  0  0  0  0
  -41.1262  -67.4997   48.2119 H   0  0  0  0  0  0  0  0  0  0  0  0
  -35.4514  -62.5635   48.4744 Br  0  0  0  0  0  0  0  0  0  0  0  0
  -36.4381  -64.1294   47.9594 C   0  0  0  0  0  0  0  0  0  0  0  0
  -37.7744  -64.2396   48.2672 C   0  0  0  0  0  0  0  0  0  0  0  0
  -38.4704  -65.3164   47.9182 N   0  0  0  0  0  0  0  0  0  0  0  0
  -37.8875  -66.3152   47.2604 C   0  0  0  0  0  0  0  0  0  0  0  0
  -38.5213  -67.3643   46.9080 O   0  0  0  0  0  0  0  0  0  0  0  0
  -36.5845  -66.2264   46.9520 N   0  0  0  0  0  0  0  0  0  0  0  0
  -35.8281  -65.1621   47.2784 C   0  0  0  0  0  0  0  0  0  0  0  0
  -34.6007  -65.1083   46.9727 O   0  0  0  0  0  0  0  0  0  0  0  0
  -36.1184  -67.0260   46.4258 H   0  0  0  0  0  0  0  0  0  0  0  0
  -43.2714  -66.5804   54.3592 C   0  0  0  0  0  0  0  0  0  0  0  0
  -44.0928  -66.0547   55.4505 N   0  0  0  0  0  0  0  0  0  0  0  0
  -44.3458  -65.0568   55.2828 H   0  0  0  0  0  0  0  0  0  0  0  0
  -43.5213  -66.0681   56.3313 H   0  0  0  0  0  0  0  0  0  0  0  0
  -43.2947  -68.0848   54.5118 C   0  0  0  0  0  0  0  0  0  0  0  0
  -41.9122  -68.5606   54.1333 C   0  0  0  0  0  0  0  0  0  0  0  0
  -41.5019  -68.5192   52.8266 C   0  0  0  0  0  0  0  0  0  0  0  0
  -40.2198  -68.9678   52.5216 C   0  0  0  0  0  0  0  0  0  0  0  0
  -39.3684  -69.4443   53.4920 C   0  0  0  0  0  0  0  0  0  0  0  0
  -39.8183  -69.4699   54.7970 C   0  0  0  0  0  0  0  0  0  0  0  0
  -41.0842  -69.0333   55.1307 C   0  0  0  0  0  0  0  0  0  0  0  0
  -38.1064  -69.8761   53.1310 O   0  0  0  0  0  0  0  0  0  0  0  0
  -37.8868  -70.8351   52.8620 H   0  0  0  0  0  0  0  0  0  0  0  0
 17 18  1  0  0  0
 18 19  2  0  0  0
 18 24  1  0  0  0
 19 20  1  0  0  0
 20 21  1  0  0  0
 20  1  1  0  0  0
 21 22  2  0  0  0
 21 23  1  0  0  0
 23 24  1  0  0  0
 24 25  2  0  0  0
  1  2  1  0  0  0
  1  6  1  0  0  0
  2  3  1  0  0  0
  2 14  1  0  0  0
  2 15  1  0  0  0
  3  4  1  0  0  0
  4  5  1  0  0  0
  4  7  1  0  0  0
  4 11  1  0  0  0
  5  6  1  0  0  0
  7  8  1  0  0  0
  8  9  1  0  0  0
  9 10  1  0  0  0
  9 12  1  0  0  0
 10 11  1  0  0  0
 12 13  2  0  0  0
 12 27  1  0  0  0
 27 28  1  0  0  0
 27 31  1  0  0  0
 31 32  1  0  0  0
 32 33  2  0  0  0
 32 37  1  0  0  0
 33 34  1  0  0  0
 34 35  2  0  0  0
 35 36  1  0  0  0
 35 38  1  0  0  0
 36 37  2  0  0  0
 23 26  1  0  0  0
 28 29  1  0  0  0
 28 30  1  0  0  0
 38 39  1  0  0  0
 14 16  1  0  0  0
M  END
> <minimizedAffinity>
-7.70045

$$$$
784


 39 42  0  0  0  0  0  0  0  0999 V2000
  -39.5343  -64.9806   48.1461 C   0  0  0  0  0  0  0  0  0  0  0  0
  -38.7440  -64.6349   49.4189 C   0  0  0  0  0  0  0  0  0  0  0  0
  -37.5757  -65.6304   49.4093 C   0  0  0  0  0  0  0  0  0  0  0  0
  -38.0793  -67.0378   49.2484 C   0  0  0  0  0  0  0  0  0  0  0  0
  -39.4500  -67.0409   49.3442 O   0  0  0  0  0  0  0  0  0  0  0  0
  -40.1087  -66.3218   48.3501 C   0  0  0  0  0  0  0  0  0  0  0  0
  -37.5540  -67.8159   50.4473 C   0  0  0  0  0  0  0  0  0  0  0  0
  -36.1553  -68.3028   50.1647 C   0  0  0  0  0  0  0  0  0  0  0  0
  -35.5307  -67.4830   49.1128 N   0  0  0  0  0  0  0  0  0  0  0  0
  -36.1058  -67.6198   47.8075 C   0  0  0  0  0  0  0  0  0  0  0  0
  -37.6136  -67.7325   48.0187 C   0  0  0  0  0  0  0  0  0  0  0  0
  -34.4787  -66.6056   49.3737 C   0  0  0  0  0  0  0  0  0  0  0  0
  -34.0377  -66.4374   50.5765 O   0  0  0  0  0  0  0  0  0  0  0  0
  -38.2330  -63.3559   49.3816 O   0  0  0  0  0  0  0  0  0  0  0  0
  -39.5928  -64.7766   50.6424 C   0  0  0  0  0  0  0  0  0  0  0  0
  -38.1012  -63.0319   50.3087 H   0  0  0  0  0  0  0  0  0  0  0  0
  -44.0637  -62.2911   48.3789 Br  0  0  0  0  0  0  0  0  0  0  0  0
  -42.3318  -62.5845   47.6709 C   0  0  0  0  0  0  0  0  0  0  0  0
  -41.5816  -63.6548   48.1584 C   0  0  0  0  0  0  0  0  0  0  0  0
  -40.3543  -63.9250   47.7081 N   0  0  0  0  0  0  0  0  0  0  0  0
  -39.8683  -63.0929   46.7380 C   0  0  0  0  0  0  0  0  0  0  0  0
  -38.7134  -63.3064   46.2791 O   0  0  0  0  0  0  0  0  0  0  0  0
  -40.5677  -62.0553   46.2486 N   0  0  0  0  0  0  0  0  0  0  0  0
  -41.8048  -61.7707   46.6928 C   0  0  0  0  0  0  0  0  0  0  0  0
  -42.4686  -60.7871   46.2291 O   0  0  0  0  0  0  0  0  0  0  0  0
  -40.1198  -61.4620   45.5007 H   0  0  0  0  0  0  0  0  0  0  0  0
  -33.8117  -65.8292   48.3402 C   0  0  0  0  0  0  0  0  0  0  0  0
  -33.8590  -64.4187   48.6400 N   0  0  0  0  0  0  0  0  0  0  0  0
  -34.7840  -63.4708   48.2192 C   0  0  0  0  0  0  0  0  0  0  0  0
  -35.7591  -63.6893   47.4710 O   0  0  0  0  0  0  0  0  0  0  0  0
  -34.6669  -62.0247   48.6648 C   0  0  0  0  0  0  0  0  0  0  0  0
  -33.0675  -64.0768   49.2679 H   0  0  0  0  0  0  0  0  0  0  0  0
  -32.3189  -66.2547   48.1746 C   0  0  0  0  0  0  0  0  0  0  0  0
  -32.2070  -67.3028   47.1447 C   0  0  0  0  0  0  0  0  0  0  0  0
  -31.4897  -68.4152   47.1413 N   0  0  0  0  0  0  0  0  0  0  0  0
  -31.6672  -69.1195   45.9898 C   0  0  0  0  0  0  0  0  0  0  0  0
  -32.5357  -68.4084   45.2462 N   0  0  0  0  0  0  0  0  0  0  0  0
  -32.8763  -67.2970   45.9323 C   0  0  0  0  0  0  0  0  0  0  0  0
  -32.8608  -68.7116   44.2962 H   0  0  0  0  0  0  0  0  0  0  0  0
 17 18  1  0  0  0
 18 19  2  0  0  0
 18 24  1  0  0  0
 19 20  1  0  0  0
 20 21  1  0  0  0
 20  1  1  0  0  0
 21 22  2  0  0  0
 21 23  1  0  0  0
 23 24  1  0  0  0
 24 25  2  0  0  0
  1  2  1  0  0  0
  1  6  1  0  0  0
  2  3  1  0  0  0
  2 14  1  0  0  0
  2 15  1  0  0  0
  3  4  1  0  0  0
  4  5  1  0  0  0
  4  7  1  0  0  0
  4 11  1  0  0  0
  5  6  1  0  0  0
  7  8  1  0  0  0
  8  9  1  0  0  0
  9 10  1  0  0  0
  9 12  1  0  0  0
 10 11  1  0  0  0
 12 13  2  0  0  0
 12 27  1  0  0  0
 27 28  1  0  0  0
 27 33  1  0  0  0
 28 29  1  0  0  0
 29 30  2  0  0  0
 29 31  1  0  0  0
 33 34  1  0  0  0
 34 35  1  0  0  0
 34 38  2  0  0  0
 35 36  2  0  0  0
 36 37  1  0  0  0
 37 38  1  0  0  0
 23 26  1  0  0  0
 28 32  1  0  0  0
 37 39  1  0  0  0
 14 16  1  0  0  0
M  END
> <minimizedAffinity>
-6.84724

$$$$
786


 25 28  0  0  0  0  0  0  0  0999 V2000
  -36.4916  -67.5535   49.9034 N   0  0  0  0  0  0  0  0  0  0  0  0
  -35.1494  -67.1502   49.8247 C   0  0  0  0  0  0  0  0  0  0  0  0
  -34.2409  -67.9316   50.1759 O   0  0  0  0  0  0  0  0  0  0  0  0
  -37.2383  -66.8958   49.6089 H   0  0  0  0  0  0  0  0  0  0  0  0
  -34.7984  -65.8067   49.3283 C   0  0  0  0  0  0  0  0  0  0  0  0
  -33.4873  -65.8432   48.5843 C   0  0  0  0  0  0  0  0  0  0  0  0
  -33.6602  -66.7530   47.4681 N   0  0  0  0  0  0  0  0  0  0  0  0
  -34.8341  -66.8057   46.8178 C   0  0  0  0  0  0  0  0  0  0  0  0
  -34.6997  -67.7272   45.8430 N   0  0  0  0  0  0  0  0  0  0  0  0
  -33.4999  -68.2270   45.8801 N   0  0  0  0  0  0  0  0  0  0  0  0
  -32.8441  -67.6308   46.8839 C   0  0  0  0  0  0  0  0  0  0  0  0
  -31.4257  -67.9583   47.2275 C   0  0  0  0  0  0  0  0  0  0  0  0
  -36.0125  -65.9894   47.1482 C   0  0  0  0  0  0  0  0  0  0  0  0
  -35.9103  -65.2860   48.4548 C   0  0  0  0  0  0  0  0  0  0  0  0
  -36.8135  -68.8759   50.3921 C   0  0  0  0  0  0  0  0  0  0  0  0
  -43.3816  -67.5562   54.4539 Br  0  0  0  0  0  0  0  0  0  0  0  0
  -41.6869  -68.2404   53.8810 C   0  0  0  0  0  0  0  0  0  0  0  0
  -41.0739  -67.8043   52.7273 C   0  0  0  0  0  0  0  0  0  0  0  0
  -39.8675  -68.2886   52.3169 N   0  0  0  0  0  0  0  0  0  0  0  0
  -39.2592  -69.2244   53.0679 C   0  0  0  0  0  0  0  0  0  0  0  0
  -38.0958  -69.5515   52.4794 N   0  0  0  0  0  0  0  0  0  0  0  0
  -37.9465  -68.8333   51.3511 C   0  0  0  0  0  0  0  0  0  0  0  0
  -39.0713  -68.0406   51.2606 C   0  0  0  0  0  0  0  0  0  0  0  0
  -39.8524  -69.6857   54.2396 C   0  0  0  0  0  0  0  0  0  0  0  0
  -41.0672  -69.1995   54.6537 C   0  0  0  0  0  0  0  0  0  0  0  0
 16 17  1  0  0  0
 17 18  2  0  0  0
 17 25  1  0  0  0
 18 19  1  0  0  0
 19 20  1  0  0  0
 19 23  1  0  0  0
 20 21  2  0  0  0
 20 24  1  0  0  0
 21 22  1  0  0  0
 22 23  2  0  0  0
 22 15  1  0  0  0
 15  1  1  0  0  0
  1  2  1  0  0  0
  2  3  2  0  0  0
  2  5  1  0  0  0
  5  6  1  0  0  0
  5 14  1  0  0  0
  6  7  1  0  0  0
  7  8  1  0  0  0
  7 11  1  0  0  0
  8  9  2  0  0  0
  8 13  1  0  0  0
  9 10  1  0  0  0
 10 11  2  0  0  0
 11 12  1  0  0  0
 13 14  1  0  0  0
 24 25  2  0  0  0
  1  4  1  0  0  0
M  END
> <minimizedAffinity>
-7.66100

$$$$
789


 21 24  0  0  0  0  0  0  0  0999 V2000
  -36.6419  -67.6040   48.5965 C   0  0  0  0  0  0  0  0  0  0  0  0
  -36.6420  -68.3393   47.5725 O   0  0  0  0  0  0  0  0  0  0  0  0
  -35.9025  -66.3950   48.5506 N   0  0  0  0  0  0  0  0  0  0  0  0
  -35.1951  -66.0380   47.3757 C   0  0  0  0  0  0  0  0  0  0  0  0
  -34.0172  -65.1713   47.6221 C   0  0  0  0  0  0  0  0  0  0  0  0
  -33.7833  -64.8027   48.9890 N   0  0  0  0  0  0  0  0  0  0  0  0
  -35.0037  -64.3579   49.6359 C   0  0  0  0  0  0  0  0  0  0  0  0
  -35.9083  -65.5719   49.7295 C   0  0  0  0  0  0  0  0  0  0  0  0
  -32.7624  -63.8035   48.8999 C   0  0  0  0  0  0  0  0  0  0  0  0
  -33.0874  -63.0070   47.6611 C   0  0  0  0  0  0  0  0  0  0  0  0
  -34.1343  -63.8216   46.9346 C   0  0  0  0  0  0  0  0  0  0  0  0
  -41.7071  -68.8791   54.4067 Br  0  0  0  0  0  0  0  0  0  0  0  0
  -40.1537  -68.9689   53.2792 C   0  0  0  0  0  0  0  0  0  0  0  0
  -40.0432  -68.1990   52.1423 C   0  0  0  0  0  0  0  0  0  0  0  0
  -38.9517  -68.2514   51.3354 N   0  0  0  0  0  0  0  0  0  0  0  0
  -38.6078  -67.6330   50.2165 N   0  0  0  0  0  0  0  0  0  0  0  0
  -37.4025  -68.0255   49.7813 C   0  0  0  0  0  0  0  0  0  0  0  0
  -36.9904  -68.9627   50.7291 C   0  0  0  0  0  0  0  0  0  0  0  0
  -37.9675  -69.0956   51.6949 C   0  0  0  0  0  0  0  0  0  0  0  0
  -38.0652  -69.8591   52.8151 N   0  0  0  0  0  0  0  0  0  0  0  0
  -39.1328  -69.8249   53.6270 C   0  0  0  0  0  0  0  0  0  0  0  0
 12 13  1  0  0  0
 13 14  2  0  0  0
 13 21  1  0  0  0
 14 15  1  0  0  0
 15 16  1  0  0  0
 15 19  1  0  0  0
 16 17  2  0  0  0
 17 18  1  0  0  0
 17  1  1  0  0  0
 18 19  2  0  0  0
 19 20  1  0  0  0
 20 21  2  0  0  0
  1  2  2  0  0  0
  1  3  1  0  0  0
  3  4  1  0  0  0
  3  8  1  0  0  0
  4  5  1  0  0  0
  5  6  1  0  0  0
  5 11  1  0  0  0
  6  7  1  0  0  0
  6  9  1  0  0  0
  7  8  1  0  0  0
  9 10  1  0  0  0
 10 11  1  0  0  0
M  END
> <minimizedAffinity>
-6.84549

$$$$
790


 25 28  0  0  0  0  0  0  0  0999 V2000
  -38.9356  -64.6321   48.2496 C   0  0  0  0  0  0  0  0  0  0  0  0
  -39.6184  -64.7429   47.1911 O   0  0  0  0  0  0  0  0  0  0  0  0
  -37.5352  -64.4125   48.1943 N   0  0  0  0  0  0  0  0  0  0  0  0
  -36.8179  -64.2954   49.4732 C   0  0  0  0  0  0  0  0  0  0  0  0
  -35.3912  -64.7293   49.1365 C   0  0  0  0  0  0  0  0  0  0  0  0
  -35.5209  -65.8151   48.2109 N   0  0  0  0  0  0  0  0  0  0  0  0
  -35.7025  -65.3428   46.8069 C   0  0  0  0  0  0  0  0  0  0  0  0
  -36.8220  -64.3054   46.9300 C   0  0  0  0  0  0  0  0  0  0  0  0
  -35.5397  -67.1755   48.4710 C   0  0  0  0  0  0  0  0  0  0  0  0
  -35.6256  -67.9711   47.4460 O   0  0  0  0  0  0  0  0  0  0  0  0
  -40.6754  -69.1918   53.3171 Br  0  0  0  0  0  0  0  0  0  0  0  0
  -40.2968  -67.8220   52.0498 C   0  0  0  0  0  0  0  0  0  0  0  0
  -40.7266  -66.5482   52.2513 C   0  0  0  0  0  0  0  0  0  0  0  0
  -40.4659  -65.5892   51.3716 N   0  0  0  0  0  0  0  0  0  0  0  0
  -40.7772  -64.2919   51.3542 N   0  0  0  0  0  0  0  0  0  0  0  0
  -40.2730  -63.7568   50.2301 C   0  0  0  0  0  0  0  0  0  0  0  0
  -39.6245  -64.7345   49.5122 C   0  0  0  0  0  0  0  0  0  0  0  0
  -39.7646  -65.8945   50.2663 C   0  0  0  0  0  0  0  0  0  0  0  0
  -39.3332  -67.1475   50.0526 N   0  0  0  0  0  0  0  0  0  0  0  0
  -39.5835  -68.1278   50.9235 C   0  0  0  0  0  0  0  0  0  0  0  0
  -35.4794  -67.8805   49.7404 C   0  0  0  0  0  0  0  0  0  0  0  0
  -36.3665  -68.8024   50.1401 O   0  0  0  0  0  0  0  0  0  0  0  0
  -36.0840  -69.2716   51.3070 C   0  0  0  0  0  0  0  0  0  0  0  0
  -34.9450  -68.6681   51.7783 C   0  0  0  0  0  0  0  0  0  0  0  0
  -34.5767  -67.7897   50.7722 C   0  0  0  0  0  0  0  0  0  0  0  0
 11 12  1  0  0  0
 12 13  2  0  0  0
 12 20  1  0  0  0
 13 14  1  0  0  0
 14 15  1  0  0  0
 14 18  1  0  0  0
 15 16  2  0  0  0
 16 17  1  0  0  0
 17 18  2  0  0  0
 17  1  1  0  0  0
 18 19  1  0  0  0
 19 20  2  0  0  0
  1  2  2  0  0  0
  1  3  1  0  0  0
  3  4  1  0  0  0
  3  8  1  0  0  0
  4  5  1  0  0  0
  5  6  1  0  0  0
  6  7  1  0  0  0
  6  9  1  0  0  0
  7  8  1  0  0  0
  9 10  2  0  0  0
  9 21  1  0  0  0
 21 22  1  0  0  0
 21 25  2  0  0  0
 22 23  1  0  0  0
 23 24  2  0  0  0
 24 25  1  0  0  0
M  END
> <minimizedAffinity>
-7.50295

$$$$
797


 28 31  0  0  0  0  0  0  0  0999 V2000
  -42.8742  -67.5862   55.0931 O   0  0  0  0  0  0  0  0  0  0  0  0
  -41.6622  -68.1973   54.8489 C   0  0  0  0  0  0  0  0  0  0  0  0
  -40.6584  -67.8617   55.5096 O   0  0  0  0  0  0  0  0  0  0  0  0
  -41.5912  -69.2422   53.8018 C   0  0  0  0  0  0  0  0  0  0  0  0
  -40.5128  -68.9870   52.8907 N   0  0  0  0  0  0  0  0  0  0  0  0
  -40.5121  -68.0402   51.8452 C   0  0  0  0  0  0  0  0  0  0  0  0
  -41.4180  -67.2418   51.4910 O   0  0  0  0  0  0  0  0  0  0  0  0
  -39.2039  -68.1109   51.1592 C   0  0  0  0  0  0  0  0  0  0  0  0
  -38.4591  -69.0721   51.7870 C   0  0  0  0  0  0  0  0  0  0  0  0
  -37.1910  -69.3741   51.3811 C   0  0  0  0  0  0  0  0  0  0  0  0
  -36.6626  -68.6884   50.3145 C   0  0  0  0  0  0  0  0  0  0  0  0
  -37.4137  -67.7174   49.6808 C   0  0  0  0  0  0  0  0  0  0  0  0
  -38.6944  -67.4052   50.0824 C   0  0  0  0  0  0  0  0  0  0  0  0
  -39.2612  -69.6340   52.8760 C   0  0  0  0  0  0  0  0  0  0  0  0
  -38.8633  -70.5510   53.6578 O   0  0  0  0  0  0  0  0  0  0  0  0
  -43.0976  -66.2010   55.1233 C   0  0  0  0  0  0  0  0  0  0  0  0
  -48.3235  -64.1609   48.9144 Br  0  0  0  0  0  0  0  0  0  0  0  0
  -47.3308  -64.8131   50.4203 C   0  0  0  0  0  0  0  0  0  0  0  0
  -46.0733  -64.3361   50.7188 C   0  0  0  0  0  0  0  0  0  0  0  0
  -45.3437  -64.7706   51.7689 N   0  0  0  0  0  0  0  0  0  0  0  0
  -45.8095  -65.7157   52.6049 C   0  0  0  0  0  0  0  0  0  0  0  0
  -45.0970  -66.1599   53.6546 N   0  0  0  0  0  0  0  0  0  0  0  0
  -43.8609  -65.6941   53.9535 C   0  0  0  0  0  0  0  0  0  0  0  0
  -43.3627  -64.7248   53.1088 C   0  0  0  0  0  0  0  0  0  0  0  0
  -44.1149  -64.2766   52.0268 C   0  0  0  0  0  0  0  0  0  0  0  0
  -43.6763  -63.4046   51.2605 O   0  0  0  0  0  0  0  0  0  0  0  0
  -47.0832  -66.2187   52.3274 C   0  0  0  0  0  0  0  0  0  0  0  0
  -47.8363  -65.7832   51.2591 C   0  0  0  0  0  0  0  0  0  0  0  0
 17 18  1  0  0  0
 18 19  2  0  0  0
 18 28  1  0  0  0
 19 20  1  0  0  0
 20 21  1  0  0  0
 20 25  1  0  0  0
 21 22  2  0  0  0
 21 27  1  0  0  0
 22 23  1  0  0  0
 23 24  2  0  0  0
 23 16  1  0  0  0
 24 25  1  0  0  0
 25 26  2  0  0  0
 16  1  1  0  0  0
  1  2  1  0  0  0
  2  3  2  0  0  0
  2  4  1  0  0  0
  4  5  1  0  0  0
  5  6  1  0  0  0
  5 14  1  0  0  0
  6  7  2  0  0  0
  6  8  1  0  0  0
  8  9  2  0  0  0
  8 13  1  0  0  0
  9 10  1  0  0  0
  9 14  1  0  0  0
 10 11  2  0  0  0
 11 12  1  0  0  0
 12 13  2  0  0  0
 14 15  2  0  0  0
 27 28  2  0  0  0
M  END
> <minimizedAffinity>
-8.78418

$$$$
800


 29 32  0  0  0  0  0  0  0  0999 V2000
  -35.9847  -68.3152   49.8349 C   0  0  0  0  0  0  0  0  0  0  0  0
  -35.1079  -68.7062   50.6482 O   0  0  0  0  0  0  0  0  0  0  0  0
  -37.2498  -68.8418   49.9396 O   0  0  0  0  0  0  0  0  0  0  0  0
  -37.6142  -69.7774   50.9369 C   0  0  0  0  0  0  0  0  0  0  0  0
  -44.1145  -66.0262   54.3958 Br  0  0  0  0  0  0  0  0  0  0  0  0
  -42.6802  -66.7416   53.3566 C   0  0  0  0  0  0  0  0  0  0  0  0
  -41.8259  -67.6550   53.9356 C   0  0  0  0  0  0  0  0  0  0  0  0
  -40.8157  -68.1599   53.2077 N   0  0  0  0  0  0  0  0  0  0  0  0
  -40.6158  -67.7981   51.9238 C   0  0  0  0  0  0  0  0  0  0  0  0
  -39.5909  -68.3198   51.2079 N   0  0  0  0  0  0  0  0  0  0  0  0
  -38.7331  -69.2126   51.7320 C   0  0  0  0  0  0  0  0  0  0  0  0
  -38.9219  -69.5943   53.0399 C   0  0  0  0  0  0  0  0  0  0  0  0
  -39.9798  -69.0554   53.7790 C   0  0  0  0  0  0  0  0  0  0  0  0
  -40.1589  -69.3933   54.9607 O   0  0  0  0  0  0  0  0  0  0  0  0
  -41.4683  -66.8832   51.3377 C   0  0  0  0  0  0  0  0  0  0  0  0
  -42.5177  -66.3355   52.0409 C   0  0  0  0  0  0  0  0  0  0  0  0
  -35.5729  -67.3081   48.8223 C   0  0  0  0  0  0  0  0  0  0  0  0
  -36.2004  -66.0361   49.0250 N   0  0  0  0  0  0  0  0  0  0  0  0
  -35.7256  -64.9775   49.8556 C   0  0  0  0  0  0  0  0  0  0  0  0
  -34.6638  -65.0148   50.5419 O   0  0  0  0  0  0  0  0  0  0  0  0
  -36.6498  -63.8991   49.7675 N   0  0  0  0  0  0  0  0  0  0  0  0
  -37.7960  -64.3295   49.0076 C   0  0  0  0  0  0  0  0  0  0  0  0
  -39.0269  -64.5118   49.8555 C   0  0  0  0  0  0  0  0  0  0  0  0
  -40.1409  -64.4648   48.8575 C   0  0  0  0  0  0  0  0  0  0  0  0
  -39.5965  -63.8892   47.5829 C   0  0  0  0  0  0  0  0  0  0  0  0
  -38.2398  -63.3471   47.9775 C   0  0  0  0  0  0  0  0  0  0  0  0
  -37.4242  -65.6147   48.4188 C   0  0  0  0  0  0  0  0  0  0  0  0
  -38.0276  -66.2738   47.5401 O   0  0  0  0  0  0  0  0  0  0  0  0
  -36.4918  -62.9692   50.1925 H   0  0  0  0  0  0  0  0  0  0  0  0
  5  6  1  0  0  0
  6  7  2  0  0  0
  6 16  1  0  0  0
  7  8  1  0  0  0
  8  9  1  0  0  0
  8 13  1  0  0  0
  9 10  2  0  0  0
  9 15  1  0  0  0
 10 11  1  0  0  0
 11 12  2  0  0  0
 11  4  1  0  0  0
 12 13  1  0  0  0
 13 14  2  0  0  0
  4  3  1  0  0  0
  3  1  1  0  0  0
  1  2  2  0  0  0
  1 17  1  0  0  0
 17 18  1  0  0  0
 18 19  1  0  0  0
 18 27  1  0  0  0
 19 20  2  0  0  0
 19 21  1  0  0  0
 21 22  1  0  0  0
 22 23  1  0  0  0
 22 26  1  0  0  0
 22 27  1  0  0  0
 23 24  1  0  0  0
 24 25  1  0  0  0
 25 26  1  0  0  0
 27 28  2  0  0  0
 15 16  2  0  0  0
 21 29  1  0  0  0
M  END
> <minimizedAffinity>
-8.05173

$$$$
803


 31 34  0  0  0  0  0  0  0  0999 V2000
  -38.0923  -64.2655   47.8334 Br  0  0  0  0  0  0  0  0  0  0  0  0
  -38.8120  -65.2671   49.2784 C   0  0  0  0  0  0  0  0  0  0  0  0
  -39.8795  -64.8658   50.0032 C   0  0  0  0  0  0  0  0  0  0  0  0
  -40.4434  -65.6048   50.9631 N   0  0  0  0  0  0  0  0  0  0  0  0
  -39.9274  -66.8055   51.2228 C   0  0  0  0  0  0  0  0  0  0  0  0
  -40.4810  -67.5739   52.2028 N   0  0  0  0  0  0  0  0  0  0  0  0
  -41.5222  -67.1857   52.9260 C   0  0  0  0  0  0  0  0  0  0  0  0
  -42.0738  -65.9497   52.6765 C   0  0  0  0  0  0  0  0  0  0  0  0
  -43.1542  -65.4864   53.4008 C   0  0  0  0  0  0  0  0  0  0  0  0
  -43.7450  -66.2376   54.4176 C   0  0  0  0  0  0  0  0  0  0  0  0
  -43.1846  -67.4733   54.6585 C   0  0  0  0  0  0  0  0  0  0  0  0
  -42.1017  -67.9417   53.9348 C   0  0  0  0  0  0  0  0  0  0  0  0
  -41.4956  -65.1822   51.6726 C   0  0  0  0  0  0  0  0  0  0  0  0
  -41.9866  -64.0560   51.4364 O   0  0  0  0  0  0  0  0  0  0  0  0
  -38.8573  -67.2305   50.5117 N   0  0  0  0  0  0  0  0  0  0  0  0
  -38.2433  -66.5565   49.5488 C   0  0  0  0  0  0  0  0  0  0  0  0
  -38.5411  -68.2079   50.8162 H   0  0  0  0  0  0  0  0  0  0  0  0
  -37.1095  -66.8714   48.8693 N   0  0  0  0  0  0  0  0  0  0  0  0
  -37.6640  -66.4992   47.6766 H   0  0  0  0  0  0  0  0  0  0  0  0
  -35.9923  -67.1815   48.1993 C   0  0  0  0  0  0  0  0  0  0  0  0
  -34.7537  -66.7370   48.6801 C   0  0  0  0  0  0  0  0  0  0  0  0
  -33.6390  -66.8267   47.9127 C   0  0  0  0  0  0  0  0  0  0  0  0
  -33.7039  -67.3615   46.6492 C   0  0  0  0  0  0  0  0  0  0  0  0
  -34.8892  -67.8226   46.1209 C   0  0  0  0  0  0  0  0  0  0  0  0
  -36.0056  -67.7183   46.9171 C   0  0  0  0  0  0  0  0  0  0  0  0
  -34.5756  -66.2990   50.0701 C   0  0  0  0  0  0  0  0  0  0  0  0
  -34.4377  -65.0672   50.2800 O   0  0  0  0  0  0  0  0  0  0  0  0
  -34.5403  -67.1175   51.1616 O   0  0  0  0  0  0  0  0  0  0  0  0
  -33.9516  -68.4036   51.1376 C   0  0  0  0  0  0  0  0  0  0  0  0
  -34.8057  -69.3921   51.9368 C   0  0  0  0  0  0  0  0  0  0  0  0
  -36.1857  -69.4416   51.3258 C   0  0  0  0  0  0  0  0  0  0  0  0
  1  2  1  0  0  0
  2  3  2  0  0  0
  2 16  1  0  0  0
  3  4  1  0  0  0
  4  5  1  0  0  0
  4 13  1  0  0  0
  5  6  2  0  0  0
  5 15  1  0  0  0
  6  7  1  0  0  0
  7  8  2  0  0  0
  7 12  1  0  0  0
  8  9  1  0  0  0
  8 13  1  0  0  0
  9 10  2  0  0  0
 10 11  1  0  0  0
 11 12  2  0  0  0
 13 14  2  0  0  0
 15 16  2  0  0  0
 16 18  1  0  0  0
 18 20  1  0  0  0
 20 21  2  0  0  0
 20 25  1  0  0  0
 21 22  1  0  0  0
 21 26  1  0  0  0
 22 23  2  0  0  0
 23 24  1  0  0  0
 24 25  2  0  0  0
 26 27  2  0  0  0
 26 28  1  0  0  0
 28 29  1  0  0  0
 29 30  1  0  0  0
 30 31  1  0  0  0
 15 17  1  0  0  0
 18 19  1  0  0  0
M  END
> <minimizedAffinity>
-7.74823

$$$$
814


 31 34  0  0  0  0  0  0  0  0999 V2000
  -42.2570  -66.3662   53.1185 N   0  0  0  0  0  0  0  0  0  0  0  0
  -41.9672  -66.1453   51.8564 N   0  0  0  0  0  0  0  0  0  0  0  0
  -41.2631  -67.1676   51.3483 C   0  0  0  0  0  0  0  0  0  0  0  0
  -41.1073  -68.0626   52.3347 N   0  0  0  0  0  0  0  0  0  0  0  0
  -41.7308  -67.5534   53.4378 C   0  0  0  0  0  0  0  0  0  0  0  0
  -41.8161  -68.1925   54.7497 C   0  0  0  0  0  0  0  0  0  0  0  0
  -40.4628  -68.4877   55.3523 C   0  0  0  0  0  0  0  0  0  0  0  0
  -39.7686  -69.6333   54.6494 C   0  0  0  0  0  0  0  0  0  0  0  0
  -39.2894  -69.2791   53.2757 C   0  0  0  0  0  0  0  0  0  0  0  0
  -40.4074  -69.3287   52.2439 C   0  0  0  0  0  0  0  0  0  0  0  0
  -42.9945  -65.5048   53.9938 C   0  0  0  0  0  0  0  0  0  0  0  0
  -44.2193  -64.9703   53.3417 C   0  0  0  0  0  0  0  0  0  0  0  0
  -44.1459  -63.8304   52.8105 O   0  0  0  0  0  0  0  0  0  0  0  0
  -49.5871  -68.0119   53.1251 Br  0  0  0  0  0  0  0  0  0  0  0  0
  -47.9180  -67.0564   53.1906 C   0  0  0  0  0  0  0  0  0  0  0  0
  -46.7482  -67.7331   53.4907 C   0  0  0  0  0  0  0  0  0  0  0  0
  -45.5380  -67.0479   53.5400 C   0  0  0  0  0  0  0  0  0  0  0  0
  -45.4701  -65.6961   53.2944 C   0  0  0  0  0  0  0  0  0  0  0  0
  -46.6522  -65.0544   52.9996 C   0  0  0  0  0  0  0  0  0  0  0  0
  -47.8603  -65.7053   52.9444 C   0  0  0  0  0  0  0  0  0  0  0  0
  -40.7455  -67.3147   49.9809 C   0  0  0  0  0  0  0  0  0  0  0  0
  -39.6919  -66.3918   49.6890 N   0  0  0  0  0  0  0  0  0  0  0  0
  -39.9132  -65.4192   49.4303 H   0  0  0  0  0  0  0  0  0  0  0  0
  -38.3136  -66.7482   49.7352 C   0  0  0  0  0  0  0  0  0  0  0  0
  -37.8871  -67.9801   50.1768 C   0  0  0  0  0  0  0  0  0  0  0  0
  -36.5577  -68.3136   50.2120 C   0  0  0  0  0  0  0  0  0  0  0  0
  -35.6277  -67.4105   49.8024 C   0  0  0  0  0  0  0  0  0  0  0  0
  -36.0505  -66.1764   49.3603 C   0  0  0  0  0  0  0  0  0  0  0  0
  -37.3853  -65.8302   49.3197 C   0  0  0  0  0  0  0  0  0  0  0  0
  -34.2880  -67.7168   49.8274 O   0  0  0  0  0  0  0  0  0  0  0  0
  -33.5853  -67.9784   51.0169 C   0  0  0  0  0  0  0  0  0  0  0  0
 14 15  1  0  0  0
 15 16  2  0  0  0
 15 20  1  0  0  0
 16 17  1  0  0  0
 17 18  2  0  0  0
 18 19  1  0  0  0
 18 12  1  0  0  0
 19 20  2  0  0  0
 12 13  2  0  0  0
 12 11  1  0  0  0
 11  1  1  0  0  0
  1  2  1  0  0  0
  1  5  2  0  0  0
  2  3  2  0  0  0
  3  4  1  0  0  0
  3 21  1  0  0  0
  4  5  1  0  0  0
  4 10  1  0  0  0
  5  6  1  0  0  0
  6  7  1  0  0  0
  7  8  1  0  0  0
  8  9  1  0  0  0
  9 10  1  0  0  0
 21 22  1  0  0  0
 22 24  1  0  0  0
 24 25  2  0  0  0
 24 29  1  0  0  0
 25 26  1  0  0  0
 26 27  2  0  0  0
 27 28  1  0  0  0
 27 30  1  0  0  0
 28 29  2  0  0  0
 30 31  1  0  0  0
 22 23  1  0  0  0
M  END
> <minimizedAffinity>
-8.68956

$$$$
827


 29 32  0  0  0  0  0  0  0  0999 V2000
  -47.7195  -64.4331   52.7702 C   0  0  0  0  0  0  0  0  0  0  0  0
  -46.9817  -65.5538   53.3484 N   0  0  0  0  0  0  0  0  0  0  0  0
  -47.8116  -66.6418   53.4689 C   0  0  0  0  0  0  0  0  0  0  0  0
  -47.6808  -67.7201   54.2008 C   0  0  0  0  0  0  0  0  0  0  0  0
  -48.5022  -68.9487   54.4022 C   0  0  0  0  0  0  0  0  0  0  0  0
  -49.8493  -68.8989   53.7530 C   0  0  0  0  0  0  0  0  0  0  0  0
  -49.7431  -68.6517   52.2667 C   0  0  0  0  0  0  0  0  0  0  0  0
  -49.9205  -67.1747   51.9746 C   0  0  0  0  0  0  0  0  0  0  0  0
  -49.0045  -66.3567   52.7021 N   0  0  0  0  0  0  0  0  0  0  0  0
  -49.2089  -64.9047   52.7908 C   0  0  0  0  0  0  0  0  0  0  0  0
  -47.6454  -63.3079   53.4958 O   0  0  0  0  0  0  0  0  0  0  0  0
  -46.9531  -65.1864   54.4269 H   0  0  0  0  0  0  0  0  0  0  0  0
  -47.8972  -62.4538   53.1153 H   0  0  0  0  0  0  0  0  0  0  0  0
  -46.5060  -63.8372   46.7579 Br  0  0  0  0  0  0  0  0  0  0  0  0
  -46.8778  -64.0113   48.6064 C   0  0  0  0  0  0  0  0  0  0  0  0
  -47.7269  -65.0132   49.0373 C   0  0  0  0  0  0  0  0  0  0  0  0
  -48.0046  -65.1614   50.3797 C   0  0  0  0  0  0  0  0  0  0  0  0
  -47.4435  -64.3175   51.3099 C   0  0  0  0  0  0  0  0  0  0  0  0
  -46.6074  -63.3308   50.8819 C   0  0  0  0  0  0  0  0  0  0  0  0
  -46.3112  -63.1620   49.5227 C   0  0  0  0  0  0  0  0  0  0  0  0
  -45.6460  -65.6157   53.0514 C   0  0  0  0  0  0  0  0  0  0  0  0
  -45.0884  -66.3427   52.0432 C   0  0  0  0  0  0  0  0  0  0  0  0
  -43.7006  -66.5062   51.8947 C   0  0  0  0  0  0  0  0  0  0  0  0
  -42.8282  -65.9269   52.7780 C   0  0  0  0  0  0  0  0  0  0  0  0
  -43.3879  -65.1827   53.8064 C   0  0  0  0  0  0  0  0  0  0  0  0
  -44.7498  -65.0263   53.9491 C   0  0  0  0  0  0  0  0  0  0  0  0
  -41.4578  -66.0857   52.6548 O   0  0  0  0  0  0  0  0  0  0  0  0
  -40.7880  -67.3181   52.5716 C   0  0  0  0  0  0  0  0  0  0  0  0
  -40.7247  -67.8529   54.0153 C   0  0  0  0  0  0  0  0  0  0  0  0
 14 15  1  0  0  0
 15 16  2  0  0  0
 15 20  1  0  0  0
 16 17  1  0  0  0
 17 18  2  0  0  0
 18 19  1  0  0  0
 18  1  1  0  0  0
 19 20  2  0  0  0
  1  2  1  0  0  0
  1 10  1  0  0  0
  1 11  1  0  0  0
  2  3  1  0  0  0
  2 21  1  0  0  0
  3  4  2  0  0  0
  3  9  1  0  0  0
  4  5  1  0  0  0
  5  6  1  0  0  0
  6  7  1  0  0  0
  7  8  1  0  0  0
  8  9  1  0  0  0
  9 10  1  0  0  0
 21 22  2  0  0  0
 21 26  1  0  0  0
 22 23  1  0  0  0
 23 24  2  0  0  0
 24 25  1  0  0  0
 24 27  1  0  0  0
 25 26  2  0  0  0
 27 28  1  0  0  0
 28 29  1  0  0  0
  2 12  1  0  0  0
 11 13  1  0  0  0
M  CHG 1   2   1
M  END
> <minimizedAffinity>
-6.40297

$$$$
833


 28 31  0  0  0  0  0  0  0  0999 V2000
  -37.4152  -66.8313   47.9057 C   0  0  0  0  0  0  0  0  0  0  0  0
  -36.6883  -65.5944   48.1562 N   0  0  0  0  0  0  0  0  0  0  0  0
  -36.9138  -64.7764   49.3426 C   0  0  0  0  0  0  0  0  0  0  0  0
  -36.3024  -63.4270   49.2489 C   0  0  0  0  0  0  0  0  0  0  0  0
  -36.6589  -62.6751   47.9928 C   0  0  0  0  0  0  0  0  0  0  0  0
  -35.5101  -62.9043   47.0286 C   0  0  0  0  0  0  0  0  0  0  0  0
  -35.3168  -64.2577   46.5979 C   0  0  0  0  0  0  0  0  0  0  0  0
  -35.8220  -65.4164   47.0801 C   0  0  0  0  0  0  0  0  0  0  0  0
  -35.4756  -66.6512   46.4973 N   0  0  0  0  0  0  0  0  0  0  0  0
  -36.4058  -67.5650   47.0939 C   0  0  0  0  0  0  0  0  0  0  0  0
  -38.5577  -66.5040   47.2229 O   0  0  0  0  0  0  0  0  0  0  0  0
  -35.5905  -66.6871   45.4582 H   0  0  0  0  0  0  0  0  0  0  0  0
  -39.1776  -65.9342   47.7248 H   0  0  0  0  0  0  0  0  0  0  0  0
  -38.8808  -69.6960   53.1162 Br  0  0  0  0  0  0  0  0  0  0  0  0
  -38.4192  -68.7916   51.4931 C   0  0  0  0  0  0  0  0  0  0  0  0
  -37.1970  -69.0339   50.9099 C   0  0  0  0  0  0  0  0  0  0  0  0
  -36.8313  -68.3900   49.7272 C   0  0  0  0  0  0  0  0  0  0  0  0
  -37.7571  -67.4986   49.1779 C   0  0  0  0  0  0  0  0  0  0  0  0
  -38.9664  -67.2509   49.7468 C   0  0  0  0  0  0  0  0  0  0  0  0
  -39.3107  -67.8999   50.9202 C   0  0  0  0  0  0  0  0  0  0  0  0
  -34.1278  -66.9111   46.8908 C   0  0  0  0  0  0  0  0  0  0  0  0
  -33.1948  -67.3598   45.9712 C   0  0  0  0  0  0  0  0  0  0  0  0
  -31.9330  -67.6565   46.4699 C   0  0  0  0  0  0  0  0  0  0  0  0
  -31.5735  -67.5305   47.7989 C   0  0  0  0  0  0  0  0  0  0  0  0
  -32.5582  -67.0694   48.6983 C   0  0  0  0  0  0  0  0  0  0  0  0
  -33.7780  -66.7832   48.2011 C   0  0  0  0  0  0  0  0  0  0  0  0
  -33.5355  -67.4858   44.6592 O   0  0  0  0  0  0  0  0  0  0  0  0
  -32.9289  -66.7058   43.6622 C   0  0  0  0  0  0  0  0  0  0  0  0
 14 15  1  0  0  0
 15 16  2  0  0  0
 15 20  1  0  0  0
 16 17  1  0  0  0
 17 18  2  0  0  0
 18 19  1  0  0  0
 18  1  1  0  0  0
 19 20  2  0  0  0
  1  2  1  0  0  0
  1 10  1  0  0  0
  1 11  1  0  0  0
  2  3  1  0  0  0
  2  8  1  0  0  0
  3  4  1  0  0  0
  4  5  1  0  0  0
  5  6  1  0  0  0
  6  7  1  0  0  0
  7  8  2  0  0  0
  8  9  1  0  0  0
  9 10  1  0  0  0
  9 21  1  0  0  0
 21 22  2  0  0  0
 21 26  1  0  0  0
 22 23  1  0  0  0
 22 27  1  0  0  0
 23 24  2  0  0  0
 24 25  1  0  0  0
 25 26  2  0  0  0
 27 28  1  0  0  0
  9 12  1  0  0  0
 11 13  1  0  0  0
M  CHG 1   9   1
M  END
> <minimizedAffinity>
-7.41309

$$$$
834


 28 31  0  0  0  0  0  0  0  0999 V2000
  -39.7576  -65.8107   49.8763 C   0  0  0  0  0  0  0  0  0  0  0  0
  -38.4647  -65.9000   49.2778 N   0  0  0  0  0  0  0  0  0  0  0  0
  -37.8807  -67.0200   48.6066 C   0  0  0  0  0  0  0  0  0  0  0  0
  -36.4853  -67.3706   48.9521 C   0  0  0  0  0  0  0  0  0  0  0  0
  -35.7875  -66.5000   49.9334 C   0  0  0  0  0  0  0  0  0  0  0  0
  -35.4152  -65.1415   49.3385 C   0  0  0  0  0  0  0  0  0  0  0  0
  -36.6101  -64.2584   49.5124 C   0  0  0  0  0  0  0  0  0  0  0  0
  -37.8923  -64.5807   49.4868 C   0  0  0  0  0  0  0  0  0  0  0  0
  -38.9517  -63.6520   49.6835 N   0  0  0  0  0  0  0  0  0  0  0  0
  -39.8193  -64.4230   50.5234 C   0  0  0  0  0  0  0  0  0  0  0  0
  -40.7950  -65.9476   48.9336 O   0  0  0  0  0  0  0  0  0  0  0  0
  -38.5548  -62.8127   50.1762 H   0  0  0  0  0  0  0  0  0  0  0  0
  -41.4605  -65.2571   49.1843 H   0  0  0  0  0  0  0  0  0  0  0  0
  -41.3782  -69.3119   54.6949 Br  0  0  0  0  0  0  0  0  0  0  0  0
  -40.8532  -68.2694   53.1793 C   0  0  0  0  0  0  0  0  0  0  0  0
  -40.0784  -68.8112   52.1760 C   0  0  0  0  0  0  0  0  0  0  0  0
  -39.7046  -68.0362   51.0852 C   0  0  0  0  0  0  0  0  0  0  0  0
  -40.0768  -66.7394   50.9583 C   0  0  0  0  0  0  0  0  0  0  0  0
  -40.8691  -66.1794   51.9827 C   0  0  0  0  0  0  0  0  0  0  0  0
  -41.2324  -66.9540   53.0541 C   0  0  0  0  0  0  0  0  0  0  0  0
  -39.5149  -63.3260   48.4394 C   0  0  0  0  0  0  0  0  0  0  0  0
  -40.8365  -62.8517   48.3491 C   0  0  0  0  0  0  0  0  0  0  0  0
  -41.4156  -62.5294   47.1515 C   0  0  0  0  0  0  0  0  0  0  0  0
  -40.7165  -62.6571   45.9702 C   0  0  0  0  0  0  0  0  0  0  0  0
  -39.4265  -63.1170   46.0324 C   0  0  0  0  0  0  0  0  0  0  0  0
  -38.8437  -63.4425   47.2400 C   0  0  0  0  0  0  0  0  0  0  0  0
  -41.3204  -62.3224   44.7432 O   0  0  0  0  0  0  0  0  0  0  0  0
  -40.7206  -62.7124   43.5364 C   0  0  0  0  0  0  0  0  0  0  0  0
 14 15  1  0  0  0
 15 16  2  0  0  0
 15 20  1  0  0  0
 16 17  1  0  0  0
 17 18  2  0  0  0
 18 19  1  0  0  0
 18  1  1  0  0  0
 19 20  2  0  0  0
  1  2  1  0  0  0
  1 10  1  0  0  0
  1 11  1  0  0  0
  2  3  1  0  0  0
  2  8  1  0  0  0
  3  4  1  0  0  0
  4  5  1  0  0  0
  5  6  1  0  0  0
  6  7  1  0  0  0
  7  8  2  0  0  0
  8  9  1  0  0  0
  9 10  1  0  0  0
  9 21  1  0  0  0
 21 22  2  0  0  0
 21 26  1  0  0  0
 22 23  1  0  0  0
 23 24  2  0  0  0
 24 25  1  0  0  0
 24 27  1  0  0  0
 25 26  2  0  0  0
 27 28  1  0  0  0
  9 12  1  0  0  0
 11 13  1  0  0  0
M  CHG 1   9   1
M  END
> <minimizedAffinity>
-7.43993

$$$$
835


 27 30  0  0  0  0  0  0  0  0999 V2000
  -39.8548  -65.9641   50.3035 C   0  0  0  0  0  0  0  0  0  0  0  0
  -38.7511  -66.8926   50.1856 N   0  0  0  0  0  0  0  0  0  0  0  0
  -37.3841  -66.8768   49.7091 C   0  0  0  0  0  0  0  0  0  0  0  0
  -36.4816  -67.7760   50.5290 C   0  0  0  0  0  0  0  0  0  0  0  0
  -37.0316  -69.1617   50.4792 C   0  0  0  0  0  0  0  0  0  0  0  0
  -38.4672  -69.1918   50.8306 C   0  0  0  0  0  0  0  0  0  0  0  0
  -39.2603  -68.1257   50.6891 C   0  0  0  0  0  0  0  0  0  0  0  0
  -40.6406  -68.0332   50.9620 N   0  0  0  0  0  0  0  0  0  0  0  0
  -41.0451  -66.8667   50.1505 C   0  0  0  0  0  0  0  0  0  0  0  0
  -39.9245  -65.3681   51.5584 O   0  0  0  0  0  0  0  0  0  0  0  0
  -41.1792  -68.8310   50.4887 H   0  0  0  0  0  0  0  0  0  0  0  0
  -40.8513  -65.0448   51.6671 H   0  0  0  0  0  0  0  0  0  0  0  0
  -39.7293  -61.3692   46.1380 Br  0  0  0  0  0  0  0  0  0  0  0  0
  -39.7638  -62.8082   47.4092 C   0  0  0  0  0  0  0  0  0  0  0  0
  -39.8581  -62.5176   48.7516 C   0  0  0  0  0  0  0  0  0  0  0  0
  -39.8885  -63.5703   49.6656 C   0  0  0  0  0  0  0  0  0  0  0  0
  -39.8279  -64.8920   49.2792 C   0  0  0  0  0  0  0  0  0  0  0  0
  -39.7345  -65.1575   47.9261 C   0  0  0  0  0  0  0  0  0  0  0  0
  -39.7037  -64.1252   47.0076 C   0  0  0  0  0  0  0  0  0  0  0  0
  -41.0168  -67.8754   52.2916 C   0  0  0  0  0  0  0  0  0  0  0  0
  -42.1264  -67.1726   52.6904 C   0  0  0  0  0  0  0  0  0  0  0  0
  -42.4343  -67.0378   54.0460 C   0  0  0  0  0  0  0  0  0  0  0  0
  -41.6377  -67.6035   55.0081 C   0  0  0  0  0  0  0  0  0  0  0  0
  -40.5229  -68.3128   54.6172 C   0  0  0  0  0  0  0  0  0  0  0  0
  -40.2262  -68.4419   53.2837 C   0  0  0  0  0  0  0  0  0  0  0  0
  -42.9839  -66.5726   51.7903 O   0  0  0  0  0  0  0  0  0  0  0  0
  -44.1207  -65.8978   52.2163 C   0  0  0  0  0  0  0  0  0  0  0  0
 13 14  1  0  0  0
 14 15  2  0  0  0
 14 19  1  0  0  0
 15 16  1  0  0  0
 16 17  2  0  0  0
 17 18  1  0  0  0
 17  1  1  0  0  0
 18 19  2  0  0  0
  1  2  1  0  0  0
  1  9  1  0  0  0
  1 10  1  0  0  0
  2  3  1  0  0  0
  2  7  1  0  0  0
  3  4  1  0  0  0
  4  5  1  0  0  0
  5  6  1  0  0  0
  6  7  2  0  0  0
  7  8  1  0  0  0
  8  9  1  0  0  0
  8 20  1  0  0  0
 20 21  2  0  0  0
 20 25  1  0  0  0
 21 22  1  0  0  0
 21 26  1  0  0  0
 22 23  2  0  0  0
 23 24  1  0  0  0
 24 25  2  0  0  0
 26 27  1  0  0  0
  8 11  1  0  0  0
 10 12  1  0  0  0
M  CHG 1   8   1
M  END
> <minimizedAffinity>
-7.31469

$$$$
836


 27 30  0  0  0  0  0  0  0  0999 V2000
  -36.7327  -67.3227   48.6654 C   0  0  0  0  0  0  0  0  0  0  0  0
  -35.9333  -66.1524   48.9306 N   0  0  0  0  0  0  0  0  0  0  0  0
  -35.1514  -65.6555   50.0547 C   0  0  0  0  0  0  0  0  0  0  0  0
  -33.9940  -64.8122   49.6850 C   0  0  0  0  0  0  0  0  0  0  0  0
  -33.7200  -64.6862   48.2072 C   0  0  0  0  0  0  0  0  0  0  0  0
  -34.9333  -64.6616   47.3956 C   0  0  0  0  0  0  0  0  0  0  0  0
  -35.9915  -65.3675   47.7490 C   0  0  0  0  0  0  0  0  0  0  0  0
  -37.2831  -65.5366   47.1735 N   0  0  0  0  0  0  0  0  0  0  0  0
  -37.7115  -66.8232   47.6278 C   0  0  0  0  0  0  0  0  0  0  0  0
  -35.8710  -68.2946   48.1167 O   0  0  0  0  0  0  0  0  0  0  0  0
  -37.1482  -65.5398   46.1263 H   0  0  0  0  0  0  0  0  0  0  0  0
  -35.0018  -68.1702   48.5709 H   0  0  0  0  0  0  0  0  0  0  0  0
  -39.3797  -69.8651   53.6709 Br  0  0  0  0  0  0  0  0  0  0  0  0
  -38.5731  -69.0763   52.1320 C   0  0  0  0  0  0  0  0  0  0  0  0
  -37.3027  -69.4280   51.7168 C   0  0  0  0  0  0  0  0  0  0  0  0
  -36.7360  -68.8490   50.6001 C   0  0  0  0  0  0  0  0  0  0  0  0
  -37.3849  -67.9000   49.8386 C   0  0  0  0  0  0  0  0  0  0  0  0
  -38.6612  -67.5527   50.2646 C   0  0  0  0  0  0  0  0  0  0  0  0
  -39.2363  -68.1288   51.3826 C   0  0  0  0  0  0  0  0  0  0  0  0
  -38.0892  -64.4691   47.5455 C   0  0  0  0  0  0  0  0  0  0  0  0
  -38.1059  -63.3097   46.8060 C   0  0  0  0  0  0  0  0  0  0  0  0
  -38.9215  -62.2308   47.1847 C   0  0  0  0  0  0  0  0  0  0  0  0
  -39.7221  -62.2905   48.2908 C   0  0  0  0  0  0  0  0  0  0  0  0
  -39.7029  -63.4784   49.0451 C   0  0  0  0  0  0  0  0  0  0  0  0
  -38.8908  -64.5202   48.6470 C   0  0  0  0  0  0  0  0  0  0  0  0
  -40.5548  -61.2603   48.7236 O   0  0  0  0  0  0  0  0  0  0  0  0
  -41.2356  -60.3546   47.9177 C   0  0  0  0  0  0  0  0  0  0  0  0
 13 14  1  0  0  0
 14 15  2  0  0  0
 14 19  1  0  0  0
 15 16  1  0  0  0
 16 17  2  0  0  0
 17 18  1  0  0  0
 17  1  1  0  0  0
 18 19  2  0  0  0
  1  2  1  0  0  0
  1  9  1  0  0  0
  1 10  1  0  0  0
  2  3  1  0  0  0
  2  7  1  0  0  0
  3  4  1  0  0  0
  4  5  1  0  0  0
  5  6  1  0  0  0
  6  7  2  0  0  0
  7  8  1  0  0  0
  8  9  1  0  0  0
  8 20  1  0  0  0
 20 21  2  0  0  0
 20 25  1  0  0  0
 21 22  1  0  0  0
 22 23  2  0  0  0
 23 24  1  0  0  0
 23 26  1  0  0  0
 24 25  2  0  0  0
 26 27  1  0  0  0
  8 11  1  0  0  0
 10 12  1  0  0  0
M  CHG 1   8   1
M  END
> <minimizedAffinity>
-7.58783

$$$$
847


 31 34  0  0  0  0  0  0  0  0999 V2000
  -37.7020  -66.2515   49.4372 C   0  0  0  0  0  0  0  0  0  0  0  0
  -36.4187  -66.5935   49.6377 N   0  0  0  0  0  0  0  0  0  0  0  0
  -36.3987  -67.7810   50.2709 C   0  0  0  0  0  0  0  0  0  0  0  0
  -37.6980  -68.1837   50.4669 N   0  0  0  0  0  0  0  0  0  0  0  0
  -38.4553  -67.2323   49.9490 N   0  0  0  0  0  0  0  0  0  0  0  0
  -35.3055  -68.6391   50.7377 C   0  0  0  0  0  0  0  0  0  0  0  0
  -34.0773  -67.9057   51.2062 C   0  0  0  0  0  0  0  0  0  0  0  0
  -33.4294  -67.0789   50.1442 C   0  0  0  0  0  0  0  0  0  0  0  0
  -34.1420  -65.7465   50.1217 C   0  0  0  0  0  0  0  0  0  0  0  0
  -35.3411  -65.7651   49.2063 C   0  0  0  0  0  0  0  0  0  0  0  0
  -38.2789  -65.0337   48.7819 C   0  0  0  0  0  0  0  0  0  0  0  0
  -38.8340  -64.0969   49.7378 N   0  0  0  0  0  0  0  0  0  0  0  0
  -38.2663  -63.3007   50.1026 H   0  0  0  0  0  0  0  0  0  0  0  0
  -44.5423  -64.5263   51.8345 Br  0  0  0  0  0  0  0  0  0  0  0  0
  -42.7633  -64.3950   51.1787 C   0  0  0  0  0  0  0  0  0  0  0  0
  -41.6867  -64.4577   52.0577 C   0  0  0  0  0  0  0  0  0  0  0  0
  -40.4052  -64.3619   51.5852 C   0  0  0  0  0  0  0  0  0  0  0  0
  -40.1735  -64.2020   50.2365 C   0  0  0  0  0  0  0  0  0  0  0  0
  -41.2518  -64.1418   49.3794 C   0  0  0  0  0  0  0  0  0  0  0  0
  -42.5515  -64.2347   49.8209 C   0  0  0  0  0  0  0  0  0  0  0  0
  -38.1773  -69.3768   51.0426 C   0  0  0  0  0  0  0  0  0  0  0  0
  -38.5980  -69.3559   52.4187 C   0  0  0  0  0  0  0  0  0  0  0  0
  -37.6987  -69.9065   53.2355 O   0  0  0  0  0  0  0  0  0  0  0  0
  -39.7623  -68.8773   53.1084 C   0  0  0  0  0  0  0  0  0  0  0  0
  -40.7534  -68.1454   52.4186 C   0  0  0  0  0  0  0  0  0  0  0  0
  -41.8803  -67.6606   53.0280 C   0  0  0  0  0  0  0  0  0  0  0  0
  -42.1013  -67.8690   54.3661 C   0  0  0  0  0  0  0  0  0  0  0  0
  -41.1657  -68.5738   55.0724 C   0  0  0  0  0  0  0  0  0  0  0  0
  -40.0123  -69.0657   54.4332 C   0  0  0  0  0  0  0  0  0  0  0  0
  -43.2486  -67.3757   54.9847 O   0  0  0  0  0  0  0  0  0  0  0  0
  -43.5443  -66.0019   55.0430 C   0  0  0  0  0  0  0  0  0  0  0  0
 14 15  1  0  0  0
 15 16  2  0  0  0
 15 20  1  0  0  0
 16 17  1  0  0  0
 17 18  2  0  0  0
 18 19  1  0  0  0
 18 12  1  0  0  0
 19 20  2  0  0  0
 12 11  1  0  0  0
 11  1  1  0  0  0
  1  2  1  0  0  0
  1  5  2  0  0  0
  2  3  1  0  0  0
  2 10  1  0  0  0
  3  4  2  0  0  0
  3  6  1  0  0  0
  4  5  1  0  0  0
  4 21  1  0  0  0
 21 22  1  0  0  0
 22 23  2  0  0  0
 22 24  1  0  0  0
 24 25  2  0  0  0
 24 29  1  0  0  0
 25 26  1  0  0  0
 26 27  2  0  0  0
 27 28  1  0  0  0
 27 30  1  0  0  0
 28 29  2  0  0  0
 30 31  1  0  0  0
  6  7  1  0  0  0
  7  8  1  0  0  0
  8  9  1  0  0  0
  9 10  1  0  0  0
 12 13  1  0  0  0
M  END
> <minimizedAffinity>
-8.51356

$$$$
850


 29 32  0  0  0  0  0  0  0  0999 V2000
  -37.2869  -67.4923   49.0959 N   0  0  0  0  0  0  0  0  0  0  0  0
  -35.8694  -67.4707   49.3027 C   0  0  0  0  0  0  0  0  0  0  0  0
  -35.7337  -66.1404   50.0425 C   0  0  0  0  0  0  0  0  0  0  0  0
  -36.6935  -65.2746   49.3398 N   0  0  0  0  0  0  0  0  0  0  0  0
  -36.6063  -63.8604   49.4356 C   0  0  0  0  0  0  0  0  0  0  0  0
  -37.6131  -63.1074   48.6187 C   0  0  0  0  0  0  0  0  0  0  0  0
  -37.6100  -63.6378   47.2113 C   0  0  0  0  0  0  0  0  0  0  0  0
  -38.8187  -64.5824   47.1384 C   0  0  0  0  0  0  0  0  0  0  0  0
  -38.4285  -65.8881   47.7072 C   0  0  0  0  0  0  0  0  0  0  0  0
  -37.5556  -66.1751   48.6460 C   0  0  0  0  0  0  0  0  0  0  0  0
  -35.3056  -68.5423   49.9189 O   0  0  0  0  0  0  0  0  0  0  0  0
  -37.4775  -68.2302   48.3481 H   0  0  0  0  0  0  0  0  0  0  0  0
  -34.3879  -68.3882   50.2093 H   0  0  0  0  0  0  0  0  0  0  0  0
  -40.6703  -69.1364   53.9341 Br  0  0  0  0  0  0  0  0  0  0  0  0
  -39.6299  -68.6289   52.4064 C   0  0  0  0  0  0  0  0  0  0  0  0
  -38.5054  -69.3331   52.0387 C   0  0  0  0  0  0  0  0  0  0  0  0
  -37.7538  -68.9453   50.9391 C   0  0  0  0  0  0  0  0  0  0  0  0
  -38.0913  -67.8399   50.1605 C   0  0  0  0  0  0  0  0  0  0  0  0
  -39.2126  -67.1789   50.5661 C   0  0  0  0  0  0  0  0  0  0  0  0
  -39.9855  -67.5451   51.6648 C   0  0  0  0  0  0  0  0  0  0  0  0
  -35.1234  -67.2804   48.0256 C   0  0  0  0  0  0  0  0  0  0  0  0
  -35.5343  -67.7232   46.8040 C   0  0  0  0  0  0  0  0  0  0  0  0
  -34.7827  -67.5031   45.6305 C   0  0  0  0  0  0  0  0  0  0  0  0
  -33.5896  -66.8233   45.6760 C   0  0  0  0  0  0  0  0  0  0  0  0
  -33.1649  -66.3727   46.9024 C   0  0  0  0  0  0  0  0  0  0  0  0
  -33.9005  -66.5903   48.0450 C   0  0  0  0  0  0  0  0  0  0  0  0
  -32.8356  -66.5949   44.5129 O   0  0  0  0  0  0  0  0  0  0  0  0
  -31.5095  -67.0520   44.3925 C   0  0  0  0  0  0  0  0  0  0  0  0
  -31.4245  -68.5399   44.2592 C   0  0  0  0  0  0  0  0  0  0  0  0
 14 15  1  0  0  0
 15 16  2  0  0  0
 15 20  1  0  0  0
 16 17  1  0  0  0
 17 18  2  0  0  0
 18 19  1  0  0  0
 18  1  1  0  0  0
 19 20  2  0  0  0
  1  2  1  0  0  0
  1 10  1  0  0  0
  2  3  1  0  0  0
  2 11  1  0  0  0
  2 21  1  0  0  0
  3  4  1  0  0  0
  4  5  1  0  0  0
  4 10  1  0  0  0
  5  6  1  0  0  0
  6  7  1  0  0  0
  7  8  1  0  0  0
  8  9  1  0  0  0
  9 10  2  0  0  0
 21 22  2  0  0  0
 21 26  1  0  0  0
 22 23  1  0  0  0
 23 24  2  0  0  0
 24 25  1  0  0  0
 24 27  1  0  0  0
 25 26  2  0  0  0
 27 28  1  0  0  0
 28 29  1  0  0  0
  1 12  1  0  0  0
 11 13  1  0  0  0
M  CHG 1   1   1
M  END
> <minimizedAffinity>
-6.92618

$$$$
860


 29 32  0  0  0  0  0  0  0  0999 V2000
  -41.3285  -67.5086   54.5976 Br  0  0  0  0  0  0  0  0  0  0  0  0
  -40.7225  -67.2706   52.7963 C   0  0  0  0  0  0  0  0  0  0  0  0
  -40.7919  -66.0438   52.1658 C   0  0  0  0  0  0  0  0  0  0  0  0
  -40.3549  -65.8777   50.8707 C   0  0  0  0  0  0  0  0  0  0  0  0
  -39.8484  -66.9931   50.2369 C   0  0  0  0  0  0  0  0  0  0  0  0
  -39.7765  -68.2218   50.8618 C   0  0  0  0  0  0  0  0  0  0  0  0
  -40.2150  -68.3835   52.1586 C   0  0  0  0  0  0  0  0  0  0  0  0
  -40.1325  -69.7152   52.8241 C   0  0  0  0  0  0  0  0  0  0  0  0
  -39.4129  -66.7998   48.9273 O   0  0  0  0  0  0  0  0  0  0  0  0
  -39.7340  -65.6920   48.1550 C   0  0  0  0  0  0  0  0  0  0  0  0
  -39.9030  -64.4124   48.9022 C   0  0  0  0  0  0  0  0  0  0  0  0
  -40.4641  -64.5426   50.2740 C   0  0  0  0  0  0  0  0  0  0  0  0
  -39.8282  -63.6455   51.1664 O   0  0  0  0  0  0  0  0  0  0  0  0
  -39.3690  -64.1113   51.8953 H   0  0  0  0  0  0  0  0  0  0  0  0
  -40.8709  -63.6313   48.1246 N   0  0  0  0  0  0  0  0  0  0  0  0
  -40.4854  -62.2740   47.9445 C   0  0  0  0  0  0  0  0  0  0  0  0
  -41.3817  -61.7186   46.8268 C   0  0  0  0  0  0  0  0  0  0  0  0
  -42.6764  -61.7512   47.3157 O   0  0  0  0  0  0  0  0  0  0  0  0
  -43.1130  -63.0325   47.6320 C   0  0  0  0  0  0  0  0  0  0  0  0
  -42.1911  -63.6824   48.6742 C   0  0  0  0  0  0  0  0  0  0  0  0
  -40.9022  -64.0896   47.1859 H   0  0  0  0  0  0  0  0  0  0  0  0
  -38.6314  -63.5902   48.9496 C   0  0  0  0  0  0  0  0  0  0  0  0
  -37.4779  -64.2784   48.4571 N   0  0  0  0  0  0  0  0  0  0  0  0
  -37.1228  -63.8843   47.1060 C   0  0  0  0  0  0  0  0  0  0  0  0
  -35.6260  -63.6570   46.9587 C   0  0  0  0  0  0  0  0  0  0  0  0
  -35.1717  -62.6120   47.7462 O   0  0  0  0  0  0  0  0  0  0  0  0
  -35.8719  -62.5409   48.9467 C   0  0  0  0  0  0  0  0  0  0  0  0
  -36.3051  -63.9524   49.2855 C   0  0  0  0  0  0  0  0  0  0  0  0
  -37.5393  -65.3078   48.4636 H   0  0  0  0  0  0  0  0  0  0  0  0
  1  2  1  0  0  0
  2  3  2  0  0  0
  2  7  1  0  0  0
  3  4  1  0  0  0
  4  5  2  0  0  0
  4 12  1  0  0  0
  5  6  1  0  0  0
  5  9  1  0  0  0
  6  7  2  0  0  0
  7  8  1  0  0  0
  9 10  1  0  0  0
 10 11  1  0  0  0
 11 12  1  0  0  0
 11 15  1  0  0  0
 11 22  1  0  0  0
 12 13  1  0  0  0
 15 16  1  0  0  0
 15 20  1  0  0  0
 16 17  1  0  0  0
 17 18  1  0  0  0
 18 19  1  0  0  0
 19 20  1  0  0  0
 22 23  1  0  0  0
 23 24  1  0  0  0
 23 28  1  0  0  0
 24 25  1  0  0  0
 25 26  1  0  0  0
 26 27  1  0  0  0
 27 28  1  0  0  0
 13 14  1  0  0  0
 15 21  1  0  0  0
 23 29  1  0  0  0
M  CHG 1  15   1
M  CHG 1  23   1
M  END
> <minimizedAffinity>
-7.18624

$$$$
861


 32 35  0  0  0  0  0  0  0  0999 V2000
  -37.8475  -70.0335   50.6446 Br  0  0  0  0  0  0  0  0  0  0  0  0
  -38.9836  -68.6951   51.4135 C   0  0  0  0  0  0  0  0  0  0  0  0
  -39.3713  -67.6123   50.6608 C   0  0  0  0  0  0  0  0  0  0  0  0
  -40.2029  -66.6091   51.1858 C   0  0  0  0  0  0  0  0  0  0  0  0
  -40.6078  -66.7692   52.4929 C   0  0  0  0  0  0  0  0  0  0  0  0
  -40.2331  -67.8443   53.2697 C   0  0  0  0  0  0  0  0  0  0  0  0
  -39.4182  -68.8146   52.7326 C   0  0  0  0  0  0  0  0  0  0  0  0
  -38.9606  -70.0097   53.4876 C   0  0  0  0  0  0  0  0  0  0  0  0
  -40.8101  -68.0396   55.0778 Br  0  0  0  0  0  0  0  0  0  0  0  0
  -40.5846  -65.4838   50.3579 C   0  0  0  0  0  0  0  0  0  0  0  0
  -41.3971  -64.6519   50.7755 O   0  0  0  0  0  0  0  0  0  0  0  0
  -39.9961  -65.3398   49.0146 C   0  0  0  0  0  0  0  0  0  0  0  0
  -39.7692  -66.7346   48.4743 C   0  0  0  0  0  0  0  0  0  0  0  0
  -38.9420  -67.4862   49.3432 O   0  0  0  0  0  0  0  0  0  0  0  0
  -40.8252  -64.5129   48.0793 C   0  0  0  0  0  0  0  0  0  0  0  0
  -41.1604  -63.2165   48.5278 N   0  0  0  0  0  0  0  0  0  0  0  0
  -40.4540  -62.2344   47.7596 C   0  0  0  0  0  0  0  0  0  0  0  0
  -40.9141  -62.0774   46.3546 C   0  0  0  0  0  0  0  0  0  0  0  0
  -42.1624  -62.7777   45.9798 C   0  0  0  0  0  0  0  0  0  0  0  0
  -43.0908  -63.1171   47.0798 C   0  0  0  0  0  0  0  0  0  0  0  0
  -42.5537  -62.8724   48.4592 C   0  0  0  0  0  0  0  0  0  0  0  0
  -39.7981  -62.5975   45.4410 C   0  0  0  0  0  0  0  0  0  0  0  0
  -40.8665  -63.0956   49.5300 H   0  0  0  0  0  0  0  0  0  0  0  0
  -38.6431  -64.6902   49.2198 C   0  0  0  0  0  0  0  0  0  0  0  0
  -37.6297  -65.0925   48.3052 N   0  0  0  0  0  0  0  0  0  0  0  0
  -36.4743  -65.6192   49.0290 C   0  0  0  0  0  0  0  0  0  0  0  0
  -35.3567  -64.6232   49.1343 C   0  0  0  0  0  0  0  0  0  0  0  0
  -35.9241  -63.2559   49.4416 C   0  0  0  0  0  0  0  0  0  0  0  0
  -36.7095  -62.8081   48.2481 C   0  0  0  0  0  0  0  0  0  0  0  0
  -37.1313  -64.0261   47.4640 C   0  0  0  0  0  0  0  0  0  0  0  0
  -34.5135  -65.0232   50.3526 C   0  0  0  0  0  0  0  0  0  0  0  0
  -37.9645  -65.8503   47.7043 H   0  0  0  0  0  0  0  0  0  0  0  0
  1  2  1  0  0  0
  2  3  2  0  0  0
  2  7  1  0  0  0
  3  4  1  0  0  0
  3 14  1  0  0  0
  4  5  2  0  0  0
  4 10  1  0  0  0
  5  6  1  0  0  0
  6  7  2  0  0  0
  6  9  1  0  0  0
  7  8  1  0  0  0
 10 11  2  0  0  0
 10 12  1  0  0  0
 12 13  1  0  0  0
 12 15  1  0  0  0
 12 24  1  0  0  0
 13 14  1  0  0  0
 15 16  1  0  0  0
 16 17  1  0  0  0
 16 21  1  0  0  0
 17 18  1  0  0  0
 18 19  1  0  0  0
 18 22  1  0  0  0
 19 20  1  0  0  0
 20 21  1  0  0  0
 24 25  1  0  0  0
 25 26  1  0  0  0
 25 30  1  0  0  0
 26 27  1  0  0  0
 27 28  1  0  0  0
 27 31  1  0  0  0
 28 29  1  0  0  0
 29 30  1  0  0  0
 16 23  1  0  0  0
 25 32  1  0  0  0
M  CHG 1  16   1
M  CHG 1  25   1
M  END
> <minimizedAffinity>
-7.51100

$$$$
862


 30 33  0  0  0  0  0  0  0  0999 V2000
  -37.0609  -68.0411   47.5809 Br  0  0  0  0  0  0  0  0  0  0  0  0
  -37.4587  -66.3501   48.3191 C   0  0  0  0  0  0  0  0  0  0  0  0
  -38.6717  -66.1904   48.9430 C   0  0  0  0  0  0  0  0  0  0  0  0
  -39.0788  -64.9803   49.5302 C   0  0  0  0  0  0  0  0  0  0  0  0
  -38.2081  -63.8849   49.4758 C   0  0  0  0  0  0  0  0  0  0  0  0
  -36.9957  -64.0596   48.8468 C   0  0  0  0  0  0  0  0  0  0  0  0
  -36.6146  -65.2601   48.2753 C   0  0  0  0  0  0  0  0  0  0  0  0
  -35.2842  -65.4189   47.5945 C   0  0  0  0  0  0  0  0  0  0  0  0
  -35.8109  -62.5685   48.7752 Br  0  0  0  0  0  0  0  0  0  0  0  0
  -40.3759  -64.8683   50.1695 C   0  0  0  0  0  0  0  0  0  0  0  0
  -40.9288  -63.7416   50.1151 O   0  0  0  0  0  0  0  0  0  0  0  0
  -40.9173  -66.0782   50.8169 C   0  0  0  0  0  0  0  0  0  0  0  0
  -40.8836  -67.0810   49.5772 C   0  0  0  0  0  0  0  0  0  0  0  0
  -39.6090  -67.2009   49.0551 O   0  0  0  0  0  0  0  0  0  0  0  0
  -42.3018  -66.0375   51.2437 C   0  0  0  0  0  0  0  0  0  0  0  0
  -42.8214  -65.6851   52.4791 N   0  0  0  0  0  0  0  0  0  0  0  0
  -43.5582  -66.5764   53.2865 C   0  0  0  0  0  0  0  0  0  0  0  0
  -44.5642  -65.8880   54.1998 C   0  0  0  0  0  0  0  0  0  0  0  0
  -45.6550  -65.2210   53.4239 C   0  0  0  0  0  0  0  0  0  0  0  0
  -45.0733  -64.7050   52.1438 C   0  0  0  0  0  0  0  0  0  0  0  0
  -43.6146  -64.4445   52.3317 C   0  0  0  0  0  0  0  0  0  0  0  0
  -42.0296  -65.2957   53.1438 H   0  0  0  0  0  0  0  0  0  0  0  0
  -39.9533  -66.5911   51.8175 C   0  0  0  0  0  0  0  0  0  0  0  0
  -40.0919  -67.8767   52.3612 N   0  0  0  0  0  0  0  0  0  0  0  0
  -38.8529  -68.6218   52.1004 C   0  0  0  0  0  0  0  0  0  0  0  0
  -39.0075  -70.1017   52.3832 C   0  0  0  0  0  0  0  0  0  0  0  0
  -39.2468  -70.2092   53.8977 C   0  0  0  0  0  0  0  0  0  0  0  0
  -40.5302  -69.4444   54.1269 C   0  0  0  0  0  0  0  0  0  0  0  0
  -40.2526  -67.9665   53.8030 C   0  0  0  0  0  0  0  0  0  0  0  0
  -40.8329  -68.4995   51.9794 H   0  0  0  0  0  0  0  0  0  0  0  0
  1  2  1  0  0  0
  2  3  2  0  0  0
  2  7  1  0  0  0
  3  4  1  0  0  0
  3 14  1  0  0  0
  4  5  2  0  0  0
  4 10  1  0  0  0
  5  6  1  0  0  0
  6  7  2  0  0  0
  6  9  1  0  0  0
  7  8  1  0  0  0
 10 11  2  0  0  0
 10 12  1  0  0  0
 12 13  1  0  0  0
 12 15  1  0  0  0
 12 23  1  0  0  0
 13 14  1  0  0  0
 15 16  1  0  0  0
 16 17  1  0  0  0
 16 21  1  0  0  0
 17 18  1  0  0  0
 18 19  1  0  0  0
 19 20  1  0  0  0
 20 21  1  0  0  0
 23 24  1  0  0  0
 24 25  1  0  0  0
 24 29  1  0  0  0
 25 26  1  0  0  0
 26 27  1  0  0  0
 27 28  1  0  0  0
 28 29  1  0  0  0
 16 22  1  0  0  0
 24 30  1  0  0  0
M  CHG 1  16   1
M  CHG 1  24   1
M  END
> <minimizedAffinity>
-7.61228

$$$$
865


 30 33  0  0  0  0  0  0  0  0999 V2000
  -45.2417  -65.9052   53.8937 C   0  0  0  0  0  0  0  0  0  0  0  0
  -45.1586  -64.9828   52.9099 N   0  0  0  0  0  0  0  0  0  0  0  0
  -46.1235  -64.8214   51.9708 C   0  0  0  0  0  0  0  0  0  0  0  0
  -47.1809  -65.6306   52.0595 N   0  0  0  0  0  0  0  0  0  0  0  0
  -47.3310  -66.5698   53.0096 C   0  0  0  0  0  0  0  0  0  0  0  0
  -46.3402  -66.6800   53.9120 N   0  0  0  0  0  0  0  0  0  0  0  0
  -48.4867  -67.3965   53.0407 N   0  0  0  0  0  0  0  0  0  0  0  0
  -49.5054  -67.2166   52.0240 C   0  0  0  0  0  0  0  0  0  0  0  0
  -50.6501  -68.1699   52.2838 C   0  0  0  0  0  0  0  0  0  0  0  0
  -50.2695  -69.4637   52.5003 O   0  0  0  0  0  0  0  0  0  0  0  0
  -49.1650  -69.6590   53.2849 C   0  0  0  0  0  0  0  0  0  0  0  0
  -48.7164  -68.4108   54.0261 C   0  0  0  0  0  0  0  0  0  0  0  0
  -45.9847  -63.8331   50.9566 N   0  0  0  0  0  0  0  0  0  0  0  0
  -47.0953  -63.1880   50.2958 C   0  0  0  0  0  0  0  0  0  0  0  0
  -46.8228  -63.4186   48.8104 C   0  0  0  0  0  0  0  0  0  0  0  0
  -45.7308  -62.7192   48.4507 O   0  0  0  0  0  0  0  0  0  0  0  0
  -44.6263  -62.7538   49.2068 C   0  0  0  0  0  0  0  0  0  0  0  0
  -44.6707  -63.4153   50.5268 C   0  0  0  0  0  0  0  0  0  0  0  0
  -44.1978  -66.0185   54.8405 N   0  0  0  0  0  0  0  0  0  0  0  0
  -44.3448  -65.6644   55.8000 H   0  0  0  0  0  0  0  0  0  0  0  0
  -42.7949  -67.8637   54.4037 C   0  0  0  0  0  0  0  0  0  0  0  0
  -42.9845  -66.5959   54.4928 N   0  0  0  0  0  0  0  0  0  0  0  0
  -37.7479  -69.9530   53.0071 F   0  0  0  0  0  0  0  0  0  0  0  0
  -38.9676  -69.4409   53.3301 C   0  0  0  0  0  0  0  0  0  0  0  0
  -39.6433  -68.5850   52.4851 C   0  0  0  0  0  0  0  0  0  0  0  0
  -40.8778  -68.0772   52.8324 C   0  0  0  0  0  0  0  0  0  0  0  0
  -41.4911  -68.3974   54.0322 C   0  0  0  0  0  0  0  0  0  0  0  0
  -40.8084  -69.2536   54.8702 C   0  0  0  0  0  0  0  0  0  0  0  0
  -39.5656  -69.7666   54.5251 C   0  0  0  0  0  0  0  0  0  0  0  0
  -38.8209  -68.1263   50.8233 Br  0  0  0  0  0  0  0  0  0  0  0  0
 23 24  1  0  0  0
 24 25  2  0  0  0
 24 29  1  0  0  0
 25 26  1  0  0  0
 25 30  1  0  0  0
 26 27  2  0  0  0
 27 28  1  0  0  0
 27 21  1  0  0  0
 28 29  2  0  0  0
 21 22  2  0  0  0
 22 19  1  0  0  0
 19  1  1  0  0  0
  1  2  2  0  0  0
  1  6  1  0  0  0
  2  3  1  0  0  0
  3  4  2  0  0  0
  3 13  1  0  0  0
  4  5  1  0  0  0
  5  6  2  0  0  0
  5  7  1  0  0  0
  7  8  1  0  0  0
  7 12  1  0  0  0
  8  9  1  0  0  0
  9 10  1  0  0  0
 10 11  1  0  0  0
 11 12  1  0  0  0
 13 14  1  0  0  0
 13 18  1  0  0  0
 14 15  1  0  0  0
 15 16  1  0  0  0
 16 17  1  0  0  0
 17 18  1  0  0  0
 19 20  1  0  0  0
M  END
> <minimizedAffinity>
-7.78259

$$$$
872


 32 35  0  0  0  0  0  0  0  0999 V2000
  -36.2499  -69.1305   50.9930 N   0  0  0  0  0  0  0  0  0  0  0  0
  -35.1752  -69.4522   51.6904 N   0  0  0  0  0  0  0  0  0  0  0  0
  -34.3155  -68.4654   51.5068 N   0  0  0  0  0  0  0  0  0  0  0  0
  -34.8301  -67.5167   50.6979 C   0  0  0  0  0  0  0  0  0  0  0  0
  -36.0602  -67.9509   50.3780 C   0  0  0  0  0  0  0  0  0  0  0  0
  -36.5698  -66.9745   49.5543 C   0  0  0  0  0  0  0  0  0  0  0  0
  -37.7160  -67.0055   49.0317 O   0  0  0  0  0  0  0  0  0  0  0  0
  -35.6915  -65.9687   49.3663 N   0  0  0  0  0  0  0  0  0  0  0  0
  -34.6021  -66.3006   50.0781 C   0  0  0  0  0  0  0  0  0  0  0  0
  -33.5518  -65.6115   50.1617 O   0  0  0  0  0  0  0  0  0  0  0  0
  -35.0194  -70.3188   52.2816 H   0  0  0  0  0  0  0  0  0  0  0  0
  -33.3601  -68.4574   51.9515 H   0  0  0  0  0  0  0  0  0  0  0  0
  -35.9168  -64.7986   48.5608 C   0  0  0  0  0  0  0  0  0  0  0  0
  -36.3174  -63.6101   49.1394 C   0  0  0  0  0  0  0  0  0  0  0  0
  -36.5453  -62.4638   48.4066 C   0  0  0  0  0  0  0  0  0  0  0  0
  -36.3564  -62.5414   47.0405 C   0  0  0  0  0  0  0  0  0  0  0  0
  -35.9555  -63.7053   46.4055 C   0  0  0  0  0  0  0  0  0  0  0  0
  -35.7453  -64.8162   47.1972 C   0  0  0  0  0  0  0  0  0  0  0  0
  -36.6796  -60.9329   46.0406 Br  0  0  0  0  0  0  0  0  0  0  0  0
  -37.4359  -69.9567   50.9345 C   0  0  0  0  0  0  0  0  0  0  0  0
  -39.5859  -68.8843   51.6599 N   0  0  0  0  0  0  0  0  0  0  0  0
  -38.3984  -69.5162   52.0190 C   0  0  0  0  0  0  0  0  0  0  0  0
  -38.0632  -69.7483   53.1849 O   0  0  0  0  0  0  0  0  0  0  0  0
  -39.7435  -68.7513   50.6026 H   0  0  0  0  0  0  0  0  0  0  0  0
  -40.5060  -66.3545   51.4168 F   0  0  0  0  0  0  0  0  0  0  0  0
  -41.0304  -67.1088   52.4221 C   0  0  0  0  0  0  0  0  0  0  0  0
  -40.5612  -68.4256   52.5589 C   0  0  0  0  0  0  0  0  0  0  0  0
  -41.0825  -69.1831   53.5610 C   0  0  0  0  0  0  0  0  0  0  0  0
  -42.0626  -68.7042   54.4564 C   0  0  0  0  0  0  0  0  0  0  0  0
  -42.4960  -67.4092   54.2889 C   0  0  0  0  0  0  0  0  0  0  0  0
  -41.9829  -66.6218   53.2795 C   0  0  0  0  0  0  0  0  0  0  0  0
  -43.4345  -66.8904   55.1142 F   0  0  0  0  0  0  0  0  0  0  0  0
 25 26  1  0  0  0
 26 27  2  0  0  0
 26 31  1  0  0  0
 27 28  1  0  0  0
 27 21  1  0  0  0
 28 29  2  0  0  0
 29 30  1  0  0  0
 30 31  2  0  0  0
 30 32  1  0  0  0
 21 22  1  0  0  0
 22 23  2  0  0  0
 22 20  1  0  0  0
 20  1  1  0  0  0
  1  2  1  0  0  0
  1  5  1  0  0  0
  2  3  1  0  0  0
  3  4  1  0  0  0
  4  5  2  0  0  0
  4  9  1  0  0  0
  5  6  1  0  0  0
  6  7  2  0  0  0
  6  8  1  0  0  0
  8  9  1  0  0  0
  8 13  1  0  0  0
  9 10  2  0  0  0
 13 14  2  0  0  0
 13 18  1  0  0  0
 14 15  1  0  0  0
 15 16  2  0  0  0
 16 17  1  0  0  0
 16 19  1  0  0  0
 17 18  2  0  0  0
 21 24  1  0  0  0
  2 11  1  0  0  0
  3 12  1  0  0  0
M  END
> <minimizedAffinity>
-8.48572

$$$$
873


 32 35  0  0  0  0  0  0  0  0999 V2000
  -36.8867  -66.3053   49.3826 C   0  0  0  0  0  0  0  0  0  0  0  0
  -37.6534  -66.8494   48.2729 N   0  0  0  0  0  0  0  0  0  0  0  0
  -36.6035  -67.3279   47.4060 C   0  0  0  0  0  0  0  0  0  0  0  0
  -36.6238  -68.3063   46.6133 O   0  0  0  0  0  0  0  0  0  0  0  0
  -35.4076  -66.4561   47.5813 C   0  0  0  0  0  0  0  0  0  0  0  0
  -34.2912  -66.4681   47.0658 O   0  0  0  0  0  0  0  0  0  0  0  0
  -35.8883  -65.4782   48.6010 C   0  0  0  0  0  0  0  0  0  0  0  0
  -35.5033  -64.2336   48.7434 C   0  0  0  0  0  0  0  0  0  0  0  0
  -36.0620  -63.4550   49.7772 O   0  0  0  0  0  0  0  0  0  0  0  0
  -37.9751  -68.7748   50.4030 F   0  0  0  0  0  0  0  0  0  0  0  0
  -36.7093  -68.4669   50.6403 C   0  0  0  0  0  0  0  0  0  0  0  0
  -36.1387  -67.3051   50.1622 C   0  0  0  0  0  0  0  0  0  0  0  0
  -34.8181  -67.1255   50.4913 C   0  0  0  0  0  0  0  0  0  0  0  0
  -34.0681  -68.0157   51.2439 C   0  0  0  0  0  0  0  0  0  0  0  0
  -34.6680  -69.1547   51.6991 C   0  0  0  0  0  0  0  0  0  0  0  0
  -35.9727  -69.3781   51.4026 C   0  0  0  0  0  0  0  0  0  0  0  0
  -34.5161  -63.6276   47.8622 C   0  0  0  0  0  0  0  0  0  0  0  0
  -34.9101  -63.1940   46.6154 C   0  0  0  0  0  0  0  0  0  0  0  0
  -34.0177  -62.6337   45.7164 C   0  0  0  0  0  0  0  0  0  0  0  0
  -32.6911  -62.4967   46.0633 C   0  0  0  0  0  0  0  0  0  0  0  0
  -32.2795  -62.9189   47.2902 C   0  0  0  0  0  0  0  0  0  0  0  0
  -33.1946  -63.4865   48.1940 C   0  0  0  0  0  0  0  0  0  0  0  0
  -31.4259  -61.7201   44.8324 Br  0  0  0  0  0  0  0  0  0  0  0  0
  -39.0177  -66.9552   47.9786 C   0  0  0  0  0  0  0  0  0  0  0  0
  -39.9829  -65.9513   48.4987 C   0  0  0  0  0  0  0  0  0  0  0  0
  -40.1566  -65.9828   49.9233 N   0  0  0  0  0  0  0  0  0  0  0  0
  -40.9961  -67.1115   50.2680 C   0  0  0  0  0  0  0  0  0  0  0  0
  -41.1109  -67.2556   51.7749 C   0  0  0  0  0  0  0  0  0  0  0  0
  -41.6535  -66.0976   52.2985 O   0  0  0  0  0  0  0  0  0  0  0  0
  -40.8840  -64.9931   51.9446 C   0  0  0  0  0  0  0  0  0  0  0  0
  -40.9006  -64.8076   50.4208 C   0  0  0  0  0  0  0  0  0  0  0  0
  -39.2676  -65.9444   50.4629 H   0  0  0  0  0  0  0  0  0  0  0  0
 10 11  1  0  0  0
 11 12  2  0  0  0
 11 16  1  0  0  0
 12 13  1  0  0  0
 12  1  1  0  0  0
 13 14  2  0  0  0
 14 15  1  0  0  0
 15 16  2  0  0  0
  1  2  1  0  0  0
  1  7  1  0  0  0
  2  3  1  0  0  0
  2 24  1  0  0  0
  3  4  2  0  0  0
  3  5  1  0  0  0
  5  6  2  0  0  0
  5  7  1  0  0  0
  7  8  2  0  0  0
  8  9  1  0  0  0
  8 17  1  0  0  0
 17 18  2  0  0  0
 17 22  1  0  0  0
 18 19  1  0  0  0
 19 20  2  0  0  0
 20 21  1  0  0  0
 20 23  1  0  0  0
 21 22  2  0  0  0
 24 25  1  0  0  0
 25 26  1  0  0  0
 26 27  1  0  0  0
 26 31  1  0  0  0
 27 28  1  0  0  0
 28 29  1  0  0  0
 29 30  1  0  0  0
 30 31  1  0  0  0
 26 32  1  0  0  0
M  CHG 1   9  -1
M  CHG 1  26   1
M  END
> <minimizedAffinity>
-7.04043

$$$$
874


 31 34  0  0  0  0  0  0  0  0999 V2000
  -44.7917  -65.9039   53.9517 N   0  0  0  0  0  0  0  0  0  0  0  0
  -45.9357  -66.5438   54.0595 N   0  0  0  0  0  0  0  0  0  0  0  0
  -46.7392  -66.2223   53.0562 N   0  0  0  0  0  0  0  0  0  0  0  0
  -46.0906  -65.3380   52.2671 C   0  0  0  0  0  0  0  0  0  0  0  0
  -44.9105  -65.1546   52.8228 C   0  0  0  0  0  0  0  0  0  0  0  0
  -44.2432  -64.2471   52.0152 C   0  0  0  0  0  0  0  0  0  0  0  0
  -43.0844  -63.8322   52.2321 O   0  0  0  0  0  0  0  0  0  0  0  0
  -45.0084  -63.8783   50.9721 N   0  0  0  0  0  0  0  0  0  0  0  0
  -46.1596  -64.5574   51.1281 C   0  0  0  0  0  0  0  0  0  0  0  0
  -47.1499  -64.5006   50.3667 O   0  0  0  0  0  0  0  0  0  0  0  0
  -46.1512  -67.2121   54.8438 H   0  0  0  0  0  0  0  0  0  0  0  0
  -47.7097  -66.5883   52.8990 H   0  0  0  0  0  0  0  0  0  0  0  0
  -44.6546  -62.9628   49.9354 C   0  0  0  0  0  0  0  0  0  0  0  0
  -45.2563  -61.7233   49.8401 C   0  0  0  0  0  0  0  0  0  0  0  0
  -44.9255  -60.8254   48.8444 C   0  0  0  0  0  0  0  0  0  0  0  0
  -43.9730  -61.1348   47.8959 C   0  0  0  0  0  0  0  0  0  0  0  0
  -43.3595  -62.3677   47.9713 C   0  0  0  0  0  0  0  0  0  0  0  0
  -43.7046  -63.2508   48.9749 C   0  0  0  0  0  0  0  0  0  0  0  0
  -43.4949  -59.9115   46.5057 Br  0  0  0  0  0  0  0  0  0  0  0  0
  -43.6343  -65.9579   54.8254 C   0  0  0  0  0  0  0  0  0  0  0  0
  -41.5449  -67.0700   53.9821 N   0  0  0  0  0  0  0  0  0  0  0  0
  -42.8277  -67.1708   54.5118 C   0  0  0  0  0  0  0  0  0  0  0  0
  -43.3671  -68.2635   54.7506 O   0  0  0  0  0  0  0  0  0  0  0  0
  -41.1889  -66.0704   53.8206 H   0  0  0  0  0  0  0  0  0  0  0  0
  -40.5180  -68.7129   55.9308 F   0  0  0  0  0  0  0  0  0  0  0  0
  -40.1401  -68.9546   54.6422 C   0  0  0  0  0  0  0  0  0  0  0  0
  -40.6554  -68.1257   53.6330 C   0  0  0  0  0  0  0  0  0  0  0  0
  -40.2468  -68.4082   52.3547 C   0  0  0  0  0  0  0  0  0  0  0  0
  -39.3759  -69.4553   52.1012 C   0  0  0  0  0  0  0  0  0  0  0  0
  -38.8783  -70.2583   53.0851 C   0  0  0  0  0  0  0  0  0  0  0  0
  -39.2791  -69.9877   54.3727 C   0  0  0  0  0  0  0  0  0  0  0  0
 25 26  1  0  0  0
 26 27  2  0  0  0
 26 31  1  0  0  0
 27 28  1  0  0  0
 27 21  1  0  0  0
 28 29  2  0  0  0
 29 30  1  0  0  0
 30 31  2  0  0  0
 21 22  1  0  0  0
 22 23  2  0  0  0
 22 20  1  0  0  0
 20  1  1  0  0  0
  1  2  1  0  0  0
  1  5  1  0  0  0
  2  3  1  0  0  0
  3  4  1  0  0  0
  4  5  2  0  0  0
  4  9  1  0  0  0
  5  6  1  0  0  0
  6  7  2  0  0  0
  6  8  1  0  0  0
  8  9  1  0  0  0
  8 13  1  0  0  0
  9 10  2  0  0  0
 13 14  2  0  0  0
 13 18  1  0  0  0
 14 15  1  0  0  0
 15 16  2  0  0  0
 16 17  1  0  0  0
 16 19  1  0  0  0
 17 18  2  0  0  0
 21 24  1  0  0  0
  2 11  1  0  0  0
  3 12  1  0  0  0
M  END
> <minimizedAffinity>
-8.46864

$$$$
886


 31 34  0  0  0  0  0  0  0  0999 V2000
  -35.5571  -65.9096   49.3433 N   0  0  0  0  0  0  0  0  0  0  0  0
  -36.3337  -66.9542   49.6770 C   0  0  0  0  0  0  0  0  0  0  0  0
  -37.5179  -67.0558   49.2554 O   0  0  0  0  0  0  0  0  0  0  0  0
  -35.6796  -67.8487   50.5031 C   0  0  0  0  0  0  0  0  0  0  0  0
  -34.4676  -67.3284   50.6759 C   0  0  0  0  0  0  0  0  0  0  0  0
  -33.7979  -68.1633   51.4756 N   0  0  0  0  0  0  0  0  0  0  0  0
  -34.5906  -69.1728   51.7835 N   0  0  0  0  0  0  0  0  0  0  0  0
  -35.7720  -69.0110   51.1957 N   0  0  0  0  0  0  0  0  0  0  0  0
  -34.3785  -66.1454   49.9738 C   0  0  0  0  0  0  0  0  0  0  0  0
  -33.4012  -65.3497   49.8771 O   0  0  0  0  0  0  0  0  0  0  0  0
  -32.7997  -68.0046   51.7857 H   0  0  0  0  0  0  0  0  0  0  0  0
  -34.3510  -69.9736   52.3847 H   0  0  0  0  0  0  0  0  0  0  0  0
  -36.8438  -61.4116   46.2613 F   0  0  0  0  0  0  0  0  0  0  0  0
  -36.5312  -62.5116   47.0090 C   0  0  0  0  0  0  0  0  0  0  0  0
  -36.0491  -63.6342   46.3981 C   0  0  0  0  0  0  0  0  0  0  0  0
  -35.7250  -64.7637   47.1536 C   0  0  0  0  0  0  0  0  0  0  0  0
  -35.8778  -64.7888   48.5214 C   0  0  0  0  0  0  0  0  0  0  0  0
  -36.3693  -63.6339   49.1100 C   0  0  0  0  0  0  0  0  0  0  0  0
  -36.6917  -62.5151   48.3754 C   0  0  0  0  0  0  0  0  0  0  0  0
  -36.9321  -69.8530   51.2426 C   0  0  0  0  0  0  0  0  0  0  0  0
  -38.0188  -69.3875   52.1109 C   0  0  0  0  0  0  0  0  0  0  0  0
  -38.0151  -69.7748   53.2893 O   0  0  0  0  0  0  0  0  0  0  0  0
  -39.0126  -68.5380   51.6163 N   0  0  0  0  0  0  0  0  0  0  0  0
  -38.9503  -68.2388   50.5765 H   0  0  0  0  0  0  0  0  0  0  0  0
  -40.1302  -67.9861   52.2849 C   0  0  0  0  0  0  0  0  0  0  0  0
  -40.7595  -68.6402   53.3170 C   0  0  0  0  0  0  0  0  0  0  0  0
  -41.8665  -68.1275   54.0002 C   0  0  0  0  0  0  0  0  0  0  0  0
  -42.3231  -66.9002   53.5912 C   0  0  0  0  0  0  0  0  0  0  0  0
  -41.7128  -66.2256   52.5633 C   0  0  0  0  0  0  0  0  0  0  0  0
  -40.6287  -66.7508   51.9093 C   0  0  0  0  0  0  0  0  0  0  0  0
  -43.8456  -66.1314   54.4901 Br  0  0  0  0  0  0  0  0  0  0  0  0
 13 14  1  0  0  0
 14 15  2  0  0  0
 14 19  1  0  0  0
 15 16  1  0  0  0
 16 17  2  0  0  0
 17 18  1  0  0  0
 17  1  1  0  0  0
 18 19  2  0  0  0
  1  2  1  0  0  0
  1  9  1  0  0  0
  2  3  2  0  0  0
  2  4  1  0  0  0
  4  5  2  0  0  0
  4  8  1  0  0  0
  5  6  1  0  0  0
  5  9  1  0  0  0
  6  7  1  0  0  0
  7  8  1  0  0  0
  8 20  1  0  0  0
 20 21  1  0  0  0
 21 22  2  0  0  0
 21 23  1  0  0  0
 23 25  1  0  0  0
 25 26  2  0  0  0
 25 30  1  0  0  0
 26 27  1  0  0  0
 27 28  2  0  0  0
 28 29  1  0  0  0
 28 31  1  0  0  0
 29 30  2  0  0  0
  9 10  2  0  0  0
  6 11  1  0  0  0
  7 12  1  0  0  0
 23 24  1  0  0  0
M  END
> <minimizedAffinity>
-8.41375

$$$$
892


 27 30  0  0  0  0  0  0  0  0999 V2000
  -48.6684  -64.7376   52.9868 C   0  0  0  0  0  0  0  0  0  0  0  0
  -47.4644  -63.9387   53.0249 N   0  0  0  0  0  0  0  0  0  0  0  0
  -46.1877  -64.5859   53.0359 C   0  0  0  0  0  0  0  0  0  0  0  0
  -44.5971  -64.0889   52.5399 S   0  0  0  0  0  0  0  0  0  0  0  0
  -43.7312  -65.4985   52.9309 C   0  0  0  0  0  0  0  0  0  0  0  0
  -44.6888  -66.3115   53.4299 C   0  0  0  0  0  0  0  0  0  0  0  0
  -45.9498  -65.8518   53.4873 C   0  0  0  0  0  0  0  0  0  0  0  0
  -47.2016  -66.4955   53.9782 C   0  0  0  0  0  0  0  0  0  0  0  0
  -47.1933  -67.6616   54.4386 O   0  0  0  0  0  0  0  0  0  0  0  0
  -48.4353  -65.8090   53.9405 N   0  0  0  0  0  0  0  0  0  0  0  0
  -44.1853  -67.6795   53.8747 C   0  0  0  0  0  0  0  0  0  0  0  0
  -42.7208  -67.5720   54.1499 C   0  0  0  0  0  0  0  0  0  0  0  0
  -42.1016  -67.2180   52.8628 N   0  0  0  0  0  0  0  0  0  0  0  0
  -42.2867  -65.7850   52.7726 C   0  0  0  0  0  0  0  0  0  0  0  0
  -40.7098  -67.5996   52.8270 C   0  0  0  0  0  0  0  0  0  0  0  0
  -47.4712  -62.8950   53.0473 H   0  0  0  0  0  0  0  0  0  0  0  0
  -49.2126  -66.0600   54.6032 H   0  0  0  0  0  0  0  0  0  0  0  0
  -42.6550  -67.6528   52.0947 H   0  0  0  0  0  0  0  0  0  0  0  0
  -50.7742  -68.5281   49.4985 I   0  0  0  0  0  0  0  0  0  0  0  0
  -49.5880  -66.8523   49.9558 C   0  0  0  0  0  0  0  0  0  0  0  0
  -49.5343  -66.3730   51.2656 C   0  0  0  0  0  0  0  0  0  0  0  0
  -48.7719  -65.2818   51.6075 C   0  0  0  0  0  0  0  0  0  0  0  0
  -48.0548  -64.6821   50.5623 C   0  0  0  0  0  0  0  0  0  0  0  0
  -48.1142  -65.1590   49.2787 C   0  0  0  0  0  0  0  0  0  0  0  0
  -48.8833  -66.2529   48.9582 C   0  0  0  0  0  0  0  0  0  0  0  0
  -47.1263  -64.3170   47.8859 Br  0  0  0  0  0  0  0  0  0  0  0  0
  -50.2687  -67.0155   52.2375 O   0  0  0  0  0  0  0  0  0  0  0  0
 19 20  1  0  0  0
 20 21  2  0  0  0
 20 25  1  0  0  0
 21 22  1  0  0  0
 21 27  1  0  0  0
 22 23  2  0  0  0
 22  1  1  0  0  0
 23 24  1  0  0  0
 24 25  2  0  0  0
 24 26  1  0  0  0
  1  2  1  0  0  0
  1 10  1  0  0  0
  2  3  1  0  0  0
  3  4  1  0  0  0
  3  7  2  0  0  0
  4  5  1  0  0  0
  5  6  2  0  0  0
  5 14  1  0  0  0
  6  7  1  0  0  0
  6 11  1  0  0  0
  7  8  1  0  0  0
  8  9  2  0  0  0
  8 10  1  0  0  0
 11 12  1  0  0  0
 12 13  1  0  0  0
 13 14  1  0  0  0
 13 15  1  0  0  0
  2 16  1  0  0  0
 10 17  1  0  0  0
 13 18  1  0  0  0
M  CHG 1  13   1
M  CHG 1  27  -1
M  END
> <minimizedAffinity>
-6.21485

$$$$
895


 28 31  0  0  0  0  0  0  0  0999 V2000
  -40.1679  -67.1532   50.2443 C   0  0  0  0  0  0  0  0  0  0  0  0
  -38.8564  -67.8006   50.2088 N   0  0  0  0  0  0  0  0  0  0  0  0
  -37.7214  -67.1521   49.5824 C   0  0  0  0  0  0  0  0  0  0  0  0
  -36.1742  -67.7210   49.0955 S   0  0  0  0  0  0  0  0  0  0  0  0
  -35.5419  -66.2761   48.4728 C   0  0  0  0  0  0  0  0  0  0  0  0
  -36.5568  -65.3765   48.6597 C   0  0  0  0  0  0  0  0  0  0  0  0
  -37.6865  -65.8392   49.2375 C   0  0  0  0  0  0  0  0  0  0  0  0
  -38.9250  -65.0686   49.5479 C   0  0  0  0  0  0  0  0  0  0  0  0
  -39.0235  -63.8338   49.2763 O   0  0  0  0  0  0  0  0  0  0  0  0
  -40.0107  -65.7273   50.1574 N   0  0  0  0  0  0  0  0  0  0  0  0
  -36.1820  -63.9869   48.1563 C   0  0  0  0  0  0  0  0  0  0  0  0
  -34.8411  -63.5990   48.7208 C   0  0  0  0  0  0  0  0  0  0  0  0
  -33.8637  -64.6338   48.6626 N   0  0  0  0  0  0  0  0  0  0  0  0
  -34.2818  -65.7545   47.8273 C   0  0  0  0  0  0  0  0  0  0  0  0
  -33.7365  -65.1871   50.0200 C   0  0  0  0  0  0  0  0  0  0  0  0
  -38.6968  -68.7353   50.6270 H   0  0  0  0  0  0  0  0  0  0  0  0
  -40.7771  -65.1468   50.5880 H   0  0  0  0  0  0  0  0  0  0  0  0
  -32.9116  -64.3027   48.3561 H   0  0  0  0  0  0  0  0  0  0  0  0
  -43.8414  -66.0299   54.2594 I   0  0  0  0  0  0  0  0  0  0  0  0
  -42.2418  -67.1061   53.4038 C   0  0  0  0  0  0  0  0  0  0  0  0
  -41.6705  -68.1511   54.1013 C   0  0  0  0  0  0  0  0  0  0  0  0
  -40.6125  -68.8710   53.5486 C   0  0  0  0  0  0  0  0  0  0  0  0
  -40.1776  -68.5028   52.3111 C   0  0  0  0  0  0  0  0  0  0  0  0
  -40.7343  -67.4562   51.5872 C   0  0  0  0  0  0  0  0  0  0  0  0
  -41.7713  -66.7619   52.1464 C   0  0  0  0  0  0  0  0  0  0  0  0
  -42.1400  -68.4943   55.3552 O   0  0  0  0  0  0  0  0  0  0  0  0
  -40.0771  -69.9113   54.2960 O   0  0  0  0  0  0  0  0  0  0  0  0
  -38.7622  -70.3460   54.0040 C   0  0  0  0  0  0  0  0  0  0  0  0
 19 20  1  0  0  0
 20 21  2  0  0  0
 20 25  1  0  0  0
 21 22  1  0  0  0
 21 26  1  0  0  0
 22 23  2  0  0  0
 22 27  1  0  0  0
 23 24  1  0  0  0
 24 25  2  0  0  0
 24  1  1  0  0  0
  1  2  1  0  0  0
  1 10  1  0  0  0
  2  3  1  0  0  0
  3  4  1  0  0  0
  3  7  2  0  0  0
  4  5  1  0  0  0
  5  6  2  0  0  0
  5 14  1  0  0  0
  6  7  1  0  0  0
  6 11  1  0  0  0
  7  8  1  0  0  0
  8  9  2  0  0  0
  8 10  1  0  0  0
 11 12  1  0  0  0
 12 13  1  0  0  0
 13 14  1  0  0  0
 13 15  1  0  0  0
 27 28  1  0  0  0
  2 16  1  0  0  0
 10 17  1  0  0  0
 13 18  1  0  0  0
M  CHG 1  13   1
M  CHG 1  26  -1
M  END
> <minimizedAffinity>
-8.33469

$$$$
906


 27 30  0  0  0  0  0  0  0  0999 V2000
  -37.5129  -68.8508   51.1155 C   0  0  0  0  0  0  0  0  0  0  0  0
  -36.5364  -69.5953   51.6207 N   0  0  0  0  0  0  0  0  0  0  0  0
  -35.2215  -69.4098   51.4161 C   0  0  0  0  0  0  0  0  0  0  0  0
  -34.0645  -69.9776   51.7777 N   0  0  0  0  0  0  0  0  0  0  0  0
  -33.0604  -69.3386   51.2507 O   0  0  0  0  0  0  0  0  0  0  0  0
  -33.5044  -68.3452   50.5346 N   0  0  0  0  0  0  0  0  0  0  0  0
  -34.8444  -68.3379   50.5997 C   0  0  0  0  0  0  0  0  0  0  0  0
  -35.7739  -67.5642   50.0692 N   0  0  0  0  0  0  0  0  0  0  0  0
  -37.0695  -67.7895   50.3020 C   0  0  0  0  0  0  0  0  0  0  0  0
  -37.7379  -66.8572   49.6425 N   0  0  0  0  0  0  0  0  0  0  0  0
  -36.8696  -66.0543   49.0029 N   0  0  0  0  0  0  0  0  0  0  0  0
  -35.6236  -66.4805   49.2557 C   0  0  0  0  0  0  0  0  0  0  0  0
  -38.8951  -69.0362   51.3224 N   0  0  0  0  0  0  0  0  0  0  0  0
  -39.4811  -69.3763   50.4804 H   0  0  0  0  0  0  0  0  0  0  0  0
  -41.1668  -66.8890   50.7014 I   0  0  0  0  0  0  0  0  0  0  0  0
  -40.7037  -67.9119   52.4898 C   0  0  0  0  0  0  0  0  0  0  0  0
  -39.6334  -68.8337   52.5060 C   0  0  0  0  0  0  0  0  0  0  0  0
  -39.3206  -69.5075   53.6520 C   0  0  0  0  0  0  0  0  0  0  0  0
  -40.0904  -69.2476   54.7887 C   0  0  0  0  0  0  0  0  0  0  0  0
  -41.1316  -68.3625   54.8023 C   0  0  0  0  0  0  0  0  0  0  0  0
  -41.4402  -67.6836   53.6257 C   0  0  0  0  0  0  0  0  0  0  0  0
  -34.3241  -65.9293   48.7876 C   0  0  0  0  0  0  0  0  0  0  0  0
  -33.7793  -64.8795   49.6813 C   0  0  0  0  0  0  0  0  0  0  0  0
  -33.8735  -64.9265   50.9255 O   0  0  0  0  0  0  0  0  0  0  0  0
  -33.1455  -63.8053   49.1209 O   0  0  0  0  0  0  0  0  0  0  0  0
  -33.7383  -62.8674   48.2959 C   0  0  0  0  0  0  0  0  0  0  0  0
  -35.0451  -62.3316   48.7410 C   0  0  0  0  0  0  0  0  0  0  0  0
 15 16  1  0  0  0
 16 17  2  0  0  0
 16 21  1  0  0  0
 17 18  1  0  0  0
 17 13  1  0  0  0
 18 19  2  0  0  0
 19 20  1  0  0  0
 20 21  2  0  0  0
 13  1  1  0  0  0
  1  2  2  0  0  0
  1  9  1  0  0  0
  2  3  1  0  0  0
  3  4  2  0  0  0
  3  7  1  0  0  0
  4  5  1  0  0  0
  5  6  1  0  0  0
  6  7  2  0  0  0
  7  8  1  0  0  0
  8  9  1  0  0  0
  8 12  1  0  0  0
  9 10  2  0  0  0
 10 11  1  0  0  0
 11 12  2  0  0  0
 12 22  1  0  0  0
 22 23  1  0  0  0
 23 24  2  0  0  0
 23 25  1  0  0  0
 25 26  1  0  0  0
 26 27  1  0  0  0
 13 14  1  0  0  0
M  END
> <minimizedAffinity>
-8.14275

$$$$
908


 25 28  0  0  0  0  0  0  0  0999 V2000
  -38.0419  -66.7997   48.6510 N   0  0  0  0  0  0  0  0  0  0  0  0
  -38.3332  -67.3441   49.8458 C   0  0  0  0  0  0  0  0  0  0  0  0
  -37.5128  -67.9678   50.5840 O   0  0  0  0  0  0  0  0  0  0  0  0
  -39.6558  -67.1417   50.1830 C   0  0  0  0  0  0  0  0  0  0  0  0
  -40.1779  -66.4614   49.1755 C   0  0  0  0  0  0  0  0  0  0  0  0
  -41.4730  -66.2695   49.5205 N   0  0  0  0  0  0  0  0  0  0  0  0
  -41.7256  -66.8148   50.6962 N   0  0  0  0  0  0  0  0  0  0  0  0
  -40.6162  -67.3598   51.1241 N   0  0  0  0  0  0  0  0  0  0  0  0
  -39.1917  -66.2449   48.2262 C   0  0  0  0  0  0  0  0  0  0  0  0
  -39.3709  -65.6179   47.1318 O   0  0  0  0  0  0  0  0  0  0  0  0
  -42.1879  -65.7658   48.9544 H   0  0  0  0  0  0  0  0  0  0  0  0
  -42.6394  -66.8141   51.1931 H   0  0  0  0  0  0  0  0  0  0  0  0
  -36.4598  -64.1435   49.3473 I   0  0  0  0  0  0  0  0  0  0  0  0
  -35.9064  -65.7430   48.0763 C   0  0  0  0  0  0  0  0  0  0  0  0
  -36.7962  -66.7903   47.9523 C   0  0  0  0  0  0  0  0  0  0  0  0
  -36.4170  -67.8235   47.1199 C   0  0  0  0  0  0  0  0  0  0  0  0
  -35.2069  -67.8013   46.4479 C   0  0  0  0  0  0  0  0  0  0  0  0
  -34.3254  -66.7493   46.5798 C   0  0  0  0  0  0  0  0  0  0  0  0
  -34.6975  -65.7126   47.4104 C   0  0  0  0  0  0  0  0  0  0  0  0
  -40.3903  -68.0629   52.3384 C   0  0  0  0  0  0  0  0  0  0  0  0
  -39.8232  -69.3178   52.3632 C   0  0  0  0  0  0  0  0  0  0  0  0
  -39.6159  -69.9770   53.5639 C   0  0  0  0  0  0  0  0  0  0  0  0
  -39.9639  -69.4136   54.7742 C   0  0  0  0  0  0  0  0  0  0  0  0
  -40.5313  -68.1573   54.7512 C   0  0  0  0  0  0  0  0  0  0  0  0
  -40.7410  -67.4965   53.5655 C   0  0  0  0  0  0  0  0  0  0  0  0
 13 14  1  0  0  0
 14 15  2  0  0  0
 14 19  1  0  0  0
 15 16  1  0  0  0
 15  1  1  0  0  0
 16 17  2  0  0  0
 17 18  1  0  0  0
 18 19  2  0  0  0
  1  2  1  0  0  0
  1  9  1  0  0  0
  2  3  2  0  0  0
  2  4  1  0  0  0
  4  5  2  0  0  0
  4  8  1  0  0  0
  5  6  1  0  0  0
  5  9  1  0  0  0
  6  7  1  0  0  0
  7  8  1  0  0  0
  8 20  1  0  0  0
 20 21  2  0  0  0
 20 25  1  0  0  0
 21 22  1  0  0  0
 22 23  2  0  0  0
 23 24  1  0  0  0
 24 25  2  0  0  0
  9 10  2  0  0  0
  6 11  1  0  0  0
  7 12  1  0  0  0
M  END
> <minimizedAffinity>
-8.34370

$$$$
910


 26 29  0  0  0  0  0  0  0  0999 V2000
  -41.0183  -65.6259   50.9136 C   0  0  0  0  0  0  0  0  0  0  0  0
  -40.3668  -64.6116   50.1744 C   0  0  0  0  0  0  0  0  0  0  0  0
  -40.7036  -63.3508   49.9288 N   0  0  0  0  0  0  0  0  0  0  0  0
  -39.7778  -62.8175   49.1913 O   0  0  0  0  0  0  0  0  0  0  0  0
  -38.8532  -63.6735   48.9437 N   0  0  0  0  0  0  0  0  0  0  0  0
  -39.1839  -64.8235   49.5454 C   0  0  0  0  0  0  0  0  0  0  0  0
  -38.5820  -66.0600   49.6184 C   0  0  0  0  0  0  0  0  0  0  0  0
  -39.1880  -67.0658   50.3260 C   0  0  0  0  0  0  0  0  0  0  0  0
  -40.3924  -66.8636   50.9713 C   0  0  0  0  0  0  0  0  0  0  0  0
  -37.3629  -66.2407   48.9482 N   0  0  0  0  0  0  0  0  0  0  0  0
  -37.2804  -66.7540   47.5801 C   0  0  0  0  0  0  0  0  0  0  0  0
  -36.5160  -68.0560   47.7069 C   0  0  0  0  0  0  0  0  0  0  0  0
  -36.1088  -68.3388   49.0007 O   0  0  0  0  0  0  0  0  0  0  0  0
  -35.3935  -67.3390   49.6249 C   0  0  0  0  0  0  0  0  0  0  0  0
  -36.0377  -65.9738   49.4598 C   0  0  0  0  0  0  0  0  0  0  0  0
  -43.2817  -64.8403   52.1840 C   0  0  0  0  0  0  0  0  0  0  0  0
  -43.4747  -63.6446   52.6522 O   0  0  0  0  0  0  0  0  0  0  0  0
  -42.1697  -65.2262   51.5600 N   0  0  0  0  0  0  0  0  0  0  0  0
  -41.5600  -64.0535   51.8863 H   0  0  0  0  0  0  0  0  0  0  0  0
  -42.8660  -67.5131   54.4552 I   0  0  0  0  0  0  0  0  0  0  0  0
  -44.5037  -66.7562   53.3260 C   0  0  0  0  0  0  0  0  0  0  0  0
  -44.4741  -65.6891   52.4546 C   0  0  0  0  0  0  0  0  0  0  0  0
  -45.7072  -65.5436   51.9630 N   0  0  0  0  0  0  0  0  0  0  0  0
  -46.4819  -66.4793   52.4982 N   0  0  0  0  0  0  0  0  0  0  0  0
  -45.7872  -67.2434   53.3383 C   0  0  0  0  0  0  0  0  0  0  0  0
  -46.2103  -64.5171   51.0313 C   0  0  0  0  0  0  0  0  0  0  0  0
 20 21  1  0  0  0
 21 22  2  0  0  0
 21 25  1  0  0  0
 22 23  1  0  0  0
 22 16  1  0  0  0
 23 24  1  0  0  0
 23 26  1  0  0  0
 24 25  2  0  0  0
 16 17  2  0  0  0
 16 18  1  0  0  0
 18  1  1  0  0  0
  1  2  1  0  0  0
  1  9  2  0  0  0
  2  3  2  0  0  0
  2  6  1  0  0  0
  3  4  1  0  0  0
  4  5  1  0  0  0
  5  6  2  0  0  0
  6  7  1  0  0  0
  7  8  2  0  0  0
  7 10  1  0  0  0
  8  9  1  0  0  0
 10 11  1  0  0  0
 10 15  1  0  0  0
 11 12  1  0  0  0
 12 13  1  0  0  0
 13 14  1  0  0  0
 14 15  1  0  0  0
 18 19  1  0  0  0
M  END
> <minimizedAffinity>
-7.57731

$$$$
920


 24 27  0  0  0  0  0  0  0  0999 V2000
  -37.4387  -68.6909   50.7054 N   0  0  0  0  0  0  0  0  0  0  0  0
  -36.1591  -68.5511   50.8614 C   0  0  0  0  0  0  0  0  0  0  0  0
  -34.7720  -69.2857   51.7420 S   0  0  0  0  0  0  0  0  0  0  0  0
  -33.5862  -68.1422   51.0734 C   0  0  0  0  0  0  0  0  0  0  0  0
  -34.2077  -67.3075   50.2705 C   0  0  0  0  0  0  0  0  0  0  0  0
  -35.6040  -67.4991   50.1296 N   0  0  0  0  0  0  0  0  0  0  0  0
  -36.7284  -66.8778   49.3839 C   0  0  0  0  0  0  0  0  0  0  0  0
  -37.9174  -67.6513   49.8366 C   0  0  0  0  0  0  0  0  0  0  0  0
  -33.3958  -66.2492   49.6003 C   0  0  0  0  0  0  0  0  0  0  0  0
  -33.6746  -64.9149   49.7397 C   0  0  0  0  0  0  0  0  0  0  0  0
  -32.8997  -63.9192   49.1129 C   0  0  0  0  0  0  0  0  0  0  0  0
  -31.8238  -64.2704   48.3308 C   0  0  0  0  0  0  0  0  0  0  0  0
  -31.5402  -65.6055   48.1877 C   0  0  0  0  0  0  0  0  0  0  0  0
  -32.3098  -66.5800   48.8101 C   0  0  0  0  0  0  0  0  0  0  0  0
  -38.2406  -69.6781   51.3252 C   0  0  0  0  0  0  0  0  0  0  0  0
  -38.8610  -69.4595   52.6050 C   0  0  0  0  0  0  0  0  0  0  0  0
  -38.2743  -70.1176   53.5692 O   0  0  0  0  0  0  0  0  0  0  0  0
  -43.8737  -65.9755   54.3253 I   0  0  0  0  0  0  0  0  0  0  0  0
  -42.2201  -67.1296   53.8082 C   0  0  0  0  0  0  0  0  0  0  0  0
  -41.5152  -67.9204   54.6949 C   0  0  0  0  0  0  0  0  0  0  0  0
  -40.4314  -68.6690   54.3218 C   0  0  0  0  0  0  0  0  0  0  0  0
  -39.9843  -68.6723   53.0356 C   0  0  0  0  0  0  0  0  0  0  0  0
  -40.6829  -67.8803   52.1261 C   0  0  0  0  0  0  0  0  0  0  0  0
  -41.7559  -67.1383   52.4926 C   0  0  0  0  0  0  0  0  0  0  0  0
 18 19  1  0  0  0
 19 20  2  0  0  0
 19 24  1  0  0  0
 20 21  1  0  0  0
 21 22  2  0  0  0
 22 23  1  0  0  0
 22 16  1  0  0  0
 23 24  2  0  0  0
 16 17  2  0  0  0
 16 15  1  0  0  0
 15  1  1  0  0  0
  1  2  2  0  0  0
  1  8  1  0  0  0
  2  3  1  0  0  0
  2  6  1  0  0  0
  3  4  1  0  0  0
  4  5  2  0  0  0
  5  6  1  0  0  0
  5  9  1  0  0  0
  6  7  1  0  0  0
  7  8  1  0  0  0
  9 10  2  0  0  0
  9 14  1  0  0  0
 10 11  1  0  0  0
 11 12  2  0  0  0
 12 13  1  0  0  0
 13 14  2  0  0  0
M  END
> <minimizedAffinity>
-8.34534

$$$$
924


 29 32  0  0  0  0  0  0  0  0999 V2000
  -40.5435  -67.3610   52.3621 C   0  0  0  0  0  0  0  0  0  0  0  0
  -40.1585  -66.6161   51.3120 N   0  0  0  0  0  0  0  0  0  0  0  0
  -40.9783  -65.7083   50.7673 C   0  0  0  0  0  0  0  0  0  0  0  0
  -42.1959  -65.5835   51.3204 N   0  0  0  0  0  0  0  0  0  0  0  0
  -42.6181  -66.3126   52.3729 C   0  0  0  0  0  0  0  0  0  0  0  0
  -41.7635  -67.2135   52.8920 N   0  0  0  0  0  0  0  0  0  0  0  0
  -43.9244  -66.1182   52.8970 N   0  0  0  0  0  0  0  0  0  0  0  0
  -44.4938  -67.1075   53.7824 C   0  0  0  0  0  0  0  0  0  0  0  0
  -45.9933  -67.1319   53.4539 C   0  0  0  0  0  0  0  0  0  0  0  0
  -46.5139  -65.9182   53.8198 O   0  0  0  0  0  0  0  0  0  0  0  0
  -46.0168  -64.8224   53.1716 C   0  0  0  0  0  0  0  0  0  0  0  0
  -44.6723  -64.9585   52.5543 C   0  0  0  0  0  0  0  0  0  0  0  0
  -40.5914  -64.9059   49.6513 N   0  0  0  0  0  0  0  0  0  0  0  0
  -41.5158  -64.1227   48.8887 C   0  0  0  0  0  0  0  0  0  0  0  0
  -40.7605  -63.5600   47.6828 C   0  0  0  0  0  0  0  0  0  0  0  0
  -40.0475  -64.5469   47.0226 O   0  0  0  0  0  0  0  0  0  0  0  0
  -39.0337  -65.0863   47.7752 C   0  0  0  0  0  0  0  0  0  0  0  0
  -39.1919  -64.8738   49.2592 C   0  0  0  0  0  0  0  0  0  0  0  0
  -39.6390  -68.3356   52.9342 N   0  0  0  0  0  0  0  0  0  0  0  0
  -39.0367  -68.0721   53.7446 H   0  0  0  0  0  0  0  0  0  0  0  0
  -38.6203  -69.9764   51.6621 C   0  0  0  0  0  0  0  0  0  0  0  0
  -39.5669  -69.5744   52.3890 N   0  0  0  0  0  0  0  0  0  0  0  0
  -33.7167  -66.5718   49.4982 I   0  0  0  0  0  0  0  0  0  0  0  0
  -35.2750  -67.7320   50.2745 C   0  0  0  0  0  0  0  0  0  0  0  0
  -35.1021  -68.6029   51.3055 C   0  0  0  0  0  0  0  0  0  0  0  0
  -36.1893  -69.3523   51.7792 C   0  0  0  0  0  0  0  0  0  0  0  0
  -37.4445  -69.2580   51.2543 C   0  0  0  0  0  0  0  0  0  0  0  0
  -37.5940  -68.3529   50.1927 C   0  0  0  0  0  0  0  0  0  0  0  0
  -36.5325  -67.6166   49.7251 C   0  0  0  0  0  0  0  0  0  0  0  0
 23 24  1  0  0  0
 24 25  2  0  0  0
 24 29  1  0  0  0
 25 26  1  0  0  0
 26 27  2  0  0  0
 27 28  1  0  0  0
 27 21  1  0  0  0
 28 29  2  0  0  0
 21 22  2  0  0  0
 22 19  1  0  0  0
 19  1  1  0  0  0
  1  2  2  0  0  0
  1  6  1  0  0  0
  2  3  1  0  0  0
  3  4  2  0  0  0
  3 13  1  0  0  0
  4  5  1  0  0  0
  5  6  2  0  0  0
  5  7  1  0  0  0
  7  8  1  0  0  0
  7 12  1  0  0  0
  8  9  1  0  0  0
  9 10  1  0  0  0
 10 11  1  0  0  0
 11 12  1  0  0  0
 13 14  1  0  0  0
 13 18  1  0  0  0
 14 15  1  0  0  0
 15 16  1  0  0  0
 16 17  1  0  0  0
 17 18  1  0  0  0
 19 20  1  0  0  0
M  END
> <minimizedAffinity>
-8.03449

$$$$
935


 34 38  0  0  0  0  0  0  0  0999 V2000
  -40.2955  -64.5385   49.2363 N   0  0  0  0  0  0  0  0  0  0  0  0
  -39.0624  -64.8547   48.8040 C   0  0  0  0  0  0  0  0  0  0  0  0
  -38.4909  -64.2611   47.6998 C   0  0  0  0  0  0  0  0  0  0  0  0
  -39.2624  -63.3130   47.0566 C   0  0  0  0  0  0  0  0  0  0  0  0
  -38.8823  -62.6770   46.0276 O   0  0  0  0  0  0  0  0  0  0  0  0
  -40.5195  -62.9820   47.4871 N   0  0  0  0  0  0  0  0  0  0  0  0
  -41.0033  -63.6102   48.5727 C   0  0  0  0  0  0  0  0  0  0  0  0
  -42.1524  -63.3399   49.0050 O   0  0  0  0  0  0  0  0  0  0  0  0
  -38.3271  -65.7995   49.4721 O   0  0  0  0  0  0  0  0  0  0  0  0
  -41.0953  -62.2701   47.0005 H   0  0  0  0  0  0  0  0  0  0  0  0
  -37.1758  -64.5597   47.1636 C   0  0  0  0  0  0  0  0  0  0  0  0
  -36.4506  -63.4867   46.5614 N   0  0  0  0  0  0  0  0  0  0  0  0
  -36.0908  -62.4261   47.4624 C   0  0  0  0  0  0  0  0  0  0  0  0
  -36.3364  -62.7663   48.9173 C   0  0  0  0  0  0  0  0  0  0  0  0
  -35.8364  -64.1688   49.1691 C   0  0  0  0  0  0  0  0  0  0  0  0
  -36.2619  -65.0847   48.2405 C   0  0  0  0  0  0  0  0  0  0  0  0
  -35.8598  -66.3964   48.3202 C   0  0  0  0  0  0  0  0  0  0  0  0
  -35.0183  -66.7411   49.3682 C   0  0  0  0  0  0  0  0  0  0  0  0
  -34.5825  -65.8326   50.3105 C   0  0  0  0  0  0  0  0  0  0  0  0
  -35.0142  -64.5122   50.1915 C   0  0  0  0  0  0  0  0  0  0  0  0
  -33.7631  -66.4934   51.2122 O   0  0  0  0  0  0  0  0  0  0  0  0
  -33.9627  -67.9095   51.0719 C   0  0  0  0  0  0  0  0  0  0  0  0
  -34.4318  -67.9614   49.7375 O   0  0  0  0  0  0  0  0  0  0  0  0
  -35.1568  -64.0855   46.1406 C   0  0  0  0  0  0  0  0  0  0  0  0
  -36.8100  -63.1343   45.6588 H   0  0  0  0  0  0  0  0  0  0  0  0
  -36.2872  -67.3011   47.3902 O   0  0  0  0  0  0  0  0  0  0  0  0
  -35.5260  -67.9106   46.3970 C   0  0  0  0  0  0  0  0  0  0  0  0
  -42.8360  -67.3383   54.3163 I   0  0  0  0  0  0  0  0  0  0  0  0
  -41.9979  -66.4276   52.6213 C   0  0  0  0  0  0  0  0  0  0  0  0
  -41.4901  -65.1354   52.7056 C   0  0  0  0  0  0  0  0  0  0  0  0
  -40.9435  -64.5361   51.6086 C   0  0  0  0  0  0  0  0  0  0  0  0
  -40.8644  -65.1642   50.3759 C   0  0  0  0  0  0  0  0  0  0  0  0
  -41.3708  -66.4565   50.2850 C   0  0  0  0  0  0  0  0  0  0  0  0
  -41.9215  -67.0537   51.3994 C   0  0  0  0  0  0  0  0  0  0  0  0
 28 29  1  0  0  0
 29 30  2  0  0  0
 29 34  1  0  0  0
 30 31  1  0  0  0
 31 32  2  0  0  0
 32 33  1  0  0  0
 32  1  1  0  0  0
 33 34  2  0  0  0
  1  2  1  0  0  0
  1  7  1  0  0  0
  2  3  2  0  0  0
  2  9  1  0  0  0
  3  4  1  0  0  0
  3 11  1  0  0  0
  4  5  2  0  0  0
  4  6  1  0  0  0
  6  7  1  0  0  0
  7  8  2  0  0  0
 11 12  1  0  0  0
 11 16  1  0  0  0
 12 13  1  0  0  0
 12 24  1  0  0  0
 13 14  1  0  0  0
 14 15  1  0  0  0
 15 16  2  0  0  0
 15 20  1  0  0  0
 16 17  1  0  0  0
 17 18  2  0  0  0
 17 26  1  0  0  0
 18 19  1  0  0  0
 18 23  1  0  0  0
 19 20  2  0  0  0
 19 21  1  0  0  0
 21 22  1  0  0  0
 22 23  1  0  0  0
 26 27  1  0  0  0
  6 10  1  0  0  0
 12 25  1  0  0  0
M  CHG 1   9  -1
M  CHG 1  12   1
M  END
> <minimizedAffinity>
-7.83270

$$$$
937


 26 29  0  0  0  0  0  0  0  0999 V2000
  -39.7477  -65.1863   49.2334 N   0  0  0  0  0  0  0  0  0  0  0  0
  -39.1749  -65.6397   48.0182 C   0  0  0  0  0  0  0  0  0  0  0  0
  -39.2896  -66.8167   47.5885 O   0  0  0  0  0  0  0  0  0  0  0  0
  -38.4440  -64.5205   47.3613 C   0  0  0  0  0  0  0  0  0  0  0  0
  -39.2284  -63.3166   47.8548 C   0  0  0  0  0  0  0  0  0  0  0  0
  -39.8458  -63.7686   49.1172 C   0  0  0  0  0  0  0  0  0  0  0  0
  -40.3922  -63.0344   49.9915 O   0  0  0  0  0  0  0  0  0  0  0  0
  -41.6409  -68.5497   54.2937 I   0  0  0  0  0  0  0  0  0  0  0  0
  -41.0189  -67.4263   52.6162 C   0  0  0  0  0  0  0  0  0  0  0  0
  -41.6088  -66.2267   52.2776 C   0  0  0  0  0  0  0  0  0  0  0  0
  -41.1825  -65.5136   51.1751 C   0  0  0  0  0  0  0  0  0  0  0  0
  -40.1576  -65.9676   50.3717 C   0  0  0  0  0  0  0  0  0  0  0  0
  -39.5831  -67.1649   50.7263 C   0  0  0  0  0  0  0  0  0  0  0  0
  -39.9930  -67.8951   51.8247 C   0  0  0  0  0  0  0  0  0  0  0  0
  -37.1095  -64.5451   47.7991 N   0  0  0  0  0  0  0  0  0  0  0  0
  -36.7744  -64.2474   49.1195 C   0  0  0  0  0  0  0  0  0  0  0  0
  -35.4366  -64.9723   49.4217 C   0  0  0  0  0  0  0  0  0  0  0  0
  -35.5709  -66.3570   48.9941 N   0  0  0  0  0  0  0  0  0  0  0  0
  -35.8463  -66.5727   47.5954 C   0  0  0  0  0  0  0  0  0  0  0  0
  -36.1770  -65.2133   46.9848 C   0  0  0  0  0  0  0  0  0  0  0  0
  -35.4434  -67.4212   49.9099 C   0  0  0  0  0  0  0  0  0  0  0  0
  -34.2479  -67.6876   50.5031 N   0  0  0  0  0  0  0  0  0  0  0  0
  -34.0678  -68.6709   51.3822 C   0  0  0  0  0  0  0  0  0  0  0  0
  -35.1297  -69.4912   51.7388 C   0  0  0  0  0  0  0  0  0  0  0  0
  -36.3427  -69.2155   51.1323 C   0  0  0  0  0  0  0  0  0  0  0  0
  -36.4795  -68.2143   50.2526 N   0  0  0  0  0  0  0  0  0  0  0  0
  8  9  1  0  0  0
  9 10  2  0  0  0
  9 14  1  0  0  0
 10 11  1  0  0  0
 11 12  2  0  0  0
 12 13  1  0  0  0
 12  1  1  0  0  0
 13 14  2  0  0  0
  1  2  1  0  0  0
  1  6  1  0  0  0
  2  3  2  0  0  0
  2  4  1  0  0  0
  4  5  1  0  0  0
  4 15  1  0  0  0
  5  6  1  0  0  0
  6  7  2  0  0  0
 15 16  1  0  0  0
 15 20  1  0  0  0
 16 17  1  0  0  0
 17 18  1  0  0  0
 18 19  1  0  0  0
 18 21  1  0  0  0
 19 20  1  0  0  0
 21 22  2  0  0  0
 21 26  1  0  0  0
 22 23  1  0  0  0
 23 24  2  0  0  0
 24 25  1  0  0  0
 25 26  2  0  0  0
M  END
> <minimizedAffinity>
-7.94650

$$$$
950


 26 29  0  0  0  0  0  0  0  0999 V2000
  -39.1446  -67.4440   50.3180 C   0  0  0  0  0  0  0  0  0  0  0  0
  -37.9810  -68.1553   50.6268 C   0  0  0  0  0  0  0  0  0  0  0  0
  -37.6978  -69.0096   51.6254 N   0  0  0  0  0  0  0  0  0  0  0  0
  -36.4702  -69.4150   51.4847 O   0  0  0  0  0  0  0  0  0  0  0  0
  -35.9316  -68.8668   50.4398 N   0  0  0  0  0  0  0  0  0  0  0  0
  -36.8461  -68.0626   49.8644 C   0  0  0  0  0  0  0  0  0  0  0  0
  -36.8315  -67.2476   48.7532 C   0  0  0  0  0  0  0  0  0  0  0  0
  -37.9790  -66.5550   48.4590 C   0  0  0  0  0  0  0  0  0  0  0  0
  -39.1435  -66.6422   49.2325 C   0  0  0  0  0  0  0  0  0  0  0  0
  -35.6478  -67.1649   47.9772 N   0  0  0  0  0  0  0  0  0  0  0  0
  -35.5847  -67.7661   46.6609 C   0  0  0  0  0  0  0  0  0  0  0  0
  -34.2637  -67.4555   46.0484 C   0  0  0  0  0  0  0  0  0  0  0  0
  -33.9050  -66.1234   46.1159 O   0  0  0  0  0  0  0  0  0  0  0  0
  -33.8745  -65.5950   47.3675 C   0  0  0  0  0  0  0  0  0  0  0  0
  -34.4506  -66.4891   48.4367 C   0  0  0  0  0  0  0  0  0  0  0  0
  -40.8831  -66.6450   51.9430 C   0  0  0  0  0  0  0  0  0  0  0  0
  -40.4541  -65.4396   51.9191 O   0  0  0  0  0  0  0  0  0  0  0  0
  -40.2558  -67.6169   51.1757 N   0  0  0  0  0  0  0  0  0  0  0  0
  -40.6679  -68.5987   51.2678 H   0  0  0  0  0  0  0  0  0  0  0  0
  -40.7690  -68.7183   54.9863 I   0  0  0  0  0  0  0  0  0  0  0  0
  -42.1894  -67.5831   53.9675 C   0  0  0  0  0  0  0  0  0  0  0  0
  -43.5148  -67.4359   54.3770 C   0  0  0  0  0  0  0  0  0  0  0  0
  -44.1462  -66.6643   53.4908 N   0  0  0  0  0  0  0  0  0  0  0  0
  -43.2822  -66.3368   52.5704 N   0  0  0  0  0  0  0  0  0  0  0  0
  -42.0442  -66.8829   52.8200 C   0  0  0  0  0  0  0  0  0  0  0  0
  -45.5612  -66.2768   53.5738 C   0  0  0  0  0  0  0  0  0  0  0  0
 20 21  1  0  0  0
 21 22  2  0  0  0
 21 25  1  0  0  0
 22 23  1  0  0  0
 23 24  1  0  0  0
 23 26  1  0  0  0
 24 25  2  0  0  0
 25 16  1  0  0  0
 16 17  2  0  0  0
 16 18  1  0  0  0
 18  1  1  0  0  0
  1  2  1  0  0  0
  1  9  2  0  0  0
  2  3  2  0  0  0
  2  6  1  0  0  0
  3  4  1  0  0  0
  4  5  1  0  0  0
  5  6  2  0  0  0
  6  7  1  0  0  0
  7  8  2  0  0  0
  7 10  1  0  0  0
  8  9  1  0  0  0
 10 11  1  0  0  0
 10 15  1  0  0  0
 11 12  1  0  0  0
 12 13  1  0  0  0
 13 14  1  0  0  0
 14 15  1  0  0  0
 18 19  1  0  0  0
M  END
> <minimizedAffinity>
-7.60235

$$$$
956


 30 33  0  0  0  0  0  0  0  0999 V2000
  -39.7003  -67.7030   50.8735 I   0  0  0  0  0  0  0  0  0  0  0  0
  -38.9214  -66.0239   49.8646 C   0  0  0  0  0  0  0  0  0  0  0  0
  -39.6216  -64.9247   49.4634 C   0  0  0  0  0  0  0  0  0  0  0  0
  -38.6698  -64.1089   48.8503 C   0  0  0  0  0  0  0  0  0  0  0  0
  -37.4572  -64.6634   48.8694 N   0  0  0  0  0  0  0  0  0  0  0  0
  -37.6022  -65.8351   49.4877 C   0  0  0  0  0  0  0  0  0  0  0  0
  -39.0871  -62.9334   48.3510 N   0  0  0  0  0  0  0  0  0  0  0  0
  -40.3731  -62.5598   48.4388 C   0  0  0  0  0  0  0  0  0  0  0  0
  -41.2819  -63.3438   49.0265 N   0  0  0  0  0  0  0  0  0  0  0  0
  -40.9437  -64.5576   49.5621 C   0  0  0  0  0  0  0  0  0  0  0  0
  -36.2262  -64.1493   48.3482 C   0  0  0  0  0  0  0  0  0  0  0  0
  -35.1096  -64.8866   48.7232 O   0  0  0  0  0  0  0  0  0  0  0  0
  -34.0626  -64.1209   48.2181 C   0  0  0  0  0  0  0  0  0  0  0  0
  -34.4180  -62.6728   48.4623 C   0  0  0  0  0  0  0  0  0  0  0  0
  -35.8732  -62.7794   48.9335 C   0  0  0  0  0  0  0  0  0  0  0  0
  -34.4472  -61.9406   47.2746 O   0  0  0  0  0  0  0  0  0  0  0  0
  -33.4816  -61.7941   47.0296 H   0  0  0  0  0  0  0  0  0  0  0  0
  -32.7833  -64.3910   49.0226 C   0  0  0  0  0  0  0  0  0  0  0  0
  -32.1163  -63.1763   49.2295 O   0  0  0  0  0  0  0  0  0  0  0  0
  -32.3631  -62.7816   50.1249 H   0  0  0  0  0  0  0  0  0  0  0  0
  -41.9538  -65.3509   50.1765 N   0  0  0  0  0  0  0  0  0  0  0  0
  -42.2928  -65.0908   51.5357 C   0  0  0  0  0  0  0  0  0  0  0  0
  -41.6719  -64.1647   52.1170 O   0  0  0  0  0  0  0  0  0  0  0  0
  -42.4740  -66.1090   49.7264 H   0  0  0  0  0  0  0  0  0  0  0  0
  -43.2903  -65.8137   52.2758 C   0  0  0  0  0  0  0  0  0  0  0  0
  -44.6150  -65.7369   51.9446 C   0  0  0  0  0  0  0  0  0  0  0  0
  -45.5960  -66.4360   52.6514 C   0  0  0  0  0  0  0  0  0  0  0  0
  -45.2305  -67.2208   53.7051 C   0  0  0  0  0  0  0  0  0  0  0  0
  -43.9100  -67.3170   54.0603 C   0  0  0  0  0  0  0  0  0  0  0  0
  -42.9434  -66.6079   53.3381 C   0  0  0  0  0  0  0  0  0  0  0  0
  1  2  1  0  0  0
  2  3  1  0  0  0
  2  6  2  0  0  0
  3  4  2  0  0  0
  3 10  1  0  0  0
  4  5  1  0  0  0
  4  7  1  0  0  0
  5  6  1  0  0  0
  5 11  1  0  0  0
 11 12  1  0  0  0
 11 15  1  0  0  0
 12 13  1  0  0  0
 13 14  1  0  0  0
 13 18  1  0  0  0
 14 15  1  0  0  0
 14 16  1  0  0  0
 18 19  1  0  0  0
  7  8  2  0  0  0
  8  9  1  0  0  0
  9 10  2  0  0  0
 10 21  1  0  0  0
 21 22  1  0  0  0
 22 23  2  0  0  0
 22 25  1  0  0  0
 25 26  2  0  0  0
 25 30  1  0  0  0
 26 27  1  0  0  0
 27 28  2  0  0  0
 28 29  1  0  0  0
 29 30  2  0  0  0
 16 17  1  0  0  0
 19 20  1  0  0  0
 21 24  1  0  0  0
M  END
> <minimizedAffinity>
-8.15769

$$$$
961


 29 33  0  0  0  0  0  0  0  0999 V2000
  -39.4617  -64.3453   49.1067 C   0  0  0  0  0  0  0  0  0  0  0  0
  -40.2320  -63.5044   48.4591 N   0  0  0  0  0  0  0  0  0  0  0  0
  -41.5739  -63.4690   48.7189 C   0  0  0  0  0  0  0  0  0  0  0  0
  -42.1894  -64.2673   49.6334 C   0  0  0  0  0  0  0  0  0  0  0  0
  -41.4119  -65.1620   50.3360 C   0  0  0  0  0  0  0  0  0  0  0  0
  -41.6679  -66.1026   51.3099 N   0  0  0  0  0  0  0  0  0  0  0  0
  -40.5396  -66.7041   51.6467 C   0  0  0  0  0  0  0  0  0  0  0  0
  -39.5695  -66.1360   50.8796 N   0  0  0  0  0  0  0  0  0  0  0  0
  -40.0735  -65.1946   50.0725 C   0  0  0  0  0  0  0  0  0  0  0  0
  -43.0019  -66.2801   51.8090 C   0  0  0  0  0  0  0  0  0  0  0  0
  -39.7113  -62.5504   47.5250 C   0  0  0  0  0  0  0  0  0  0  0  0
  -40.3068  -67.7533   52.6462 C   0  0  0  0  0  0  0  0  0  0  0  0
  -40.7025  -67.7016   53.9415 C   0  0  0  0  0  0  0  0  0  0  0  0
  -40.3962  -68.7595   54.8181 C   0  0  0  0  0  0  0  0  0  0  0  0
  -39.6934  -69.8532   54.3669 C   0  0  0  0  0  0  0  0  0  0  0  0
  -39.2776  -69.9314   53.0446 C   0  0  0  0  0  0  0  0  0  0  0  0
  -39.5936  -68.8911   52.2346 C   0  0  0  0  0  0  0  0  0  0  0  0
  -37.0159  -64.4384   49.6364 C   0  0  0  0  0  0  0  0  0  0  0  0
  -38.0476  -64.5819   48.8820 C   0  0  0  0  0  0  0  0  0  0  0  0
  -35.9569  -67.4881   49.7406 Br  0  0  0  0  0  0  0  0  0  0  0  0
  -34.9915  -65.8887   49.3642 C   0  0  0  0  0  0  0  0  0  0  0  0
  -33.6089  -66.0152   49.0786 C   0  0  0  0  0  0  0  0  0  0  0  0
  -32.8403  -64.9073   48.8450 C   0  0  0  0  0  0  0  0  0  0  0  0
  -33.4397  -63.6680   48.8948 C   0  0  0  0  0  0  0  0  0  0  0  0
  -34.7832  -63.5564   49.1731 C   0  0  0  0  0  0  0  0  0  0  0  0
  -35.6085  -64.6828   49.4177 C   0  0  0  0  0  0  0  0  0  0  0  0
  -32.4423  -62.7164   48.6247 O   0  0  0  0  0  0  0  0  0  0  0  0
  -31.4248  -63.4044   47.9267 C   0  0  0  0  0  0  0  0  0  0  0  0
  -31.4922  -64.6888   48.5447 O   0  0  0  0  0  0  0  0  0  0  0  0
 20 21  1  0  0  0
 21 22  2  0  0  0
 21 26  1  0  0  0
 22 23  1  0  0  0
 23 24  2  0  0  0
 23 29  1  0  0  0
 24 25  1  0  0  0
 24 27  1  0  0  0
 25 26  2  0  0  0
 26 18  1  0  0  0
 18 19  2  0  0  0
 19  1  1  0  0  0
  1  2  2  0  0  0
  1  9  1  0  0  0
  2  3  1  0  0  0
  2 11  1  0  0  0
  3  4  2  0  0  0
  4  5  1  0  0  0
  5  6  1  0  0  0
  5  9  2  0  0  0
  6  7  1  0  0  0
  6 10  1  0  0  0
  7  8  2  0  0  0
  7 12  1  0  0  0
  8  9  1  0  0  0
 12 13  2  0  0  0
 12 17  1  0  0  0
 13 14  1  0  0  0
 14 15  2  0  0  0
 15 16  1  0  0  0
 16 17  2  0  0  0
 27 28  1  0  0  0
 28 29  1  0  0  0
M  END
> <minimizedAffinity>
-8.82563

$$$$
969


 31 34  0  0  0  0  0  0  0  0999 V2000
  -40.5387  -66.3816   49.6174 Br  0  0  0  0  0  0  0  0  0  0  0  0
  -38.6759  -66.7517   49.5381 C   0  0  0  0  0  0  0  0  0  0  0  0
  -37.7922  -66.0533   48.7202 C   0  0  0  0  0  0  0  0  0  0  0  0
  -36.4421  -66.3627   48.6977 C   0  0  0  0  0  0  0  0  0  0  0  0
  -35.9519  -67.3774   49.4943 C   0  0  0  0  0  0  0  0  0  0  0  0
  -36.8129  -68.0682   50.3004 C   0  0  0  0  0  0  0  0  0  0  0  0
  -38.1489  -67.7564   50.3177 C   0  0  0  0  0  0  0  0  0  0  0  0
  -38.9723  -68.5105   51.1739 O   0  0  0  0  0  0  0  0  0  0  0  0
  -36.0653  -69.4656   51.3844 Br  0  0  0  0  0  0  0  0  0  0  0  0
  -35.5463  -65.6873   47.8973 C   0  0  0  0  0  0  0  0  0  0  0  0
  -36.0440  -64.6739   47.1050 C   0  0  0  0  0  0  0  0  0  0  0  0
  -37.4864  -64.4158   47.1922 C   0  0  0  0  0  0  0  0  0  0  0  0
  -37.9749  -63.3883   46.3836 C   0  0  0  0  0  0  0  0  0  0  0  0
  -37.1289  -62.6780   45.5639 C   0  0  0  0  0  0  0  0  0  0  0  0
  -37.6142  -61.7609   44.8540 O   0  0  0  0  0  0  0  0  0  0  0  0
  -35.7657  -62.9476   45.5038 C   0  0  0  0  0  0  0  0  0  0  0  0
  -35.2205  -63.9381   46.2678 C   0  0  0  0  0  0  0  0  0  0  0  0
  -34.6624  -61.9105   44.3371 Br  0  0  0  0  0  0  0  0  0  0  0  0
  -39.8552  -62.9960   46.4452 Br  0  0  0  0  0  0  0  0  0  0  0  0
  -38.2873  -65.0972   47.9770 O   0  0  0  0  0  0  0  0  0  0  0  0
  -34.1214  -66.0213   47.8693 C   0  0  0  0  0  0  0  0  0  0  0  0
  -33.2411  -65.4277   48.7554 C   0  0  0  0  0  0  0  0  0  0  0  0
  -31.8941  -65.7213   48.7453 C   0  0  0  0  0  0  0  0  0  0  0  0
  -31.4246  -66.6331   47.8225 C   0  0  0  0  0  0  0  0  0  0  0  0
  -32.2563  -67.2408   46.9325 C   0  0  0  0  0  0  0  0  0  0  0  0
  -33.5992  -66.9348   46.9565 C   0  0  0  0  0  0  0  0  0  0  0  0
  -31.5741  -68.3902   45.7931 Cl  0  0  0  0  0  0  0  0  0  0  0  0
  -33.8671  -64.2642   49.9290 Cl  0  0  0  0  0  0  0  0  0  0  0  0
  -34.4871  -67.5704   46.0130 C   0  0  0  0  0  0  0  0  0  0  0  0
  -35.1907  -68.5723   46.3178 O   0  0  0  0  0  0  0  0  0  0  0  0
  -34.5950  -67.0868   44.7111 O   0  0  0  0  0  0  0  0  0  0  0  0
  1  2  1  0  0  0
  2  3  2  0  0  0
  2  7  1  0  0  0
  3  4  1  0  0  0
  3 20  1  0  0  0
  4  5  2  0  0  0
  4 10  1  0  0  0
  5  6  1  0  0  0
  6  7  2  0  0  0
  6  9  1  0  0  0
  7  8  1  0  0  0
 10 11  2  0  0  0
 10 21  1  0  0  0
 11 12  1  0  0  0
 11 17  1  0  0  0
 12 13  2  0  0  0
 12 20  1  0  0  0
 13 14  1  0  0  0
 13 19  1  0  0  0
 14 15  2  0  0  0
 14 16  1  0  0  0
 16 17  2  0  0  0
 16 18  1  0  0  0
 21 22  2  0  0  0
 21 26  1  0  0  0
 22 23  1  0  0  0
 22 28  1  0  0  0
 23 24  2  0  0  0
 24 25  1  0  0  0
 25 26  2  0  0  0
 25 27  1  0  0  0
 26 29  1  0  0  0
 29 30  2  0  0  0
 29 31  1  0  0  0
M  CHG 1   8  -1
M  END
> <minimizedAffinity>
-7.28093

$$$$
971


 29 33  0  0  0  0  0  0  0  0999 V2000
  -41.2605  -62.4141   47.9580 Br  0  0  0  0  0  0  0  0  0  0  0  0
  -39.5515  -63.1171   47.4859 C   0  0  0  0  0  0  0  0  0  0  0  0
  -39.0418  -64.2788   48.0952 C   0  0  0  0  0  0  0  0  0  0  0  0
  -37.8258  -64.8127   47.7862 C   0  0  0  0  0  0  0  0  0  0  0  0
  -37.0633  -64.1608   46.8145 C   0  0  0  0  0  0  0  0  0  0  0  0
  -37.5569  -63.0352   46.2246 C   0  0  0  0  0  0  0  0  0  0  0  0
  -38.7868  -62.4905   46.5323 C   0  0  0  0  0  0  0  0  0  0  0  0
  -39.2317  -61.3269   45.8825 O   0  0  0  0  0  0  0  0  0  0  0  0
  -36.5218  -62.1387   44.8960 Br  0  0  0  0  0  0  0  0  0  0  0  0
  -37.3252  -66.0176   48.4341 C   0  0  0  0  0  0  0  0  0  0  0  0
  -37.1864  -67.0022   47.4115 O   0  0  0  0  0  0  0  0  0  0  0  0
  -35.8932  -67.4282   47.2792 C   0  0  0  0  0  0  0  0  0  0  0  0
  -35.4883  -68.2855   46.4614 O   0  0  0  0  0  0  0  0  0  0  0  0
  -35.1282  -66.6900   48.2654 C   0  0  0  0  0  0  0  0  0  0  0  0
  -35.9464  -65.8392   48.9730 C   0  0  0  0  0  0  0  0  0  0  0  0
  -35.3878  -65.0705   49.9404 C   0  0  0  0  0  0  0  0  0  0  0  0
  -34.0342  -65.1539   50.1915 C   0  0  0  0  0  0  0  0  0  0  0  0
  -33.2110  -66.0044   49.4845 C   0  0  0  0  0  0  0  0  0  0  0  0
  -33.7606  -66.7882   48.5047 C   0  0  0  0  0  0  0  0  0  0  0  0
  -38.2396  -66.5767   49.4242 C   0  0  0  0  0  0  0  0  0  0  0  0
  -39.4479  -65.9950   49.6909 C   0  0  0  0  0  0  0  0  0  0  0  0
  -40.3187  -66.5495   50.6511 C   0  0  0  0  0  0  0  0  0  0  0  0
  -39.9316  -67.6892   51.3165 C   0  0  0  0  0  0  0  0  0  0  0  0
  -38.7074  -68.2855   51.0513 C   0  0  0  0  0  0  0  0  0  0  0  0
  -37.8682  -67.7419   50.1196 C   0  0  0  0  0  0  0  0  0  0  0  0
  -38.1575  -69.8644   51.9650 Br  0  0  0  0  0  0  0  0  0  0  0  0
  -40.7976  -68.2244   52.2578 O   0  0  0  0  0  0  0  0  0  0  0  0
  -42.0009  -65.7065   50.9965 Br  0  0  0  0  0  0  0  0  0  0  0  0
  -39.8895  -64.8460   49.0500 O   0  0  0  0  0  0  0  0  0  0  0  0
  1  2  1  0  0  0
  2  3  2  0  0  0
  2  7  1  0  0  0
  3  4  1  0  0  0
  3 29  1  0  0  0
  4  5  2  0  0  0
  4 10  1  0  0  0
  5  6  1  0  0  0
  6  7  2  0  0  0
  6  9  1  0  0  0
  7  8  1  0  0  0
 10 11  1  0  0  0
 10 15  1  0  0  0
 10 20  1  0  0  0
 11 12  1  0  0  0
 12 13  2  0  0  0
 12 14  1  0  0  0
 14 15  2  0  0  0
 14 19  1  0  0  0
 15 16  1  0  0  0
 16 17  2  0  0  0
 17 18  1  0  0  0
 18 19  2  0  0  0
 20 21  2  0  0  0
 20 25  1  0  0  0
 21 22  1  0  0  0
 21 29  1  0  0  0
 22 23  2  0  0  0
 22 28  1  0  0  0
 23 24  1  0  0  0
 23 27  1  0  0  0
 24 25  2  0  0  0
 24 26  1  0  0  0
M  CHG 1   8  -1
M  CHG 1  27  -1
M  END
> <minimizedAffinity>
-8.43615

$$$$
978


 33 37  0  0  0  0  0  0  0  0999 V2000
  -52.4662  -66.3707   52.3392 I   0  0  0  0  0  0  0  0  0  0  0  0
  -51.5951  -64.8719   51.1332 C   0  0  0  0  0  0  0  0  0  0  0  0
  -50.2071  -64.7784   51.1401 C   0  0  0  0  0  0  0  0  0  0  0  0
  -49.6189  -63.8250   50.3749 C   0  0  0  0  0  0  0  0  0  0  0  0
  -50.4224  -62.9745   49.6112 C   0  0  0  0  0  0  0  0  0  0  0  0
  -51.7974  -63.0596   49.5980 C   0  0  0  0  0  0  0  0  0  0  0  0
  -52.3883  -64.0324   50.3787 C   0  0  0  0  0  0  0  0  0  0  0  0
  -53.7717  -64.1358   50.3811 O   0  0  0  0  0  0  0  0  0  0  0  0
  -52.9719  -61.7443   48.4214 I   0  0  0  0  0  0  0  0  0  0  0  0
  -48.1811  -63.6404   50.3086 C   0  0  0  0  0  0  0  0  0  0  0  0
  -47.8030  -62.3215   50.7299 O   0  0  0  0  0  0  0  0  0  0  0  0
  -47.1138  -61.6459   49.7577 C   0  0  0  0  0  0  0  0  0  0  0  0
  -46.6306  -60.4772   49.7752 O   0  0  0  0  0  0  0  0  0  0  0  0
  -47.0199  -62.5510   48.6214 C   0  0  0  0  0  0  0  0  0  0  0  0
  -47.6436  -63.7190   48.9406 C   0  0  0  0  0  0  0  0  0  0  0  0
  -47.6979  -64.7640   48.0183 C   0  0  0  0  0  0  0  0  0  0  0  0
  -47.1257  -64.6420   46.7703 C   0  0  0  0  0  0  0  0  0  0  0  0
  -46.4888  -63.4469   46.4464 C   0  0  0  0  0  0  0  0  0  0  0  0
  -46.4332  -62.4172   47.3511 C   0  0  0  0  0  0  0  0  0  0  0  0
  -45.6417  -60.9447   46.9350 Cl  0  0  0  0  0  0  0  0  0  0  0  0
  -45.7455  -63.2291   44.8866 Cl  0  0  0  0  0  0  0  0  0  0  0  0
  -47.2118  -65.9726   45.6395 Cl  0  0  0  0  0  0  0  0  0  0  0  0
  -48.5061  -66.2217   48.4901 Cl  0  0  0  0  0  0  0  0  0  0  0  0
  -47.4532  -64.6118   51.1694 C   0  0  0  0  0  0  0  0  0  0  0  0
  -48.0725  -65.5510   51.9206 C   0  0  0  0  0  0  0  0  0  0  0  0
  -47.2697  -66.3980   52.6820 C   0  0  0  0  0  0  0  0  0  0  0  0
  -45.8958  -66.3139   52.6956 C   0  0  0  0  0  0  0  0  0  0  0  0
  -45.2985  -65.3434   51.9164 C   0  0  0  0  0  0  0  0  0  0  0  0
  -46.0574  -64.4922   51.1557 C   0  0  0  0  0  0  0  0  0  0  0  0
  -43.1977  -65.1890   51.9158 I   0  0  0  0  0  0  0  0  0  0  0  0
  -45.1057  -67.1474   53.4441 O   0  0  0  0  0  0  0  0  0  0  0  0
  -48.2186  -67.8597   53.8517 I   0  0  0  0  0  0  0  0  0  0  0  0
  -49.4508  -65.6651   51.9317 O   0  0  0  0  0  0  0  0  0  0  0  0
  1  2  1  0  0  0
  2  3  2  0  0  0
  2  7  1  0  0  0
  3  4  1  0  0  0
  3 33  1  0  0  0
  4  5  2  0  0  0
  4 10  1  0  0  0
  5  6  1  0  0  0
  6  7  2  0  0  0
  6  9  1  0  0  0
  7  8  1  0  0  0
 10 11  1  0  0  0
 10 15  1  0  0  0
 10 24  1  0  0  0
 11 12  1  0  0  0
 12 13  2  0  0  0
 12 14  1  0  0  0
 14 15  2  0  0  0
 14 19  1  0  0  0
 15 16  1  0  0  0
 16 17  2  0  0  0
 16 23  1  0  0  0
 17 18  1  0  0  0
 17 22  1  0  0  0
 18 19  2  0  0  0
 18 21  1  0  0  0
 19 20  1  0  0  0
 24 25  2  0  0  0
 24 29  1  0  0  0
 25 26  1  0  0  0
 25 33  1  0  0  0
 26 27  2  0  0  0
 26 32  1  0  0  0
 27 28  1  0  0  0
 27 31  1  0  0  0
 28 29  2  0  0  0
 28 30  1  0  0  0
M  CHG 1   8  -1
M  CHG 1  31  -1
M  END
> <minimizedAffinity>
-5.74935

$$$$
979


 29 33  0  0  0  0  0  0  0  0999 V2000
  -41.7751  -64.8469   51.0355 I   0  0  0  0  0  0  0  0  0  0  0  0
  -40.1188  -66.0900   50.5864 C   0  0  0  0  0  0  0  0  0  0  0  0
  -39.2573  -65.6343   49.5741 C   0  0  0  0  0  0  0  0  0  0  0  0
  -38.1871  -66.4136   49.2674 C   0  0  0  0  0  0  0  0  0  0  0  0
  -37.9930  -67.6200   49.9636 C   0  0  0  0  0  0  0  0  0  0  0  0
  -38.8342  -68.0624   50.9510 C   0  0  0  0  0  0  0  0  0  0  0  0
  -39.9184  -67.2717   51.2620 C   0  0  0  0  0  0  0  0  0  0  0  0
  -40.7911  -67.6893   52.2564 O   0  0  0  0  0  0  0  0  0  0  0  0
  -38.4809  -69.8919   51.9615 I   0  0  0  0  0  0  0  0  0  0  0  0
  -37.2299  -66.0245   48.2248 C   0  0  0  0  0  0  0  0  0  0  0  0
  -37.0477  -67.0515   47.2691 O   0  0  0  0  0  0  0  0  0  0  0  0
  -35.7517  -67.4925   47.2153 C   0  0  0  0  0  0  0  0  0  0  0  0
  -35.2505  -68.3866   46.4828 O   0  0  0  0  0  0  0  0  0  0  0  0
  -34.9967  -66.7220   48.1936 C   0  0  0  0  0  0  0  0  0  0  0  0
  -35.8557  -65.8585   48.7922 C   0  0  0  0  0  0  0  0  0  0  0  0
  -35.3551  -65.0025   49.7803 C   0  0  0  0  0  0  0  0  0  0  0  0
  -34.0241  -65.0467   50.1260 C   0  0  0  0  0  0  0  0  0  0  0  0
  -33.1500  -65.9240   49.5201 C   0  0  0  0  0  0  0  0  0  0  0  0
  -33.6300  -66.7685   48.5484 C   0  0  0  0  0  0  0  0  0  0  0  0
  -37.5590  -64.7410   47.5818 C   0  0  0  0  0  0  0  0  0  0  0  0
  -38.6411  -64.0097   47.9330 C   0  0  0  0  0  0  0  0  0  0  0  0
  -38.8909  -62.8064   47.2811 C   0  0  0  0  0  0  0  0  0  0  0  0
  -38.0559  -62.3599   46.2960 C   0  0  0  0  0  0  0  0  0  0  0  0
  -36.9459  -63.0770   45.9142 C   0  0  0  0  0  0  0  0  0  0  0  0
  -36.7221  -64.2570   46.5685 C   0  0  0  0  0  0  0  0  0  0  0  0
  -35.6573  -62.3807   44.3890 I   0  0  0  0  0  0  0  0  0  0  0  0
  -38.3282  -61.1541   45.6625 O   0  0  0  0  0  0  0  0  0  0  0  0
  -40.5945  -61.6638   47.8399 I   0  0  0  0  0  0  0  0  0  0  0  0
  -39.5324  -64.4218   48.9370 O   0  0  0  0  0  0  0  0  0  0  0  0
  1  2  1  0  0  0
  2  3  2  0  0  0
  2  7  1  0  0  0
  3  4  1  0  0  0
  3 29  1  0  0  0
  4  5  2  0  0  0
  4 10  1  0  0  0
  5  6  1  0  0  0
  6  7  2  0  0  0
  6  9  1  0  0  0
  7  8  1  0  0  0
 10 11  1  0  0  0
 10 15  1  0  0  0
 10 20  1  0  0  0
 11 12  1  0  0  0
 12 13  2  0  0  0
 12 14  1  0  0  0
 14 15  2  0  0  0
 14 19  1  0  0  0
 15 16  1  0  0  0
 16 17  2  0  0  0
 17 18  1  0  0  0
 18 19  2  0  0  0
 20 21  2  0  0  0
 20 25  1  0  0  0
 21 22  1  0  0  0
 21 29  1  0  0  0
 22 23  2  0  0  0
 22 28  1  0  0  0
 23 24  1  0  0  0
 23 27  1  0  0  0
 24 25  2  0  0  0
 24 26  1  0  0  0
M  CHG 1   8  -1
M  CHG 1  27  -1
M  END
> <minimizedAffinity>
-8.26318

$$$$
980


 27 30  0  0  0  0  0  0  0  0999 V2000
  -42.4019  -64.6616   51.2130 I   0  0  0  0  0  0  0  0  0  0  0  0
  -40.7821  -64.8440   49.8779 C   0  0  0  0  0  0  0  0  0  0  0  0
  -39.8169  -65.8225   50.0102 C   0  0  0  0  0  0  0  0  0  0  0  0
  -38.7554  -65.9450   49.1395 C   0  0  0  0  0  0  0  0  0  0  0  0
  -38.6757  -65.0385   48.0986 C   0  0  0  0  0  0  0  0  0  0  0  0
  -39.6404  -64.0521   47.9580 C   0  0  0  0  0  0  0  0  0  0  0  0
  -40.7066  -63.9355   48.8410 C   0  0  0  0  0  0  0  0  0  0  0  0
  -41.6474  -62.9263   48.6527 O   0  0  0  0  0  0  0  0  0  0  0  0
  -37.7818  -66.9164   49.2544 C   0  0  0  0  0  0  0  0  0  0  0  0
  -37.9266  -67.7933   50.3255 C   0  0  0  0  0  0  0  0  0  0  0  0
  -39.0645  -67.6305   51.2258 C   0  0  0  0  0  0  0  0  0  0  0  0
  -39.1538  -68.5301   52.2673 C   0  0  0  0  0  0  0  0  0  0  0  0
  -38.2339  -69.5363   52.4708 C   0  0  0  0  0  0  0  0  0  0  0  0
  -38.3330  -70.3531   53.4337 O   0  0  0  0  0  0  0  0  0  0  0  0
  -37.1570  -69.6909   51.6198 C   0  0  0  0  0  0  0  0  0  0  0  0
  -37.0394  -68.8061   50.5662 C   0  0  0  0  0  0  0  0  0  0  0  0
  -40.7582  -68.3761   53.6164 I   0  0  0  0  0  0  0  0  0  0  0  0
  -39.9225  -66.6644   51.0065 O   0  0  0  0  0  0  0  0  0  0  0  0
  -36.6569  -67.0492   48.3350 C   0  0  0  0  0  0  0  0  0  0  0  0
  -35.4881  -66.3473   48.6135 C   0  0  0  0  0  0  0  0  0  0  0  0
  -34.4053  -66.4412   47.7797 C   0  0  0  0  0  0  0  0  0  0  0  0
  -34.4776  -67.2361   46.6571 C   0  0  0  0  0  0  0  0  0  0  0  0
  -35.6225  -67.9414   46.3593 C   0  0  0  0  0  0  0  0  0  0  0  0
  -36.6986  -67.8326   47.2116 C   0  0  0  0  0  0  0  0  0  0  0  0
  -35.4003  -65.5017   49.8004 C   0  0  0  0  0  0  0  0  0  0  0  0
  -34.8369  -65.8680   50.8556 O   0  0  0  0  0  0  0  0  0  0  0  0
  -35.9542  -64.2295   49.8022 O   0  0  0  0  0  0  0  0  0  0  0  0
  1  2  1  0  0  0
  2  3  2  0  0  0
  2  7  1  0  0  0
  3  4  1  0  0  0
  3 18  1  0  0  0
  4  5  2  0  0  0
  4  9  1  0  0  0
  5  6  1  0  0  0
  6  7  2  0  0  0
  7  8  1  0  0  0
  9 10  2  0  0  0
  9 19  1  0  0  0
 10 11  1  0  0  0
 10 16  1  0  0  0
 11 12  2  0  0  0
 11 18  1  0  0  0
 12 13  1  0  0  0
 12 17  1  0  0  0
 13 14  2  0  0  0
 13 15  1  0  0  0
 15 16  2  0  0  0
 19 20  2  0  0  0
 19 24  1  0  0  0
 20 21  1  0  0  0
 20 25  1  0  0  0
 21 22  2  0  0  0
 22 23  1  0  0  0
 23 24  2  0  0  0
 25 26  2  0  0  0
 25 27  1  0  0  0
M  CHG 1   8  -1
M  END
> <minimizedAffinity>
-8.09971

$$$$
983


 34 37  0  0  0  0  0  0  0  0999 V2000
  -39.8934  -66.8265   50.6881 C   0  0  0  0  0  0  0  0  0  0  0  0
  -40.5814  -67.3481   51.7920 C   0  0  0  0  0  0  0  0  0  0  0  0
  -39.7160  -68.2673   52.3425 C   0  0  0  0  0  0  0  0  0  0  0  0
  -38.5923  -68.2868   51.6123 N   0  0  0  0  0  0  0  0  0  0  0  0
  -38.6565  -67.4029   50.5700 C   0  0  0  0  0  0  0  0  0  0  0  0
  -40.1220  -68.9672   53.4758 C   0  0  0  0  0  0  0  0  0  0  0  0
  -41.3581  -68.7255   54.0093 C   0  0  0  0  0  0  0  0  0  0  0  0
  -42.2406  -67.7937   53.4539 C   0  0  0  0  0  0  0  0  0  0  0  0
  -41.8291  -67.0929   52.3160 C   0  0  0  0  0  0  0  0  0  0  0  0
  -43.9437  -67.5042   54.2421 Br  0  0  0  0  0  0  0  0  0  0  0  0
  -38.9533  -70.2377   54.2546 Br  0  0  0  0  0  0  0  0  0  0  0  0
  -37.7500  -68.9008   51.8015 H   0  0  0  0  0  0  0  0  0  0  0  0
  -37.5857  -67.1504   49.6129 C   0  0  0  0  0  0  0  0  0  0  0  0
  -37.5766  -66.0693   48.7860 N   0  0  0  0  0  0  0  0  0  0  0  0
  -36.4909  -66.0834   47.9969 C   0  0  0  0  0  0  0  0  0  0  0  0
  -35.7405  -67.2008   48.2903 C   0  0  0  0  0  0  0  0  0  0  0  0
  -36.4581  -67.8446   49.3048 C   0  0  0  0  0  0  0  0  0  0  0  0
  -34.5588  -67.4862   47.6374 C   0  0  0  0  0  0  0  0  0  0  0  0
  -34.0823  -66.6420   46.6467 C   0  0  0  0  0  0  0  0  0  0  0  0
  -34.8256  -65.5134   46.3402 C   0  0  0  0  0  0  0  0  0  0  0  0
  -36.0043  -65.2445   47.0043 C   0  0  0  0  0  0  0  0  0  0  0  0
  -36.9777  -63.6743   46.5326 Br  0  0  0  0  0  0  0  0  0  0  0  0
  -32.4439  -67.0187   45.7255 Br  0  0  0  0  0  0  0  0  0  0  0  0
  -38.2964  -65.3145   48.7451 H   0  0  0  0  0  0  0  0  0  0  0  0
  -36.0296  -69.0293   49.8754 O   0  0  0  0  0  0  0  0  0  0  0  0
  -35.0666  -69.0692   51.2821 S   0  0  0  0  0  0  0  0  0  0  0  0
  -34.1325  -70.2440   51.2599 O   0  0  0  0  0  0  0  0  0  0  0  0
  -35.9023  -69.1841   52.5253 O   0  0  0  0  0  0  0  0  0  0  0  0
  -34.2098  -67.6104   51.4202 O   0  0  0  0  0  0  0  0  0  0  0  0
  -40.4380  -65.8561   49.8544 O   0  0  0  0  0  0  0  0  0  0  0  0
  -40.2796  -64.1889   50.2113 S   0  0  0  0  0  0  0  0  0  0  0  0
  -38.9290  -63.7670   49.7020 O   0  0  0  0  0  0  0  0  0  0  0  0
  -41.3439  -63.3836   49.5074 O   0  0  0  0  0  0  0  0  0  0  0  0
  -40.3140  -63.9170   51.8700 O   0  0  0  0  0  0  0  0  0  0  0  0
 31 32  2  0  0  0
 31 33  2  0  0  0
 31 34  1  0  0  0
 31 30  1  0  0  0
 30  1  1  0  0  0
  1  2  1  0  0  0
  1  5  2  0  0  0
  2  3  2  0  0  0
  2  9  1  0  0  0
  3  4  1  0  0  0
  3  6  1  0  0  0
  4  5  1  0  0  0
  5 13  1  0  0  0
 13 14  1  0  0  0
 13 17  2  0  0  0
 14 15  1  0  0  0
 15 16  2  0  0  0
 15 21  1  0  0  0
 16 17  1  0  0  0
 16 18  1  0  0  0
 17 25  1  0  0  0
 25 26  1  0  0  0
 26 27  2  0  0  0
 26 28  2  0  0  0
 26 29  1  0  0  0
 18 19  2  0  0  0
 19 20  1  0  0  0
 19 23  1  0  0  0
 20 21  2  0  0  0
 21 22  1  0  0  0
  6  7  2  0  0  0
  6 11  1  0  0  0
  7  8  1  0  0  0
  8  9  2  0  0  0
  8 10  1  0  0  0
  4 12  1  0  0  0
 14 24  1  0  0  0
M  END
> <minimizedAffinity>
-8.21933

$$$$
985


 28 31  0  0  0  0  0  0  0  0999 V2000
  -40.6771  -67.1215   51.7342 N   0  0  0  0  0  0  0  0  0  0  0  0
  -41.5415  -67.2948   52.7412 C   0  0  0  0  0  0  0  0  0  0  0  0
  -42.6844  -66.6374   53.0794 N   0  0  0  0  0  0  0  0  0  0  0  0
  -43.4256  -66.9592   54.1359 C   0  0  0  0  0  0  0  0  0  0  0  0
  -43.0271  -67.9844   54.9105 N   0  0  0  0  0  0  0  0  0  0  0  0
  -41.9047  -68.6792   54.6324 C   0  0  0  0  0  0  0  0  0  0  0  0
  -41.1345  -68.3472   53.5373 C   0  0  0  0  0  0  0  0  0  0  0  0
  -40.0013  -68.8076   52.9874 N   0  0  0  0  0  0  0  0  0  0  0  0
  -39.7270  -68.0601   51.8926 C   0  0  0  0  0  0  0  0  0  0  0  0
  -38.2234  -68.2803   50.7259 Br  0  0  0  0  0  0  0  0  0  0  0  0
  -41.4889  -69.7409   55.4304 O   0  0  0  0  0  0  0  0  0  0  0  0
  -44.6149  -66.2397   54.4492 N   0  0  0  0  0  0  0  0  0  0  0  0
  -42.2229  -70.4110   55.7048 H   0  0  0  0  0  0  0  0  0  0  0  0
  -44.5351  -65.5053   55.1852 H   0  0  0  0  0  0  0  0  0  0  0  0
  -45.5311  -66.4299   53.9713 H   0  0  0  0  0  0  0  0  0  0  0  0
  -40.8759  -62.9839   47.8587 P   0  0  0  0  0  0  0  0  0  0  0  0
  -42.2603  -63.3900   47.4037 O   0  0  0  0  0  0  0  0  0  0  0  0
  -40.7441  -63.0593   49.5586 O   0  0  0  0  0  0  0  0  0  0  0  0
  -39.9006  -64.1318   49.8377 C   0  0  0  0  0  0  0  0  0  0  0  0
  -40.2844  -65.2357   48.8447 C   0  0  0  0  0  0  0  0  0  0  0  0
  -40.0657  -66.3681   49.5898 O   0  0  0  0  0  0  0  0  0  0  0  0
  -40.8245  -66.0985   50.7284 C   0  0  0  0  0  0  0  0  0  0  0  0
  -40.2101  -64.7728   51.1740 C   0  0  0  0  0  0  0  0  0  0  0  0
  -41.0623  -64.0293   51.9509 O   0  0  0  0  0  0  0  0  0  0  0  0
  -39.4323  -65.0908   47.6405 C   0  0  0  0  0  0  0  0  0  0  0  0
  -39.6573  -63.8238   47.0914 O   0  0  0  0  0  0  0  0  0  0  0  0
  -40.7154  -61.3278   47.4578 O   0  0  0  0  0  0  0  0  0  0  0  0
  -40.5638  -63.6543   52.7444 H   0  0  0  0  0  0  0  0  0  0  0  0
 16 17  2  0  0  0
 16 18  1  0  0  0
 16 26  1  0  0  0
 16 27  1  0  0  0
 18 19  1  0  0  0
 19 20  1  0  0  0
 19 23  1  0  0  0
 20 21  1  0  0  0
 20 25  1  0  0  0
 21 22  1  0  0  0
 22 23  1  0  0  0
 22  1  1  0  0  0
 23 24  1  0  0  0
  1  2  1  0  0  0
  1  9  1  0  0  0
  2  3  2  0  0  0
  2  7  1  0  0  0
  3  4  1  0  0  0
  4  5  2  0  0  0
  4 12  1  0  0  0
  5  6  1  0  0  0
  6  7  2  0  0  0
  6 11  1  0  0  0
  7  8  1  0  0  0
  8  9  2  0  0  0
  9 10  1  0  0  0
 25 26  1  0  0  0
 24 28  1  0  0  0
 11 13  1  0  0  0
 12 14  1  0  0  0
 12 15  1  0  0  0
M  END
> <minimizedAffinity>
-8.82332

$$$$
991


 34 39  0  0  0  0  0  0  0  0999 V2000
  -42.1905  -63.1552   47.7583 N   0  0  0  0  0  0  0  0  0  0  0  0
  -41.5567  -64.1226   48.4675 C   0  0  0  0  0  0  0  0  0  0  0  0
  -40.3863  -64.4960   47.8418 C   0  0  0  0  0  0  0  0  0  0  0  0
  -40.3205  -63.7318   46.7315 N   0  0  0  0  0  0  0  0  0  0  0  0
  -41.4059  -62.9324   46.6892 C   0  0  0  0  0  0  0  0  0  0  0  0
  -41.8389  -61.6435   45.3439 Br  0  0  0  0  0  0  0  0  0  0  0  0
  -39.5932  -65.4733   48.4088 C   0  0  0  0  0  0  0  0  0  0  0  0
  -38.5291  -65.8195   47.8502 O   0  0  0  0  0  0  0  0  0  0  0  0
  -39.9227  -66.0857   49.5690 N   0  0  0  0  0  0  0  0  0  0  0  0
  -41.0690  -65.7062   50.1624 C   0  0  0  0  0  0  0  0  0  0  0  0
  -41.1665  -66.4513   51.2778 N   0  0  0  0  0  0  0  0  0  0  0  0
  -40.1224  -67.2888   51.4119 C   0  0  0  0  0  0  0  0  0  0  0  0
  -39.3223  -67.0549   50.3132 C   0  0  0  0  0  0  0  0  0  0  0  0
  -41.8660  -64.7434   49.6181 N   0  0  0  0  0  0  0  0  0  0  0  0
  -42.7550  -64.4518   50.0832 H   0  0  0  0  0  0  0  0  0  0  0  0
  -47.6956  -62.3160   49.4253 P   0  0  0  0  0  0  0  0  0  0  0  0
  -49.3489  -62.7769   49.1591 S   0  0  0  0  0  0  0  0  0  0  0  0
  -46.8550  -62.5189   47.9629 O   0  0  0  0  0  0  0  0  0  0  0  0
  -45.6817  -63.2011   48.2711 C   0  0  0  0  0  0  0  0  0  0  0  0
  -45.1369  -62.5493   49.5443 C   0  0  0  0  0  0  0  0  0  0  0  0
  -43.7795  -62.6606   49.4208 O   0  0  0  0  0  0  0  0  0  0  0  0
  -43.4526  -62.4925   48.0770 C   0  0  0  0  0  0  0  0  0  0  0  0
  -44.5936  -62.9936   47.2611 C   0  0  0  0  0  0  0  0  0  0  0  0
  -44.9865  -62.0498   46.3032 O   0  0  0  0  0  0  0  0  0  0  0  0
  -45.7148  -63.3304   50.7002 C   0  0  0  0  0  0  0  0  0  0  0  0
  -47.0896  -63.3306   50.6321 O   0  0  0  0  0  0  0  0  0  0  0  0
  -47.5834  -60.7272   49.9896 O   0  0  0  0  0  0  0  0  0  0  0  0
  -45.3898  -61.2567   46.7112 H   0  0  0  0  0  0  0  0  0  0  0  0
  -39.8801  -68.2515   52.4945 C   0  0  0  0  0  0  0  0  0  0  0  0
  -39.0442  -69.3265   52.2932 C   0  0  0  0  0  0  0  0  0  0  0  0
  -38.7951  -70.2533   53.2976 C   0  0  0  0  0  0  0  0  0  0  0  0
  -39.4036  -70.0839   54.5202 C   0  0  0  0  0  0  0  0  0  0  0  0
  -40.2526  -69.0155   54.7637 C   0  0  0  0  0  0  0  0  0  0  0  0
  -40.4626  -68.1272   53.7314 C   0  0  0  0  0  0  0  0  0  0  0  0
 16 17  2  0  0  0
 16 18  1  0  0  0
 16 26  1  0  0  0
 16 27  1  0  0  0
 18 19  1  0  0  0
 19 20  1  0  0  0
 19 23  1  0  0  0
 20 21  1  0  0  0
 20 25  1  0  0  0
 21 22  1  0  0  0
 22 23  1  0  0  0
 22  1  1  0  0  0
 23 24  1  0  0  0
  1  2  1  0  0  0
  1  5  1  0  0  0
  2  3  2  0  0  0
  2 14  1  0  0  0
  3  4  1  0  0  0
  3  7  1  0  0  0
  4  5  2  0  0  0
  5  6  1  0  0  0
  7  8  2  0  0  0
  7  9  1  0  0  0
  9 10  1  0  0  0
  9 13  1  0  0  0
 10 11  2  0  0  0
 10 14  1  0  0  0
 11 12  1  0  0  0
 12 13  2  0  0  0
 12 29  1  0  0  0
 29 30  2  0  0  0
 29 34  1  0  0  0
 30 31  1  0  0  0
 31 32  2  0  0  0
 32 33  1  0  0  0
 33 34  2  0  0  0
 25 26  1  0  0  0
 24 28  1  0  0  0
 14 15  1  0  0  0
M  END
> <minimizedAffinity>
-8.99803

$$$$
993


 26 29  0  0  0  0  0  0  0  0999 V2000
  -39.2824  -63.6086   48.6883 P   0  0  0  0  0  0  0  0  0  0  0  0
  -37.6042  -64.0356   48.9069 S   0  0  0  0  0  0  0  0  0  0  0  0
  -40.0784  -63.6158   50.1989 O   0  0  0  0  0  0  0  0  0  0  0  0
  -40.2110  -64.9308   50.5712 C   0  0  0  0  0  0  0  0  0  0  0  0
  -41.0931  -65.6459   49.5389 C   0  0  0  0  0  0  0  0  0  0  0  0
  -41.3976  -66.8099   50.2424 O   0  0  0  0  0  0  0  0  0  0  0  0
  -41.7916  -66.3980   51.4932 C   0  0  0  0  0  0  0  0  0  0  0  0
  -41.0662  -65.1150   51.8109 C   0  0  0  0  0  0  0  0  0  0  0  0
  -42.0209  -64.0890   51.7916 O   0  0  0  0  0  0  0  0  0  0  0  0
  -40.3429  -65.9063   48.2701 C   0  0  0  0  0  0  0  0  0  0  0  0
  -40.0532  -64.6911   47.6763 O   0  0  0  0  0  0  0  0  0  0  0  0
  -39.3469  -62.0569   48.0751 O   0  0  0  0  0  0  0  0  0  0  0  0
  -42.0134  -63.5427   52.5990 H   0  0  0  0  0  0  0  0  0  0  0  0
  -41.4603  -67.3535   52.5332 N   0  0  0  0  0  0  0  0  0  0  0  0
  -40.3904  -68.1869   52.4875 C   0  0  0  0  0  0  0  0  0  0  0  0
  -39.4138  -68.3632   51.5608 N   0  0  0  0  0  0  0  0  0  0  0  0
  -38.4366  -69.2728   51.7433 C   0  0  0  0  0  0  0  0  0  0  0  0
  -38.4226  -70.0282   52.8690 N   0  0  0  0  0  0  0  0  0  0  0  0
  -39.3723  -69.8834   53.8100 C   0  0  0  0  0  0  0  0  0  0  0  0
  -40.3805  -68.9531   53.6352 C   0  0  0  0  0  0  0  0  0  0  0  0
  -41.4425  -68.5835   54.3737 N   0  0  0  0  0  0  0  0  0  0  0  0
  -42.0888  -67.6118   53.6923 C   0  0  0  0  0  0  0  0  0  0  0  0
  -43.6804  -66.6821   54.2301 Br  0  0  0  0  0  0  0  0  0  0  0  0
  -39.3433  -70.6882   54.9932 N   0  0  0  0  0  0  0  0  0  0  0  0
  -38.4237  -71.1198   55.2843 H   0  0  0  0  0  0  0  0  0  0  0  0
  -40.1886  -70.8617   55.5719 H   0  0  0  0  0  0  0  0  0  0  0  0
  1  2  2  0  0  0
  1  3  1  0  0  0
  1 11  1  0  0  0
  1 12  1  0  0  0
  3  4  1  0  0  0
  4  5  1  0  0  0
  4  8  1  0  0  0
  5  6  1  0  0  0
  5 10  1  0  0  0
  6  7  1  0  0  0
  7  8  1  0  0  0
  7 14  1  0  0  0
  8  9  1  0  0  0
 14 15  1  0  0  0
 14 22  1  0  0  0
 15 16  2  0  0  0
 15 20  1  0  0  0
 16 17  1  0  0  0
 17 18  2  0  0  0
 18 19  1  0  0  0
 19 20  2  0  0  0
 19 24  1  0  0  0
 20 21  1  0  0  0
 21 22  2  0  0  0
 22 23  1  0  0  0
 10 11  1  0  0  0
  9 13  1  0  0  0
 24 25  1  0  0  0
 24 26  1  0  0  0
M  END
> <minimizedAffinity>
-8.00819

$$$$
999


 35 38  0  0  0  0  0  0  0  0999 V2000
  -33.8153  -65.9363   48.7845 N   0  0  0  0  0  0  0  0  0  0  0  0
  -33.4831  -67.1607   49.4153 C   0  0  0  0  0  0  0  0  0  0  0  0
  -32.3022  -67.5862   49.3073 O   0  0  0  0  0  0  0  0  0  0  0  0
  -34.8065  -65.6017   48.8883 H   0  0  0  0  0  0  0  0  0  0  0  0
  -34.2405  -65.4617   45.5991 S   0  0  0  0  0  0  0  0  0  0  0  0
  -33.1757  -64.6194   46.7675 C   0  0  0  0  0  0  0  0  0  0  0  0
  -33.9749  -63.7162   47.5331 N   0  0  0  0  0  0  0  0  0  0  0  0
  -35.2726  -63.1865   47.2480 C   0  0  0  0  0  0  0  0  0  0  0  0
  -35.7646  -63.2969   46.0543 C   0  0  0  0  0  0  0  0  0  0  0  0
  -35.0353  -63.9754   44.8858 C   0  0  0  0  0  0  0  0  0  0  0  0
  -32.9000  -63.7673   48.4549 C   0  0  0  0  0  0  0  0  0  0  0  0
  -32.2296  -63.1064   49.2563 O   0  0  0  0  0  0  0  0  0  0  0  0
  -32.8121  -65.2309   48.0546 C   0  0  0  0  0  0  0  0  0  0  0  0
  -35.9680  -62.5244   48.3902 C   0  0  0  0  0  0  0  0  0  0  0  0
  -37.0646  -62.7985   48.8280 O   0  0  0  0  0  0  0  0  0  0  0  0
  -35.3150  -61.4682   49.0528 O   0  0  0  0  0  0  0  0  0  0  0  0
  -37.0536  -62.8211   45.6215 C   0  0  0  0  0  0  0  0  0  0  0  0
  -37.2307  -61.6753   44.9210 O   0  0  0  0  0  0  0  0  0  0  0  0
  -36.8645  -60.4127   45.4026 C   0  0  0  0  0  0  0  0  0  0  0  0
  -37.4444  -60.0071   46.4269 O   0  0  0  0  0  0  0  0  0  0  0  0
  -35.8241  -59.6622   44.6604 C   0  0  0  0  0  0  0  0  0  0  0  0
  -34.4654  -67.9348   50.1805 C   0  0  0  0  0  0  0  0  0  0  0  0
  -35.6792  -68.2650   49.8676 O   0  0  0  0  0  0  0  0  0  0  0  0
  -36.2576  -68.9577   50.7944 C   0  0  0  0  0  0  0  0  0  0  0  0
  -35.3369  -69.1067   51.8380 C   0  0  0  0  0  0  0  0  0  0  0  0
  -34.2066  -68.4508   51.4305 C   0  0  0  0  0  0  0  0  0  0  0  0
  -37.6561  -69.5236   50.8040 C   0  0  0  0  0  0  0  0  0  0  0  0
  -38.0847  -69.7735   52.1177 O   0  0  0  0  0  0  0  0  0  0  0  0
  -39.1686  -69.2136   52.7311 C   0  0  0  0  0  0  0  0  0  0  0  0
  -39.5783  -69.5036   54.0295 C   0  0  0  0  0  0  0  0  0  0  0  0
  -40.6882  -68.8772   54.5507 C   0  0  0  0  0  0  0  0  0  0  0  0
  -41.4379  -67.9599   53.8521 C   0  0  0  0  0  0  0  0  0  0  0  0
  -41.0374  -67.6653   52.5600 C   0  0  0  0  0  0  0  0  0  0  0  0
  -39.9186  -68.2929   52.0283 C   0  0  0  0  0  0  0  0  0  0  0  0
  -42.9669  -67.1233   54.6273 Br  0  0  0  0  0  0  0  0  0  0  0  0
  5  6  1  0  0  0
  5 10  1  0  0  0
  6  7  1  0  0  0
  6 13  1  0  0  0
  7  8  1  0  0  0
  7 11  1  0  0  0
  8  9  2  0  0  0
  8 14  1  0  0  0
  9 10  1  0  0  0
  9 17  1  0  0  0
 17 18  1  0  0  0
 18 19  1  0  0  0
 19 20  2  0  0  0
 19 21  1  0  0  0
 14 15  2  0  0  0
 14 16  1  0  0  0
 11 12  2  0  0  0
 11 13  1  0  0  0
 13  1  1  0  0  0
  1  2  1  0  0  0
  2  3  2  0  0  0
  2 22  1  0  0  0
 22 23  1  0  0  0
 22 26  2  0  0  0
 23 24  1  0  0  0
 24 25  2  0  0  0
 24 27  1  0  0  0
 25 26  1  0  0  0
 27 28  1  0  0  0
 28 29  1  0  0  0
 29 30  2  0  0  0
 29 34  1  0  0  0
 30 31  1  0  0  0
 31 32  2  0  0  0
 32 33  1  0  0  0
 32 35  1  0  0  0
 33 34  2  0  0  0
  1  4  1  0  0  0
M  END
> <minimizedAffinity>
-7.68504

$$$$
1001


 26 29  0  0  0  0  0  0  0  0999 V2000
  -40.1018  -63.4832   48.6027 P   0  0  0  0  0  0  0  0  0  0  0  0
  -39.0326  -62.4207   48.3406 O   0  0  0  0  0  0  0  0  0  0  0  0
  -40.4327  -63.4714   50.2482 O   0  0  0  0  0  0  0  0  0  0  0  0
  -40.4542  -64.7368   50.7749 C   0  0  0  0  0  0  0  0  0  0  0  0
  -41.0102  -65.6578   49.6802 C   0  0  0  0  0  0  0  0  0  0  0  0
  -41.6123  -66.6969   50.3248 O   0  0  0  0  0  0  0  0  0  0  0  0
  -42.0014  -66.3085   51.5768 C   0  0  0  0  0  0  0  0  0  0  0  0
  -41.4848  -64.9394   51.8535 C   0  0  0  0  0  0  0  0  0  0  0  0
  -42.4504  -63.9545   51.7875 O   0  0  0  0  0  0  0  0  0  0  0  0
  -39.8460  -66.0267   48.8181 C   0  0  0  0  0  0  0  0  0  0  0  0
  -39.5045  -64.9399   48.0494 O   0  0  0  0  0  0  0  0  0  0  0  0
  -41.4792  -62.9794   47.7222 O   0  0  0  0  0  0  0  0  0  0  0  0
  -42.2446  -63.1643   52.3128 H   0  0  0  0  0  0  0  0  0  0  0  0
  -41.5063  -67.2997   52.5231 N   0  0  0  0  0  0  0  0  0  0  0  0
  -40.4263  -68.0961   52.3440 C   0  0  0  0  0  0  0  0  0  0  0  0
  -39.5641  -68.1936   51.3179 N   0  0  0  0  0  0  0  0  0  0  0  0
  -38.5568  -69.0792   51.3849 C   0  0  0  0  0  0  0  0  0  0  0  0
  -38.4212  -69.8571   52.4745 N   0  0  0  0  0  0  0  0  0  0  0  0
  -39.2419  -69.8143   53.5349 C   0  0  0  0  0  0  0  0  0  0  0  0
  -40.2848  -68.8943   53.4597 C   0  0  0  0  0  0  0  0  0  0  0  0
  -41.2640  -68.5895   54.3069 N   0  0  0  0  0  0  0  0  0  0  0  0
  -41.9989  -67.6220   53.7297 C   0  0  0  0  0  0  0  0  0  0  0  0
  -43.5595  -66.7632   54.4689 Br  0  0  0  0  0  0  0  0  0  0  0  0
  -39.1086  -70.6297   54.6901 N   0  0  0  0  0  0  0  0  0  0  0  0
  -39.5717  -71.5865   54.6773 H   0  0  0  0  0  0  0  0  0  0  0  0
  -38.5957  -70.3612   55.5350 H   0  0  0  0  0  0  0  0  0  0  0  0
  1  2  2  0  0  0
  1  3  1  0  0  0
  1 11  1  0  0  0
  1 12  1  0  0  0
  3  4  1  0  0  0
  4  5  1  0  0  0
  4  8  1  0  0  0
  5  6  1  0  0  0
  5 10  1  0  0  0
  6  7  1  0  0  0
  7  8  1  0  0  0
  7 14  1  0  0  0
  8  9  1  0  0  0
 14 15  1  0  0  0
 14 22  1  0  0  0
 15 16  2  0  0  0
 15 20  1  0  0  0
 16 17  1  0  0  0
 17 18  2  0  0  0
 18 19  1  0  0  0
 19 20  2  0  0  0
 19 24  1  0  0  0
 20 21  1  0  0  0
 21 22  2  0  0  0
 22 23  1  0  0  0
 10 11  1  0  0  0
  9 13  1  0  0  0
 24 25  1  0  0  0
 24 26  1  0  0  0
M  END
> <minimizedAffinity>
-8.35845

$$$$
1008


 29 32  0  0  0  0  0  0  0  0999 V2000
  -34.7295  -67.0038   50.3040 C   0  0  0  0  0  0  0  0  0  0  0  0
  -34.1678  -67.3947   51.3566 O   0  0  0  0  0  0  0  0  0  0  0  0
  -35.9296  -67.6346   49.8604 N   0  0  0  0  0  0  0  0  0  0  0  0
  -36.5085  -68.7273   50.6121 C   0  0  0  0  0  0  0  0  0  0  0  0
  -38.0023  -68.6653   50.6866 C   0  0  0  0  0  0  0  0  0  0  0  0
  -38.4080  -67.2467   50.2783 C   0  0  0  0  0  0  0  0  0  0  0  0
  -38.0855  -67.1412   48.8036 C   0  0  0  0  0  0  0  0  0  0  0  0
  -36.5870  -67.1994   48.6560 C   0  0  0  0  0  0  0  0  0  0  0  0
  -38.5393  -69.0022   52.0437 C   0  0  0  0  0  0  0  0  0  0  0  0
  -39.6105  -68.4305   52.6537 N   0  0  0  0  0  0  0  0  0  0  0  0
  -39.8037  -68.9772   53.8574 C   0  0  0  0  0  0  0  0  0  0  0  0
  -38.8153  -69.9132   53.9817 N   0  0  0  0  0  0  0  0  0  0  0  0
  -38.0650  -69.9231   52.8973 N   0  0  0  0  0  0  0  0  0  0  0  0
  -40.9716  -68.3809   54.5697 C   0  0  0  0  0  0  0  0  0  0  0  0
  -41.6548  -67.6317   53.4680 C   0  0  0  0  0  0  0  0  0  0  0  0
  -40.6079  -67.4070   52.3977 C   0  0  0  0  0  0  0  0  0  0  0  0
  -34.2838  -63.6609   48.6731 C   0  0  0  0  0  0  0  0  0  0  0  0
  -34.8267  -64.7090   49.3799 C   0  0  0  0  0  0  0  0  0  0  0  0
  -34.1454  -65.9092   49.5551 C   0  0  0  0  0  0  0  0  0  0  0  0
  -32.8932  -66.0216   48.9922 C   0  0  0  0  0  0  0  0  0  0  0  0
  -32.3363  -64.9639   48.2738 C   0  0  0  0  0  0  0  0  0  0  0  0
  -33.0255  -63.7831   48.1104 C   0  0  0  0  0  0  0  0  0  0  0  0
  -31.9027  -67.6249   49.1858 Br  0  0  0  0  0  0  0  0  0  0  0  0
  -35.1878  -62.1870   48.4903 S   0  0  0  0  0  0  0  0  0  0  0  0
  -35.0242  -61.6872   47.0698 O   0  0  0  0  0  0  0  0  0  0  0  0
  -34.6732  -61.1242   49.4299 O   0  0  0  0  0  0  0  0  0  0  0  0
  -36.8600  -62.4790   48.7334 N   0  0  0  0  0  0  0  0  0  0  0  0
  -37.1969  -62.0787   49.6422 H   0  0  0  0  0  0  0  0  0  0  0  0
  -37.0576  -63.5101   48.6994 H   0  0  0  0  0  0  0  0  0  0  0  0
 24 25  2  0  0  0
 24 26  2  0  0  0
 24 27  1  0  0  0
 24 17  1  0  0  0
 17 18  2  0  0  0
 17 22  1  0  0  0
 18 19  1  0  0  0
 19 20  2  0  0  0
 19  1  1  0  0  0
 20 21  1  0  0  0
 20 23  1  0  0  0
 21 22  2  0  0  0
  1  2  2  0  0  0
  1  3  1  0  0  0
  3  4  1  0  0  0
  3  8  1  0  0  0
  4  5  1  0  0  0
  5  6  1  0  0  0
  5  9  1  0  0  0
  6  7  1  0  0  0
  7  8  1  0  0  0
  9 10  1  0  0  0
  9 13  2  0  0  0
 10 11  1  0  0  0
 10 16  1  0  0  0
 11 12  2  0  0  0
 11 14  1  0  0  0
 12 13  1  0  0  0
 14 15  1  0  0  0
 15 16  1  0  0  0
 27 28  1  0  0  0
 27 29  1  0  0  0
M  END
> <minimizedAffinity>
-8.49585

$$$$
1011


 29 32  0  0  0  0  0  0  0  0999 V2000
  -38.5968  -65.9834   49.2946 C   0  0  0  0  0  0  0  0  0  0  0  0
  -39.2207  -66.6644   50.3447 C   0  0  0  0  0  0  0  0  0  0  0  0
  -38.6689  -67.8187   50.8556 C   0  0  0  0  0  0  0  0  0  0  0  0
  -37.4915  -68.3569   50.3677 C   0  0  0  0  0  0  0  0  0  0  0  0
  -36.8738  -67.6984   49.3417 C   0  0  0  0  0  0  0  0  0  0  0  0
  -37.4280  -66.5256   48.8179 C   0  0  0  0  0  0  0  0  0  0  0  0
  -36.5602  -65.6139   47.3713 Br  0  0  0  0  0  0  0  0  0  0  0  0
  -37.1725  -69.6035   51.1184 C   0  0  0  0  0  0  0  0  0  0  0  0
  -38.5479  -69.9673   51.7174 C   0  0  0  0  0  0  0  0  0  0  0  0
  -39.1418  -68.6565   51.9263 N   0  0  0  0  0  0  0  0  0  0  0  0
  -40.0093  -68.2100   52.9500 C   0  0  0  0  0  0  0  0  0  0  0  0
  -40.4323  -67.0328   53.0181 O   0  0  0  0  0  0  0  0  0  0  0  0
  -40.4378  -69.1752   53.9900 C   0  0  0  0  0  0  0  0  0  0  0  0
  -41.8712  -69.1268   54.3302 C   0  0  0  0  0  0  0  0  0  0  0  0
  -40.8340  -68.6966   55.3385 C   0  0  0  0  0  0  0  0  0  0  0  0
  -39.3142  -64.5222   48.6713 S   0  0  0  0  0  0  0  0  0  0  0  0
  -38.2350  -63.4681   48.4526 O   0  0  0  0  0  0  0  0  0  0  0  0
  -39.9552  -64.7359   47.3420 O   0  0  0  0  0  0  0  0  0  0  0  0
  -40.4038  -63.8427   49.8192 N   0  0  0  0  0  0  0  0  0  0  0  0
  -40.1083  -64.1532   50.7655 H   0  0  0  0  0  0  0  0  0  0  0  0
  -41.7837  -64.2023   49.5623 C   0  0  0  0  0  0  0  0  0  0  0  0
  -42.3253  -64.7721   50.8648 C   0  0  0  0  0  0  0  0  0  0  0  0
  -43.6626  -64.1681   51.2017 C   0  0  0  0  0  0  0  0  0  0  0  0
  -44.1496  -64.7644   52.3886 N   0  0  0  0  0  0  0  0  0  0  0  0
  -45.0092  -65.8827   52.2312 C   0  0  0  0  0  0  0  0  0  0  0  0
  -45.8114  -66.0549   53.5100 C   0  0  0  0  0  0  0  0  0  0  0  0
  -45.0246  -65.8768   54.6303 O   0  0  0  0  0  0  0  0  0  0  0  0
  -43.6630  -65.9901   54.3765 C   0  0  0  0  0  0  0  0  0  0  0  0
  -43.2733  -64.7955   53.5010 C   0  0  0  0  0  0  0  0  0  0  0  0
 16 17  2  0  0  0
 16 18  2  0  0  0
 16 19  1  0  0  0
 16  1  1  0  0  0
 19 21  1  0  0  0
 21 22  1  0  0  0
 22 23  1  0  0  0
 23 24  1  0  0  0
 24 25  1  0  0  0
 24 29  1  0  0  0
 25 26  1  0  0  0
 26 27  1  0  0  0
 27 28  1  0  0  0
 28 29  1  0  0  0
  1  2  2  0  0  0
  1  6  1  0  0  0
  2  3  1  0  0  0
  3  4  2  0  0  0
  3 10  1  0  0  0
  4  5  1  0  0  0
  4  8  1  0  0  0
  5  6  2  0  0  0
  6  7  1  0  0  0
  8  9  1  0  0  0
  9 10  1  0  0  0
 10 11  1  0  0  0
 11 12  2  0  0  0
 11 13  1  0  0  0
 13 14  1  0  0  0
 13 15  1  0  0  0
 14 15  1  0  0  0
 19 20  1  0  0  0
M  END
> <minimizedAffinity>
-7.99087

$$$$
1027


 32 35  0  0  0  0  0  0  0  0999 V2000
  -35.7224  -64.0613   48.7265 S   0  0  0  0  0  0  0  0  0  0  0  0
  -34.8122  -62.8452   48.5523 O   0  0  0  0  0  0  0  0  0  0  0  0
  -35.9176  -64.1657   50.2213 O   0  0  0  0  0  0  0  0  0  0  0  0
  -37.2264  -63.6601   47.9437 C   0  0  0  0  0  0  0  0  0  0  0  0
  -38.4052  -63.7265   48.6974 C   0  0  0  0  0  0  0  0  0  0  0  0
  -39.6601  -63.4981   48.1801 C   0  0  0  0  0  0  0  0  0  0  0  0
  -39.8062  -63.1830   46.8465 C   0  0  0  0  0  0  0  0  0  0  0  0
  -38.6614  -63.1118   46.0922 C   0  0  0  0  0  0  0  0  0  0  0  0
  -37.3831  -63.3447   46.6256 C   0  0  0  0  0  0  0  0  0  0  0  0
  -35.8509  -63.1153   45.4952 Br  0  0  0  0  0  0  0  0  0  0  0  0
  -41.2367  -62.9755   46.5134 C   0  0  0  0  0  0  0  0  0  0  0  0
  -41.8476  -62.7605   47.8989 C   0  0  0  0  0  0  0  0  0  0  0  0
  -40.9601  -63.5196   48.7734 N   0  0  0  0  0  0  0  0  0  0  0  0
  -41.3583  -64.1499   49.9654 C   0  0  0  0  0  0  0  0  0  0  0  0
  -42.5753  -64.0290   50.3434 O   0  0  0  0  0  0  0  0  0  0  0  0
  -40.4888  -64.9629   50.8492 C   0  0  0  0  0  0  0  0  0  0  0  0
  -34.8954  -65.3987   48.1461 N   0  0  0  0  0  0  0  0  0  0  0  0
  -35.4672  -66.2611   47.2148 C   0  0  0  0  0  0  0  0  0  0  0  0
  -36.2991  -67.3481   47.7775 C   0  0  0  0  0  0  0  0  0  0  0  0
  -37.2335  -67.8573   47.1129 O   0  0  0  0  0  0  0  0  0  0  0  0
  -35.9756  -67.7713   49.0973 N   0  0  0  0  0  0  0  0  0  0  0  0
  -34.7378  -67.3214   49.6228 C   0  0  0  0  0  0  0  0  0  0  0  0
  -34.1763  -68.0245   50.5092 O   0  0  0  0  0  0  0  0  0  0  0  0
  -34.1004  -66.0693   49.1648 C   0  0  0  0  0  0  0  0  0  0  0  0
  -36.8823  -68.6226   49.8377 C   0  0  0  0  0  0  0  0  0  0  0  0
  -38.0812  -67.9287   50.3853 C   0  0  0  0  0  0  0  0  0  0  0  0
  -38.7201  -68.5660   51.5350 C   0  0  0  0  0  0  0  0  0  0  0  0
  -40.0202  -68.3180   51.8777 C   0  0  0  0  0  0  0  0  0  0  0  0
  -40.5560  -68.9443   52.9678 C   0  0  0  0  0  0  0  0  0  0  0  0
  -39.8176  -69.8304   53.7445 C   0  0  0  0  0  0  0  0  0  0  0  0
  -38.5194  -70.0622   53.3813 C   0  0  0  0  0  0  0  0  0  0  0  0
  -37.9495  -69.4499   52.2915 C   0  0  0  0  0  0  0  0  0  0  0  0
  1  2  2  0  0  0
  1  3  2  0  0  0
  1 17  1  0  0  0
  1  4  1  0  0  0
 17 18  1  0  0  0
 17 24  1  0  0  0
 18 19  1  0  0  0
 19 20  2  0  0  0
 19 21  1  0  0  0
 21 22  1  0  0  0
 21 25  1  0  0  0
 22 23  2  0  0  0
 22 24  1  0  0  0
 25 26  1  0  0  0
 26 27  1  0  0  0
 27 28  2  0  0  0
 27 32  1  0  0  0
 28 29  1  0  0  0
 29 30  2  0  0  0
 30 31  1  0  0  0
 31 32  2  0  0  0
  4  5  2  0  0  0
  4  9  1  0  0  0
  5  6  1  0  0  0
  6  7  2  0  0  0
  6 13  1  0  0  0
  7  8  1  0  0  0
  7 11  1  0  0  0
  8  9  2  0  0  0
  9 10  1  0  0  0
 11 12  1  0  0  0
 12 13  1  0  0  0
 13 14  1  0  0  0
 14 15  2  0  0  0
 14 16  1  0  0  0
M  END
> <minimizedAffinity>
-8.13393

$$$$
1028


 25 28  0  0  0  0  0  0  0  0999 V2000
  -42.7538  -66.8285   53.0796 N   0  0  0  0  0  0  0  0  0  0  0  0
  -41.4314  -66.4456   52.7348 C   0  0  0  0  0  0  0  0  0  0  0  0
  -40.8666  -67.3541   53.7560 C   0  0  0  0  0  0  0  0  0  0  0  0
  -42.2581  -67.8554   53.9255 C   0  0  0  0  0  0  0  0  0  0  0  0
  -39.9561  -68.3772   53.2795 N   0  0  0  0  0  0  0  0  0  0  0  0
  -39.5745  -69.4719   53.8842 N   0  0  0  0  0  0  0  0  0  0  0  0
  -38.7215  -70.1581   53.1115 N   0  0  0  0  0  0  0  0  0  0  0  0
  -38.5440  -69.4827   51.9627 C   0  0  0  0  0  0  0  0  0  0  0  0
  -39.3373  -68.3510   52.0875 C   0  0  0  0  0  0  0  0  0  0  0  0
  -37.6793  -69.8605   50.7949 C   0  0  0  0  0  0  0  0  0  0  0  0
  -36.4831  -69.0400   50.8456 N   0  0  0  0  0  0  0  0  0  0  0  0
  -35.3143  -69.3152   51.6259 C   0  0  0  0  0  0  0  0  0  0  0  0
  -34.3265  -68.2350   51.2888 C   0  0  0  0  0  0  0  0  0  0  0  0
  -34.8416  -67.4746   50.1100 C   0  0  0  0  0  0  0  0  0  0  0  0
  -36.3032  -67.8303   50.1155 C   0  0  0  0  0  0  0  0  0  0  0  0
  -37.1767  -67.1433   49.5559 O   0  0  0  0  0  0  0  0  0  0  0  0
  -43.7799  -65.7107   53.8198 S   0  0  0  0  0  0  0  0  0  0  0  0
  -43.4448  -64.3354   53.3181 O   0  0  0  0  0  0  0  0  0  0  0  0
  -43.5957  -65.6750   55.3183 O   0  0  0  0  0  0  0  0  0  0  0  0
  -45.4862  -65.9775   53.4699 C   0  0  0  0  0  0  0  0  0  0  0  0
  -46.6540  -64.8213   52.9813 S   0  0  0  0  0  0  0  0  0  0  0  0
  -48.0160  -65.8439   52.8534 C   0  0  0  0  0  0  0  0  0  0  0  0
  -47.5081  -67.0688   53.2008 C   0  0  0  0  0  0  0  0  0  0  0  0
  -46.2125  -67.1303   53.5145 C   0  0  0  0  0  0  0  0  0  0  0  0
  -49.8257  -65.4165   52.3501 Br  0  0  0  0  0  0  0  0  0  0  0  0
 17 18  2  0  0  0
 17 19  2  0  0  0
 17  1  1  0  0  0
 17 20  1  0  0  0
  1  2  1  0  0  0
  1  4  1  0  0  0
  2  3  1  0  0  0
  3  4  1  0  0  0
  3  5  1  0  0  0
  5  6  1  0  0  0
  5  9  1  0  0  0
  6  7  2  0  0  0
  7  8  1  0  0  0
  8  9  2  0  0  0
  8 10  1  0  0  0
 10 11  1  0  0  0
 11 12  1  0  0  0
 11 15  1  0  0  0
 12 13  1  0  0  0
 13 14  1  0  0  0
 14 15  1  0  0  0
 15 16  2  0  0  0
 20 21  1  0  0  0
 20 24  2  0  0  0
 21 22  1  0  0  0
 22 23  2  0  0  0
 22 25  1  0  0  0
 23 24  1  0  0  0
M  END
> <minimizedAffinity>
-7.71098

$$$$
1037


 31 34  0  0  0  0  0  0  0  0999 V2000
  -33.9459  -66.7775   48.7234 N   0  0  0  0  0  0  0  0  0  0  0  0
  -33.4655  -67.2807   49.9648 C   0  0  0  0  0  0  0  0  0  0  0  0
  -34.4168  -67.8765   50.8944 C   0  0  0  0  0  0  0  0  0  0  0  0
  -35.7362  -68.2225   50.4027 N   0  0  0  0  0  0  0  0  0  0  0  0
  -36.1910  -67.7464   49.1326 C   0  0  0  0  0  0  0  0  0  0  0  0
  -35.0361  -67.4961   48.1705 C   0  0  0  0  0  0  0  0  0  0  0  0
  -36.5322  -69.0513   51.1951 C   0  0  0  0  0  0  0  0  0  0  0  0
  -35.8417  -69.4833   52.2719 O   0  0  0  0  0  0  0  0  0  0  0  0
  -34.0380  -65.0915   48.5825 S   0  0  0  0  0  0  0  0  0  0  0  0
  -33.0849  -64.6305   47.5143 O   0  0  0  0  0  0  0  0  0  0  0  0
  -33.5831  -64.4258   49.8700 O   0  0  0  0  0  0  0  0  0  0  0  0
  -35.6164  -64.4912   48.1184 C   0  0  0  0  0  0  0  0  0  0  0  0
  -36.6218  -64.3611   49.0755 C   0  0  0  0  0  0  0  0  0  0  0  0
  -37.8868  -63.9077   48.7702 C   0  0  0  0  0  0  0  0  0  0  0  0
  -38.2177  -63.5571   47.4807 C   0  0  0  0  0  0  0  0  0  0  0  0
  -37.2291  -63.6833   46.5295 C   0  0  0  0  0  0  0  0  0  0  0  0
  -35.9509  -64.1402   46.8297 C   0  0  0  0  0  0  0  0  0  0  0  0
  -39.5094  -63.0951   47.1585 O   0  0  0  0  0  0  0  0  0  0  0  0
  -40.3107  -62.4682   48.1755 C   0  0  0  0  0  0  0  0  0  0  0  0
  -40.1930  -63.3354   49.3762 C   0  0  0  0  0  0  0  0  0  0  0  0
  -41.1867  -63.6801   50.0556 O   0  0  0  0  0  0  0  0  0  0  0  0
  -38.9122  -63.7932   49.7715 N   0  0  0  0  0  0  0  0  0  0  0  0
  -38.6551  -64.0568   50.7337 H   0  0  0  0  0  0  0  0  0  0  0  0
  -37.8838  -69.5228   51.1076 C   0  0  0  0  0  0  0  0  0  0  0  0
  -39.0070  -68.7140   51.5751 C   0  0  0  0  0  0  0  0  0  0  0  0
  -39.5694  -68.9160   52.8116 C   0  0  0  0  0  0  0  0  0  0  0  0
  -40.6372  -68.1328   53.2486 C   0  0  0  0  0  0  0  0  0  0  0  0
  -41.1270  -67.1524   52.4368 C   0  0  0  0  0  0  0  0  0  0  0  0
  -40.5579  -66.9400   51.1799 C   0  0  0  0  0  0  0  0  0  0  0  0
  -39.5181  -67.7055   50.7570 C   0  0  0  0  0  0  0  0  0  0  0  0
  -38.9023  -70.2927   53.9671 Br  0  0  0  0  0  0  0  0  0  0  0  0
  9 10  2  0  0  0
  9 11  2  0  0  0
  9  1  1  0  0  0
  9 12  1  0  0  0
  1  2  1  0  0  0
  1  6  1  0  0  0
  2  3  1  0  0  0
  3  4  1  0  0  0
  4  5  1  0  0  0
  4  7  1  0  0  0
  5  6  1  0  0  0
  7  8  2  0  0  0
  7 24  1  0  0  0
 24 25  1  0  0  0
 25 26  2  0  0  0
 25 30  1  0  0  0
 26 27  1  0  0  0
 26 31  1  0  0  0
 27 28  2  0  0  0
 28 29  1  0  0  0
 29 30  2  0  0  0
 12 13  2  0  0  0
 12 17  1  0  0  0
 13 14  1  0  0  0
 14 15  2  0  0  0
 14 22  1  0  0  0
 15 16  1  0  0  0
 15 18  1  0  0  0
 16 17  2  0  0  0
 18 19  1  0  0  0
 19 20  1  0  0  0
 20 21  2  0  0  0
 20 22  1  0  0  0
 22 23  1  0  0  0
M  END
> <minimizedAffinity>
-8.81307

$$$$
1040


 34 38  0  0  0  0  0  0  0  0999 V2000
  -39.0089  -65.4010   47.9093 S   0  0  0  0  0  0  0  0  0  0  0  0
  -40.0555  -64.5030   47.3720 O   0  0  0  0  0  0  0  0  0  0  0  0
  -39.3406  -66.7811   47.3300 O   0  0  0  0  0  0  0  0  0  0  0  0
  -37.3962  -65.0521   47.3698 C   0  0  0  0  0  0  0  0  0  0  0  0
  -37.0491  -63.8153   46.8088 C   0  0  0  0  0  0  0  0  0  0  0  0
  -35.7651  -63.5460   46.3795 C   0  0  0  0  0  0  0  0  0  0  0  0
  -34.7647  -64.4905   46.4873 C   0  0  0  0  0  0  0  0  0  0  0  0
  -35.0964  -65.7001   47.0324 C   0  0  0  0  0  0  0  0  0  0  0  0
  -36.3943  -65.9578   47.4611 C   0  0  0  0  0  0  0  0  0  0  0  0
  -36.6009  -67.3064   48.0151 C   0  0  0  0  0  0  0  0  0  0  0  0
  -35.5309  -67.6430   49.0306 C   0  0  0  0  0  0  0  0  0  0  0  0
  -34.2529  -67.2462   48.5750 N   0  0  0  0  0  0  0  0  0  0  0  0
  -34.1371  -66.8127   47.2189 C   0  0  0  0  0  0  0  0  0  0  0  0
  -33.4163  -66.5775   49.5082 C   0  0  0  0  0  0  0  0  0  0  0  0
  -35.7550  -62.2601   45.8853 O   0  0  0  0  0  0  0  0  0  0  0  0
  -37.0645  -61.7659   45.8781 C   0  0  0  0  0  0  0  0  0  0  0  0
  -37.8572  -62.7039   46.5896 O   0  0  0  0  0  0  0  0  0  0  0  0
  -33.4508  -64.2228   46.0506 O   0  0  0  0  0  0  0  0  0  0  0  0
  -32.5862  -63.4625   46.9067 C   0  0  0  0  0  0  0  0  0  0  0  0
  -39.0910  -65.6196   49.6141 N   0  0  0  0  0  0  0  0  0  0  0  0
  -39.6515  -66.8631   50.0169 C   0  0  0  0  0  0  0  0  0  0  0  0
  -41.1686  -66.8495   50.1523 C   0  0  0  0  0  0  0  0  0  0  0  0
  -41.5468  -65.7531   50.9792 N   0  0  0  0  0  0  0  0  0  0  0  0
  -41.1097  -64.4399   50.4046 C   0  0  0  0  0  0  0  0  0  0  0  0
  -39.6227  -64.4968   50.3088 C   0  0  0  0  0  0  0  0  0  0  0  0
  -42.2246  -65.6986   52.1804 C   0  0  0  0  0  0  0  0  0  0  0  0
  -42.3940  -64.4850   52.6663 O   0  0  0  0  0  0  0  0  0  0  0  0
  -42.7828  -66.7321   53.0029 C   0  0  0  0  0  0  0  0  0  0  0  0
  -41.9278  -67.5768   53.7546 N   0  0  0  0  0  0  0  0  0  0  0  0
  -41.9399  -67.7888   55.0695 N   0  0  0  0  0  0  0  0  0  0  0  0
  -41.0073  -68.6840   55.4178 C   0  0  0  0  0  0  0  0  0  0  0  0
  -40.3794  -69.0485   54.2521 C   0  0  0  0  0  0  0  0  0  0  0  0
  -40.9521  -68.3606   53.2246 C   0  0  0  0  0  0  0  0  0  0  0  0
  -38.9379  -70.3125   54.0917 Br  0  0  0  0  0  0  0  0  0  0  0  0
  1  2  2  0  0  0
  1  3  2  0  0  0
  1 20  1  0  0  0
  1  4  1  0  0  0
 20 21  1  0  0  0
 20 25  1  0  0  0
 21 22  1  0  0  0
 22 23  1  0  0  0
 23 24  1  0  0  0
 23 26  1  0  0  0
 24 25  1  0  0  0
 26 27  2  0  0  0
 26 28  1  0  0  0
 28 29  1  0  0  0
 29 30  1  0  0  0
 29 33  1  0  0  0
 30 31  2  0  0  0
 31 32  1  0  0  0
 32 33  2  0  0  0
 32 34  1  0  0  0
  4  5  2  0  0  0
  4  9  1  0  0  0
  5  6  1  0  0  0
  5 17  1  0  0  0
  6  7  2  0  0  0
  6 15  1  0  0  0
  7  8  1  0  0  0
  7 18  1  0  0  0
  8  9  2  0  0  0
  8 13  1  0  0  0
  9 10  1  0  0  0
 10 11  1  0  0  0
 11 12  1  0  0  0
 12 13  1  0  0  0
 12 14  1  0  0  0
 18 19  1  0  0  0
 15 16  1  0  0  0
 16 17  1  0  0  0
M  END
> <minimizedAffinity>
-8.25833

$$$$
1042


 31 34  0  0  0  0  0  0  0  0999 V2000
  -39.6860  -65.3903   49.5284 N   0  0  0  0  0  0  0  0  0  0  0  0
  -39.4058  -64.1310   50.0331 C   0  0  0  0  0  0  0  0  0  0  0  0
  -39.3144  -63.1422   48.8387 C   0  0  0  0  0  0  0  0  0  0  0  0
  -38.4068  -63.6595   47.8529 N   0  0  0  0  0  0  0  0  0  0  0  0
  -38.7224  -64.9538   47.2931 C   0  0  0  0  0  0  0  0  0  0  0  0
  -39.8648  -65.5193   48.1084 C   0  0  0  0  0  0  0  0  0  0  0  0
  -37.2534  -62.9790   47.4185 C   0  0  0  0  0  0  0  0  0  0  0  0
  -36.9858  -61.8580   47.9074 O   0  0  0  0  0  0  0  0  0  0  0  0
  -40.1512  -66.6791   50.4594 S   0  0  0  0  0  0  0  0  0  0  0  0
  -40.6758  -66.1397   51.7970 O   0  0  0  0  0  0  0  0  0  0  0  0
  -41.3733  -67.3966   49.8780 O   0  0  0  0  0  0  0  0  0  0  0  0
  -38.9540  -67.8643   50.8800 C   0  0  0  0  0  0  0  0  0  0  0  0
  -39.0289  -68.7652   51.9083 C   0  0  0  0  0  0  0  0  0  0  0  0
  -37.9817  -69.6480   52.1959 C   0  0  0  0  0  0  0  0  0  0  0  0
  -36.8343  -69.6570   51.4675 C   0  0  0  0  0  0  0  0  0  0  0  0
  -36.7289  -68.7698   50.4304 C   0  0  0  0  0  0  0  0  0  0  0  0
  -37.7545  -67.9005   50.1449 C   0  0  0  0  0  0  0  0  0  0  0  0
  -40.6220  -68.8707   52.9333 Br  0  0  0  0  0  0  0  0  0  0  0  0
  -36.3674  -63.5606   46.4089 C   0  0  0  0  0  0  0  0  0  0  0  0
  -35.0879  -63.9375   47.0036 N   0  0  0  0  0  0  0  0  0  0  0  0
  -33.8905  -63.1962   47.1151 C   0  0  0  0  0  0  0  0  0  0  0  0
  -33.7241  -62.0063   46.6898 O   0  0  0  0  0  0  0  0  0  0  0  0
  -32.9386  -64.0196   47.7775 N   0  0  0  0  0  0  0  0  0  0  0  0
  -33.6768  -65.0386   48.4767 C   0  0  0  0  0  0  0  0  0  0  0  0
  -34.0377  -64.6680   49.8781 C   0  0  0  0  0  0  0  0  0  0  0  0
  -34.4277  -66.0294   50.4675 C   0  0  0  0  0  0  0  0  0  0  0  0
  -33.4591  -66.9883   49.8316 C   0  0  0  0  0  0  0  0  0  0  0  0
  -32.8830  -66.3153   48.6296 C   0  0  0  0  0  0  0  0  0  0  0  0
  -34.8605  -65.2284   47.6048 C   0  0  0  0  0  0  0  0  0  0  0  0
  -35.5117  -66.2839   47.4364 O   0  0  0  0  0  0  0  0  0  0  0  0
  -31.9050  -63.8442   47.7142 H   0  0  0  0  0  0  0  0  0  0  0  0
  9 10  2  0  0  0
  9 11  2  0  0  0
  9  1  1  0  0  0
  9 12  1  0  0  0
  1  2  1  0  0  0
  1  6  1  0  0  0
  2  3  1  0  0  0
  3  4  1  0  0  0
  4  5  1  0  0  0
  4  7  1  0  0  0
  5  6  1  0  0  0
  7  8  2  0  0  0
  7 19  1  0  0  0
 19 20  1  0  0  0
 20 21  1  0  0  0
 20 29  1  0  0  0
 21 22  2  0  0  0
 21 23  1  0  0  0
 23 24  1  0  0  0
 24 25  1  0  0  0
 24 28  1  0  0  0
 24 29  1  0  0  0
 25 26  1  0  0  0
 26 27  1  0  0  0
 27 28  1  0  0  0
 29 30  2  0  0  0
 12 13  2  0  0  0
 12 17  1  0  0  0
 13 14  1  0  0  0
 13 18  1  0  0  0
 14 15  2  0  0  0
 15 16  1  0  0  0
 16 17  2  0  0  0
 23 31  1  0  0  0
M  END
> <minimizedAffinity>
-8.11118

$$$$
1043


 31 34  0  0  0  0  0  0  0  0999 V2000
  -40.4238  -67.9350   52.7697 N   0  0  0  0  0  0  0  0  0  0  0  0
  -39.1910  -68.6270   53.0805 C   0  0  0  0  0  0  0  0  0  0  0  0
  -38.6720  -69.3824   51.8825 C   0  0  0  0  0  0  0  0  0  0  0  0
  -38.6239  -68.4233   50.7594 N   0  0  0  0  0  0  0  0  0  0  0  0
  -39.8602  -67.7717   50.4572 C   0  0  0  0  0  0  0  0  0  0  0  0
  -40.9053  -68.2796   51.4782 C   0  0  0  0  0  0  0  0  0  0  0  0
  -37.4258  -68.1938   50.0678 C   0  0  0  0  0  0  0  0  0  0  0  0
  -36.3965  -68.8862   50.5129 O   0  0  0  0  0  0  0  0  0  0  0  0
  -41.5868  -68.0419   54.0145 S   0  0  0  0  0  0  0  0  0  0  0  0
  -40.8898  -67.6578   55.3071 O   0  0  0  0  0  0  0  0  0  0  0  0
  -42.0012  -69.4818   54.1858 O   0  0  0  0  0  0  0  0  0  0  0  0
  -42.9883  -67.0372   53.7347 C   0  0  0  0  0  0  0  0  0  0  0  0
  -42.8814  -65.7215   53.3314 C   0  0  0  0  0  0  0  0  0  0  0  0
  -44.0030  -64.9301   53.1116 C   0  0  0  0  0  0  0  0  0  0  0  0
  -45.2640  -65.4372   53.2903 C   0  0  0  0  0  0  0  0  0  0  0  0
  -45.3852  -66.7504   53.6927 C   0  0  0  0  0  0  0  0  0  0  0  0
  -44.2621  -67.5348   53.9097 C   0  0  0  0  0  0  0  0  0  0  0  0
  -46.8231  -64.3475   52.9872 Br  0  0  0  0  0  0  0  0  0  0  0  0
  -37.0858  -67.3441   48.9550 C   0  0  0  0  0  0  0  0  0  0  0  0
  -37.5029  -65.9775   48.9327 N   0  0  0  0  0  0  0  0  0  0  0  0
  -36.8210  -64.8362   49.5129 C   0  0  0  0  0  0  0  0  0  0  0  0
  -35.7168  -64.9373   50.1167 O   0  0  0  0  0  0  0  0  0  0  0  0
  -37.6127  -63.6862   49.2640 N   0  0  0  0  0  0  0  0  0  0  0  0
  -38.9262  -64.1350   48.9480 C   0  0  0  0  0  0  0  0  0  0  0  0
  -39.8500  -64.1756   50.1416 C   0  0  0  0  0  0  0  0  0  0  0  0
  -41.1994  -64.3525   49.4721 C   0  0  0  0  0  0  0  0  0  0  0  0
  -41.0775  -63.7100   48.1114 C   0  0  0  0  0  0  0  0  0  0  0  0
  -39.6642  -63.1860   48.0197 C   0  0  0  0  0  0  0  0  0  0  0  0
  -38.7093  -65.4485   48.3438 C   0  0  0  0  0  0  0  0  0  0  0  0
  -39.4097  -66.0366   47.4808 O   0  0  0  0  0  0  0  0  0  0  0  0
  -37.2225  -62.7055   49.3237 H   0  0  0  0  0  0  0  0  0  0  0  0
  9 10  2  0  0  0
  9 11  2  0  0  0
  9  1  1  0  0  0
  9 12  1  0  0  0
  1  2  1  0  0  0
  1  6  1  0  0  0
  2  3  1  0  0  0
  3  4  1  0  0  0
  4  5  1  0  0  0
  4  7  1  0  0  0
  5  6  1  0  0  0
  7  8  2  0  0  0
  7 19  1  0  0  0
 19 20  1  0  0  0
 20 21  1  0  0  0
 20 29  1  0  0  0
 21 22  2  0  0  0
 21 23  1  0  0  0
 23 24  1  0  0  0
 24 25  1  0  0  0
 24 28  1  0  0  0
 24 29  1  0  0  0
 25 26  1  0  0  0
 26 27  1  0  0  0
 27 28  1  0  0  0
 29 30  2  0  0  0
 12 13  2  0  0  0
 12 17  1  0  0  0
 13 14  1  0  0  0
 14 15  2  0  0  0
 15 16  1  0  0  0
 15 18  1  0  0  0
 16 17  2  0  0  0
 23 31  1  0  0  0
M  END
> <minimizedAffinity>
-8.35849

$$$$
1044


 30 33  0  0  0  0  0  0  0  0999 V2000
  -43.5985  -65.6709   53.6393 S   0  0  0  0  0  0  0  0  0  0  0  0
  -43.1940  -64.2840   53.3239 O   0  0  0  0  0  0  0  0  0  0  0  0
  -44.0348  -65.6842   55.0992 O   0  0  0  0  0  0  0  0  0  0  0  0
  -42.2342  -66.7786   53.5462 C   0  0  0  0  0  0  0  0  0  0  0  0
  -41.4137  -66.8187   52.4378 C   0  0  0  0  0  0  0  0  0  0  0  0
  -40.3364  -67.6749   52.3349 C   0  0  0  0  0  0  0  0  0  0  0  0
  -40.0359  -68.5433   53.3640 C   0  0  0  0  0  0  0  0  0  0  0  0
  -40.8580  -68.5053   54.4798 C   0  0  0  0  0  0  0  0  0  0  0  0
  -41.9331  -67.6467   54.5761 C   0  0  0  0  0  0  0  0  0  0  0  0
  -38.9550  -69.4200   53.2894 O   0  0  0  0  0  0  0  0  0  0  0  0
  -38.2335  -69.6917   52.1032 C   0  0  0  0  0  0  0  0  0  0  0  0
  -38.3810  -68.6086   51.0985 C   0  0  0  0  0  0  0  0  0  0  0  0
  -37.5040  -68.5327   50.2010 O   0  0  0  0  0  0  0  0  0  0  0  0
  -39.4892  -67.7207   51.1939 N   0  0  0  0  0  0  0  0  0  0  0  0
  -39.7027  -67.0710   50.4077 H   0  0  0  0  0  0  0  0  0  0  0  0
  -44.8894  -66.2534   52.7153 N   0  0  0  0  0  0  0  0  0  0  0  0
  -45.6217  -65.3292   51.9683 C   0  0  0  0  0  0  0  0  0  0  0  0
  -47.0263  -65.6908   51.6379 C   0  0  0  0  0  0  0  0  0  0  0  0
  -47.6435  -66.5942   52.5566 N   0  0  0  0  0  0  0  0  0  0  0  0
  -46.8867  -67.0606   53.6981 C   0  0  0  0  0  0  0  0  0  0  0  0
  -45.5102  -67.4360   53.1534 C   0  0  0  0  0  0  0  0  0  0  0  0
  -48.9723  -67.0538   52.3929 C   0  0  0  0  0  0  0  0  0  0  0  0
  -49.6765  -66.6705   51.4045 O   0  0  0  0  0  0  0  0  0  0  0  0
  -49.6172  -67.9753   53.3193 C   0  0  0  0  0  0  0  0  0  0  0  0
  -50.3648  -67.5382   54.3971 C   0  0  0  0  0  0  0  0  0  0  0  0
  -50.9786  -68.3986   55.2777 C   0  0  0  0  0  0  0  0  0  0  0  0
  -50.8332  -69.7606   55.0639 C   0  0  0  0  0  0  0  0  0  0  0  0
  -50.1020  -70.2525   54.0084 C   0  0  0  0  0  0  0  0  0  0  0  0
  -49.5065  -69.3495   53.1556 C   0  0  0  0  0  0  0  0  0  0  0  0
  -50.5217  -65.6491   54.6290 Br  0  0  0  0  0  0  0  0  0  0  0  0
  1  2  2  0  0  0
  1  3  2  0  0  0
  1 16  1  0  0  0
  1  4  1  0  0  0
 16 17  1  0  0  0
 16 21  1  0  0  0
 17 18  1  0  0  0
 18 19  1  0  0  0
 19 20  1  0  0  0
 19 22  1  0  0  0
 20 21  1  0  0  0
 22 23  2  0  0  0
 22 24  1  0  0  0
 24 25  2  0  0  0
 24 29  1  0  0  0
 25 26  1  0  0  0
 25 30  1  0  0  0
 26 27  2  0  0  0
 27 28  1  0  0  0
 28 29  2  0  0  0
  4  5  2  0  0  0
  4  9  1  0  0  0
  5  6  1  0  0  0
  6  7  2  0  0  0
  6 14  1  0  0  0
  7  8  1  0  0  0
  7 10  1  0  0  0
  8  9  2  0  0  0
 10 11  1  0  0  0
 11 12  1  0  0  0
 12 13  2  0  0  0
 12 14  1  0  0  0
 14 15  1  0  0  0
M  END
> <minimizedAffinity>
-8.72435

$$$$
1051


 27 30  0  0  0  0  0  0  0  0999 V2000
  -35.2925  -63.3242   47.8809 N   0  0  0  0  0  0  0  0  0  0  0  0
  -35.8898  -63.3931   49.1633 C   0  0  0  0  0  0  0  0  0  0  0  0
  -36.7783  -64.5607   49.4254 C   0  0  0  0  0  0  0  0  0  0  0  0
  -37.5179  -65.0044   48.2742 N   0  0  0  0  0  0  0  0  0  0  0  0
  -37.3206  -64.2562   47.0529 C   0  0  0  0  0  0  0  0  0  0  0  0
  -35.8173  -64.1884   46.8790 C   0  0  0  0  0  0  0  0  0  0  0  0
  -38.4036  -66.0980   48.2700 C   0  0  0  0  0  0  0  0  0  0  0  0
  -39.0038  -66.4097   47.2180 O   0  0  0  0  0  0  0  0  0  0  0  0
  -38.6293  -66.8742   49.4848 C   0  0  0  0  0  0  0  0  0  0  0  0
  -39.6160  -66.6882   50.3556 N   0  0  0  0  0  0  0  0  0  0  0  0
  -39.5284  -67.5709   51.3532 N   0  0  0  0  0  0  0  0  0  0  0  0
  -38.4572  -68.3715   51.1507 C   0  0  0  0  0  0  0  0  0  0  0  0
  -37.8826  -67.9241   49.9554 C   0  0  0  0  0  0  0  0  0  0  0  0
  -38.1284  -69.3633   52.0159 N   0  0  0  0  0  0  0  0  0  0  0  0
  -38.8972  -69.5652   53.1250 C   0  0  0  0  0  0  0  0  0  0  0  0
  -39.9957  -68.7667   53.3583 C   0  0  0  0  0  0  0  0  0  0  0  0
  -40.2873  -67.7730   52.4509 C   0  0  0  0  0  0  0  0  0  0  0  0
  -41.0776  -69.0535   54.9227 Br  0  0  0  0  0  0  0  0  0  0  0  0
  -33.5778  -63.4810   47.8965 S   0  0  0  0  0  0  0  0  0  0  0  0
  -33.0017  -62.7285   49.0523 O   0  0  0  0  0  0  0  0  0  0  0  0
  -33.0749  -62.8399   46.6100 O   0  0  0  0  0  0  0  0  0  0  0  0
  -33.0743  -65.1498   47.9941 C   0  0  0  0  0  0  0  0  0  0  0  0
  -32.3495  -65.8591   47.0638 C   0  0  0  0  0  0  0  0  0  0  0  0
  -32.1617  -67.1067   47.4961 N   0  0  0  0  0  0  0  0  0  0  0  0
  -32.7390  -67.2318   48.6754 N   0  0  0  0  0  0  0  0  0  0  0  0
  -33.3158  -66.0547   49.0276 C   0  0  0  0  0  0  0  0  0  0  0  0
  -31.4564  -68.1662   46.8251 C   0  0  0  0  0  0  0  0  0  0  0  0
 19 20  2  0  0  0
 19 21  2  0  0  0
 19  1  1  0  0  0
 19 22  1  0  0  0
  1  2  1  0  0  0
  1  6  1  0  0  0
  2  3  1  0  0  0
  3  4  1  0  0  0
  4  5  1  0  0  0
  4  7  1  0  0  0
  5  6  1  0  0  0
  7  8  2  0  0  0
  7  9  1  0  0  0
  9 10  2  0  0  0
  9 13  1  0  0  0
 10 11  1  0  0  0
 11 12  1  0  0  0
 11 17  1  0  0  0
 12 13  2  0  0  0
 12 14  1  0  0  0
 14 15  2  0  0  0
 15 16  1  0  0  0
 16 17  2  0  0  0
 16 18  1  0  0  0
 22 23  2  0  0  0
 22 26  1  0  0  0
 23 24  1  0  0  0
 24 25  1  0  0  0
 24 27  1  0  0  0
 25 26  2  0  0  0
M  END
> <minimizedAffinity>
-7.53571

$$$$
1056


 30 33  0  0  0  0  0  0  0  0999 V2000
  -41.9344  -64.5799   51.7521 N   0  0  0  0  0  0  0  0  0  0  0  0
  -42.3521  -64.4063   50.4134 C   0  0  0  0  0  0  0  0  0  0  0  0
  -41.5675  -65.0833   49.3671 C   0  0  0  0  0  0  0  0  0  0  0  0
  -40.1615  -65.0483   49.6391 N   0  0  0  0  0  0  0  0  0  0  0  0
  -39.6857  -64.3409   50.7930 C   0  0  0  0  0  0  0  0  0  0  0  0
  -40.5406  -64.5296   52.0071 C   0  0  0  0  0  0  0  0  0  0  0  0
  -39.2459  -65.6991   48.7881 C   0  0  0  0  0  0  0  0  0  0  0  0
  -39.6796  -66.3122   47.7865 O   0  0  0  0  0  0  0  0  0  0  0  0
  -37.8045  -65.7046   49.0031 C   0  0  0  0  0  0  0  0  0  0  0  0
  -37.2084  -66.7756   49.6435 C   0  0  0  0  0  0  0  0  0  0  0  0
  -35.8811  -66.7827   49.8416 N   0  0  0  0  0  0  0  0  0  0  0  0
  -35.0822  -65.7722   49.4356 C   0  0  0  0  0  0  0  0  0  0  0  0
  -35.6296  -64.7160   48.8100 N   0  0  0  0  0  0  0  0  0  0  0  0
  -34.8273  -63.6938   48.3987 C   0  0  0  0  0  0  0  0  0  0  0  0
  -33.4633  -63.7087   48.6066 C   0  0  0  0  0  0  0  0  0  0  0  0
  -32.8775  -64.7867   49.2496 C   0  0  0  0  0  0  0  0  0  0  0  0
  -33.7093  -65.8062   49.6546 C   0  0  0  0  0  0  0  0  0  0  0  0
  -32.5578  -62.6155   48.1738 C   0  0  0  0  0  0  0  0  0  0  0  0
  -36.9716  -64.6821   48.5962 C   0  0  0  0  0  0  0  0  0  0  0  0
  -37.4753  -63.7071   48.0182 O   0  0  0  0  0  0  0  0  0  0  0  0
  -42.8301  -65.6688   52.6869 S   0  0  0  0  0  0  0  0  0  0  0  0
  -43.4960  -64.9624   53.8158 O   0  0  0  0  0  0  0  0  0  0  0  0
  -43.8951  -66.2853   51.8137 O   0  0  0  0  0  0  0  0  0  0  0  0
  -41.7988  -66.9468   53.2715 C   0  0  0  0  0  0  0  0  0  0  0  0
  -40.8788  -67.5357   52.4295 C   0  0  0  0  0  0  0  0  0  0  0  0
  -40.0879  -68.5489   52.9613 C   0  0  0  0  0  0  0  0  0  0  0  0
  -40.2030  -68.9585   54.2640 C   0  0  0  0  0  0  0  0  0  0  0  0
  -41.1317  -68.3590   55.1025 C   0  0  0  0  0  0  0  0  0  0  0  0
  -41.9373  -67.3376   54.5876 C   0  0  0  0  0  0  0  0  0  0  0  0
  -38.8006  -69.4011   51.8509 Br  0  0  0  0  0  0  0  0  0  0  0  0
 21 22  2  0  0  0
 21 23  2  0  0  0
 21  1  1  0  0  0
 21 24  1  0  0  0
  1  2  1  0  0  0
  1  6  1  0  0  0
  2  3  1  0  0  0
  3  4  1  0  0  0
  4  5  1  0  0  0
  4  7  1  0  0  0
  5  6  1  0  0  0
  7  8  2  0  0  0
  7  9  1  0  0  0
  9 10  2  0  0  0
  9 19  1  0  0  0
 10 11  1  0  0  0
 11 12  2  0  0  0
 12 13  1  0  0  0
 12 17  1  0  0  0
 13 14  1  0  0  0
 13 19  1  0  0  0
 14 15  2  0  0  0
 15 16  1  0  0  0
 15 18  1  0  0  0
 16 17  2  0  0  0
 19 20  2  0  0  0
 24 25  2  0  0  0
 24 29  1  0  0  0
 25 26  1  0  0  0
 26 27  2  0  0  0
 26 30  1  0  0  0
 27 28  1  0  0  0
 28 29  2  0  0  0
M  END
> <minimizedAffinity>
-9.07751

$$$$
1061


 30 34  0  0  0  0  0  0  0  0999 V2000
  -34.2433  -62.7349   47.5879 N   0  0  0  0  0  0  0  0  0  0  0  0
  -34.8517  -62.9364   46.2993 C   0  0  0  0  0  0  0  0  0  0  0  0
  -36.3069  -62.5277   46.2995 C   0  0  0  0  0  0  0  0  0  0  0  0
  -37.0323  -63.2341   47.3852 N   0  0  0  0  0  0  0  0  0  0  0  0
  -36.4743  -62.7798   48.6508 C   0  0  0  0  0  0  0  0  0  0  0  0
  -35.1349  -62.0808   48.4959 C   0  0  0  0  0  0  0  0  0  0  0  0
  -33.3008  -63.9908   48.1830 S   0  0  0  0  0  0  0  0  0  0  0  0
  -32.3437  -64.4215   47.0789 O   0  0  0  0  0  0  0  0  0  0  0  0
  -32.3796  -63.4096   49.2565 O   0  0  0  0  0  0  0  0  0  0  0  0
  -34.1167  -65.3303   48.8823 C   0  0  0  0  0  0  0  0  0  0  0  0
  -35.0081  -66.0734   48.1472 C   0  0  0  0  0  0  0  0  0  0  0  0
  -35.6389  -67.1520   48.7411 C   0  0  0  0  0  0  0  0  0  0  0  0
  -35.4086  -67.5161   50.0552 C   0  0  0  0  0  0  0  0  0  0  0  0
  -34.5127  -66.7673   50.7891 C   0  0  0  0  0  0  0  0  0  0  0  0
  -33.8791  -65.6835   50.1914 C   0  0  0  0  0  0  0  0  0  0  0  0
  -36.2787  -69.0010   50.8759 Br  0  0  0  0  0  0  0  0  0  0  0  0
  -38.3920  -62.7556   47.2567 C   0  0  0  0  0  0  0  0  0  0  0  0
  -39.4710  -63.7520   47.2153 C   0  0  0  0  0  0  0  0  0  0  0  0
  -39.6267  -64.6727   48.2899 N   0  0  0  0  0  0  0  0  0  0  0  0
  -39.2982  -66.0540   48.3851 C   0  0  0  0  0  0  0  0  0  0  0  0
  -39.2133  -66.8382   47.4288 O   0  0  0  0  0  0  0  0  0  0  0  0
  -39.0768  -66.3954   49.8109 C   0  0  0  0  0  0  0  0  0  0  0  0
  -40.0217  -65.3779   50.4903 C   0  0  0  0  0  0  0  0  0  0  0  0
  -41.2623  -66.1292   50.7959 C   0  0  0  0  0  0  0  0  0  0  0  0
  -41.2059  -67.2774   49.7741 C   0  0  0  0  0  0  0  0  0  0  0  0
  -39.7656  -67.6689   50.1485 C   0  0  0  0  0  0  0  0  0  0  0  0
  -39.9120  -67.6979   51.6424 C   0  0  0  0  0  0  0  0  0  0  0  0
  -40.9606  -66.9670   52.0209 C   0  0  0  0  0  0  0  0  0  0  0  0
  -40.1520  -64.2572   49.5702 C   0  0  0  0  0  0  0  0  0  0  0  0
  -40.6408  -63.1393   49.8704 O   0  0  0  0  0  0  0  0  0  0  0  0
  7  8  2  0  0  0
  7  9  2  0  0  0
  7  1  1  0  0  0
  7 10  1  0  0  0
  1  2  1  0  0  0
  1  6  1  0  0  0
  2  3  1  0  0  0
  3  4  1  0  0  0
  4  5  1  0  0  0
  4 17  1  0  0  0
  5  6  1  0  0  0
 17 18  1  0  0  0
 18 19  1  0  0  0
 19 20  1  0  0  0
 19 29  1  0  0  0
 20 21  2  0  0  0
 20 22  1  0  0  0
 22 23  1  0  0  0
 22 26  1  0  0  0
 23 24  1  0  0  0
 23 29  1  0  0  0
 24 25  1  0  0  0
 24 28  1  0  0  0
 25 26  1  0  0  0
 26 27  1  0  0  0
 27 28  2  0  0  0
 29 30  2  0  0  0
 10 11  2  0  0  0
 10 15  1  0  0  0
 11 12  1  0  0  0
 12 13  2  0  0  0
 13 14  1  0  0  0
 13 16  1  0  0  0
 14 15  2  0  0  0
M  END
> <minimizedAffinity>
-7.98450

$$$$
1073


 28 31  0  0  0  0  0  0  0  0999 V2000
  -39.7590  -64.9868   49.0446 N   0  0  0  0  0  0  0  0  0  0  0  0
  -40.8747  -64.3543   48.4673 C   0  0  0  0  0  0  0  0  0  0  0  0
  -41.8236  -63.7747   49.4798 C   0  0  0  0  0  0  0  0  0  0  0  0
  -41.7057  -64.3314   50.7797 N   0  0  0  0  0  0  0  0  0  0  0  0
  -40.3835  -64.2021   51.2790 C   0  0  0  0  0  0  0  0  0  0  0  0
  -39.3133  -64.5349   50.3070 C   0  0  0  0  0  0  0  0  0  0  0  0
  -38.6486  -65.7229   48.0521 S   0  0  0  0  0  0  0  0  0  0  0  0
  -39.2543  -66.7783   47.1894 O   0  0  0  0  0  0  0  0  0  0  0  0
  -37.9744  -64.7153   47.1775 O   0  0  0  0  0  0  0  0  0  0  0  0
  -37.4076  -66.5095   49.0499 C   0  0  0  0  0  0  0  0  0  0  0  0
  -37.4876  -67.9847   49.9004 S   0  0  0  0  0  0  0  0  0  0  0  0
  -35.9219  -67.9971   50.5712 C   0  0  0  0  0  0  0  0  0  0  0  0
  -35.3701  -66.8287   50.1064 C   0  0  0  0  0  0  0  0  0  0  0  0
  -36.1447  -66.0649   49.3202 C   0  0  0  0  0  0  0  0  0  0  0  0
  -35.1033  -69.3078   51.7033 Br  0  0  0  0  0  0  0  0  0  0  0  0
  -42.3336  -65.5958   50.8790 C   0  0  0  0  0  0  0  0  0  0  0  0
  -42.2694  -66.2546   52.1393 N   0  0  0  0  0  0  0  0  0  0  0  0
  -41.3639  -67.1833   52.3683 N   0  0  0  0  0  0  0  0  0  0  0  0
  -41.2390  -67.8552   53.5232 C   0  0  0  0  0  0  0  0  0  0  0  0
  -42.1270  -67.5366   54.5233 C   0  0  0  0  0  0  0  0  0  0  0  0
  -43.0981  -66.5742   54.3461 C   0  0  0  0  0  0  0  0  0  0  0  0
  -43.1393  -65.9391   53.1119 C   0  0  0  0  0  0  0  0  0  0  0  0
  -44.0416  -65.0450   52.9512 O   0  0  0  0  0  0  0  0  0  0  0  0
  -40.2431  -68.8611   53.7416 N   0  0  0  0  0  0  0  0  0  0  0  0
  -40.0817  -69.6596   54.8017 C   0  0  0  0  0  0  0  0  0  0  0  0
  -39.0174  -70.4536   54.5826 N   0  0  0  0  0  0  0  0  0  0  0  0
  -38.4910  -70.1664   53.3788 C   0  0  0  0  0  0  0  0  0  0  0  0
  -39.2759  -69.1588   52.8598 C   0  0  0  0  0  0  0  0  0  0  0  0
  7  8  2  0  0  0
  7  9  2  0  0  0
  7  1  1  0  0  0
  7 10  1  0  0  0
  1  2  1  0  0  0
  1  6  1  0  0  0
  2  3  1  0  0  0
  3  4  1  0  0  0
  4  5  1  0  0  0
  4 16  1  0  0  0
  5  6  1  0  0  0
 16 17  1  0  0  0
 17 18  1  0  0  0
 17 22  1  0  0  0
 18 19  2  0  0  0
 19 20  1  0  0  0
 19 24  1  0  0  0
 20 21  2  0  0  0
 21 22  1  0  0  0
 22 23  2  0  0  0
 24 25  1  0  0  0
 24 28  1  0  0  0
 25 26  2  0  0  0
 26 27  1  0  0  0
 27 28  2  0  0  0
 10 11  1  0  0  0
 10 14  2  0  0  0
 11 12  1  0  0  0
 12 13  2  0  0  0
 12 15  1  0  0  0
 13 14  1  0  0  0
M  END
> <minimizedAffinity>
-7.73164

$$$$
1076


 29 32  0  0  0  0  0  0  0  0999 V2000
  -38.8977  -65.3680   48.8978 N   0  0  0  0  0  0  0  0  0  0  0  0
  -38.6781  -64.2768   49.7937 C   0  0  0  0  0  0  0  0  0  0  0  0
  -39.9651  -64.1525   50.6275 C   0  0  0  0  0  0  0  0  0  0  0  0
  -41.0929  -64.5436   49.8995 N   0  0  0  0  0  0  0  0  0  0  0  0
  -41.0468  -64.3116   48.4816 C   0  0  0  0  0  0  0  0  0  0  0  0
  -39.7783  -64.8322   47.8441 C   0  0  0  0  0  0  0  0  0  0  0  0
  -37.4805  -65.9249   48.1166 S   0  0  0  0  0  0  0  0  0  0  0  0
  -36.9296  -64.9080   47.1518 O   0  0  0  0  0  0  0  0  0  0  0  0
  -37.8692  -67.1280   47.2889 O   0  0  0  0  0  0  0  0  0  0  0  0
  -36.2311  -66.4070   49.1984 C   0  0  0  0  0  0  0  0  0  0  0  0
  -36.1854  -67.5713   49.9065 C   0  0  0  0  0  0  0  0  0  0  0  0
  -35.1276  -67.8642   50.7552 C   0  0  0  0  0  0  0  0  0  0  0  0
  -34.0865  -66.9993   50.9173 C   0  0  0  0  0  0  0  0  0  0  0  0
  -34.1050  -65.8071   50.2100 C   0  0  0  0  0  0  0  0  0  0  0  0
  -35.1569  -65.5282   49.3744 C   0  0  0  0  0  0  0  0  0  0  0  0
  -35.0851  -69.5117   51.7434 Br  0  0  0  0  0  0  0  0  0  0  0  0
  -41.8850  -65.6257   50.3101 C   0  0  0  0  0  0  0  0  0  0  0  0
  -41.3543  -66.5316   51.2770 N   0  0  0  0  0  0  0  0  0  0  0  0
  -40.2738  -67.3929   50.9572 N   0  0  0  0  0  0  0  0  0  0  0  0
  -40.0050  -68.1317   52.1457 C   0  0  0  0  0  0  0  0  0  0  0  0
  -39.0464  -69.0464   52.2262 C   0  0  0  0  0  0  0  0  0  0  0  0
  -38.5584  -69.9391   53.3017 C   0  0  0  0  0  0  0  0  0  0  0  0
  -39.6589  -70.2484   54.2882 C   0  0  0  0  0  0  0  0  0  0  0  0
  -39.8816  -68.9746   55.0839 C   0  0  0  0  0  0  0  0  0  0  0  0
  -41.0351  -68.1806   54.5516 C   0  0  0  0  0  0  0  0  0  0  0  0
  -40.8852  -67.7557   53.1932 N   0  0  0  0  0  0  0  0  0  0  0  0
  -41.7247  -66.7524   52.6300 C   0  0  0  0  0  0  0  0  0  0  0  0
  -42.6401  -66.1772   53.2695 O   0  0  0  0  0  0  0  0  0  0  0  0
  -39.7770  -67.4710   50.0384 H   0  0  0  0  0  0  0  0  0  0  0  0
  7  8  2  0  0  0
  7  9  2  0  0  0
  7  1  1  0  0  0
  7 10  1  0  0  0
  1  2  1  0  0  0
  1  6  1  0  0  0
  2  3  1  0  0  0
  3  4  1  0  0  0
  4  5  1  0  0  0
  4 17  1  0  0  0
  5  6  1  0  0  0
 17 18  1  0  0  0
 18 19  1  0  0  0
 18 27  1  0  0  0
 19 20  1  0  0  0
 20 21  2  0  0  0
 20 26  1  0  0  0
 21 22  1  0  0  0
 22 23  1  0  0  0
 23 24  1  0  0  0
 24 25  1  0  0  0
 25 26  1  0  0  0
 26 27  1  0  0  0
 27 28  2  0  0  0
 10 11  2  0  0  0
 10 15  1  0  0  0
 11 12  1  0  0  0
 12 13  2  0  0  0
 12 16  1  0  0  0
 13 14  1  0  0  0
 14 15  2  0  0  0
 19 29  1  0  0  0
M  END
> <minimizedAffinity>
-8.36342

$$$$
1081


 27 30  0  0  0  0  0  0  0  0999 V2000
  -38.4467  -66.4951   48.9541 N   0  0  0  0  0  0  0  0  0  0  0  0
  -37.2976  -66.7359   49.7398 C   0  0  0  0  0  0  0  0  0  0  0  0
  -36.0978  -65.8932   49.4627 C   0  0  0  0  0  0  0  0  0  0  0  0
  -36.2777  -64.9224   48.4120 N   0  0  0  0  0  0  0  0  0  0  0  0
  -37.1055  -65.2445   47.2949 C   0  0  0  0  0  0  0  0  0  0  0  0
  -38.2702  -66.1191   47.6029 C   0  0  0  0  0  0  0  0  0  0  0  0
  -35.5929  -63.6688   48.5487 C   0  0  0  0  0  0  0  0  0  0  0  0
  -34.2846  -63.4588   48.3244 N   0  0  0  0  0  0  0  0  0  0  0  0
  -34.0851  -62.1621   48.5882 N   0  0  0  0  0  0  0  0  0  0  0  0
  -35.2172  -61.6037   48.9563 N   0  0  0  0  0  0  0  0  0  0  0  0
  -36.1760  -62.5056   48.9443 N   0  0  0  0  0  0  0  0  0  0  0  0
  -33.3280  -64.4142   47.8886 C   0  0  0  0  0  0  0  0  0  0  0  0
  -33.2005  -64.7435   46.5586 C   0  0  0  0  0  0  0  0  0  0  0  0
  -32.2512  -65.6848   46.1625 C   0  0  0  0  0  0  0  0  0  0  0  0
  -31.4277  -66.3008   47.0792 C   0  0  0  0  0  0  0  0  0  0  0  0
  -31.5576  -65.9657   48.4330 C   0  0  0  0  0  0  0  0  0  0  0  0
  -32.5135  -65.0213   48.8110 C   0  0  0  0  0  0  0  0  0  0  0  0
  -39.7841  -65.7928   49.7356 S   0  0  0  0  0  0  0  0  0  0  0  0
  -40.9356  -65.4983   48.8590 O   0  0  0  0  0  0  0  0  0  0  0  0
  -39.3328  -64.4575   50.3150 O   0  0  0  0  0  0  0  0  0  0  0  0
  -40.2747  -66.7879   51.0786 C   0  0  0  0  0  0  0  0  0  0  0  0
  -39.9699  -68.1226   51.1699 C   0  0  0  0  0  0  0  0  0  0  0  0
  -40.3667  -68.9074   52.2524 C   0  0  0  0  0  0  0  0  0  0  0  0
  -41.1013  -68.2970   53.2741 C   0  0  0  0  0  0  0  0  0  0  0  0
  -41.4135  -66.9582   53.1927 C   0  0  0  0  0  0  0  0  0  0  0  0
  -41.0056  -66.2235   52.1147 C   0  0  0  0  0  0  0  0  0  0  0  0
  -41.6764  -69.3127   54.7906 Br  0  0  0  0  0  0  0  0  0  0  0  0
 18 19  2  0  0  0
 18 20  2  0  0  0
 18  1  1  0  0  0
 18 21  1  0  0  0
  1  2  1  0  0  0
  1  6  1  0  0  0
  2  3  1  0  0  0
  3  4  1  0  0  0
  4  5  1  0  0  0
  4  7  1  0  0  0
  5  6  1  0  0  0
  7  8  1  0  0  0
  7 11  2  0  0  0
  8  9  1  0  0  0
  8 12  1  0  0  0
  9 10  2  0  0  0
 10 11  1  0  0  0
 12 13  2  0  0  0
 12 17  1  0  0  0
 13 14  1  0  0  0
 14 15  2  0  0  0
 15 16  1  0  0  0
 16 17  2  0  0  0
 21 22  2  0  0  0
 21 26  1  0  0  0
 22 23  1  0  0  0
 23 24  2  0  0  0
 24 25  1  0  0  0
 24 27  1  0  0  0
 25 26  2  0  0  0
M  END
> <minimizedAffinity>
-7.49097

$$$$
1084


 29 32  0  0  0  0  0  0  0  0999 V2000
  -36.1563  -66.7197   49.8963 N   0  0  0  0  0  0  0  0  0  0  0  0
  -35.9549  -68.0907   50.2261 C   0  0  0  0  0  0  0  0  0  0  0  0
  -37.2214  -68.9172   50.1671 C   0  0  0  0  0  0  0  0  0  0  0  0
  -38.3253  -68.0343   50.4080 N   0  0  0  0  0  0  0  0  0  0  0  0
  -38.5678  -66.9691   49.4803 C   0  0  0  0  0  0  0  0  0  0  0  0
  -37.2354  -66.4848   48.9664 C   0  0  0  0  0  0  0  0  0  0  0  0
  -39.1457  -68.2208   51.5332 C   0  0  0  0  0  0  0  0  0  0  0  0
  -40.2740  -67.5196   51.7328 N   0  0  0  0  0  0  0  0  0  0  0  0
  -41.0849  -67.6479   52.7678 C   0  0  0  0  0  0  0  0  0  0  0  0
  -40.7509  -68.5844   53.7315 C   0  0  0  0  0  0  0  0  0  0  0  0
  -39.6040  -69.3289   53.5714 C   0  0  0  0  0  0  0  0  0  0  0  0
  -38.8341  -69.1331   52.4857 N   0  0  0  0  0  0  0  0  0  0  0  0
  -39.2099  -70.3447   54.5846 C   0  0  0  0  0  0  0  0  0  0  0  0
  -42.2472  -66.8449   52.8619 N   0  0  0  0  0  0  0  0  0  0  0  0
  -43.0653  -66.7562   54.0539 C   0  0  0  0  0  0  0  0  0  0  0  0
  -43.8084  -65.4242   53.9630 C   0  0  0  0  0  0  0  0  0  0  0  0
  -42.8910  -64.4767   53.5036 O   0  0  0  0  0  0  0  0  0  0  0  0
  -42.6085  -64.5985   52.1621 C   0  0  0  0  0  0  0  0  0  0  0  0
  -42.6528  -66.0642   51.7158 C   0  0  0  0  0  0  0  0  0  0  0  0
  -34.7103  -66.1260   49.1562 S   0  0  0  0  0  0  0  0  0  0  0  0
  -33.7121  -65.8275   50.2628 O   0  0  0  0  0  0  0  0  0  0  0  0
  -34.1278  -67.2015   48.2857 O   0  0  0  0  0  0  0  0  0  0  0  0
  -35.0043  -64.6615   48.2632 C   0  0  0  0  0  0  0  0  0  0  0  0
  -35.3172  -63.5054   48.9651 C   0  0  0  0  0  0  0  0  0  0  0  0
  -35.5623  -62.3104   48.3257 C   0  0  0  0  0  0  0  0  0  0  0  0
  -35.5003  -62.2471   46.9550 C   0  0  0  0  0  0  0  0  0  0  0  0
  -35.1923  -63.3764   46.2201 C   0  0  0  0  0  0  0  0  0  0  0  0
  -34.9492  -64.5688   46.8966 C   0  0  0  0  0  0  0  0  0  0  0  0
  -35.8420  -60.5857   46.0862 Br  0  0  0  0  0  0  0  0  0  0  0  0
 20 21  2  0  0  0
 20 22  2  0  0  0
 20  1  1  0  0  0
 20 23  1  0  0  0
  1  2  1  0  0  0
  1  6  1  0  0  0
  2  3  1  0  0  0
  3  4  1  0  0  0
  4  5  1  0  0  0
  4  7  1  0  0  0
  5  6  1  0  0  0
  7  8  2  0  0  0
  7 12  1  0  0  0
  8  9  1  0  0  0
  9 10  2  0  0  0
  9 14  1  0  0  0
 10 11  1  0  0  0
 11 12  2  0  0  0
 11 13  1  0  0  0
 14 15  1  0  0  0
 14 19  1  0  0  0
 15 16  1  0  0  0
 16 17  1  0  0  0
 17 18  1  0  0  0
 18 19  1  0  0  0
 23 24  2  0  0  0
 23 28  1  0  0  0
 24 25  1  0  0  0
 25 26  2  0  0  0
 26 27  1  0  0  0
 26 29  1  0  0  0
 27 28  2  0  0  0
M  END
> <minimizedAffinity>
-8.29026

$$$$
1089


 25 28  0  0  0  0  0  0  0  0999 V2000
  -37.1683  -67.7822   49.2708 N   0  0  0  0  0  0  0  0  0  0  0  0
  -36.1789  -67.8935   50.2712 C   0  0  0  0  0  0  0  0  0  0  0  0
  -34.9657  -67.0127   50.1036 C   0  0  0  0  0  0  0  0  0  0  0  0
  -34.9859  -66.2601   48.8889 N   0  0  0  0  0  0  0  0  0  0  0  0
  -35.6628  -66.7072   47.6843 C   0  0  0  0  0  0  0  0  0  0  0  0
  -36.6338  -67.8162   47.9661 C   0  0  0  0  0  0  0  0  0  0  0  0
  -34.3241  -65.0043   48.8215 C   0  0  0  0  0  0  0  0  0  0  0  0
  -32.9622  -64.9552   48.9174 N   0  0  0  0  0  0  0  0  0  0  0  0
  -32.3205  -63.7885   48.8482 C   0  0  0  0  0  0  0  0  0  0  0  0
  -32.9647  -62.6341   48.6844 N   0  0  0  0  0  0  0  0  0  0  0  0
  -34.2922  -62.6600   48.5887 C   0  0  0  0  0  0  0  0  0  0  0  0
  -35.1864  -61.6804   48.4276 N   0  0  0  0  0  0  0  0  0  0  0  0
  -36.4309  -62.2341   48.3946 C   0  0  0  0  0  0  0  0  0  0  0  0
  -36.3346  -63.5568   48.5322 N   0  0  0  0  0  0  0  0  0  0  0  0
  -35.0304  -63.8431   48.6530 C   0  0  0  0  0  0  0  0  0  0  0  0
  -37.1346  -64.2161   48.5432 H   0  0  0  0  0  0  0  0  0  0  0  0
  -38.5309  -66.8608   49.5651 S   0  0  0  0  0  0  0  0  0  0  0  0
  -39.4462  -66.9448   48.3487 O   0  0  0  0  0  0  0  0  0  0  0  0
  -38.2412  -65.4187   49.7715 O   0  0  0  0  0  0  0  0  0  0  0  0
  -39.5188  -67.4096   50.9223 C   0  0  0  0  0  0  0  0  0  0  0  0
  -40.7094  -66.5667   51.8034 S   0  0  0  0  0  0  0  0  0  0  0  0
  -41.1583  -67.7842   52.9051 C   0  0  0  0  0  0  0  0  0  0  0  0
  -40.3504  -68.8365   52.5470 C   0  0  0  0  0  0  0  0  0  0  0  0
  -39.5096  -68.6361   51.5261 C   0  0  0  0  0  0  0  0  0  0  0  0
  -42.4595  -67.7280   54.3015 Br  0  0  0  0  0  0  0  0  0  0  0  0
 17 18  2  0  0  0
 17 19  2  0  0  0
 17  1  1  0  0  0
 17 20  1  0  0  0
  1  2  1  0  0  0
  1  6  1  0  0  0
  2  3  1  0  0  0
  3  4  1  0  0  0
  4  5  1  0  0  0
  4  7  1  0  0  0
  5  6  1  0  0  0
  7  8  2  0  0  0
  7 15  1  0  0  0
  8  9  1  0  0  0
  9 10  2  0  0  0
 10 11  1  0  0  0
 11 12  1  0  0  0
 11 15  2  0  0  0
 12 13  2  0  0  0
 13 14  1  0  0  0
 14 15  1  0  0  0
 20 21  1  0  0  0
 20 24  2  0  0  0
 21 22  1  0  0  0
 22 23  2  0  0  0
 22 25  1  0  0  0
 23 24  1  0  0  0
 14 16  1  0  0  0
M  END
> <minimizedAffinity>
-7.15293

$$$$
1100


 26 29  0  0  0  0  0  0  0  0999 V2000
  -39.2295  -65.3057   49.6192 N   0  0  0  0  0  0  0  0  0  0  0  0
  -39.8089  -64.5854   50.7029 C   0  0  0  0  0  0  0  0  0  0  0  0
  -41.0904  -65.2122   51.2104 C   0  0  0  0  0  0  0  0  0  0  0  0
  -40.9481  -66.6400   51.0821 N   0  0  0  0  0  0  0  0  0  0  0  0
  -40.8744  -67.1462   49.7350 C   0  0  0  0  0  0  0  0  0  0  0  0
  -40.0853  -66.1952   48.9089 C   0  0  0  0  0  0  0  0  0  0  0  0
  -40.8817  -67.5180   52.1884 C   0  0  0  0  0  0  0  0  0  0  0  0
  -39.8586  -68.3527   52.3732 C   0  0  0  0  0  0  0  0  0  0  0  0
  -39.7533  -69.2676   53.4953 C   0  0  0  0  0  0  0  0  0  0  0  0
  -38.7138  -70.0748   53.6276 C   0  0  0  0  0  0  0  0  0  0  0  0
  -40.7892  -69.2838   54.4545 N   0  0  0  0  0  0  0  0  0  0  0  0
  -41.8736  -68.3719   54.2241 C   0  0  0  0  0  0  0  0  0  0  0  0
  -41.9240  -67.5446   53.1687 N   0  0  0  0  0  0  0  0  0  0  0  0
  -43.0477  -66.8257   53.2311 N   0  0  0  0  0  0  0  0  0  0  0  0
  -43.7380  -67.1808   54.3288 C   0  0  0  0  0  0  0  0  0  0  0  0
  -43.0061  -68.1332   54.9313 N   0  0  0  0  0  0  0  0  0  0  0  0
  -40.8092  -69.8931   55.2836 H   0  0  0  0  0  0  0  0  0  0  0  0
  -38.3804  -64.2499   48.5953 S   0  0  0  0  0  0  0  0  0  0  0  0
  -38.8933  -62.8345   48.6589 O   0  0  0  0  0  0  0  0  0  0  0  0
  -38.6033  -64.7131   47.1631 O   0  0  0  0  0  0  0  0  0  0  0  0
  -36.6388  -64.3023   48.8621 C   0  0  0  0  0  0  0  0  0  0  0  0
  -35.4628  -63.3684   48.0691 S   0  0  0  0  0  0  0  0  0  0  0  0
  -34.0675  -63.9656   48.8390 C   0  0  0  0  0  0  0  0  0  0  0  0
  -34.5643  -64.8962   49.7118 C   0  0  0  0  0  0  0  0  0  0  0  0
  -35.9075  -65.0697   49.7221 C   0  0  0  0  0  0  0  0  0  0  0  0
  -32.2172  -63.4792   48.5777 Br  0  0  0  0  0  0  0  0  0  0  0  0
 18 19  2  0  0  0
 18 20  2  0  0  0
 18  1  1  0  0  0
 18 21  1  0  0  0
  1  2  1  0  0  0
  1  6  1  0  0  0
  2  3  1  0  0  0
  3  4  1  0  0  0
  4  5  1  0  0  0
  4  7  1  0  0  0
  5  6  1  0  0  0
  7  8  2  0  0  0
  7 13  1  0  0  0
  8  9  1  0  0  0
  9 10  2  0  0  0
  9 11  1  0  0  0
 11 12  1  0  0  0
 12 13  1  0  0  0
 12 16  2  0  0  0
 13 14  1  0  0  0
 14 15  2  0  0  0
 15 16  1  0  0  0
 21 22  1  0  0  0
 21 25  2  0  0  0
 22 23  1  0  0  0
 23 24  2  0  0  0
 23 26  1  0  0  0
 24 25  1  0  0  0
 11 17  1  0  0  0
M  END
> <minimizedAffinity>
-7.92055

$$$$
1101


 26 29  0  0  0  0  0  0  0  0999 V2000
  -36.8621  -66.0151   48.3260 N   0  0  0  0  0  0  0  0  0  0  0  0
  -37.9271  -65.8654   47.4080 C   0  0  0  0  0  0  0  0  0  0  0  0
  -39.2941  -65.8037   47.9924 C   0  0  0  0  0  0  0  0  0  0  0  0
  -39.3226  -64.9771   49.2096 N   0  0  0  0  0  0  0  0  0  0  0  0
  -38.1060  -64.2346   49.4619 C   0  0  0  0  0  0  0  0  0  0  0  0
  -36.9871  -65.2557   49.5393 C   0  0  0  0  0  0  0  0  0  0  0  0
  -40.4693  -64.9414   50.0360 C   0  0  0  0  0  0  0  0  0  0  0  0
  -40.5066  -65.7553   51.1616 C   0  0  0  0  0  0  0  0  0  0  0  0
  -41.6419  -65.7118   51.9682 C   0  0  0  0  0  0  0  0  0  0  0  0
  -42.6677  -64.9199   51.6845 N   0  0  0  0  0  0  0  0  0  0  0  0
  -43.5954  -65.1024   52.6381 C   0  0  0  0  0  0  0  0  0  0  0  0
  -43.1123  -66.0171   53.5010 N   0  0  0  0  0  0  0  0  0  0  0  0
  -41.9126  -66.3945   53.0942 N   0  0  0  0  0  0  0  0  0  0  0  0
  -44.9255  -64.4186   52.7322 C   0  0  0  0  0  0  0  0  0  0  0  0
  -42.6459  -64.1511   50.6320 N   0  0  0  0  0  0  0  0  0  0  0  0
  -41.5628  -64.1552   49.8115 C   0  0  0  0  0  0  0  0  0  0  0  0
  -36.3265  -67.6101   48.5810 S   0  0  0  0  0  0  0  0  0  0  0  0
  -34.8141  -67.5582   48.7602 O   0  0  0  0  0  0  0  0  0  0  0  0
  -36.5718  -68.4557   47.3670 O   0  0  0  0  0  0  0  0  0  0  0  0
  -36.9695  -68.3335   50.0306 C   0  0  0  0  0  0  0  0  0  0  0  0
  -36.1450  -68.9078   50.9885 C   0  0  0  0  0  0  0  0  0  0  0  0
  -36.6544  -69.4794   52.1333 C   0  0  0  0  0  0  0  0  0  0  0  0
  -38.0267  -69.4762   52.3249 C   0  0  0  0  0  0  0  0  0  0  0  0
  -38.8885  -68.9164   51.4018 C   0  0  0  0  0  0  0  0  0  0  0  0
  -38.3386  -68.3563   50.2722 C   0  0  0  0  0  0  0  0  0  0  0  0
  -38.7184  -70.2753   53.9229 Br  0  0  0  0  0  0  0  0  0  0  0  0
 17 18  2  0  0  0
 17 19  2  0  0  0
 17  1  1  0  0  0
 17 20  1  0  0  0
  1  2  1  0  0  0
  1  6  1  0  0  0
  2  3  1  0  0  0
  3  4  1  0  0  0
  4  5  1  0  0  0
  4  7  1  0  0  0
  5  6  1  0  0  0
  7  8  2  0  0  0
  7 16  1  0  0  0
  8  9  1  0  0  0
  9 10  1  0  0  0
  9 13  2  0  0  0
 10 11  1  0  0  0
 10 15  1  0  0  0
 11 12  2  0  0  0
 11 14  1  0  0  0
 12 13  1  0  0  0
 15 16  2  0  0  0
 20 21  2  0  0  0
 20 25  1  0  0  0
 21 22  1  0  0  0
 22 23  2  0  0  0
 23 24  1  0  0  0
 23 26  1  0  0  0
 24 25  2  0  0  0
M  END
> <minimizedAffinity>
-7.89933

$$$$
1105


 33 36  0  0  0  0  0  0  0  0999 V2000
  -36.3199  -64.7851   47.3609 N   0  0  0  0  0  0  0  0  0  0  0  0
  -35.3264  -64.9113   46.3483 C   0  0  0  0  0  0  0  0  0  0  0  0
  -35.4450  -63.9152   45.2173 C   0  0  0  0  0  0  0  0  0  0  0  0
  -35.6862  -62.5667   45.7364 N   0  0  0  0  0  0  0  0  0  0  0  0
  -36.7182  -62.5262   46.7483 C   0  0  0  0  0  0  0  0  0  0  0  0
  -37.0326  -61.4873   47.3340 O   0  0  0  0  0  0  0  0  0  0  0  0
  -37.3365  -63.8730   46.9850 C   0  0  0  0  0  0  0  0  0  0  0  0
  -35.1984  -61.7220   45.4396 H   0  0  0  0  0  0  0  0  0  0  0  0
  -35.5844  -64.5054   48.8670 S   0  0  0  0  0  0  0  0  0  0  0  0
  -36.3602  -63.6005   49.7705 O   0  0  0  0  0  0  0  0  0  0  0  0
  -34.2194  -63.8522   48.6865 O   0  0  0  0  0  0  0  0  0  0  0  0
  -35.2779  -66.0040   49.7268 C   0  0  0  0  0  0  0  0  0  0  0  0
  -36.2005  -67.0422   49.7682 C   0  0  0  0  0  0  0  0  0  0  0  0
  -35.9855  -68.2158   50.4341 C   0  0  0  0  0  0  0  0  0  0  0  0
  -34.8092  -68.4182   51.1078 C   0  0  0  0  0  0  0  0  0  0  0  0
  -33.8546  -67.3942   51.0878 C   0  0  0  0  0  0  0  0  0  0  0  0
  -34.1048  -66.2264   50.4085 C   0  0  0  0  0  0  0  0  0  0  0  0
  -34.4507  -70.0305   52.0521 Br  0  0  0  0  0  0  0  0  0  0  0  0
  -38.5497  -63.8095   47.8255 C   0  0  0  0  0  0  0  0  0  0  0  0
  -39.0621  -65.1803   48.0625 C   0  0  0  0  0  0  0  0  0  0  0  0
  -39.0219  -65.9741   47.0850 O   0  0  0  0  0  0  0  0  0  0  0  0
  -39.5766  -65.5857   49.3319 N   0  0  0  0  0  0  0  0  0  0  0  0
  -39.6174  -64.6703   50.4394 C   0  0  0  0  0  0  0  0  0  0  0  0
  -40.7329  -64.9252   51.4046 C   0  0  0  0  0  0  0  0  0  0  0  0
  -41.1072  -66.3242   51.5178 N   0  0  0  0  0  0  0  0  0  0  0  0
  -41.3681  -66.9813   50.2459 C   0  0  0  0  0  0  0  0  0  0  0  0
  -40.0570  -66.9334   49.4903 C   0  0  0  0  0  0  0  0  0  0  0  0
  -41.2408  -67.0362   52.7173 C   0  0  0  0  0  0  0  0  0  0  0  0
  -40.2139  -67.8517   53.1383 C   0  0  0  0  0  0  0  0  0  0  0  0
  -40.3548  -68.5658   54.3183 C   0  0  0  0  0  0  0  0  0  0  0  0
  -41.4838  -68.4986   55.0965 C   0  0  0  0  0  0  0  0  0  0  0  0
  -42.5066  -67.6823   54.6720 C   0  0  0  0  0  0  0  0  0  0  0  0
  -42.3729  -66.9649   53.4922 C   0  0  0  0  0  0  0  0  0  0  0  0
  9 10  2  0  0  0
  9 11  2  0  0  0
  9  1  1  0  0  0
  9 12  1  0  0  0
  1  2  1  0  0  0
  1  7  1  0  0  0
  2  3  1  0  0  0
  3  4  1  0  0  0
  4  5  1  0  0  0
  5  6  2  0  0  0
  5  7  1  0  0  0
  7 19  1  0  0  0
 19 20  1  0  0  0
 20 21  2  0  0  0
 20 22  1  0  0  0
 22 23  1  0  0  0
 22 27  1  0  0  0
 23 24  1  0  0  0
 24 25  1  0  0  0
 25 26  1  0  0  0
 25 28  1  0  0  0
 26 27  1  0  0  0
 28 29  2  0  0  0
 28 33  1  0  0  0
 29 30  1  0  0  0
 30 31  2  0  0  0
 31 32  1  0  0  0
 32 33  2  0  0  0
 12 13  2  0  0  0
 12 17  1  0  0  0
 13 14  1  0  0  0
 14 15  2  0  0  0
 15 16  1  0  0  0
 15 18  1  0  0  0
 16 17  2  0  0  0
  4  8  1  0  0  0
M  END
> <minimizedAffinity>
-8.65417

$$$$
1112


 32 35  0  0  0  0  0  0  0  0999 V2000
  -34.4682  -67.8587   50.7408 C   0  0  0  0  0  0  0  0  0  0  0  0
  -36.3921  -64.5604   48.7722 C   0  0  0  0  0  0  0  0  0  0  0  0
  -35.5518  -64.3402   49.8250 C   0  0  0  0  0  0  0  0  0  0  0  0
  -34.9149  -65.3901   50.4800 C   0  0  0  0  0  0  0  0  0  0  0  0
  -35.1041  -66.6841   50.0962 C   0  0  0  0  0  0  0  0  0  0  0  0
  -35.9542  -66.9160   49.0290 C   0  0  0  0  0  0  0  0  0  0  0  0
  -36.5857  -65.8714   48.3792 C   0  0  0  0  0  0  0  0  0  0  0  0
  -37.2127  -63.2596   47.9222 S   0  0  0  0  0  0  0  0  0  0  0  0
  -36.5164  -61.9563   48.1144 O   0  0  0  0  0  0  0  0  0  0  0  0
  -37.1300  -63.5984   46.4476 O   0  0  0  0  0  0  0  0  0  0  0  0
  -38.8680  -63.1581   48.3314 N   0  0  0  0  0  0  0  0  0  0  0  0
  -39.1756  -63.7520   49.6059 C   0  0  0  0  0  0  0  0  0  0  0  0
  -40.6836  -64.0189   49.6098 C   0  0  0  0  0  0  0  0  0  0  0  0
  -40.9846  -65.1003   48.8104 O   0  0  0  0  0  0  0  0  0  0  0  0
  -39.9811  -65.2401   47.8352 C   0  0  0  0  0  0  0  0  0  0  0  0
  -39.6660  -63.8402   47.3295 C   0  0  0  0  0  0  0  0  0  0  0  0
  -35.2552  -69.0230   50.6223 O   0  0  0  0  0  0  0  0  0  0  0  0
  -36.2099  -69.4246   51.5245 C   0  0  0  0  0  0  0  0  0  0  0  0
  -35.9396  -69.4173   52.7415 O   0  0  0  0  0  0  0  0  0  0  0  0
  -37.5310  -69.8590   51.0778 C   0  0  0  0  0  0  0  0  0  0  0  0
  -38.6095  -69.3057   51.8428 N   0  0  0  0  0  0  0  0  0  0  0  0
  -39.3323  -68.1346   51.4421 C   0  0  0  0  0  0  0  0  0  0  0  0
  -39.1216  -67.4578   50.3954 O   0  0  0  0  0  0  0  0  0  0  0  0
  -40.3577  -67.8439   52.4372 C   0  0  0  0  0  0  0  0  0  0  0  0
  -40.2880  -68.7886   53.4273 C   0  0  0  0  0  0  0  0  0  0  0  0
  -41.1559  -68.7448   54.5017 C   0  0  0  0  0  0  0  0  0  0  0  0
  -42.1112  -67.7514   54.6034 C   0  0  0  0  0  0  0  0  0  0  0  0
  -42.1923  -66.7937   53.6145 C   0  0  0  0  0  0  0  0  0  0  0  0
  -41.3132  -66.8605   52.5535 C   0  0  0  0  0  0  0  0  0  0  0  0
  -43.4925  -65.4029   53.7110 Br  0  0  0  0  0  0  0  0  0  0  0  0
  -39.1972  -69.7112   53.0673 C   0  0  0  0  0  0  0  0  0  0  0  0
  -38.8223  -70.7095   53.7213 O   0  0  0  0  0  0  0  0  0  0  0  0
  8  9  2  0  0  0
  8 10  2  0  0  0
  8 11  1  0  0  0
  8  2  1  0  0  0
 11 12  1  0  0  0
 11 16  1  0  0  0
 12 13  1  0  0  0
 13 14  1  0  0  0
 14 15  1  0  0  0
 15 16  1  0  0  0
  2  3  2  0  0  0
  2  7  1  0  0  0
  3  4  1  0  0  0
  4  5  2  0  0  0
  5  6  1  0  0  0
  5  1  1  0  0  0
  6  7  2  0  0  0
  1 17  1  0  0  0
 17 18  1  0  0  0
 18 19  2  0  0  0
 18 20  1  0  0  0
 20 21  1  0  0  0
 21 22  1  0  0  0
 21 31  1  0  0  0
 22 23  2  0  0  0
 22 24  1  0  0  0
 24 25  2  0  0  0
 24 29  1  0  0  0
 25 26  1  0  0  0
 25 31  1  0  0  0
 26 27  2  0  0  0
 27 28  1  0  0  0
 28 29  2  0  0  0
 28 30  1  0  0  0
 31 32  2  0  0  0
M  END
> <minimizedAffinity>
-8.43072

$$$$
1113


 28 31  0  0  0  0  0  0  0  0999 V2000
  -37.0981  -65.6928   47.8754 C   0  0  0  0  0  0  0  0  0  0  0  0
  -36.8843  -64.5852   47.1455 N   0  0  0  0  0  0  0  0  0  0  0  0
  -38.0231  -63.8469   47.1244 C   0  0  0  0  0  0  0  0  0  0  0  0
  -38.9716  -64.4758   47.8393 N   0  0  0  0  0  0  0  0  0  0  0  0
  -38.4271  -65.5923   48.2999 C   0  0  0  0  0  0  0  0  0  0  0  0
  -35.9727  -66.9841   48.2264 S   0  0  0  0  0  0  0  0  0  0  0  0
  -36.2182  -68.0999   47.2189 O   0  0  0  0  0  0  0  0  0  0  0  0
  -34.5599  -66.5092   47.9505 O   0  0  0  0  0  0  0  0  0  0  0  0
  -36.1098  -67.6258   49.7680 N   0  0  0  0  0  0  0  0  0  0  0  0
  -37.3205  -68.2316   50.1368 C   0  0  0  0  0  0  0  0  0  0  0  0
  -37.0801  -69.5316   50.8457 C   0  0  0  0  0  0  0  0  0  0  0  0
  -36.2752  -69.2691   51.9406 O   0  0  0  0  0  0  0  0  0  0  0  0
  -34.9948  -68.8703   51.5786 C   0  0  0  0  0  0  0  0  0  0  0  0
  -34.9545  -67.8269   50.5299 C   0  0  0  0  0  0  0  0  0  0  0  0
  -40.3190  -63.9829   48.0405 C   0  0  0  0  0  0  0  0  0  0  0  0
  -40.7992  -64.2506   49.4169 C   0  0  0  0  0  0  0  0  0  0  0  0
  -40.4118  -63.5681   50.5264 N   0  0  0  0  0  0  0  0  0  0  0  0
  -41.0339  -64.0734   51.5480 O   0  0  0  0  0  0  0  0  0  0  0  0
  -41.8183  -65.0584   51.1905 C   0  0  0  0  0  0  0  0  0  0  0  0
  -41.6681  -65.1679   49.8457 N   0  0  0  0  0  0  0  0  0  0  0  0
  -42.7016  -65.9009   52.0523 C   0  0  0  0  0  0  0  0  0  0  0  0
  -41.8368  -66.9529   52.6555 C   0  0  0  0  0  0  0  0  0  0  0  0
  -40.9629  -67.6413   51.8287 C   0  0  0  0  0  0  0  0  0  0  0  0
  -40.1308  -68.6239   52.2968 C   0  0  0  0  0  0  0  0  0  0  0  0
  -40.1733  -68.9267   53.6306 C   0  0  0  0  0  0  0  0  0  0  0  0
  -41.0139  -68.2807   54.4830 C   0  0  0  0  0  0  0  0  0  0  0  0
  -41.8484  -67.2863   53.9799 C   0  0  0  0  0  0  0  0  0  0  0  0
  -39.0297  -70.2896   54.3191 Br  0  0  0  0  0  0  0  0  0  0  0  0
  6  7  2  0  0  0
  6  8  2  0  0  0
  6  9  1  0  0  0
  6  1  1  0  0  0
  9 10  1  0  0  0
  9 14  1  0  0  0
 10 11  1  0  0  0
 11 12  1  0  0  0
 12 13  1  0  0  0
 13 14  1  0  0  0
  1  2  1  0  0  0
  1  5  2  0  0  0
  2  3  2  0  0  0
  3  4  1  0  0  0
  4  5  1  0  0  0
  4 15  1  0  0  0
 15 16  1  0  0  0
 16 17  2  0  0  0
 16 20  1  0  0  0
 17 18  1  0  0  0
 18 19  1  0  0  0
 19 20  2  0  0  0
 19 21  1  0  0  0
 21 22  1  0  0  0
 22 23  2  0  0  0
 22 27  1  0  0  0
 23 24  1  0  0  0
 24 25  2  0  0  0
 25 26  1  0  0  0
 25 28  1  0  0  0
 26 27  2  0  0  0
M  END
> <minimizedAffinity>
-7.92726

$$$$
1114


 27 30  0  0  0  0  0  0  0  0999 V2000
  -36.9007  -65.5792   48.5623 C   0  0  0  0  0  0  0  0  0  0  0  0
  -37.7083  -65.9295   47.5460 N   0  0  0  0  0  0  0  0  0  0  0  0
  -38.9083  -65.3497   47.7340 C   0  0  0  0  0  0  0  0  0  0  0  0
  -38.9048  -64.6227   48.8609 N   0  0  0  0  0  0  0  0  0  0  0  0
  -37.6711  -64.7622   49.3722 C   0  0  0  0  0  0  0  0  0  0  0  0
  -35.2170  -66.0596   48.8084 S   0  0  0  0  0  0  0  0  0  0  0  0
  -34.5651  -66.1041   47.4523 O   0  0  0  0  0  0  0  0  0  0  0  0
  -34.4858  -65.0424   49.6235 O   0  0  0  0  0  0  0  0  0  0  0  0
  -35.1165  -67.6158   49.5103 N   0  0  0  0  0  0  0  0  0  0  0  0
  -36.3651  -68.2499   49.7158 C   0  0  0  0  0  0  0  0  0  0  0  0
  -36.4957  -69.0931   50.9412 C   0  0  0  0  0  0  0  0  0  0  0  0
  -35.2400  -69.7049   51.1619 O   0  0  0  0  0  0  0  0  0  0  0  0
  -34.4320  -68.6705   51.6432 C   0  0  0  0  0  0  0  0  0  0  0  0
  -34.1354  -67.7343   50.5263 C   0  0  0  0  0  0  0  0  0  0  0  0
  -40.0063  -63.8526   49.4009 C   0  0  0  0  0  0  0  0  0  0  0  0
  -40.6695  -64.5254   50.5413 C   0  0  0  0  0  0  0  0  0  0  0  0
  -41.7162  -64.0238   51.2236 N   0  0  0  0  0  0  0  0  0  0  0  0
  -42.0451  -64.8666   52.1553 O   0  0  0  0  0  0  0  0  0  0  0  0
  -41.2676  -65.9144   52.1323 C   0  0  0  0  0  0  0  0  0  0  0  0
  -40.4060  -65.7048   51.1239 N   0  0  0  0  0  0  0  0  0  0  0  0
  -41.3588  -67.0583   53.0410 C   0  0  0  0  0  0  0  0  0  0  0  0
  -40.3300  -67.9667   53.1779 C   0  0  0  0  0  0  0  0  0  0  0  0
  -40.4316  -69.0504   54.0473 C   0  0  0  0  0  0  0  0  0  0  0  0
  -41.5656  -69.2510   54.8018 C   0  0  0  0  0  0  0  0  0  0  0  0
  -42.5952  -68.3449   54.6675 C   0  0  0  0  0  0  0  0  0  0  0  0
  -42.4910  -67.2592   53.7943 C   0  0  0  0  0  0  0  0  0  0  0  0
  -38.9933  -70.2983   54.2217 Br  0  0  0  0  0  0  0  0  0  0  0  0
  6  7  2  0  0  0
  6  8  2  0  0  0
  6  9  1  0  0  0
  6  1  1  0  0  0
  9 10  1  0  0  0
  9 14  1  0  0  0
 10 11  1  0  0  0
 11 12  1  0  0  0
 12 13  1  0  0  0
 13 14  1  0  0  0
  1  2  1  0  0  0
  1  5  2  0  0  0
  2  3  2  0  0  0
  3  4  1  0  0  0
  4  5  1  0  0  0
  4 15  1  0  0  0
 15 16  1  0  0  0
 16 17  2  0  0  0
 16 20  1  0  0  0
 17 18  1  0  0  0
 18 19  1  0  0  0
 19 20  2  0  0  0
 19 21  1  0  0  0
 21 22  2  0  0  0
 21 26  1  0  0  0
 22 23  1  0  0  0
 23 24  2  0  0  0
 23 27  1  0  0  0
 24 25  1  0  0  0
 25 26  2  0  0  0
M  END
> <minimizedAffinity>
-8.26762

$$$$
1130


 29 32  0  0  0  0  0  0  0  0999 V2000
  -37.8166  -67.9396   50.2163 C   0  0  0  0  0  0  0  0  0  0  0  0
  -38.6962  -66.9619   49.9388 N   0  0  0  0  0  0  0  0  0  0  0  0
  -39.7868  -66.7297   50.6515 N   0  0  0  0  0  0  0  0  0  0  0  0
  -40.0855  -67.4861   51.7292 C   0  0  0  0  0  0  0  0  0  0  0  0
  -39.1969  -68.4971   52.0334 C   0  0  0  0  0  0  0  0  0  0  0  0
  -39.6971  -69.1034   53.1286 N   0  0  0  0  0  0  0  0  0  0  0  0
  -40.8444  -68.5263   53.5207 C   0  0  0  0  0  0  0  0  0  0  0  0
  -41.1197  -67.4940   52.6499 C   0  0  0  0  0  0  0  0  0  0  0  0
  -42.2412  -66.6878   52.7736 C   0  0  0  0  0  0  0  0  0  0  0  0
  -43.0963  -66.9634   53.8260 C   0  0  0  0  0  0  0  0  0  0  0  0
  -42.8452  -67.9917   54.7113 C   0  0  0  0  0  0  0  0  0  0  0  0
  -41.7271  -68.7777   54.5703 C   0  0  0  0  0  0  0  0  0  0  0  0
  -44.6439  -65.8519   53.9962 Br  0  0  0  0  0  0  0  0  0  0  0  0
  -39.0515  -70.2307   53.7720 C   0  0  0  0  0  0  0  0  0  0  0  0
  -38.0777  -68.7166   51.2812 N   0  0  0  0  0  0  0  0  0  0  0  0
  -36.3493  -68.1954   49.1967 S   0  0  0  0  0  0  0  0  0  0  0  0
  -35.0110  -67.1755   49.8717 C   0  0  0  0  0  0  0  0  0  0  0  0
  -35.3498  -65.7412   49.6432 C   0  0  0  0  0  0  0  0  0  0  0  0
  -34.9660  -64.8420   50.4571 O   0  0  0  0  0  0  0  0  0  0  0  0
  -36.1037  -65.3293   48.5248 N   0  0  0  0  0  0  0  0  0  0  0  0
  -36.4259  -66.0550   47.8493 H   0  0  0  0  0  0  0  0  0  0  0  0
  -36.4235  -63.9670   48.3087 C   0  0  0  0  0  0  0  0  0  0  0  0
  -35.6823  -63.0285   47.6970 N   0  0  0  0  0  0  0  0  0  0  0  0
  -36.3111  -61.8854   47.6892 O   0  0  0  0  0  0  0  0  0  0  0  0
  -37.4433  -62.0595   48.2815 N   0  0  0  0  0  0  0  0  0  0  0  0
  -37.5930  -63.3233   48.6978 C   0  0  0  0  0  0  0  0  0  0  0  0
  -38.7079  -63.8566   49.3799 N   0  0  0  0  0  0  0  0  0  0  0  0
  -38.9701  -64.8485   49.2282 H   0  0  0  0  0  0  0  0  0  0  0  0
  -39.2861  -63.2944   50.0368 H   0  0  0  0  0  0  0  0  0  0  0  0
 16 17  1  0  0  0
 16  1  1  0  0  0
 17 18  1  0  0  0
 18 19  2  0  0  0
 18 20  1  0  0  0
 20 22  1  0  0  0
 22 23  2  0  0  0
 22 26  1  0  0  0
 23 24  1  0  0  0
 24 25  1  0  0  0
 25 26  2  0  0  0
 26 27  1  0  0  0
  1  2  2  0  0  0
  1 15  1  0  0  0
  2  3  1  0  0  0
  3  4  2  0  0  0
  4  5  1  0  0  0
  4  8  1  0  0  0
  5  6  1  0  0  0
  5 15  2  0  0  0
  6  7  1  0  0  0
  6 14  1  0  0  0
  7  8  2  0  0  0
  7 12  1  0  0  0
  8  9  1  0  0  0
  9 10  2  0  0  0
 10 11  1  0  0  0
 10 13  1  0  0  0
 11 12  2  0  0  0
 20 21  1  0  0  0
 27 28  1  0  0  0
 27 29  1  0  0  0
M  END
> <minimizedAffinity>
-7.85130

$$$$
1133


 35 38  0  0  0  0  0  0  0  0999 V2000
  -39.8759  -68.2254   51.6927 C   0  0  0  0  0  0  0  0  0  0  0  0
  -40.7110  -67.1919   51.5864 N   0  0  0  0  0  0  0  0  0  0  0  0
  -41.5396  -67.2460   52.6628 C   0  0  0  0  0  0  0  0  0  0  0  0
  -42.6126  -66.5817   53.1190 N   0  0  0  0  0  0  0  0  0  0  0  0
  -43.3158  -66.8869   54.2147 C   0  0  0  0  0  0  0  0  0  0  0  0
  -42.9029  -67.9817   54.9622 N   0  0  0  0  0  0  0  0  0  0  0  0
  -41.8659  -68.6914   54.5930 C   0  0  0  0  0  0  0  0  0  0  0  0
  -41.1588  -68.3641   53.4537 C   0  0  0  0  0  0  0  0  0  0  0  0
  -40.1426  -68.9219   52.8072 N   0  0  0  0  0  0  0  0  0  0  0  0
  -41.4105  -69.7760   55.2997 O   0  0  0  0  0  0  0  0  0  0  0  0
  -44.4912  -66.1931   54.6600 N   0  0  0  0  0  0  0  0  0  0  0  0
  -40.5260  -69.7953   55.7945 H   0  0  0  0  0  0  0  0  0  0  0  0
  -44.5749  -65.5899   55.4754 H   0  0  0  0  0  0  0  0  0  0  0  0
  -45.3933  -66.3577   54.0914 H   0  0  0  0  0  0  0  0  0  0  0  0
  -40.7856  -66.1507   50.6131 C   0  0  0  0  0  0  0  0  0  0  0  0
  -39.9130  -66.3253   49.5164 O   0  0  0  0  0  0  0  0  0  0  0  0
  -40.1061  -65.0782   48.8789 C   0  0  0  0  0  0  0  0  0  0  0  0
  -39.6593  -64.1731   50.0566 C   0  0  0  0  0  0  0  0  0  0  0  0
  -40.6102  -64.7526   51.1120 C   0  0  0  0  0  0  0  0  0  0  0  0
  -41.8180  -64.0150   51.0147 O   0  0  0  0  0  0  0  0  0  0  0  0
  -39.8763  -62.8446   49.8099 O   0  0  0  0  0  0  0  0  0  0  0  0
  -41.6368  -63.1915   51.5202 H   0  0  0  0  0  0  0  0  0  0  0  0
  -39.1139  -62.3083   50.1350 H   0  0  0  0  0  0  0  0  0  0  0  0
  -39.2450  -64.9141   47.6847 C   0  0  0  0  0  0  0  0  0  0  0  0
  -38.8671  -66.1610   47.1717 O   0  0  0  0  0  0  0  0  0  0  0  0
  -39.1640  -66.8549   47.8371 H   0  0  0  0  0  0  0  0  0  0  0  0
  -38.6287  -68.7065   50.4903 S   0  0  0  0  0  0  0  0  0  0  0  0
  -37.0370  -69.1016   51.3381 C   0  0  0  0  0  0  0  0  0  0  0  0
  -35.9634  -68.2316   50.8061 C   0  0  0  0  0  0  0  0  0  0  0  0
  -34.6359  -68.3493   51.1374 C   0  0  0  0  0  0  0  0  0  0  0  0
  -33.7084  -67.4516   50.7364 C   0  0  0  0  0  0  0  0  0  0  0  0
  -34.0493  -66.3550   49.9531 C   0  0  0  0  0  0  0  0  0  0  0  0
  -35.3971  -66.2022   49.5989 C   0  0  0  0  0  0  0  0  0  0  0  0
  -36.3352  -67.1252   50.0185 C   0  0  0  0  0  0  0  0  0  0  0  0
  -34.1540  -69.9375   52.0879 Br  0  0  0  0  0  0  0  0  0  0  0  0
 27 28  1  0  0  0
 27  1  1  0  0  0
 28 29  1  0  0  0
 29 30  2  0  0  0
 29 34  1  0  0  0
 30 31  1  0  0  0
 30 35  1  0  0  0
 31 32  2  0  0  0
 32 33  1  0  0  0
 33 34  2  0  0  0
  1  2  1  0  0  0
  1  9  2  0  0  0
  2  3  1  0  0  0
  2 15  1  0  0  0
  3  4  2  0  0  0
  3  8  1  0  0  0
  4  5  1  0  0  0
  5  6  2  0  0  0
  5 11  1  0  0  0
  6  7  1  0  0  0
  7  8  2  0  0  0
  7 10  1  0  0  0
  8  9  1  0  0  0
 15 16  1  0  0  0
 15 19  1  0  0  0
 16 17  1  0  0  0
 17 18  1  0  0  0
 17 24  1  0  0  0
 18 19  1  0  0  0
 18 21  1  0  0  0
 19 20  1  0  0  0
 24 25  1  0  0  0
 10 12  1  0  0  0
 11 13  1  0  0  0
 11 14  1  0  0  0
 20 22  1  0  0  0
 21 23  1  0  0  0
 25 26  1  0  0  0
M  END
> <minimizedAffinity>
-9.10772

$$$$
1143


 33 37  0  0  0  0  0  0  0  0999 V2000
  -33.6544  -64.8989   47.1396 C   0  0  0  0  0  0  0  0  0  0  0  0
  -32.2961  -64.3998   47.3037 N   0  0  0  0  0  0  0  0  0  0  0  0
  -32.2670  -63.3564   48.3142 C   0  0  0  0  0  0  0  0  0  0  0  0
  -33.6260  -62.8303   48.6959 C   0  0  0  0  0  0  0  0  0  0  0  0
  -34.4354  -62.6709   47.4353 C   0  0  0  0  0  0  0  0  0  0  0  0
  -34.4244  -63.8006   46.5826 C   0  0  0  0  0  0  0  0  0  0  0  0
  -35.1078  -63.7522   45.3994 C   0  0  0  0  0  0  0  0  0  0  0  0
  -35.7921  -62.5786   45.0916 C   0  0  0  0  0  0  0  0  0  0  0  0
  -35.7894  -61.4947   45.9375 C   0  0  0  0  0  0  0  0  0  0  0  0
  -35.1017  -61.5274   47.1365 C   0  0  0  0  0  0  0  0  0  0  0  0
  -36.5476  -60.4939   45.3658 O   0  0  0  0  0  0  0  0  0  0  0  0
  -36.7993  -60.8301   44.0236 C   0  0  0  0  0  0  0  0  0  0  0  0
  -36.5507  -62.2357   44.0055 O   0  0  0  0  0  0  0  0  0  0  0  0
  -31.6970  -63.8948   46.1166 C   0  0  0  0  0  0  0  0  0  0  0  0
  -31.7271  -65.1956   47.6607 H   0  0  0  0  0  0  0  0  0  0  0  0
  -33.8486  -67.3733   51.1105 S   0  0  0  0  0  0  0  0  0  0  0  0
  -33.7745  -67.2252   49.3319 C   0  0  0  0  0  0  0  0  0  0  0  0
  -32.6662  -67.1100   48.6951 N   0  0  0  0  0  0  0  0  0  0  0  0
  -32.5304  -66.9892   47.2889 C   0  0  0  0  0  0  0  0  0  0  0  0
  -31.5723  -67.4221   46.6432 O   0  0  0  0  0  0  0  0  0  0  0  0
  -33.7065  -66.2548   46.6089 C   0  0  0  0  0  0  0  0  0  0  0  0
  -34.8471  -67.0886   47.0960 C   0  0  0  0  0  0  0  0  0  0  0  0
  -35.6803  -67.6645   46.3940 O   0  0  0  0  0  0  0  0  0  0  0  0
  -34.9613  -67.2177   48.5054 N   0  0  0  0  0  0  0  0  0  0  0  0
  -36.2286  -67.3415   49.0828 C   0  0  0  0  0  0  0  0  0  0  0  0
  -37.0682  -66.2213   49.0473 C   0  0  0  0  0  0  0  0  0  0  0  0
  -38.3320  -66.2671   49.5952 C   0  0  0  0  0  0  0  0  0  0  0  0
  -38.7736  -67.4444   50.1909 C   0  0  0  0  0  0  0  0  0  0  0  0
  -37.9266  -68.5597   50.2209 C   0  0  0  0  0  0  0  0  0  0  0  0
  -36.6693  -68.4954   49.6690 C   0  0  0  0  0  0  0  0  0  0  0  0
  -40.4971  -67.5489   50.9527 Br  0  0  0  0  0  0  0  0  0  0  0  0
  -35.1241  -64.8269   44.5215 O   0  0  0  0  0  0  0  0  0  0  0  0
  -34.3149  -64.7699   43.3518 C   0  0  0  0  0  0  0  0  0  0  0  0
 16 17  1  0  0  0
 17 18  2  0  0  0
 17 24  1  0  0  0
 18 19  1  0  0  0
 19 20  2  0  0  0
 19 21  1  0  0  0
 21 22  1  0  0  0
 21  1  1  0  0  0
 22 23  2  0  0  0
 22 24  1  0  0  0
 24 25  1  0  0  0
 25 26  2  0  0  0
 25 30  1  0  0  0
 26 27  1  0  0  0
 27 28  2  0  0  0
 28 29  1  0  0  0
 28 31  1  0  0  0
 29 30  2  0  0  0
  1  2  1  0  0  0
  1  6  1  0  0  0
  2  3  1  0  0  0
  2 14  1  0  0  0
  3  4  1  0  0  0
  4  5  1  0  0  0
  5  6  2  0  0  0
  5 10  1  0  0  0
  6  7  1  0  0  0
  7  8  2  0  0  0
  7 32  1  0  0  0
  8  9  1  0  0  0
  8 13  1  0  0  0
  9 10  2  0  0  0
  9 11  1  0  0  0
 11 12  1  0  0  0
 12 13  1  0  0  0
 32 33  1  0  0  0
  2 15  1  0  0  0
M  CHG 1   2   1
M  END
> <minimizedAffinity>
-6.32669

$$$$
1151


 24 27  0  0  0  0  0  0  0  0999 V2000
  -48.6548  -65.5343   52.6678 S   0  0  0  0  0  0  0  0  0  0  0  0
  -49.5538  -65.6629   51.4726 O   0  0  0  0  0  0  0  0  0  0  0  0
  -49.3919  -65.7976   53.9513 O   0  0  0  0  0  0  0  0  0  0  0  0
  -47.2485  -66.6179   52.5414 C   0  0  0  0  0  0  0  0  0  0  0  0
  -46.1555  -65.9776   53.3721 C   0  0  0  0  0  0  0  0  0  0  0  0
  -45.6994  -64.7791   52.6974 N   0  0  0  0  0  0  0  0  0  0  0  0
  -46.6356  -63.9291   51.9921 C   0  0  0  0  0  0  0  0  0  0  0  0
  -47.9613  -63.8770   52.7543 C   0  0  0  0  0  0  0  0  0  0  0  0
  -44.2960  -64.7379   52.9215 C   0  0  0  0  0  0  0  0  0  0  0  0
  -43.5329  -63.7330   52.7206 O   0  0  0  0  0  0  0  0  0  0  0  0
  -43.8286  -65.9866   53.4143 N   0  0  0  0  0  0  0  0  0  0  0  0
  -44.9683  -66.8291   53.4980 C   0  0  0  0  0  0  0  0  0  0  0  0
  -44.9796  -68.0859   53.6527 O   0  0  0  0  0  0  0  0  0  0  0  0
  -42.4670  -66.3582   53.7688 C   0  0  0  0  0  0  0  0  0  0  0  0
  -42.4523  -67.4688   54.8046 C   0  0  0  0  0  0  0  0  0  0  0  0
  -40.9803  -67.6925   55.1576 C   0  0  0  0  0  0  0  0  0  0  0  0
  -40.3732  -68.2186   53.9911 O   0  0  0  0  0  0  0  0  0  0  0  0
  -40.7357  -67.7550   52.7314 C   0  0  0  0  0  0  0  0  0  0  0  0
  -41.7482  -66.8511   52.5790 C   0  0  0  0  0  0  0  0  0  0  0  0
  -42.1052  -66.3953   51.3404 C   0  0  0  0  0  0  0  0  0  0  0  0
  -41.4245  -66.8657   50.2434 C   0  0  0  0  0  0  0  0  0  0  0  0
  -40.4094  -67.7732   50.4118 C   0  0  0  0  0  0  0  0  0  0  0  0
  -40.0249  -68.2540   51.6504 C   0  0  0  0  0  0  0  0  0  0  0  0
  -38.6167  -69.5118   51.8699 Br  0  0  0  0  0  0  0  0  0  0  0  0
  1  2  2  0  0  0
  1  3  2  0  0  0
  1  4  1  0  0  0
  1  8  1  0  0  0
  4  5  1  0  0  0
  5  6  1  0  0  0
  5 12  1  0  0  0
  6  7  1  0  0  0
  6  9  1  0  0  0
  7  8  1  0  0  0
  9 10  2  0  0  0
  9 11  1  0  0  0
 11 12  1  0  0  0
 11 14  1  0  0  0
 12 13  2  0  0  0
 14 15  1  0  0  0
 14 19  1  0  0  0
 15 16  1  0  0  0
 16 17  1  0  0  0
 17 18  1  0  0  0
 18 19  2  0  0  0
 18 23  1  0  0  0
 19 20  1  0  0  0
 20 21  2  0  0  0
 21 22  1  0  0  0
 22 23  2  0  0  0
 23 24  1  0  0  0
M  END
> <minimizedAffinity>
-7.82836

$$$$
1157


 24 27  0  0  0  0  0  0  0  0999 V2000
  -39.4953  -69.9636   52.7899 C   0  0  0  0  0  0  0  0  0  0  0  0
  -40.9801  -69.7636   52.9559 C   0  0  0  0  0  0  0  0  0  0  0  0
  -41.0249  -68.7202   53.9693 N   0  0  0  0  0  0  0  0  0  0  0  0
  -40.0902  -69.1390   54.9863 C   0  0  0  0  0  0  0  0  0  0  0  0
  -39.0288  -69.9146   54.2291 C   0  0  0  0  0  0  0  0  0  0  0  0
  -41.8471  -67.5435   53.9141 C   0  0  0  0  0  0  0  0  0  0  0  0
  -42.8467  -67.3518   54.7954 N   0  0  0  0  0  0  0  0  0  0  0  0
  -43.6000  -66.2410   54.7179 C   0  0  0  0  0  0  0  0  0  0  0  0
  -43.3870  -65.2813   53.7618 C   0  0  0  0  0  0  0  0  0  0  0  0
  -42.3928  -65.4570   52.8750 N   0  0  0  0  0  0  0  0  0  0  0  0
  -41.6444  -66.5742   52.9614 C   0  0  0  0  0  0  0  0  0  0  0  0
  -40.7494  -66.4687   51.9601 N   0  0  0  0  0  0  0  0  0  0  0  0
  -40.9251  -65.3478   51.2815 N   0  0  0  0  0  0  0  0  0  0  0  0
  -41.9570  -64.6956   51.8428 C   0  0  0  0  0  0  0  0  0  0  0  0
  -37.9880  -69.0361   51.0128 C   0  0  0  0  0  0  0  0  0  0  0  0
  -37.6786  -70.1706   50.5722 O   0  0  0  0  0  0  0  0  0  0  0  0
  -38.8729  -68.8447   52.0978 N   0  0  0  0  0  0  0  0  0  0  0  0
  -39.0737  -67.8651   52.3982 H   0  0  0  0  0  0  0  0  0  0  0  0
  -38.0817  -66.6891   49.3395 S   0  0  0  0  0  0  0  0  0  0  0  0
  -37.3639  -67.8851   50.3212 C   0  0  0  0  0  0  0  0  0  0  0  0
  -36.0419  -67.5231   50.3216 C   0  0  0  0  0  0  0  0  0  0  0  0
  -35.6955  -66.4392   49.6239 C   0  0  0  0  0  0  0  0  0  0  0  0
  -36.6948  -65.7740   48.9611 C   0  0  0  0  0  0  0  0  0  0  0  0
  -33.8788  -65.7700   49.5027 Br  0  0  0  0  0  0  0  0  0  0  0  0
 19 20  1  0  0  0
 19 23  1  0  0  0
 20 21  2  0  0  0
 20 15  1  0  0  0
 21 22  1  0  0  0
 22 23  2  0  0  0
 22 24  1  0  0  0
 15 16  2  0  0  0
 15 17  1  0  0  0
 17  1  1  0  0  0
  1  2  1  0  0  0
  1  5  1  0  0  0
  2  3  1  0  0  0
  3  4  1  0  0  0
  3  6  1  0  0  0
  4  5  1  0  0  0
  6  7  2  0  0  0
  6 11  1  0  0  0
  7  8  1  0  0  0
  8  9  2  0  0  0
  9 10  1  0  0  0
 10 11  1  0  0  0
 10 14  1  0  0  0
 11 12  2  0  0  0
 12 13  1  0  0  0
 13 14  2  0  0  0
 17 18  1  0  0  0
M  END
> <minimizedAffinity>
-7.32946

$$$$
1160


 25 28  0  0  0  0  0  0  0  0999 V2000
  -38.9383  -68.3313   50.9998 C   0  0  0  0  0  0  0  0  0  0  0  0
  -38.0386  -67.6831   50.2379 N   0  0  0  0  0  0  0  0  0  0  0  0
  -36.8034  -68.1588   50.4723 C   0  0  0  0  0  0  0  0  0  0  0  0
  -36.9704  -69.1168   51.3993 N   0  0  0  0  0  0  0  0  0  0  0  0
  -38.2474  -69.2014   51.6975 O   0  0  0  0  0  0  0  0  0  0  0  0
  -35.5376  -67.7444   49.8672 C   0  0  0  0  0  0  0  0  0  0  0  0
  -35.3305  -67.4732   48.5676 N   0  0  0  0  0  0  0  0  0  0  0  0
  -34.0544  -67.1257   48.3692 N   0  0  0  0  0  0  0  0  0  0  0  0
  -33.4180  -67.1707   49.5612 C   0  0  0  0  0  0  0  0  0  0  0  0
  -34.3499  -67.5542   50.4651 N   0  0  0  0  0  0  0  0  0  0  0  0
  -33.4486  -66.7610   47.0996 C   0  0  0  0  0  0  0  0  0  0  0  0
  -33.8954  -67.7234   46.0701 C   0  0  0  0  0  0  0  0  0  0  0  0
  -33.1538  -68.6908   45.7913 O   0  0  0  0  0  0  0  0  0  0  0  0
  -35.1397  -67.5414   45.4226 N   0  0  0  0  0  0  0  0  0  0  0  0
  -35.8004  -68.3488   45.2512 H   0  0  0  0  0  0  0  0  0  0  0  0
  -35.4884  -66.6151   45.0761 H   0  0  0  0  0  0  0  0  0  0  0  0
  -40.8193  -66.7285   51.5856 C   0  0  0  0  0  0  0  0  0  0  0  0
  -40.4268  -68.1123   51.0497 C   0  0  0  0  0  0  0  0  0  0  0  0
  -41.0379  -67.0801   50.1810 C   0  0  0  0  0  0  0  0  0  0  0  0
  -43.4849  -67.1466   54.3990 S   0  0  0  0  0  0  0  0  0  0  0  0
  -44.2434  -66.4317   53.0575 C   0  0  0  0  0  0  0  0  0  0  0  0
  -43.2333  -66.3278   52.1373 C   0  0  0  0  0  0  0  0  0  0  0  0
  -42.0171  -66.7826   52.5163 C   0  0  0  0  0  0  0  0  0  0  0  0
  -41.9097  -67.3018   53.7755 C   0  0  0  0  0  0  0  0  0  0  0  0
  -46.0812  -65.8822   52.8373 Br  0  0  0  0  0  0  0  0  0  0  0  0
 20 21  1  0  0  0
 20 24  1  0  0  0
 21 22  2  0  0  0
 21 25  1  0  0  0
 22 23  1  0  0  0
 23 24  2  0  0  0
 23 17  1  0  0  0
 17 18  1  0  0  0
 17 19  1  0  0  0
 18 19  1  0  0  0
 18  1  1  0  0  0
  1  2  2  0  0  0
  1  5  1  0  0  0
  2  3  1  0  0  0
  3  4  2  0  0  0
  3  6  1  0  0  0
  4  5  1  0  0  0
  6  7  2  0  0  0
  6 10  1  0  0  0
  7  8  1  0  0  0
  8  9  1  0  0  0
  8 11  1  0  0  0
  9 10  2  0  0  0
 11 12  1  0  0  0
 12 13  2  0  0  0
 12 14  1  0  0  0
 14 15  1  0  0  0
 14 16  1  0  0  0
M  END
> <minimizedAffinity>
-7.30580

$$$$
1161


 29 32  0  0  0  0  0  0  0  0999 V2000
  -38.8067  -68.5974   51.3175 N   0  0  0  0  0  0  0  0  0  0  0  0
  -39.2762  -68.8213   52.5680 C   0  0  0  0  0  0  0  0  0  0  0  0
  -40.1834  -67.8606   52.8980 C   0  0  0  0  0  0  0  0  0  0  0  0
  -40.8061  -67.8782   54.1328 C   0  0  0  0  0  0  0  0  0  0  0  0
  -40.4960  -68.8804   55.0234 C   0  0  0  0  0  0  0  0  0  0  0  0
  -39.5868  -69.8597   54.7150 C   0  0  0  0  0  0  0  0  0  0  0  0
  -38.9846  -69.8131   53.4774 C   0  0  0  0  0  0  0  0  0  0  0  0
  -40.2706  -67.0400   51.8466 N   0  0  0  0  0  0  0  0  0  0  0  0
  -39.4234  -67.4963   50.8801 C   0  0  0  0  0  0  0  0  0  0  0  0
  -39.3151  -66.8697   49.7679 N   0  0  0  0  0  0  0  0  0  0  0  0
  -38.7229  -67.0826   48.9673 H   0  0  0  0  0  0  0  0  0  0  0  0
  -37.8319  -69.4256   50.6531 C   0  0  0  0  0  0  0  0  0  0  0  0
  -36.4436  -69.0349   51.0002 C   0  0  0  0  0  0  0  0  0  0  0  0
  -35.8512  -69.5512   51.9797 O   0  0  0  0  0  0  0  0  0  0  0  0
  -34.3293  -67.1060   50.6531 S   0  0  0  0  0  0  0  0  0  0  0  0
  -34.1315  -66.2121   49.2211 C   0  0  0  0  0  0  0  0  0  0  0  0
  -35.1550  -66.6672   48.4368 C   0  0  0  0  0  0  0  0  0  0  0  0
  -35.9607  -67.6004   48.9481 C   0  0  0  0  0  0  0  0  0  0  0  0
  -35.7027  -68.0343   50.2241 C   0  0  0  0  0  0  0  0  0  0  0  0
  -32.7974  -64.9047   48.8345 Br  0  0  0  0  0  0  0  0  0  0  0  0
  -41.1435  -65.8766   51.7736 C   0  0  0  0  0  0  0  0  0  0  0  0
  -42.5963  -66.3719   51.7089 C   0  0  0  0  0  0  0  0  0  0  0  0
  -43.5339  -65.2863   51.7057 N   0  0  0  0  0  0  0  0  0  0  0  0
  -44.9207  -65.7038   51.7542 C   0  0  0  0  0  0  0  0  0  0  0  0
  -45.1806  -66.6626   52.8815 C   0  0  0  0  0  0  0  0  0  0  0  0
  -44.6167  -66.2093   54.1859 C   0  0  0  0  0  0  0  0  0  0  0  0
  -43.4283  -65.3193   54.1076 C   0  0  0  0  0  0  0  0  0  0  0  0
  -43.3084  -64.4837   52.8832 C   0  0  0  0  0  0  0  0  0  0  0  0
  -43.4369  -64.7229   50.8333 H   0  0  0  0  0  0  0  0  0  0  0  0
 15 16  1  0  0  0
 15 19  1  0  0  0
 16 17  2  0  0  0
 16 20  1  0  0  0
 17 18  1  0  0  0
 18 19  2  0  0  0
 19 13  1  0  0  0
 13 14  2  0  0  0
 13 12  1  0  0  0
 12  1  1  0  0  0
  1  2  1  0  0  0
  1  9  1  0  0  0
  2  3  1  0  0  0
  2  7  2  0  0  0
  3  4  2  0  0  0
  3  8  1  0  0  0
  4  5  1  0  0  0
  5  6  2  0  0  0
  6  7  1  0  0  0
  8  9  1  0  0  0
  8 21  1  0  0  0
  9 10  2  0  0  0
 21 22  1  0  0  0
 22 23  1  0  0  0
 23 24  1  0  0  0
 23 28  1  0  0  0
 24 25  1  0  0  0
 25 26  1  0  0  0
 26 27  1  0  0  0
 27 28  1  0  0  0
 10 11  1  0  0  0
 23 29  1  0  0  0
M  CHG 1  23   1
M  END
> <minimizedAffinity>
-8.44930

$$$$
1177


 33 36  0  0  0  0  0  0  0  0999 V2000
  -37.3629  -66.7915   49.7184 C   0  0  0  0  0  0  0  0  0  0  0  0
  -38.6469  -66.5979   49.4857 C   0  0  0  0  0  0  0  0  0  0  0  0
  -39.8121  -67.4277   49.9391 C   0  0  0  0  0  0  0  0  0  0  0  0
  -40.8620  -66.4734   50.1140 N   0  0  0  0  0  0  0  0  0  0  0  0
  -40.6259  -65.4855   49.0724 C   0  0  0  0  0  0  0  0  0  0  0  0
  -41.5296  -64.7215   48.6370 O   0  0  0  0  0  0  0  0  0  0  0  0
  -39.2350  -65.5502   48.6613 C   0  0  0  0  0  0  0  0  0  0  0  0
  -38.6533  -64.8457   47.7707 O   0  0  0  0  0  0  0  0  0  0  0  0
  -36.9690  -67.9140   50.4823 O   0  0  0  0  0  0  0  0  0  0  0  0
  -35.9702  -64.3209   49.8192 S   0  0  0  0  0  0  0  0  0  0  0  0
  -34.7869  -63.8685   48.6770 C   0  0  0  0  0  0  0  0  0  0  0  0
  -34.7484  -64.9218   47.8830 N   0  0  0  0  0  0  0  0  0  0  0  0
  -35.5209  -65.9419   48.1149 C   0  0  0  0  0  0  0  0  0  0  0  0
  -36.3545  -65.8697   49.2001 C   0  0  0  0  0  0  0  0  0  0  0  0
  -35.5026  -67.1367   47.1703 C   0  0  0  0  0  0  0  0  0  0  0  0
  -33.9863  -62.5897   48.5918 C   0  0  0  0  0  0  0  0  0  0  0  0
  -39.4716  -68.2677   51.0799 C   0  0  0  0  0  0  0  0  0  0  0  0
  -40.0324  -67.9406   52.3246 C   0  0  0  0  0  0  0  0  0  0  0  0
  -39.8075  -68.6682   53.4653 C   0  0  0  0  0  0  0  0  0  0  0  0
  -38.9981  -69.7761   53.4130 C   0  0  0  0  0  0  0  0  0  0  0  0
  -38.4269  -70.1318   52.2010 C   0  0  0  0  0  0  0  0  0  0  0  0
  -38.6756  -69.3762   51.0748 C   0  0  0  0  0  0  0  0  0  0  0  0
  -40.5840  -68.1998   55.1464 Br  0  0  0  0  0  0  0  0  0  0  0  0
  -41.9759  -66.4364   51.0149 C   0  0  0  0  0  0  0  0  0  0  0  0
  -42.1845  -65.1575   51.7590 C   0  0  0  0  0  0  0  0  0  0  0  0
  -43.6651  -64.7478   51.7324 C   0  0  0  0  0  0  0  0  0  0  0  0
  -44.0983  -64.5515   53.0746 N   0  0  0  0  0  0  0  0  0  0  0  0
  -45.5095  -64.5635   53.2931 C   0  0  0  0  0  0  0  0  0  0  0  0
  -46.1127  -65.9475   53.2541 C   0  0  0  0  0  0  0  0  0  0  0  0
  -45.0634  -66.8403   52.9403 O   0  0  0  0  0  0  0  0  0  0  0  0
  -44.2145  -66.8044   54.0646 C   0  0  0  0  0  0  0  0  0  0  0  0
  -43.4766  -65.4833   53.9974 C   0  0  0  0  0  0  0  0  0  0  0  0
  -43.7542  -63.5892   53.3730 H   0  0  0  0  0  0  0  0  0  0  0  0
 10 11  1  0  0  0
 10 14  1  0  0  0
 11 12  2  0  0  0
 11 16  1  0  0  0
 12 13  1  0  0  0
 13 14  2  0  0  0
 13 15  1  0  0  0
 14  1  1  0  0  0
  1  2  2  0  0  0
  1  9  1  0  0  0
  2  3  1  0  0  0
  2  7  1  0  0  0
  3  4  1  0  0  0
  3 17  1  0  0  0
  4  5  1  0  0  0
  4 24  1  0  0  0
  5  6  2  0  0  0
  5  7  1  0  0  0
  7  8  2  0  0  0
 24 25  1  0  0  0
 25 26  1  0  0  0
 26 27  1  0  0  0
 27 28  1  0  0  0
 27 32  1  0  0  0
 28 29  1  0  0  0
 29 30  1  0  0  0
 30 31  1  0  0  0
 31 32  1  0  0  0
 17 18  2  0  0  0
 17 22  1  0  0  0
 18 19  1  0  0  0
 19 20  2  0  0  0
 19 23  1  0  0  0
 20 21  1  0  0  0
 21 22  2  0  0  0
 27 33  1  0  0  0
M  CHG 1   9  -1
M  CHG 1  27   1
M  END
> <minimizedAffinity>
-8.37790

$$$$
1178


 33 36  0  0  0  0  0  0  0  0999 V2000
  -37.7903  -64.2326   47.4317 C   0  0  0  0  0  0  0  0  0  0  0  0
  -37.2114  -65.3651   47.7015 C   0  0  0  0  0  0  0  0  0  0  0  0
  -37.8540  -66.5171   48.4082 C   0  0  0  0  0  0  0  0  0  0  0  0
  -36.7541  -67.0909   49.1367 N   0  0  0  0  0  0  0  0  0  0  0  0
  -35.6085  -66.9200   48.2911 C   0  0  0  0  0  0  0  0  0  0  0  0
  -34.5606  -67.5896   48.3335 O   0  0  0  0  0  0  0  0  0  0  0  0
  -35.8716  -65.8282   47.3642 C   0  0  0  0  0  0  0  0  0  0  0  0
  -35.1625  -65.3338   46.4458 O   0  0  0  0  0  0  0  0  0  0  0  0
  -39.1292  -64.0366   47.8107 O   0  0  0  0  0  0  0  0  0  0  0  0
  -37.1796  -62.6353   45.1057 S   0  0  0  0  0  0  0  0  0  0  0  0
  -36.0671  -61.3462   45.1591 C   0  0  0  0  0  0  0  0  0  0  0  0
  -35.6583  -61.3751   46.4112 N   0  0  0  0  0  0  0  0  0  0  0  0
  -36.1311  -62.2667   47.2274 C   0  0  0  0  0  0  0  0  0  0  0  0
  -37.0550  -63.1555   46.7331 C   0  0  0  0  0  0  0  0  0  0  0  0
  -35.7137  -62.3024   48.6952 C   0  0  0  0  0  0  0  0  0  0  0  0
  -35.6333  -60.3936   44.0778 C   0  0  0  0  0  0  0  0  0  0  0  0
  -38.9940  -66.0672   49.2206 C   0  0  0  0  0  0  0  0  0  0  0  0
  -38.9687  -65.1211   50.2082 C   0  0  0  0  0  0  0  0  0  0  0  0
  -40.0608  -64.7310   50.9497 C   0  0  0  0  0  0  0  0  0  0  0  0
  -41.2717  -65.3232   50.6943 C   0  0  0  0  0  0  0  0  0  0  0  0
  -41.3619  -66.2793   49.7172 C   0  0  0  0  0  0  0  0  0  0  0  0
  -40.2505  -66.6455   48.9940 C   0  0  0  0  0  0  0  0  0  0  0  0
  -42.7907  -64.7764   51.7278 Br  0  0  0  0  0  0  0  0  0  0  0  0
  -36.8454  -67.7122   50.4242 C   0  0  0  0  0  0  0  0  0  0  0  0
  -37.4207  -69.0668   50.4370 C   0  0  0  0  0  0  0  0  0  0  0  0
  -37.8305  -69.6282   51.6981 C   0  0  0  0  0  0  0  0  0  0  0  0
  -39.0807  -70.0575   52.1123 N   0  0  0  0  0  0  0  0  0  0  0  0
  -40.1088  -68.9684   51.9189 C   0  0  0  0  0  0  0  0  0  0  0  0
  -40.0019  -67.9908   53.0421 C   0  0  0  0  0  0  0  0  0  0  0  0
  -40.4272  -68.6389   54.1963 O   0  0  0  0  0  0  0  0  0  0  0  0
  -39.4111  -69.5747   54.4939 C   0  0  0  0  0  0  0  0  0  0  0  0
  -39.3004  -70.6057   53.4051 C   0  0  0  0  0  0  0  0  0  0  0  0
  -39.4506  -70.7737   51.4415 H   0  0  0  0  0  0  0  0  0  0  0  0
 10 11  1  0  0  0
 10 14  1  0  0  0
 11 12  2  0  0  0
 11 16  1  0  0  0
 12 13  1  0  0  0
 13 14  2  0  0  0
 13 15  1  0  0  0
 14  1  1  0  0  0
  1  2  2  0  0  0
  1  9  1  0  0  0
  2  3  1  0  0  0
  2  7  1  0  0  0
  3  4  1  0  0  0
  3 17  1  0  0  0
  4  5  1  0  0  0
  4 24  1  0  0  0
  5  6  2  0  0  0
  5  7  1  0  0  0
  7  8  2  0  0  0
 24 25  1  0  0  0
 25 26  1  0  0  0
 26 27  1  0  0  0
 27 28  1  0  0  0
 27 32  1  0  0  0
 28 29  1  0  0  0
 29 30  1  0  0  0
 30 31  1  0  0  0
 31 32  1  0  0  0
 17 18  2  0  0  0
 17 22  1  0  0  0
 18 19  1  0  0  0
 19 20  2  0  0  0
 20 21  1  0  0  0
 20 23  1  0  0  0
 21 22  2  0  0  0
 27 33  1  0  0  0
M  CHG 1   9  -1
M  CHG 1  27   1
M  END
> <minimizedAffinity>
-6.95607

$$$$
1180


 32 35  0  0  0  0  0  0  0  0999 V2000
  -33.9857  -66.9661   46.9990 C   0  0  0  0  0  0  0  0  0  0  0  0
  -33.7287  -65.9979   47.8529 C   0  0  0  0  0  0  0  0  0  0  0  0
  -34.3492  -65.7211   49.1842 C   0  0  0  0  0  0  0  0  0  0  0  0
  -34.5688  -64.3297   49.0929 N   0  0  0  0  0  0  0  0  0  0  0  0
  -33.2637  -63.8451   48.5867 C   0  0  0  0  0  0  0  0  0  0  0  0
  -32.7336  -62.7233   48.8067 O   0  0  0  0  0  0  0  0  0  0  0  0
  -32.7258  -64.9359   47.7809 C   0  0  0  0  0  0  0  0  0  0  0  0
  -31.6363  -65.0174   47.1339 O   0  0  0  0  0  0  0  0  0  0  0  0
  -34.9501  -67.9130   47.2947 O   0  0  0  0  0  0  0  0  0  0  0  0
  -33.4465  -66.0447   44.3210 S   0  0  0  0  0  0  0  0  0  0  0  0
  -32.1211  -66.6085   43.4156 C   0  0  0  0  0  0  0  0  0  0  0  0
  -31.5639  -67.4731   44.2399 N   0  0  0  0  0  0  0  0  0  0  0  0
  -32.0779  -67.6823   45.4118 C   0  0  0  0  0  0  0  0  0  0  0  0
  -33.2085  -66.9771   45.7503 C   0  0  0  0  0  0  0  0  0  0  0  0
  -31.4245  -68.6430   46.3946 C   0  0  0  0  0  0  0  0  0  0  0  0
  -31.6903  -66.2241   42.0259 C   0  0  0  0  0  0  0  0  0  0  0  0
  -35.2725  -66.6753   49.6929 C   0  0  0  0  0  0  0  0  0  0  0  0
  -34.8061  -67.6862   50.5382 C   0  0  0  0  0  0  0  0  0  0  0  0
  -35.6249  -68.6548   51.0576 C   0  0  0  0  0  0  0  0  0  0  0  0
  -36.9626  -68.6182   50.7249 C   0  0  0  0  0  0  0  0  0  0  0  0
  -37.4427  -67.6290   49.8919 C   0  0  0  0  0  0  0  0  0  0  0  0
  -36.6010  -66.6673   49.3822 C   0  0  0  0  0  0  0  0  0  0  0  0
  -38.1744  -69.9319   51.4066 Br  0  0  0  0  0  0  0  0  0  0  0  0
  -35.5497  -63.3420   49.3894 C   0  0  0  0  0  0  0  0  0  0  0  0
  -36.5330  -62.9466   48.3735 C   0  0  0  0  0  0  0  0  0  0  0  0
  -37.8758  -62.6773   48.6916 N   0  0  0  0  0  0  0  0  0  0  0  0
  -38.6864  -62.2372   47.5758 C   0  0  0  0  0  0  0  0  0  0  0  0
  -40.0479  -61.8695   48.1567 C   0  0  0  0  0  0  0  0  0  0  0  0
  -40.2055  -62.4042   49.4353 O   0  0  0  0  0  0  0  0  0  0  0  0
  -39.9227  -63.7791   49.3065 C   0  0  0  0  0  0  0  0  0  0  0  0
  -38.4674  -64.0156   49.0208 C   0  0  0  0  0  0  0  0  0  0  0  0
  -37.9671  -62.1174   49.5455 H   0  0  0  0  0  0  0  0  0  0  0  0
 10 11  1  0  0  0
 10 14  1  0  0  0
 11 12  2  0  0  0
 11 16  1  0  0  0
 12 13  1  0  0  0
 13 14  2  0  0  0
 13 15  1  0  0  0
 14  1  1  0  0  0
  1  2  2  0  0  0
  1  9  1  0  0  0
  2  3  1  0  0  0
  2  7  1  0  0  0
  3  4  1  0  0  0
  3 17  1  0  0  0
  4  5  1  0  0  0
  4 24  1  0  0  0
  5  6  2  0  0  0
  5  7  1  0  0  0
  7  8  2  0  0  0
 24 25  1  0  0  0
 25 26  1  0  0  0
 26 27  1  0  0  0
 26 31  1  0  0  0
 27 28  1  0  0  0
 28 29  1  0  0  0
 29 30  1  0  0  0
 30 31  1  0  0  0
 17 18  2  0  0  0
 17 22  1  0  0  0
 18 19  1  0  0  0
 19 20  2  0  0  0
 20 21  1  0  0  0
 20 23  1  0  0  0
 21 22  2  0  0  0
 26 32  1  0  0  0
M  CHG 1   9  -1
M  CHG 1  26   1
M  END
> <minimizedAffinity>
-7.16451

$$$$
1192


 27 30  0  0  0  0  0  0  0  0999 V2000
  -36.6507  -67.3539   47.4146 S   0  0  0  0  0  0  0  0  0  0  0  0
  -36.6562  -68.2761   48.8638 C   0  0  0  0  0  0  0  0  0  0  0  0
  -35.6304  -67.7153   49.5757 C   0  0  0  0  0  0  0  0  0  0  0  0
  -34.9643  -66.6985   49.0068 C   0  0  0  0  0  0  0  0  0  0  0  0
  -35.3634  -66.3013   47.7591 C   0  0  0  0  0  0  0  0  0  0  0  0
  -34.6061  -65.1625   47.1410 C   0  0  0  0  0  0  0  0  0  0  0  0
  -34.6341  -64.0435   48.0803 N   0  0  0  0  0  0  0  0  0  0  0  0
  -34.1664  -64.3891   49.3869 C   0  0  0  0  0  0  0  0  0  0  0  0
  -33.7962  -65.8631   49.5093 C   0  0  0  0  0  0  0  0  0  0  0  0
  -36.0425  -63.6665   48.2023 C   0  0  0  0  0  0  0  0  0  0  0  0
  -35.3994  -68.3367   50.9094 C   0  0  0  0  0  0  0  0  0  0  0  0
  -34.4804  -67.9118   51.6701 O   0  0  0  0  0  0  0  0  0  0  0  0
  -36.2291  -69.4145   51.3132 N   0  0  0  0  0  0  0  0  0  0  0  0
  -37.5313  -69.6847   50.7779 C   0  0  0  0  0  0  0  0  0  0  0  0
  -37.4555  -69.3779   49.3583 N   0  0  0  0  0  0  0  0  0  0  0  0
  -34.1571  -63.2173   47.6665 H   0  0  0  0  0  0  0  0  0  0  0  0
  -35.8424  -70.0549   52.0637 H   0  0  0  0  0  0  0  0  0  0  0  0
  -37.9685  -69.9312   48.6422 H   0  0  0  0  0  0  0  0  0  0  0  0
  -38.5924  -68.8600   51.4056 C   0  0  0  0  0  0  0  0  0  0  0  0
  -39.2148  -67.8327   50.7266 C   0  0  0  0  0  0  0  0  0  0  0  0
  -40.2020  -67.0579   51.2924 C   0  0  0  0  0  0  0  0  0  0  0  0
  -40.6018  -67.2981   52.5911 C   0  0  0  0  0  0  0  0  0  0  0  0
  -39.9959  -68.3164   53.2874 C   0  0  0  0  0  0  0  0  0  0  0  0
  -39.0063  -69.0900   52.7120 C   0  0  0  0  0  0  0  0  0  0  0  0
  -40.5840  -68.6160   55.0918 Br  0  0  0  0  0  0  0  0  0  0  0  0
  -41.5962  -66.5209   53.1676 O   0  0  0  0  0  0  0  0  0  0  0  0
  -41.0501  -65.6495   50.3488 Br  0  0  0  0  0  0  0  0  0  0  0  0
  1  2  1  0  0  0
  1  5  1  0  0  0
  2  3  2  0  0  0
  2 15  1  0  0  0
  3  4  1  0  0  0
  3 11  1  0  0  0
  4  5  2  0  0  0
  4  9  1  0  0  0
  5  6  1  0  0  0
  6  7  1  0  0  0
  7  8  1  0  0  0
  7 10  1  0  0  0
  8  9  1  0  0  0
 11 12  2  0  0  0
 11 13  1  0  0  0
 13 14  1  0  0  0
 14 15  1  0  0  0
 14 19  1  0  0  0
 19 20  2  0  0  0
 19 24  1  0  0  0
 20 21  1  0  0  0
 21 22  2  0  0  0
 21 27  1  0  0  0
 22 23  1  0  0  0
 22 26  1  0  0  0
 23 24  2  0  0  0
 23 25  1  0  0  0
  7 16  1  0  0  0
 13 17  1  0  0  0
 15 18  1  0  0  0
M  CHG 1   7   1
M  CHG 1  26  -1
M  END
> <minimizedAffinity>
-7.60640

$$$$
1193


 29 32  0  0  0  0  0  0  0  0999 V2000
  -40.4098  -66.7843   49.0455 S   0  0  0  0  0  0  0  0  0  0  0  0
  -38.8781  -67.1036   48.3635 C   0  0  0  0  0  0  0  0  0  0  0  0
  -38.1888  -67.6626   49.4033 C   0  0  0  0  0  0  0  0  0  0  0  0
  -38.8507  -67.7972   50.5803 C   0  0  0  0  0  0  0  0  0  0  0  0
  -40.1508  -67.3585   50.6182 C   0  0  0  0  0  0  0  0  0  0  0  0
  -40.9840  -67.4489   51.8533 C   0  0  0  0  0  0  0  0  0  0  0  0
  -40.6755  -68.5615   52.6842 N   0  0  0  0  0  0  0  0  0  0  0  0
  -39.4514  -69.2358   52.4150 C   0  0  0  0  0  0  0  0  0  0  0  0
  -38.3343  -68.3841   51.8993 C   0  0  0  0  0  0  0  0  0  0  0  0
  -40.8012  -68.2135   54.0944 C   0  0  0  0  0  0  0  0  0  0  0  0
  -36.7871  -68.0487   49.0539 C   0  0  0  0  0  0  0  0  0  0  0  0
  -36.0420  -68.5793   49.9406 O   0  0  0  0  0  0  0  0  0  0  0  0
  -36.3004  -67.8216   47.7458 N   0  0  0  0  0  0  0  0  0  0  0  0
  -36.8389  -66.7548   46.9312 C   0  0  0  0  0  0  0  0  0  0  0  0
  -38.2893  -66.8993   47.0508 N   0  0  0  0  0  0  0  0  0  0  0  0
  -41.4508  -69.2780   52.5252 H   0  0  0  0  0  0  0  0  0  0  0  0
  -35.5438  -68.4286   47.3590 H   0  0  0  0  0  0  0  0  0  0  0  0
  -38.9496  -66.8669   46.2565 H   0  0  0  0  0  0  0  0  0  0  0  0
  -36.4062  -65.4707   47.5421 C   0  0  0  0  0  0  0  0  0  0  0  0
  -35.1040  -65.2915   47.9565 C   0  0  0  0  0  0  0  0  0  0  0  0
  -34.6830  -64.1088   48.5251 C   0  0  0  0  0  0  0  0  0  0  0  0
  -35.5889  -63.0688   48.6879 C   0  0  0  0  0  0  0  0  0  0  0  0
  -36.8974  -63.2202   48.2829 C   0  0  0  0  0  0  0  0  0  0  0  0
  -37.2820  -64.3990   47.7253 C   0  0  0  0  0  0  0  0  0  0  0  0
  -35.1863  -61.8648   49.2604 O   0  0  0  0  0  0  0  0  0  0  0  0
  -32.8855  -63.8467   49.1021 Br  0  0  0  0  0  0  0  0  0  0  0  0
  -37.7598  -62.1552   48.4664 O   0  0  0  0  0  0  0  0  0  0  0  0
  -39.1377  -62.1735   48.2648 C   0  0  0  0  0  0  0  0  0  0  0  0
  -39.5203  -61.4688   46.9816 C   0  0  0  0  0  0  0  0  0  0  0  0
  1  2  1  0  0  0
  1  5  1  0  0  0
  2  3  2  0  0  0
  2 15  1  0  0  0
  3  4  1  0  0  0
  3 11  1  0  0  0
  4  5  2  0  0  0
  4  9  1  0  0  0
  5  6  1  0  0  0
  6  7  1  0  0  0
  7  8  1  0  0  0
  7 10  1  0  0  0
  8  9  1  0  0  0
 11 12  2  0  0  0
 11 13  1  0  0  0
 13 14  1  0  0  0
 14 15  1  0  0  0
 14 19  1  0  0  0
 19 20  2  0  0  0
 19 24  1  0  0  0
 20 21  1  0  0  0
 21 22  2  0  0  0
 21 26  1  0  0  0
 22 23  1  0  0  0
 22 25  1  0  0  0
 23 24  2  0  0  0
 23 27  1  0  0  0
 27 28  1  0  0  0
 28 29  1  0  0  0
  7 16  1  0  0  0
 13 17  1  0  0  0
 15 18  1  0  0  0
M  CHG 1   7   1
M  CHG 1  25  -1
M  END
> <minimizedAffinity>
-6.28317

$$$$
1206


 25 28  0  0  0  0  0  0  0  0999 V2000
  -42.7320  -66.9596   54.8221 S   0  0  0  0  0  0  0  0  0  0  0  0
  -41.4567  -68.2300   55.0264 C   0  0  0  0  0  0  0  0  0  0  0  0
  -40.4690  -67.7503   53.9979 C   0  0  0  0  0  0  0  0  0  0  0  0
  -41.1124  -67.1416   52.8734 N   0  0  0  0  0  0  0  0  0  0  0  0
  -42.3507  -66.6725   53.0976 C   0  0  0  0  0  0  0  0  0  0  0  0
  -42.8399  -66.1573   51.9638 N   0  0  0  0  0  0  0  0  0  0  0  0
  -41.9088  -66.2923   50.9932 C   0  0  0  0  0  0  0  0  0  0  0  0
  -40.8138  -66.9090   51.5496 C   0  0  0  0  0  0  0  0  0  0  0  0
  -41.9563  -69.5862   54.5906 C   0  0  0  0  0  0  0  0  0  0  0  0
  -44.1198  -65.5623   51.7846 C   0  0  0  0  0  0  0  0  0  0  0  0
  -45.2805  -66.2063   52.1448 C   0  0  0  0  0  0  0  0  0  0  0  0
  -46.5328  -65.6520   51.9823 C   0  0  0  0  0  0  0  0  0  0  0  0
  -46.6516  -64.3945   51.4331 C   0  0  0  0  0  0  0  0  0  0  0  0
  -45.5055  -63.7160   51.0580 C   0  0  0  0  0  0  0  0  0  0  0  0
  -44.2642  -64.2933   51.2325 C   0  0  0  0  0  0  0  0  0  0  0  0
  -48.3723  -63.5935   51.1914 Br  0  0  0  0  0  0  0  0  0  0  0  0
  -39.6085  -67.2381   50.8263 C   0  0  0  0  0  0  0  0  0  0  0  0
  -39.1960  -66.3628   49.8067 C   0  0  0  0  0  0  0  0  0  0  0  0
  -38.0398  -66.5934   49.1070 C   0  0  0  0  0  0  0  0  0  0  0  0
  -37.2233  -67.6696   49.3478 C   0  0  0  0  0  0  0  0  0  0  0  0
  -37.6044  -68.5412   50.3411 C   0  0  0  0  0  0  0  0  0  0  0  0
  -38.7844  -68.3069   51.0571 C   0  0  0  0  0  0  0  0  0  0  0  0
  -36.0467  -67.8375   48.5807 N   0  0  0  0  0  0  0  0  0  0  0  0
  -34.9338  -67.8290   49.1187 O   0  0  0  0  0  0  0  0  0  0  0  0
  -36.1472  -68.0103   47.2341 O   0  0  0  0  0  0  0  0  0  0  0  0
  1  2  1  0  0  0
  1  5  1  0  0  0
  2  3  1  0  0  0
  2  9  1  0  0  0
  3  4  1  0  0  0
  4  5  1  0  0  0
  4  8  1  0  0  0
  5  6  2  0  0  0
  6  7  1  0  0  0
  6 10  1  0  0  0
  7  8  2  0  0  0
  8 17  1  0  0  0
 17 18  2  0  0  0
 17 22  1  0  0  0
 18 19  1  0  0  0
 19 20  2  0  0  0
 20 21  1  0  0  0
 20 23  1  0  0  0
 21 22  2  0  0  0
 23 24  2  0  0  0
 23 25  1  0  0  0
 10 11  2  0  0  0
 10 15  1  0  0  0
 11 12  1  0  0  0
 12 13  2  0  0  0
 13 14  1  0  0  0
 13 16  1  0  0  0
 14 15  2  0  0  0
M  CHG 1  25  -1
M  END
> <minimizedAffinity>
-7.82759

$$$$
1209


 24 27  0  0  0  0  0  0  0  0999 V2000
  -37.2209  -67.6580   49.3954 S   0  0  0  0  0  0  0  0  0  0  0  0
  -35.8081  -68.4506   50.2141 C   0  0  0  0  0  0  0  0  0  0  0  0
  -36.3275  -69.0833   51.4925 C   0  0  0  0  0  0  0  0  0  0  0  0
  -37.6256  -69.8156   51.2226 C   0  0  0  0  0  0  0  0  0  0  0  0
  -38.6888  -68.8290   51.3194 N   0  0  0  0  0  0  0  0  0  0  0  0
  -38.6089  -67.7691   50.5109 C   0  0  0  0  0  0  0  0  0  0  0  0
  -39.6951  -66.9522   50.7454 N   0  0  0  0  0  0  0  0  0  0  0  0
  -40.4436  -67.4976   51.6897 C   0  0  0  0  0  0  0  0  0  0  0  0
  -39.7940  -68.6790   52.0394 C   0  0  0  0  0  0  0  0  0  0  0  0
  -39.8897  -65.7347   50.0295 C   0  0  0  0  0  0  0  0  0  0  0  0
  -40.3331  -65.7458   48.7186 C   0  0  0  0  0  0  0  0  0  0  0  0
  -40.5599  -64.5841   48.0080 C   0  0  0  0  0  0  0  0  0  0  0  0
  -40.3302  -63.3797   48.6432 C   0  0  0  0  0  0  0  0  0  0  0  0
  -39.8879  -63.3785   49.9491 C   0  0  0  0  0  0  0  0  0  0  0  0
  -39.6553  -64.5251   50.6767 C   0  0  0  0  0  0  0  0  0  0  0  0
  -40.6166  -61.7109   47.7352 Br  0  0  0  0  0  0  0  0  0  0  0  0
  -41.6852  -67.0500   52.3006 C   0  0  0  0  0  0  0  0  0  0  0  0
  -41.9242  -67.3325   53.6534 C   0  0  0  0  0  0  0  0  0  0  0  0
  -43.0727  -66.9379   54.2820 C   0  0  0  0  0  0  0  0  0  0  0  0
  -44.0718  -66.2398   53.6430 C   0  0  0  0  0  0  0  0  0  0  0  0
  -43.8477  -65.9589   52.3198 C   0  0  0  0  0  0  0  0  0  0  0  0
  -42.6778  -66.3541   51.6551 C   0  0  0  0  0  0  0  0  0  0  0  0
  -45.2237  -65.8558   54.3153 O   0  0  0  0  0  0  0  0  0  0  0  0
  -46.4928  -66.2923   53.8651 C   0  0  0  0  0  0  0  0  0  0  0  0
  1  2  1  0  0  0
  1  6  1  0  0  0
  2  3  1  0  0  0
  3  4  1  0  0  0
  4  5  1  0  0  0
  5  6  2  0  0  0
  5  9  1  0  0  0
  6  7  1  0  0  0
  7  8  1  0  0  0
  7 10  1  0  0  0
  8  9  2  0  0  0
  8 17  1  0  0  0
 17 18  2  0  0  0
 17 22  1  0  0  0
 18 19  1  0  0  0
 19 20  2  0  0  0
 20 21  1  0  0  0
 20 23  1  0  0  0
 21 22  2  0  0  0
 23 24  1  0  0  0
 10 11  2  0  0  0
 10 15  1  0  0  0
 11 12  1  0  0  0
 12 13  2  0  0  0
 13 14  1  0  0  0
 13 16  1  0  0  0
 14 15  2  0  0  0
M  END
> <minimizedAffinity>
-7.23372

$$$$
1211


 26 29  0  0  0  0  0  0  0  0999 V2000
  -35.5952  -67.0976   46.6500 S   0  0  0  0  0  0  0  0  0  0  0  0
  -34.4226  -67.3255   45.2565 C   0  0  0  0  0  0  0  0  0  0  0  0
  -33.1081  -67.7268   45.9294 C   0  0  0  0  0  0  0  0  0  0  0  0
  -32.6101  -66.5248   46.7254 C   0  0  0  0  0  0  0  0  0  0  0  0
  -33.2801  -66.5497   48.0020 N   0  0  0  0  0  0  0  0  0  0  0  0
  -34.5636  -66.7886   48.0780 C   0  0  0  0  0  0  0  0  0  0  0  0
  -34.9232  -66.7635   49.4848 N   0  0  0  0  0  0  0  0  0  0  0  0
  -34.0632  -65.7105   49.9799 C   0  0  0  0  0  0  0  0  0  0  0  0
  -32.7696  -66.3622   49.3638 C   0  0  0  0  0  0  0  0  0  0  0  0
  -33.9733  -65.5998   51.3310 O   0  0  0  0  0  0  0  0  0  0  0  0
  -33.5883  -64.6964   51.5511 H   0  0  0  0  0  0  0  0  0  0  0  0
  -35.8218  -67.6243   50.1473 C   0  0  0  0  0  0  0  0  0  0  0  0
  -37.2071  -67.3691   49.9987 C   0  0  0  0  0  0  0  0  0  0  0  0
  -38.1628  -68.1268   50.6531 C   0  0  0  0  0  0  0  0  0  0  0  0
  -37.8035  -69.1582   51.4767 C   0  0  0  0  0  0  0  0  0  0  0  0
  -36.4617  -69.4313   51.6425 C   0  0  0  0  0  0  0  0  0  0  0  0
  -35.4954  -68.6574   50.9713 C   0  0  0  0  0  0  0  0  0  0  0  0
  -39.0846  -70.2181   52.4166 Br  0  0  0  0  0  0  0  0  0  0  0  0
  -34.3360  -64.4663   49.2514 C   0  0  0  0  0  0  0  0  0  0  0  0
  -33.3365  -63.6352   48.7755 C   0  0  0  0  0  0  0  0  0  0  0  0
  -33.6771  -62.4439   48.1167 C   0  0  0  0  0  0  0  0  0  0  0  0
  -34.9519  -62.0654   47.9244 C   0  0  0  0  0  0  0  0  0  0  0  0
  -35.9951  -62.8904   48.3939 C   0  0  0  0  0  0  0  0  0  0  0  0
  -35.6177  -64.0559   49.0379 C   0  0  0  0  0  0  0  0  0  0  0  0
  -35.3374  -60.8687   47.2658 O   0  0  0  0  0  0  0  0  0  0  0  0
  -36.0361  -60.9227   46.0401 C   0  0  0  0  0  0  0  0  0  0  0  0
  1  2  1  0  0  0
  1  6  1  0  0  0
  2  3  1  0  0  0
  3  4  1  0  0  0
  4  5  1  0  0  0
  5  6  2  0  0  0
  5  9  1  0  0  0
  6  7  1  0  0  0
  7  8  1  0  0  0
  7 12  1  0  0  0
  8  9  1  0  0  0
  8 10  1  0  0  0
  8 19  1  0  0  0
 19 20  2  0  0  0
 19 24  1  0  0  0
 20 21  1  0  0  0
 21 22  2  0  0  0
 22 23  1  0  0  0
 22 25  1  0  0  0
 23 24  2  0  0  0
 25 26  1  0  0  0
 12 13  2  0  0  0
 12 17  1  0  0  0
 13 14  1  0  0  0
 14 15  2  0  0  0
 15 16  1  0  0  0
 15 18  1  0  0  0
 16 17  2  0  0  0
 10 11  1  0  0  0
M  END
> <minimizedAffinity>
-6.79477

$$$$
1217


 28 31  0  0  0  0  0  0  0  0999 V2000
  -34.4607  -66.2973   50.6155 S   0  0  0  0  0  0  0  0  0  0  0  0
  -33.0823  -65.4345   49.9022 C   0  0  0  0  0  0  0  0  0  0  0  0
  -33.4349  -64.9851   48.4984 C   0  0  0  0  0  0  0  0  0  0  0  0
  -33.7521  -66.2019   47.6473 C   0  0  0  0  0  0  0  0  0  0  0  0
  -35.0566  -66.7190   47.9934 N   0  0  0  0  0  0  0  0  0  0  0  0
  -36.2206  -66.9726   47.2081 C   0  0  0  0  0  0  0  0  0  0  0  0
  -36.7639  -68.1877   47.9434 C   0  0  0  0  0  0  0  0  0  0  0  0
  -36.4485  -67.9002   49.3245 N   0  0  0  0  0  0  0  0  0  0  0  0
  -35.4400  -67.0999   49.3268 C   0  0  0  0  0  0  0  0  0  0  0  0
  -35.8623  -67.2972   45.9039 O   0  0  0  0  0  0  0  0  0  0  0  0
  -34.9040  -67.5169   45.8589 H   0  0  0  0  0  0  0  0  0  0  0  0
  -37.2612  -65.9267   47.2505 C   0  0  0  0  0  0  0  0  0  0  0  0
  -37.0738  -64.5954   47.0514 C   0  0  0  0  0  0  0  0  0  0  0  0
  -38.1289  -63.6861   47.1515 C   0  0  0  0  0  0  0  0  0  0  0  0
  -39.4064  -64.1051   47.4594 C   0  0  0  0  0  0  0  0  0  0  0  0
  -39.6050  -65.4363   47.6607 C   0  0  0  0  0  0  0  0  0  0  0  0
  -38.5721  -66.3261   47.5626 C   0  0  0  0  0  0  0  0  0  0  0  0
  -40.8441  -62.8436   47.5999 Br  0  0  0  0  0  0  0  0  0  0  0  0
  -37.1303  -68.3641   50.4807 C   0  0  0  0  0  0  0  0  0  0  0  0
  -36.4534  -69.2623   51.2952 C   0  0  0  0  0  0  0  0  0  0  0  0
  -37.0682  -69.7839   52.4381 C   0  0  0  0  0  0  0  0  0  0  0  0
  -38.3601  -69.4027   52.7554 C   0  0  0  0  0  0  0  0  0  0  0  0
  -39.0589  -68.5155   51.9719 C   0  0  0  0  0  0  0  0  0  0  0  0
  -38.3837  -68.0270   50.8363 C   0  0  0  0  0  0  0  0  0  0  0  0
  -40.3512  -68.0951   52.2352 O   0  0  0  0  0  0  0  0  0  0  0  0
  -40.8396  -67.6651   53.4737 C   0  0  0  0  0  0  0  0  0  0  0  0
  -35.1679  -69.6415   50.9738 O   0  0  0  0  0  0  0  0  0  0  0  0
  -34.1437  -69.9079   51.9030 C   0  0  0  0  0  0  0  0  0  0  0  0
  1  2  1  0  0  0
  1  9  1  0  0  0
  2  3  1  0  0  0
  3  4  1  0  0  0
  4  5  1  0  0  0
  5  6  1  0  0  0
  5  9  1  0  0  0
  6  7  1  0  0  0
  6 10  1  0  0  0
  6 12  1  0  0  0
  7  8  1  0  0  0
  8  9  2  0  0  0
  8 19  1  0  0  0
 19 20  2  0  0  0
 19 24  1  0  0  0
 20 21  1  0  0  0
 20 27  1  0  0  0
 21 22  2  0  0  0
 22 23  1  0  0  0
 23 24  2  0  0  0
 23 25  1  0  0  0
 25 26  1  0  0  0
 27 28  1  0  0  0
 12 13  2  0  0  0
 12 17  1  0  0  0
 13 14  1  0  0  0
 14 15  2  0  0  0
 15 16  1  0  0  0
 15 18  1  0  0  0
 16 17  2  0  0  0
 10 11  1  0  0  0
M  END
> <minimizedAffinity>
-6.49109

$$$$
1219


 27 30  0  0  0  0  0  0  0  0999 V2000
  -39.6922  -63.7023   49.8014 S   0  0  0  0  0  0  0  0  0  0  0  0
  -40.1441  -62.8964   48.2093 C   0  0  0  0  0  0  0  0  0  0  0  0
  -39.6166  -63.7392   47.0611 C   0  0  0  0  0  0  0  0  0  0  0  0
  -38.1943  -64.1687   47.3121 C   0  0  0  0  0  0  0  0  0  0  0  0
  -38.1754  -65.3046   48.1777 N   0  0  0  0  0  0  0  0  0  0  0  0
  -37.4605  -66.5653   48.2539 C   0  0  0  0  0  0  0  0  0  0  0  0
  -38.4470  -67.4756   48.9637 C   0  0  0  0  0  0  0  0  0  0  0  0
  -39.2155  -66.5024   49.7656 N   0  0  0  0  0  0  0  0  0  0  0  0
  -39.0565  -65.3232   49.3122 C   0  0  0  0  0  0  0  0  0  0  0  0
  -37.1061  -67.0464   47.0091 O   0  0  0  0  0  0  0  0  0  0  0  0
  -37.6097  -67.8074   46.6874 H   0  0  0  0  0  0  0  0  0  0  0  0
  -40.0332  -66.8534   50.8784 C   0  0  0  0  0  0  0  0  0  0  0  0
  -41.2243  -66.2814   51.2159 C   0  0  0  0  0  0  0  0  0  0  0  0
  -41.9805  -66.6870   52.3070 C   0  0  0  0  0  0  0  0  0  0  0  0
  -41.5272  -67.7166   53.1064 C   0  0  0  0  0  0  0  0  0  0  0  0
  -40.3163  -68.3232   52.7929 C   0  0  0  0  0  0  0  0  0  0  0  0
  -39.5770  -67.8998   51.6955 C   0  0  0  0  0  0  0  0  0  0  0  0
  -42.4938  -68.3430   54.6343 Br  0  0  0  0  0  0  0  0  0  0  0  0
  -36.2502  -66.4584   49.1029 C   0  0  0  0  0  0  0  0  0  0  0  0
  -35.7882  -67.5692   49.7813 C   0  0  0  0  0  0  0  0  0  0  0  0
  -34.6457  -67.4231   50.5680 C   0  0  0  0  0  0  0  0  0  0  0  0
  -34.0045  -66.2254   50.6661 C   0  0  0  0  0  0  0  0  0  0  0  0
  -34.4552  -65.1052   49.9916 C   0  0  0  0  0  0  0  0  0  0  0  0
  -35.6022  -65.2596   49.2039 C   0  0  0  0  0  0  0  0  0  0  0  0
  -34.1634  -68.5580   51.2681 N   0  0  0  0  0  0  0  0  0  0  0  0
  -34.9043  -69.2431   51.9990 O   0  0  0  0  0  0  0  0  0  0  0  0
  -32.8584  -68.9495   51.1690 O   0  0  0  0  0  0  0  0  0  0  0  0
  1  2  1  0  0  0
  1  9  1  0  0  0
  2  3  1  0  0  0
  3  4  1  0  0  0
  4  5  1  0  0  0
  5  6  1  0  0  0
  5  9  1  0  0  0
  6  7  1  0  0  0
  6 10  1  0  0  0
  6 19  1  0  0  0
  7  8  1  0  0  0
  8  9  2  0  0  0
  8 12  1  0  0  0
 12 13  2  0  0  0
 12 17  1  0  0  0
 13 14  1  0  0  0
 14 15  2  0  0  0
 15 16  1  0  0  0
 15 18  1  0  0  0
 16 17  2  0  0  0
 19 20  2  0  0  0
 19 24  1  0  0  0
 20 21  1  0  0  0
 21 22  2  0  0  0
 21 25  1  0  0  0
 22 23  1  0  0  0
 23 24  2  0  0  0
 25 26  2  0  0  0
 25 27  1  0  0  0
 10 11  1  0  0  0
M  CHG 1  27  -1
M  END
> <minimizedAffinity>
-8.00952

$$$$
1220


 27 30  0  0  0  0  0  0  0  0999 V2000
  -38.5338  -69.3354   51.1083 S   0  0  0  0  0  0  0  0  0  0  0  0
  -36.7921  -69.4738   51.6796 C   0  0  0  0  0  0  0  0  0  0  0  0
  -35.8573  -68.6271   50.9232 C   0  0  0  0  0  0  0  0  0  0  0  0
  -36.3081  -67.9752   49.6808 C   0  0  0  0  0  0  0  0  0  0  0  0
  -37.5224  -67.2680   49.6990 N   0  0  0  0  0  0  0  0  0  0  0  0
  -38.0363  -66.1471   48.9724 C   0  0  0  0  0  0  0  0  0  0  0  0
  -38.8961  -65.4960   50.0334 C   0  0  0  0  0  0  0  0  0  0  0  0
  -39.3917  -66.6470   50.7577 N   0  0  0  0  0  0  0  0  0  0  0  0
  -38.6248  -67.6158   50.5759 C   0  0  0  0  0  0  0  0  0  0  0  0
  -38.9107  -66.6033   47.9825 O   0  0  0  0  0  0  0  0  0  0  0  0
  -39.6753  -66.0064   47.9369 H   0  0  0  0  0  0  0  0  0  0  0  0
  -40.5884  -66.6682   51.5447 C   0  0  0  0  0  0  0  0  0  0  0  0
  -41.7527  -66.1535   50.9920 C   0  0  0  0  0  0  0  0  0  0  0  0
  -42.9488  -66.1216   51.7055 C   0  0  0  0  0  0  0  0  0  0  0  0
  -43.0095  -66.6037   52.9942 C   0  0  0  0  0  0  0  0  0  0  0  0
  -41.8650  -67.1166   53.5548 C   0  0  0  0  0  0  0  0  0  0  0  0
  -40.6765  -67.1340   52.8140 C   0  0  0  0  0  0  0  0  0  0  0  0
  -44.6604  -66.5408   53.9798 Br  0  0  0  0  0  0  0  0  0  0  0  0
  -37.0369  -65.2102   48.4251 C   0  0  0  0  0  0  0  0  0  0  0  0
  -36.4959  -64.2736   49.3006 C   0  0  0  0  0  0  0  0  0  0  0  0
  -35.5540  -63.3591   48.8848 C   0  0  0  0  0  0  0  0  0  0  0  0
  -35.0988  -63.3262   47.5786 C   0  0  0  0  0  0  0  0  0  0  0  0
  -35.6309  -64.2556   46.7055 C   0  0  0  0  0  0  0  0  0  0  0  0
  -36.5880  -65.1829   47.1306 C   0  0  0  0  0  0  0  0  0  0  0  0
  -34.1280  -62.3780   47.1767 N   0  0  0  0  0  0  0  0  0  0  0  0
  -34.3323  -61.5125   46.3180 O   0  0  0  0  0  0  0  0  0  0  0  0
  -32.8899  -62.4044   47.7663 O   0  0  0  0  0  0  0  0  0  0  0  0
  1  2  1  0  0  0
  1  9  1  0  0  0
  2  3  1  0  0  0
  3  4  1  0  0  0
  4  5  1  0  0  0
  5  6  1  0  0  0
  5  9  1  0  0  0
  6  7  1  0  0  0
  6 10  1  0  0  0
  6 19  1  0  0  0
  7  8  1  0  0  0
  8  9  2  0  0  0
  8 12  1  0  0  0
 12 13  2  0  0  0
 12 17  1  0  0  0
 13 14  1  0  0  0
 14 15  2  0  0  0
 15 16  1  0  0  0
 15 18  1  0  0  0
 16 17  2  0  0  0
 19 20  2  0  0  0
 19 24  1  0  0  0
 20 21  1  0  0  0
 21 22  2  0  0  0
 22 23  1  0  0  0
 22 25  1  0  0  0
 23 24  2  0  0  0
 25 26  2  0  0  0
 25 27  1  0  0  0
 10 11  1  0  0  0
M  CHG 1  27  -1
M  END
> <minimizedAffinity>
-7.41891

$$$$
1222


 24 27  0  0  0  0  0  0  0  0999 V2000
  -39.3633  -63.9382   49.8202 S   0  0  0  0  0  0  0  0  0  0  0  0
  -40.2186  -63.1992   48.3572 C   0  0  0  0  0  0  0  0  0  0  0  0
  -39.6515  -63.7639   47.0806 C   0  0  0  0  0  0  0  0  0  0  0  0
  -38.2054  -64.1959   47.1923 C   0  0  0  0  0  0  0  0  0  0  0  0
  -38.0070  -65.3664   47.9541 N   0  0  0  0  0  0  0  0  0  0  0  0
  -37.1770  -66.5835   47.9796 C   0  0  0  0  0  0  0  0  0  0  0  0
  -38.2295  -67.5385   48.4901 C   0  0  0  0  0  0  0  0  0  0  0  0
  -38.8724  -66.7344   49.5189 N   0  0  0  0  0  0  0  0  0  0  0  0
  -38.8076  -65.5421   49.1557 C   0  0  0  0  0  0  0  0  0  0  0  0
  -36.7415  -66.9620   46.7468 O   0  0  0  0  0  0  0  0  0  0  0  0
  -36.3091  -66.2582   46.2021 H   0  0  0  0  0  0  0  0  0  0  0  0
  -39.4162  -67.2398   50.7572 C   0  0  0  0  0  0  0  0  0  0  0  0
  -40.4232  -66.6632   51.4650 C   0  0  0  0  0  0  0  0  0  0  0  0
  -40.8859  -67.1576   52.6782 C   0  0  0  0  0  0  0  0  0  0  0  0
  -40.3142  -68.2827   53.2110 C   0  0  0  0  0  0  0  0  0  0  0  0
  -39.2908  -68.8726   52.4944 C   0  0  0  0  0  0  0  0  0  0  0  0
  -38.8369  -68.3841   51.3008 C   0  0  0  0  0  0  0  0  0  0  0  0
  -40.8841  -69.0354   54.8826 Br  0  0  0  0  0  0  0  0  0  0  0  0
  -36.0818  -66.4551   48.9973 C   0  0  0  0  0  0  0  0  0  0  0  0
  -35.4696  -65.2521   49.2926 C   0  0  0  0  0  0  0  0  0  0  0  0
  -34.4679  -65.2196   50.2541 C   0  0  0  0  0  0  0  0  0  0  0  0
  -34.0495  -66.3515   50.9415 C   0  0  0  0  0  0  0  0  0  0  0  0
  -34.6517  -67.5463   50.6549 C   0  0  0  0  0  0  0  0  0  0  0  0
  -35.6556  -67.5830   49.6880 C   0  0  0  0  0  0  0  0  0  0  0  0
  1  2  1  0  0  0
  1  9  1  0  0  0
  2  3  1  0  0  0
  3  4  1  0  0  0
  4  5  1  0  0  0
  5  6  1  0  0  0
  5  9  1  0  0  0
  6  7  1  0  0  0
  6 10  1  0  0  0
  6 19  1  0  0  0
  7  8  1  0  0  0
  8  9  2  0  0  0
  8 12  1  0  0  0
 12 13  2  0  0  0
 12 17  1  0  0  0
 13 14  1  0  0  0
 14 15  2  0  0  0
 15 16  1  0  0  0
 15 18  1  0  0  0
 16 17  2  0  0  0
 19 20  2  0  0  0
 19 24  1  0  0  0
 20 21  1  0  0  0
 21 22  2  0  0  0
 22 23  1  0  0  0
 23 24  2  0  0  0
 10 11  1  0  0  0
M  END
> <minimizedAffinity>
-7.41741

$$$$
1224


 26 29  0  0  0  0  0  0  0  0999 V2000
  -34.2369  -67.4081   46.7137 S   0  0  0  0  0  0  0  0  0  0  0  0
  -32.5628  -67.5171   45.9590 C   0  0  0  0  0  0  0  0  0  0  0  0
  -32.0830  -66.0777   45.8425 C   0  0  0  0  0  0  0  0  0  0  0  0
  -31.7926  -65.4735   47.1803 C   0  0  0  0  0  0  0  0  0  0  0  0
  -32.9288  -65.3409   48.0393 N   0  0  0  0  0  0  0  0  0  0  0  0
  -33.4272  -64.3234   48.9696 C   0  0  0  0  0  0  0  0  0  0  0  0
  -33.8734  -65.2927   50.0805 C   0  0  0  0  0  0  0  0  0  0  0  0
  -34.5065  -66.3447   49.3065 N   0  0  0  0  0  0  0  0  0  0  0  0
  -33.9536  -66.3644   48.1622 C   0  0  0  0  0  0  0  0  0  0  0  0
  -32.3893  -63.5260   49.3905 O   0  0  0  0  0  0  0  0  0  0  0  0
  -31.9782  -63.8391   50.2309 H   0  0  0  0  0  0  0  0  0  0  0  0
  -34.5945  -63.5922   48.4458 C   0  0  0  0  0  0  0  0  0  0  0  0
  -35.7809  -63.3892   49.1153 C   0  0  0  0  0  0  0  0  0  0  0  0
  -36.8175  -62.6766   48.5356 C   0  0  0  0  0  0  0  0  0  0  0  0
  -36.6786  -62.1590   47.2801 C   0  0  0  0  0  0  0  0  0  0  0  0
  -35.4986  -62.3532   46.5961 C   0  0  0  0  0  0  0  0  0  0  0  0
  -34.4797  -63.0605   47.1817 C   0  0  0  0  0  0  0  0  0  0  0  0
  -38.0785  -61.1629   46.4188 Br  0  0  0  0  0  0  0  0  0  0  0  0
  -35.5701  -67.1688   49.8353 C   0  0  0  0  0  0  0  0  0  0  0  0
  -35.2636  -68.2566   50.6476 C   0  0  0  0  0  0  0  0  0  0  0  0
  -36.2544  -69.0625   51.1641 C   0  0  0  0  0  0  0  0  0  0  0  0
  -37.5922  -68.8457   50.9123 C   0  0  0  0  0  0  0  0  0  0  0  0
  -37.9034  -67.7742   50.1102 C   0  0  0  0  0  0  0  0  0  0  0  0
  -36.8909  -66.9554   49.5854 C   0  0  0  0  0  0  0  0  0  0  0  0
  -38.5648  -69.6795   51.4531 O   0  0  0  0  0  0  0  0  0  0  0  0
  -38.8728  -69.7943   52.8131 C   0  0  0  0  0  0  0  0  0  0  0  0
  1  2  1  0  0  0
  1  9  1  0  0  0
  2  3  1  0  0  0
  3  4  1  0  0  0
  4  5  1  0  0  0
  5  6  1  0  0  0
  5  9  1  0  0  0
  6  7  1  0  0  0
  6 10  1  0  0  0
  6 12  1  0  0  0
  7  8  1  0  0  0
  8  9  2  0  0  0
  8 19  1  0  0  0
 19 20  2  0  0  0
 19 24  1  0  0  0
 20 21  1  0  0  0
 21 22  2  0  0  0
 22 23  1  0  0  0
 22 25  1  0  0  0
 23 24  2  0  0  0
 25 26  1  0  0  0
 12 13  2  0  0  0
 12 17  1  0  0  0
 13 14  1  0  0  0
 14 15  2  0  0  0
 15 16  1  0  0  0
 15 18  1  0  0  0
 16 17  2  0  0  0
 10 11  1  0  0  0
M  END
> <minimizedAffinity>
-6.87234

$$$$
1226


 24 27  0  0  0  0  0  0  0  0999 V2000
  -40.4033  -68.6169   52.3641 S   0  0  0  0  0  0  0  0  0  0  0  0
  -40.2508  -69.3376   54.0226 C   0  0  0  0  0  0  0  0  0  0  0  0
  -40.7453  -68.2664   54.9996 C   0  0  0  0  0  0  0  0  0  0  0  0
  -42.2442  -68.0476   54.7392 C   0  0  0  0  0  0  0  0  0  0  0  0
  -42.3695  -67.0998   53.6253 N   0  0  0  0  0  0  0  0  0  0  0  0
  -43.2050  -65.9941   53.3887 C   0  0  0  0  0  0  0  0  0  0  0  0
  -42.5595  -65.2633   52.2161 C   0  0  0  0  0  0  0  0  0  0  0  0
  -41.5578  -66.1695   51.7447 N   0  0  0  0  0  0  0  0  0  0  0  0
  -41.4926  -67.1809   52.5105 C   0  0  0  0  0  0  0  0  0  0  0  0
  -43.1183  -65.1014   54.4804 O   0  0  0  0  0  0  0  0  0  0  0  0
  -43.5536  -65.5597   55.2458 H   0  0  0  0  0  0  0  0  0  0  0  0
  -44.6169  -66.2191   53.0854 C   0  0  0  0  0  0  0  0  0  0  0  0
  -45.1635  -65.4326   52.0725 C   0  0  0  0  0  0  0  0  0  0  0  0
  -46.4721  -65.5406   51.6396 C   0  0  0  0  0  0  0  0  0  0  0  0
  -47.3058  -66.4582   52.2174 C   0  0  0  0  0  0  0  0  0  0  0  0
  -46.7821  -67.2483   53.2251 C   0  0  0  0  0  0  0  0  0  0  0  0
  -45.4620  -67.1302   53.6500 C   0  0  0  0  0  0  0  0  0  0  0  0
  -49.1383  -66.6687   51.6522 Br  0  0  0  0  0  0  0  0  0  0  0  0
  -40.7476  -65.8829   50.5932 C   0  0  0  0  0  0  0  0  0  0  0  0
  -39.9089  -64.8161   50.6251 C   0  0  0  0  0  0  0  0  0  0  0  0
  -39.1134  -64.5786   49.5086 C   0  0  0  0  0  0  0  0  0  0  0  0
  -39.1438  -65.3753   48.3862 C   0  0  0  0  0  0  0  0  0  0  0  0
  -40.0139  -66.4462   48.4001 C   0  0  0  0  0  0  0  0  0  0  0  0
  -40.8136  -66.7102   49.4852 C   0  0  0  0  0  0  0  0  0  0  0  0
  1  2  1  0  0  0
  1  9  1  0  0  0
  2  3  1  0  0  0
  3  4  1  0  0  0
  4  5  1  0  0  0
  5  6  1  0  0  0
  5  9  1  0  0  0
  6  7  1  0  0  0
  6 10  1  0  0  0
  6 12  1  0  0  0
  7  8  1  0  0  0
  8  9  2  0  0  0
  8 19  1  0  0  0
 19 20  2  0  0  0
 19 24  1  0  0  0
 20 21  1  0  0  0
 21 22  2  0  0  0
 22 23  1  0  0  0
 23 24  2  0  0  0
 12 13  2  0  0  0
 12 17  1  0  0  0
 13 14  1  0  0  0
 14 15  2  0  0  0
 15 16  1  0  0  0
 15 18  1  0  0  0
 16 17  2  0  0  0
 10 11  1  0  0  0
M  END
> <minimizedAffinity>
-7.82377

$$$$
1231


 37 40  0  0  0  0  0  0  0  0999 V2000
  -41.4926  -65.2419   51.4831 C   0  0  0  0  0  0  0  0  0  0  0  0
  -42.7477  -64.8477   51.7328 N   0  0  0  0  0  0  0  0  0  0  0  0
  -43.0262  -63.9206   50.7991 N   0  0  0  0  0  0  0  0  0  0  0  0
  -42.0277  -63.7366   50.0127 N   0  0  0  0  0  0  0  0  0  0  0  0
  -40.9765  -64.5560   50.3785 C   0  0  0  0  0  0  0  0  0  0  0  0
  -43.7047  -65.2560   52.7068 C   0  0  0  0  0  0  0  0  0  0  0  0
  -43.5275  -65.4348   54.0320 N   0  0  0  0  0  0  0  0  0  0  0  0
  -44.6094  -65.7827   54.6214 O   0  0  0  0  0  0  0  0  0  0  0  0
  -45.5470  -65.8511   53.7297 N   0  0  0  0  0  0  0  0  0  0  0  0
  -45.0404  -65.5296   52.5020 C   0  0  0  0  0  0  0  0  0  0  0  0
  -45.7572  -65.4722   51.2854 N   0  0  0  0  0  0  0  0  0  0  0  0
  -46.7837  -65.5558   51.5092 H   0  0  0  0  0  0  0  0  0  0  0  0
  -45.4834  -66.1866   50.5883 H   0  0  0  0  0  0  0  0  0  0  0  0
  -45.6301  -64.5132   50.8609 H   0  0  0  0  0  0  0  0  0  0  0  0
  -39.7143  -64.6008   49.6871 C   0  0  0  0  0  0  0  0  0  0  0  0
  -39.7443  -64.9883   48.4528 O   0  0  0  0  0  0  0  0  0  0  0  0
  -38.4490  -64.2805   50.1695 N   0  0  0  0  0  0  0  0  0  0  0  0
  -38.1795  -63.9590   51.1146 H   0  0  0  0  0  0  0  0  0  0  0  0
  -37.3056  -64.3910   49.3038 N   0  0  0  0  0  0  0  0  0  0  0  0
  -36.1259  -64.1341   49.7104 C   0  0  0  0  0  0  0  0  0  0  0  0
  -34.9427  -64.2339   48.8671 C   0  0  0  0  0  0  0  0  0  0  0  0
  -34.8185  -63.5065   47.7050 C   0  0  0  0  0  0  0  0  0  0  0  0
  -33.7016  -63.5850   46.8993 C   0  0  0  0  0  0  0  0  0  0  0  0
  -32.6535  -64.4054   47.2286 C   0  0  0  0  0  0  0  0  0  0  0  0
  -32.7457  -65.1620   48.4071 C   0  0  0  0  0  0  0  0  0  0  0  0
  -33.8752  -65.0612   49.1909 C   0  0  0  0  0  0  0  0  0  0  0  0
  -31.5405  -64.4693   46.4039 O   0  0  0  0  0  0  0  0  0  0  0  0
  -33.5754  -62.5546   45.2945 Br  0  0  0  0  0  0  0  0  0  0  0  0
  -31.6608  -65.9628   48.6774 O   0  0  0  0  0  0  0  0  0  0  0  0
  -31.6795  -67.3651   48.7796 C   0  0  0  0  0  0  0  0  0  0  0  0
  -40.7233  -66.2655   52.2077 C   0  0  0  0  0  0  0  0  0  0  0  0
  -40.5022  -67.8388   51.4043 S   0  0  0  0  0  0  0  0  0  0  0  0
  -37.8304  -69.4525   51.7267 S   0  0  0  0  0  0  0  0  0  0  0  0
  -36.2530  -68.9863   50.9499 C   0  0  0  0  0  0  0  0  0  0  0  0
  -36.7503  -68.0063   49.9362 C   0  0  0  0  0  0  0  0  0  0  0  0
  -38.0505  -67.6109   50.1361 N   0  0  0  0  0  0  0  0  0  0  0  0
  -38.7994  -68.1544   50.9585 C   0  0  0  0  0  0  0  0  0  0  0  0
 33 34  1  0  0  0
 33 37  1  0  0  0
 34 35  1  0  0  0
 35 36  1  0  0  0
 36 37  2  0  0  0
 37 32  1  0  0  0
 32 31  1  0  0  0
 31  1  1  0  0  0
  1  2  1  0  0  0
  1  5  2  0  0  0
  2  3  1  0  0  0
  2  6  1  0  0  0
  3  4  2  0  0  0
  4  5  1  0  0  0
  5 15  1  0  0  0
 15 16  2  0  0  0
 15 17  1  0  0  0
 17 19  1  0  0  0
 19 20  2  0  0  0
 20 21  1  0  0  0
 21 22  2  0  0  0
 21 26  1  0  0  0
 22 23  1  0  0  0
 23 24  2  0  0  0
 23 28  1  0  0  0
 24 25  1  0  0  0
 24 27  1  0  0  0
 25 26  2  0  0  0
 25 29  1  0  0  0
 29 30  1  0  0  0
  6  7  2  0  0  0
  6 10  1  0  0  0
  7  8  1  0  0  0
  8  9  1  0  0  0
  9 10  2  0  0  0
 10 11  1  0  0  0
 17 18  1  0  0  0
 11 12  1  0  0  0
 11 13  1  0  0  0
 11 14  1  0  0  0
M  CHG 1  11   1
M  CHG 1  27  -1
M  END
> <minimizedAffinity>
-7.55452

$$$$
1236


 30 34  0  0  0  0  0  0  0  0999 V2000
  -37.2505  -64.4903   49.1535 C   0  0  0  0  0  0  0  0  0  0  0  0
  -40.9082  -61.5094   47.6780 S   0  0  0  0  0  0  0  0  0  0  0  0
  -41.3448  -62.4859   46.1608 C   0  0  0  0  0  0  0  0  0  0  0  0
  -40.1567  -63.4131   46.1867 C   0  0  0  0  0  0  0  0  0  0  0  0
  -39.8898  -63.8444   47.5297 N   0  0  0  0  0  0  0  0  0  0  0  0
  -40.2078  -62.9058   48.5331 C   0  0  0  0  0  0  0  0  0  0  0  0
  -39.9990  -63.1567   49.7551 N   0  0  0  0  0  0  0  0  0  0  0  0
  -39.4042  -64.3891   50.2068 C   0  0  0  0  0  0  0  0  0  0  0  0
  -39.5509  -64.8335   51.3720 O   0  0  0  0  0  0  0  0  0  0  0  0
  -38.5840  -65.1478   49.2230 C   0  0  0  0  0  0  0  0  0  0  0  0
  -39.3165  -65.1143   47.9364 C   0  0  0  0  0  0  0  0  0  0  0  0
  -39.4783  -66.0988   47.1756 O   0  0  0  0  0  0  0  0  0  0  0  0
  -36.8564  -64.0532   47.7643 C   0  0  0  0  0  0  0  0  0  0  0  0
  -35.8317  -64.8984   47.1302 C   0  0  0  0  0  0  0  0  0  0  0  0
  -36.1548  -66.0413   46.6507 O   0  0  0  0  0  0  0  0  0  0  0  0
  -34.4577  -64.4437   47.0480 N   0  0  0  0  0  0  0  0  0  0  0  0
  -33.3148  -65.2331   46.6812 C   0  0  0  0  0  0  0  0  0  0  0  0
  -32.0743  -64.7334   47.3789 C   0  0  0  0  0  0  0  0  0  0  0  0
  -32.4051  -62.9230   47.1552 S   0  0  0  0  0  0  0  0  0  0  0  0
  -34.1808  -63.0869   47.3261 C   0  0  0  0  0  0  0  0  0  0  0  0
  -35.0868  -62.2452   47.6432 N   0  0  0  0  0  0  0  0  0  0  0  0
  -36.4696  -62.6203   47.7439 C   0  0  0  0  0  0  0  0  0  0  0  0
  -37.3239  -61.7013   47.8120 O   0  0  0  0  0  0  0  0  0  0  0  0
  -36.2404  -65.3807   49.7676 C   0  0  0  0  0  0  0  0  0  0  0  0
  -36.5292  -66.7151   50.0244 C   0  0  0  0  0  0  0  0  0  0  0  0
  -35.5944  -67.5548   50.5931 C   0  0  0  0  0  0  0  0  0  0  0  0
  -34.3426  -67.0834   50.9205 C   0  0  0  0  0  0  0  0  0  0  0  0
  -34.0620  -65.7749   50.6680 C   0  0  0  0  0  0  0  0  0  0  0  0
  -34.9864  -64.9225   50.1001 C   0  0  0  0  0  0  0  0  0  0  0  0
  -35.9820  -69.3893   50.9492 Br  0  0  0  0  0  0  0  0  0  0  0  0
  2  3  1  0  0  0
  2  6  1  0  0  0
  3  4  1  0  0  0
  4  5  1  0  0  0
  5  6  1  0  0  0
  5 11  1  0  0  0
  6  7  2  0  0  0
  7  8  1  0  0  0
  8  9  2  0  0  0
  8 10  1  0  0  0
 10 11  1  0  0  0
 10  1  1  0  0  0
 11 12  2  0  0  0
  1 13  1  0  0  0
  1 24  1  0  0  0
 13 14  1  0  0  0
 13 22  1  0  0  0
 14 15  2  0  0  0
 14 16  1  0  0  0
 16 17  1  0  0  0
 16 20  1  0  0  0
 17 18  1  0  0  0
 18 19  1  0  0  0
 19 20  1  0  0  0
 20 21  2  0  0  0
 21 22  1  0  0  0
 22 23  2  0  0  0
 24 25  2  0  0  0
 24 29  1  0  0  0
 25 26  1  0  0  0
 26 27  2  0  0  0
 26 30  1  0  0  0
 27 28  1  0  0  0
 28 29  2  0  0  0
M  END
> <minimizedAffinity>
-6.11603

$$$$
1237


 30 34  0  0  0  0  0  0  0  0999 V2000
  -36.4824  -66.1365   49.1852 C   0  0  0  0  0  0  0  0  0  0  0  0
  -41.0037  -63.6128   47.9674 S   0  0  0  0  0  0  0  0  0  0  0  0
  -40.0182  -62.2092   48.6502 C   0  0  0  0  0  0  0  0  0  0  0  0
  -38.7504  -62.4241   47.8853 C   0  0  0  0  0  0  0  0  0  0  0  0
  -38.4631  -63.7991   47.7212 N   0  0  0  0  0  0  0  0  0  0  0  0
  -39.5650  -64.6791   47.6915 C   0  0  0  0  0  0  0  0  0  0  0  0
  -39.4695  -65.9606   47.5319 N   0  0  0  0  0  0  0  0  0  0  0  0
  -38.1728  -66.5849   47.3214 C   0  0  0  0  0  0  0  0  0  0  0  0
  -38.2465  -67.6688   46.6926 O   0  0  0  0  0  0  0  0  0  0  0  0
  -37.0238  -65.8969   47.8391 C   0  0  0  0  0  0  0  0  0  0  0  0
  -37.1663  -64.4186   47.5610 C   0  0  0  0  0  0  0  0  0  0  0  0
  -36.1917  -63.7350   47.1989 O   0  0  0  0  0  0  0  0  0  0  0  0
  -35.0539  -66.3888   49.4149 C   0  0  0  0  0  0  0  0  0  0  0  0
  -34.4320  -66.7447   48.0646 C   0  0  0  0  0  0  0  0  0  0  0  0
  -34.5829  -67.8947   47.5929 O   0  0  0  0  0  0  0  0  0  0  0  0
  -33.6720  -65.7551   47.3332 N   0  0  0  0  0  0  0  0  0  0  0  0
  -33.3114  -65.7846   45.9579 C   0  0  0  0  0  0  0  0  0  0  0  0
  -33.1856  -64.3917   45.3922 C   0  0  0  0  0  0  0  0  0  0  0  0
  -32.3608  -63.6194   46.8635 S   0  0  0  0  0  0  0  0  0  0  0  0
  -33.2110  -64.6316   48.0614 C   0  0  0  0  0  0  0  0  0  0  0  0
  -33.4219  -64.4507   49.3049 N   0  0  0  0  0  0  0  0  0  0  0  0
  -34.1814  -65.4432   50.0582 C   0  0  0  0  0  0  0  0  0  0  0  0
  -34.0108  -65.4101   51.2902 O   0  0  0  0  0  0  0  0  0  0  0  0
  -37.3910  -67.0074   50.0260 C   0  0  0  0  0  0  0  0  0  0  0  0
  -37.0365  -68.2954   50.3480 C   0  0  0  0  0  0  0  0  0  0  0  0
  -37.8888  -69.0559   51.1077 C   0  0  0  0  0  0  0  0  0  0  0  0
  -39.0826  -68.5949   51.5657 C   0  0  0  0  0  0  0  0  0  0  0  0
  -39.4650  -67.3121   51.2602 C   0  0  0  0  0  0  0  0  0  0  0  0
  -38.5983  -66.5388   50.4872 C   0  0  0  0  0  0  0  0  0  0  0  0
  -40.2682  -69.6661   52.6278 Br  0  0  0  0  0  0  0  0  0  0  0  0
  2  3  1  0  0  0
  2  6  1  0  0  0
  3  4  1  0  0  0
  4  5  1  0  0  0
  5  6  1  0  0  0
  5 11  1  0  0  0
  6  7  2  0  0  0
  7  8  1  0  0  0
  8  9  2  0  0  0
  8 10  1  0  0  0
 10 11  1  0  0  0
 10  1  1  0  0  0
 11 12  2  0  0  0
  1 13  1  0  0  0
  1 24  1  0  0  0
 13 14  1  0  0  0
 13 22  1  0  0  0
 14 15  2  0  0  0
 14 16  1  0  0  0
 16 17  1  0  0  0
 16 20  1  0  0  0
 17 18  1  0  0  0
 18 19  1  0  0  0
 19 20  1  0  0  0
 20 21  2  0  0  0
 21 22  1  0  0  0
 22 23  2  0  0  0
 24 25  2  0  0  0
 24 29  1  0  0  0
 25 26  1  0  0  0
 26 27  2  0  0  0
 27 28  1  0  0  0
 27 30  1  0  0  0
 28 29  2  0  0  0
M  END
> <minimizedAffinity>
-6.95756

$$$$
1248


 21 24  0  0  0  0  0  0  0  0999 V2000
  -39.6980  -69.6369   53.7893 S   0  0  0  0  0  0  0  0  0  0  0  0
  -41.1900  -68.9323   54.2661 C   0  0  0  0  0  0  0  0  0  0  0  0
  -41.3272  -67.9729   53.3521 N   0  0  0  0  0  0  0  0  0  0  0  0
  -42.5168  -67.3654   53.6823 C   0  0  0  0  0  0  0  0  0  0  0  0
  -43.0389  -67.9627   54.7525 N   0  0  0  0  0  0  0  0  0  0  0  0
  -42.2451  -68.9389   55.1427 N   0  0  0  0  0  0  0  0  0  0  0  0
  -40.4300  -67.8333   52.4621 N   0  0  0  0  0  0  0  0  0  0  0  0
  -39.3730  -68.6211   52.4336 C   0  0  0  0  0  0  0  0  0  0  0  0
  -38.2315  -68.6408   51.5131 C   0  0  0  0  0  0  0  0  0  0  0  0
  -37.1073  -69.3547   51.6476 N   0  0  0  0  0  0  0  0  0  0  0  0
  -36.2998  -69.1069   50.6036 N   0  0  0  0  0  0  0  0  0  0  0  0
  -36.9076  -68.2247   49.7856 C   0  0  0  0  0  0  0  0  0  0  0  0
  -38.1423  -67.9282   50.3688 C   0  0  0  0  0  0  0  0  0  0  0  0
  -39.3963  -66.7340   49.6218 Br  0  0  0  0  0  0  0  0  0  0  0  0
  -35.3574  -69.5381   50.4661 H   0  0  0  0  0  0  0  0  0  0  0  0
  -43.1367  -66.2266   52.9744 C   0  0  0  0  0  0  0  0  0  0  0  0
  -44.3850  -66.3118   52.4786 N   0  0  0  0  0  0  0  0  0  0  0  0
  -44.9409  -65.2628   51.8325 C   0  0  0  0  0  0  0  0  0  0  0  0
  -44.2413  -64.0983   51.6747 C   0  0  0  0  0  0  0  0  0  0  0  0
  -43.0059  -64.0280   52.1727 N   0  0  0  0  0  0  0  0  0  0  0  0
  -42.4257  -65.0612   52.8218 C   0  0  0  0  0  0  0  0  0  0  0  0
  1  2  1  0  0  0
  1  8  1  0  0  0
  2  3  1  0  0  0
  2  6  2  0  0  0
  3  4  1  0  0  0
  3  7  1  0  0  0
  4  5  2  0  0  0
  4 16  1  0  0  0
  5  6  1  0  0  0
 16 17  2  0  0  0
 16 21  1  0  0  0
 17 18  1  0  0  0
 18 19  2  0  0  0
 19 20  1  0  0  0
 20 21  2  0  0  0
  7  8  2  0  0  0
  8  9  1  0  0  0
  9 10  2  0  0  0
  9 13  1  0  0  0
 10 11  1  0  0  0
 11 12  1  0  0  0
 12 13  2  0  0  0
 13 14  1  0  0  0
 11 15  1  0  0  0
M  END
> <minimizedAffinity>
-7.49141

$$$$
1255


 34 38  0  0  0  0  0  0  0  0999 V2000
  -34.7358  -65.5790   47.6190 C   0  0  0  0  0  0  0  0  0  0  0  0
  -37.8019  -62.6605   45.5532 S   0  0  0  0  0  0  0  0  0  0  0  0
  -36.6982  -63.1071   46.8834 C   0  0  0  0  0  0  0  0  0  0  0  0
  -36.9395  -63.5623   48.0696 N   0  0  0  0  0  0  0  0  0  0  0  0
  -35.8391  -63.8470   48.9637 C   0  0  0  0  0  0  0  0  0  0  0  0
  -35.8784  -63.7855   50.1915 O   0  0  0  0  0  0  0  0  0  0  0  0
  -34.5241  -64.2585   48.3038 C   0  0  0  0  0  0  0  0  0  0  0  0
  -34.3116  -63.1382   47.3340 C   0  0  0  0  0  0  0  0  0  0  0  0
  -33.2545  -62.4453   47.2966 O   0  0  0  0  0  0  0  0  0  0  0  0
  -35.3953  -62.8538   46.4021 N   0  0  0  0  0  0  0  0  0  0  0  0
  -35.3067  -62.3630   45.1275 N   0  0  0  0  0  0  0  0  0  0  0  0
  -36.5126  -62.1601   44.4223 C   0  0  0  0  0  0  0  0  0  0  0  0
  -36.6891  -61.7001   43.1872 C   0  0  0  0  0  0  0  0  0  0  0  0
  -34.3727  -62.1172   44.6417 H   0  0  0  0  0  0  0  0  0  0  0  0
  -33.5512  -66.2469   47.0445 C   0  0  0  0  0  0  0  0  0  0  0  0
  -32.4909  -65.4103   46.5029 C   0  0  0  0  0  0  0  0  0  0  0  0
  -31.4245  -65.2122   47.1786 O   0  0  0  0  0  0  0  0  0  0  0  0
  -32.6061  -64.7856   45.1979 N   0  0  0  0  0  0  0  0  0  0  0  0
  -31.9679  -63.6773   44.7414 N   0  0  0  0  0  0  0  0  0  0  0  0
  -32.2454  -63.2667   43.4136 C   0  0  0  0  0  0  0  0  0  0  0  0
  -31.7672  -62.2482   42.7329 C   0  0  0  0  0  0  0  0  0  0  0  0
  -33.4340  -64.4617   42.8083 S   0  0  0  0  0  0  0  0  0  0  0  0
  -33.4892  -65.4273   44.3062 C   0  0  0  0  0  0  0  0  0  0  0  0
  -34.1576  -66.4870   44.5944 N   0  0  0  0  0  0  0  0  0  0  0  0
  -34.0419  -67.1014   45.8885 C   0  0  0  0  0  0  0  0  0  0  0  0
  -34.3159  -68.2861   46.1289 O   0  0  0  0  0  0  0  0  0  0  0  0
  -31.2653  -63.0882   45.3091 H   0  0  0  0  0  0  0  0  0  0  0  0
  -35.4874  -66.5285   48.4885 C   0  0  0  0  0  0  0  0  0  0  0  0
  -36.7892  -66.8745   48.2087 C   0  0  0  0  0  0  0  0  0  0  0  0
  -37.4878  -67.7497   49.0081 C   0  0  0  0  0  0  0  0  0  0  0  0
  -36.8759  -68.2942   50.1146 C   0  0  0  0  0  0  0  0  0  0  0  0
  -35.5559  -67.9694   50.4348 C   0  0  0  0  0  0  0  0  0  0  0  0
  -34.8898  -67.0884   49.6080 C   0  0  0  0  0  0  0  0  0  0  0  0
  -37.8198  -69.5140   51.2453 Br  0  0  0  0  0  0  0  0  0  0  0  0
  2  3  1  0  0  0
  2 12  1  0  0  0
  3  4  2  0  0  0
  3 10  1  0  0  0
  4  5  1  0  0  0
  5  6  2  0  0  0
  5  7  1  0  0  0
  7  8  1  0  0  0
  7  1  1  0  0  0
  8  9  2  0  0  0
  8 10  1  0  0  0
 10 11  1  0  0  0
 11 12  1  0  0  0
 12 13  2  0  0  0
  1 15  1  0  0  0
  1 28  1  0  0  0
 15 16  1  0  0  0
 15 25  1  0  0  0
 16 17  2  0  0  0
 16 18  1  0  0  0
 18 19  1  0  0  0
 18 23  1  0  0  0
 19 20  1  0  0  0
 20 21  2  0  0  0
 20 22  1  0  0  0
 22 23  1  0  0  0
 23 24  2  0  0  0
 24 25  1  0  0  0
 25 26  2  0  0  0
 28 29  2  0  0  0
 28 33  1  0  0  0
 29 30  1  0  0  0
 30 31  2  0  0  0
 31 32  1  0  0  0
 31 34  1  0  0  0
 32 33  2  0  0  0
 11 14  1  0  0  0
 19 27  1  0  0  0
M  END
> <minimizedAffinity>
-5.79882

$$$$
1256


 30 33  0  0  0  0  0  0  0  0999 V2000
  -34.0119  -66.0976   49.7648 S   0  0  0  0  0  0  0  0  0  0  0  0
  -34.2928  -67.5917   50.5535 C   0  0  0  0  0  0  0  0  0  0  0  0
  -33.4953  -68.4907   51.2103 N   0  0  0  0  0  0  0  0  0  0  0  0
  -34.0123  -69.5944   51.7745 C   0  0  0  0  0  0  0  0  0  0  0  0
  -33.3669  -70.4633   52.3905 O   0  0  0  0  0  0  0  0  0  0  0  0
  -35.3729  -69.7374   51.6375 C   0  0  0  0  0  0  0  0  0  0  0  0
  -36.1739  -68.8474   50.9847 C   0  0  0  0  0  0  0  0  0  0  0  0
  -35.6155  -67.7277   50.4195 N   0  0  0  0  0  0  0  0  0  0  0  0
  -36.2498  -66.8049   49.8064 N   0  0  0  0  0  0  0  0  0  0  0  0
  -35.6460  -65.7583   49.3191 C   0  0  0  0  0  0  0  0  0  0  0  0
  -36.1825  -64.6106   48.6197 N   0  0  0  0  0  0  0  0  0  0  0  0
  -35.7957  -63.3018   48.9843 C   0  0  0  0  0  0  0  0  0  0  0  0
  -36.5614  -62.2835   48.1725 C   0  0  0  0  0  0  0  0  0  0  0  0
  -37.8867  -62.7014   48.0267 O   0  0  0  0  0  0  0  0  0  0  0  0
  -37.9583  -63.7766   47.1326 C   0  0  0  0  0  0  0  0  0  0  0  0
  -37.0996  -64.9205   47.5759 C   0  0  0  0  0  0  0  0  0  0  0  0
  -37.6069  -69.1311   50.9328 C   0  0  0  0  0  0  0  0  0  0  0  0
  -38.0030  -70.3055   50.5915 O   0  0  0  0  0  0  0  0  0  0  0  0
  -38.6218  -68.1980   51.2278 N   0  0  0  0  0  0  0  0  0  0  0  0
  -38.3979  -67.2197   51.4913 H   0  0  0  0  0  0  0  0  0  0  0  0
  -40.0208  -68.6027   51.1542 C   0  0  0  0  0  0  0  0  0  0  0  0
  -40.7435  -68.2203   52.3922 C   0  0  0  0  0  0  0  0  0  0  0  0
  -40.6459  -69.0347   53.5096 C   0  0  0  0  0  0  0  0  0  0  0  0
  -41.3438  -68.7119   54.6465 C   0  0  0  0  0  0  0  0  0  0  0  0
  -42.1444  -67.6024   54.7213 C   0  0  0  0  0  0  0  0  0  0  0  0
  -42.2468  -66.7844   53.6117 C   0  0  0  0  0  0  0  0  0  0  0  0
  -41.5403  -67.1127   52.4662 C   0  0  0  0  0  0  0  0  0  0  0  0
  -43.3356  -65.2167   53.6342 Br  0  0  0  0  0  0  0  0  0  0  0  0
  -39.8394  -70.1475   53.4225 O   0  0  0  0  0  0  0  0  0  0  0  0
  -38.7072  -70.2309   54.2879 C   0  0  0  0  0  0  0  0  0  0  0  0
  1  2  1  0  0  0
  1 10  1  0  0  0
  2  3  2  0  0  0
  2  8  1  0  0  0
  3  4  1  0  0  0
  4  5  2  0  0  0
  4  6  1  0  0  0
  6  7  2  0  0  0
  7  8  1  0  0  0
  7 17  1  0  0  0
  8  9  1  0  0  0
  9 10  2  0  0  0
 10 11  1  0  0  0
 11 12  1  0  0  0
 11 16  1  0  0  0
 12 13  1  0  0  0
 13 14  1  0  0  0
 14 15  1  0  0  0
 15 16  1  0  0  0
 17 18  2  0  0  0
 17 19  1  0  0  0
 19 21  1  0  0  0
 21 22  1  0  0  0
 22 23  2  0  0  0
 22 27  1  0  0  0
 23 24  1  0  0  0
 23 29  1  0  0  0
 24 25  2  0  0  0
 25 26  1  0  0  0
 26 27  2  0  0  0
 26 28  1  0  0  0
 29 30  1  0  0  0
 19 20  1  0  0  0
M  END
> <minimizedAffinity>
-8.55740

$$$$
1265


 24 27  0  0  0  0  0  0  0  0999 V2000
  -38.1755  -67.0560   49.4717 S   0  0  0  0  0  0  0  0  0  0  0  0
  -37.1552  -68.1358   50.4666 C   0  0  0  0  0  0  0  0  0  0  0  0
  -37.2105  -69.1706   51.2401 N   0  0  0  0  0  0  0  0  0  0  0  0
  -35.9320  -69.5249   51.7315 C   0  0  0  0  0  0  0  0  0  0  0  0
  -35.0045  -68.5211   51.1291 C   0  0  0  0  0  0  0  0  0  0  0  0
  -35.8527  -67.6315   50.3006 N   0  0  0  0  0  0  0  0  0  0  0  0
  -35.7202  -66.5140   49.4681 C   0  0  0  0  0  0  0  0  0  0  0  0
  -36.8152  -66.0364   48.9208 C   0  0  0  0  0  0  0  0  0  0  0  0
  -34.4177  -65.8410   49.1528 C   0  0  0  0  0  0  0  0  0  0  0  0
  -33.3666  -66.5340   48.5955 C   0  0  0  0  0  0  0  0  0  0  0  0
  -32.1482  -65.9661   48.2898 C   0  0  0  0  0  0  0  0  0  0  0  0
  -31.9288  -64.6312   48.5411 C   0  0  0  0  0  0  0  0  0  0  0  0
  -32.9568  -63.9217   49.0951 C   0  0  0  0  0  0  0  0  0  0  0  0
  -34.1970  -64.5114   49.4035 C   0  0  0  0  0  0  0  0  0  0  0  0
  -38.4866  -69.8533   51.5188 C   0  0  0  0  0  0  0  0  0  0  0  0
  -38.8001  -69.6146   52.9419 C   0  0  0  0  0  0  0  0  0  0  0  0
  -38.1154  -70.1237   53.8521 O   0  0  0  0  0  0  0  0  0  0  0  0
  -39.9284  -68.7712   53.3090 C   0  0  0  0  0  0  0  0  0  0  0  0
  -40.4512  -68.7932   54.6034 C   0  0  0  0  0  0  0  0  0  0  0  0
  -41.5268  -68.0090   54.9767 C   0  0  0  0  0  0  0  0  0  0  0  0
  -42.0777  -67.1923   54.0252 C   0  0  0  0  0  0  0  0  0  0  0  0
  -41.5962  -67.1337   52.7303 C   0  0  0  0  0  0  0  0  0  0  0  0
  -40.5086  -67.9355   52.3778 C   0  0  0  0  0  0  0  0  0  0  0  0
  -43.5688  -66.1075   54.5535 Br  0  0  0  0  0  0  0  0  0  0  0  0
  1  2  1  0  0  0
  1  8  1  0  0  0
  2  3  2  0  0  0
  2  6  1  0  0  0
  3  4  1  0  0  0
  3 15  1  0  0  0
  4  5  1  0  0  0
  5  6  1  0  0  0
  6  7  1  0  0  0
  7  8  2  0  0  0
  7  9  1  0  0  0
  9 10  2  0  0  0
  9 14  1  0  0  0
 10 11  1  0  0  0
 11 12  2  0  0  0
 12 13  1  0  0  0
 13 14  2  0  0  0
 15 16  1  0  0  0
 16 17  2  0  0  0
 16 18  1  0  0  0
 18 19  2  0  0  0
 18 23  1  0  0  0
 19 20  1  0  0  0
 20 21  2  0  0  0
 21 22  1  0  0  0
 21 24  1  0  0  0
 22 23  2  0  0  0
M  END
> <minimizedAffinity>
-8.16699

$$$$
1266


 28 31  0  0  0  0  0  0  0  0999 V2000
  -46.8643  -64.9416   53.0483 C   0  0  0  0  0  0  0  0  0  0  0  0
  -46.8354  -64.9564   51.5909 N   0  0  0  0  0  0  0  0  0  0  0  0
  -45.6142  -64.9951   50.9347 C   0  0  0  0  0  0  0  0  0  0  0  0
  -44.4123  -65.5917   51.6364 C   0  0  0  0  0  0  0  0  0  0  0  0
  -44.4734  -65.5017   53.0300 N   0  0  0  0  0  0  0  0  0  0  0  0
  -45.5363  -64.7446   53.6189 C   0  0  0  0  0  0  0  0  0  0  0  0
  -43.5735  -66.0986   53.9501 C   0  0  0  0  0  0  0  0  0  0  0  0
  -43.8033  -65.7075   55.1823 O   0  0  0  0  0  0  0  0  0  0  0  0
  -47.5274  -65.6394   51.2216 H   0  0  0  0  0  0  0  0  0  0  0  0
  -42.5039  -67.0189   53.8090 C   0  0  0  0  0  0  0  0  0  0  0  0
  -42.5984  -68.2364   54.5263 C   0  0  0  0  0  0  0  0  0  0  0  0
  -41.7078  -69.2119   54.3499 N   0  0  0  0  0  0  0  0  0  0  0  0
  -40.6901  -69.0903   53.4956 C   0  0  0  0  0  0  0  0  0  0  0  0
  -40.5465  -67.9367   52.7736 C   0  0  0  0  0  0  0  0  0  0  0  0
  -41.4557  -66.8926   52.9293 C   0  0  0  0  0  0  0  0  0  0  0  0
  -39.4797  -67.8082   51.8291 N   0  0  0  0  0  0  0  0  0  0  0  0
  -38.5804  -68.9057   51.6635 C   0  0  0  0  0  0  0  0  0  0  0  0
  -37.9087  -69.1165   50.6331 O   0  0  0  0  0  0  0  0  0  0  0  0
  -38.4488  -69.8557   52.8108 C   0  0  0  0  0  0  0  0  0  0  0  0
  -39.7625  -70.1244   53.3265 O   0  0  0  0  0  0  0  0  0  0  0  0
  -39.3512  -66.9534   51.2670 H   0  0  0  0  0  0  0  0  0  0  0  0
  -49.7329  -64.6887   53.5597 Cl  0  0  0  0  0  0  0  0  0  0  0  0
  -48.8996  -66.2557   53.6189 C   0  0  0  0  0  0  0  0  0  0  0  0
  -47.5093  -66.2491   53.4236 C   0  0  0  0  0  0  0  0  0  0  0  0
  -46.8712  -67.4539   53.4724 C   0  0  0  0  0  0  0  0  0  0  0  0
  -47.5848  -68.6163   53.7063 C   0  0  0  0  0  0  0  0  0  0  0  0
  -48.9554  -68.6255   53.8996 C   0  0  0  0  0  0  0  0  0  0  0  0
  -49.6224  -67.4057   53.8523 C   0  0  0  0  0  0  0  0  0  0  0  0
 22 23  1  0  0  0
 23 24  2  0  0  0
 23 28  1  0  0  0
 24 25  1  0  0  0
 24  1  1  0  0  0
 25 26  2  0  0  0
 26 27  1  0  0  0
 27 28  2  0  0  0
  1  2  1  0  0  0
  1  6  1  0  0  0
  2  3  1  0  0  0
  3  4  1  0  0  0
  4  5  1  0  0  0
  5  6  1  0  0  0
  5  7  1  0  0  0
  7  8  2  0  0  0
  7 10  1  0  0  0
 10 11  2  0  0  0
 10 15  1  0  0  0
 11 12  1  0  0  0
 12 13  2  0  0  0
 13 14  1  0  0  0
 13 20  1  0  0  0
 14 15  2  0  0  0
 14 16  1  0  0  0
 16 17  1  0  0  0
 17 18  2  0  0  0
 17 19  1  0  0  0
 19 20  1  0  0  0
  2  9  1  0  0  0
 16 21  1  0  0  0
M  END
> <minimizedAffinity>
-7.88617

$$$$
1271


 35 38  0  0  0  0  0  0  0  0999 V2000
  -33.9603  -67.0846   49.7282 C   0  0  0  0  0  0  0  0  0  0  0  0
  -32.7668  -67.5705   49.3624 N   0  0  0  0  0  0  0  0  0  0  0  0
  -32.0837  -66.5620   48.8847 N   0  0  0  0  0  0  0  0  0  0  0  0
  -32.8054  -65.4453   48.9336 N   0  0  0  0  0  0  0  0  0  0  0  0
  -33.9941  -65.7086   49.4535 C   0  0  0  0  0  0  0  0  0  0  0  0
  -32.3439  -64.1930   48.4636 C   0  0  0  0  0  0  0  0  0  0  0  0
  -32.3217  -63.0727   49.2386 N   0  0  0  0  0  0  0  0  0  0  0  0
  -31.8522  -62.1063   48.5146 O   0  0  0  0  0  0  0  0  0  0  0  0
  -31.5679  -62.5031   47.3268 N   0  0  0  0  0  0  0  0  0  0  0  0
  -31.8604  -63.8082   47.2481 C   0  0  0  0  0  0  0  0  0  0  0  0
  -31.7091  -64.6510   46.1367 N   0  0  0  0  0  0  0  0  0  0  0  0
  -32.1361  -64.5090   45.1952 H   0  0  0  0  0  0  0  0  0  0  0  0
  -31.1208  -65.5066   46.2357 H   0  0  0  0  0  0  0  0  0  0  0  0
  -36.2150  -68.1933   49.6369 N   0  0  0  0  0  0  0  0  0  0  0  0
  -35.0173  -67.8821   50.3224 C   0  0  0  0  0  0  0  0  0  0  0  0
  -34.8562  -68.3105   51.4880 O   0  0  0  0  0  0  0  0  0  0  0  0
  -36.4074  -67.8559   48.6560 H   0  0  0  0  0  0  0  0  0  0  0  0
  -37.2213  -68.9667   50.2157 N   0  0  0  0  0  0  0  0  0  0  0  0
  -37.2251  -69.9991   50.2734 H   0  0  0  0  0  0  0  0  0  0  0  0
  -38.3572  -68.2837   50.7880 C   0  0  0  0  0  0  0  0  0  0  0  0
  -38.8707  -67.2702   50.1373 C   0  0  0  0  0  0  0  0  0  0  0  0
  -42.0491  -67.7768   54.5855 Br  0  0  0  0  0  0  0  0  0  0  0  0
  -40.5054  -68.5817   53.8193 C   0  0  0  0  0  0  0  0  0  0  0  0
  -40.0015  -68.1473   52.6179 C   0  0  0  0  0  0  0  0  0  0  0  0
  -38.8683  -68.7419   52.0647 C   0  0  0  0  0  0  0  0  0  0  0  0
  -38.2997  -69.7614   52.7710 C   0  0  0  0  0  0  0  0  0  0  0  0
  -38.8071  -70.2057   53.9922 C   0  0  0  0  0  0  0  0  0  0  0  0
  -39.9140  -69.6173   54.5222 C   0  0  0  0  0  0  0  0  0  0  0  0
  -35.1653  -64.8980   49.6972 C   0  0  0  0  0  0  0  0  0  0  0  0
  -36.2714  -65.0726   48.7761 N   0  0  0  0  0  0  0  0  0  0  0  0
  -37.1339  -63.8948   48.7744 C   0  0  0  0  0  0  0  0  0  0  0  0
  -36.3389  -62.6133   48.6562 C   0  0  0  0  0  0  0  0  0  0  0  0
  -35.4885  -62.6462   47.3989 C   0  0  0  0  0  0  0  0  0  0  0  0
  -35.7091  -63.9206   46.6344 C   0  0  0  0  0  0  0  0  0  0  0  0
  -35.7557  -65.1731   47.4139 C   0  0  0  0  0  0  0  0  0  0  0  0
 22 23  1  0  0  0
 23 24  2  0  0  0
 23 28  1  0  0  0
 24 25  1  0  0  0
 25 26  2  0  0  0
 25 20  1  0  0  0
 26 27  1  0  0  0
 27 28  2  0  0  0
 20 21  2  0  0  0
 20 18  1  0  0  0
 18 14  1  0  0  0
 14 15  1  0  0  0
 15 16  2  0  0  0
 15  1  1  0  0  0
  1  2  1  0  0  0
  1  5  2  0  0  0
  2  3  2  0  0  0
  3  4  1  0  0  0
  4  5  1  0  0  0
  4  6  1  0  0  0
  5 29  1  0  0  0
 29 30  1  0  0  0
 30 31  1  0  0  0
 30 35  1  0  0  0
 31 32  1  0  0  0
 32 33  1  0  0  0
 33 34  1  0  0  0
 34 35  1  0  0  0
  6  7  2  0  0  0
  6 10  1  0  0  0
  7  8  1  0  0  0
  8  9  1  0  0  0
  9 10  2  0  0  0
 10 11  1  0  0  0
 18 19  1  0  0  0
 14 17  1  0  0  0
 11 12  1  0  0  0
 11 13  1  0  0  0
M  END
> <minimizedAffinity>
-8.77635

$$$$
1280


 35 38  0  0  0  0  0  0  0  0999 V2000
  -42.1963  -66.7158   51.5080 C   0  0  0  0  0  0  0  0  0  0  0  0
  -43.2266  -65.7871   51.9281 N   0  0  0  0  0  0  0  0  0  0  0  0
  -42.5663  -64.6454   52.4467 C   0  0  0  0  0  0  0  0  0  0  0  0
  -43.0339  -63.8666   53.2838 O   0  0  0  0  0  0  0  0  0  0  0  0
  -41.2476  -64.5928   51.7921 C   0  0  0  0  0  0  0  0  0  0  0  0
  -40.3442  -63.7372   51.9551 O   0  0  0  0  0  0  0  0  0  0  0  0
  -41.2168  -65.7501   50.9066 C   0  0  0  0  0  0  0  0  0  0  0  0
  -40.4911  -65.8550   49.8024 C   0  0  0  0  0  0  0  0  0  0  0  0
  -40.6611  -67.0569   49.0755 O   0  0  0  0  0  0  0  0  0  0  0  0
  -38.4858  -70.1054   53.3683 Br  0  0  0  0  0  0  0  0  0  0  0  0
  -40.0180  -68.9705   53.6074 C   0  0  0  0  0  0  0  0  0  0  0  0
  -40.5597  -68.2765   52.5193 C   0  0  0  0  0  0  0  0  0  0  0  0
  -41.6650  -67.4505   52.6654 C   0  0  0  0  0  0  0  0  0  0  0  0
  -42.1967  -67.3489   53.9214 C   0  0  0  0  0  0  0  0  0  0  0  0
  -41.6725  -68.0294   55.0129 C   0  0  0  0  0  0  0  0  0  0  0  0
  -40.5777  -68.8448   54.8525 C   0  0  0  0  0  0  0  0  0  0  0  0
  -39.5679  -64.8288   49.3307 C   0  0  0  0  0  0  0  0  0  0  0  0
  -39.9293  -63.7536   48.5747 C   0  0  0  0  0  0  0  0  0  0  0  0
  -38.9643  -62.8368   48.1196 C   0  0  0  0  0  0  0  0  0  0  0  0
  -37.6321  -62.9677   48.4048 C   0  0  0  0  0  0  0  0  0  0  0  0
  -37.2645  -64.0534   49.1705 C   0  0  0  0  0  0  0  0  0  0  0  0
  -38.1958  -64.9527   49.6194 C   0  0  0  0  0  0  0  0  0  0  0  0
  -41.3550  -63.5038   48.2580 C   0  0  0  0  0  0  0  0  0  0  0  0
  -36.6714  -62.0609   47.9571 O   0  0  0  0  0  0  0  0  0  0  0  0
  -35.3884  -62.0377   48.5275 C   0  0  0  0  0  0  0  0  0  0  0  0
  -44.6480  -66.0402   51.8188 C   0  0  0  0  0  0  0  0  0  0  0  0
  -45.2960  -66.3991   53.1188 C   0  0  0  0  0  0  0  0  0  0  0  0
  -46.5372  -65.6616   53.4499 C   0  0  0  0  0  0  0  0  0  0  0  0
  -47.5762  -66.4354   54.0304 N   0  0  0  0  0  0  0  0  0  0  0  0
  -48.9273  -65.9708   53.6751 C   0  0  0  0  0  0  0  0  0  0  0  0
  -49.8393  -66.5028   54.7826 C   0  0  0  0  0  0  0  0  0  0  0  0
  -49.2035  -67.4438   55.5723 O   0  0  0  0  0  0  0  0  0  0  0  0
  -48.6086  -68.4334   54.7892 C   0  0  0  0  0  0  0  0  0  0  0  0
  -47.5608  -67.8388   53.8303 C   0  0  0  0  0  0  0  0  0  0  0  0
  -47.5201  -66.2807   55.0831 H   0  0  0  0  0  0  0  0  0  0  0  0
 10 11  1  0  0  0
 11 12  2  0  0  0
 11 16  1  0  0  0
 12 13  1  0  0  0
 13 14  2  0  0  0
 13  1  1  0  0  0
 14 15  1  0  0  0
 15 16  2  0  0  0
  1  2  1  0  0  0
  1  7  1  0  0  0
  2  3  1  0  0  0
  2 26  1  0  0  0
  3  4  2  0  0  0
  3  5  1  0  0  0
  5  6  2  0  0  0
  5  7  1  0  0  0
  7  8  2  0  0  0
  8  9  1  0  0  0
  8 17  1  0  0  0
 17 18  2  0  0  0
 17 22  1  0  0  0
 18 19  1  0  0  0
 18 23  1  0  0  0
 19 20  2  0  0  0
 20 21  1  0  0  0
 20 24  1  0  0  0
 21 22  2  0  0  0
 24 25  1  0  0  0
 26 27  1  0  0  0
 27 28  1  0  0  0
 28 29  1  0  0  0
 29 30  1  0  0  0
 29 34  1  0  0  0
 30 31  1  0  0  0
 31 32  1  0  0  0
 32 33  1  0  0  0
 33 34  1  0  0  0
 29 35  1  0  0  0
M  CHG 1   9  -1
M  CHG 1  29   1
M  END
> <minimizedAffinity>
-8.75316

$$$$
1282


 30 33  0  0  0  0  0  0  0  0999 V2000
  -45.7470  -66.7604   53.3633 C   0  0  0  0  0  0  0  0  0  0  0  0
  -44.5019  -67.3523   53.9951 C   0  0  0  0  0  0  0  0  0  0  0  0
  -43.4498  -66.9351   53.0889 N   0  0  0  0  0  0  0  0  0  0  0  0
  -43.9506  -65.9899   52.1118 C   0  0  0  0  0  0  0  0  0  0  0  0
  -45.2194  -65.4707   52.8015 C   0  0  0  0  0  0  0  0  0  0  0  0
  -42.9577  -64.9314   51.9355 C   0  0  0  0  0  0  0  0  0  0  0  0
  -43.2587  -63.7341   52.0490 O   0  0  0  0  0  0  0  0  0  0  0  0
  -41.6273  -65.3152   51.6271 N   0  0  0  0  0  0  0  0  0  0  0  0
  -41.1438  -66.6099   52.0509 C   0  0  0  0  0  0  0  0  0  0  0  0
  -42.0607  -67.2833   52.9979 C   0  0  0  0  0  0  0  0  0  0  0  0
  -41.6216  -68.1906   53.7526 O   0  0  0  0  0  0  0  0  0  0  0  0
  -40.9708  -64.6951   51.1012 H   0  0  0  0  0  0  0  0  0  0  0  0
  -47.8554  -67.4894   54.3662 C   0  0  0  0  0  0  0  0  0  0  0  0
  -47.8550  -68.4662   53.5299 O   0  0  0  0  0  0  0  0  0  0  0  0
  -46.7971  -66.5587   54.3454 N   0  0  0  0  0  0  0  0  0  0  0  0
  -46.7943  -65.7716   55.0085 H   0  0  0  0  0  0  0  0  0  0  0  0
  -50.4724  -69.6506   58.4574 Br  0  0  0  0  0  0  0  0  0  0  0  0
  -50.1990  -68.2812   57.1491 C   0  0  0  0  0  0  0  0  0  0  0  0
  -49.1649  -68.3761   56.2596 C   0  0  0  0  0  0  0  0  0  0  0  0
  -48.9589  -67.3866   55.3059 C   0  0  0  0  0  0  0  0  0  0  0  0
  -49.8118  -66.3277   55.2877 C   0  0  0  0  0  0  0  0  0  0  0  0
  -50.8569  -66.2407   56.1940 C   0  0  0  0  0  0  0  0  0  0  0  0
  -51.0589  -67.2204   57.1346 C   0  0  0  0  0  0  0  0  0  0  0  0
  -40.7747  -67.5020   50.8848 C   0  0  0  0  0  0  0  0  0  0  0  0
  -39.3818  -67.9762   50.9342 C   0  0  0  0  0  0  0  0  0  0  0  0
  -38.4359  -67.4205   50.0918 C   0  0  0  0  0  0  0  0  0  0  0  0
  -37.1322  -67.8582   50.1318 C   0  0  0  0  0  0  0  0  0  0  0  0
  -36.7050  -68.8516   50.9924 C   0  0  0  0  0  0  0  0  0  0  0  0
  -37.6454  -69.4075   51.8332 C   0  0  0  0  0  0  0  0  0  0  0  0
  -38.9589  -68.9807   51.8071 C   0  0  0  0  0  0  0  0  0  0  0  0
 17 18  1  0  0  0
 18 19  2  0  0  0
 18 23  1  0  0  0
 19 20  1  0  0  0
 20 21  2  0  0  0
 20 13  1  0  0  0
 21 22  1  0  0  0
 22 23  2  0  0  0
 13 14  2  0  0  0
 13 15  1  0  0  0
 15  1  1  0  0  0
  1  2  1  0  0  0
  1  5  1  0  0  0
  2  3  1  0  0  0
  3  4  1  0  0  0
  3 10  1  0  0  0
  4  5  1  0  0  0
  4  6  1  0  0  0
  6  7  2  0  0  0
  6  8  1  0  0  0
  8  9  1  0  0  0
  9 10  1  0  0  0
  9 24  1  0  0  0
 10 11  2  0  0  0
 24 25  1  0  0  0
 25 26  2  0  0  0
 25 30  1  0  0  0
 26 27  1  0  0  0
 27 28  2  0  0  0
 28 29  1  0  0  0
 29 30  2  0  0  0
 15 16  1  0  0  0
  8 12  1  0  0  0
M  END
> <minimizedAffinity>
-8.44050

$$$$
1284


 35 38  0  0  0  0  0  0  0  0999 V2000
  -36.6692  -66.0551   47.6572 C   0  0  0  0  0  0  0  0  0  0  0  0
  -35.6044  -66.8719   48.1059 N   0  0  0  0  0  0  0  0  0  0  0  0
  -36.0047  -67.5862   49.2638 C   0  0  0  0  0  0  0  0  0  0  0  0
  -35.2458  -68.3315   49.9584 O   0  0  0  0  0  0  0  0  0  0  0  0
  -37.4073  -67.3247   49.5037 C   0  0  0  0  0  0  0  0  0  0  0  0
  -38.0192  -67.8369   50.4797 O   0  0  0  0  0  0  0  0  0  0  0  0
  -37.8632  -66.4253   48.4612 C   0  0  0  0  0  0  0  0  0  0  0  0
  -39.1000  -66.0027   48.3288 C   0  0  0  0  0  0  0  0  0  0  0  0
  -39.3957  -65.0960   47.3372 O   0  0  0  0  0  0  0  0  0  0  0  0
  -35.4717  -61.6185   44.9699 Br  0  0  0  0  0  0  0  0  0  0  0  0
  -35.7915  -62.5773   46.5895 C   0  0  0  0  0  0  0  0  0  0  0  0
  -36.0944  -63.9037   46.6390 C   0  0  0  0  0  0  0  0  0  0  0  0
  -36.3336  -64.6337   47.7906 C   0  0  0  0  0  0  0  0  0  0  0  0
  -36.2572  -63.9533   49.0029 C   0  0  0  0  0  0  0  0  0  0  0  0
  -35.9507  -62.6061   48.9896 C   0  0  0  0  0  0  0  0  0  0  0  0
  -35.7176  -61.9042   47.8198 C   0  0  0  0  0  0  0  0  0  0  0  0
  -40.1493  -66.4769   49.1964 C   0  0  0  0  0  0  0  0  0  0  0  0
  -40.5456  -65.8255   50.3778 C   0  0  0  0  0  0  0  0  0  0  0  0
  -41.5641  -66.4977   50.9280 N   0  0  0  0  0  0  0  0  0  0  0  0
  -41.8144  -67.5305   50.1445 N   0  0  0  0  0  0  0  0  0  0  0  0
  -40.9859  -67.5530   49.0899 C   0  0  0  0  0  0  0  0  0  0  0  0
  -39.9044  -64.5821   50.8955 C   0  0  0  0  0  0  0  0  0  0  0  0
  -42.2666  -66.1719   52.1189 C   0  0  0  0  0  0  0  0  0  0  0  0
  -42.0959  -66.9773   53.2370 C   0  0  0  0  0  0  0  0  0  0  0  0
  -42.7386  -66.7141   54.4303 C   0  0  0  0  0  0  0  0  0  0  0  0
  -43.5921  -65.6176   54.5596 C   0  0  0  0  0  0  0  0  0  0  0  0
  -43.7622  -64.8151   53.4456 C   0  0  0  0  0  0  0  0  0  0  0  0
  -43.1127  -65.0981   52.2718 C   0  0  0  0  0  0  0  0  0  0  0  0
  -34.2607  -67.0142   47.4778 C   0  0  0  0  0  0  0  0  0  0  0  0
  -33.2613  -66.1696   48.2253 C   0  0  0  0  0  0  0  0  0  0  0  0
  -32.2945  -65.4586   47.3322 C   0  0  0  0  0  0  0  0  0  0  0  0
  -31.9166  -64.1433   47.7314 N   0  0  0  0  0  0  0  0  0  0  0  0
  -32.1770  -63.0970   46.7982 C   0  0  0  0  0  0  0  0  0  0  0  0
  -32.5811  -63.7871   48.9955 C   0  0  0  0  0  0  0  0  0  0  0  0
  -30.8791  -64.1287   47.9708 H   0  0  0  0  0  0  0  0  0  0  0  0
 10 11  1  0  0  0
 11 12  2  0  0  0
 11 16  1  0  0  0
 12 13  1  0  0  0
 13 14  2  0  0  0
 13  1  1  0  0  0
 14 15  1  0  0  0
 15 16  2  0  0  0
  1  2  1  0  0  0
  1  7  1  0  0  0
  2  3  1  0  0  0
  2 29  1  0  0  0
  3  4  2  0  0  0
  3  5  1  0  0  0
  5  6  2  0  0  0
  5  7  1  0  0  0
  7  8  2  0  0  0
  8  9  1  0  0  0
  8 17  1  0  0  0
 17 18  2  0  0  0
 17 21  1  0  0  0
 18 19  1  0  0  0
 18 22  1  0  0  0
 19 20  1  0  0  0
 19 23  1  0  0  0
 20 21  2  0  0  0
 23 24  2  0  0  0
 23 28  1  0  0  0
 24 25  1  0  0  0
 25 26  2  0  0  0
 26 27  1  0  0  0
 27 28  2  0  0  0
 29 30  1  0  0  0
 30 31  1  0  0  0
 31 32  1  0  0  0
 32 33  1  0  0  0
 32 34  1  0  0  0
 32 35  1  0  0  0
M  CHG 1   9  -1
M  CHG 1  32   1
M  END
> <minimizedAffinity>
-7.21219

$$$$
1285


 34 37  0  0  0  0  0  0  0  0999 V2000
  -42.2847  -66.6947   51.3498 C   0  0  0  0  0  0  0  0  0  0  0  0
  -43.2936  -65.7993   51.8814 N   0  0  0  0  0  0  0  0  0  0  0  0
  -42.6350  -64.5803   52.2892 C   0  0  0  0  0  0  0  0  0  0  0  0
  -43.0158  -63.7564   53.1290 O   0  0  0  0  0  0  0  0  0  0  0  0
  -41.4150  -64.5350   51.4887 C   0  0  0  0  0  0  0  0  0  0  0  0
  -40.5024  -63.6560   51.4914 O   0  0  0  0  0  0  0  0  0  0  0  0
  -41.3890  -65.7133   50.6378 C   0  0  0  0  0  0  0  0  0  0  0  0
  -40.7053  -65.9104   49.5223 C   0  0  0  0  0  0  0  0  0  0  0  0
  -40.8062  -67.1899   48.9055 O   0  0  0  0  0  0  0  0  0  0  0  0
  -39.8924  -64.8742   48.9356 C   0  0  0  0  0  0  0  0  0  0  0  0
  -38.5505  -64.7352   48.9799 N   0  0  0  0  0  0  0  0  0  0  0  0
  -38.2091  -63.6367   48.2628 C   0  0  0  0  0  0  0  0  0  0  0  0
  -39.3347  -63.0643   47.7532 N   0  0  0  0  0  0  0  0  0  0  0  0
  -40.3647  -63.8353   48.1751 C   0  0  0  0  0  0  0  0  0  0  0  0
  -41.7927  -63.5703   47.8468 C   0  0  0  0  0  0  0  0  0  0  0  0
  -36.9264  -63.1815   48.0999 C   0  0  0  0  0  0  0  0  0  0  0  0
  -35.9151  -63.8902   48.7101 C   0  0  0  0  0  0  0  0  0  0  0  0
  -36.2578  -65.0082   49.4431 C   0  0  0  0  0  0  0  0  0  0  0  0
  -37.5570  -65.4195   49.5721 C   0  0  0  0  0  0  0  0  0  0  0  0
  -36.6077  -61.9658   47.2966 C   0  0  0  0  0  0  0  0  0  0  0  0
  -38.0092  -69.6607   52.2822 Br  0  0  0  0  0  0  0  0  0  0  0  0
  -39.6085  -68.7871   52.8552 C   0  0  0  0  0  0  0  0  0  0  0  0
  -40.3554  -68.0836   51.9623 C   0  0  0  0  0  0  0  0  0  0  0  0
  -41.5283  -67.4386   52.3659 C   0  0  0  0  0  0  0  0  0  0  0  0
  -41.8967  -67.5392   53.6900 C   0  0  0  0  0  0  0  0  0  0  0  0
  -41.1335  -68.2576   54.6021 C   0  0  0  0  0  0  0  0  0  0  0  0
  -39.9854  -68.8812   54.1731 C   0  0  0  0  0  0  0  0  0  0  0  0
  -44.7173  -66.0650   51.9984 C   0  0  0  0  0  0  0  0  0  0  0  0
  -45.1700  -66.3861   53.3813 C   0  0  0  0  0  0  0  0  0  0  0  0
  -46.0521  -67.6043   53.4917 C   0  0  0  0  0  0  0  0  0  0  0  0
  -47.2458  -67.2765   54.2353 N   0  0  0  0  0  0  0  0  0  0  0  0
  -47.9972  -66.2364   53.5573 C   0  0  0  0  0  0  0  0  0  0  0  0
  -48.0996  -68.4476   54.2700 C   0  0  0  0  0  0  0  0  0  0  0  0
  -47.0445  -67.0325   55.2292 H   0  0  0  0  0  0  0  0  0  0  0  0
 21 22  1  0  0  0
 22 23  2  0  0  0
 22 27  1  0  0  0
 23 24  1  0  0  0
 24 25  2  0  0  0
 24  1  1  0  0  0
 25 26  1  0  0  0
 26 27  2  0  0  0
  1  2  1  0  0  0
  1  7  1  0  0  0
  2  3  1  0  0  0
  2 28  1  0  0  0
  3  4  2  0  0  0
  3  5  1  0  0  0
  5  6  2  0  0  0
  5  7  1  0  0  0
  7  8  2  0  0  0
  8  9  1  0  0  0
  8 10  1  0  0  0
 10 11  1  0  0  0
 10 14  2  0  0  0
 11 12  1  0  0  0
 11 19  1  0  0  0
 12 13  2  0  0  0
 12 16  1  0  0  0
 13 14  1  0  0  0
 14 15  1  0  0  0
 16 17  2  0  0  0
 16 20  1  0  0  0
 17 18  1  0  0  0
 18 19  2  0  0  0
 28 29  1  0  0  0
 29 30  1  0  0  0
 30 31  1  0  0  0
 31 32  1  0  0  0
 31 33  1  0  0  0
 31 34  1  0  0  0
M  CHG 1   9  -1
M  CHG 1  31   1
M  END
> <minimizedAffinity>
-8.81040

$$$$
1295


 26 29  0  0  0  0  0  0  0  0999 V2000
  -41.8354  -66.5926   51.5748 C   0  0  0  0  0  0  0  0  0  0  0  0
  -40.9718  -67.5800   52.1839 C   0  0  0  0  0  0  0  0  0  0  0  0
  -41.0999  -67.9165   53.5021 C   0  0  0  0  0  0  0  0  0  0  0  0
  -42.1032  -67.3345   54.3436 N   0  0  0  0  0  0  0  0  0  0  0  0
  -42.9596  -66.3849   53.7217 C   0  0  0  0  0  0  0  0  0  0  0  0
  -42.8599  -66.0491   52.4658 C   0  0  0  0  0  0  0  0  0  0  0  0
  -43.9360  -65.0611   52.1463 C   0  0  0  0  0  0  0  0  0  0  0  0
  -44.0862  -64.5546   50.9940 O   0  0  0  0  0  0  0  0  0  0  0  0
  -44.6281  -64.8768   53.2981 O   0  0  0  0  0  0  0  0  0  0  0  0
  -44.1009  -65.6076   54.3526 C   0  0  0  0  0  0  0  0  0  0  0  0
  -40.2534  -68.8498   54.0456 N   0  0  0  0  0  0  0  0  0  0  0  0
  -39.3085  -69.4296   53.2977 C   0  0  0  0  0  0  0  0  0  0  0  0
  -38.5399  -70.2866   53.8191 O   0  0  0  0  0  0  0  0  0  0  0  0
  -39.1906  -69.0926   52.0026 N   0  0  0  0  0  0  0  0  0  0  0  0
  -39.9702  -68.1980   51.3997 C   0  0  0  0  0  0  0  0  0  0  0  0
  -39.8678  -67.8770   50.1897 O   0  0  0  0  0  0  0  0  0  0  0  0
  -38.1419  -69.7534   51.2240 C   0  0  0  0  0  0  0  0  0  0  0  0
  -40.4403  -69.1641   55.4544 C   0  0  0  0  0  0  0  0  0  0  0  0
  -42.1656  -67.6156   55.3384 H   0  0  0  0  0  0  0  0  0  0  0  0
  -39.0991  -62.3197   48.0695 Br  0  0  0  0  0  0  0  0  0  0  0  0
  -39.9349  -63.6385   49.1925 C   0  0  0  0  0  0  0  0  0  0  0  0
  -39.7242  -63.6490   50.5472 C   0  0  0  0  0  0  0  0  0  0  0  0
  -40.3511  -64.6281   51.3379 C   0  0  0  0  0  0  0  0  0  0  0  0
  -41.1662  -65.5669   50.7802 C   0  0  0  0  0  0  0  0  0  0  0  0
  -41.3704  -65.5472   49.4233 C   0  0  0  0  0  0  0  0  0  0  0  0
  -40.7486  -64.5737   48.6219 C   0  0  0  0  0  0  0  0  0  0  0  0
 20 21  1  0  0  0
 21 22  2  0  0  0
 21 26  1  0  0  0
 22 23  1  0  0  0
 23 24  2  0  0  0
 24 25  1  0  0  0
 24  1  1  0  0  0
 25 26  2  0  0  0
  1  2  1  0  0  0
  1  6  1  0  0  0
  2  3  2  0  0  0
  2 15  1  0  0  0
  3  4  1  0  0  0
  3 11  1  0  0  0
  4  5  1  0  0  0
  5  6  2  0  0  0
  5 10  1  0  0  0
  6  7  1  0  0  0
  7  8  2  0  0  0
  7  9  1  0  0  0
  9 10  1  0  0  0
 11 12  1  0  0  0
 11 18  1  0  0  0
 12 13  2  0  0  0
 12 14  1  0  0  0
 14 15  1  0  0  0
 14 17  1  0  0  0
 15 16  2  0  0  0
  4 19  1  0  0  0
M  END
> <minimizedAffinity>
-7.87774

$$$$
1299


 36 39  0  0  0  0  0  0  0  0999 V2000
  -37.1564  -64.5530   47.4218 C   0  0  0  0  0  0  0  0  0  0  0  0
  -35.9704  -64.9054   46.8300 N   0  0  0  0  0  0  0  0  0  0  0  0
  -35.8220  -64.0789   45.8159 N   0  0  0  0  0  0  0  0  0  0  0  0
  -36.8060  -63.2460   45.7252 N   0  0  0  0  0  0  0  0  0  0  0  0
  -37.6931  -63.5018   46.7282 C   0  0  0  0  0  0  0  0  0  0  0  0
  -35.0940  -65.9398   47.2272 C   0  0  0  0  0  0  0  0  0  0  0  0
  -34.3798  -66.0774   48.3718 N   0  0  0  0  0  0  0  0  0  0  0  0
  -33.7114  -67.1731   48.3182 O   0  0  0  0  0  0  0  0  0  0  0  0
  -33.9080  -67.8169   47.2119 N   0  0  0  0  0  0  0  0  0  0  0  0
  -34.7815  -67.0660   46.4884 C   0  0  0  0  0  0  0  0  0  0  0  0
  -35.2624  -67.4181   45.2022 N   0  0  0  0  0  0  0  0  0  0  0  0
  -36.2178  -67.1132   44.9386 H   0  0  0  0  0  0  0  0  0  0  0  0
  -34.7160  -67.9610   44.5084 H   0  0  0  0  0  0  0  0  0  0  0  0
  -38.4701  -66.4151   48.6038 N   0  0  0  0  0  0  0  0  0  0  0  0
  -37.6402  -65.2718   48.5938 C   0  0  0  0  0  0  0  0  0  0  0  0
  -37.3052  -64.8621   49.7700 O   0  0  0  0  0  0  0  0  0  0  0  0
  -38.8513  -66.9045   47.7641 H   0  0  0  0  0  0  0  0  0  0  0  0
  -40.0228  -66.9896   50.2973 C   0  0  0  0  0  0  0  0  0  0  0  0
  -38.8134  -66.9447   49.8930 N   0  0  0  0  0  0  0  0  0  0  0  0
  -38.8812  -70.4207   54.2333 Br  0  0  0  0  0  0  0  0  0  0  0  0
  -39.9342  -69.0434   53.4342 C   0  0  0  0  0  0  0  0  0  0  0  0
  -41.0304  -68.5727   54.1283 C   0  0  0  0  0  0  0  0  0  0  0  0
  -41.7819  -67.5826   53.5471 C   0  0  0  0  0  0  0  0  0  0  0  0
  -41.4527  -67.0713   52.3051 C   0  0  0  0  0  0  0  0  0  0  0  0
  -40.3737  -67.5325   51.6181 C   0  0  0  0  0  0  0  0  0  0  0  0
  -39.6138  -68.5265   52.1950 C   0  0  0  0  0  0  0  0  0  0  0  0
  -43.3106  -66.9223   54.5085 Br  0  0  0  0  0  0  0  0  0  0  0  0
  -41.3923  -69.0613   55.3754 O   0  0  0  0  0  0  0  0  0  0  0  0
  -40.8849  -69.7842   55.8540 H   0  0  0  0  0  0  0  0  0  0  0  0
  -38.9565  -62.8236   47.0143 C   0  0  0  0  0  0  0  0  0  0  0  0
  -40.1361  -63.5569   46.5810 N   0  0  0  0  0  0  0  0  0  0  0  0
  -40.9665  -63.8966   47.7297 C   0  0  0  0  0  0  0  0  0  0  0  0
  -42.0012  -62.8419   48.0028 C   0  0  0  0  0  0  0  0  0  0  0  0
  -41.6847  -61.5952   47.4956 O   0  0  0  0  0  0  0  0  0  0  0  0
  -41.4846  -61.5655   46.1238 C   0  0  0  0  0  0  0  0  0  0  0  0
  -40.9135  -62.8519   45.5919 C   0  0  0  0  0  0  0  0  0  0  0  0
 20 21  1  0  0  0
 21 22  2  0  0  0
 21 26  1  0  0  0
 22 23  1  0  0  0
 22 28  1  0  0  0
 23 24  2  0  0  0
 23 27  1  0  0  0
 24 25  1  0  0  0
 25 26  2  0  0  0
 25 18  1  0  0  0
 18 19  2  0  0  0
 19 14  1  0  0  0
 14 15  1  0  0  0
 15 16  2  0  0  0
 15  1  1  0  0  0
  1  2  1  0  0  0
  1  5  2  0  0  0
  2  3  1  0  0  0
  2  6  1  0  0  0
  3  4  2  0  0  0
  4  5  1  0  0  0
  5 30  1  0  0  0
 30 31  1  0  0  0
 31 32  1  0  0  0
 31 36  1  0  0  0
 32 33  1  0  0  0
 33 34  1  0  0  0
 34 35  1  0  0  0
 35 36  1  0  0  0
  6  7  2  0  0  0
  6 10  1  0  0  0
  7  8  1  0  0  0
  8  9  1  0  0  0
  9 10  2  0  0  0
 10 11  1  0  0  0
 14 17  1  0  0  0
 11 12  1  0  0  0
 11 13  1  0  0  0
 28 29  1  0  0  0
M  END
> <minimizedAffinity>
-8.27304

$$$$
1300


 22 25  0  0  0  0  0  0  0  0999 V2000
  -42.5628  -66.6615   53.2166 N   0  0  0  0  0  0  0  0  0  0  0  0
  -43.5707  -67.2405   54.0244 C   0  0  0  0  0  0  0  0  0  0  0  0
  -43.5196  -68.3479   54.5983 O   0  0  0  0  0  0  0  0  0  0  0  0
  -44.7415  -66.3419   54.1124 C   0  0  0  0  0  0  0  0  0  0  0  0
  -45.7218  -66.8001   53.0544 C   0  0  0  0  0  0  0  0  0  0  0  0
  -45.0636  -66.3215   51.8902 O   0  0  0  0  0  0  0  0  0  0  0  0
  -45.0785  -64.9497   52.2585 C   0  0  0  0  0  0  0  0  0  0  0  0
  -44.2719  -65.0129   53.5278 C   0  0  0  0  0  0  0  0  0  0  0  0
  -42.8594  -65.2637   53.1643 C   0  0  0  0  0  0  0  0  0  0  0  0
  -42.0166  -64.3635   52.8454 O   0  0  0  0  0  0  0  0  0  0  0  0
  -46.5232  -64.7768   52.5179 C   0  0  0  0  0  0  0  0  0  0  0  0
  -46.9238  -65.9299   53.0469 C   0  0  0  0  0  0  0  0  0  0  0  0
  -40.6718  -68.0142   55.1493 Br  0  0  0  0  0  0  0  0  0  0  0  0
  -40.4659  -67.9108   53.2477 C   0  0  0  0  0  0  0  0  0  0  0  0
  -41.4523  -67.2476   52.5545 C   0  0  0  0  0  0  0  0  0  0  0  0
  -41.2968  -67.1785   51.1692 C   0  0  0  0  0  0  0  0  0  0  0  0
  -40.2078  -67.7494   50.5536 C   0  0  0  0  0  0  0  0  0  0  0  0
  -39.2154  -68.4169   51.2522 C   0  0  0  0  0  0  0  0  0  0  0  0
  -39.3633  -68.4894   52.6234 C   0  0  0  0  0  0  0  0  0  0  0  0
  -38.0993  -68.9955   50.5873 N   0  0  0  0  0  0  0  0  0  0  0  0
  -37.8601  -70.2006   50.7791 O   0  0  0  0  0  0  0  0  0  0  0  0
  -37.2653  -68.3129   49.7448 O   0  0  0  0  0  0  0  0  0  0  0  0
 13 14  1  0  0  0
 14 15  2  0  0  0
 14 19  1  0  0  0
 15 16  1  0  0  0
 15  1  1  0  0  0
 16 17  2  0  0  0
 17 18  1  0  0  0
 18 19  2  0  0  0
 18 20  1  0  0  0
 20 21  2  0  0  0
 20 22  1  0  0  0
  1  2  1  0  0  0
  1  9  1  0  0  0
  2  3  2  0  0  0
  2  4  1  0  0  0
  4  5  1  0  0  0
  4  8  1  0  0  0
  5  6  1  0  0  0
  5 12  1  0  0  0
  6  7  1  0  0  0
  7  8  1  0  0  0
  7 11  1  0  0  0
  8  9  1  0  0  0
  9 10  2  0  0  0
 11 12  2  0  0  0
M  CHG 1  22  -1
M  END
> <minimizedAffinity>
-8.00745

$$$$
1301


 24 27  0  0  0  0  0  0  0  0999 V2000
  -42.5485  -66.3416   53.2911 N   0  0  0  0  0  0  0  0  0  0  0  0
  -42.7851  -64.9493   53.1177 C   0  0  0  0  0  0  0  0  0  0  0  0
  -41.9442  -64.0613   52.8590 O   0  0  0  0  0  0  0  0  0  0  0  0
  -44.2424  -64.6681   53.2928 C   0  0  0  0  0  0  0  0  0  0  0  0
  -45.0032  -64.8320   52.0195 C   0  0  0  0  0  0  0  0  0  0  0  0
  -45.1431  -66.2381   51.9096 O   0  0  0  0  0  0  0  0  0  0  0  0
  -45.7782  -66.4274   53.1631 C   0  0  0  0  0  0  0  0  0  0  0  0
  -44.7406  -65.8749   54.0844 C   0  0  0  0  0  0  0  0  0  0  0  0
  -43.5774  -66.7899   54.1635 C   0  0  0  0  0  0  0  0  0  0  0  0
  -43.5145  -67.8038   54.8896 O   0  0  0  0  0  0  0  0  0  0  0  0
  -46.9100  -65.4652   53.0036 C   0  0  0  0  0  0  0  0  0  0  0  0
  -46.4206  -64.4543   52.2642 C   0  0  0  0  0  0  0  0  0  0  0  0
  -46.1827  -67.8190   53.4040 C   0  0  0  0  0  0  0  0  0  0  0  0
  -38.7859  -70.0355   53.8381 Br  0  0  0  0  0  0  0  0  0  0  0  0
  -39.7360  -68.7473   52.8094 C   0  0  0  0  0  0  0  0  0  0  0  0
  -39.3745  -68.5586   51.4958 C   0  0  0  0  0  0  0  0  0  0  0  0
  -40.0784  -67.6214   50.7757 C   0  0  0  0  0  0  0  0  0  0  0  0
  -41.1185  -66.8979   51.3694 C   0  0  0  0  0  0  0  0  0  0  0  0
  -41.4932  -67.0760   52.6858 C   0  0  0  0  0  0  0  0  0  0  0  0
  -40.7751  -68.0214   53.3972 C   0  0  0  0  0  0  0  0  0  0  0  0
  -38.2677  -69.3302   50.8583 C   0  0  0  0  0  0  0  0  0  0  0  0
  -44.4016  -64.2107   50.8264 C   0  0  0  0  0  0  0  0  0  0  0  0
  -44.2387  -62.8357   50.9783 O   0  0  0  0  0  0  0  0  0  0  0  0
  -44.9913  -62.3086   50.5892 H   0  0  0  0  0  0  0  0  0  0  0  0
 14 15  1  0  0  0
 15 16  2  0  0  0
 15 20  1  0  0  0
 16 17  1  0  0  0
 16 21  1  0  0  0
 17 18  2  0  0  0
 18 19  1  0  0  0
 19 20  2  0  0  0
 19  1  1  0  0  0
  1  2  1  0  0  0
  1  9  1  0  0  0
  2  3  2  0  0  0
  2  4  1  0  0  0
  4  5  1  0  0  0
  4  8  1  0  0  0
  5  6  1  0  0  0
  5 12  1  0  0  0
  5 22  1  0  0  0
  6  7  1  0  0  0
  7  8  1  0  0  0
  7 11  1  0  0  0
  7 13  1  0  0  0
  8  9  1  0  0  0
  9 10  2  0  0  0
 11 12  2  0  0  0
 22 23  1  0  0  0
 23 24  1  0  0  0
M  END
> <minimizedAffinity>
-8.75205

$$$$
1310


 32 35  0  0  0  0  0  0  0  0999 V2000
  -42.3910  -66.7505   51.5287 C   0  0  0  0  0  0  0  0  0  0  0  0
  -43.4026  -65.7815   51.8905 N   0  0  0  0  0  0  0  0  0  0  0  0
  -42.7213  -64.5992   52.2712 C   0  0  0  0  0  0  0  0  0  0  0  0
  -43.1113  -63.7013   53.0584 O   0  0  0  0  0  0  0  0  0  0  0  0
  -41.4446  -64.6212   51.5564 C   0  0  0  0  0  0  0  0  0  0  0  0
  -40.5121  -63.7857   51.5811 O   0  0  0  0  0  0  0  0  0  0  0  0
  -41.4560  -65.8631   50.7672 C   0  0  0  0  0  0  0  0  0  0  0  0
  -40.7552  -66.0786   49.6774 C   0  0  0  0  0  0  0  0  0  0  0  0
  -40.8651  -67.3460   49.0915 O   0  0  0  0  0  0  0  0  0  0  0  0
  -39.8897  -65.0466   49.0723 C   0  0  0  0  0  0  0  0  0  0  0  0
  -40.2167  -64.0649   48.2857 O   0  0  0  0  0  0  0  0  0  0  0  0
  -39.1705  -63.3448   47.9488 C   0  0  0  0  0  0  0  0  0  0  0  0
  -38.0449  -63.8792   48.5544 C   0  0  0  0  0  0  0  0  0  0  0  0
  -38.5238  -64.9619   49.2664 C   0  0  0  0  0  0  0  0  0  0  0  0
  -36.8080  -63.3035   48.3605 C   0  0  0  0  0  0  0  0  0  0  0  0
  -36.6348  -62.1898   47.5703 C   0  0  0  0  0  0  0  0  0  0  0  0
  -37.7442  -61.6464   46.9608 C   0  0  0  0  0  0  0  0  0  0  0  0
  -38.9971  -62.2256   47.1541 C   0  0  0  0  0  0  0  0  0  0  0  0
  -38.6266  -70.0744   53.5226 Br  0  0  0  0  0  0  0  0  0  0  0  0
  -40.1290  -68.8881   53.7144 C   0  0  0  0  0  0  0  0  0  0  0  0
  -40.6923  -68.2769   52.5924 C   0  0  0  0  0  0  0  0  0  0  0  0
  -41.7638  -67.4242   52.6696 C   0  0  0  0  0  0  0  0  0  0  0  0
  -42.2751  -67.1937   53.9579 C   0  0  0  0  0  0  0  0  0  0  0  0
  -41.7295  -67.7883   55.0719 C   0  0  0  0  0  0  0  0  0  0  0  0
  -40.6533  -68.6412   54.9645 C   0  0  0  0  0  0  0  0  0  0  0  0
  -44.8596  -65.8932   51.8744 C   0  0  0  0  0  0  0  0  0  0  0  0
  -45.3872  -66.1525   53.2729 C   0  0  0  0  0  0  0  0  0  0  0  0
  -45.9792  -67.5287   53.4255 C   0  0  0  0  0  0  0  0  0  0  0  0
  -47.2417  -67.4389   54.0861 N   0  0  0  0  0  0  0  0  0  0  0  0
  -48.0288  -66.2989   53.6659 C   0  0  0  0  0  0  0  0  0  0  0  0
  -48.0703  -68.6021   53.9860 C   0  0  0  0  0  0  0  0  0  0  0  0
  -47.0445  -67.2882   55.1204 H   0  0  0  0  0  0  0  0  0  0  0  0
 19 20  1  0  0  0
 20 21  2  0  0  0
 20 25  1  0  0  0
 21 22  1  0  0  0
 22 23  2  0  0  0
 22  1  1  0  0  0
 23 24  1  0  0  0
 24 25  2  0  0  0
  1  2  1  0  0  0
  1  7  1  0  0  0
  2  3  1  0  0  0
  2 26  1  0  0  0
  3  4  2  0  0  0
  3  5  1  0  0  0
  5  6  2  0  0  0
  5  7  1  0  0  0
  7  8  2  0  0  0
  8  9  1  0  0  0
  8 10  1  0  0  0
 10 11  1  0  0  0
 10 14  2  0  0  0
 11 12  1  0  0  0
 12 13  2  0  0  0
 12 18  1  0  0  0
 13 14  1  0  0  0
 13 15  1  0  0  0
 15 16  2  0  0  0
 16 17  1  0  0  0
 17 18  2  0  0  0
 26 27  1  0  0  0
 27 28  1  0  0  0
 28 29  1  0  0  0
 29 30  1  0  0  0
 29 31  1  0  0  0
 29 32  1  0  0  0
M  CHG 1   9  -1
M  CHG 1  29   1
M  END
> <minimizedAffinity>
-8.51162

$$$$
1314


 32 35  0  0  0  0  0  0  0  0999 V2000
  -41.2375  -64.7854   50.6312 C   0  0  0  0  0  0  0  0  0  0  0  0
  -42.0766  -63.9579   50.0868 N   0  0  0  0  0  0  0  0  0  0  0  0
  -43.2062  -64.0206   50.7035 N   0  0  0  0  0  0  0  0  0  0  0  0
  -43.1845  -64.9381   51.7454 N   0  0  0  0  0  0  0  0  0  0  0  0
  -41.9666  -65.4327   51.7324 C   0  0  0  0  0  0  0  0  0  0  0  0
  -44.3733  -65.1327   52.4470 C   0  0  0  0  0  0  0  0  0  0  0  0
  -44.3797  -65.3479   53.8250 N   0  0  0  0  0  0  0  0  0  0  0  0
  -45.5735  -65.6066   54.1850 O   0  0  0  0  0  0  0  0  0  0  0  0
  -46.3803  -65.5852   53.2006 N   0  0  0  0  0  0  0  0  0  0  0  0
  -45.6482  -65.2897   52.0894 C   0  0  0  0  0  0  0  0  0  0  0  0
  -46.2791  -65.2129   50.8054 N   0  0  0  0  0  0  0  0  0  0  0  0
  -46.8264  -64.3646   50.6019 H   0  0  0  0  0  0  0  0  0  0  0  0
  -46.2363  -65.9947   50.1549 H   0  0  0  0  0  0  0  0  0  0  0  0
  -39.8617  -66.5771   49.3826 N   0  0  0  0  0  0  0  0  0  0  0  0
  -39.9911  -65.2693   50.1961 C   0  0  0  0  0  0  0  0  0  0  0  0
  -38.9091  -64.7367   50.4156 O   0  0  0  0  0  0  0  0  0  0  0  0
  -40.7488  -67.0205   49.1599 H   0  0  0  0  0  0  0  0  0  0  0  0
  -37.4975  -66.8711   48.6754 C   0  0  0  0  0  0  0  0  0  0  0  0
  -38.5866  -66.7420   49.2610 N   0  0  0  0  0  0  0  0  0  0  0  0
  -35.6837  -64.4536   48.8470 Br  0  0  0  0  0  0  0  0  0  0  0  0
  -35.4131  -66.0777   49.7704 C   0  0  0  0  0  0  0  0  0  0  0  0
  -36.3754  -67.0577   49.7268 C   0  0  0  0  0  0  0  0  0  0  0  0
  -36.2228  -68.2358   50.3326 C   0  0  0  0  0  0  0  0  0  0  0  0
  -35.0243  -68.5239   51.0565 C   0  0  0  0  0  0  0  0  0  0  0  0
  -34.0463  -67.5881   51.0948 C   0  0  0  0  0  0  0  0  0  0  0  0
  -34.2266  -66.3575   50.4559 C   0  0  0  0  0  0  0  0  0  0  0  0
  -41.1528  -66.2864   52.5931 C   0  0  0  0  0  0  0  0  0  0  0  0
  -41.4220  -67.4523   53.1904 N   0  0  0  0  0  0  0  0  0  0  0  0
  -40.4707  -68.4681   52.7625 C   0  0  0  0  0  0  0  0  0  0  0  0
  -40.0081  -69.1815   53.9975 C   0  0  0  0  0  0  0  0  0  0  0  0
  -40.7020  -68.4829   55.1625 C   0  0  0  0  0  0  0  0  0  0  0  0
  -41.8850  -67.8069   54.4263 C   0  0  0  0  0  0  0  0  0  0  0  0
 20 21  1  0  0  0
 21 22  2  0  0  0
 21 26  1  0  0  0
 22 23  1  0  0  0
 22 18  1  0  0  0
 23 24  2  0  0  0
 24 25  1  0  0  0
 25 26  2  0  0  0
 18 19  2  0  0  0
 19 14  1  0  0  0
 14 15  1  0  0  0
 15 16  2  0  0  0
 15  1  1  0  0  0
  1  2  1  0  0  0
  1  5  2  0  0  0
  2  3  2  0  0  0
  3  4  1  0  0  0
  4  5  1  0  0  0
  4  6  1  0  0  0
  5 27  1  0  0  0
 27 28  1  0  0  0
 28 29  1  0  0  0
 28 32  1  0  0  0
 29 30  1  0  0  0
 30 31  1  0  0  0
 31 32  1  0  0  0
  6  7  2  0  0  0
  6 10  1  0  0  0
  7  8  1  0  0  0
  8  9  1  0  0  0
  9 10  2  0  0  0
 10 11  1  0  0  0
 14 17  1  0  0  0
 11 12  1  0  0  0
 11 13  1  0  0  0
M  END
> <minimizedAffinity>
-8.48182

$$$$
1315


 30 33  0  0  0  0  0  0  0  0999 V2000
  -41.3057  -67.2280   51.5125 N   0  0  0  0  0  0  0  0  0  0  0  0
  -41.0135  -67.8949   52.6763 C   0  0  0  0  0  0  0  0  0  0  0  0
  -41.7333  -67.2850   53.6624 C   0  0  0  0  0  0  0  0  0  0  0  0
  -41.6311  -67.7529   54.9758 C   0  0  0  0  0  0  0  0  0  0  0  0
  -40.8060  -68.8218   55.2536 C   0  0  0  0  0  0  0  0  0  0  0  0
  -40.0789  -69.4404   54.2600 C   0  0  0  0  0  0  0  0  0  0  0  0
  -40.1890  -68.9647   52.9510 C   0  0  0  0  0  0  0  0  0  0  0  0
  -42.4399  -66.2813   53.0976 N   0  0  0  0  0  0  0  0  0  0  0  0
  -42.1920  -66.2339   51.7870 C   0  0  0  0  0  0  0  0  0  0  0  0
  -42.7792  -65.4396   50.9201 N   0  0  0  0  0  0  0  0  0  0  0  0
  -43.4345  -64.7094   51.1854 H   0  0  0  0  0  0  0  0  0  0  0  0
  -42.5889  -65.5834   49.9186 H   0  0  0  0  0  0  0  0  0  0  0  0
  -40.7919  -67.6007   50.2120 C   0  0  0  0  0  0  0  0  0  0  0  0
  -39.6365  -66.8056   49.7777 C   0  0  0  0  0  0  0  0  0  0  0  0
  -39.9185  -65.6582   49.2032 O   0  0  0  0  0  0  0  0  0  0  0  0
  -34.5191  -65.2914   49.1095 Br  0  0  0  0  0  0  0  0  0  0  0  0
  -35.9024  -66.5359   49.6429 C   0  0  0  0  0  0  0  0  0  0  0  0
  -37.2233  -66.2194   49.5048 C   0  0  0  0  0  0  0  0  0  0  0  0
  -38.2245  -67.0704   49.8762 C   0  0  0  0  0  0  0  0  0  0  0  0
  -37.8205  -68.3021   50.4144 C   0  0  0  0  0  0  0  0  0  0  0  0
  -36.5082  -68.6547   50.5677 C   0  0  0  0  0  0  0  0  0  0  0  0
  -35.5459  -67.7546   50.1741 C   0  0  0  0  0  0  0  0  0  0  0  0
  -43.3485  -65.4548   53.8731 C   0  0  0  0  0  0  0  0  0  0  0  0
  -44.7185  -65.9728   54.0304 C   0  0  0  0  0  0  0  0  0  0  0  0
  -45.3479  -66.6247   52.9389 N   0  0  0  0  0  0  0  0  0  0  0  0
  -46.1000  -65.6454   52.1131 C   0  0  0  0  0  0  0  0  0  0  0  0
  -47.0970  -64.8791   52.9187 C   0  0  0  0  0  0  0  0  0  0  0  0
  -48.0840  -65.7840   53.3129 O   0  0  0  0  0  0  0  0  0  0  0  0
  -47.5608  -66.8274   54.0350 C   0  0  0  0  0  0  0  0  0  0  0  0
  -46.4115  -67.5434   53.3783 C   0  0  0  0  0  0  0  0  0  0  0  0
 16 17  1  0  0  0
 17 18  2  0  0  0
 17 22  1  0  0  0
 18 19  1  0  0  0
 19 20  2  0  0  0
 19 14  1  0  0  0
 20 21  1  0  0  0
 21 22  2  0  0  0
 14 15  2  0  0  0
 14 13  1  0  0  0
 13  1  1  0  0  0
  1  2  1  0  0  0
  1  9  1  0  0  0
  2  3  1  0  0  0
  2  7  2  0  0  0
  3  4  2  0  0  0
  3  8  1  0  0  0
  4  5  1  0  0  0
  5  6  2  0  0  0
  6  7  1  0  0  0
  8  9  1  0  0  0
  8 23  1  0  0  0
  9 10  2  0  0  0
 23 24  1  0  0  0
 24 25  1  0  0  0
 25 26  1  0  0  0
 25 30  1  0  0  0
 26 27  1  0  0  0
 27 28  1  0  0  0
 28 29  1  0  0  0
 29 30  1  0  0  0
 10 11  1  0  0  0
 10 12  1  0  0  0
M  END
> <minimizedAffinity>
-8.54382

$$$$
1325


 31 34  0  0  0  0  0  0  0  0999 V2000
  -37.4052  -66.4471   49.1186 C   0  0  0  0  0  0  0  0  0  0  0  0
  -36.4089  -67.0984   49.9168 N   0  0  0  0  0  0  0  0  0  0  0  0
  -37.1199  -68.2381   50.4855 C   0  0  0  0  0  0  0  0  0  0  0  0
  -36.6061  -69.3128   50.8660 O   0  0  0  0  0  0  0  0  0  0  0  0
  -38.5292  -67.8953   50.5299 C   0  0  0  0  0  0  0  0  0  0  0  0
  -39.5065  -68.5868   50.9450 O   0  0  0  0  0  0  0  0  0  0  0  0
  -38.6198  -66.5395   49.9783 C   0  0  0  0  0  0  0  0  0  0  0  0
  -39.5826  -65.6863   50.1940 C   0  0  0  0  0  0  0  0  0  0  0  0
  -39.5360  -64.4503   49.5376 O   0  0  0  0  0  0  0  0  0  0  0  0
  -40.7000  -65.9925   51.1091 C   0  0  0  0  0  0  0  0  0  0  0  0
  -40.5746  -66.4218   52.3598 O   0  0  0  0  0  0  0  0  0  0  0  0
  -41.7405  -66.6090   52.9220 C   0  0  0  0  0  0  0  0  0  0  0  0
  -42.7429  -66.2996   52.0267 C   0  0  0  0  0  0  0  0  0  0  0  0
  -42.0539  -65.9131   50.8893 C   0  0  0  0  0  0  0  0  0  0  0  0
  -44.0667  -66.4166   52.3863 C   0  0  0  0  0  0  0  0  0  0  0  0
  -44.4682  -66.8418   53.6336 C   0  0  0  0  0  0  0  0  0  0  0  0
  -43.4669  -67.1547   54.5349 C   0  0  0  0  0  0  0  0  0  0  0  0
  -42.1378  -67.0426   54.1909 C   0  0  0  0  0  0  0  0  0  0  0  0
  -36.4017  -60.9181   46.5213 Br  0  0  0  0  0  0  0  0  0  0  0  0
  -36.7022  -62.6256   47.3364 C   0  0  0  0  0  0  0  0  0  0  0  0
  -37.1932  -63.6906   46.6231 C   0  0  0  0  0  0  0  0  0  0  0  0
  -37.3985  -64.9030   47.2303 C   0  0  0  0  0  0  0  0  0  0  0  0
  -37.1283  -65.1347   48.5914 C   0  0  0  0  0  0  0  0  0  0  0  0
  -36.6429  -64.0661   49.2791 C   0  0  0  0  0  0  0  0  0  0  0  0
  -36.4352  -62.8444   48.6681 C   0  0  0  0  0  0  0  0  0  0  0  0
  -35.0009  -66.8554   50.1388 C   0  0  0  0  0  0  0  0  0  0  0  0
  -34.0714  -67.0817   49.0221 C   0  0  0  0  0  0  0  0  0  0  0  0
  -33.3334  -65.9455   48.5355 N   0  0  0  0  0  0  0  0  0  0  0  0
  -33.7304  -65.5547   47.2126 C   0  0  0  0  0  0  0  0  0  0  0  0
  -33.2010  -64.8642   49.4699 C   0  0  0  0  0  0  0  0  0  0  0  0
  -32.3342  -66.3294   48.4094 H   0  0  0  0  0  0  0  0  0  0  0  0
 19 20  1  0  0  0
 20 21  2  0  0  0
 20 25  1  0  0  0
 21 22  1  0  0  0
 22 23  2  0  0  0
 23 24  1  0  0  0
 23  1  1  0  0  0
 24 25  2  0  0  0
  1  2  1  0  0  0
  1  7  1  0  0  0
  2  3  1  0  0  0
  2 26  1  0  0  0
  3  4  2  0  0  0
  3  5  1  0  0  0
  5  6  2  0  0  0
  5  7  1  0  0  0
  7  8  2  0  0  0
  8  9  1  0  0  0
  8 10  1  0  0  0
 10 11  1  0  0  0
 10 14  2  0  0  0
 11 12  1  0  0  0
 12 13  2  0  0  0
 12 18  1  0  0  0
 13 14  1  0  0  0
 13 15  1  0  0  0
 15 16  2  0  0  0
 16 17  1  0  0  0
 17 18  2  0  0  0
 26 27  1  0  0  0
 27 28  1  0  0  0
 28 29  1  0  0  0
 28 30  1  0  0  0
 28 31  1  0  0  0
M  CHG 1   9  -1
M  CHG 1  28   1
M  END
> <minimizedAffinity>
-7.51395

$$$$
1329


 28 31  0  0  0  0  0  0  0  0999 V2000
  -39.5703  -69.4004   53.0095 C   0  0  0  0  0  0  0  0  0  0  0  0
  -40.5526  -68.5184   53.2031 C   0  0  0  0  0  0  0  0  0  0  0  0
  -40.6972  -67.2731   52.5947 O   0  0  0  0  0  0  0  0  0  0  0  0
  -41.8326  -66.6493   53.0338 C   0  0  0  0  0  0  0  0  0  0  0  0
  -42.4962  -67.4505   53.9565 C   0  0  0  0  0  0  0  0  0  0  0  0
  -43.6776  -66.9777   54.5056 C   0  0  0  0  0  0  0  0  0  0  0  0
  -44.1693  -65.7465   54.1362 C   0  0  0  0  0  0  0  0  0  0  0  0
  -43.4747  -64.9690   53.2063 C   0  0  0  0  0  0  0  0  0  0  0  0
  -42.3041  -65.4114   52.6492 C   0  0  0  0  0  0  0  0  0  0  0  0
  -44.0513  -63.7457   52.9011 O   0  0  0  0  0  0  0  0  0  0  0  0
  -41.6962  -68.6791   54.0977 C   0  0  0  0  0  0  0  0  0  0  0  0
  -41.9848  -69.6402   54.8566 O   0  0  0  0  0  0  0  0  0  0  0  0
  -34.3980  -69.8777   51.8019 Br  0  0  0  0  0  0  0  0  0  0  0  0
  -36.1774  -69.2806   51.4449 C   0  0  0  0  0  0  0  0  0  0  0  0
  -37.2086  -69.5625   52.3369 C   0  0  0  0  0  0  0  0  0  0  0  0
  -38.4900  -69.1261   52.0829 C   0  0  0  0  0  0  0  0  0  0  0  0
  -38.7652  -68.4067   50.9457 C   0  0  0  0  0  0  0  0  0  0  0  0
  -37.7347  -68.1360   50.0763 C   0  0  0  0  0  0  0  0  0  0  0  0
  -36.4417  -68.5557   50.2931 C   0  0  0  0  0  0  0  0  0  0  0  0
  -41.5740  -64.5254   51.7409 C   0  0  0  0  0  0  0  0  0  0  0  0
  -40.8641  -65.1495   50.6844 N   0  0  0  0  0  0  0  0  0  0  0  0
  -39.4777  -64.7172   50.7488 C   0  0  0  0  0  0  0  0  0  0  0  0
  -38.8267  -64.4756   49.4308 C   0  0  0  0  0  0  0  0  0  0  0  0
  -39.5616  -63.6620   48.5274 N   0  0  0  0  0  0  0  0  0  0  0  0
  -40.9206  -63.5090   48.9312 C   0  0  0  0  0  0  0  0  0  0  0  0
  -41.4575  -64.8150   49.4116 C   0  0  0  0  0  0  0  0  0  0  0  0
  -39.4445  -64.1892   47.1841 C   0  0  0  0  0  0  0  0  0  0  0  0
  -40.9042  -66.2121   50.7310 H   0  0  0  0  0  0  0  0  0  0  0  0
 13 14  1  0  0  0
 14 15  2  0  0  0
 14 19  1  0  0  0
 15 16  1  0  0  0
 16 17  2  0  0  0
 16  1  1  0  0  0
 17 18  1  0  0  0
 18 19  2  0  0  0
  1  2  2  0  0  0
  2  3  1  0  0  0
  2 11  1  0  0  0
  3  4  1  0  0  0
  4  5  2  0  0  0
  4  9  1  0  0  0
  5  6  1  0  0  0
  5 11  1  0  0  0
  6  7  2  0  0  0
  7  8  1  0  0  0
  8  9  2  0  0  0
  8 10  1  0  0  0
  9 20  1  0  0  0
 20 21  1  0  0  0
 21 22  1  0  0  0
 21 26  1  0  0  0
 22 23  1  0  0  0
 23 24  1  0  0  0
 24 25  1  0  0  0
 24 27  1  0  0  0
 25 26  1  0  0  0
 11 12  2  0  0  0
 21 28  1  0  0  0
M  CHG 1  10  -1
M  CHG 1  21   1
M  END
> <minimizedAffinity>
-9.44488

$$$$
1337


 32 35  0  0  0  0  0  0  0  0999 V2000
  -38.9008  -68.6614   50.9433 N   0  0  0  0  0  0  0  0  0  0  0  0
  -39.8529  -68.0879   51.8223 C   0  0  0  0  0  0  0  0  0  0  0  0
  -39.6723  -68.2351   53.0611 O   0  0  0  0  0  0  0  0  0  0  0  0
  -39.0456  -68.5431   49.9182 H   0  0  0  0  0  0  0  0  0  0  0  0
  -41.0168  -67.3432   51.2730 C   0  0  0  0  0  0  0  0  0  0  0  0
  -40.6441  -66.7348   50.1337 O   0  0  0  0  0  0  0  0  0  0  0  0
  -41.2983  -65.6056   49.7538 C   0  0  0  0  0  0  0  0  0  0  0  0
  -40.5248  -64.9757   48.7680 O   0  0  0  0  0  0  0  0  0  0  0  0
  -39.6502  -64.1309   49.4064 C   0  0  0  0  0  0  0  0  0  0  0  0
  -39.9973  -64.0577   50.7407 O   0  0  0  0  0  0  0  0  0  0  0  0
  -41.3277  -64.5319   50.8160 C   0  0  0  0  0  0  0  0  0  0  0  0
  -41.6597  -65.0660   52.1557 C   0  0  0  0  0  0  0  0  0  0  0  0
  -42.9485  -64.6574   52.5687 O   0  0  0  0  0  0  0  0  0  0  0  0
  -43.5602  -65.7429   53.1425 C   0  0  0  0  0  0  0  0  0  0  0  0
  -43.0279  -66.8217   52.4858 O   0  0  0  0  0  0  0  0  0  0  0  0
  -41.6667  -66.5237   52.3240 C   0  0  0  0  0  0  0  0  0  0  0  0
  -45.0622  -65.6034   52.8656 C   0  0  0  0  0  0  0  0  0  0  0  0
  -43.4119  -65.7952   54.6405 C   0  0  0  0  0  0  0  0  0  0  0  0
  -39.7294  -62.7062   48.8562 C   0  0  0  0  0  0  0  0  0  0  0  0
  -38.2022  -64.5667   49.2523 C   0  0  0  0  0  0  0  0  0  0  0  0
  -37.7524  -69.3944   51.3862 C   0  0  0  0  0  0  0  0  0  0  0  0
  -36.4774  -67.5672   50.1716 N   0  0  0  0  0  0  0  0  0  0  0  0
  -36.4996  -68.7929   50.8607 C   0  0  0  0  0  0  0  0  0  0  0  0
  -35.4492  -69.4342   51.0620 O   0  0  0  0  0  0  0  0  0  0  0  0
  -37.4339  -67.0982   50.0523 H   0  0  0  0  0  0  0  0  0  0  0  0
  -31.6556  -64.4119   48.0797 Br  0  0  0  0  0  0  0  0  0  0  0  0
  -33.1655  -65.4297   48.6749 C   0  0  0  0  0  0  0  0  0  0  0  0
  -33.6495  -65.2138   49.9460 C   0  0  0  0  0  0  0  0  0  0  0  0
  -34.7325  -65.9354   50.3917 C   0  0  0  0  0  0  0  0  0  0  0  0
  -35.3899  -66.8906   49.6292 C   0  0  0  0  0  0  0  0  0  0  0  0
  -34.8828  -67.0827   48.3640 C   0  0  0  0  0  0  0  0  0  0  0  0
  -33.7785  -66.3559   47.8929 C   0  0  0  0  0  0  0  0  0  0  0  0
 26 27  1  0  0  0
 27 28  2  0  0  0
 27 32  1  0  0  0
 28 29  1  0  0  0
 29 30  2  0  0  0
 30 31  1  0  0  0
 30 22  1  0  0  0
 31 32  2  0  0  0
 22 23  1  0  0  0
 23 24  2  0  0  0
 23 21  1  0  0  0
 21  1  1  0  0  0
  1  2  1  0  0  0
  2  3  2  0  0  0
  2  5  1  0  0  0
  5  6  1  0  0  0
  5 16  1  0  0  0
  6  7  1  0  0  0
  7  8  1  0  0  0
  7 11  1  0  0  0
  8  9  1  0  0  0
  9 10  1  0  0  0
  9 19  1  0  0  0
  9 20  1  0  0  0
 10 11  1  0  0  0
 11 12  1  0  0  0
 12 13  1  0  0  0
 12 16  1  0  0  0
 13 14  1  0  0  0
 14 15  1  0  0  0
 14 17  1  0  0  0
 14 18  1  0  0  0
 15 16  1  0  0  0
 22 25  1  0  0  0
  1  4  1  0  0  0
M  END
> <minimizedAffinity>
-8.31132

$$$$
1341


 28 31  0  0  0  0  0  0  0  0999 V2000
  -40.4217  -66.9117   51.8368 C   0  0  0  0  0  0  0  0  0  0  0  0
  -39.8263  -68.0214   52.3330 N   0  0  0  0  0  0  0  0  0  0  0  0
  -40.4262  -68.3477   53.4964 C   0  0  0  0  0  0  0  0  0  0  0  0
  -41.4113  -67.4679   53.7783 N   0  0  0  0  0  0  0  0  0  0  0  0
  -41.4006  -66.5886   52.7506 C   0  0  0  0  0  0  0  0  0  0  0  0
  -39.7925  -69.5654   54.0633 C   0  0  0  0  0  0  0  0  0  0  0  0
  -38.6618  -69.9069   53.1553 C   0  0  0  0  0  0  0  0  0  0  0  0
  -38.7673  -68.9556   52.0218 C   0  0  0  0  0  0  0  0  0  0  0  0
  -39.2654  -63.7590   46.8028 Cl  0  0  0  0  0  0  0  0  0  0  0  0
  -39.6012  -64.6800   48.2631 C   0  0  0  0  0  0  0  0  0  0  0  0
  -39.7666  -64.0599   49.4824 C   0  0  0  0  0  0  0  0  0  0  0  0
  -40.0295  -64.7894   50.6279 C   0  0  0  0  0  0  0  0  0  0  0  0
  -40.1409  -66.1658   50.6112 C   0  0  0  0  0  0  0  0  0  0  0  0
  -39.9775  -66.7892   49.3920 C   0  0  0  0  0  0  0  0  0  0  0  0
  -39.7107  -66.0544   48.2305 C   0  0  0  0  0  0  0  0  0  0  0  0
  -42.3009  -67.4468   54.9214 C   0  0  0  0  0  0  0  0  0  0  0  0
  -43.6047  -66.8344   54.5380 C   0  0  0  0  0  0  0  0  0  0  0  0
  -43.9033  -65.7502   55.0422 O   0  0  0  0  0  0  0  0  0  0  0  0
  -44.4097  -67.5261   53.6310 N   0  0  0  0  0  0  0  0  0  0  0  0
  -44.0987  -68.4704   53.2231 H   0  0  0  0  0  0  0  0  0  0  0  0
  -45.6709  -67.0754   53.1611 C   0  0  0  0  0  0  0  0  0  0  0  0
  -46.8308  -67.7032   53.6335 C   0  0  0  0  0  0  0  0  0  0  0  0
  -48.0527  -67.3100   53.1906 C   0  0  0  0  0  0  0  0  0  0  0  0
  -48.1881  -66.2854   52.2683 C   0  0  0  0  0  0  0  0  0  0  0  0
  -47.0515  -65.6801   51.8130 C   0  0  0  0  0  0  0  0  0  0  0  0
  -45.7774  -66.0632   52.2504 C   0  0  0  0  0  0  0  0  0  0  0  0
  -49.5348  -65.8722   51.7992 C   0  0  0  0  0  0  0  0  0  0  0  0
  -50.2420  -67.1085   51.2353 C   0  0  0  0  0  0  0  0  0  0  0  0
  9 10  1  0  0  0
 10 11  2  0  0  0
 10 15  1  0  0  0
 11 12  1  0  0  0
 12 13  2  0  0  0
 13 14  1  0  0  0
 13  1  1  0  0  0
 14 15  2  0  0  0
  1  2  1  0  0  0
  1  5  2  0  0  0
  2  3  1  0  0  0
  2  8  1  0  0  0
  3  4  2  0  0  0
  3  6  1  0  0  0
  4  5  1  0  0  0
  4 16  1  0  0  0
 16 17  1  0  0  0
 17 18  2  0  0  0
 17 19  1  0  0  0
 19 21  1  0  0  0
 21 22  2  0  0  0
 21 26  1  0  0  0
 22 23  1  0  0  0
 23 24  2  0  0  0
 24 25  1  0  0  0
 24 27  1  0  0  0
 25 26  2  0  0  0
 27 28  1  0  0  0
  6  7  1  0  0  0
  7  8  1  0  0  0
 19 20  1  0  0  0
M  END
> <minimizedAffinity>
-8.05583

$$$$
1343


 41 44  0  0  0  0  0  0  0  0999 V2000
  -39.6202  -67.7998   51.3159 C   0  0  0  0  0  0  0  0  0  0  0  0
  -40.6603  -66.9319   51.4096 N   0  0  0  0  0  0  0  0  0  0  0  0
  -41.3042  -67.1503   52.5852 C   0  0  0  0  0  0  0  0  0  0  0  0
  -42.3680  -66.6004   53.1819 N   0  0  0  0  0  0  0  0  0  0  0  0
  -42.8101  -67.0157   54.3829 C   0  0  0  0  0  0  0  0  0  0  0  0
  -42.1586  -68.0213   55.0067 N   0  0  0  0  0  0  0  0  0  0  0  0
  -41.0956  -68.6140   54.4744 C   0  0  0  0  0  0  0  0  0  0  0  0
  -40.6463  -68.1827   53.2420 C   0  0  0  0  0  0  0  0  0  0  0  0
  -39.6512  -68.5367   52.4470 N   0  0  0  0  0  0  0  0  0  0  0  0
  -40.3997  -69.6563   55.0955 O   0  0  0  0  0  0  0  0  0  0  0  0
  -43.9532  -66.4141   55.0086 N   0  0  0  0  0  0  0  0  0  0  0  0
  -39.6596  -69.3810   55.7301 H   0  0  0  0  0  0  0  0  0  0  0  0
  -44.8017  -66.9232   55.2767 H   0  0  0  0  0  0  0  0  0  0  0  0
  -43.8938  -65.3903   55.1925 H   0  0  0  0  0  0  0  0  0  0  0  0
  -41.0151  -65.9520   50.4299 C   0  0  0  0  0  0  0  0  0  0  0  0
  -40.6971  -66.3138   49.1283 O   0  0  0  0  0  0  0  0  0  0  0  0
  -40.6012  -65.1807   48.3727 C   0  0  0  0  0  0  0  0  0  0  0  0
  -40.5684  -63.9824   49.2581 C   0  0  0  0  0  0  0  0  0  0  0  0
  -40.3415  -64.6108   50.6346 C   0  0  0  0  0  0  0  0  0  0  0  0
  -40.9697  -63.8593   51.6270 O   0  0  0  0  0  0  0  0  0  0  0  0
  -41.8462  -63.3906   49.3274 O   0  0  0  0  0  0  0  0  0  0  0  0
  -40.3529  -63.7259   52.3925 H   0  0  0  0  0  0  0  0  0  0  0  0
  -41.7884  -62.4355   49.5450 H   0  0  0  0  0  0  0  0  0  0  0  0
  -39.2791  -65.2283   47.6042 C   0  0  0  0  0  0  0  0  0  0  0  0
  -38.9800  -66.5487   47.2505 O   0  0  0  0  0  0  0  0  0  0  0  0
  -39.5675  -67.1910   47.7251 H   0  0  0  0  0  0  0  0  0  0  0  0
  -38.6987  -67.8943   50.2368 N   0  0  0  0  0  0  0  0  0  0  0  0
  -38.7901  -68.6659   49.5579 H   0  0  0  0  0  0  0  0  0  0  0  0
  -36.6091  -67.0658   49.5114 C   0  0  0  0  0  0  0  0  0  0  0  0
  -37.6943  -66.9108   50.1511 N   0  0  0  0  0  0  0  0  0  0  0  0
  -34.0596  -67.8372   51.0375 Br  0  0  0  0  0  0  0  0  0  0  0  0
  -34.3362  -66.2495   50.0289 C   0  0  0  0  0  0  0  0  0  0  0  0
  -35.5515  -66.0667   49.4050 C   0  0  0  0  0  0  0  0  0  0  0  0
  -35.7072  -64.9015   48.6854 C   0  0  0  0  0  0  0  0  0  0  0  0
  -34.7102  -63.9541   48.5830 C   0  0  0  0  0  0  0  0  0  0  0  0
  -33.4940  -64.1373   49.2067 C   0  0  0  0  0  0  0  0  0  0  0  0
  -33.3185  -65.2967   49.9316 C   0  0  0  0  0  0  0  0  0  0  0  0
  -34.8756  -62.7806   47.8539 O   0  0  0  0  0  0  0  0  0  0  0  0
  -34.8244  -62.6981   46.4649 C   0  0  0  0  0  0  0  0  0  0  0  0
  -32.4890  -63.1752   49.0990 O   0  0  0  0  0  0  0  0  0  0  0  0
  -31.4319  -63.2676   48.1924 C   0  0  0  0  0  0  0  0  0  0  0  0
 31 32  1  0  0  0
 32 33  2  0  0  0
 32 37  1  0  0  0
 33 34  1  0  0  0
 33 29  1  0  0  0
 34 35  2  0  0  0
 35 36  1  0  0  0
 35 38  1  0  0  0
 36 37  2  0  0  0
 36 40  1  0  0  0
 40 41  1  0  0  0
 38 39  1  0  0  0
 29 30  2  0  0  0
 30 27  1  0  0  0
 27  1  1  0  0  0
  1  2  1  0  0  0
  1  9  2  0  0  0
  2  3  1  0  0  0
  2 15  1  0  0  0
  3  4  2  0  0  0
  3  8  1  0  0  0
  4  5  1  0  0  0
  5  6  2  0  0  0
  5 11  1  0  0  0
  6  7  1  0  0  0
  7  8  2  0  0  0
  7 10  1  0  0  0
  8  9  1  0  0  0
 15 16  1  0  0  0
 15 19  1  0  0  0
 16 17  1  0  0  0
 17 18  1  0  0  0
 17 24  1  0  0  0
 18 19  1  0  0  0
 18 21  1  0  0  0
 19 20  1  0  0  0
 24 25  1  0  0  0
 27 28  1  0  0  0
 10 12  1  0  0  0
 11 13  1  0  0  0
 11 14  1  0  0  0
 20 22  1  0  0  0
 21 23  1  0  0  0
 25 26  1  0  0  0
M  END
> <minimizedAffinity>
-8.73302

$$$$
1355


 27 30  0  0  0  0  0  0  0  0999 V2000
  -38.6465  -63.9849   49.4938 N   0  0  0  0  0  0  0  0  0  0  0  0
  -37.5237  -64.7765   49.1948 C   0  0  0  0  0  0  0  0  0  0  0  0
  -37.6710  -65.8295   48.5362 O   0  0  0  0  0  0  0  0  0  0  0  0
  -38.5183  -63.1107   50.0411 H   0  0  0  0  0  0  0  0  0  0  0  0
  -36.1853  -64.3735   49.6521 C   0  0  0  0  0  0  0  0  0  0  0  0
  -35.2693  -65.5654   49.8587 C   0  0  0  0  0  0  0  0  0  0  0  0
  -33.8683  -65.1341   50.1365 C   0  0  0  0  0  0  0  0  0  0  0  0
  -32.9933  -65.0133   48.9319 C   0  0  0  0  0  0  0  0  0  0  0  0
  -33.7851  -64.6669   47.6747 C   0  0  0  0  0  0  0  0  0  0  0  0
  -34.5368  -63.4658   47.9565 N   0  0  0  0  0  0  0  0  0  0  0  0
  -34.2931  -62.3115   47.3957 N   0  0  0  0  0  0  0  0  0  0  0  0
  -35.1438  -61.4307   47.8610 N   0  0  0  0  0  0  0  0  0  0  0  0
  -35.9259  -62.0508   48.7231 N   0  0  0  0  0  0  0  0  0  0  0  0
  -35.5654  -63.3433   48.8056 C   0  0  0  0  0  0  0  0  0  0  0  0
  -39.9767  -64.3640   49.0537 C   0  0  0  0  0  0  0  0  0  0  0  0
  -40.8086  -67.0522   51.4033 C   0  0  0  0  0  0  0  0  0  0  0  0
  -41.2852  -67.5215   50.2385 N   0  0  0  0  0  0  0  0  0  0  0  0
  -41.0528  -66.6432   49.2859 O   0  0  0  0  0  0  0  0  0  0  0  0
  -40.4342  -65.6018   49.7821 C   0  0  0  0  0  0  0  0  0  0  0  0
  -40.2801  -65.8533   51.1007 N   0  0  0  0  0  0  0  0  0  0  0  0
  -38.7150  -69.1202   51.9334 Cl  0  0  0  0  0  0  0  0  0  0  0  0
  -39.9504  -68.6716   53.0839 C   0  0  0  0  0  0  0  0  0  0  0  0
  -40.8552  -67.7016   52.7089 C   0  0  0  0  0  0  0  0  0  0  0  0
  -41.8138  -67.3714   53.6369 C   0  0  0  0  0  0  0  0  0  0  0  0
  -41.8849  -67.9644   54.8769 C   0  0  0  0  0  0  0  0  0  0  0  0
  -40.9570  -68.9488   55.2384 C   0  0  0  0  0  0  0  0  0  0  0  0
  -39.9906  -69.2939   54.3277 C   0  0  0  0  0  0  0  0  0  0  0  0
 21 22  1  0  0  0
 22 23  2  0  0  0
 22 27  1  0  0  0
 23 24  1  0  0  0
 23 16  1  0  0  0
 24 25  2  0  0  0
 25 26  1  0  0  0
 26 27  2  0  0  0
 16 17  2  0  0  0
 16 20  1  0  0  0
 17 18  1  0  0  0
 18 19  1  0  0  0
 19 20  2  0  0  0
 19 15  1  0  0  0
 15  1  1  0  0  0
  1  2  1  0  0  0
  2  3  2  0  0  0
  2  5  1  0  0  0
  5  6  1  0  0  0
  5 14  1  0  0  0
  6  7  1  0  0  0
  7  8  1  0  0  0
  8  9  1  0  0  0
  9 10  1  0  0  0
 10 11  1  0  0  0
 10 14  1  0  0  0
 11 12  2  0  0  0
 12 13  1  0  0  0
 13 14  2  0  0  0
  1  4  1  0  0  0
M  END
> <minimizedAffinity>
-8.60881

$$$$
1357


 24 27  0  0  0  0  0  0  0  0999 V2000
  -35.8609  -65.3236   49.0481 C   0  0  0  0  0  0  0  0  0  0  0  0
  -34.7574  -64.5625   48.6588 C   0  0  0  0  0  0  0  0  0  0  0  0
  -33.6031  -64.6985   47.7290 C   0  0  0  0  0  0  0  0  0  0  0  0
  -34.2688  -63.9757   46.6161 N   0  0  0  0  0  0  0  0  0  0  0  0
  -35.5118  -64.3425   46.5932 C   0  0  0  0  0  0  0  0  0  0  0  0
  -35.6934  -65.2915   47.6464 C   0  0  0  0  0  0  0  0  0  0  0  0
  -36.5138  -63.8681   45.6661 N   0  0  0  0  0  0  0  0  0  0  0  0
  -32.5546  -63.9127   48.2201 O   0  0  0  0  0  0  0  0  0  0  0  0
  -31.4280  -64.7117   48.2454 C   0  0  0  0  0  0  0  0  0  0  0  0
  -31.7436  -65.7501   47.1821 C   0  0  0  0  0  0  0  0  0  0  0  0
  -33.1294  -65.9119   47.4294 O   0  0  0  0  0  0  0  0  0  0  0  0
  -36.2744  -63.6591   44.6782 H   0  0  0  0  0  0  0  0  0  0  0  0
  -37.4943  -63.7274   45.9726 H   0  0  0  0  0  0  0  0  0  0  0  0
  -38.3293  -67.3102   49.4072 Br  0  0  0  0  0  0  0  0  0  0  0  0
  -36.5599  -67.4822   50.1025 C   0  0  0  0  0  0  0  0  0  0  0  0
  -35.5925  -66.5408   49.8570 C   0  0  0  0  0  0  0  0  0  0  0  0
  -34.3267  -66.7016   50.3687 C   0  0  0  0  0  0  0  0  0  0  0  0
  -33.9912  -67.8054   51.1408 C   0  0  0  0  0  0  0  0  0  0  0  0
  -34.9446  -68.7606   51.3989 C   0  0  0  0  0  0  0  0  0  0  0  0
  -36.2302  -68.5885   50.8738 C   0  0  0  0  0  0  0  0  0  0  0  0
  -35.2439  -66.6206   47.1337 C   0  0  0  0  0  0  0  0  0  0  0  0
  -34.9114  -67.6764   46.7151 N   0  0  0  0  0  0  0  0  0  0  0  0
  -35.0066  -63.0829   48.7960 C   0  0  0  0  0  0  0  0  0  0  0  0
  -35.2036  -61.9253   48.9253 N   0  0  0  0  0  0  0  0  0  0  0  0
 14 15  1  0  0  0
 15 16  2  0  0  0
 15 20  1  0  0  0
 16 17  1  0  0  0
 16  1  1  0  0  0
 17 18  2  0  0  0
 18 19  1  0  0  0
 19 20  2  0  0  0
  1  2  1  0  0  0
  1  6  1  0  0  0
  2  3  1  0  0  0
  2  6  1  0  0  0
  2 23  1  0  0  0
  3  4  1  0  0  0
  3  8  1  0  0  0
  3 11  1  0  0  0
  4  5  2  0  0  0
  5  6  1  0  0  0
  5  7  1  0  0  0
  6 21  1  0  0  0
 21 22  3  0  0  0
  8  9  1  0  0  0
  9 10  1  0  0  0
 10 11  1  0  0  0
 23 24  3  0  0  0
  7 12  1  0  0  0
  7 13  1  0  0  0
M  END
> <minimizedAffinity>
-6.09882

$$$$
1360


 34 37  0  0  0  0  0  0  0  0999 V2000
  -38.8194  -64.3613   49.1368 C   0  0  0  0  0  0  0  0  0  0  0  0
  -38.4842  -63.7717   47.8666 N   0  0  0  0  0  0  0  0  0  0  0  0
  -39.7993  -63.7786   47.1858 C   0  0  0  0  0  0  0  0  0  0  0  0
  -39.6355  -63.0621   45.9806 N   0  0  0  0  0  0  0  0  0  0  0  0
  -38.2474  -62.7413   45.8494 C   0  0  0  0  0  0  0  0  0  0  0  0
  -37.5777  -63.1787   46.9939 C   0  0  0  0  0  0  0  0  0  0  0  0
  -36.2168  -62.9742   47.0841 C   0  0  0  0  0  0  0  0  0  0  0  0
  -35.6356  -63.3772   48.1243 O   0  0  0  0  0  0  0  0  0  0  0  0
  -35.5710  -62.3665   46.0821 N   0  0  0  0  0  0  0  0  0  0  0  0
  -36.2310  -61.9624   45.0099 C   0  0  0  0  0  0  0  0  0  0  0  0
  -35.5848  -61.3940   44.0881 O   0  0  0  0  0  0  0  0  0  0  0  0
  -37.5803  -62.1366   44.8622 N   0  0  0  0  0  0  0  0  0  0  0  0
  -38.1806  -61.6514   43.6400 C   0  0  0  0  0  0  0  0  0  0  0  0
  -34.1240  -62.1692   46.2195 C   0  0  0  0  0  0  0  0  0  0  0  0
  -40.6362  -62.7190   45.0032 C   0  0  0  0  0  0  0  0  0  0  0  0
  -40.7513  -63.3390   48.2167 C   0  0  0  0  0  0  0  0  0  0  0  0
  -39.9570  -63.4048   49.5286 C   0  0  0  0  0  0  0  0  0  0  0  0
  -39.3489  -65.6980   48.9938 C   0  0  0  0  0  0  0  0  0  0  0  0
  -39.9047  -65.9199   47.8366 O   0  0  0  0  0  0  0  0  0  0  0  0
  -39.1618  -70.3927   52.9288 Br  0  0  0  0  0  0  0  0  0  0  0  0
  -39.2334  -68.9385   51.6995 C   0  0  0  0  0  0  0  0  0  0  0  0
  -40.4333  -68.3006   51.4234 C   0  0  0  0  0  0  0  0  0  0  0  0
  -40.5068  -67.2513   50.5412 C   0  0  0  0  0  0  0  0  0  0  0  0
  -39.3651  -66.8156   49.9115 C   0  0  0  0  0  0  0  0  0  0  0  0
  -38.1474  -67.4467   50.1777 C   0  0  0  0  0  0  0  0  0  0  0  0
  -38.0881  -68.4956   51.0623 C   0  0  0  0  0  0  0  0  0  0  0  0
  -40.7702  -63.9020   50.6337 C   0  0  0  0  0  0  0  0  0  0  0  0
  -40.2721  -63.9812   51.8055 O   0  0  0  0  0  0  0  0  0  0  0  0
  -42.0701  -64.2945   50.4611 O   0  0  0  0  0  0  0  0  0  0  0  0
  -42.9172  -64.6845   51.5447 C   0  0  0  0  0  0  0  0  0  0  0  0
  -41.4111  -62.0489   48.0659 C   0  0  0  0  0  0  0  0  0  0  0  0
  -40.7745  -60.9877   48.2968 O   0  0  0  0  0  0  0  0  0  0  0  0
  -42.7275  -61.9463   47.6718 O   0  0  0  0  0  0  0  0  0  0  0  0
  -43.4961  -63.0893   47.3666 C   0  0  0  0  0  0  0  0  0  0  0  0
 20 21  1  0  0  0
 21 22  2  0  0  0
 21 26  1  0  0  0
 22 23  1  0  0  0
 23 24  2  0  0  0
 24 25  1  0  0  0
 24 18  1  0  0  0
 25 26  2  0  0  0
 18 19  2  0  0  0
 18  1  1  0  0  0
  1  2  1  0  0  0
  1 17  1  0  0  0
  2  3  1  0  0  0
  2  6  1  0  0  0
  3  4  1  0  0  0
  3 16  1  0  0  0
  4  5  1  0  0  0
  4 15  1  0  0  0
  5  6  2  0  0  0
  5 12  1  0  0  0
  6  7  1  0  0  0
  7  8  2  0  0  0
  7  9  1  0  0  0
  9 10  1  0  0  0
  9 14  1  0  0  0
 10 11  2  0  0  0
 10 12  1  0  0  0
 12 13  1  0  0  0
 16 17  1  0  0  0
 16 31  1  0  0  0
 17 27  1  0  0  0
 27 28  2  0  0  0
 27 29  1  0  0  0
 29 30  1  0  0  0
 31 32  2  0  0  0
 31 33  1  0  0  0
 33 34  1  0  0  0
M  END
> <minimizedAffinity>
-6.88707

$$$$
1372


 31 34  0  0  0  0  0  0  0  0999 V2000
  -35.1817  -66.4278   48.9552 C   0  0  0  0  0  0  0  0  0  0  0  0
  -34.2620  -67.2717   48.9328 O   0  0  0  0  0  0  0  0  0  0  0  0
  -34.8909  -65.0778   49.1809 N   0  0  0  0  0  0  0  0  0  0  0  0
  -33.6634  -64.3639   49.0780 C   0  0  0  0  0  0  0  0  0  0  0  0
  -34.0845  -62.9429   48.6722 C   0  0  0  0  0  0  0  0  0  0  0  0
  -35.3564  -62.9396   47.8603 C   0  0  0  0  0  0  0  0  0  0  0  0
  -35.7410  -61.6033   47.4961 N   0  0  0  0  0  0  0  0  0  0  0  0
  -37.0300  -61.6874   46.7953 C   0  0  0  0  0  0  0  0  0  0  0  0
  -36.9022  -62.3830   45.4760 C   0  0  0  0  0  0  0  0  0  0  0  0
  -35.8681  -63.4424   45.4846 C   0  0  0  0  0  0  0  0  0  0  0  0
  -35.4757  -64.2765   44.5168 N   0  0  0  0  0  0  0  0  0  0  0  0
  -34.5000  -65.0691   45.0037 C   0  0  0  0  0  0  0  0  0  0  0  0
  -34.2984  -64.7139   46.2800 N   0  0  0  0  0  0  0  0  0  0  0  0
  -35.1150  -63.7110   46.6355 C   0  0  0  0  0  0  0  0  0  0  0  0
  -36.5585  -63.4823   48.6501 C   0  0  0  0  0  0  0  0  0  0  0  0
  -35.9652  -64.2147   49.7765 C   0  0  0  0  0  0  0  0  0  0  0  0
  -35.9301  -61.0486   48.3647 H   0  0  0  0  0  0  0  0  0  0  0  0
  -35.8099  -64.3658   43.5320 H   0  0  0  0  0  0  0  0  0  0  0  0
  -36.5764  -66.9132   48.7211 C   0  0  0  0  0  0  0  0  0  0  0  0
  -36.4954  -67.9297   47.5525 C   0  0  0  0  0  0  0  0  0  0  0  0
  -38.5076  -67.5261   50.1769 C   0  0  0  0  0  0  0  0  0  0  0  0
  -39.2559  -66.7630   49.5537 O   0  0  0  0  0  0  0  0  0  0  0  0
  -37.1127  -67.6956   49.8080 N   0  0  0  0  0  0  0  0  0  0  0  0
  -36.5254  -68.3613   50.3067 H   0  0  0  0  0  0  0  0  0  0  0  0
  -42.0267  -67.6467   54.1582 Br  0  0  0  0  0  0  0  0  0  0  0  0
  -40.5410  -68.4224   53.2007 C   0  0  0  0  0  0  0  0  0  0  0  0
  -40.0373  -67.7953   52.0885 C   0  0  0  0  0  0  0  0  0  0  0  0
  -38.9638  -68.3059   51.3399 C   0  0  0  0  0  0  0  0  0  0  0  0
  -38.4035  -69.4761   51.7533 C   0  0  0  0  0  0  0  0  0  0  0  0
  -38.9055  -70.1218   52.8784 C   0  0  0  0  0  0  0  0  0  0  0  0
  -39.9673  -69.6056   53.6025 C   0  0  0  0  0  0  0  0  0  0  0  0
 25 26  1  0  0  0
 26 27  2  0  0  0
 26 31  1  0  0  0
 27 28  1  0  0  0
 28 29  2  0  0  0
 28 21  1  0  0  0
 29 30  1  0  0  0
 30 31  2  0  0  0
 21 22  2  0  0  0
 21 23  1  0  0  0
 23 19  1  0  0  0
 19 20  1  0  0  0
 19  1  1  0  0  0
  1  2  2  0  0  0
  1  3  1  0  0  0
  3  4  1  0  0  0
  3 16  1  0  0  0
  4  5  1  0  0  0
  5  6  1  0  0  0
  6  7  1  0  0  0
  6 14  1  0  0  0
  6 15  1  0  0  0
  7  8  1  0  0  0
  8  9  1  0  0  0
  9 10  1  0  0  0
 10 11  1  0  0  0
 10 14  2  0  0  0
 11 12  1  0  0  0
 12 13  2  0  0  0
 13 14  1  0  0  0
 15 16  1  0  0  0
 23 24  1  0  0  0
  7 17  1  0  0  0
 11 18  1  0  0  0
M  END
> <minimizedAffinity>
-8.38691

$$$$
1381


 31 34  0  0  0  0  0  0  0  0999 V2000
  -40.8230  -66.6733   50.4288 C   0  0  0  0  0  0  0  0  0  0  0  0
  -41.2234  -67.0775   49.3449 O   0  0  0  0  0  0  0  0  0  0  0  0
  -41.0650  -67.1880   51.7626 C   0  0  0  0  0  0  0  0  0  0  0  0
  -42.1089  -66.7174   52.5085 N   0  0  0  0  0  0  0  0  0  0  0  0
  -42.3510  -67.1702   53.7259 N   0  0  0  0  0  0  0  0  0  0  0  0
  -41.5798  -68.1160   54.2884 C   0  0  0  0  0  0  0  0  0  0  0  0
  -41.8231  -68.5450   55.4658 O   0  0  0  0  0  0  0  0  0  0  0  0
  -40.5088  -68.6412   53.6048 C   0  0  0  0  0  0  0  0  0  0  0  0
  -40.2754  -68.1457   52.3194 C   0  0  0  0  0  0  0  0  0  0  0  0
  -39.1972  -68.6990   51.6734 C   0  0  0  0  0  0  0  0  0  0  0  0
  -38.4050  -69.6777   52.2645 C   0  0  0  0  0  0  0  0  0  0  0  0
  -38.6634  -70.1424   53.5326 C   0  0  0  0  0  0  0  0  0  0  0  0
  -39.7363  -69.6046   54.1977 C   0  0  0  0  0  0  0  0  0  0  0  0
  -43.4604  -66.6630   54.5068 C   0  0  0  0  0  0  0  0  0  0  0  0
  -44.2173  -65.5745   53.7922 C   0  0  0  0  0  0  0  0  0  0  0  0
  -43.4477  -64.4480   53.5678 O   0  0  0  0  0  0  0  0  0  0  0  0
  -42.5191  -64.6677   53.8167 H   0  0  0  0  0  0  0  0  0  0  0  0
  -40.0013  -65.5227   50.2792 O   0  0  0  0  0  0  0  0  0  0  0  0
  -39.6295  -65.1511   48.9797 C   0  0  0  0  0  0  0  0  0  0  0  0
  -31.5577  -67.0001   48.6194 Br  0  0  0  0  0  0  0  0  0  0  0  0
  -33.3581  -66.3751   48.8861 C   0  0  0  0  0  0  0  0  0  0  0  0
  -34.4134  -66.9594   48.2091 C   0  0  0  0  0  0  0  0  0  0  0  0
  -35.6874  -66.5305   48.3859 N   0  0  0  0  0  0  0  0  0  0  0  0
  -35.9606  -65.5259   49.2254 C   0  0  0  0  0  0  0  0  0  0  0  0
  -37.2246  -65.1048   49.3967 N   0  0  0  0  0  0  0  0  0  0  0  0
  -38.2626  -65.6587   48.7485 C   0  0  0  0  0  0  0  0  0  0  0  0
  -37.9839  -66.6900   47.8867 C   0  0  0  0  0  0  0  0  0  0  0  0
  -36.6705  -67.1431   47.6952 C   0  0  0  0  0  0  0  0  0  0  0  0
  -36.4501  -68.0893   46.8990 O   0  0  0  0  0  0  0  0  0  0  0  0
  -34.9289  -64.9351   49.9044 C   0  0  0  0  0  0  0  0  0  0  0  0
  -33.6197  -65.3422   49.7518 C   0  0  0  0  0  0  0  0  0  0  0  0
 20 21  1  0  0  0
 21 22  2  0  0  0
 21 31  1  0  0  0
 22 23  1  0  0  0
 23 24  1  0  0  0
 23 28  1  0  0  0
 24 25  2  0  0  0
 24 30  1  0  0  0
 25 26  1  0  0  0
 26 27  2  0  0  0
 26 19  1  0  0  0
 27 28  1  0  0  0
 28 29  2  0  0  0
 19 18  1  0  0  0
 18  1  1  0  0  0
  1  2  2  0  0  0
  1  3  1  0  0  0
  3  4  2  0  0  0
  3  9  1  0  0  0
  4  5  1  0  0  0
  5  6  1  0  0  0
  5 14  1  0  0  0
  6  7  2  0  0  0
  6  8  1  0  0  0
  8  9  2  0  0  0
  8 13  1  0  0  0
  9 10  1  0  0  0
 10 11  2  0  0  0
 11 12  1  0  0  0
 12 13  2  0  0  0
 14 15  1  0  0  0
 15 16  1  0  0  0
 30 31  2  0  0  0
 16 17  1  0  0  0
M  END
> <minimizedAffinity>
-9.02852

$$$$
1386


 33 36  0  0  0  0  0  0  0  0999 V2000
  -36.2135  -67.7638   49.3669 C   0  0  0  0  0  0  0  0  0  0  0  0
  -35.1035  -68.1796   49.7698 O   0  0  0  0  0  0  0  0  0  0  0  0
  -36.2511  -66.6177   48.4896 N   0  0  0  0  0  0  0  0  0  0  0  0
  -35.0137  -65.9936   48.1078 C   0  0  0  0  0  0  0  0  0  0  0  0
  -34.9868  -64.6220   48.7500 C   0  0  0  0  0  0  0  0  0  0  0  0
  -36.3304  -64.0028   48.8890 C   0  0  0  0  0  0  0  0  0  0  0  0
  -37.3880  -64.5574   48.0069 C   0  0  0  0  0  0  0  0  0  0  0  0
  -37.4605  -66.0486   47.9626 C   0  0  0  0  0  0  0  0  0  0  0  0
  -36.8091  -64.0316   50.2083 O   0  0  0  0  0  0  0  0  0  0  0  0
  -36.1830  -62.5141   48.5469 C   0  0  0  0  0  0  0  0  0  0  0  0
  -36.3500  -64.7914   50.6850 H   0  0  0  0  0  0  0  0  0  0  0  0
  -34.0470  -63.8096   48.0164 N   0  0  0  0  0  0  0  0  0  0  0  0
  -34.2349  -63.5725   46.7034 C   0  0  0  0  0  0  0  0  0  0  0  0
  -33.3637  -62.8037   45.9647 C   0  0  0  0  0  0  0  0  0  0  0  0
  -32.2684  -62.2636   46.5981 C   0  0  0  0  0  0  0  0  0  0  0  0
  -31.4246  -61.5425   45.9696 O   0  0  0  0  0  0  0  0  0  0  0  0
  -32.1065  -62.5168   47.9060 N   0  0  0  0  0  0  0  0  0  0  0  0
  -32.9653  -63.2654   48.5997 C   0  0  0  0  0  0  0  0  0  0  0  0
  -32.7666  -63.4735   49.8311 O   0  0  0  0  0  0  0  0  0  0  0  0
  -31.2730  -62.1195   48.4346 H   0  0  0  0  0  0  0  0  0  0  0  0
  -37.4799  -68.3956   49.7535 C   0  0  0  0  0  0  0  0  0  0  0  0
  -37.5866  -68.9570   51.1072 C   0  0  0  0  0  0  0  0  0  0  0  0
  -43.9340  -65.7445   53.9626 Cl  0  0  0  0  0  0  0  0  0  0  0  0
  -42.5478  -66.8306   53.7774 C   0  0  0  0  0  0  0  0  0  0  0  0
  -41.7139  -66.6761   52.6949 C   0  0  0  0  0  0  0  0  0  0  0  0
  -40.6190  -67.5056   52.5137 C   0  0  0  0  0  0  0  0  0  0  0  0
  -39.6621  -67.5832   51.5772 N   0  0  0  0  0  0  0  0  0  0  0  0
  -38.8015  -68.6143   51.8900 C   0  0  0  0  0  0  0  0  0  0  0  0
  -39.2696  -69.1322   53.0202 N   0  0  0  0  0  0  0  0  0  0  0  0
  -40.3925  -68.4866   53.4509 C   0  0  0  0  0  0  0  0  0  0  0  0
  -41.2231  -68.6501   54.5395 C   0  0  0  0  0  0  0  0  0  0  0  0
  -42.3062  -67.8218   54.7088 C   0  0  0  0  0  0  0  0  0  0  0  0
  -38.6986  -70.2167   53.7990 C   0  0  0  0  0  0  0  0  0  0  0  0
 23 24  1  0  0  0
 24 25  2  0  0  0
 24 32  1  0  0  0
 25 26  1  0  0  0
 26 27  1  0  0  0
 26 30  2  0  0  0
 27 28  2  0  0  0
 28 29  1  0  0  0
 28 22  1  0  0  0
 29 30  1  0  0  0
 29 33  1  0  0  0
 30 31  1  0  0  0
 31 32  2  0  0  0
 22 21  1  0  0  0
 21  1  1  0  0  0
  1  2  2  0  0  0
  1  3  1  0  0  0
  3  4  1  0  0  0
  3  8  1  0  0  0
  4  5  1  0  0  0
  5  6  1  0  0  0
  5 12  1  0  0  0
  6  7  1  0  0  0
  6  9  1  0  0  0
  6 10  1  0  0  0
  7  8  1  0  0  0
 12 13  1  0  0  0
 12 18  1  0  0  0
 13 14  2  0  0  0
 14 15  1  0  0  0
 15 16  2  0  0  0
 15 17  1  0  0  0
 17 18  1  0  0  0
 18 19  2  0  0  0
  9 11  1  0  0  0
 17 20  1  0  0  0
M  END
> <minimizedAffinity>
-9.29476

$$$$
1388


 30 33  0  0  0  0  0  0  0  0999 V2000
  -35.9110  -68.9974   50.9342 C   0  0  0  0  0  0  0  0  0  0  0  0
  -35.1644  -69.7766   51.5760 O   0  0  0  0  0  0  0  0  0  0  0  0
  -35.4251  -67.7363   50.5556 N   0  0  0  0  0  0  0  0  0  0  0  0
  -36.2227  -66.7881   49.8181 C   0  0  0  0  0  0  0  0  0  0  0  0
  -35.5500  -66.5992   48.4758 C   0  0  0  0  0  0  0  0  0  0  0  0
  -34.0854  -66.2926   48.6792 C   0  0  0  0  0  0  0  0  0  0  0  0
  -33.3169  -67.3611   48.0768 N   0  0  0  0  0  0  0  0  0  0  0  0
  -31.9103  -67.1588   48.0729 C   0  0  0  0  0  0  0  0  0  0  0  0
  -31.4246  -65.7837   47.7941 C   0  0  0  0  0  0  0  0  0  0  0  0
  -32.4847  -64.8117   47.4539 C   0  0  0  0  0  0  0  0  0  0  0  0
  -32.4691  -63.6341   46.7572 N   0  0  0  0  0  0  0  0  0  0  0  0
  -33.7241  -63.1688   46.7632 C   0  0  0  0  0  0  0  0  0  0  0  0
  -34.5088  -64.0231   47.4400 N   0  0  0  0  0  0  0  0  0  0  0  0
  -33.7659  -65.0658   47.8888 C   0  0  0  0  0  0  0  0  0  0  0  0
  -33.6877  -66.0954   50.1064 C   0  0  0  0  0  0  0  0  0  0  0  0
  -34.0834  -67.3434   50.9018 C   0  0  0  0  0  0  0  0  0  0  0  0
  -33.5176  -68.2498   48.6066 H   0  0  0  0  0  0  0  0  0  0  0  0
  -31.6004  -63.2120   46.3160 H   0  0  0  0  0  0  0  0  0  0  0  0
  -37.2805  -69.4831   50.6187 C   0  0  0  0  0  0  0  0  0  0  0  0
  -39.3105  -68.4481   51.6511 C   0  0  0  0  0  0  0  0  0  0  0  0
  -39.5083  -67.8518   50.5615 O   0  0  0  0  0  0  0  0  0  0  0  0
  -38.1832  -69.2965   51.7343 N   0  0  0  0  0  0  0  0  0  0  0  0
  -37.9990  -69.7998   52.6244 H   0  0  0  0  0  0  0  0  0  0  0  0
  -43.5084  -65.8597   53.6645 Br  0  0  0  0  0  0  0  0  0  0  0  0
  -42.1250  -67.1465   53.7941 C   0  0  0  0  0  0  0  0  0  0  0  0
  -41.2623  -67.3201   52.7268 C   0  0  0  0  0  0  0  0  0  0  0  0
  -40.2334  -68.2427   52.7581 C   0  0  0  0  0  0  0  0  0  0  0  0
  -40.0813  -69.0048   53.9076 C   0  0  0  0  0  0  0  0  0  0  0  0
  -40.9423  -68.8272   54.9646 C   0  0  0  0  0  0  0  0  0  0  0  0
  -41.9725  -67.9133   54.9504 C   0  0  0  0  0  0  0  0  0  0  0  0
 24 25  1  0  0  0
 25 26  2  0  0  0
 25 30  1  0  0  0
 26 27  1  0  0  0
 27 28  2  0  0  0
 27 20  1  0  0  0
 28 29  1  0  0  0
 29 30  2  0  0  0
 20 21  2  0  0  0
 20 22  1  0  0  0
 22 19  1  0  0  0
 19  1  1  0  0  0
  1  2  2  0  0  0
  1  3  1  0  0  0
  3  4  1  0  0  0
  3 16  1  0  0  0
  4  5  1  0  0  0
  5  6  1  0  0  0
  6  7  1  0  0  0
  6 14  1  0  0  0
  6 15  1  0  0  0
  7  8  1  0  0  0
  8  9  1  0  0  0
  9 10  1  0  0  0
 10 11  1  0  0  0
 10 14  2  0  0  0
 11 12  1  0  0  0
 12 13  2  0  0  0
 13 14  1  0  0  0
 15 16  1  0  0  0
 22 23  1  0  0  0
  7 17  1  0  0  0
 11 18  1  0  0  0
M  END
> <minimizedAffinity>
-8.59742

$$$$
1404


 26 29  0  0  0  0  0  0  0  0999 V2000
  -40.8621  -67.9168   54.3830 Br  0  0  0  0  0  0  0  0  0  0  0  0
  -40.0224  -67.8254   52.6725 C   0  0  0  0  0  0  0  0  0  0  0  0
  -40.1541  -66.7092   51.8683 C   0  0  0  0  0  0  0  0  0  0  0  0
  -39.5673  -66.5954   50.6258 C   0  0  0  0  0  0  0  0  0  0  0  0
  -38.8107  -67.6937   50.2070 C   0  0  0  0  0  0  0  0  0  0  0  0
  -38.6799  -68.8028   51.0063 C   0  0  0  0  0  0  0  0  0  0  0  0
  -39.2730  -68.9022   52.2479 C   0  0  0  0  0  0  0  0  0  0  0  0
  -39.0972  -70.1310   53.0734 C   0  0  0  0  0  0  0  0  0  0  0  0
  -38.2344  -67.5422   48.9535 O   0  0  0  0  0  0  0  0  0  0  0  0
  -38.5427  -66.4953   48.0527 C   0  0  0  0  0  0  0  0  0  0  0  0
  -38.6304  -65.1300   48.8126 C   0  0  0  0  0  0  0  0  0  0  0  0
  -39.7223  -65.4261   49.7717 C   0  0  0  0  0  0  0  0  0  0  0  0
  -40.7747  -64.7839   49.9336 O   0  0  0  0  0  0  0  0  0  0  0  0
  -38.7987  -64.0578   47.9925 N   0  0  0  0  0  0  0  0  0  0  0  0
  -38.5939  -62.7284   48.3813 C   0  0  0  0  0  0  0  0  0  0  0  0
  -39.9220  -62.0596   48.6642 C   0  0  0  0  0  0  0  0  0  0  0  0
  -40.5847  -61.9934   47.4155 O   0  0  0  0  0  0  0  0  0  0  0  0
  -40.9656  -63.3219   47.1578 C   0  0  0  0  0  0  0  0  0  0  0  0
  -39.6923  -64.1382   46.9234 C   0  0  0  0  0  0  0  0  0  0  0  0
  -37.3306  -65.0657   49.5319 C   0  0  0  0  0  0  0  0  0  0  0  0
  -36.1592  -65.5427   48.8656 N   0  0  0  0  0  0  0  0  0  0  0  0
  -35.4058  -64.6335   48.0883 C   0  0  0  0  0  0  0  0  0  0  0  0
  -34.5728  -63.7117   48.9913 C   0  0  0  0  0  0  0  0  0  0  0  0
  -33.6362  -64.5446   49.6125 O   0  0  0  0  0  0  0  0  0  0  0  0
  -34.3444  -65.3460   50.5155 C   0  0  0  0  0  0  0  0  0  0  0  0
  -35.3235  -66.2529   49.8354 C   0  0  0  0  0  0  0  0  0  0  0  0
  1  2  1  0  0  0
  2  3  2  0  0  0
  2  7  1  0  0  0
  3  4  1  0  0  0
  4  5  2  0  0  0
  4 12  1  0  0  0
  5  6  1  0  0  0
  5  9  1  0  0  0
  6  7  2  0  0  0
  7  8  1  0  0  0
  9 10  1  0  0  0
 10 11  1  0  0  0
 11 12  1  0  0  0
 11 14  1  0  0  0
 11 20  1  0  0  0
 12 13  2  0  0  0
 14 15  1  0  0  0
 14 19  1  0  0  0
 15 16  1  0  0  0
 16 17  1  0  0  0
 17 18  1  0  0  0
 18 19  1  0  0  0
 20 21  1  0  0  0
 21 22  1  0  0  0
 21 26  1  0  0  0
 22 23  1  0  0  0
 23 24  1  0  0  0
 24 25  1  0  0  0
 25 26  1  0  0  0
M  END
> <minimizedAffinity>
-6.81249

$$$$
1405


 27 30  0  0  0  0  0  0  0  0999 V2000
  -32.8579  -64.5044   42.5016 Br  0  0  0  0  0  0  0  0  0  0  0  0
  -32.7978  -65.1502   44.3165 C   0  0  0  0  0  0  0  0  0  0  0  0
  -33.7138  -64.7328   45.2458 C   0  0  0  0  0  0  0  0  0  0  0  0
  -33.6513  -65.2094   46.5384 C   0  0  0  0  0  0  0  0  0  0  0  0
  -32.6547  -66.0973   46.8410 C   0  0  0  0  0  0  0  0  0  0  0  0
  -31.7132  -66.5260   45.8835 C   0  0  0  0  0  0  0  0  0  0  0  0
  -31.7905  -66.0427   44.6046 C   0  0  0  0  0  0  0  0  0  0  0  0
  -32.7208  -66.4961   48.2068 N   0  0  0  0  0  0  0  0  0  0  0  0
  -33.8045  -65.8335   48.7969 C   0  0  0  0  0  0  0  0  0  0  0  0
  -34.1607  -65.9515   50.0091 O   0  0  0  0  0  0  0  0  0  0  0  0
  -34.4637  -64.9684   47.7561 C   0  0  0  0  0  0  0  0  0  0  0  0
  -35.8320  -65.4588   47.6378 C   0  0  0  0  0  0  0  0  0  0  0  0
  -36.8939  -64.6732   47.9624 C   0  0  0  0  0  0  0  0  0  0  0  0
  -38.0146  -65.4216   47.7411 N   0  0  0  0  0  0  0  0  0  0  0  0
  -37.6837  -66.6174   47.3010 N   0  0  0  0  0  0  0  0  0  0  0  0
  -36.3566  -66.6859   47.2220 C   0  0  0  0  0  0  0  0  0  0  0  0
  -35.4925  -67.8250   46.7801 C   0  0  0  0  0  0  0  0  0  0  0  0
  -36.7520  -63.3601   48.4240 O   0  0  0  0  0  0  0  0  0  0  0  0
  -35.4453  -62.8961   48.5360 C   0  0  0  0  0  0  0  0  0  0  0  0
  -34.3858  -63.6028   48.2401 C   0  0  0  0  0  0  0  0  0  0  0  0
  -35.2345  -61.5366   49.0113 N   0  0  0  0  0  0  0  0  0  0  0  0
  -31.8178  -67.4350   48.8896 C   0  0  0  0  0  0  0  0  0  0  0  0
  -38.3158  -67.4181   47.0415 H   0  0  0  0  0  0  0  0  0  0  0  0
  -35.1556  -61.4453   50.0438 H   0  0  0  0  0  0  0  0  0  0  0  0
  -35.1684  -60.7297   48.3943 H   0  0  0  0  0  0  0  0  0  0  0  0
  -33.0782  -62.9481   48.4194 C   0  0  0  0  0  0  0  0  0  0  0  0
  -32.0364  -62.4446   48.5780 N   0  0  0  0  0  0  0  0  0  0  0  0
  1  2  1  0  0  0
  2  3  2  0  0  0
  2  7  1  0  0  0
  3  4  1  0  0  0
  4  5  2  0  0  0
  4 11  1  0  0  0
  5  6  1  0  0  0
  5  8  1  0  0  0
  6  7  2  0  0  0
  8  9  1  0  0  0
  8 22  1  0  0  0
  9 10  2  0  0  0
  9 11  1  0  0  0
 11 12  1  0  0  0
 11 20  1  0  0  0
 12 13  1  0  0  0
 12 16  2  0  0  0
 13 14  2  0  0  0
 13 18  1  0  0  0
 14 15  1  0  0  0
 15 16  1  0  0  0
 16 17  1  0  0  0
 18 19  1  0  0  0
 19 20  2  0  0  0
 19 21  1  0  0  0
 20 26  1  0  0  0
 26 27  3  0  0  0
 15 23  1  0  0  0
 21 24  1  0  0  0
 21 25  1  0  0  0
M  END
> <minimizedAffinity>
-5.75917

$$$$
1413


 24 27  0  0  0  0  0  0  0  0999 V2000
  -42.2407  -67.2252   54.8780 C   0  0  0  0  0  0  0  0  0  0  0  0
  -47.0630  -66.4816   52.8260 Br  0  0  0  0  0  0  0  0  0  0  0  0
  -45.2197  -66.0654   52.9534 C   0  0  0  0  0  0  0  0  0  0  0  0
  -44.7174  -65.0806   52.1730 C   0  0  0  0  0  0  0  0  0  0  0  0
  -45.2982  -64.2783   51.2593 N   0  0  0  0  0  0  0  0  0  0  0  0
  -44.3090  -63.5084   50.8160 N   0  0  0  0  0  0  0  0  0  0  0  0
  -43.1719  -63.7819   51.3925 N   0  0  0  0  0  0  0  0  0  0  0  0
  -43.3756  -64.7906   52.2796 C   0  0  0  0  0  0  0  0  0  0  0  0
  -42.5601  -65.4897   53.1632 C   0  0  0  0  0  0  0  0  0  0  0  0
  -43.0535  -66.4686   53.9401 N   0  0  0  0  0  0  0  0  0  0  0  0
  -44.3710  -66.7438   53.8270 C   0  0  0  0  0  0  0  0  0  0  0  0
  -46.6326  -64.1885   50.8007 C   0  0  0  0  0  0  0  0  0  0  0  0
  -41.7972  -68.5229   54.3774 C   0  0  0  0  0  0  0  0  0  0  0  0
  -42.5492  -69.5118   54.6349 O   0  0  0  0  0  0  0  0  0  0  0  0
  -40.5805  -68.7873   53.6155 C   0  0  0  0  0  0  0  0  0  0  0  0
  -40.3508  -68.0810   52.4686 C   0  0  0  0  0  0  0  0  0  0  0  0
  -39.2200  -68.3125   51.7296 C   0  0  0  0  0  0  0  0  0  0  0  0
  -38.2789  -69.2538   52.1048 C   0  0  0  0  0  0  0  0  0  0  0  0
  -38.5436  -69.9568   53.2778 C   0  0  0  0  0  0  0  0  0  0  0  0
  -39.6704  -69.7285   54.0187 C   0  0  0  0  0  0  0  0  0  0  0  0
  -37.1334  -69.5041   51.3781 C   0  0  0  0  0  0  0  0  0  0  0  0
  -36.9358  -68.7717   50.2273 C   0  0  0  0  0  0  0  0  0  0  0  0
  -37.8676  -67.8301   49.8428 C   0  0  0  0  0  0  0  0  0  0  0  0
  -39.0079  -67.5846   50.5724 C   0  0  0  0  0  0  0  0  0  0  0  0
  2  3  1  0  0  0
  3  4  2  0  0  0
  3 11  1  0  0  0
  4  5  1  0  0  0
  4  8  1  0  0  0
  5  6  1  0  0  0
  5 12  1  0  0  0
  6  7  2  0  0  0
  7  8  1  0  0  0
  8  9  2  0  0  0
  9 10  1  0  0  0
 10 11  2  0  0  0
 10  1  1  0  0  0
  1 13  1  0  0  0
 13 14  2  0  0  0
 13 15  1  0  0  0
 15 16  2  0  0  0
 15 20  1  0  0  0
 16 17  1  0  0  0
 17 18  2  0  0  0
 17 24  1  0  0  0
 18 19  1  0  0  0
 18 21  1  0  0  0
 19 20  2  0  0  0
 21 22  2  0  0  0
 22 23  1  0  0  0
 23 24  2  0  0  0
M  END
> <minimizedAffinity>
-9.21227

$$$$
1415


 32 35  0  0  0  0  0  0  0  0999 V2000
  -37.8475  -70.0335   50.6446 Br  0  0  0  0  0  0  0  0  0  0  0  0
  -38.9836  -68.6951   51.4135 C   0  0  0  0  0  0  0  0  0  0  0  0
  -39.3713  -67.6123   50.6608 C   0  0  0  0  0  0  0  0  0  0  0  0
  -40.2029  -66.6091   51.1858 C   0  0  0  0  0  0  0  0  0  0  0  0
  -40.6078  -66.7692   52.4929 C   0  0  0  0  0  0  0  0  0  0  0  0
  -40.2331  -67.8443   53.2697 C   0  0  0  0  0  0  0  0  0  0  0  0
  -39.4182  -68.8146   52.7326 C   0  0  0  0  0  0  0  0  0  0  0  0
  -38.9606  -70.0097   53.4876 C   0  0  0  0  0  0  0  0  0  0  0  0
  -40.8101  -68.0396   55.0778 Br  0  0  0  0  0  0  0  0  0  0  0  0
  -40.5846  -65.4838   50.3579 C   0  0  0  0  0  0  0  0  0  0  0  0
  -41.3971  -64.6519   50.7755 O   0  0  0  0  0  0  0  0  0  0  0  0
  -39.9961  -65.3398   49.0146 C   0  0  0  0  0  0  0  0  0  0  0  0
  -39.7692  -66.7346   48.4743 C   0  0  0  0  0  0  0  0  0  0  0  0
  -38.9420  -67.4862   49.3432 O   0  0  0  0  0  0  0  0  0  0  0  0
  -40.8252  -64.5129   48.0793 C   0  0  0  0  0  0  0  0  0  0  0  0
  -41.1604  -63.2165   48.5278 N   0  0  0  0  0  0  0  0  0  0  0  0
  -40.4540  -62.2344   47.7596 C   0  0  0  0  0  0  0  0  0  0  0  0
  -40.9141  -62.0774   46.3546 C   0  0  0  0  0  0  0  0  0  0  0  0
  -42.1624  -62.7777   45.9798 C   0  0  0  0  0  0  0  0  0  0  0  0
  -43.0908  -63.1171   47.0798 C   0  0  0  0  0  0  0  0  0  0  0  0
  -42.5537  -62.8724   48.4592 C   0  0  0  0  0  0  0  0  0  0  0  0
  -39.7981  -62.5975   45.4410 C   0  0  0  0  0  0  0  0  0  0  0  0
  -40.8665  -63.0956   49.5300 H   0  0  0  0  0  0  0  0  0  0  0  0
  -38.6431  -64.6902   49.2198 C   0  0  0  0  0  0  0  0  0  0  0  0
  -37.6297  -65.0925   48.3052 N   0  0  0  0  0  0  0  0  0  0  0  0
  -36.4743  -65.6192   49.0290 C   0  0  0  0  0  0  0  0  0  0  0  0
  -35.3567  -64.6232   49.1343 C   0  0  0  0  0  0  0  0  0  0  0  0
  -35.9241  -63.2559   49.4416 C   0  0  0  0  0  0  0  0  0  0  0  0
  -36.7095  -62.8081   48.2481 C   0  0  0  0  0  0  0  0  0  0  0  0
  -37.1313  -64.0261   47.4640 C   0  0  0  0  0  0  0  0  0  0  0  0
  -34.5135  -65.0232   50.3526 C   0  0  0  0  0  0  0  0  0  0  0  0
  -37.9645  -65.8503   47.7043 H   0  0  0  0  0  0  0  0  0  0  0  0
  1  2  1  0  0  0
  2  3  2  0  0  0
  2  7  1  0  0  0
  3  4  1  0  0  0
  3 14  1  0  0  0
  4  5  2  0  0  0
  4 10  1  0  0  0
  5  6  1  0  0  0
  6  7  2  0  0  0
  6  9  1  0  0  0
  7  8  1  0  0  0
 10 11  2  0  0  0
 10 12  1  0  0  0
 12 13  1  0  0  0
 12 15  1  0  0  0
 12 24  1  0  0  0
 13 14  1  0  0  0
 15 16  1  0  0  0
 16 17  1  0  0  0
 16 21  1  0  0  0
 17 18  1  0  0  0
 18 19  1  0  0  0
 18 22  1  0  0  0
 19 20  1  0  0  0
 20 21  1  0  0  0
 24 25  1  0  0  0
 25 26  1  0  0  0
 25 30  1  0  0  0
 26 27  1  0  0  0
 27 28  1  0  0  0
 27 31  1  0  0  0
 28 29  1  0  0  0
 29 30  1  0  0  0
 16 23  1  0  0  0
 25 32  1  0  0  0
M  CHG 1  16   1
M  CHG 1  25   1
M  END
> <minimizedAffinity>
-7.51100

$$$$
1428


 37 40  0  0  0  0  0  0  0  0999 V2000
  -38.9634  -68.8196   50.5887 Cl  0  0  0  0  0  0  0  0  0  0  0  0
  -39.9250  -68.2967   51.9680 C   0  0  0  0  0  0  0  0  0  0  0  0
  -41.0281  -67.4983   51.8242 C   0  0  0  0  0  0  0  0  0  0  0  0
  -41.7446  -67.1179   52.9363 C   0  0  0  0  0  0  0  0  0  0  0  0
  -41.3214  -67.5585   54.1629 C   0  0  0  0  0  0  0  0  0  0  0  0
  -40.1952  -68.3737   54.3066 C   0  0  0  0  0  0  0  0  0  0  0  0
  -39.4929  -68.7439   53.1975 C   0  0  0  0  0  0  0  0  0  0  0  0
  -42.1589  -67.1032   55.2194 N   0  0  0  0  0  0  0  0  0  0  0  0
  -43.1630  -66.3346   54.6168 C   0  0  0  0  0  0  0  0  0  0  0  0
  -44.0926  -65.7890   55.2977 O   0  0  0  0  0  0  0  0  0  0  0  0
  -42.9496  -66.2855   53.1636 C   0  0  0  0  0  0  0  0  0  0  0  0
  -44.1160  -66.8321   52.5290 N   0  0  0  0  0  0  0  0  0  0  0  0
  -44.8024  -65.7854   51.8381 C   0  0  0  0  0  0  0  0  0  0  0  0
  -44.2208  -64.4887   52.3022 C   0  0  0  0  0  0  0  0  0  0  0  0
  -42.8337  -64.8923   52.7181 C   0  0  0  0  0  0  0  0  0  0  0  0
  -42.0515  -67.3010   56.2496 H   0  0  0  0  0  0  0  0  0  0  0  0
  -43.8719  -67.6493   51.9306 H   0  0  0  0  0  0  0  0  0  0  0  0
  -41.8158  -64.6160   51.6720 C   0  0  0  0  0  0  0  0  0  0  0  0
  -40.7292  -64.1356   52.0753 O   0  0  0  0  0  0  0  0  0  0  0  0
  -42.0151  -64.8600   50.3084 N   0  0  0  0  0  0  0  0  0  0  0  0
  -42.9667  -65.2791   50.0726 H   0  0  0  0  0  0  0  0  0  0  0  0
  -41.1430  -64.6390   49.2414 C   0  0  0  0  0  0  0  0  0  0  0  0
  -41.2924  -63.4962   48.4689 C   0  0  0  0  0  0  0  0  0  0  0  0
  -40.4655  -63.2131   47.4009 C   0  0  0  0  0  0  0  0  0  0  0  0
  -39.4452  -64.0606   47.0488 C   0  0  0  0  0  0  0  0  0  0  0  0
  -39.2738  -65.1938   47.7902 C   0  0  0  0  0  0  0  0  0  0  0  0
  -40.1150  -65.4670   48.8662 C   0  0  0  0  0  0  0  0  0  0  0  0
  -42.2988  -62.5926   48.7610 O   0  0  0  0  0  0  0  0  0  0  0  0
  -43.4567  -62.4365   47.9993 C   0  0  0  0  0  0  0  0  0  0  0  0
  -38.2562  -66.0737   47.4689 O   0  0  0  0  0  0  0  0  0  0  0  0
  -37.1927  -66.3704   48.3556 C   0  0  0  0  0  0  0  0  0  0  0  0
  -46.3041  -65.8509   52.0631 C   0  0  0  0  0  0  0  0  0  0  0  0
  -46.6568  -66.7548   53.1671 C   0  0  0  0  0  0  0  0  0  0  0  0
  -46.8542  -67.9609   52.9516 O   0  0  0  0  0  0  0  0  0  0  0  0
  -46.7710  -66.2484   54.4751 N   0  0  0  0  0  0  0  0  0  0  0  0
  -46.2956  -66.7638   55.2463 H   0  0  0  0  0  0  0  0  0  0  0  0
  -47.3045  -65.3824   54.7318 H   0  0  0  0  0  0  0  0  0  0  0  0
  1  2  1  0  0  0
  2  3  2  0  0  0
  2  7  1  0  0  0
  3  4  1  0  0  0
  4  5  2  0  0  0
  4 11  1  0  0  0
  5  6  1  0  0  0
  5  8  1  0  0  0
  6  7  2  0  0  0
  8  9  1  0  0  0
  9 10  2  0  0  0
  9 11  1  0  0  0
 11 12  1  0  0  0
 11 15  1  0  0  0
 12 13  1  0  0  0
 13 14  1  0  0  0
 13 32  1  0  0  0
 14 15  1  0  0  0
 15 18  1  0  0  0
 18 19  2  0  0  0
 18 20  1  0  0  0
 20 22  1  0  0  0
 22 23  2  0  0  0
 22 27  1  0  0  0
 23 24  1  0  0  0
 23 28  1  0  0  0
 24 25  2  0  0  0
 25 26  1  0  0  0
 26 27  2  0  0  0
 26 30  1  0  0  0
 30 31  1  0  0  0
 28 29  1  0  0  0
 32 33  1  0  0  0
 33 34  2  0  0  0
 33 35  1  0  0  0
  8 16  1  0  0  0
 12 17  1  0  0  0
 20 21  1  0  0  0
 35 36  1  0  0  0
 35 37  1  0  0  0
M  END
> <minimizedAffinity>
-8.20304

$$$$
1432


 21 24  0  0  0  0  0  0  0  0999 V2000
  -38.4028  -68.5937   51.1228 C   0  0  0  0  0  0  0  0  0  0  0  0
  -39.0252  -67.5067   50.6379 N   0  0  0  0  0  0  0  0  0  0  0  0
  -40.0803  -67.1848   51.4048 N   0  0  0  0  0  0  0  0  0  0  0  0
  -40.1311  -68.0862   52.4017 C   0  0  0  0  0  0  0  0  0  0  0  0
  -39.1062  -68.9401   52.2222 N   0  0  0  0  0  0  0  0  0  0  0  0
  -41.1454  -67.9595   53.3313 C   0  0  0  0  0  0  0  0  0  0  0  0
  -42.0870  -66.9501   53.2606 C   0  0  0  0  0  0  0  0  0  0  0  0
  -42.9619  -67.0544   54.2840 N   0  0  0  0  0  0  0  0  0  0  0  0
  -42.5768  -68.1058   54.9825 N   0  0  0  0  0  0  0  0  0  0  0  0
  -41.4870  -68.6859   54.4480 C   0  0  0  0  0  0  0  0  0  0  0  0
  -44.0935  -66.1659   54.5395 C   0  0  0  0  0  0  0  0  0  0  0  0
  -41.9745  -66.0849   52.2380 N   0  0  0  0  0  0  0  0  0  0  0  0
  -40.9929  -66.1978   51.3283 C   0  0  0  0  0  0  0  0  0  0  0  0
  -37.1991  -69.2904   50.5914 C   0  0  0  0  0  0  0  0  0  0  0  0
  -33.4410  -65.5368   49.4082 Br  0  0  0  0  0  0  0  0  0  0  0  0
  -34.8120  -66.8574   49.3164 C   0  0  0  0  0  0  0  0  0  0  0  0
  -35.4173  -67.5427   50.3671 C   0  0  0  0  0  0  0  0  0  0  0  0
  -36.3357  -68.3842   49.8515 N   0  0  0  0  0  0  0  0  0  0  0  0
  -36.3210  -68.2466   48.5254 N   0  0  0  0  0  0  0  0  0  0  0  0
  -35.4063  -67.3259   48.1640 C   0  0  0  0  0  0  0  0  0  0  0  0
  -35.0487  -66.8529   46.8058 C   0  0  0  0  0  0  0  0  0  0  0  0
 15 16  1  0  0  0
 16 17  2  0  0  0
 16 20  1  0  0  0
 17 18  1  0  0  0
 18 19  1  0  0  0
 18 14  1  0  0  0
 19 20  2  0  0  0
 20 21  1  0  0  0
 14  1  1  0  0  0
  1  2  2  0  0  0
  1  5  1  0  0  0
  2  3  1  0  0  0
  3  4  1  0  0  0
  3 13  1  0  0  0
  4  5  2  0  0  0
  4  6  1  0  0  0
  6  7  2  0  0  0
  6 10  1  0  0  0
  7  8  1  0  0  0
  7 12  1  0  0  0
  8  9  1  0  0  0
  8 11  1  0  0  0
  9 10  2  0  0  0
 12 13  2  0  0  0
M  END
> <minimizedAffinity>
-7.35962

$$$$
1433


 28 31  0  0  0  0  0  0  0  0999 V2000
  -41.2795  -67.2641   49.8095 Br  0  0  0  0  0  0  0  0  0  0  0  0
  -39.6525  -67.8604   50.5798 C   0  0  0  0  0  0  0  0  0  0  0  0
  -38.4341  -67.4514   50.0281 C   0  0  0  0  0  0  0  0  0  0  0  0
  -37.2368  -67.8536   50.5668 C   0  0  0  0  0  0  0  0  0  0  0  0
  -37.2786  -68.6749   51.6680 C   0  0  0  0  0  0  0  0  0  0  0  0
  -38.4782  -69.0982   52.2377 C   0  0  0  0  0  0  0  0  0  0  0  0
  -39.6894  -68.6780   51.6805 C   0  0  0  0  0  0  0  0  0  0  0  0
  -40.9774  -69.1191   52.2837 C   0  0  0  0  0  0  0  0  0  0  0  0
  -38.4708  -70.0045   53.4167 C   0  0  0  0  0  0  0  0  0  0  0  0
  -35.8944  -67.4361   50.0692 C   0  0  0  0  0  0  0  0  0  0  0  0
  -35.9161  -66.6984   48.7658 C   0  0  0  0  0  0  0  0  0  0  0  0
  -37.2220  -67.0017   48.0545 C   0  0  0  0  0  0  0  0  0  0  0  0
  -38.3321  -66.6313   48.9128 O   0  0  0  0  0  0  0  0  0  0  0  0
  -35.1095  -68.6246   49.9464 O   0  0  0  0  0  0  0  0  0  0  0  0
  -34.8381  -68.8819   50.8618 H   0  0  0  0  0  0  0  0  0  0  0  0
  -34.8411  -67.2492   47.9687 N   0  0  0  0  0  0  0  0  0  0  0  0
  -33.6081  -66.5487   48.1064 C   0  0  0  0  0  0  0  0  0  0  0  0
  -32.5893  -66.8131   47.0349 C   0  0  0  0  0  0  0  0  0  0  0  0
  -33.0957  -66.9779   45.7742 O   0  0  0  0  0  0  0  0  0  0  0  0
  -34.0151  -68.0344   45.8146 C   0  0  0  0  0  0  0  0  0  0  0  0
  -35.2154  -67.4425   46.5989 C   0  0  0  0  0  0  0  0  0  0  0  0
  -35.8740  -65.2203   48.8533 C   0  0  0  0  0  0  0  0  0  0  0  0
  -36.5513  -64.3695   47.9872 N   0  0  0  0  0  0  0  0  0  0  0  0
  -36.6910  -63.0153   48.6245 C   0  0  0  0  0  0  0  0  0  0  0  0
  -35.3698  -62.4714   49.0249 C   0  0  0  0  0  0  0  0  0  0  0  0
  -34.3217  -62.8525   48.2309 O   0  0  0  0  0  0  0  0  0  0  0  0
  -34.6367  -63.2065   46.9515 C   0  0  0  0  0  0  0  0  0  0  0  0
  -35.9087  -63.9650   46.7505 C   0  0  0  0  0  0  0  0  0  0  0  0
  1  2  1  0  0  0
  2  3  2  0  0  0
  2  7  1  0  0  0
  3  4  1  0  0  0
  3 13  1  0  0  0
  4  5  2  0  0  0
  4 10  1  0  0  0
  5  6  1  0  0  0
  6  7  2  0  0  0
  6  9  1  0  0  0
  7  8  1  0  0  0
 10 11  1  0  0  0
 10 14  1  0  0  0
 11 12  1  0  0  0
 11 16  1  0  0  0
 11 22  1  0  0  0
 12 13  1  0  0  0
 16 17  1  0  0  0
 16 21  1  0  0  0
 17 18  1  0  0  0
 18 19  1  0  0  0
 19 20  1  0  0  0
 20 21  1  0  0  0
 22 23  1  0  0  0
 23 24  1  0  0  0
 23 28  1  0  0  0
 24 25  1  0  0  0
 25 26  1  0  0  0
 26 27  1  0  0  0
 27 28  1  0  0  0
 14 15  1  0  0  0
M  END
> <minimizedAffinity>
-6.99398

$$$$
1434


 28 31  0  0  0  0  0  0  0  0999 V2000
  -40.3606  -65.7097   50.0820 C   0  0  0  0  0  0  0  0  0  0  0  0
  -41.1784  -66.7019   49.7478 O   0  0  0  0  0  0  0  0  0  0  0  0
  -39.3497  -65.4678   49.1654 N   0  0  0  0  0  0  0  0  0  0  0  0
  -38.3227  -64.4901   49.2306 C   0  0  0  0  0  0  0  0  0  0  0  0
  -36.9793  -65.1656   49.5089 C   0  0  0  0  0  0  0  0  0  0  0  0
  -36.9597  -66.5429   48.8675 C   0  0  0  0  0  0  0  0  0  0  0  0
  -35.5887  -66.7531   48.4345 N   0  0  0  0  0  0  0  0  0  0  0  0
  -34.9011  -67.3630   49.5465 C   0  0  0  0  0  0  0  0  0  0  0  0
  -33.6562  -67.4149   49.7057 O   0  0  0  0  0  0  0  0  0  0  0  0
  -35.9077  -67.8941   50.4291 N   0  0  0  0  0  0  0  0  0  0  0  0
  -37.1816  -67.6118   49.8635 C   0  0  0  0  0  0  0  0  0  0  0  0
  -38.2538  -68.1799   50.1764 O   0  0  0  0  0  0  0  0  0  0  0  0
  -37.8536  -66.6361   47.6714 C   0  0  0  0  0  0  0  0  0  0  0  0
  -39.2862  -66.3179   47.9515 C   0  0  0  0  0  0  0  0  0  0  0  0
  -35.1718  -66.5165   47.5101 H   0  0  0  0  0  0  0  0  0  0  0  0
  -35.7294  -68.3906   51.3134 H   0  0  0  0  0  0  0  0  0  0  0  0
  -40.7307  -65.1126   51.3499 C   0  0  0  0  0  0  0  0  0  0  0  0
  -45.4841  -66.2393   53.7252 Br  0  0  0  0  0  0  0  0  0  0  0  0
  -43.6627  -66.2036   53.1460 C   0  0  0  0  0  0  0  0  0  0  0  0
  -42.7106  -67.0749   53.6134 C   0  0  0  0  0  0  0  0  0  0  0  0
  -41.5363  -66.7539   52.9832 C   0  0  0  0  0  0  0  0  0  0  0  0
  -41.7551  -65.7018   52.1394 N   0  0  0  0  0  0  0  0  0  0  0  0
  -43.0630  -65.3684   52.2452 C   0  0  0  0  0  0  0  0  0  0  0  0
  -43.7240  -64.2726   51.5007 C   0  0  0  0  0  0  0  0  0  0  0  0
  -40.3840  -67.4868   53.2685 C   0  0  0  0  0  0  0  0  0  0  0  0
  -40.4196  -68.5328   54.1816 C   0  0  0  0  0  0  0  0  0  0  0  0
  -41.6003  -68.8373   54.7998 C   0  0  0  0  0  0  0  0  0  0  0  0
  -42.7414  -68.1196   54.5245 C   0  0  0  0  0  0  0  0  0  0  0  0
 18 19  1  0  0  0
 19 20  1  0  0  0
 19 23  2  0  0  0
 20 21  2  0  0  0
 20 28  1  0  0  0
 21 22  1  0  0  0
 21 25  1  0  0  0
 22 23  1  0  0  0
 22 17  1  0  0  0
 23 24  1  0  0  0
 17  1  1  0  0  0
  1  2  2  0  0  0
  1  3  1  0  0  0
  3  4  1  0  0  0
  3 14  1  0  0  0
  4  5  1  0  0  0
  5  6  1  0  0  0
  6  7  1  0  0  0
  6 11  1  0  0  0
  6 13  1  0  0  0
  7  8  1  0  0  0
  8  9  2  0  0  0
  8 10  1  0  0  0
 10 11  1  0  0  0
 11 12  2  0  0  0
 13 14  1  0  0  0
 25 26  2  0  0  0
 26 27  1  0  0  0
 27 28  2  0  0  0
  7 15  1  0  0  0
 10 16  1  0  0  0
M  END
> <minimizedAffinity>
-8.81278

$$$$
1435


 32 35  0  0  0  0  0  0  0  0999 V2000
  -39.8916  -68.3564   51.6562 C   0  0  0  0  0  0  0  0  0  0  0  0
  -40.1220  -67.0752   52.4461 C   0  0  0  0  0  0  0  0  0  0  0  0
  -40.8652  -68.8192   55.1953 Br  0  0  0  0  0  0  0  0  0  0  0  0
  -41.9302  -67.6683   54.1056 C   0  0  0  0  0  0  0  0  0  0  0  0
  -41.4508  -67.0341   53.0078 N   0  0  0  0  0  0  0  0  0  0  0  0
  -42.5015  -66.3318   52.5280 C   0  0  0  0  0  0  0  0  0  0  0  0
  -43.6207  -66.5216   53.3114 C   0  0  0  0  0  0  0  0  0  0  0  0
  -43.2279  -67.3670   54.2933 N   0  0  0  0  0  0  0  0  0  0  0  0
  -44.8063  -65.9282   53.0447 N   0  0  0  0  0  0  0  0  0  0  0  0
  -44.8765  -65.1240   51.9690 C   0  0  0  0  0  0  0  0  0  0  0  0
  -45.9468  -64.5370   51.6579 O   0  0  0  0  0  0  0  0  0  0  0  0
  -43.7931  -64.9118   51.1726 N   0  0  0  0  0  0  0  0  0  0  0  0
  -42.6135  -65.4957   51.4299 C   0  0  0  0  0  0  0  0  0  0  0  0
  -41.5899  -65.3331   50.7289 O   0  0  0  0  0  0  0  0  0  0  0  0
  -45.9739  -66.1404   53.8794 C   0  0  0  0  0  0  0  0  0  0  0  0
  -43.8867  -64.2784   50.3442 H   0  0  0  0  0  0  0  0  0  0  0  0
  -38.4676  -68.8267   51.7917 C   0  0  0  0  0  0  0  0  0  0  0  0
  -37.7625  -69.0788   50.4925 C   0  0  0  0  0  0  0  0  0  0  0  0
  -36.7823  -68.0726   50.2530 N   0  0  0  0  0  0  0  0  0  0  0  0
  -36.8659  -66.9108   49.6075 C   0  0  0  0  0  0  0  0  0  0  0  0
  -35.6362  -66.2665   49.6843 C   0  0  0  0  0  0  0  0  0  0  0  0
  -34.8472  -67.0776   50.3827 N   0  0  0  0  0  0  0  0  0  0  0  0
  -35.5183  -68.1751   50.7356 C   0  0  0  0  0  0  0  0  0  0  0  0
  -34.7717  -69.6081   51.7476 Br  0  0  0  0  0  0  0  0  0  0  0  0
  -35.4507  -65.0752   49.1088 N   0  0  0  0  0  0  0  0  0  0  0  0
  -36.4479  -64.4668   48.4382 C   0  0  0  0  0  0  0  0  0  0  0  0
  -36.2654  -63.3463   47.9001 O   0  0  0  0  0  0  0  0  0  0  0  0
  -37.6350  -65.0755   48.3555 N   0  0  0  0  0  0  0  0  0  0  0  0
  -37.8633  -66.2713   48.9190 C   0  0  0  0  0  0  0  0  0  0  0  0
  -38.9769  -66.8251   48.8291 O   0  0  0  0  0  0  0  0  0  0  0  0
  -34.1713  -64.3768   49.1746 C   0  0  0  0  0  0  0  0  0  0  0  0
  -38.4461  -64.6318   47.8372 H   0  0  0  0  0  0  0  0  0  0  0  0
  3  4  1  0  0  0
  4  5  1  0  0  0
  4  8  2  0  0  0
  5  6  1  0  0  0
  5  2  1  0  0  0
  6  7  2  0  0  0
  6 13  1  0  0  0
  7  8  1  0  0  0
  7  9  1  0  0  0
  9 10  1  0  0  0
  9 15  1  0  0  0
 10 11  2  0  0  0
 10 12  1  0  0  0
 12 13  1  0  0  0
 13 14  2  0  0  0
  2  1  1  0  0  0
  1 17  1  0  0  0
 17 18  1  0  0  0
 18 19  1  0  0  0
 19 20  1  0  0  0
 19 23  1  0  0  0
 20 21  2  0  0  0
 20 29  1  0  0  0
 21 22  1  0  0  0
 21 25  1  0  0  0
 22 23  2  0  0  0
 23 24  1  0  0  0
 25 26  1  0  0  0
 25 31  1  0  0  0
 26 27  2  0  0  0
 26 28  1  0  0  0
 28 29  1  0  0  0
 29 30  2  0  0  0
 12 16  1  0  0  0
 28 32  1  0  0  0
M  END
> <minimizedAffinity>
-8.06118

$$$$
1436


 33 36  0  0  0  0  0  0  0  0999 V2000
  -39.6400  -65.6369   47.7326 O   0  0  0  0  0  0  0  0  0  0  0  0
  -38.6332  -64.8313   48.1507 C   0  0  0  0  0  0  0  0  0  0  0  0
  -37.5264  -64.4277   47.2678 C   0  0  0  0  0  0  0  0  0  0  0  0
  -36.6606  -67.7808   47.2013 Br  0  0  0  0  0  0  0  0  0  0  0  0
  -35.7189  -66.1505   47.5364 C   0  0  0  0  0  0  0  0  0  0  0  0
  -36.2193  -64.9169   47.5505 N   0  0  0  0  0  0  0  0  0  0  0  0
  -35.1826  -64.0988   47.8836 C   0  0  0  0  0  0  0  0  0  0  0  0
  -34.0672  -64.8887   48.0589 C   0  0  0  0  0  0  0  0  0  0  0  0
  -34.4009  -66.1538   47.8436 N   0  0  0  0  0  0  0  0  0  0  0  0
  -32.8887  -64.2997   48.4052 N   0  0  0  0  0  0  0  0  0  0  0  0
  -32.8504  -62.9783   48.5653 C   0  0  0  0  0  0  0  0  0  0  0  0
  -31.7419  -62.4600   48.8863 O   0  0  0  0  0  0  0  0  0  0  0  0
  -33.9311  -62.1998   48.3972 N   0  0  0  0  0  0  0  0  0  0  0  0
  -35.1389  -62.7289   48.0506 C   0  0  0  0  0  0  0  0  0  0  0  0
  -36.1450  -61.9920   47.8984 O   0  0  0  0  0  0  0  0  0  0  0  0
  -31.6935  -65.0947   48.5982 C   0  0  0  0  0  0  0  0  0  0  0  0
  -33.8861  -61.1665   48.5264 H   0  0  0  0  0  0  0  0  0  0  0  0
  -40.0144  -66.5347   48.7187 C   0  0  0  0  0  0  0  0  0  0  0  0
  -39.4190  -66.1052   50.0264 C   0  0  0  0  0  0  0  0  0  0  0  0
  -40.1119  -66.6658   51.1429 N   0  0  0  0  0  0  0  0  0  0  0  0
  -41.1446  -66.1055   51.7865 C   0  0  0  0  0  0  0  0  0  0  0  0
  -41.5142  -66.9465   52.7896 C   0  0  0  0  0  0  0  0  0  0  0  0
  -40.6987  -67.9961   52.7328 N   0  0  0  0  0  0  0  0  0  0  0  0
  -39.8184  -67.8591   51.7275 C   0  0  0  0  0  0  0  0  0  0  0  0
  -38.4294  -69.0284   51.1705 Br  0  0  0  0  0  0  0  0  0  0  0  0
  -42.5393  -66.6228   53.5967 N   0  0  0  0  0  0  0  0  0  0  0  0
  -43.1821  -65.4744   53.3981 C   0  0  0  0  0  0  0  0  0  0  0  0
  -44.1410  -65.1841   54.1618 O   0  0  0  0  0  0  0  0  0  0  0  0
  -42.8375  -64.6405   52.4249 N   0  0  0  0  0  0  0  0  0  0  0  0
  -41.8257  -64.9191   51.5987 C   0  0  0  0  0  0  0  0  0  0  0  0
  -41.5269  -64.0931   50.6780 O   0  0  0  0  0  0  0  0  0  0  0  0
  -42.9470  -67.5051   54.6699 C   0  0  0  0  0  0  0  0  0  0  0  0
  -43.3537  -63.7448   52.2854 H   0  0  0  0  0  0  0  0  0  0  0  0
  4  5  1  0  0  0
  5  6  1  0  0  0
  5  9  2  0  0  0
  6  7  1  0  0  0
  6  3  1  0  0  0
  7  8  2  0  0  0
  7 14  1  0  0  0
  8  9  1  0  0  0
  8 10  1  0  0  0
 10 11  1  0  0  0
 10 16  1  0  0  0
 11 12  2  0  0  0
 11 13  1  0  0  0
 13 14  1  0  0  0
 14 15  2  0  0  0
  3  2  1  0  0  0
  2  1  1  0  0  0
  1 18  1  0  0  0
 18 19  1  0  0  0
 19 20  1  0  0  0
 20 21  1  0  0  0
 20 24  1  0  0  0
 21 22  2  0  0  0
 21 30  1  0  0  0
 22 23  1  0  0  0
 22 26  1  0  0  0
 23 24  2  0  0  0
 24 25  1  0  0  0
 26 27  1  0  0  0
 26 32  1  0  0  0
 27 28  2  0  0  0
 27 29  1  0  0  0
 29 30  1  0  0  0
 30 31  2  0  0  0
 13 17  1  0  0  0
 29 33  1  0  0  0
M  END
> <minimizedAffinity>
-8.08727

$$$$
1444


 33 36  0  0  0  0  0  0  0  0999 V2000
  -39.6109  -66.3994   49.2123 N   0  0  0  0  0  0  0  0  0  0  0  0
  -40.5406  -66.7175   50.1504 C   0  0  0  0  0  0  0  0  0  0  0  0
  -41.4521  -67.5632   49.5636 O   0  0  0  0  0  0  0  0  0  0  0  0
  -39.8135  -66.9091   48.2309 H   0  0  0  0  0  0  0  0  0  0  0  0
  -37.2476  -65.9008   48.7217 N   0  0  0  0  0  0  0  0  0  0  0  0
  -36.5122  -64.7988   48.6455 N   0  0  0  0  0  0  0  0  0  0  0  0
  -37.2251  -63.7229   48.9322 C   0  0  0  0  0  0  0  0  0  0  0  0
  -38.5212  -64.1796   49.2136 C   0  0  0  0  0  0  0  0  0  0  0  0
  -38.5197  -65.5494   49.0781 C   0  0  0  0  0  0  0  0  0  0  0  0
  -36.8084  -67.2313   48.4837 C   0  0  0  0  0  0  0  0  0  0  0  0
  -33.9186  -66.6888   49.3618 Cl  0  0  0  0  0  0  0  0  0  0  0  0
  -35.0326  -67.7700   50.1664 C   0  0  0  0  0  0  0  0  0  0  0  0
  -36.2963  -67.9274   49.6785 C   0  0  0  0  0  0  0  0  0  0  0  0
  -37.1315  -68.7912   50.3514 C   0  0  0  0  0  0  0  0  0  0  0  0
  -36.7295  -69.4761   51.4692 C   0  0  0  0  0  0  0  0  0  0  0  0
  -35.4497  -69.3091   51.9539 C   0  0  0  0  0  0  0  0  0  0  0  0
  -34.6093  -68.4472   51.2865 C   0  0  0  0  0  0  0  0  0  0  0  0
  -40.9041  -66.4847   51.5387 C   0  0  0  0  0  0  0  0  0  0  0  0
  -40.9348  -67.4397   52.5612 N   0  0  0  0  0  0  0  0  0  0  0  0
  -40.1677  -68.7124   52.5002 C   0  0  0  0  0  0  0  0  0  0  0  0
  -40.7621  -69.5673   53.5998 C   0  0  0  0  0  0  0  0  0  0  0  0
  -40.4834  -68.9091   54.9253 C   0  0  0  0  0  0  0  0  0  0  0  0
  -41.2874  -67.6305   55.0293 C   0  0  0  0  0  0  0  0  0  0  0  0
  -41.8058  -67.2455   53.6845 C   0  0  0  0  0  0  0  0  0  0  0  0
  -43.0679  -66.8342   53.5430 C   0  0  0  0  0  0  0  0  0  0  0  0
  -43.9211  -66.6340   54.6825 N   0  0  0  0  0  0  0  0  0  0  0  0
  -45.2059  -66.2659   54.2435 N   0  0  0  0  0  0  0  0  0  0  0  0
  -45.1904  -66.2260   52.8342 C   0  0  0  0  0  0  0  0  0  0  0  0
  -46.1124  -65.9458   52.0349 O   0  0  0  0  0  0  0  0  0  0  0  0
  -43.8575  -66.5825   52.4254 N   0  0  0  0  0  0  0  0  0  0  0  0
  -43.7373  -66.7119   55.7015 H   0  0  0  0  0  0  0  0  0  0  0  0
  -46.0502  -66.0502   54.8296 H   0  0  0  0  0  0  0  0  0  0  0  0
  -43.5578  -66.6595   51.4396 H   0  0  0  0  0  0  0  0  0  0  0  0
 11 12  1  0  0  0
 12 13  2  0  0  0
 12 17  1  0  0  0
 13 14  1  0  0  0
 13 10  1  0  0  0
 14 15  2  0  0  0
 15 16  1  0  0  0
 16 17  2  0  0  0
 10  5  1  0  0  0
  5  6  1  0  0  0
  5  9  1  0  0  0
  6  7  2  0  0  0
  7  8  1  0  0  0
  8  9  2  0  0  0
  9  1  1  0  0  0
  1  2  1  0  0  0
  2  3  2  0  0  0
  2 18  1  0  0  0
 18 19  1  0  0  0
 19 20  1  0  0  0
 19 24  1  0  0  0
 20 21  1  0  0  0
 21 22  1  0  0  0
 22 23  1  0  0  0
 23 24  1  0  0  0
 24 25  2  0  0  0
 25 26  1  0  0  0
 25 30  1  0  0  0
 26 27  1  0  0  0
 27 28  1  0  0  0
 28 29  2  0  0  0
 28 30  1  0  0  0
  1  4  1  0  0  0
 26 31  1  0  0  0
 27 32  1  0  0  0
 30 33  1  0  0  0
M  END
> <minimizedAffinity>
-8.95715

$$$$
1447


 38 41  0  0  0  0  0  0  0  0999 V2000
  -39.2462  -62.8138   48.0258 C   0  0  0  0  0  0  0  0  0  0  0  0
  -39.9687  -62.0847   47.1148 N   0  0  0  0  0  0  0  0  0  0  0  0
  -39.1601  -61.3263   46.4279 N   0  0  0  0  0  0  0  0  0  0  0  0
  -37.9051  -61.4874   46.8105 N   0  0  0  0  0  0  0  0  0  0  0  0
  -37.9297  -62.3990   47.7975 C   0  0  0  0  0  0  0  0  0  0  0  0
  -36.8044  -60.8183   46.2210 C   0  0  0  0  0  0  0  0  0  0  0  0
  -36.3794  -59.5487   46.3951 N   0  0  0  0  0  0  0  0  0  0  0  0
  -35.3149  -59.3348   45.6682 O   0  0  0  0  0  0  0  0  0  0  0  0
  -34.9941  -60.4136   45.0005 N   0  0  0  0  0  0  0  0  0  0  0  0
  -35.8975  -61.3553   45.3200 C   0  0  0  0  0  0  0  0  0  0  0  0
  -35.8926  -62.6685   44.8023 N   0  0  0  0  0  0  0  0  0  0  0  0
  -35.1503  -63.3238   45.1075 H   0  0  0  0  0  0  0  0  0  0  0  0
  -36.6028  -63.0056   44.1278 H   0  0  0  0  0  0  0  0  0  0  0  0
  -39.9322  -65.1410   48.8511 N   0  0  0  0  0  0  0  0  0  0  0  0
  -39.8049  -63.7636   48.9692 C   0  0  0  0  0  0  0  0  0  0  0  0
  -40.2389  -63.2369   50.0620 O   0  0  0  0  0  0  0  0  0  0  0  0
  -39.6425  -65.7386   48.0409 H   0  0  0  0  0  0  0  0  0  0  0  0
  -39.7795  -66.5219   50.7446 C   0  0  0  0  0  0  0  0  0  0  0  0
  -40.5298  -65.8407   49.9540 N   0  0  0  0  0  0  0  0  0  0  0  0
  -39.0423  -70.4882   54.1898 Br  0  0  0  0  0  0  0  0  0  0  0  0
  -40.0576  -69.0386   53.5139 C   0  0  0  0  0  0  0  0  0  0  0  0
  -41.2439  -68.7046   54.0988 C   0  0  0  0  0  0  0  0  0  0  0  0
  -41.9681  -67.6350   53.5786 C   0  0  0  0  0  0  0  0  0  0  0  0
  -41.4711  -66.9363   52.4829 C   0  0  0  0  0  0  0  0  0  0  0  0
  -40.2816  -67.2652   51.8900 C   0  0  0  0  0  0  0  0  0  0  0  0
  -39.5764  -68.3252   52.4149 C   0  0  0  0  0  0  0  0  0  0  0  0
  -38.3733  -68.6491   51.8069 O   0  0  0  0  0  0  0  0  0  0  0  0
  -43.6198  -67.1447   54.3687 Br  0  0  0  0  0  0  0  0  0  0  0  0
  -41.7568  -69.3878   55.1918 O   0  0  0  0  0  0  0  0  0  0  0  0
  -37.8177  -69.4202   52.1555 H   0  0  0  0  0  0  0  0  0  0  0  0
  -42.6356  -69.1219   55.6051 H   0  0  0  0  0  0  0  0  0  0  0  0
  -36.7780  -62.9399   48.5255 C   0  0  0  0  0  0  0  0  0  0  0  0
  -35.9476  -63.8600   47.7437 N   0  0  0  0  0  0  0  0  0  0  0  0
  -36.3037  -65.2431   48.1166 C   0  0  0  0  0  0  0  0  0  0  0  0
  -36.3633  -65.3666   49.5991 C   0  0  0  0  0  0  0  0  0  0  0  0
  -35.1835  -64.9263   50.1470 O   0  0  0  0  0  0  0  0  0  0  0  0
  -34.1907  -64.6845   49.2343 C   0  0  0  0  0  0  0  0  0  0  0  0
  -34.5391  -63.6787   48.1682 C   0  0  0  0  0  0  0  0  0  0  0  0
 20 21  1  0  0  0
 21 22  2  0  0  0
 21 26  1  0  0  0
 22 23  1  0  0  0
 22 29  1  0  0  0
 23 24  2  0  0  0
 23 28  1  0  0  0
 24 25  1  0  0  0
 25 26  2  0  0  0
 25 18  1  0  0  0
 26 27  1  0  0  0
 18 19  2  0  0  0
 19 14  1  0  0  0
 14 15  1  0  0  0
 15 16  2  0  0  0
 15  1  1  0  0  0
  1  2  1  0  0  0
  1  5  2  0  0  0
  2  3  2  0  0  0
  3  4  1  0  0  0
  4  5  1  0  0  0
  4  6  1  0  0  0
  5 32  1  0  0  0
 32 33  1  0  0  0
 33 34  1  0  0  0
 33 38  1  0  0  0
 34 35  1  0  0  0
 35 36  1  0  0  0
 36 37  1  0  0  0
 37 38  1  0  0  0
  6  7  2  0  0  0
  6 10  1  0  0  0
  7  8  1  0  0  0
  8  9  1  0  0  0
  9 10  2  0  0  0
 10 11  1  0  0  0
 27 30  1  0  0  0
 14 17  1  0  0  0
 11 12  1  0  0  0
 11 13  1  0  0  0
 29 31  1  0  0  0
M  END
> <minimizedAffinity>
-8.04954

$$$$
1466


 29 32  0  0  0  0  0  0  0  0999 V2000
  -42.5844  -64.3706   51.8695 N   0  0  0  0  0  0  0  0  0  0  0  0
  -43.0344  -63.9788   50.6892 N   0  0  0  0  0  0  0  0  0  0  0  0
  -42.0363  -63.8755   49.8224 N   0  0  0  0  0  0  0  0  0  0  0  0
  -40.8857  -64.2048   50.4303 C   0  0  0  0  0  0  0  0  0  0  0  0
  -41.2406  -64.5157   51.7220 C   0  0  0  0  0  0  0  0  0  0  0  0
  -39.5531  -64.2288   49.8545 C   0  0  0  0  0  0  0  0  0  0  0  0
  -38.5723  -65.1129   50.1109 N   0  0  0  0  0  0  0  0  0  0  0  0
  -37.4892  -64.7991   49.3817 C   0  0  0  0  0  0  0  0  0  0  0  0
  -37.8287  -63.7083   48.6767 N   0  0  0  0  0  0  0  0  0  0  0  0
  -39.0521  -63.3979   48.9787 O   0  0  0  0  0  0  0  0  0  0  0  0
  -36.1913  -65.5076   49.3598 C   0  0  0  0  0  0  0  0  0  0  0  0
  -36.0789  -66.7090   48.6992 C   0  0  0  0  0  0  0  0  0  0  0  0
  -34.9018  -67.3627   48.6721 N   0  0  0  0  0  0  0  0  0  0  0  0
  -33.7885  -66.8963   49.2732 C   0  0  0  0  0  0  0  0  0  0  0  0
  -33.9115  -65.6889   49.9333 C   0  0  0  0  0  0  0  0  0  0  0  0
  -35.0898  -64.9910   49.9853 C   0  0  0  0  0  0  0  0  0  0  0  0
  -43.3489  -64.6071   53.0996 C   0  0  0  0  0  0  0  0  0  0  0  0
  -43.6817  -66.0822   53.1081 C   0  0  0  0  0  0  0  0  0  0  0  0
  -41.9731  -67.6819   53.8819 C   0  0  0  0  0  0  0  0  0  0  0  0
  -42.5455  -67.6838   55.0218 O   0  0  0  0  0  0  0  0  0  0  0  0
  -42.4966  -66.8800   52.8332 N   0  0  0  0  0  0  0  0  0  0  0  0
  -42.0414  -66.8686   51.8990 H   0  0  0  0  0  0  0  0  0  0  0  0
  -37.6552  -69.1647   51.0548 Br  0  0  0  0  0  0  0  0  0  0  0  0
  -38.8463  -69.2584   52.5449 C   0  0  0  0  0  0  0  0  0  0  0  0
  -38.5857  -70.1741   53.5395 C   0  0  0  0  0  0  0  0  0  0  0  0
  -39.4116  -70.2657   54.6079 N   0  0  0  0  0  0  0  0  0  0  0  0
  -40.4778  -69.4465   54.6677 C   0  0  0  0  0  0  0  0  0  0  0  0
  -40.7935  -68.5183   53.7173 C   0  0  0  0  0  0  0  0  0  0  0  0
  -39.9568  -68.4175   52.6230 C   0  0  0  0  0  0  0  0  0  0  0  0
 23 24  1  0  0  0
 24 25  2  0  0  0
 24 29  1  0  0  0
 25 26  1  0  0  0
 26 27  2  0  0  0
 27 28  1  0  0  0
 28 29  2  0  0  0
 28 19  1  0  0  0
 19 20  2  0  0  0
 19 21  1  0  0  0
 21 18  1  0  0  0
 18 17  1  0  0  0
 17  1  1  0  0  0
  1  2  1  0  0  0
  1  5  1  0  0  0
  2  3  2  0  0  0
  3  4  1  0  0  0
  4  5  2  0  0  0
  4  6  1  0  0  0
  6  7  2  0  0  0
  6 10  1  0  0  0
  7  8  1  0  0  0
  8  9  2  0  0  0
  8 11  1  0  0  0
  9 10  1  0  0  0
 11 12  2  0  0  0
 11 16  1  0  0  0
 12 13  1  0  0  0
 13 14  2  0  0  0
 14 15  1  0  0  0
 15 16  2  0  0  0
 21 22  1  0  0  0
M  END
> <minimizedAffinity>
-8.19659

$$$$
1471


 31 34  0  0  0  0  0  0  0  0999 V2000
  -37.7437  -65.0633   48.5424 C   0  0  0  0  0  0  0  0  0  0  0  0
  -36.6878  -65.4118   49.3388 C   0  0  0  0  0  0  0  0  0  0  0  0
  -35.5728  -64.6395   49.5201 N   0  0  0  0  0  0  0  0  0  0  0  0
  -35.5246  -63.4782   48.8755 C   0  0  0  0  0  0  0  0  0  0  0  0
  -36.5329  -63.0428   48.0564 C   0  0  0  0  0  0  0  0  0  0  0  0
  -37.7085  -63.8739   47.8759 C   0  0  0  0  0  0  0  0  0  0  0  0
  -38.5144  -63.2006   47.0337 N   0  0  0  0  0  0  0  0  0  0  0  0
  -37.9513  -62.0550   46.6885 N   0  0  0  0  0  0  0  0  0  0  0  0
  -36.7579  -61.9191   47.2809 C   0  0  0  0  0  0  0  0  0  0  0  0
  -35.9235  -60.9667   47.2008 O   0  0  0  0  0  0  0  0  0  0  0  0
  -38.3377  -61.3112   46.0424 H   0  0  0  0  0  0  0  0  0  0  0  0
  -40.5102  -66.9493   51.5258 N   0  0  0  0  0  0  0  0  0  0  0  0
  -41.5420  -67.1745   50.5479 C   0  0  0  0  0  0  0  0  0  0  0  0
  -41.1574  -66.7239   49.1610 C   0  0  0  0  0  0  0  0  0  0  0  0
  -40.0064  -65.8686   49.2702 N   0  0  0  0  0  0  0  0  0  0  0  0
  -40.0043  -64.8844   50.3219 C   0  0  0  0  0  0  0  0  0  0  0  0
  -39.8055  -65.6630   51.6299 C   0  0  0  0  0  0  0  0  0  0  0  0
  -38.8924  -65.9443   48.4057 C   0  0  0  0  0  0  0  0  0  0  0  0
  -38.8468  -66.7915   47.4660 O   0  0  0  0  0  0  0  0  0  0  0  0
  -38.2144  -68.6812   50.6364 Cl  0  0  0  0  0  0  0  0  0  0  0  0
  -39.0903  -68.8233   52.1638 C   0  0  0  0  0  0  0  0  0  0  0  0
  -40.1253  -67.9549   52.4335 C   0  0  0  0  0  0  0  0  0  0  0  0
  -40.7867  -68.0876   53.6239 C   0  0  0  0  0  0  0  0  0  0  0  0
  -40.4583  -69.0559   54.5604 C   0  0  0  0  0  0  0  0  0  0  0  0
  -39.4019  -69.9187   54.2486 C   0  0  0  0  0  0  0  0  0  0  0  0
  -38.7239  -69.8044   53.0604 C   0  0  0  0  0  0  0  0  0  0  0  0
  -34.4903  -65.1252   50.3619 C   0  0  0  0  0  0  0  0  0  0  0  0
  -34.0067  -66.4761   50.0747 C   0  0  0  0  0  0  0  0  0  0  0  0
  -33.9411  -67.5572   51.0598 C   0  0  0  0  0  0  0  0  0  0  0  0
  -34.5598  -68.7342   50.8712 O   0  0  0  0  0  0  0  0  0  0  0  0
  -35.0100  -69.5036   51.8644 C   0  0  0  0  0  0  0  0  0  0  0  0
 20 21  1  0  0  0
 21 22  2  0  0  0
 21 26  1  0  0  0
 22 23  1  0  0  0
 22 12  1  0  0  0
 23 24  2  0  0  0
 24 25  1  0  0  0
 25 26  2  0  0  0
 12 13  1  0  0  0
 12 17  1  0  0  0
 13 14  1  0  0  0
 14 15  1  0  0  0
 15 16  1  0  0  0
 15 18  1  0  0  0
 16 17  1  0  0  0
 18 19  2  0  0  0
 18  1  1  0  0  0
  1  2  2  0  0  0
  1  6  1  0  0  0
  2  3  1  0  0  0
  3  4  1  0  0  0
  3 27  1  0  0  0
  4  5  2  0  0  0
  5  6  1  0  0  0
  5  9  1  0  0  0
  6  7  2  0  0  0
  7  8  1  0  0  0
  8  9  1  0  0  0
  9 10  2  0  0  0
 27 28  1  0  0  0
 28 29  1  0  0  0
 29 30  1  0  0  0
 30 31  1  0  0  0
  8 11  1  0  0  0
M  END
> <minimizedAffinity>
-7.65845

$$$$
1477


 35 39  0  0  0  0  0  0  0  0999 V2000
  -39.4712  -66.5828   49.7463 C   0  0  0  0  0  0  0  0  0  0  0  0
  -39.3232  -65.3648   49.0792 N   0  0  0  0  0  0  0  0  0  0  0  0
  -39.8976  -64.3343   49.9390 C   0  0  0  0  0  0  0  0  0  0  0  0
  -39.8498  -63.0885   49.7810 O   0  0  0  0  0  0  0  0  0  0  0  0
  -40.5742  -64.9585   51.0653 C   0  0  0  0  0  0  0  0  0  0  0  0
  -41.1794  -64.3561   52.0140 O   0  0  0  0  0  0  0  0  0  0  0  0
  -40.4158  -66.3778   50.8918 C   0  0  0  0  0  0  0  0  0  0  0  0
  -40.9685  -67.3063   51.6447 C   0  0  0  0  0  0  0  0  0  0  0  0
  -40.6095  -68.6358   51.3205 O   0  0  0  0  0  0  0  0  0  0  0  0
  -41.8921  -67.0867   52.7419 C   0  0  0  0  0  0  0  0  0  0  0  0
  -43.1242  -66.5581   52.8030 N   0  0  0  0  0  0  0  0  0  0  0  0
  -43.6028  -66.5062   54.0552 C   0  0  0  0  0  0  0  0  0  0  0  0
  -42.6344  -67.0260   54.8418 N   0  0  0  0  0  0  0  0  0  0  0  0
  -41.5920  -67.3860   54.0890 C   0  0  0  0  0  0  0  0  0  0  0  0
  -40.3358  -67.9920   54.5519 C   0  0  0  0  0  0  0  0  0  0  0  0
  -44.8603  -66.0134   54.3471 C   0  0  0  0  0  0  0  0  0  0  0  0
  -45.6467  -65.5594   53.3228 C   0  0  0  0  0  0  0  0  0  0  0  0
  -45.1546  -65.6133   52.0327 C   0  0  0  0  0  0  0  0  0  0  0  0
  -43.8981  -66.1107   51.7770 C   0  0  0  0  0  0  0  0  0  0  0  0
  -34.2043  -67.0544   50.3705 Br  0  0  0  0  0  0  0  0  0  0  0  0
  -35.9781  -67.7247   50.4444 C   0  0  0  0  0  0  0  0  0  0  0  0
  -37.0423  -66.9428   50.0523 C   0  0  0  0  0  0  0  0  0  0  0  0
  -38.3540  -67.4325   50.1082 C   0  0  0  0  0  0  0  0  0  0  0  0
  -38.4745  -68.7231   50.5747 C   0  0  0  0  0  0  0  0  0  0  0  0
  -37.4494  -69.5314   50.9713 C   0  0  0  0  0  0  0  0  0  0  0  0
  -36.1689  -69.0128   50.9030 C   0  0  0  0  0  0  0  0  0  0  0  0
  -38.8269  -65.1036   47.7776 C   0  0  0  0  0  0  0  0  0  0  0  0
  -37.5423  -64.4401   47.5676 C   0  0  0  0  0  0  0  0  0  0  0  0
  -37.2335  -63.2105   48.2366 N   0  0  0  0  0  0  0  0  0  0  0  0
  -36.1394  -63.5009   49.1634 C   0  0  0  0  0  0  0  0  0  0  0  0
  -34.7911  -63.3318   48.5404 C   0  0  0  0  0  0  0  0  0  0  0  0
  -34.8929  -63.2073   47.1464 O   0  0  0  0  0  0  0  0  0  0  0  0
  -35.5587  -62.0211   46.9327 C   0  0  0  0  0  0  0  0  0  0  0  0
  -36.9779  -62.1234   47.3531 C   0  0  0  0  0  0  0  0  0  0  0  0
  -38.0163  -62.9133   48.8919 H   0  0  0  0  0  0  0  0  0  0  0  0
 20 21  1  0  0  0
 21 22  2  0  0  0
 21 26  1  0  0  0
 22 23  1  0  0  0
 23 24  2  0  0  0
 23  1  1  0  0  0
 24 25  1  0  0  0
 25 26  2  0  0  0
  1  2  1  0  0  0
  1  7  1  0  0  0
  2  3  1  0  0  0
  2 27  1  0  0  0
  3  4  2  0  0  0
  3  5  1  0  0  0
  5  6  2  0  0  0
  5  7  1  0  0  0
  7  8  2  0  0  0
  8  9  1  0  0  0
  8 10  1  0  0  0
 10 11  1  0  0  0
 10 14  2  0  0  0
 11 12  1  0  0  0
 11 19  1  0  0  0
 12 13  2  0  0  0
 12 16  1  0  0  0
 13 14  1  0  0  0
 14 15  1  0  0  0
 16 17  2  0  0  0
 17 18  1  0  0  0
 18 19  2  0  0  0
 27 28  1  0  0  0
 28 29  1  0  0  0
 29 30  1  0  0  0
 29 34  1  0  0  0
 30 31  1  0  0  0
 31 32  1  0  0  0
 32 33  1  0  0  0
 33 34  1  0  0  0
 29 35  1  0  0  0
M  CHG 1   9  -1
M  CHG 1  29   1
M  END
> <minimizedAffinity>
-9.35872

$$$$
1486


 31 34  0  0  0  0  0  0  0  0999 V2000
  -42.2570  -66.3662   53.1185 N   0  0  0  0  0  0  0  0  0  0  0  0
  -41.9672  -66.1453   51.8564 N   0  0  0  0  0  0  0  0  0  0  0  0
  -41.2631  -67.1676   51.3483 C   0  0  0  0  0  0  0  0  0  0  0  0
  -41.1073  -68.0626   52.3347 N   0  0  0  0  0  0  0  0  0  0  0  0
  -41.7308  -67.5534   53.4378 C   0  0  0  0  0  0  0  0  0  0  0  0
  -41.8161  -68.1925   54.7497 C   0  0  0  0  0  0  0  0  0  0  0  0
  -40.4628  -68.4877   55.3523 C   0  0  0  0  0  0  0  0  0  0  0  0
  -39.7686  -69.6333   54.6494 C   0  0  0  0  0  0  0  0  0  0  0  0
  -39.2894  -69.2791   53.2757 C   0  0  0  0  0  0  0  0  0  0  0  0
  -40.4074  -69.3287   52.2439 C   0  0  0  0  0  0  0  0  0  0  0  0
  -42.9945  -65.5048   53.9938 C   0  0  0  0  0  0  0  0  0  0  0  0
  -44.2193  -64.9703   53.3417 C   0  0  0  0  0  0  0  0  0  0  0  0
  -44.1459  -63.8304   52.8105 O   0  0  0  0  0  0  0  0  0  0  0  0
  -49.5871  -68.0119   53.1251 Br  0  0  0  0  0  0  0  0  0  0  0  0
  -47.9180  -67.0564   53.1906 C   0  0  0  0  0  0  0  0  0  0  0  0
  -46.7482  -67.7331   53.4907 C   0  0  0  0  0  0  0  0  0  0  0  0
  -45.5380  -67.0479   53.5400 C   0  0  0  0  0  0  0  0  0  0  0  0
  -45.4701  -65.6961   53.2944 C   0  0  0  0  0  0  0  0  0  0  0  0
  -46.6522  -65.0544   52.9996 C   0  0  0  0  0  0  0  0  0  0  0  0
  -47.8603  -65.7053   52.9444 C   0  0  0  0  0  0  0  0  0  0  0  0
  -40.7455  -67.3147   49.9809 C   0  0  0  0  0  0  0  0  0  0  0  0
  -39.6919  -66.3918   49.6890 N   0  0  0  0  0  0  0  0  0  0  0  0
  -39.9132  -65.4192   49.4303 H   0  0  0  0  0  0  0  0  0  0  0  0
  -38.3136  -66.7482   49.7352 C   0  0  0  0  0  0  0  0  0  0  0  0
  -37.8871  -67.9801   50.1768 C   0  0  0  0  0  0  0  0  0  0  0  0
  -36.5577  -68.3136   50.2120 C   0  0  0  0  0  0  0  0  0  0  0  0
  -35.6277  -67.4105   49.8024 C   0  0  0  0  0  0  0  0  0  0  0  0
  -36.0505  -66.1764   49.3603 C   0  0  0  0  0  0  0  0  0  0  0  0
  -37.3853  -65.8302   49.3197 C   0  0  0  0  0  0  0  0  0  0  0  0
  -34.2880  -67.7168   49.8274 O   0  0  0  0  0  0  0  0  0  0  0  0
  -33.5853  -67.9784   51.0169 C   0  0  0  0  0  0  0  0  0  0  0  0
 14 15  1  0  0  0
 15 16  2  0  0  0
 15 20  1  0  0  0
 16 17  1  0  0  0
 17 18  2  0  0  0
 18 19  1  0  0  0
 18 12  1  0  0  0
 19 20  2  0  0  0
 12 13  2  0  0  0
 12 11  1  0  0  0
 11  1  1  0  0  0
  1  2  1  0  0  0
  1  5  2  0  0  0
  2  3  2  0  0  0
  3  4  1  0  0  0
  3 21  1  0  0  0
  4  5  1  0  0  0
  4 10  1  0  0  0
  5  6  1  0  0  0
  6  7  1  0  0  0
  7  8  1  0  0  0
  8  9  1  0  0  0
  9 10  1  0  0  0
 21 22  1  0  0  0
 22 24  1  0  0  0
 24 25  2  0  0  0
 24 29  1  0  0  0
 25 26  1  0  0  0
 26 27  2  0  0  0
 27 28  1  0  0  0
 27 30  1  0  0  0
 28 29  2  0  0  0
 30 31  1  0  0  0
 22 23  1  0  0  0
M  END
> <minimizedAffinity>
-8.68956

$$$$
1487


 29 32  0  0  0  0  0  0  0  0999 V2000
  -38.4695  -65.4409   47.1116 N   0  0  0  0  0  0  0  0  0  0  0  0
  -38.5339  -66.8332   47.4794 C   0  0  0  0  0  0  0  0  0  0  0  0
  -37.2719  -67.2933   48.0783 C   0  0  0  0  0  0  0  0  0  0  0  0
  -36.4301  -66.1322   48.0191 N   0  0  0  0  0  0  0  0  0  0  0  0
  -34.9954  -65.9689   48.0349 C   0  0  0  0  0  0  0  0  0  0  0  0
  -34.4627  -65.1568   49.1713 C   0  0  0  0  0  0  0  0  0  0  0  0
  -35.4899  -64.4409   49.9768 C   0  0  0  0  0  0  0  0  0  0  0  0
  -35.9791  -63.2269   49.1551 C   0  0  0  0  0  0  0  0  0  0  0  0
  -37.1444  -63.7757   48.3514 C   0  0  0  0  0  0  0  0  0  0  0  0
  -37.3172  -64.9890   47.8790 C   0  0  0  0  0  0  0  0  0  0  0  0
  -36.6725  -68.2653   47.2296 O   0  0  0  0  0  0  0  0  0  0  0  0
  -38.2723  -65.2195   46.1418 H   0  0  0  0  0  0  0  0  0  0  0  0
  -37.4308  -68.6299   46.6644 H   0  0  0  0  0  0  0  0  0  0  0  0
  -42.1679  -64.5266   50.6346 Cl  0  0  0  0  0  0  0  0  0  0  0  0
  -41.3556  -64.1744   49.1166 C   0  0  0  0  0  0  0  0  0  0  0  0
  -40.2296  -64.8973   48.7314 C   0  0  0  0  0  0  0  0  0  0  0  0
  -39.5491  -64.6386   47.5672 C   0  0  0  0  0  0  0  0  0  0  0  0
  -40.0567  -63.5994   46.7783 C   0  0  0  0  0  0  0  0  0  0  0  0
  -41.1790  -62.8651   47.1450 C   0  0  0  0  0  0  0  0  0  0  0  0
  -41.8268  -63.1534   48.3165 C   0  0  0  0  0  0  0  0  0  0  0  0
  -37.3410  -67.9168   49.3776 C   0  0  0  0  0  0  0  0  0  0  0  0
  -38.4870  -67.9087   50.1729 C   0  0  0  0  0  0  0  0  0  0  0  0
  -38.5554  -68.5313   51.4116 C   0  0  0  0  0  0  0  0  0  0  0  0
  -37.4262  -69.1988   51.8862 C   0  0  0  0  0  0  0  0  0  0  0  0
  -36.2837  -69.2294   51.1400 C   0  0  0  0  0  0  0  0  0  0  0  0
  -36.2541  -68.5878   49.8915 C   0  0  0  0  0  0  0  0  0  0  0  0
  -39.7509  -68.4824   52.1640 N   0  0  0  0  0  0  0  0  0  0  0  0
  -40.3197  -69.5648   52.5093 O   0  0  0  0  0  0  0  0  0  0  0  0
  -40.3427  -67.3362   52.5436 O   0  0  0  0  0  0  0  0  0  0  0  0
 14 15  1  0  0  0
 15 16  2  0  0  0
 15 20  1  0  0  0
 16 17  1  0  0  0
 17 18  2  0  0  0
 17  1  1  0  0  0
 18 19  1  0  0  0
 19 20  2  0  0  0
  1  2  1  0  0  0
  1 10  1  0  0  0
  2  3  1  0  0  0
  3  4  1  0  0  0
  3 11  1  0  0  0
  3 21  1  0  0  0
  4  5  1  0  0  0
  4 10  1  0  0  0
  5  6  1  0  0  0
  6  7  1  0  0  0
  7  8  1  0  0  0
  8  9  1  0  0  0
  9 10  2  0  0  0
 21 22  2  0  0  0
 21 26  1  0  0  0
 22 23  1  0  0  0
 23 24  2  0  0  0
 23 27  1  0  0  0
 24 25  1  0  0  0
 25 26  2  0  0  0
 27 28  2  0  0  0
 27 29  1  0  0  0
  1 12  1  0  0  0
 11 13  1  0  0  0
M  CHG 1   1   1
M  CHG 1  29  -1
M  END
> <minimizedAffinity>
-7.70339

$$$$
1491


 34 38  0  0  0  0  0  0  0  0999 V2000
  -35.3241  -68.7408   50.9310 F   0  0  0  0  0  0  0  0  0  0  0  0
  -35.5363  -67.6436   50.1825 C   0  0  0  0  0  0  0  0  0  0  0  0
  -34.3738  -66.9696   49.8196 C   0  0  0  0  0  0  0  0  0  0  0  0
  -34.4381  -65.8321   49.0459 C   0  0  0  0  0  0  0  0  0  0  0  0
  -35.6773  -65.3907   48.6467 C   0  0  0  0  0  0  0  0  0  0  0  0
  -36.8274  -66.0793   49.0188 C   0  0  0  0  0  0  0  0  0  0  0  0
  -36.7770  -67.2101   49.7887 C   0  0  0  0  0  0  0  0  0  0  0  0
  -35.7156  -64.2762   47.8890 N   0  0  0  0  0  0  0  0  0  0  0  0
  -34.6066  -63.6073   47.5258 C   0  0  0  0  0  0  0  0  0  0  0  0
  -33.3508  -64.0232   47.9097 C   0  0  0  0  0  0  0  0  0  0  0  0
  -33.2648  -65.1564   48.6836 C   0  0  0  0  0  0  0  0  0  0  0  0
  -32.1525  -65.5901   49.0665 O   0  0  0  0  0  0  0  0  0  0  0  0
  -37.9532  -67.8672   50.1493 N   0  0  0  0  0  0  0  0  0  0  0  0
  -39.1357  -67.0459   50.2017 C   0  0  0  0  0  0  0  0  0  0  0  0
  -40.3770  -67.9307   50.4653 C   0  0  0  0  0  0  0  0  0  0  0  0
  -40.1753  -68.4928   51.7422 N   0  0  0  0  0  0  0  0  0  0  0  0
  -39.0323  -69.4857   51.6999 C   0  0  0  0  0  0  0  0  0  0  0  0
  -37.8580  -68.6218   51.3556 C   0  0  0  0  0  0  0  0  0  0  0  0
  -40.7459  -68.2860   52.9525 C   0  0  0  0  0  0  0  0  0  0  0  0
  -40.3286  -69.0763   53.9122 O   0  0  0  0  0  0  0  0  0  0  0  0
  -38.1438  -68.5781   49.3772 H   0  0  0  0  0  0  0  0  0  0  0  0
  -41.7418  -67.3450   53.3836 C   0  0  0  0  0  0  0  0  0  0  0  0
  -42.1479  -66.2727   52.6574 C   0  0  0  0  0  0  0  0  0  0  0  0
  -43.1549  -65.4194   53.0904 C   0  0  0  0  0  0  0  0  0  0  0  0
  -43.7637  -65.6606   54.2949 C   0  0  0  0  0  0  0  0  0  0  0  0
  -43.3917  -66.7249   55.0664 C   0  0  0  0  0  0  0  0  0  0  0  0
  -42.4021  -67.5440   54.6139 C   0  0  0  0  0  0  0  0  0  0  0  0
  -43.6516  -64.0384   52.1096 Cl  0  0  0  0  0  0  0  0  0  0  0  0
  -32.1444  -63.2776   47.5033 C   0  0  0  0  0  0  0  0  0  0  0  0
  -31.5618  -63.4872   46.4277 O   0  0  0  0  0  0  0  0  0  0  0  0
  -31.6607  -62.3151   48.3601 O   0  0  0  0  0  0  0  0  0  0  0  0
  -37.0469  -63.8199   47.4727 C   0  0  0  0  0  0  0  0  0  0  0  0
  -37.2434  -62.4851   46.8993 C   0  0  0  0  0  0  0  0  0  0  0  0
  -37.5856  -62.6171   48.3162 C   0  0  0  0  0  0  0  0  0  0  0  0
  1  2  1  0  0  0
  2  3  2  0  0  0
  2  7  1  0  0  0
  3  4  1  0  0  0
  4  5  2  0  0  0
  4 11  1  0  0  0
  5  6  1  0  0  0
  5  8  1  0  0  0
  6  7  2  0  0  0
  7 13  1  0  0  0
 13 14  1  0  0  0
 13 18  1  0  0  0
 14 15  1  0  0  0
 15 16  1  0  0  0
 16 17  1  0  0  0
 16 19  1  0  0  0
 17 18  1  0  0  0
 19 20  2  0  0  0
 19 22  1  0  0  0
 22 23  2  0  0  0
 22 27  1  0  0  0
 23 24  1  0  0  0
 24 25  2  0  0  0
 24 28  1  0  0  0
 25 26  1  0  0  0
 26 27  2  0  0  0
  8  9  1  0  0  0
  8 32  1  0  0  0
  9 10  2  0  0  0
 10 11  1  0  0  0
 10 29  1  0  0  0
 11 12  2  0  0  0
 29 30  2  0  0  0
 29 31  1  0  0  0
 32 33  1  0  0  0
 32 34  1  0  0  0
 33 34  1  0  0  0
 13 21  1  0  0  0
M  CHG 1  13   1
M  END
> <minimizedAffinity>
-8.99479

$$$$
1506


 32 35  0  0  0  0  0  0  0  0999 V2000
  -42.3366  -64.5351   49.5957 N   0  0  0  0  0  0  0  0  0  0  0  0
  -40.9327  -64.2433   49.4461 C   0  0  0  0  0  0  0  0  0  0  0  0
  -40.4014  -63.4232   50.2110 O   0  0  0  0  0  0  0  0  0  0  0  0
  -42.6972  -65.2373   48.9549 H   0  0  0  0  0  0  0  0  0  0  0  0
  -40.1113  -64.8998   48.4019 C   0  0  0  0  0  0  0  0  0  0  0  0
  -40.2226  -66.3963   48.5910 C   0  0  0  0  0  0  0  0  0  0  0  0
  -39.4515  -66.7472   49.8438 C   0  0  0  0  0  0  0  0  0  0  0  0
  -38.0445  -66.5533   49.5057 N   0  0  0  0  0  0  0  0  0  0  0  0
  -37.6619  -65.5009   48.6269 C   0  0  0  0  0  0  0  0  0  0  0  0
  -38.6942  -64.4593   48.3901 C   0  0  0  0  0  0  0  0  0  0  0  0
  -37.1068  -67.4411   50.0820 C   0  0  0  0  0  0  0  0  0  0  0  0
  -35.7760  -67.2456   50.0140 N   0  0  0  0  0  0  0  0  0  0  0  0
  -34.8880  -68.0652   50.5447 N   0  0  0  0  0  0  0  0  0  0  0  0
  -33.5598  -68.0350   50.5775 N   0  0  0  0  0  0  0  0  0  0  0  0
  -33.0929  -69.0701   51.2227 N   0  0  0  0  0  0  0  0  0  0  0  0
  -34.1172  -69.7931   51.6230 N   0  0  0  0  0  0  0  0  0  0  0  0
  -35.2412  -69.1744   51.2039 C   0  0  0  0  0  0  0  0  0  0  0  0
  -36.5963  -69.4322   51.3078 C   0  0  0  0  0  0  0  0  0  0  0  0
  -37.5266  -68.5761   50.7537 C   0  0  0  0  0  0  0  0  0  0  0  0
  -43.0294  -63.8596   50.6207 C   0  0  0  0  0  0  0  0  0  0  0  0
  -43.3984  -64.5210   51.8827 C   0  0  0  0  0  0  0  0  0  0  0  0
  -42.6812  -66.3691   53.4908 C   0  0  0  0  0  0  0  0  0  0  0  0
  -43.5533  -66.1719   54.3636 O   0  0  0  0  0  0  0  0  0  0  0  0
  -42.6138  -65.6056   52.3349 N   0  0  0  0  0  0  0  0  0  0  0  0
  -41.7787  -65.9286   51.6755 H   0  0  0  0  0  0  0  0  0  0  0  0
  -38.7800  -70.8293   54.5342 Cl  0  0  0  0  0  0  0  0  0  0  0  0
  -39.9225  -69.5269   54.2468 C   0  0  0  0  0  0  0  0  0  0  0  0
  -40.2087  -69.1383   52.9485 C   0  0  0  0  0  0  0  0  0  0  0  0
  -41.1052  -68.1185   52.7329 C   0  0  0  0  0  0  0  0  0  0  0  0
  -41.7295  -67.4687   53.7755 C   0  0  0  0  0  0  0  0  0  0  0  0
  -41.4301  -67.8698   55.0509 C   0  0  0  0  0  0  0  0  0  0  0  0
  -40.5245  -68.9021   55.3064 C   0  0  0  0  0  0  0  0  0  0  0  0
 26 27  1  0  0  0
 27 28  2  0  0  0
 27 32  1  0  0  0
 28 29  1  0  0  0
 29 30  2  0  0  0
 30 31  1  0  0  0
 30 22  1  0  0  0
 31 32  2  0  0  0
 22 23  2  0  0  0
 22 24  1  0  0  0
 24 21  1  0  0  0
 21 20  1  0  0  0
 20  1  1  0  0  0
  1  2  1  0  0  0
  2  3  2  0  0  0
  2  5  1  0  0  0
  5  6  1  0  0  0
  5 10  1  0  0  0
  6  7  1  0  0  0
  7  8  1  0  0  0
  8  9  1  0  0  0
  8 11  1  0  0  0
  9 10  1  0  0  0
 11 12  2  0  0  0
 11 19  1  0  0  0
 12 13  1  0  0  0
 13 14  1  0  0  0
 13 17  1  0  0  0
 14 15  2  0  0  0
 15 16  1  0  0  0
 16 17  2  0  0  0
 17 18  1  0  0  0
 18 19  2  0  0  0
 24 25  1  0  0  0
  1  4  1  0  0  0
M  END
> <minimizedAffinity>
-9.40840

$$$$
1507


 32 35  0  0  0  0  0  0  0  0999 V2000
  -38.1322  -67.0938   49.6838 C   0  0  0  0  0  0  0  0  0  0  0  0
  -39.3080  -66.5440   49.4587 C   0  0  0  0  0  0  0  0  0  0  0  0
  -40.5909  -66.6853   50.2210 C   0  0  0  0  0  0  0  0  0  0  0  0
  -41.0797  -65.3544   50.2248 N   0  0  0  0  0  0  0  0  0  0  0  0
  -40.8532  -64.9017   48.8550 C   0  0  0  0  0  0  0  0  0  0  0  0
  -41.5007  -64.0322   48.2160 O   0  0  0  0  0  0  0  0  0  0  0  0
  -39.7131  -65.6655   48.3618 C   0  0  0  0  0  0  0  0  0  0  0  0
  -39.1311  -65.6333   47.2267 O   0  0  0  0  0  0  0  0  0  0  0  0
  -37.9140  -67.9544   50.7452 O   0  0  0  0  0  0  0  0  0  0  0  0
  -33.3884  -66.0073   45.8840 Br  0  0  0  0  0  0  0  0  0  0  0  0
  -34.8614  -66.3549   47.0701 C   0  0  0  0  0  0  0  0  0  0  0  0
  -35.1964  -65.4798   48.0775 C   0  0  0  0  0  0  0  0  0  0  0  0
  -36.2314  -65.6762   48.9483 C   0  0  0  0  0  0  0  0  0  0  0  0
  -36.9928  -66.8225   48.8154 C   0  0  0  0  0  0  0  0  0  0  0  0
  -36.6796  -67.7141   47.8154 C   0  0  0  0  0  0  0  0  0  0  0  0
  -35.6178  -67.5005   46.9312 C   0  0  0  0  0  0  0  0  0  0  0  0
  -40.4955  -67.4838   51.3970 C   0  0  0  0  0  0  0  0  0  0  0  0
  -40.3657  -66.8667   52.6178 C   0  0  0  0  0  0  0  0  0  0  0  0
  -40.2849  -67.5671   53.7972 C   0  0  0  0  0  0  0  0  0  0  0  0
  -40.3330  -68.9536   53.7961 C   0  0  0  0  0  0  0  0  0  0  0  0
  -40.4636  -69.5550   52.5600 C   0  0  0  0  0  0  0  0  0  0  0  0
  -40.5439  -68.8453   51.3826 C   0  0  0  0  0  0  0  0  0  0  0  0
  -40.2320  -69.8561   55.2874 Cl  0  0  0  0  0  0  0  0  0  0  0  0
  -41.7317  -64.5133   51.2098 C   0  0  0  0  0  0  0  0  0  0  0  0
  -43.2105  -64.5137   51.2370 C   0  0  0  0  0  0  0  0  0  0  0  0
  -43.7859  -64.2168   52.5534 N   0  0  0  0  0  0  0  0  0  0  0  0
  -43.0179  -64.8350   53.5793 C   0  0  0  0  0  0  0  0  0  0  0  0
  -43.6937  -65.8981   54.3723 C   0  0  0  0  0  0  0  0  0  0  0  0
  -45.0675  -65.7874   54.4714 O   0  0  0  0  0  0  0  0  0  0  0  0
  -45.5364  -65.8685   53.1401 C   0  0  0  0  0  0  0  0  0  0  0  0
  -45.1729  -64.5752   52.5000 C   0  0  0  0  0  0  0  0  0  0  0  0
  -43.7252  -63.1553   52.6339 H   0  0  0  0  0  0  0  0  0  0  0  0
 10 11  1  0  0  0
 11 12  2  0  0  0
 11 16  1  0  0  0
 12 13  1  0  0  0
 13 14  2  0  0  0
 14 15  1  0  0  0
 14  1  1  0  0  0
 15 16  2  0  0  0
  1  2  2  0  0  0
  1  9  1  0  0  0
  2  3  1  0  0  0
  2  7  1  0  0  0
  3  4  1  0  0  0
  3 17  1  0  0  0
  4  5  1  0  0  0
  4 24  1  0  0  0
  5  6  2  0  0  0
  5  7  1  0  0  0
  7  8  2  0  0  0
 24 25  1  0  0  0
 25 26  1  0  0  0
 26 27  1  0  0  0
 26 31  1  0  0  0
 27 28  1  0  0  0
 28 29  1  0  0  0
 29 30  1  0  0  0
 30 31  1  0  0  0
 17 18  2  0  0  0
 17 22  1  0  0  0
 18 19  1  0  0  0
 19 20  2  0  0  0
 20 21  1  0  0  0
 20 23  1  0  0  0
 21 22  2  0  0  0
 26 32  1  0  0  0
M  CHG 1   9  -1
M  CHG 1  26   1
M  END
> <minimizedAffinity>
-8.12122

$$$$
1511


 34 37  0  0  0  0  0  0  0  0999 V2000
  -35.7657  -66.1073   49.4088 N   0  0  0  0  0  0  0  0  0  0  0  0
  -36.6625  -67.0768   49.6525 C   0  0  0  0  0  0  0  0  0  0  0  0
  -37.8273  -67.0539   49.1787 O   0  0  0  0  0  0  0  0  0  0  0  0
  -36.1276  -68.0597   50.4684 C   0  0  0  0  0  0  0  0  0  0  0  0
  -34.8824  -67.6793   50.7244 C   0  0  0  0  0  0  0  0  0  0  0  0
  -34.3648  -68.6317   51.5154 N   0  0  0  0  0  0  0  0  0  0  0  0
  -35.2697  -69.5684   51.7363 N   0  0  0  0  0  0  0  0  0  0  0  0
  -36.3611  -69.2354   51.1004 N   0  0  0  0  0  0  0  0  0  0  0  0
  -34.6533  -66.4823   50.0788 C   0  0  0  0  0  0  0  0  0  0  0  0
  -33.5592  -65.8268   50.1060 O   0  0  0  0  0  0  0  0  0  0  0  0
  -33.4050  -68.6623   51.9131 H   0  0  0  0  0  0  0  0  0  0  0  0
  -35.1566  -70.4482   52.3227 H   0  0  0  0  0  0  0  0  0  0  0  0
  -36.3153  -60.9023   46.1590 Br  0  0  0  0  0  0  0  0  0  0  0  0
  -36.1414  -62.5281   47.1561 C   0  0  0  0  0  0  0  0  0  0  0  0
  -35.8542  -63.7257   46.5313 C   0  0  0  0  0  0  0  0  0  0  0  0
  -35.7283  -64.9042   47.2609 C   0  0  0  0  0  0  0  0  0  0  0  0
  -35.8871  -64.9221   48.6310 C   0  0  0  0  0  0  0  0  0  0  0  0
  -36.1740  -63.7246   49.2487 C   0  0  0  0  0  0  0  0  0  0  0  0
  -36.2981  -62.5549   48.5274 C   0  0  0  0  0  0  0  0  0  0  0  0
  -37.6100  -69.9575   51.0539 C   0  0  0  0  0  0  0  0  0  0  0  0
  -38.6029  -69.2887   51.9757 C   0  0  0  0  0  0  0  0  0  0  0  0
  -38.4900  -69.4462   53.2116 O   0  0  0  0  0  0  0  0  0  0  0  0
  -39.6361  -68.5023   51.4455 N   0  0  0  0  0  0  0  0  0  0  0  0
  -39.6708  -68.4114   50.3782 H   0  0  0  0  0  0  0  0  0  0  0  0
  -40.6204  -67.8215   52.1891 C   0  0  0  0  0  0  0  0  0  0  0  0
  -41.0397  -66.5320   51.9800 C   0  0  0  0  0  0  0  0  0  0  0  0
  -41.9984  -65.9152   52.7569 C   0  0  0  0  0  0  0  0  0  0  0  0
  -42.5575  -66.6367   53.7906 C   0  0  0  0  0  0  0  0  0  0  0  0
  -42.1626  -67.9421   54.0348 C   0  0  0  0  0  0  0  0  0  0  0  0
  -41.2088  -68.5333   53.2521 C   0  0  0  0  0  0  0  0  0  0  0  0
  -43.5274  -66.0332   54.5865 O   0  0  0  0  0  0  0  0  0  0  0  0
  -44.8881  -66.1452   54.2197 C   0  0  0  0  0  0  0  0  0  0  0  0
  -42.4043  -64.6038   52.5202 O   0  0  0  0  0  0  0  0  0  0  0  0
  -43.2461  -64.3655   51.3847 C   0  0  0  0  0  0  0  0  0  0  0  0
 13 14  1  0  0  0
 14 15  2  0  0  0
 14 19  1  0  0  0
 15 16  1  0  0  0
 16 17  2  0  0  0
 17 18  1  0  0  0
 17  1  1  0  0  0
 18 19  2  0  0  0
  1  2  1  0  0  0
  1  9  1  0  0  0
  2  3  2  0  0  0
  2  4  1  0  0  0
  4  5  2  0  0  0
  4  8  1  0  0  0
  5  6  1  0  0  0
  5  9  1  0  0  0
  6  7  1  0  0  0
  7  8  1  0  0  0
  8 20  1  0  0  0
 20 21  1  0  0  0
 21 22  2  0  0  0
 21 23  1  0  0  0
 23 25  1  0  0  0
 25 26  2  0  0  0
 25 30  1  0  0  0
 26 27  1  0  0  0
 27 28  2  0  0  0
 27 33  1  0  0  0
 28 29  1  0  0  0
 28 31  1  0  0  0
 29 30  2  0  0  0
 31 32  1  0  0  0
 33 34  1  0  0  0
  9 10  2  0  0  0
  6 11  1  0  0  0
  7 12  1  0  0  0
 23 24  1  0  0  0
M  END
> <minimizedAffinity>
-8.12079

$$$$
1516


 30 33  0  0  0  0  0  0  0  0999 V2000
  -36.0276  -68.6656   50.9384 C   0  0  0  0  0  0  0  0  0  0  0  0
  -35.2774  -69.2304   51.8566 O   0  0  0  0  0  0  0  0  0  0  0  0
  -35.4170  -67.6072   50.2807 N   0  0  0  0  0  0  0  0  0  0  0  0
  -36.0148  -66.8587   49.2244 C   0  0  0  0  0  0  0  0  0  0  0  0
  -34.9072  -66.0142   48.5533 C   0  0  0  0  0  0  0  0  0  0  0  0
  -34.4958  -64.9657   49.5693 C   0  0  0  0  0  0  0  0  0  0  0  0
  -35.6053  -64.1623   49.8819 N   0  0  0  0  0  0  0  0  0  0  0  0
  -35.9374  -63.0580   49.0886 C   0  0  0  0  0  0  0  0  0  0  0  0
  -34.8257  -62.2630   48.5146 C   0  0  0  0  0  0  0  0  0  0  0  0
  -33.5241  -62.9630   48.5285 C   0  0  0  0  0  0  0  0  0  0  0  0
  -32.3340  -62.5111   48.0878 N   0  0  0  0  0  0  0  0  0  0  0  0
  -31.4249  -63.4694   48.2915 C   0  0  0  0  0  0  0  0  0  0  0  0
  -32.0463  -64.5264   48.8620 N   0  0  0  0  0  0  0  0  0  0  0  0
  -33.3499  -64.2288   49.0157 C   0  0  0  0  0  0  0  0  0  0  0  0
  -34.0841  -65.7047   50.8542 C   0  0  0  0  0  0  0  0  0  0  0  0
  -34.0571  -67.1956   50.6644 C   0  0  0  0  0  0  0  0  0  0  0  0
  -36.2656  -64.4783   50.5821 H   0  0  0  0  0  0  0  0  0  0  0  0
  -31.5872  -65.4154   49.1310 H   0  0  0  0  0  0  0  0  0  0  0  0
  -37.3511  -69.2699   50.7960 C   0  0  0  0  0  0  0  0  0  0  0  0
  -38.8232  -69.6753   53.0523 C   0  0  0  0  0  0  0  0  0  0  0  0
  -38.6446  -70.5576   53.9320 O   0  0  0  0  0  0  0  0  0  0  0  0
  -38.0916  -69.4732   51.9302 N   0  0  0  0  0  0  0  0  0  0  0  0
  -37.3084  -70.5688   52.2154 H   0  0  0  0  0  0  0  0  0  0  0  0
  -43.4639  -66.0451   54.0930 Cl  0  0  0  0  0  0  0  0  0  0  0  0
  -42.0975  -67.1052   53.7780 C   0  0  0  0  0  0  0  0  0  0  0  0
  -41.6653  -67.9296   54.7790 C   0  0  0  0  0  0  0  0  0  0  0  0
  -40.5811  -68.7775   54.5300 C   0  0  0  0  0  0  0  0  0  0  0  0
  -39.9846  -68.7605   53.3039 C   0  0  0  0  0  0  0  0  0  0  0  0
  -40.4088  -67.9462   52.3096 C   0  0  0  0  0  0  0  0  0  0  0  0
  -41.5011  -67.0893   52.5510 C   0  0  0  0  0  0  0  0  0  0  0  0
 24 25  1  0  0  0
 25 26  2  0  0  0
 25 30  1  0  0  0
 26 27  1  0  0  0
 27 28  2  0  0  0
 28 29  1  0  0  0
 28 20  1  0  0  0
 29 30  2  0  0  0
 20 21  2  0  0  0
 20 22  1  0  0  0
 22 19  1  0  0  0
 19  1  1  0  0  0
  1  2  2  0  0  0
  1  3  1  0  0  0
  3  4  1  0  0  0
  3 16  1  0  0  0
  4  5  1  0  0  0
  5  6  1  0  0  0
  6  7  1  0  0  0
  6 14  1  0  0  0
  6 15  1  0  0  0
  7  8  1  0  0  0
  8  9  1  0  0  0
  9 10  1  0  0  0
 10 11  1  0  0  0
 10 14  2  0  0  0
 11 12  2  0  0  0
 12 13  1  0  0  0
 13 14  1  0  0  0
 15 16  1  0  0  0
 22 23  1  0  0  0
  7 17  1  0  0  0
 13 18  1  0  0  0
M  END
> <minimizedAffinity>
-9.56442

$$$$
1518


 31 34  0  0  0  0  0  0  0  0999 V2000
  -40.2121  -64.1178   48.9699 C   0  0  0  0  0  0  0  0  0  0  0  0
  -40.3212  -62.8851   49.1805 O   0  0  0  0  0  0  0  0  0  0  0  0
  -40.5577  -65.0485   49.9775 N   0  0  0  0  0  0  0  0  0  0  0  0
  -40.4528  -66.4823   49.7967 C   0  0  0  0  0  0  0  0  0  0  0  0
  -41.5648  -67.1326   50.6063 C   0  0  0  0  0  0  0  0  0  0  0  0
  -41.3655  -66.8600   52.0968 C   0  0  0  0  0  0  0  0  0  0  0  0
  -42.6731  -66.7381   52.6731 N   0  0  0  0  0  0  0  0  0  0  0  0
  -42.6590  -66.9568   54.1037 C   0  0  0  0  0  0  0  0  0  0  0  0
  -42.4060  -68.4398   54.3654 C   0  0  0  0  0  0  0  0  0  0  0  0
  -41.0767  -68.7478   53.7633 C   0  0  0  0  0  0  0  0  0  0  0  0
  -40.1412  -69.6979   54.0630 N   0  0  0  0  0  0  0  0  0  0  0  0
  -39.1120  -69.5462   53.2111 C   0  0  0  0  0  0  0  0  0  0  0  0
  -39.4000  -68.5181   52.3930 N   0  0  0  0  0  0  0  0  0  0  0  0
  -40.6211  -67.9926   52.7065 C   0  0  0  0  0  0  0  0  0  0  0  0
  -40.6081  -65.5663   52.3080 C   0  0  0  0  0  0  0  0  0  0  0  0
  -41.0424  -64.5826   51.2620 C   0  0  0  0  0  0  0  0  0  0  0  0
  -43.1071  -65.8197   52.4547 H   0  0  0  0  0  0  0  0  0  0  0  0
  -40.2830  -70.3846   54.8374 H   0  0  0  0  0  0  0  0  0  0  0  0
  -39.7144  -64.5600   47.6481 C   0  0  0  0  0  0  0  0  0  0  0  0
  -38.2336  -64.4035   47.5041 C   0  0  0  0  0  0  0  0  0  0  0  0
  -36.6796  -65.3232   49.2498 C   0  0  0  0  0  0  0  0  0  0  0  0
  -36.4274  -64.1693   49.6803 O   0  0  0  0  0  0  0  0  0  0  0  0
  -37.5609  -65.4945   48.1819 N   0  0  0  0  0  0  0  0  0  0  0  0
  -37.7828  -66.4502   47.8132 H   0  0  0  0  0  0  0  0  0  0  0  0
  -34.0398  -69.9971   51.9445 Cl  0  0  0  0  0  0  0  0  0  0  0  0
  -34.8438  -68.6556   51.1539 C   0  0  0  0  0  0  0  0  0  0  0  0
  -34.1473  -67.4666   50.9894 C   0  0  0  0  0  0  0  0  0  0  0  0
  -34.7229  -66.3664   50.3722 C   0  0  0  0  0  0  0  0  0  0  0  0
  -36.0174  -66.4460   49.9087 C   0  0  0  0  0  0  0  0  0  0  0  0
  -36.6932  -67.6524   50.0874 C   0  0  0  0  0  0  0  0  0  0  0  0
  -36.1404  -68.7475   50.6930 C   0  0  0  0  0  0  0  0  0  0  0  0
 25 26  1  0  0  0
 26 27  2  0  0  0
 26 31  1  0  0  0
 27 28  1  0  0  0
 28 29  2  0  0  0
 29 30  1  0  0  0
 29 21  1  0  0  0
 30 31  2  0  0  0
 21 22  2  0  0  0
 21 23  1  0  0  0
 23 20  1  0  0  0
 20 19  1  0  0  0
 19  1  1  0  0  0
  1  2  2  0  0  0
  1  3  1  0  0  0
  3  4  1  0  0  0
  3 16  1  0  0  0
  4  5  1  0  0  0
  5  6  1  0  0  0
  6  7  1  0  0  0
  6 14  1  0  0  0
  6 15  1  0  0  0
  7  8  1  0  0  0
  8  9  1  0  0  0
  9 10  1  0  0  0
 10 11  1  0  0  0
 10 14  2  0  0  0
 11 12  1  0  0  0
 12 13  2  0  0  0
 13 14  1  0  0  0
 15 16  1  0  0  0
 23 24  1  0  0  0
  7 17  1  0  0  0
 11 18  1  0  0  0
M  END
> <minimizedAffinity>
-8.57595

$$$$
1521


 24 27  0  0  0  0  0  0  0  0999 V2000
  -38.9387  -70.4381   52.1203 Cl  0  0  0  0  0  0  0  0  0  0  0  0
  -39.8782  -69.2569   53.0086 C   0  0  0  0  0  0  0  0  0  0  0  0
  -40.1827  -68.0541   52.4191 C   0  0  0  0  0  0  0  0  0  0  0  0
  -39.9215  -67.4959   51.2251 N   0  0  0  0  0  0  0  0  0  0  0  0
  -40.4553  -66.2637   51.1281 C   0  0  0  0  0  0  0  0  0  0  0  0
  -41.0861  -66.0394   52.3335 C   0  0  0  0  0  0  0  0  0  0  0  0
  -40.9265  -67.1404   53.1468 C   0  0  0  0  0  0  0  0  0  0  0  0
  -41.3337  -67.4642   54.4250 C   0  0  0  0  0  0  0  0  0  0  0  0
  -41.0430  -68.6585   55.0365 C   0  0  0  0  0  0  0  0  0  0  0  0
  -40.2951  -69.5730   54.3021 C   0  0  0  0  0  0  0  0  0  0  0  0
  -41.7631  -64.7259   52.4702 C   0  0  0  0  0  0  0  0  0  0  0  0
  -42.5916  -64.6138   51.2912 N   0  0  0  0  0  0  0  0  0  0  0  0
  -41.8829  -64.4920   50.0773 C   0  0  0  0  0  0  0  0  0  0  0  0
  -40.5316  -65.1669   50.1403 C   0  0  0  0  0  0  0  0  0  0  0  0
  -39.3716  -67.9306   50.4316 H   0  0  0  0  0  0  0  0  0  0  0  0
  -43.7720  -63.8797   51.4650 C   0  0  0  0  0  0  0  0  0  0  0  0
  -44.9565  -64.7357   51.7955 C   0  0  0  0  0  0  0  0  0  0  0  0
  -45.4162  -64.5972   53.2056 C   0  0  0  0  0  0  0  0  0  0  0  0
  -46.7876  -64.2218   53.2462 N   0  0  0  0  0  0  0  0  0  0  0  0
  -47.2645  -64.0386   51.9140 C   0  0  0  0  0  0  0  0  0  0  0  0
  -46.1288  -64.2684   50.9753 C   0  0  0  0  0  0  0  0  0  0  0  0
  -44.7261  -66.0717   51.4440 O   0  0  0  0  0  0  0  0  0  0  0  0
  -47.3901  -64.8727   53.8034 H   0  0  0  0  0  0  0  0  0  0  0  0
  -45.3242  -66.6121   52.0249 H   0  0  0  0  0  0  0  0  0  0  0  0
  1  2  1  0  0  0
  2  3  2  0  0  0
  2 10  1  0  0  0
  3  4  1  0  0  0
  3  7  1  0  0  0
  4  5  1  0  0  0
  5  6  2  0  0  0
  5 14  1  0  0  0
  6  7  1  0  0  0
  6 11  1  0  0  0
  7  8  2  0  0  0
  8  9  1  0  0  0
  9 10  2  0  0  0
 11 12  1  0  0  0
 12 13  1  0  0  0
 12 16  1  0  0  0
 13 14  1  0  0  0
 16 17  1  0  0  0
 17 18  1  0  0  0
 17 21  1  0  0  0
 17 22  1  0  0  0
 18 19  1  0  0  0
 19 20  1  0  0  0
 20 21  1  0  0  0
  4 15  1  0  0  0
 19 23  1  0  0  0
 22 24  1  0  0  0
M  END
> <minimizedAffinity>
-7.56266

$$$$
1523


 25 28  0  0  0  0  0  0  0  0999 V2000
  -39.3054  -63.7874   48.7498 C   0  0  0  0  0  0  0  0  0  0  0  0
  -38.9815  -62.5501   48.6833 O   0  0  0  0  0  0  0  0  0  0  0  0
  -38.6162  -64.7420   48.0009 N   0  0  0  0  0  0  0  0  0  0  0  0
  -37.5387  -64.3322   47.1432 C   0  0  0  0  0  0  0  0  0  0  0  0
  -36.2564  -64.8989   47.6870 C   0  0  0  0  0  0  0  0  0  0  0  0
  -36.4567  -66.2731   48.0486 N   0  0  0  0  0  0  0  0  0  0  0  0
  -37.6673  -66.9070   47.4909 C   0  0  0  0  0  0  0  0  0  0  0  0
  -38.8927  -66.1616   48.0012 C   0  0  0  0  0  0  0  0  0  0  0  0
  -35.6519  -67.0696   48.8632 C   0  0  0  0  0  0  0  0  0  0  0  0
  -36.0511  -68.2977   48.9940 O   0  0  0  0  0  0  0  0  0  0  0  0
  -41.6300  -64.9253   51.3401 N   0  0  0  0  0  0  0  0  0  0  0  0
  -42.3960  -64.1432   50.5721 N   0  0  0  0  0  0  0  0  0  0  0  0
  -41.6950  -63.6472   49.5773 N   0  0  0  0  0  0  0  0  0  0  0  0
  -40.4332  -64.0927   49.6602 C   0  0  0  0  0  0  0  0  0  0  0  0
  -40.4109  -64.8956   50.7763 C   0  0  0  0  0  0  0  0  0  0  0  0
  -40.9570  -69.0517   54.5968 Br  0  0  0  0  0  0  0  0  0  0  0  0
  -41.8360  -67.4545   54.0398 C   0  0  0  0  0  0  0  0  0  0  0  0
  -41.4070  -66.7756   52.8900 C   0  0  0  0  0  0  0  0  0  0  0  0
  -42.0492  -65.6258   52.4988 C   0  0  0  0  0  0  0  0  0  0  0  0
  -43.1006  -65.1656   53.2472 C   0  0  0  0  0  0  0  0  0  0  0  0
  -43.5367  -65.8365   54.3967 C   0  0  0  0  0  0  0  0  0  0  0  0
  -42.8886  -66.9857   54.7797 C   0  0  0  0  0  0  0  0  0  0  0  0
  -34.4317  -66.7471   49.5932 C   0  0  0  0  0  0  0  0  0  0  0  0
  -34.3541  -65.7799   50.6881 C   0  0  0  0  0  0  0  0  0  0  0  0
  -34.1017  -67.2629   50.9443 C   0  0  0  0  0  0  0  0  0  0  0  0
 16 17  1  0  0  0
 17 18  2  0  0  0
 17 22  1  0  0  0
 18 19  1  0  0  0
 19 20  2  0  0  0
 19 11  1  0  0  0
 20 21  1  0  0  0
 21 22  2  0  0  0
 11 12  1  0  0  0
 11 15  1  0  0  0
 12 13  2  0  0  0
 13 14  1  0  0  0
 14 15  2  0  0  0
 14  1  1  0  0  0
  1  2  2  0  0  0
  1  3  1  0  0  0
  3  4  1  0  0  0
  3  8  1  0  0  0
  4  5  1  0  0  0
  5  6  1  0  0  0
  6  7  1  0  0  0
  6  9  1  0  0  0
  7  8  1  0  0  0
  9 10  2  0  0  0
  9 23  1  0  0  0
 23 24  1  0  0  0
 23 25  1  0  0  0
 24 25  1  0  0  0
M  END
> <minimizedAffinity>
-8.33040

$$$$
1525


 26 29  0  0  0  0  0  0  0  0999 V2000
  -39.2465  -67.3566   50.1141 N   0  0  0  0  0  0  0  0  0  0  0  0
  -40.3670  -66.9606   49.3328 C   0  0  0  0  0  0  0  0  0  0  0  0
  -41.4804  -67.5375   49.3792 O   0  0  0  0  0  0  0  0  0  0  0  0
  -39.9417  -65.8184   48.5326 C   0  0  0  0  0  0  0  0  0  0  0  0
  -38.4620  -66.0712   48.3337 C   0  0  0  0  0  0  0  0  0  0  0  0
  -38.0451  -66.8900   49.4880 C   0  0  0  0  0  0  0  0  0  0  0  0
  -36.8709  -67.1427   49.8665 O   0  0  0  0  0  0  0  0  0  0  0  0
  -41.3731  -68.0140   54.9810 Br  0  0  0  0  0  0  0  0  0  0  0  0
  -40.2280  -68.4969   53.5397 C   0  0  0  0  0  0  0  0  0  0  0  0
  -40.1716  -67.7406   52.3722 C   0  0  0  0  0  0  0  0  0  0  0  0
  -39.3391  -68.0966   51.3322 C   0  0  0  0  0  0  0  0  0  0  0  0
  -38.5724  -69.2411   51.5202 C   0  0  0  0  0  0  0  0  0  0  0  0
  -38.6132  -69.9969   52.6600 C   0  0  0  0  0  0  0  0  0  0  0  0
  -39.4499  -69.6251   53.6841 C   0  0  0  0  0  0  0  0  0  0  0  0
  -40.2166  -64.5417   49.0578 N   0  0  0  0  0  0  0  0  0  0  0  0
  -41.5623  -64.1805   49.2523 C   0  0  0  0  0  0  0  0  0  0  0  0
  -42.0277  -63.3563   48.0439 C   0  0  0  0  0  0  0  0  0  0  0  0
  -40.8724  -62.8720   47.3053 N   0  0  0  0  0  0  0  0  0  0  0  0
  -39.6456  -62.4792   47.9698 C   0  0  0  0  0  0  0  0  0  0  0  0
  -39.2681  -63.5208   48.9967 C   0  0  0  0  0  0  0  0  0  0  0  0
  -40.8966  -62.7829   45.8740 C   0  0  0  0  0  0  0  0  0  0  0  0
  -39.8476  -62.2783   45.1912 N   0  0  0  0  0  0  0  0  0  0  0  0
  -39.8698  -62.2130   43.8455 C   0  0  0  0  0  0  0  0  0  0  0  0
  -40.9646  -62.6600   43.1147 C   0  0  0  0  0  0  0  0  0  0  0  0
  -42.0360  -63.1770   43.8214 C   0  0  0  0  0  0  0  0  0  0  0  0
  -41.9534  -63.2154   45.1630 N   0  0  0  0  0  0  0  0  0  0  0  0
  8  9  1  0  0  0
  9 10  2  0  0  0
  9 14  1  0  0  0
 10 11  1  0  0  0
 11 12  2  0  0  0
 11  1  1  0  0  0
 12 13  1  0  0  0
 13 14  2  0  0  0
  1  2  1  0  0  0
  1  6  1  0  0  0
  2  3  2  0  0  0
  2  4  1  0  0  0
  4  5  1  0  0  0
  4 15  1  0  0  0
  5  6  1  0  0  0
  6  7  2  0  0  0
 15 16  1  0  0  0
 15 20  1  0  0  0
 16 17  1  0  0  0
 17 18  1  0  0  0
 18 19  1  0  0  0
 18 21  1  0  0  0
 19 20  1  0  0  0
 21 22  2  0  0  0
 21 26  1  0  0  0
 22 23  1  0  0  0
 23 24  2  0  0  0
 24 25  1  0  0  0
 25 26  2  0  0  0
M  END
> <minimizedAffinity>
-7.48980

$$$$
1531


 27 30  0  0  0  0  0  0  0  0999 V2000
  -37.5246  -68.6674   50.8771 N   0  0  0  0  0  0  0  0  0  0  0  0
  -36.1682  -68.6239   51.0650 C   0  0  0  0  0  0  0  0  0  0  0  0
  -35.7340  -67.5410   50.4157 N   0  0  0  0  0  0  0  0  0  0  0  0
  -36.7333  -66.8753   49.8130 C   0  0  0  0  0  0  0  0  0  0  0  0
  -37.8746  -67.5986   50.1104 C   0  0  0  0  0  0  0  0  0  0  0  0
  -34.2878  -67.4104   50.5586 C   0  0  0  0  0  0  0  0  0  0  0  0
  -33.8524  -68.6358   51.3076 C   0  0  0  0  0  0  0  0  0  0  0  0
  -35.0742  -69.3667   51.7364 C   0  0  0  0  0  0  0  0  0  0  0  0
  -36.6838  -65.6548   49.0093 C   0  0  0  0  0  0  0  0  0  0  0  0
  -37.0145  -65.5802   47.6804 C   0  0  0  0  0  0  0  0  0  0  0  0
  -36.9430  -64.3699   46.9759 C   0  0  0  0  0  0  0  0  0  0  0  0
  -36.5382  -63.1998   47.5788 C   0  0  0  0  0  0  0  0  0  0  0  0
  -36.2030  -63.2646   48.9136 C   0  0  0  0  0  0  0  0  0  0  0  0
  -36.2750  -64.4563   49.6046 C   0  0  0  0  0  0  0  0  0  0  0  0
  -36.4626  -61.9951   46.8937 O   0  0  0  0  0  0  0  0  0  0  0  0
  -35.2099  -61.4858   46.4723 C   0  0  0  0  0  0  0  0  0  0  0  0
  -38.4181  -69.6297   51.4264 C   0  0  0  0  0  0  0  0  0  0  0  0
  -38.9424  -69.4970   52.7654 C   0  0  0  0  0  0  0  0  0  0  0  0
  -38.2950  -70.2008   53.6736 O   0  0  0  0  0  0  0  0  0  0  0  0
  -42.7078  -66.1457   51.7100 Cl  0  0  0  0  0  0  0  0  0  0  0  0
  -41.8438  -67.1483   52.8445 C   0  0  0  0  0  0  0  0  0  0  0  0
  -42.2511  -67.1585   54.1589 C   0  0  0  0  0  0  0  0  0  0  0  0
  -41.5603  -67.9527   55.0410 C   0  0  0  0  0  0  0  0  0  0  0  0
  -40.4782  -68.7187   54.5831 C   0  0  0  0  0  0  0  0  0  0  0  0
  -40.0437  -68.7372   53.2927 C   0  0  0  0  0  0  0  0  0  0  0  0
  -40.7935  -67.8993   52.4299 C   0  0  0  0  0  0  0  0  0  0  0  0
  -43.6010  -66.2021   54.7243 Cl  0  0  0  0  0  0  0  0  0  0  0  0
 20 21  1  0  0  0
 21 22  2  0  0  0
 21 26  1  0  0  0
 22 23  1  0  0  0
 22 27  1  0  0  0
 23 24  2  0  0  0
 24 25  1  0  0  0
 25 26  2  0  0  0
 25 18  1  0  0  0
 18 19  2  0  0  0
 18 17  1  0  0  0
 17  1  1  0  0  0
  1  2  1  0  0  0
  1  5  1  0  0  0
  2  3  2  0  0  0
  2  8  1  0  0  0
  3  4  1  0  0  0
  3  6  1  0  0  0
  4  5  2  0  0  0
  4  9  1  0  0  0
  9 10  2  0  0  0
  9 14  1  0  0  0
 10 11  1  0  0  0
 11 12  2  0  0  0
 12 13  1  0  0  0
 12 15  1  0  0  0
 13 14  2  0  0  0
 15 16  1  0  0  0
  6  7  1  0  0  0
  7  8  1  0  0  0
M  END
> <minimizedAffinity>
-8.39019

$$$$
1533


 28 31  0  0  0  0  0  0  0  0999 V2000
  -37.3837  -67.5644   49.8976 C   0  0  0  0  0  0  0  0  0  0  0  0
  -38.5936  -67.1248   49.4647 N   0  0  0  0  0  0  0  0  0  0  0  0
  -39.5591  -67.6950   50.1933 C   0  0  0  0  0  0  0  0  0  0  0  0
  -39.0074  -68.5258   51.1301 N   0  0  0  0  0  0  0  0  0  0  0  0
  -37.6812  -68.4351   50.9361 C   0  0  0  0  0  0  0  0  0  0  0  0
  -40.8969  -67.2492   49.7437 C   0  0  0  0  0  0  0  0  0  0  0  0
  -40.5674  -65.9584   49.0467 C   0  0  0  0  0  0  0  0  0  0  0  0
  -39.1949  -66.2294   48.4754 C   0  0  0  0  0  0  0  0  0  0  0  0
  -33.8348  -67.2514   46.0760 Cl  0  0  0  0  0  0  0  0  0  0  0  0
  -34.3421  -67.0722   47.7417 C   0  0  0  0  0  0  0  0  0  0  0  0
  -33.4333  -66.6229   48.6541 C   0  0  0  0  0  0  0  0  0  0  0  0
  -33.8050  -66.4727   49.9701 C   0  0  0  0  0  0  0  0  0  0  0  0
  -35.1138  -66.7856   50.3460 C   0  0  0  0  0  0  0  0  0  0  0  0
  -36.0361  -67.2395   49.4302 C   0  0  0  0  0  0  0  0  0  0  0  0
  -35.6419  -67.3797   48.1316 C   0  0  0  0  0  0  0  0  0  0  0  0
  -31.7755  -66.2230   48.2006 Cl  0  0  0  0  0  0  0  0  0  0  0  0
  -39.7104  -69.3497   52.0699 C   0  0  0  0  0  0  0  0  0  0  0  0
  -40.3007  -68.8241   53.2704 C   0  0  0  0  0  0  0  0  0  0  0  0
  -39.6853  -69.2320   54.3762 O   0  0  0  0  0  0  0  0  0  0  0  0
  -41.4143  -67.9509   53.5423 C   0  0  0  0  0  0  0  0  0  0  0  0
  -41.4628  -66.6707   52.9454 C   0  0  0  0  0  0  0  0  0  0  0  0
  -42.4789  -65.7725   53.1417 C   0  0  0  0  0  0  0  0  0  0  0  0
  -43.5027  -66.1703   53.9774 C   0  0  0  0  0  0  0  0  0  0  0  0
  -43.4789  -67.4126   54.5710 C   0  0  0  0  0  0  0  0  0  0  0  0
  -42.4405  -68.3234   54.3674 C   0  0  0  0  0  0  0  0  0  0  0  0
  -42.5078  -64.4946   52.5344 N   0  0  0  0  0  0  0  0  0  0  0  0
  -41.5450  -64.1268   51.8528 O   0  0  0  0  0  0  0  0  0  0  0  0
  -43.5715  -63.6522   52.6792 O   0  0  0  0  0  0  0  0  0  0  0  0
  9 10  1  0  0  0
 10 11  2  0  0  0
 10 15  1  0  0  0
 11 12  1  0  0  0
 11 16  1  0  0  0
 12 13  2  0  0  0
 13 14  1  0  0  0
 14 15  2  0  0  0
 14  1  1  0  0  0
  1  2  1  0  0  0
  1  5  2  0  0  0
  2  3  2  0  0  0
  2  8  1  0  0  0
  3  4  1  0  0  0
  3  6  1  0  0  0
  4  5  1  0  0  0
  4 17  1  0  0  0
 17 18  1  0  0  0
 18 19  2  0  0  0
 18 20  1  0  0  0
 20 21  2  0  0  0
 20 25  1  0  0  0
 21 22  1  0  0  0
 22 23  2  0  0  0
 22 26  1  0  0  0
 23 24  1  0  0  0
 24 25  2  0  0  0
 26 27  2  0  0  0
 26 28  1  0  0  0
  6  7  1  0  0  0
  7  8  1  0  0  0
M  CHG 1  28  -1
M  END
> <minimizedAffinity>
-8.76596

$$$$
1535


 28 31  0  0  0  0  0  0  0  0999 V2000
  -37.3936  -67.7072   50.1081 C   0  0  0  0  0  0  0  0  0  0  0  0
  -38.5584  -67.2732   49.6004 N   0  0  0  0  0  0  0  0  0  0  0  0
  -39.5810  -67.7917   50.3119 C   0  0  0  0  0  0  0  0  0  0  0  0
  -39.0615  -68.5626   51.2839 N   0  0  0  0  0  0  0  0  0  0  0  0
  -37.7016  -68.5392   51.1957 C   0  0  0  0  0  0  0  0  0  0  0  0
  -40.8731  -67.3296   49.7539 C   0  0  0  0  0  0  0  0  0  0  0  0
  -40.4456  -65.9954   49.1978 C   0  0  0  0  0  0  0  0  0  0  0  0
  -39.1175  -66.4182   48.5465 C   0  0  0  0  0  0  0  0  0  0  0  0
  -33.9519  -66.4223   46.4339 Cl  0  0  0  0  0  0  0  0  0  0  0  0
  -34.3133  -66.8563   48.0749 C   0  0  0  0  0  0  0  0  0  0  0  0
  -33.3152  -66.9689   49.0049 C   0  0  0  0  0  0  0  0  0  0  0  0
  -33.6612  -67.3167   50.2887 C   0  0  0  0  0  0  0  0  0  0  0  0
  -34.9703  -67.5418   50.6219 C   0  0  0  0  0  0  0  0  0  0  0  0
  -36.0149  -67.4348   49.6985 C   0  0  0  0  0  0  0  0  0  0  0  0
  -35.6538  -67.0928   48.4376 C   0  0  0  0  0  0  0  0  0  0  0  0
  -31.6393  -66.6833   48.5900 Cl  0  0  0  0  0  0  0  0  0  0  0  0
  -39.7958  -69.3205   52.2289 C   0  0  0  0  0  0  0  0  0  0  0  0
  -40.4235  -68.7492   53.3855 C   0  0  0  0  0  0  0  0  0  0  0  0
  -39.8978  -69.2066   54.5042 O   0  0  0  0  0  0  0  0  0  0  0  0
  -41.4945  -67.7952   53.5515 C   0  0  0  0  0  0  0  0  0  0  0  0
  -41.5459  -66.5597   52.9652 C   0  0  0  0  0  0  0  0  0  0  0  0
  -42.6188  -65.6875   53.1716 C   0  0  0  0  0  0  0  0  0  0  0  0
  -43.6516  -66.0538   53.9734 C   0  0  0  0  0  0  0  0  0  0  0  0
  -43.6258  -67.2924   54.5765 C   0  0  0  0  0  0  0  0  0  0  0  0
  -42.5810  -68.1542   54.3813 C   0  0  0  0  0  0  0  0  0  0  0  0
  -42.6117  -64.4112   52.5294 N   0  0  0  0  0  0  0  0  0  0  0  0
  -43.5972  -63.6624   52.6467 O   0  0  0  0  0  0  0  0  0  0  0  0
  -41.5561  -63.9853   51.7889 O   0  0  0  0  0  0  0  0  0  0  0  0
  9 10  1  0  0  0
 10 11  2  0  0  0
 10 15  1  0  0  0
 11 12  1  0  0  0
 11 16  1  0  0  0
 12 13  2  0  0  0
 13 14  1  0  0  0
 14 15  2  0  0  0
 14  1  1  0  0  0
  1  2  1  0  0  0
  1  5  2  0  0  0
  2  3  1  0  0  0
  2  8  1  0  0  0
  3  4  2  0  0  0
  3  6  1  0  0  0
  4  5  1  0  0  0
  4 17  1  0  0  0
 17 18  1  0  0  0
 18 19  2  0  0  0
 18 20  1  0  0  0
 20 21  2  0  0  0
 20 25  1  0  0  0
 21 22  1  0  0  0
 22 23  2  0  0  0
 22 26  1  0  0  0
 23 24  1  0  0  0
 24 25  2  0  0  0
 26 27  2  0  0  0
 26 28  1  0  0  0
  6  7  1  0  0  0
  7  8  1  0  0  0
M  CHG 1  28  -1
M  END
> <minimizedAffinity>
-8.76322

$$$$
1536


 31 34  0  0  0  0  0  0  0  0999 V2000
  -38.4607  -64.4191   48.2514 S   0  0  0  0  0  0  0  0  0  0  0  0
  -38.5614  -63.0822   48.9931 O   0  0  0  0  0  0  0  0  0  0  0  0
  -38.0549  -64.0006   46.8362 O   0  0  0  0  0  0  0  0  0  0  0  0
  -37.1566  -65.2788   49.0171 C   0  0  0  0  0  0  0  0  0  0  0  0
  -37.3273  -66.6359   49.3402 C   0  0  0  0  0  0  0  0  0  0  0  0
  -36.3658  -67.3662   49.9887 C   0  0  0  0  0  0  0  0  0  0  0  0
  -35.1929  -66.7726   50.3410 C   0  0  0  0  0  0  0  0  0  0  0  0
  -34.9690  -65.4509   50.0509 C   0  0  0  0  0  0  0  0  0  0  0  0
  -35.9641  -64.7296   49.3883 C   0  0  0  0  0  0  0  0  0  0  0  0
  -35.5938  -63.0646   48.9728 Cl  0  0  0  0  0  0  0  0  0  0  0  0
  -34.1978  -67.5534   51.0254 N   0  0  0  0  0  0  0  0  0  0  0  0
  -34.4580  -68.9156   51.3169 C   0  0  0  0  0  0  0  0  0  0  0  0
  -33.5358  -69.7241   51.5513 O   0  0  0  0  0  0  0  0  0  0  0  0
  -35.8783  -69.3535   51.3345 C   0  0  0  0  0  0  0  0  0  0  0  0
  -36.5723  -68.7176   50.2944 O   0  0  0  0  0  0  0  0  0  0  0  0
  -33.2989  -67.1085   51.2976 H   0  0  0  0  0  0  0  0  0  0  0  0
  -39.9617  -65.1106   48.2197 N   0  0  0  0  0  0  0  0  0  0  0  0
  -41.1272  -64.4812   48.6414 C   0  0  0  0  0  0  0  0  0  0  0  0
  -41.5291  -64.6945   50.0654 C   0  0  0  0  0  0  0  0  0  0  0  0
  -40.8871  -65.9827   50.5757 C   0  0  0  0  0  0  0  0  0  0  0  0
  -41.0502  -66.9567   49.3974 C   0  0  0  0  0  0  0  0  0  0  0  0
  -39.9715  -66.5570   48.4033 C   0  0  0  0  0  0  0  0  0  0  0  0
  -41.5272  -66.4777   51.7823 C   0  0  0  0  0  0  0  0  0  0  0  0
  -42.6847  -66.0815   52.0791 O   0  0  0  0  0  0  0  0  0  0  0  0
  -40.8902  -67.3909   52.6286 N   0  0  0  0  0  0  0  0  0  0  0  0
  -41.5230  -67.9404   53.8331 C   0  0  0  0  0  0  0  0  0  0  0  0
  -40.4453  -68.7105   54.5667 C   0  0  0  0  0  0  0  0  0  0  0  0
  -39.9696  -69.8122   53.7524 N   0  0  0  0  0  0  0  0  0  0  0  0
  -39.4174  -69.3403   52.4949 C   0  0  0  0  0  0  0  0  0  0  0  0
  -39.5478  -67.8321   52.3730 C   0  0  0  0  0  0  0  0  0  0  0  0
  -38.9992  -70.6088   54.4717 C   0  0  0  0  0  0  0  0  0  0  0  0
  1  2  2  0  0  0
  1  3  2  0  0  0
  1 17  1  0  0  0
  1  4  1  0  0  0
 17 18  1  0  0  0
 17 22  1  0  0  0
 18 19  1  0  0  0
 19 20  1  0  0  0
 20 21  1  0  0  0
 20 23  1  0  0  0
 21 22  1  0  0  0
 23 24  2  0  0  0
 23 25  1  0  0  0
 25 26  1  0  0  0
 25 30  1  0  0  0
 26 27  1  0  0  0
 27 28  1  0  0  0
 28 29  1  0  0  0
 28 31  1  0  0  0
 29 30  1  0  0  0
  4  5  2  0  0  0
  4  9  1  0  0  0
  5  6  1  0  0  0
  6  7  2  0  0  0
  6 15  1  0  0  0
  7  8  1  0  0  0
  7 11  1  0  0  0
  8  9  2  0  0  0
  9 10  1  0  0  0
 11 12  1  0  0  0
 12 13  2  0  0  0
 12 14  1  0  0  0
 14 15  1  0  0  0
 11 16  1  0  0  0
M  END
> <minimizedAffinity>
-8.93887

$$$$
1539


 34 37  0  0  0  0  0  0  0  0999 V2000
  -39.7062  -63.8553   49.0095 C   0  0  0  0  0  0  0  0  0  0  0  0
  -38.7492  -64.7174   48.3039 N   0  0  0  0  0  0  0  0  0  0  0  0
  -39.4330  -65.9484   48.1174 C   0  0  0  0  0  0  0  0  0  0  0  0
  -39.2437  -66.7751   47.2102 O   0  0  0  0  0  0  0  0  0  0  0  0
  -40.4010  -66.0462   49.2052 C   0  0  0  0  0  0  0  0  0  0  0  0
  -41.2449  -66.9514   49.4752 O   0  0  0  0  0  0  0  0  0  0  0  0
  -40.2359  -64.8268   50.0100 C   0  0  0  0  0  0  0  0  0  0  0  0
  -40.5293  -64.6801   51.2872 C   0  0  0  0  0  0  0  0  0  0  0  0
  -40.3415  -63.4245   51.8716 O   0  0  0  0  0  0  0  0  0  0  0  0
  -43.9905  -62.4144   44.9532 Cl  0  0  0  0  0  0  0  0  0  0  0  0
  -42.7452  -62.8325   46.1282 C   0  0  0  0  0  0  0  0  0  0  0  0
  -43.0631  -63.0863   47.4501 C   0  0  0  0  0  0  0  0  0  0  0  0
  -42.0773  -63.4116   48.3572 C   0  0  0  0  0  0  0  0  0  0  0  0
  -40.7459  -63.5030   48.0120 C   0  0  0  0  0  0  0  0  0  0  0  0
  -40.4431  -63.2429   46.6696 C   0  0  0  0  0  0  0  0  0  0  0  0
  -41.4247  -62.9181   45.7621 C   0  0  0  0  0  0  0  0  0  0  0  0
  -41.0343  -65.7659   52.1145 C   0  0  0  0  0  0  0  0  0  0  0  0
  -42.3573  -65.8325   52.5192 C   0  0  0  0  0  0  0  0  0  0  0  0
  -42.8254  -66.8493   53.3253 C   0  0  0  0  0  0  0  0  0  0  0  0
  -41.9753  -67.8543   53.7648 C   0  0  0  0  0  0  0  0  0  0  0  0
  -40.6582  -67.7996   53.3701 C   0  0  0  0  0  0  0  0  0  0  0  0
  -40.1952  -66.7639   52.5529 C   0  0  0  0  0  0  0  0  0  0  0  0
  -44.2475  -66.8791   53.7329 C   0  0  0  0  0  0  0  0  0  0  0  0
  -42.4323  -68.8881   54.5779 O   0  0  0  0  0  0  0  0  0  0  0  0
  -41.5127  -69.8189   55.0766 C   0  0  0  0  0  0  0  0  0  0  0  0
  -37.3908  -64.3700   47.8853 C   0  0  0  0  0  0  0  0  0  0  0  0
  -36.5115  -64.5290   49.1040 C   0  0  0  0  0  0  0  0  0  0  0  0
  -35.2985  -65.2474   48.8199 N   0  0  0  0  0  0  0  0  0  0  0  0
  -35.4539  -66.0808   47.6724 C   0  0  0  0  0  0  0  0  0  0  0  0
  -35.7916  -67.5096   47.9399 C   0  0  0  0  0  0  0  0  0  0  0  0
  -35.2693  -68.0277   49.0942 O   0  0  0  0  0  0  0  0  0  0  0  0
  -35.5528  -67.2618   50.2174 C   0  0  0  0  0  0  0  0  0  0  0  0
  -34.8816  -65.9288   50.0136 C   0  0  0  0  0  0  0  0  0  0  0  0
  -34.5812  -64.5062   48.5774 H   0  0  0  0  0  0  0  0  0  0  0  0
 10 11  1  0  0  0
 11 12  2  0  0  0
 11 16  1  0  0  0
 12 13  1  0  0  0
 13 14  2  0  0  0
 14 15  1  0  0  0
 14  1  1  0  0  0
 15 16  2  0  0  0
  1  2  1  0  0  0
  1  7  1  0  0  0
  2  3  1  0  0  0
  2 26  1  0  0  0
  3  4  2  0  0  0
  3  5  1  0  0  0
  5  6  2  0  0  0
  5  7  1  0  0  0
  7  8  2  0  0  0
  8  9  1  0  0  0
  8 17  1  0  0  0
 17 18  2  0  0  0
 17 22  1  0  0  0
 18 19  1  0  0  0
 19 20  2  0  0  0
 19 23  1  0  0  0
 20 21  1  0  0  0
 20 24  1  0  0  0
 21 22  2  0  0  0
 24 25  1  0  0  0
 26 27  1  0  0  0
 27 28  1  0  0  0
 28 29  1  0  0  0
 28 33  1  0  0  0
 29 30  1  0  0  0
 30 31  1  0  0  0
 31 32  1  0  0  0
 32 33  1  0  0  0
 28 34  1  0  0  0
M  CHG 1   9  -1
M  CHG 1  28   1
M  END
> <minimizedAffinity>
-7.46351

$$$$
1548


 24 27  0  0  0  0  0  0  0  0999 V2000
  -36.7013  -68.5445   49.2488 Cl  0  0  0  0  0  0  0  0  0  0  0  0
  -37.9203  -68.5176   50.5147 C   0  0  0  0  0  0  0  0  0  0  0  0
  -38.8503  -67.5061   50.6159 C   0  0  0  0  0  0  0  0  0  0  0  0
  -39.7960  -67.4873   51.6006 N   0  0  0  0  0  0  0  0  0  0  0  0
  -39.8658  -68.4627   52.5247 C   0  0  0  0  0  0  0  0  0  0  0  0
  -40.8043  -68.4461   53.5041 N   0  0  0  0  0  0  0  0  0  0  0  0
  -41.7126  -67.4515   53.5969 C   0  0  0  0  0  0  0  0  0  0  0  0
  -41.6710  -66.4459   52.6755 C   0  0  0  0  0  0  0  0  0  0  0  0
  -42.6555  -65.3177   52.7312 C   0  0  0  0  0  0  0  0  0  0  0  0
  -43.8491  -65.8905   53.3776 N   0  0  0  0  0  0  0  0  0  0  0  0
  -43.6206  -66.3518   54.7173 C   0  0  0  0  0  0  0  0  0  0  0  0
  -42.6879  -67.5502   54.7146 C   0  0  0  0  0  0  0  0  0  0  0  0
  -45.0311  -65.9232   52.6435 C   0  0  0  0  0  0  0  0  0  0  0  0
  -45.0261  -65.4512   51.4538 O   0  0  0  0  0  0  0  0  0  0  0  0
  -40.6977  -66.4930   51.6866 C   0  0  0  0  0  0  0  0  0  0  0  0
  -40.6518  -65.5786   50.8404 O   0  0  0  0  0  0  0  0  0  0  0  0
  -38.9335  -69.4846   52.4304 C   0  0  0  0  0  0  0  0  0  0  0  0
  -37.9674  -69.5303   51.4481 C   0  0  0  0  0  0  0  0  0  0  0  0
  -46.3161  -66.4583   53.1089 C   0  0  0  0  0  0  0  0  0  0  0  0
  -46.4762  -67.7397   53.4516 N   0  0  0  0  0  0  0  0  0  0  0  0
  -47.6500  -68.2185   53.8743 C   0  0  0  0  0  0  0  0  0  0  0  0
  -48.7665  -67.4153   53.9810 C   0  0  0  0  0  0  0  0  0  0  0  0
  -48.5870  -66.1294   53.6324 N   0  0  0  0  0  0  0  0  0  0  0  0
  -47.4273  -65.6275   53.2075 C   0  0  0  0  0  0  0  0  0  0  0  0
  1  2  1  0  0  0
  2  3  2  0  0  0
  2 18  1  0  0  0
  3  4  1  0  0  0
  4  5  1  0  0  0
  4 15  1  0  0  0
  5  6  2  0  0  0
  5 17  1  0  0  0
  6  7  1  0  0  0
  7  8  2  0  0  0
  7 12  1  0  0  0
  8  9  1  0  0  0
  8 15  1  0  0  0
  9 10  1  0  0  0
 10 11  1  0  0  0
 10 13  1  0  0  0
 11 12  1  0  0  0
 13 14  2  0  0  0
 13 19  1  0  0  0
 19 20  2  0  0  0
 19 24  1  0  0  0
 20 21  1  0  0  0
 21 22  2  0  0  0
 22 23  1  0  0  0
 23 24  2  0  0  0
 15 16  2  0  0  0
 17 18  2  0  0  0
M  END
> <minimizedAffinity>
-8.47285

$$$$
1553


 29 32  0  0  0  0  0  0  0  0999 V2000
  -40.7093  -67.0545   50.0635 C   0  0  0  0  0  0  0  0  0  0  0  0
  -41.5494  -65.9686   49.7251 N   0  0  0  0  0  0  0  0  0  0  0  0
  -40.9423  -64.8685   49.0345 C   0  0  0  0  0  0  0  0  0  0  0  0
  -39.7334  -64.3743   49.8470 C   0  0  0  0  0  0  0  0  0  0  0  0
  -38.7985  -65.5153   49.8165 C   0  0  0  0  0  0  0  0  0  0  0  0
  -37.4201  -65.5707   49.6864 C   0  0  0  0  0  0  0  0  0  0  0  0
  -37.0793  -66.9047   49.7128 C   0  0  0  0  0  0  0  0  0  0  0  0
  -38.1877  -67.6482   49.8521 N   0  0  0  0  0  0  0  0  0  0  0  0
  -39.2591  -66.7910   49.9168 C   0  0  0  0  0  0  0  0  0  0  0  0
  -35.7402  -67.2308   49.5965 C   0  0  0  0  0  0  0  0  0  0  0  0
  -34.8194  -66.2215   49.4625 C   0  0  0  0  0  0  0  0  0  0  0  0
  -35.1631  -64.8887   49.4361 C   0  0  0  0  0  0  0  0  0  0  0  0
  -36.5083  -64.5458   49.5521 C   0  0  0  0  0  0  0  0  0  0  0  0
  -42.3205  -66.3458   49.0864 H   0  0  0  0  0  0  0  0  0  0  0  0
  -42.0712  -65.5556   50.5384 H   0  0  0  0  0  0  0  0  0  0  0  0
  -38.2815  -68.6952   49.9085 H   0  0  0  0  0  0  0  0  0  0  0  0
  -43.4244  -66.2787   54.6685 Br  0  0  0  0  0  0  0  0  0  0  0  0
  -42.0927  -67.1605   53.6157 C   0  0  0  0  0  0  0  0  0  0  0  0
  -41.8977  -66.7947   52.2800 C   0  0  0  0  0  0  0  0  0  0  0  0
  -40.9358  -67.4224   51.5089 C   0  0  0  0  0  0  0  0  0  0  0  0
  -40.1826  -68.4142   52.1033 C   0  0  0  0  0  0  0  0  0  0  0  0
  -40.3822  -68.7709   53.4307 C   0  0  0  0  0  0  0  0  0  0  0  0
  -41.3393  -68.1447   54.1949 C   0  0  0  0  0  0  0  0  0  0  0  0
  -39.2995  -70.1600   54.2096 Br  0  0  0  0  0  0  0  0  0  0  0  0
  -42.7057  -65.7968   51.8022 O   0  0  0  0  0  0  0  0  0  0  0  0
  -42.6996  -65.4160   50.8959 H   0  0  0  0  0  0  0  0  0  0  0  0
  -41.9295  -63.7855   48.8513 C   0  0  0  0  0  0  0  0  0  0  0  0
  -42.6810  -63.4767   49.8120 O   0  0  0  0  0  0  0  0  0  0  0  0
  -42.0102  -63.1341   47.6316 O   0  0  0  0  0  0  0  0  0  0  0  0
 17 18  1  0  0  0
 18 19  2  0  0  0
 18 23  1  0  0  0
 19 20  1  0  0  0
 19 25  1  0  0  0
 20 21  2  0  0  0
 20  1  1  0  0  0
 21 22  1  0  0  0
 22 23  2  0  0  0
 22 24  1  0  0  0
  1  2  1  0  0  0
  1  9  1  0  0  0
  2  3  1  0  0  0
  3  4  1  0  0  0
  3 27  1  0  0  0
  4  5  1  0  0  0
  5  6  1  0  0  0
  5  9  2  0  0  0
  6  7  2  0  0  0
  6 13  1  0  0  0
  7  8  1  0  0  0
  7 10  1  0  0  0
  8  9  1  0  0  0
 10 11  2  0  0  0
 11 12  1  0  0  0
 12 13  2  0  0  0
 27 28  2  0  0  0
 27 29  1  0  0  0
  2 14  1  0  0  0
  2 15  1  0  0  0
  8 16  1  0  0  0
 25 26  1  0  0  0
M  CHG 1   2   1
M  END
> <minimizedAffinity>
-8.92147

$$$$
1571


 28 31  0  0  0  0  0  0  0  0999 V2000
  -36.1370  -68.8834   50.7050 O   0  0  0  0  0  0  0  0  0  0  0  0
  -34.8063  -68.8286   51.0502 C   0  0  0  0  0  0  0  0  0  0  0  0
  -34.2428  -69.9413   51.2546 O   0  0  0  0  0  0  0  0  0  0  0  0
  -34.0594  -67.5486   51.1795 C   0  0  0  0  0  0  0  0  0  0  0  0
  -33.8814  -66.8979   49.8802 N   0  0  0  0  0  0  0  0  0  0  0  0
  -34.7814  -66.0043   49.2305 C   0  0  0  0  0  0  0  0  0  0  0  0
  -35.8033  -65.4785   49.7381 O   0  0  0  0  0  0  0  0  0  0  0  0
  -34.2979  -65.8021   47.8449 C   0  0  0  0  0  0  0  0  0  0  0  0
  -32.8081  -65.9445   48.0516 C   0  0  0  0  0  0  0  0  0  0  0  0
  -32.1809  -64.7184   48.6860 C   0  0  0  0  0  0  0  0  0  0  0  0
  -33.1368  -63.5611   48.8051 C   0  0  0  0  0  0  0  0  0  0  0  0
  -33.8887  -63.3446   47.5225 C   0  0  0  0  0  0  0  0  0  0  0  0
  -34.7232  -64.5376   47.2183 C   0  0  0  0  0  0  0  0  0  0  0  0
  -32.7627  -67.0591   49.0259 C   0  0  0  0  0  0  0  0  0  0  0  0
  -31.9008  -67.9898   49.1018 O   0  0  0  0  0  0  0  0  0  0  0  0
  -37.1018  -69.6989   51.3089 C   0  0  0  0  0  0  0  0  0  0  0  0
  -43.9154  -66.0868   54.4622 Br  0  0  0  0  0  0  0  0  0  0  0  0
  -42.3275  -67.0615   53.9697 C   0  0  0  0  0  0  0  0  0  0  0  0
  -41.7283  -66.8675   52.7478 C   0  0  0  0  0  0  0  0  0  0  0  0
  -40.6237  -67.5294   52.3758 N   0  0  0  0  0  0  0  0  0  0  0  0
  -40.0407  -68.4322   53.2051 C   0  0  0  0  0  0  0  0  0  0  0  0
  -38.9401  -69.1155   52.8826 N   0  0  0  0  0  0  0  0  0  0  0  0
  -38.3241  -68.9547   51.6951 C   0  0  0  0  0  0  0  0  0  0  0  0
  -38.8882  -68.0448   50.8250 C   0  0  0  0  0  0  0  0  0  0  0  0
  -40.0264  -67.3440   51.1706 C   0  0  0  0  0  0  0  0  0  0  0  0
  -40.5741  -66.5025   50.4050 O   0  0  0  0  0  0  0  0  0  0  0  0
  -40.6187  -68.6553   54.4532 C   0  0  0  0  0  0  0  0  0  0  0  0
  -41.7553  -67.9690   54.8240 C   0  0  0  0  0  0  0  0  0  0  0  0
 17 18  1  0  0  0
 18 19  2  0  0  0
 18 28  1  0  0  0
 19 20  1  0  0  0
 20 21  1  0  0  0
 20 25  1  0  0  0
 21 22  2  0  0  0
 21 27  1  0  0  0
 22 23  1  0  0  0
 23 24  2  0  0  0
 23 16  1  0  0  0
 24 25  1  0  0  0
 25 26  2  0  0  0
 16  1  1  0  0  0
  1  2  1  0  0  0
  2  3  2  0  0  0
  2  4  1  0  0  0
  4  5  1  0  0  0
  5  6  1  0  0  0
  5 14  1  0  0  0
  6  7  2  0  0  0
  6  8  1  0  0  0
  8  9  1  0  0  0
  8 13  1  0  0  0
  9 10  1  0  0  0
  9 14  1  0  0  0
 10 11  1  0  0  0
 11 12  1  0  0  0
 12 13  1  0  0  0
 14 15  2  0  0  0
 27 28  2  0  0  0
M  END
> <minimizedAffinity>
-8.24897

$$$$
1576


 30 33  0  0  0  0  0  0  0  0999 V2000
  -40.9392  -67.2008   51.6925 N   0  0  0  0  0  0  0  0  0  0  0  0
  -41.2413  -65.8754   52.1884 C   0  0  0  0  0  0  0  0  0  0  0  0
  -41.6912  -65.0109   51.0131 C   0  0  0  0  0  0  0  0  0  0  0  0
  -40.8590  -65.2989   49.8559 N   0  0  0  0  0  0  0  0  0  0  0  0
  -40.7961  -66.6589   49.3747 C   0  0  0  0  0  0  0  0  0  0  0  0
  -41.5013  -67.5419   50.3764 C   0  0  0  0  0  0  0  0  0  0  0  0
  -40.1167  -64.2795   49.1970 C   0  0  0  0  0  0  0  0  0  0  0  0
  -40.1993  -63.0933   49.6440 O   0  0  0  0  0  0  0  0  0  0  0  0
  -41.9841  -68.2901   54.3157 Cl  0  0  0  0  0  0  0  0  0  0  0  0
  -40.5101  -68.7558   53.5458 C   0  0  0  0  0  0  0  0  0  0  0  0
  -40.1703  -68.1642   52.3482 C   0  0  0  0  0  0  0  0  0  0  0  0
  -38.9686  -68.5831   51.7817 C   0  0  0  0  0  0  0  0  0  0  0  0
  -38.1748  -69.5345   52.3914 C   0  0  0  0  0  0  0  0  0  0  0  0
  -38.5540  -70.0957   53.5823 C   0  0  0  0  0  0  0  0  0  0  0  0
  -39.7214  -69.7079   54.1615 C   0  0  0  0  0  0  0  0  0  0  0  0
  -39.2593  -64.5115   48.0290 C   0  0  0  0  0  0  0  0  0  0  0  0
  -37.8323  -64.3917   48.3215 N   0  0  0  0  0  0  0  0  0  0  0  0
  -37.0177  -65.2629   48.8823 N   0  0  0  0  0  0  0  0  0  0  0  0
  -35.7670  -64.8094   48.9911 C   0  0  0  0  0  0  0  0  0  0  0  0
  -35.7704  -63.5347   48.4541 C   0  0  0  0  0  0  0  0  0  0  0  0
  -37.0647  -63.3011   48.0463 C   0  0  0  0  0  0  0  0  0  0  0  0
  -37.5362  -62.0537   47.4095 C   0  0  0  0  0  0  0  0  0  0  0  0
  -34.6131  -65.5250   49.5657 C   0  0  0  0  0  0  0  0  0  0  0  0
  -34.3563  -65.4251   50.7821 O   0  0  0  0  0  0  0  0  0  0  0  0
  -33.8126  -66.3211   48.7175 N   0  0  0  0  0  0  0  0  0  0  0  0
  -34.0486  -66.4827   47.3106 C   0  0  0  0  0  0  0  0  0  0  0  0
  -32.8675  -67.2957   46.7660 C   0  0  0  0  0  0  0  0  0  0  0  0
  -31.6654  -66.7191   47.1119 O   0  0  0  0  0  0  0  0  0  0  0  0
  -31.4446  -66.6491   48.4670 C   0  0  0  0  0  0  0  0  0  0  0  0
  -32.6634  -67.0388   49.2770 C   0  0  0  0  0  0  0  0  0  0  0  0
  9 10  1  0  0  0
 10 11  2  0  0  0
 10 15  1  0  0  0
 11 12  1  0  0  0
 11  1  1  0  0  0
 12 13  2  0  0  0
 13 14  1  0  0  0
 14 15  2  0  0  0
  1  2  1  0  0  0
  1  6  1  0  0  0
  2  3  1  0  0  0
  3  4  1  0  0  0
  4  5  1  0  0  0
  4  7  1  0  0  0
  5  6  1  0  0  0
  7  8  2  0  0  0
  7 16  1  0  0  0
 16 17  1  0  0  0
 17 18  1  0  0  0
 17 21  1  0  0  0
 18 19  2  0  0  0
 19 20  1  0  0  0
 19 23  1  0  0  0
 20 21  2  0  0  0
 21 22  1  0  0  0
 23 24  2  0  0  0
 23 25  1  0  0  0
 25 26  1  0  0  0
 25 30  1  0  0  0
 26 27  1  0  0  0
 27 28  1  0  0  0
 28 29  1  0  0  0
 29 30  1  0  0  0
M  END
> <minimizedAffinity>
-8.18224

$$$$
1581


 27 30  0  0  0  0  0  0  0  0999 V2000
  -38.7965  -64.5918   48.3010 N   0  0  0  0  0  0  0  0  0  0  0  0
  -39.8285  -64.0450   47.5231 C   0  0  0  0  0  0  0  0  0  0  0  0
  -41.2049  -64.1657   48.0878 C   0  0  0  0  0  0  0  0  0  0  0  0
  -41.1988  -64.2152   49.5427 N   0  0  0  0  0  0  0  0  0  0  0  0
  -42.2713  -64.2583   50.3318 N   0  0  0  0  0  0  0  0  0  0  0  0
  -41.8773  -64.2957   51.6080 C   0  0  0  0  0  0  0  0  0  0  0  0
  -40.5053  -64.2751   51.6052 C   0  0  0  0  0  0  0  0  0  0  0  0
  -40.0746  -64.2232   50.2757 C   0  0  0  0  0  0  0  0  0  0  0  0
  -38.7256  -64.1819   49.6581 C   0  0  0  0  0  0  0  0  0  0  0  0
  -42.7718  -64.3502   52.8062 C   0  0  0  0  0  0  0  0  0  0  0  0
  -43.7997  -63.4125   52.6141 O   0  0  0  0  0  0  0  0  0  0  0  0
  -43.7684  -63.0411   51.6853 H   0  0  0  0  0  0  0  0  0  0  0  0
  -43.4609  -65.7103   52.8811 C   0  0  0  0  0  0  0  0  0  0  0  0
  -43.0613  -66.3773   54.1889 C   0  0  0  0  0  0  0  0  0  0  0  0
  -38.3311  -65.8788   47.9916 C   0  0  0  0  0  0  0  0  0  0  0  0
  -38.9258  -70.9112   54.3213 Cl  0  0  0  0  0  0  0  0  0  0  0  0
  -39.0520  -69.7647   52.9949 C   0  0  0  0  0  0  0  0  0  0  0  0
  -37.9279  -69.5425   52.2324 C   0  0  0  0  0  0  0  0  0  0  0  0
  -38.0291  -68.6570   51.2095 N   0  0  0  0  0  0  0  0  0  0  0  0
  -39.1734  -68.0115   50.9331 C   0  0  0  0  0  0  0  0  0  0  0  0
  -39.2826  -67.1323   49.9198 N   0  0  0  0  0  0  0  0  0  0  0  0
  -38.2536  -66.8328   49.1065 C   0  0  0  0  0  0  0  0  0  0  0  0
  -37.0734  -67.4976   49.3906 C   0  0  0  0  0  0  0  0  0  0  0  0
  -36.9624  -68.3962   50.4271 C   0  0  0  0  0  0  0  0  0  0  0  0
  -35.8588  -68.9839   50.6510 O   0  0  0  0  0  0  0  0  0  0  0  0
  -40.3190  -68.2341   51.7039 C   0  0  0  0  0  0  0  0  0  0  0  0
  -40.2483  -69.1242   52.7467 C   0  0  0  0  0  0  0  0  0  0  0  0
 16 17  1  0  0  0
 17 18  2  0  0  0
 17 27  1  0  0  0
 18 19  1  0  0  0
 19 20  1  0  0  0
 19 24  1  0  0  0
 20 21  2  0  0  0
 20 26  1  0  0  0
 21 22  1  0  0  0
 22 23  2  0  0  0
 22 15  1  0  0  0
 23 24  1  0  0  0
 24 25  2  0  0  0
 15  1  1  0  0  0
  1  2  1  0  0  0
  1  9  1  0  0  0
  2  3  1  0  0  0
  3  4  1  0  0  0
  4  5  1  0  0  0
  4  8  1  0  0  0
  5  6  2  0  0  0
  6  7  1  0  0  0
  6 10  1  0  0  0
  7  8  2  0  0  0
  8  9  1  0  0  0
 10 11  1  0  0  0
 10 13  1  0  0  0
 13 14  1  0  0  0
 26 27  2  0  0  0
 11 12  1  0  0  0
M  END
> <minimizedAffinity>
-8.55007

$$$$
1586


 29 32  0  0  0  0  0  0  0  0999 V2000
  -36.6909  -68.7710   50.9853 C   0  0  0  0  0  0  0  0  0  0  0  0
  -36.0649  -69.7320   51.6460 O   0  0  0  0  0  0  0  0  0  0  0  0
  -38.0739  -68.6790   51.2131 N   0  0  0  0  0  0  0  0  0  0  0  0
  -38.9375  -67.7419   50.5878 C   0  0  0  0  0  0  0  0  0  0  0  0
  -40.3937  -68.1068   50.9233 C   0  0  0  0  0  0  0  0  0  0  0  0
  -40.4771  -68.0756   52.3606 N   0  0  0  0  0  0  0  0  0  0  0  0
  -39.6442  -68.9746   53.0867 C   0  0  0  0  0  0  0  0  0  0  0  0
  -38.6214  -69.6293   52.1811 C   0  0  0  0  0  0  0  0  0  0  0  0
  -41.3486  -67.1885   53.0153 C   0  0  0  0  0  0  0  0  0  0  0  0
  -41.6873  -67.4330   54.1869 O   0  0  0  0  0  0  0  0  0  0  0  0
  -41.8313  -65.9960   52.2888 C   0  0  0  0  0  0  0  0  0  0  0  0
  -42.2571  -66.4421   50.9950 N   0  0  0  0  0  0  0  0  0  0  0  0
  -41.3610  -67.2447   50.2468 C   0  0  0  0  0  0  0  0  0  0  0  0
  -41.3690  -67.2434   48.9759 O   0  0  0  0  0  0  0  0  0  0  0  0
  -43.1948  -66.1954   50.5917 H   0  0  0  0  0  0  0  0  0  0  0  0
  -32.6846  -65.6142   47.7509 Cl  0  0  0  0  0  0  0  0  0  0  0  0
  -33.8880  -66.5343   48.6667 C   0  0  0  0  0  0  0  0  0  0  0  0
  -35.0126  -67.0020   48.0683 C   0  0  0  0  0  0  0  0  0  0  0  0
  -35.9419  -67.7241   48.8182 C   0  0  0  0  0  0  0  0  0  0  0  0
  -35.8015  -68.0083   50.1541 C   0  0  0  0  0  0  0  0  0  0  0  0
  -34.6198  -67.4984   50.7204 C   0  0  0  0  0  0  0  0  0  0  0  0
  -33.6875  -66.7820   49.9997 C   0  0  0  0  0  0  0  0  0  0  0  0
  -42.8248  -65.1925   53.0373 C   0  0  0  0  0  0  0  0  0  0  0  0
  -43.7340  -64.5120   52.1008 C   0  0  0  0  0  0  0  0  0  0  0  0
  -43.4303  -63.7784   51.0275 N   0  0  0  0  0  0  0  0  0  0  0  0
  -44.5831  -63.3350   50.4450 C   0  0  0  0  0  0  0  0  0  0  0  0
  -45.6202  -63.7882   51.1525 N   0  0  0  0  0  0  0  0  0  0  0  0
  -45.1282  -64.5077   52.1662 C   0  0  0  0  0  0  0  0  0  0  0  0
  -46.6109  -63.6185   50.9594 H   0  0  0  0  0  0  0  0  0  0  0  0
 16 17  1  0  0  0
 17 18  2  0  0  0
 17 22  1  0  0  0
 18 19  1  0  0  0
 19 20  2  0  0  0
 20 21  1  0  0  0
 20  1  1  0  0  0
 21 22  2  0  0  0
  1  2  2  0  0  0
  1  3  1  0  0  0
  3  4  1  0  0  0
  3  8  1  0  0  0
  4  5  1  0  0  0
  5  6  1  0  0  0
  5 13  1  0  0  0
  6  7  1  0  0  0
  6  9  1  0  0  0
  7  8  1  0  0  0
  9 10  2  0  0  0
  9 11  1  0  0  0
 11 12  1  0  0  0
 11 23  1  0  0  0
 12 13  1  0  0  0
 13 14  2  0  0  0
 23 24  1  0  0  0
 24 25  1  0  0  0
 24 28  2  0  0  0
 25 26  2  0  0  0
 26 27  1  0  0  0
 27 28  1  0  0  0
 12 15  1  0  0  0
 27 29  1  0  0  0
M  END
> <minimizedAffinity>
-8.64487

$$$$
1591


 26 29  0  0  0  0  0  0  0  0999 V2000
  -39.0914  -64.0746   49.7153 Cl  0  0  0  0  0  0  0  0  0  0  0  0
  -39.8750  -65.5021   50.3542 C   0  0  0  0  0  0  0  0  0  0  0  0
  -39.3769  -66.7438   50.0773 C   0  0  0  0  0  0  0  0  0  0  0  0
  -40.0929  -67.8100   50.6283 C   0  0  0  0  0  0  0  0  0  0  0  0
  -41.1880  -67.5914   51.3730 N   0  0  0  0  0  0  0  0  0  0  0  0
  -41.6832  -66.4066   51.6512 N   0  0  0  0  0  0  0  0  0  0  0  0
  -41.0286  -65.3540   51.1433 C   0  0  0  0  0  0  0  0  0  0  0  0
  -41.4241  -64.1792   51.3541 O   0  0  0  0  0  0  0  0  0  0  0  0
  -42.8525  -66.2628   52.4514 C   0  0  0  0  0  0  0  0  0  0  0  0
  -44.1097  -66.0841   51.9093 C   0  0  0  0  0  0  0  0  0  0  0  0
  -45.2352  -65.9469   52.6933 C   0  0  0  0  0  0  0  0  0  0  0  0
  -45.1409  -65.9829   54.0701 C   0  0  0  0  0  0  0  0  0  0  0  0
  -43.8880  -66.1616   54.6176 C   0  0  0  0  0  0  0  0  0  0  0  0
  -42.7624  -66.2990   53.8277 C   0  0  0  0  0  0  0  0  0  0  0  0
  -38.2086  -66.9634   49.3098 N   0  0  0  0  0  0  0  0  0  0  0  0
  -37.0383  -67.6477   49.8338 C   0  0  0  0  0  0  0  0  0  0  0  0
  -35.8356  -66.7409   49.8748 C   0  0  0  0  0  0  0  0  0  0  0  0
  -35.8574  -65.9654   48.6588 N   0  0  0  0  0  0  0  0  0  0  0  0
  -36.5773  -66.4982   47.5314 C   0  0  0  0  0  0  0  0  0  0  0  0
  -38.0682  -66.4982   47.9342 C   0  0  0  0  0  0  0  0  0  0  0  0
  -35.1924  -64.7188   48.5708 C   0  0  0  0  0  0  0  0  0  0  0  0
  -35.7499  -63.4761   48.6453 N   0  0  0  0  0  0  0  0  0  0  0  0
  -34.8042  -62.5665   48.5208 N   0  0  0  0  0  0  0  0  0  0  0  0
  -33.6490  -63.2010   48.3673 C   0  0  0  0  0  0  0  0  0  0  0  0
  -33.9051  -64.4824   48.4003 O   0  0  0  0  0  0  0  0  0  0  0  0
  -32.2765  -62.6266   48.1851 C   0  0  0  0  0  0  0  0  0  0  0  0
  1  2  1  0  0  0
  2  3  2  0  0  0
  2  7  1  0  0  0
  3  4  1  0  0  0
  3 15  1  0  0  0
  4  5  2  0  0  0
  5  6  1  0  0  0
  6  7  1  0  0  0
  6  9  1  0  0  0
  7  8  2  0  0  0
  9 10  2  0  0  0
  9 14  1  0  0  0
 10 11  1  0  0  0
 11 12  2  0  0  0
 12 13  1  0  0  0
 13 14  2  0  0  0
 15 16  1  0  0  0
 15 20  1  0  0  0
 16 17  1  0  0  0
 17 18  1  0  0  0
 18 19  1  0  0  0
 18 21  1  0  0  0
 19 20  1  0  0  0
 21 22  2  0  0  0
 21 25  1  0  0  0
 22 23  1  0  0  0
 23 24  2  0  0  0
 24 25  1  0  0  0
 24 26  1  0  0  0
M  END
> <minimizedAffinity>
-7.40859

$$$$
1594


 27 30  0  0  0  0  0  0  0  0999 V2000
  -42.2544  -67.4564   53.9762 C   0  0  0  0  0  0  0  0  0  0  0  0
  -42.7070  -68.3196   54.8151 O   0  0  0  0  0  0  0  0  0  0  0  0
  -42.9362  -66.2576   53.8953 N   0  0  0  0  0  0  0  0  0  0  0  0
  -42.5628  -65.1761   53.0156 C   0  0  0  0  0  0  0  0  0  0  0  0
  -43.5857  -64.9970   51.9139 C   0  0  0  0  0  0  0  0  0  0  0  0
  -44.9605  -65.2458   52.4653 C   0  0  0  0  0  0  0  0  0  0  0  0
  -45.2251  -65.6902   53.7318 C   0  0  0  0  0  0  0  0  0  0  0  0
  -46.5783  -65.7760   53.8103 N   0  0  0  0  0  0  0  0  0  0  0  0
  -47.1371  -65.4140   52.6779 N   0  0  0  0  0  0  0  0  0  0  0  0
  -46.1847  -65.0727   51.8009 C   0  0  0  0  0  0  0  0  0  0  0  0
  -46.3242  -64.6693   50.6016 O   0  0  0  0  0  0  0  0  0  0  0  0
  -44.1405  -65.9771   54.7144 C   0  0  0  0  0  0  0  0  0  0  0  0
  -47.0632  -66.0953   54.6835 H   0  0  0  0  0  0  0  0  0  0  0  0
  -36.6157  -68.3350   48.9555 Cl  0  0  0  0  0  0  0  0  0  0  0  0
  -37.6635  -68.5052   50.3514 C   0  0  0  0  0  0  0  0  0  0  0  0
  -38.7817  -67.7155   50.4941 C   0  0  0  0  0  0  0  0  0  0  0  0
  -39.5728  -67.8754   51.5912 N   0  0  0  0  0  0  0  0  0  0  0  0
  -39.2503  -68.7947   52.5076 C   0  0  0  0  0  0  0  0  0  0  0  0
  -40.1681  -68.7682   53.4870 N   0  0  0  0  0  0  0  0  0  0  0  0
  -41.0817  -67.8381   53.2084 C   0  0  0  0  0  0  0  0  0  0  0  0
  -40.6970  -67.2635   51.9867 C   0  0  0  0  0  0  0  0  0  0  0  0
  -38.1149  -69.6149   52.3877 C   0  0  0  0  0  0  0  0  0  0  0  0
  -37.3212  -69.4596   51.2937 C   0  0  0  0  0  0  0  0  0  0  0  0
  -48.5707  -65.3672   52.3558 C   0  0  0  0  0  0  0  0  0  0  0  0
  -49.1746  -64.0508   52.7874 C   0  0  0  0  0  0  0  0  0  0  0  0
  -48.3647  -63.3701   53.6885 O   0  0  0  0  0  0  0  0  0  0  0  0
  -48.9002  -62.8941   54.3910 H   0  0  0  0  0  0  0  0  0  0  0  0
 14 15  1  0  0  0
 15 16  2  0  0  0
 15 23  1  0  0  0
 16 17  1  0  0  0
 17 18  1  0  0  0
 17 21  1  0  0  0
 18 19  2  0  0  0
 18 22  1  0  0  0
 19 20  1  0  0  0
 20 21  2  0  0  0
 20  1  1  0  0  0
  1  2  2  0  0  0
  1  3  1  0  0  0
  3  4  1  0  0  0
  3 12  1  0  0  0
  4  5  1  0  0  0
  5  6  1  0  0  0
  6  7  2  0  0  0
  6 10  1  0  0  0
  7  8  1  0  0  0
  7 12  1  0  0  0
  8  9  1  0  0  0
  9 10  1  0  0  0
  9 24  1  0  0  0
 10 11  2  0  0  0
 24 25  1  0  0  0
 25 26  1  0  0  0
 22 23  2  0  0  0
  8 13  1  0  0  0
 26 27  1  0  0  0
M  END
> <minimizedAffinity>
-8.28992

$$$$
1599


 30 33  0  0  0  0  0  0  0  0999 V2000
  -38.1577  -66.0206   48.3614 C   0  0  0  0  0  0  0  0  0  0  0  0
  -38.4150  -66.7914   47.3706 O   0  0  0  0  0  0  0  0  0  0  0  0
  -37.1637  -65.0360   48.2819 N   0  0  0  0  0  0  0  0  0  0  0  0
  -36.8468  -64.1626   49.3662 C   0  0  0  0  0  0  0  0  0  0  0  0
  -35.3808  -63.8437   49.4455 C   0  0  0  0  0  0  0  0  0  0  0  0
  -34.4750  -64.8433   48.7603 C   0  0  0  0  0  0  0  0  0  0  0  0
  -33.1839  -64.1702   48.7210 N   0  0  0  0  0  0  0  0  0  0  0  0
  -32.0829  -64.9578   48.3165 C   0  0  0  0  0  0  0  0  0  0  0  0
  -32.2297  -66.4345   48.3616 C   0  0  0  0  0  0  0  0  0  0  0  0
  -33.2201  -66.8612   49.3987 C   0  0  0  0  0  0  0  0  0  0  0  0
  -33.2519  -67.9105   50.2191 N   0  0  0  0  0  0  0  0  0  0  0  0
  -34.3868  -67.7809   50.9378 C   0  0  0  0  0  0  0  0  0  0  0  0
  -35.0515  -66.6649   50.5665 N   0  0  0  0  0  0  0  0  0  0  0  0
  -34.3212  -66.0641   49.5828 C   0  0  0  0  0  0  0  0  0  0  0  0
  -34.9170  -65.2138   47.3679 C   0  0  0  0  0  0  0  0  0  0  0  0
  -36.3624  -64.8532   47.0771 C   0  0  0  0  0  0  0  0  0  0  0  0
  -33.3445  -63.3534   48.0640 H   0  0  0  0  0  0  0  0  0  0  0  0
  -35.9487  -66.3371   50.9618 H   0  0  0  0  0  0  0  0  0  0  0  0
  -39.0035  -66.2705   49.5838 C   0  0  0  0  0  0  0  0  0  0  0  0
  -38.2803  -68.5570   50.8434 C   0  0  0  0  0  0  0  0  0  0  0  0
  -37.4213  -69.4342   50.4767 O   0  0  0  0  0  0  0  0  0  0  0  0
  -38.6337  -67.4405   50.2283 N   0  0  0  0  0  0  0  0  0  0  0  0
  -37.7551  -67.7154   49.1955 H   0  0  0  0  0  0  0  0  0  0  0  0
  -42.2206  -67.6035   54.3168 Br  0  0  0  0  0  0  0  0  0  0  0  0
  -40.6617  -68.5262   53.7887 C   0  0  0  0  0  0  0  0  0  0  0  0
  -40.0759  -68.2343   52.5664 C   0  0  0  0  0  0  0  0  0  0  0  0
  -38.9468  -68.8895   52.1521 C   0  0  0  0  0  0  0  0  0  0  0  0
  -38.3446  -69.8510   52.9068 C   0  0  0  0  0  0  0  0  0  0  0  0
  -38.9286  -70.1509   54.1415 C   0  0  0  0  0  0  0  0  0  0  0  0
  -40.0677  -69.4914   54.5637 C   0  0  0  0  0  0  0  0  0  0  0  0
 24 25  1  0  0  0
 25 26  2  0  0  0
 25 30  1  0  0  0
 26 27  1  0  0  0
 27 28  2  0  0  0
 27 20  1  0  0  0
 28 29  1  0  0  0
 29 30  2  0  0  0
 20 21  2  0  0  0
 20 22  1  0  0  0
 22 19  1  0  0  0
 19  1  1  0  0  0
  1  2  2  0  0  0
  1  3  1  0  0  0
  3  4  1  0  0  0
  3 16  1  0  0  0
  4  5  1  0  0  0
  5  6  1  0  0  0
  6  7  1  0  0  0
  6 14  1  0  0  0
  6 15  1  0  0  0
  7  8  1  0  0  0
  8  9  1  0  0  0
  9 10  1  0  0  0
 10 11  1  0  0  0
 10 14  2  0  0  0
 11 12  2  0  0  0
 12 13  1  0  0  0
 13 14  1  0  0  0
 15 16  1  0  0  0
 22 23  1  0  0  0
  7 17  1  0  0  0
 13 18  1  0  0  0
M  END
> <minimizedAffinity>
-8.89672

$$$$
1609


 26 29  0  0  0  0  0  0  0  0999 V2000
  -37.8842  -67.3981   49.8391 N   0  0  0  0  0  0  0  0  0  0  0  0
  -37.5140  -66.9862   48.5113 C   0  0  0  0  0  0  0  0  0  0  0  0
  -36.6577  -68.1533   48.0617 C   0  0  0  0  0  0  0  0  0  0  0  0
  -35.8838  -68.3786   49.2327 O   0  0  0  0  0  0  0  0  0  0  0  0
  -36.8174  -68.2310   50.2788 C   0  0  0  0  0  0  0  0  0  0  0  0
  -36.6773  -68.7794   51.4174 O   0  0  0  0  0  0  0  0  0  0  0  0
  -35.9164  -67.5027   46.9513 C   0  0  0  0  0  0  0  0  0  0  0  0
  -35.4177  -66.2811   47.6235 N   0  0  0  0  0  0  0  0  0  0  0  0
  -36.4296  -65.8949   48.5574 C   0  0  0  0  0  0  0  0  0  0  0  0
  -34.1720  -65.7414   47.2910 C   0  0  0  0  0  0  0  0  0  0  0  0
  -33.4388  -66.3191   46.3879 O   0  0  0  0  0  0  0  0  0  0  0  0
  -33.5697  -64.5523   47.8649 C   0  0  0  0  0  0  0  0  0  0  0  0
  -33.8345  -63.2596   47.5337 N   0  0  0  0  0  0  0  0  0  0  0  0
  -33.0814  -62.4644   48.2898 C   0  0  0  0  0  0  0  0  0  0  0  0
  -32.3366  -63.2173   49.1017 N   0  0  0  0  0  0  0  0  0  0  0  0
  -32.6284  -64.5132   48.8506 C   0  0  0  0  0  0  0  0  0  0  0  0
  -34.7773  -62.8449   46.5280 C   0  0  0  0  0  0  0  0  0  0  0  0
  -39.0460  -67.0942   50.6423 C   0  0  0  0  0  0  0  0  0  0  0  0
  -39.9065  -68.2921   50.9378 C   0  0  0  0  0  0  0  0  0  0  0  0
  -42.9960  -66.7202   54.8357 Cl  0  0  0  0  0  0  0  0  0  0  0  0
  -41.6617  -67.7004   54.2212 C   0  0  0  0  0  0  0  0  0  0  0  0
  -41.3154  -67.6244   52.8933 C   0  0  0  0  0  0  0  0  0  0  0  0
  -40.2673  -68.3830   52.3717 C   0  0  0  0  0  0  0  0  0  0  0  0
  -39.6035  -69.2070   53.2581 C   0  0  0  0  0  0  0  0  0  0  0  0
  -39.9591  -69.2762   54.5927 C   0  0  0  0  0  0  0  0  0  0  0  0
  -40.9961  -68.5246   55.1033 C   0  0  0  0  0  0  0  0  0  0  0  0
 20 21  1  0  0  0
 21 22  2  0  0  0
 21 26  1  0  0  0
 22 23  1  0  0  0
 23 24  2  0  0  0
 23 19  1  0  0  0
 24 25  1  0  0  0
 25 26  2  0  0  0
 19 18  1  0  0  0
 18  1  1  0  0  0
  1  2  1  0  0  0
  1  5  1  0  0  0
  2  3  1  0  0  0
  2  9  1  0  0  0
  3  4  1  0  0  0
  3  7  1  0  0  0
  4  5  1  0  0  0
  5  6  2  0  0  0
  7  8  1  0  0  0
  8  9  1  0  0  0
  8 10  1  0  0  0
 10 11  2  0  0  0
 10 12  1  0  0  0
 12 13  1  0  0  0
 12 16  2  0  0  0
 13 14  1  0  0  0
 13 17  1  0  0  0
 14 15  2  0  0  0
 15 16  1  0  0  0
M  END
> <minimizedAffinity>
-7.97370

$$$$
1612


 31 34  0  0  0  0  0  0  0  0999 V2000
  -39.2616  -67.8682   50.9258 N   0  0  0  0  0  0  0  0  0  0  0  0
  -39.7387  -68.3428   52.0950 C   0  0  0  0  0  0  0  0  0  0  0  0
  -40.7068  -67.4636   52.5195 C   0  0  0  0  0  0  0  0  0  0  0  0
  -40.7875  -66.5043   51.6187 N   0  0  0  0  0  0  0  0  0  0  0  0
  -39.9005  -66.7354   50.6190 C   0  0  0  0  0  0  0  0  0  0  0  0
  -41.3432  -67.7354   53.6935 N   0  0  0  0  0  0  0  0  0  0  0  0
  -41.0470  -68.8190   54.4204 C   0  0  0  0  0  0  0  0  0  0  0  0
  -41.6661  -69.0270   55.5010 O   0  0  0  0  0  0  0  0  0  0  0  0
  -40.1119  -69.7003   54.0433 N   0  0  0  0  0  0  0  0  0  0  0  0
  -39.4620  -69.4569   52.8803 C   0  0  0  0  0  0  0  0  0  0  0  0
  -38.5886  -70.2772   52.5225 O   0  0  0  0  0  0  0  0  0  0  0  0
  -42.3790  -66.8162   54.1594 C   0  0  0  0  0  0  0  0  0  0  0  0
  -39.9123  -70.5336   54.6404 H   0  0  0  0  0  0  0  0  0  0  0  0
  -39.7750  -65.9205   49.4437 N   0  0  0  0  0  0  0  0  0  0  0  0
  -40.1361  -64.4925   49.5555 C   0  0  0  0  0  0  0  0  0  0  0  0
  -39.0097  -63.6005   49.1438 C   0  0  0  0  0  0  0  0  0  0  0  0
  -38.0966  -64.2843   48.2573 N   0  0  0  0  0  0  0  0  0  0  0  0
  -38.6549  -65.2795   47.3660 C   0  0  0  0  0  0  0  0  0  0  0  0
  -39.3203  -66.3757   48.1793 C   0  0  0  0  0  0  0  0  0  0  0  0
  -36.7091  -63.9786   48.2620 C   0  0  0  0  0  0  0  0  0  0  0  0
  -36.2579  -63.0988   49.0272 O   0  0  0  0  0  0  0  0  0  0  0  0
  -35.7617  -64.6870   47.3689 C   0  0  0  0  0  0  0  0  0  0  0  0
  -34.7136  -63.6698   46.9253 C   0  0  0  0  0  0  0  0  0  0  0  0
  -38.2700  -68.5527   50.1593 C   0  0  0  0  0  0  0  0  0  0  0  0
  -34.0687  -65.5026   50.1273 Cl  0  0  0  0  0  0  0  0  0  0  0  0
  -34.8782  -67.0045   50.5716 C   0  0  0  0  0  0  0  0  0  0  0  0
  -36.2118  -67.1465   50.2104 C   0  0  0  0  0  0  0  0  0  0  0  0
  -36.8615  -68.3002   50.5460 C   0  0  0  0  0  0  0  0  0  0  0  0
  -36.1581  -69.3010   51.2445 C   0  0  0  0  0  0  0  0  0  0  0  0
  -34.8469  -69.1344   51.5865 C   0  0  0  0  0  0  0  0  0  0  0  0
  -34.1739  -67.9713   51.2547 C   0  0  0  0  0  0  0  0  0  0  0  0
 25 26  1  0  0  0
 26 27  2  0  0  0
 26 31  1  0  0  0
 27 28  1  0  0  0
 28 29  2  0  0  0
 28 24  1  0  0  0
 29 30  1  0  0  0
 30 31  2  0  0  0
 24  1  1  0  0  0
  1  2  1  0  0  0
  1  5  1  0  0  0
  2  3  2  0  0  0
  2 10  1  0  0  0
  3  4  1  0  0  0
  3  6  1  0  0  0
  4  5  2  0  0  0
  5 14  1  0  0  0
 14 15  1  0  0  0
 14 19  1  0  0  0
 15 16  1  0  0  0
 16 17  1  0  0  0
 17 18  1  0  0  0
 17 20  1  0  0  0
 18 19  1  0  0  0
 20 21  2  0  0  0
 20 22  1  0  0  0
 22 23  1  0  0  0
  6  7  1  0  0  0
  6 12  1  0  0  0
  7  8  2  0  0  0
  7  9  1  0  0  0
  9 10  1  0  0  0
 10 11  2  0  0  0
  9 13  1  0  0  0
M  END
> <minimizedAffinity>
-8.50132

$$$$
1622


 28 31  0  0  0  0  0  0  0  0999 V2000
  -36.6211  -67.3609   48.4277 C   0  0  0  0  0  0  0  0  0  0  0  0
  -36.8272  -67.6834   47.2296 O   0  0  0  0  0  0  0  0  0  0  0  0
  -35.3231  -67.0579   48.9205 N   0  0  0  0  0  0  0  0  0  0  0  0
  -34.2016  -67.1225   48.0092 C   0  0  0  0  0  0  0  0  0  0  0  0
  -33.1471  -66.1690   48.5400 C   0  0  0  0  0  0  0  0  0  0  0  0
  -33.7623  -64.9413   49.1752 C   0  0  0  0  0  0  0  0  0  0  0  0
  -32.6864  -64.0136   49.4390 N   0  0  0  0  0  0  0  0  0  0  0  0
  -32.4720  -63.2358   48.2709 C   0  0  0  0  0  0  0  0  0  0  0  0
  -31.4370  -62.5700   47.9523 O   0  0  0  0  0  0  0  0  0  0  0  0
  -33.6728  -63.3461   47.5010 N   0  0  0  0  0  0  0  0  0  0  0  0
  -34.5921  -64.1819   48.2054 C   0  0  0  0  0  0  0  0  0  0  0  0
  -35.8371  -64.2323   48.0117 O   0  0  0  0  0  0  0  0  0  0  0  0
  -33.9621  -62.7275   46.2052 C   0  0  0  0  0  0  0  0  0  0  0  0
  -34.5520  -65.2739   50.4065 C   0  0  0  0  0  0  0  0  0  0  0  0
  -35.0453  -66.6835   50.2884 C   0  0  0  0  0  0  0  0  0  0  0  0
  -32.1726  -63.9473   50.3376 H   0  0  0  0  0  0  0  0  0  0  0  0
  -38.7559  -65.4732   47.5444 Cl  0  0  0  0  0  0  0  0  0  0  0  0
  -38.8584  -66.4826   48.9936 C   0  0  0  0  0  0  0  0  0  0  0  0
  -37.8028  -67.3156   49.2944 C   0  0  0  0  0  0  0  0  0  0  0  0
  -37.8701  -68.1065   50.4203 C   0  0  0  0  0  0  0  0  0  0  0  0
  -38.9737  -68.0765   51.2462 C   0  0  0  0  0  0  0  0  0  0  0  0
  -40.0109  -67.2236   50.9050 C   0  0  0  0  0  0  0  0  0  0  0  0
  -39.9829  -66.4183   49.7907 C   0  0  0  0  0  0  0  0  0  0  0  0
  -39.0665  -68.8862   52.4173 N   0  0  0  0  0  0  0  0  0  0  0  0
  -38.2032  -69.7565   52.8803 N   0  0  0  0  0  0  0  0  0  0  0  0
  -38.6845  -70.3127   54.0302 C   0  0  0  0  0  0  0  0  0  0  0  0
  -39.9154  -69.7526   54.2912 C   0  0  0  0  0  0  0  0  0  0  0  0
  -40.1254  -68.8502   53.2446 C   0  0  0  0  0  0  0  0  0  0  0  0
 17 18  1  0  0  0
 18 19  2  0  0  0
 18 23  1  0  0  0
 19 20  1  0  0  0
 19  1  1  0  0  0
 20 21  2  0  0  0
 21 22  1  0  0  0
 21 24  1  0  0  0
 22 23  2  0  0  0
 24 25  1  0  0  0
 24 28  1  0  0  0
 25 26  2  0  0  0
 26 27  1  0  0  0
 27 28  2  0  0  0
  1  2  2  0  0  0
  1  3  1  0  0  0
  3  4  1  0  0  0
  3 15  1  0  0  0
  4  5  1  0  0  0
  5  6  1  0  0  0
  6  7  1  0  0  0
  6 11  1  0  0  0
  6 14  1  0  0  0
  7  8  1  0  0  0
  8  9  2  0  0  0
  8 10  1  0  0  0
 10 11  1  0  0  0
 10 13  1  0  0  0
 11 12  2  0  0  0
 14 15  1  0  0  0
  7 16  1  0  0  0
M  END
> <minimizedAffinity>
-8.61548

$$$$
1624


 32 35  0  0  0  0  0  0  0  0999 V2000
  -42.0659  -66.7757   51.1718 C   0  0  0  0  0  0  0  0  0  0  0  0
  -42.9858  -65.9585   51.9840 N   0  0  0  0  0  0  0  0  0  0  0  0
  -42.2990  -64.7790   52.3808 C   0  0  0  0  0  0  0  0  0  0  0  0
  -42.5729  -64.0352   53.3250 O   0  0  0  0  0  0  0  0  0  0  0  0
  -41.1744  -64.5916   51.4433 C   0  0  0  0  0  0  0  0  0  0  0  0
  -40.3049  -63.6619   51.4406 O   0  0  0  0  0  0  0  0  0  0  0  0
  -41.2554  -65.7021   50.5086 C   0  0  0  0  0  0  0  0  0  0  0  0
  -40.6791  -65.7175   49.3325 C   0  0  0  0  0  0  0  0  0  0  0  0
  -40.8038  -66.8680   48.5595 O   0  0  0  0  0  0  0  0  0  0  0  0
  -38.7533  -70.3580   54.6619 Cl  0  0  0  0  0  0  0  0  0  0  0  0
  -39.7305  -69.3067   53.6753 C   0  0  0  0  0  0  0  0  0  0  0  0
  -40.7588  -68.5834   54.2033 C   0  0  0  0  0  0  0  0  0  0  0  0
  -41.5068  -67.7615   53.3730 C   0  0  0  0  0  0  0  0  0  0  0  0
  -41.2718  -67.6342   52.0414 C   0  0  0  0  0  0  0  0  0  0  0  0
  -40.2192  -68.3756   51.5051 C   0  0  0  0  0  0  0  0  0  0  0  0
  -39.4628  -69.1979   52.3087 C   0  0  0  0  0  0  0  0  0  0  0  0
  -39.9096  -64.6274   48.7418 C   0  0  0  0  0  0  0  0  0  0  0  0
  -38.5299  -64.6960   48.8980 C   0  0  0  0  0  0  0  0  0  0  0  0
  -37.7438  -63.7228   48.3486 C   0  0  0  0  0  0  0  0  0  0  0  0
  -38.2934  -62.6708   47.6415 C   0  0  0  0  0  0  0  0  0  0  0  0
  -39.6620  -62.6078   47.4894 C   0  0  0  0  0  0  0  0  0  0  0  0
  -40.4456  -63.5971   48.0481 C   0  0  0  0  0  0  0  0  0  0  0  0
  -37.2561  -61.4595   46.9633 Cl  0  0  0  0  0  0  0  0  0  0  0  0
  -44.3354  -66.3865   52.2503 C   0  0  0  0  0  0  0  0  0  0  0  0
  -44.8183  -66.1813   53.6353 C   0  0  0  0  0  0  0  0  0  0  0  0
  -46.1103  -65.6385   53.8366 N   0  0  0  0  0  0  0  0  0  0  0  0
  -47.1768  -66.6155   53.7776 C   0  0  0  0  0  0  0  0  0  0  0  0
  -48.2471  -66.2851   52.7652 C   0  0  0  0  0  0  0  0  0  0  0  0
  -48.7198  -64.9998   52.8256 O   0  0  0  0  0  0  0  0  0  0  0  0
  -47.7231  -64.0454   52.9060 C   0  0  0  0  0  0  0  0  0  0  0  0
  -46.3891  -64.7043   52.7255 C   0  0  0  0  0  0  0  0  0  0  0  0
  -46.1837  -65.0457   54.6795 H   0  0  0  0  0  0  0  0  0  0  0  0
 10 11  1  0  0  0
 11 12  2  0  0  0
 11 16  1  0  0  0
 12 13  1  0  0  0
 13 14  2  0  0  0
 14 15  1  0  0  0
 14  1  1  0  0  0
 15 16  2  0  0  0
  1  2  1  0  0  0
  1  7  1  0  0  0
  2  3  1  0  0  0
  2 24  1  0  0  0
  3  4  2  0  0  0
  3  5  1  0  0  0
  5  6  2  0  0  0
  5  7  1  0  0  0
  7  8  2  0  0  0
  8  9  1  0  0  0
  8 17  1  0  0  0
 17 18  2  0  0  0
 17 22  1  0  0  0
 18 19  1  0  0  0
 19 20  2  0  0  0
 20 21  1  0  0  0
 20 23  1  0  0  0
 21 22  2  0  0  0
 24 25  1  0  0  0
 25 26  1  0  0  0
 26 27  1  0  0  0
 26 31  1  0  0  0
 27 28  1  0  0  0
 28 29  1  0  0  0
 29 30  1  0  0  0
 30 31  1  0  0  0
 26 32  1  0  0  0
M  CHG 1   9  -1
M  CHG 1  26   1
M  END
> <minimizedAffinity>
-8.32175

$$$$
1630


 39 43  0  0  0  0  0  0  0  0999 V2000
  -41.0760  -67.1351   49.5338 Cl  0  0  0  0  0  0  0  0  0  0  0  0
  -39.3097  -67.0370   49.4679 C   0  0  0  0  0  0  0  0  0  0  0  0
  -38.5461  -67.8035   50.3141 C   0  0  0  0  0  0  0  0  0  0  0  0
  -37.1603  -67.7290   50.2641 C   0  0  0  0  0  0  0  0  0  0  0  0
  -36.4836  -66.9145   49.3974 C   0  0  0  0  0  0  0  0  0  0  0  0
  -37.2889  -66.1436   48.5445 C   0  0  0  0  0  0  0  0  0  0  0  0
  -38.6642  -66.2097   48.5858 C   0  0  0  0  0  0  0  0  0  0  0  0
  -35.0528  -67.0708   49.6016 C   0  0  0  0  0  0  0  0  0  0  0  0
  -34.4800  -67.6018   48.3678 N   0  0  0  0  0  0  0  0  0  0  0  0
  -33.8445  -66.4530   47.7827 C   0  0  0  0  0  0  0  0  0  0  0  0
  -33.1645  -65.8279   48.9795 C   0  0  0  0  0  0  0  0  0  0  0  0
  -34.3043  -65.8388   49.9749 C   0  0  0  0  0  0  0  0  0  0  0  0
  -34.9714  -64.5675   49.7800 C   0  0  0  0  0  0  0  0  0  0  0  0
  -36.1138  -64.2519   50.1796 O   0  0  0  0  0  0  0  0  0  0  0  0
  -34.1166  -63.7015   49.0462 N   0  0  0  0  0  0  0  0  0  0  0  0
  -32.8939  -64.3841   48.7627 C   0  0  0  0  0  0  0  0  0  0  0  0
  -31.7846  -63.9249   48.4011 O   0  0  0  0  0  0  0  0  0  0  0  0
  -34.9260  -68.0774   50.6821 C   0  0  0  0  0  0  0  0  0  0  0  0
  -33.8627  -68.5380   51.1934 O   0  0  0  0  0  0  0  0  0  0  0  0
  -36.2311  -68.4516   51.0625 N   0  0  0  0  0  0  0  0  0  0  0  0
  -39.2360  -68.7063   51.2768 C   0  0  0  0  0  0  0  0  0  0  0  0
  -35.2333  -68.0253   47.7854 H   0  0  0  0  0  0  0  0  0  0  0  0
  -36.4601  -69.1540   51.8162 H   0  0  0  0  0  0  0  0  0  0  0  0
  -34.3572  -62.3373   48.6152 C   0  0  0  0  0  0  0  0  0  0  0  0
  -34.8438  -62.2699   47.2257 C   0  0  0  0  0  0  0  0  0  0  0  0
  -36.1958  -62.0923   47.0239 C   0  0  0  0  0  0  0  0  0  0  0  0
  -36.6478  -62.0301   45.7129 C   0  0  0  0  0  0  0  0  0  0  0  0
  -35.7905  -62.1395   44.6546 C   0  0  0  0  0  0  0  0  0  0  0  0
  -34.4487  -62.3147   44.8974 C   0  0  0  0  0  0  0  0  0  0  0  0
  -33.9383  -62.3852   46.1749 C   0  0  0  0  0  0  0  0  0  0  0  0
  -37.0421  -61.9844   48.1073 O   0  0  0  0  0  0  0  0  0  0  0  0
  -38.3242  -62.5248   48.1757 C   0  0  0  0  0  0  0  0  0  0  0  0
  -32.8551  -66.8530   46.7111 C   0  0  0  0  0  0  0  0  0  0  0  0
  -33.2414  -66.0975   45.4568 C   0  0  0  0  0  0  0  0  0  0  0  0
  -34.1921  -66.8705   44.6196 C   0  0  0  0  0  0  0  0  0  0  0  0
  -34.0365  -66.8946   43.3657 O   0  0  0  0  0  0  0  0  0  0  0  0
  -35.2437  -67.5533   45.2879 N   0  0  0  0  0  0  0  0  0  0  0  0
  -35.0405  -67.9860   46.2045 H   0  0  0  0  0  0  0  0  0  0  0  0
  -36.1776  -67.5803   44.8059 H   0  0  0  0  0  0  0  0  0  0  0  0
  1  2  1  0  0  0
  2  3  2  0  0  0
  2  7  1  0  0  0
  3  4  1  0  0  0
  3 21  1  0  0  0
  4  5  2  0  0  0
  4 20  1  0  0  0
  5  6  1  0  0  0
  5  8  1  0  0  0
  6  7  2  0  0  0
  8  9  1  0  0  0
  8 12  1  0  0  0
  8 18  1  0  0  0
  9 10  1  0  0  0
 10 11  1  0  0  0
 10 33  1  0  0  0
 11 12  1  0  0  0
 11 16  1  0  0  0
 12 13  1  0  0  0
 13 14  2  0  0  0
 13 15  1  0  0  0
 15 16  1  0  0  0
 15 24  1  0  0  0
 16 17  2  0  0  0
 24 25  1  0  0  0
 25 26  2  0  0  0
 25 30  1  0  0  0
 26 27  1  0  0  0
 26 31  1  0  0  0
 27 28  2  0  0  0
 28 29  1  0  0  0
 29 30  2  0  0  0
 31 32  1  0  0  0
 33 34  1  0  0  0
 34 35  1  0  0  0
 35 36  2  0  0  0
 35 37  1  0  0  0
 18 19  2  0  0  0
 18 20  1  0  0  0
  9 22  1  0  0  0
 37 38  1  0  0  0
 37 39  1  0  0  0
 20 23  1  0  0  0
M  END
> <minimizedAffinity>
-8.08751

$$$$
1631


 29 32  0  0  0  0  0  0  0  0999 V2000
  -42.2341  -66.8601   51.6397 C   0  0  0  0  0  0  0  0  0  0  0  0
  -43.2465  -65.9202   52.0289 N   0  0  0  0  0  0  0  0  0  0  0  0
  -42.7148  -64.6000   52.0739 C   0  0  0  0  0  0  0  0  0  0  0  0
  -43.2255  -63.5844   52.6295 O   0  0  0  0  0  0  0  0  0  0  0  0
  -41.4300  -64.6109   51.3435 C   0  0  0  0  0  0  0  0  0  0  0  0
  -40.6835  -63.6187   51.1854 O   0  0  0  0  0  0  0  0  0  0  0  0
  -41.2669  -65.9857   50.8894 C   0  0  0  0  0  0  0  0  0  0  0  0
  -40.3792  -66.3616   49.9934 C   0  0  0  0  0  0  0  0  0  0  0  0
  -40.3120  -67.7387   49.6985 O   0  0  0  0  0  0  0  0  0  0  0  0
  -38.9096  -70.5414   53.3419 Cl  0  0  0  0  0  0  0  0  0  0  0  0
  -40.0501  -69.2440   53.6213 C   0  0  0  0  0  0  0  0  0  0  0  0
  -40.6755  -68.5820   52.5915 C   0  0  0  0  0  0  0  0  0  0  0  0
  -41.5825  -67.5473   52.7829 C   0  0  0  0  0  0  0  0  0  0  0  0
  -41.8515  -67.1858   54.0992 C   0  0  0  0  0  0  0  0  0  0  0  0
  -41.2391  -67.8316   55.1493 C   0  0  0  0  0  0  0  0  0  0  0  0
  -40.3448  -68.8539   54.9093 C   0  0  0  0  0  0  0  0  0  0  0  0
  -44.5871  -66.2419   52.3326 C   0  0  0  0  0  0  0  0  0  0  0  0
  -45.5336  -65.6086   51.5903 N   0  0  0  0  0  0  0  0  0  0  0  0
  -46.8343  -65.8265   51.7790 C   0  0  0  0  0  0  0  0  0  0  0  0
  -47.2071  -66.7222   52.7548 C   0  0  0  0  0  0  0  0  0  0  0  0
  -46.2297  -67.3538   53.4945 C   0  0  0  0  0  0  0  0  0  0  0  0
  -44.9190  -67.1265   53.2985 N   0  0  0  0  0  0  0  0  0  0  0  0
  -45.2562  -64.9215   50.8363 H   0  0  0  0  0  0  0  0  0  0  0  0
  -39.4788  -65.4549   49.2946 C   0  0  0  0  0  0  0  0  0  0  0  0
  -38.1752  -65.2680   49.7761 C   0  0  0  0  0  0  0  0  0  0  0  0
  -37.2926  -64.4389   49.1193 C   0  0  0  0  0  0  0  0  0  0  0  0
  -37.6364  -63.7592   47.9695 C   0  0  0  0  0  0  0  0  0  0  0  0
  -38.9114  -63.9299   47.4798 C   0  0  0  0  0  0  0  0  0  0  0  0
  -39.8043  -64.7697   48.1470 C   0  0  0  0  0  0  0  0  0  0  0  0
 10 11  1  0  0  0
 11 12  2  0  0  0
 11 16  1  0  0  0
 12 13  1  0  0  0
 13 14  2  0  0  0
 13  1  1  0  0  0
 14 15  1  0  0  0
 15 16  2  0  0  0
  1  2  1  0  0  0
  1  7  1  0  0  0
  2  3  1  0  0  0
  2 17  1  0  0  0
  3  4  2  0  0  0
  3  5  1  0  0  0
  5  6  2  0  0  0
  5  7  1  0  0  0
  7  8  2  0  0  0
  8  9  1  0  0  0
  8 24  1  0  0  0
 24 25  2  0  0  0
 24 29  1  0  0  0
 25 26  1  0  0  0
 26 27  2  0  0  0
 27 28  1  0  0  0
 28 29  2  0  0  0
 17 18  2  0  0  0
 17 22  1  0  0  0
 18 19  1  0  0  0
 19 20  2  0  0  0
 20 21  1  0  0  0
 21 22  2  0  0  0
 18 23  1  0  0  0
M  CHG 1   9  -1
M  END
> <minimizedAffinity>
-9.13307

$$$$
1637


 29 32  0  0  0  0  0  0  0  0999 V2000
  -33.5871  -66.7102   47.4507 C   0  0  0  0  0  0  0  0  0  0  0  0
  -34.7158  -66.2010   46.9443 N   0  0  0  0  0  0  0  0  0  0  0  0
  -35.6557  -65.5959   47.6643 C   0  0  0  0  0  0  0  0  0  0  0  0
  -35.4383  -65.5010   49.0483 C   0  0  0  0  0  0  0  0  0  0  0  0
  -34.2979  -66.0162   49.5540 C   0  0  0  0  0  0  0  0  0  0  0  0
  -33.3753  -66.6164   48.7506 N   0  0  0  0  0  0  0  0  0  0  0  0
  -34.0747  -65.9122   50.9189 O   0  0  0  0  0  0  0  0  0  0  0  0
  -36.5618  -64.9552   49.8142 C   0  0  0  0  0  0  0  0  0  0  0  0
  -37.7111  -65.6941   49.3907 N   0  0  0  0  0  0  0  0  0  0  0  0
  -38.0725  -65.0177   48.0671 C   0  0  0  0  0  0  0  0  0  0  0  0
  -36.9238  -65.0412   47.1216 C   0  0  0  0  0  0  0  0  0  0  0  0
  -34.3327  -65.0936   51.4793 H   0  0  0  0  0  0  0  0  0  0  0  0
  -32.4890  -67.5741   46.3585 S   0  0  0  0  0  0  0  0  0  0  0  0
  -33.1971  -68.3491   45.3641 O   0  0  0  0  0  0  0  0  0  0  0  0
  -31.6176  -68.4327   47.2249 O   0  0  0  0  0  0  0  0  0  0  0  0
  -31.4317  -66.2957   45.6349 C   0  0  0  0  0  0  0  0  0  0  0  0
  -37.4781  -67.1016   48.9031 C   0  0  0  0  0  0  0  0  0  0  0  0
  -37.8611  -67.8620   50.1757 C   0  0  0  0  0  0  0  0  0  0  0  0
  -39.0626  -67.8443   50.7691 C   0  0  0  0  0  0  0  0  0  0  0  0
  -39.3745  -68.5699   51.9507 C   0  0  0  0  0  0  0  0  0  0  0  0
  -38.3152  -69.3269   52.4597 C   0  0  0  0  0  0  0  0  0  0  0  0
  -38.5554  -70.0453   53.5940 C   0  0  0  0  0  0  0  0  0  0  0  0
  -39.7930  -70.0683   54.2745 C   0  0  0  0  0  0  0  0  0  0  0  0
  -40.8296  -69.2952   53.7203 C   0  0  0  0  0  0  0  0  0  0  0  0
  -40.5701  -68.5805   52.5850 C   0  0  0  0  0  0  0  0  0  0  0  0
  -37.1602  -69.3592   51.8897 O   0  0  0  0  0  0  0  0  0  0  0  0
  -36.8908  -68.6612   50.7757 C   0  0  0  0  0  0  0  0  0  0  0  0
  -35.7251  -68.6951   50.2231 O   0  0  0  0  0  0  0  0  0  0  0  0
  -40.3307  -66.9317   50.0236 Cl  0  0  0  0  0  0  0  0  0  0  0  0
 13 14  2  0  0  0
 13 15  2  0  0  0
 13 16  1  0  0  0
 13  1  1  0  0  0
  1  2  2  0  0  0
  1  6  1  0  0  0
  2  3  1  0  0  0
  3  4  2  0  0  0
  3 11  1  0  0  0
  4  5  1  0  0  0
  4  8  1  0  0  0
  5  6  2  0  0  0
  5  7  1  0  0  0
  8  9  1  0  0  0
  9 10  1  0  0  0
  9 17  1  0  0  0
 10 11  1  0  0  0
 17 18  1  0  0  0
 18 19  2  0  0  0
 18 27  1  0  0  0
 19 20  1  0  0  0
 19 29  1  0  0  0
 20 21  2  0  0  0
 20 25  1  0  0  0
 21 22  1  0  0  0
 21 26  1  0  0  0
 22 23  2  0  0  0
 23 24  1  0  0  0
 24 25  2  0  0  0
 26 27  1  0  0  0
 27 28  2  0  0  0
  7 12  1  0  0  0
M  END
> <minimizedAffinity>
-8.74370

$$$$
1638


 38 41  0  0  0  0  0  0  0  0999 V2000
  -39.5315  -65.8396   49.3433 C   0  0  0  0  0  0  0  0  0  0  0  0
  -39.0107  -64.6401   49.8103 C   0  0  0  0  0  0  0  0  0  0  0  0
  -38.0344  -64.0089   49.1039 N   0  0  0  0  0  0  0  0  0  0  0  0
  -37.5397  -64.4953   47.9577 C   0  0  0  0  0  0  0  0  0  0  0  0
  -38.0392  -65.6568   47.5004 N   0  0  0  0  0  0  0  0  0  0  0  0
  -39.0044  -66.3170   48.1625 C   0  0  0  0  0  0  0  0  0  0  0  0
  -39.5340  -64.1334   51.0136 N   0  0  0  0  0  0  0  0  0  0  0  0
  -38.9570  -63.9422   51.8585 H   0  0  0  0  0  0  0  0  0  0  0  0
  -40.5534  -63.9334   51.0776 H   0  0  0  0  0  0  0  0  0  0  0  0
  -36.5195  -63.8301   47.2162 N   0  0  0  0  0  0  0  0  0  0  0  0
  -36.1923  -62.4419   47.4328 C   0  0  0  0  0  0  0  0  0  0  0  0
  -34.7407  -62.1864   47.7294 C   0  0  0  0  0  0  0  0  0  0  0  0
  -33.8399  -63.2752   47.1701 C   0  0  0  0  0  0  0  0  0  0  0  0
  -34.5551  -63.7040   45.8774 C   0  0  0  0  0  0  0  0  0  0  0  0
  -35.7583  -64.5273   46.1953 C   0  0  0  0  0  0  0  0  0  0  0  0
  -33.6770  -64.3825   47.9845 N   0  0  0  0  0  0  0  0  0  0  0  0
  -33.5989  -64.2739   49.3891 C   0  0  0  0  0  0  0  0  0  0  0  0
  -34.2185  -65.5517   49.9798 C   0  0  0  0  0  0  0  0  0  0  0  0
  -34.1287  -66.6338   48.9382 C   0  0  0  0  0  0  0  0  0  0  0  0
  -32.8273  -66.5978   48.1781 C   0  0  0  0  0  0  0  0  0  0  0  0
  -32.5896  -65.2258   47.5693 C   0  0  0  0  0  0  0  0  0  0  0  0
  -32.5765  -62.6370   46.7355 C   0  0  0  0  0  0  0  0  0  0  0  0
  -31.8766  -61.9517   47.5552 O   0  0  0  0  0  0  0  0  0  0  0  0
  -32.0713  -62.7346   45.4343 N   0  0  0  0  0  0  0  0  0  0  0  0
  -32.1537  -61.8914   44.8028 H   0  0  0  0  0  0  0  0  0  0  0  0
  -31.6055  -63.5600   45.0075 H   0  0  0  0  0  0  0  0  0  0  0  0
  -40.7908  -66.6879   50.2164 S   0  0  0  0  0  0  0  0  0  0  0  0
  -41.6862  -65.7449   50.9518 O   0  0  0  0  0  0  0  0  0  0  0  0
  -41.5510  -67.5213   49.2162 O   0  0  0  0  0  0  0  0  0  0  0  0
  -40.0051  -67.7971   51.3500 C   0  0  0  0  0  0  0  0  0  0  0  0
  -40.6430  -68.1550   52.5202 C   0  0  0  0  0  0  0  0  0  0  0  0
  -39.9936  -69.0219   53.3736 C   0  0  0  0  0  0  0  0  0  0  0  0
  -38.7324  -69.5290   53.0785 C   0  0  0  0  0  0  0  0  0  0  0  0
  -38.1283  -69.1481   51.8998 C   0  0  0  0  0  0  0  0  0  0  0  0
  -38.7525  -68.2820   51.0253 C   0  0  0  0  0  0  0  0  0  0  0  0
  -36.5244  -69.7830   51.5083 Cl  0  0  0  0  0  0  0  0  0  0  0  0
  -41.8816  -67.6359   52.7768 O   0  0  0  0  0  0  0  0  0  0  0  0
  -42.4584  -67.5002   54.0455 C   0  0  0  0  0  0  0  0  0  0  0  0
 27 28  2  0  0  0
 27 29  2  0  0  0
 27  1  1  0  0  0
 27 30  1  0  0  0
  1  2  2  0  0  0
  1  6  1  0  0  0
  2  3  1  0  0  0
  2  7  1  0  0  0
  3  4  2  0  0  0
  4  5  1  0  0  0
  4 10  1  0  0  0
  5  6  2  0  0  0
 10 11  1  0  0  0
 10 15  1  0  0  0
 11 12  1  0  0  0
 12 13  1  0  0  0
 13 14  1  0  0  0
 13 16  1  0  0  0
 13 22  1  0  0  0
 14 15  1  0  0  0
 16 17  1  0  0  0
 16 21  1  0  0  0
 17 18  1  0  0  0
 18 19  1  0  0  0
 19 20  1  0  0  0
 20 21  1  0  0  0
 22 23  2  0  0  0
 22 24  1  0  0  0
 30 31  2  0  0  0
 30 35  1  0  0  0
 31 32  1  0  0  0
 31 37  1  0  0  0
 32 33  2  0  0  0
 33 34  1  0  0  0
 34 35  2  0  0  0
 34 36  1  0  0  0
 37 38  1  0  0  0
 24 25  1  0  0  0
 24 26  1  0  0  0
  7  8  1  0  0  0
  7  9  1  0  0  0
M  END
> <minimizedAffinity>
-8.02666

$$$$
1651


 23 26  0  0  0  0  0  0  0  0999 V2000
  -41.7407  -67.0986   50.2825 Cl  0  0  0  0  0  0  0  0  0  0  0  0
  -40.0285  -67.5114   50.4112 C   0  0  0  0  0  0  0  0  0  0  0  0
  -39.1129  -67.0926   49.4773 C   0  0  0  0  0  0  0  0  0  0  0  0
  -37.7572  -67.4339   49.6017 C   0  0  0  0  0  0  0  0  0  0  0  0
  -37.3055  -68.1877   50.6475 C   0  0  0  0  0  0  0  0  0  0  0  0
  -38.2373  -68.6205   51.6087 C   0  0  0  0  0  0  0  0  0  0  0  0
  -39.5559  -68.2690   51.4562 C   0  0  0  0  0  0  0  0  0  0  0  0
  -35.9069  -68.4143   50.5805 N   0  0  0  0  0  0  0  0  0  0  0  0
  -35.4505  -67.7575   49.4109 C   0  0  0  0  0  0  0  0  0  0  0  0
  -34.2423  -67.7502   49.0335 O   0  0  0  0  0  0  0  0  0  0  0  0
  -36.5965  -67.1066   48.7385 C   0  0  0  0  0  0  0  0  0  0  0  0
  -36.7223  -67.7480   47.3727 C   0  0  0  0  0  0  0  0  0  0  0  0
  -35.5452  -67.2381   46.5919 C   0  0  0  0  0  0  0  0  0  0  0  0
  -34.7350  -67.9851   46.0132 O   0  0  0  0  0  0  0  0  0  0  0  0
  -35.3900  -65.8148   46.5413 N   0  0  0  0  0  0  0  0  0  0  0  0
  -35.8623  -65.0212   47.6221 C   0  0  0  0  0  0  0  0  0  0  0  0
  -35.8660  -63.6806   47.8546 N   0  0  0  0  0  0  0  0  0  0  0  0
  -36.4358  -63.4680   49.0158 N   0  0  0  0  0  0  0  0  0  0  0  0
  -36.8207  -64.6222   49.5827 C   0  0  0  0  0  0  0  0  0  0  0  0
  -36.4560  -65.6402   48.6928 C   0  0  0  0  0  0  0  0  0  0  0  0
  -35.1100  -69.1819   51.5427 C   0  0  0  0  0  0  0  0  0  0  0  0
  -34.9362  -65.3509   45.7240 H   0  0  0  0  0  0  0  0  0  0  0  0
  -35.4669  -62.9853   47.1821 H   0  0  0  0  0  0  0  0  0  0  0  0
  1  2  1  0  0  0
  2  3  2  0  0  0
  2  7  1  0  0  0
  3  4  1  0  0  0
  4  5  2  0  0  0
  4 11  1  0  0  0
  5  6  1  0  0  0
  5  8  1  0  0  0
  6  7  2  0  0  0
  8  9  1  0  0  0
  8 21  1  0  0  0
  9 10  2  0  0  0
  9 11  1  0  0  0
 11 12  1  0  0  0
 11 20  1  0  0  0
 12 13  1  0  0  0
 13 14  2  0  0  0
 13 15  1  0  0  0
 15 16  1  0  0  0
 16 17  1  0  0  0
 16 20  2  0  0  0
 17 18  1  0  0  0
 18 19  2  0  0  0
 19 20  1  0  0  0
 15 22  1  0  0  0
 17 23  1  0  0  0
M  END
> <minimizedAffinity>
-7.68736

$$$$
1657


 33 36  0  0  0  0  0  0  0  0999 V2000
  -37.7501  -68.3339   51.0513 Cl  0  0  0  0  0  0  0  0  0  0  0  0
  -39.4222  -67.8671   51.3867 C   0  0  0  0  0  0  0  0  0  0  0  0
  -39.9395  -68.0058   52.6566 C   0  0  0  0  0  0  0  0  0  0  0  0
  -41.2226  -67.6444   52.9109 C   0  0  0  0  0  0  0  0  0  0  0  0
  -42.0310  -67.1305   51.8879 C   0  0  0  0  0  0  0  0  0  0  0  0
  -41.4943  -67.0015   50.6293 C   0  0  0  0  0  0  0  0  0  0  0  0
  -40.1831  -67.3655   50.3520 C   0  0  0  0  0  0  0  0  0  0  0  0
  -43.3778  -66.7483   52.1472 N   0  0  0  0  0  0  0  0  0  0  0  0
  -43.7474  -66.3435   53.4951 C   0  0  0  0  0  0  0  0  0  0  0  0
  -43.2116  -67.3485   54.3833 N   0  0  0  0  0  0  0  0  0  0  0  0
  -41.8620  -67.7528   54.2200 C   0  0  0  0  0  0  0  0  0  0  0  0
  -41.1633  -68.2113   55.1605 O   0  0  0  0  0  0  0  0  0  0  0  0
  -45.2360  -66.3127   53.5885 C   0  0  0  0  0  0  0  0  0  0  0  0
  -45.8378  -64.9960   53.1542 C   0  0  0  0  0  0  0  0  0  0  0  0
  -45.2915  -64.5389   51.8934 N   0  0  0  0  0  0  0  0  0  0  0  0
  -43.8860  -64.2416   51.7034 C   0  0  0  0  0  0  0  0  0  0  0  0
  -43.5484  -63.9950   50.5228 O   0  0  0  0  0  0  0  0  0  0  0  0
  -42.7887  -64.1849   52.6832 C   0  0  0  0  0  0  0  0  0  0  0  0
  -43.0787  -65.0393   53.8808 C   0  0  0  0  0  0  0  0  0  0  0  0
  -44.0411  -66.7786   51.3452 H   0  0  0  0  0  0  0  0  0  0  0  0
  -43.7662  -67.7934   55.1408 H   0  0  0  0  0  0  0  0  0  0  0  0
  -46.1105  -64.3799   50.7617 C   0  0  0  0  0  0  0  0  0  0  0  0
  -46.8299  -63.1552   50.4943 C   0  0  0  0  0  0  0  0  0  0  0  0
  -47.7306  -62.9105   51.4470 O   0  0  0  0  0  0  0  0  0  0  0  0
  -46.7267  -62.2515   49.4610 N   0  0  0  0  0  0  0  0  0  0  0  0
  -47.6235  -61.0668   49.4632 C   0  0  0  0  0  0  0  0  0  0  0  0
  -46.6926  -59.8950   49.1132 C   0  0  0  0  0  0  0  0  0  0  0  0
  -45.3325  -60.2075   49.3993 N   0  0  0  0  0  0  0  0  0  0  0  0
  -44.7347  -61.2127   48.5722 C   0  0  0  0  0  0  0  0  0  0  0  0
  -45.8339  -62.2941   48.3707 C   0  0  0  0  0  0  0  0  0  0  0  0
  -44.4860  -59.1046   49.7047 C   0  0  0  0  0  0  0  0  0  0  0  0
  -43.2867  -58.9831   48.7872 C   0  0  0  0  0  0  0  0  0  0  0  0
  -45.2080  -57.7855   49.7496 C   0  0  0  0  0  0  0  0  0  0  0  0
  1  2  1  0  0  0
  2  3  2  0  0  0
  2  7  1  0  0  0
  3  4  1  0  0  0
  4  5  2  0  0  0
  4 11  1  0  0  0
  5  6  1  0  0  0
  5  8  1  0  0  0
  6  7  2  0  0  0
  8  9  1  0  0  0
  9 10  1  0  0  0
  9 13  1  0  0  0
  9 19  1  0  0  0
 10 11  1  0  0  0
 11 12  2  0  0  0
 13 14  1  0  0  0
 14 15  1  0  0  0
 15 16  1  0  0  0
 15 22  1  0  0  0
 16 17  2  0  0  0
 16 18  1  0  0  0
 18 19  1  0  0  0
 22 23  1  0  0  0
 23 24  2  0  0  0
 23 25  1  0  0  0
 25 26  1  0  0  0
 25 30  1  0  0  0
 26 27  1  0  0  0
 27 28  1  0  0  0
 28 29  1  0  0  0
 28 31  1  0  0  0
 29 30  1  0  0  0
 31 32  1  0  0  0
 31 33  1  0  0  0
  8 20  1  0  0  0
 10 21  1  0  0  0
M  END
> <minimizedAffinity>
-8.57591

$$$$
1660


 31 34  0  0  0  0  0  0  0  0999 V2000
  -41.9042  -67.6020   53.9922 N   0  0  0  0  0  0  0  0  0  0  0  0
  -41.6045  -68.1347   55.1458 N   0  0  0  0  0  0  0  0  0  0  0  0
  -40.5202  -68.9152   55.0866 C   0  0  0  0  0  0  0  0  0  0  0  0
  -40.0779  -68.8839   53.7710 C   0  0  0  0  0  0  0  0  0  0  0  0
  -40.9755  -68.0472   53.1154 C   0  0  0  0  0  0  0  0  0  0  0  0
  -40.7620  -67.8574   51.8106 N   0  0  0  0  0  0  0  0  0  0  0  0
  -39.7299  -68.4459   51.1672 C   0  0  0  0  0  0  0  0  0  0  0  0
  -38.8484  -69.2572   51.7724 N   0  0  0  0  0  0  0  0  0  0  0  0
  -39.0331  -69.4755   53.1002 C   0  0  0  0  0  0  0  0  0  0  0  0
  -38.2335  -70.2293   53.7093 O   0  0  0  0  0  0  0  0  0  0  0  0
  -46.6486  -64.1110   52.9871 Cl  0  0  0  0  0  0  0  0  0  0  0  0
  -45.2353  -65.0813   53.2491 C   0  0  0  0  0  0  0  0  0  0  0  0
  -43.9484  -64.6378   53.0449 C   0  0  0  0  0  0  0  0  0  0  0  0
  -42.8352  -65.4257   53.2637 C   0  0  0  0  0  0  0  0  0  0  0  0
  -42.9742  -66.7160   53.7048 C   0  0  0  0  0  0  0  0  0  0  0  0
  -44.2736  -67.1505   53.9056 C   0  0  0  0  0  0  0  0  0  0  0  0
  -45.3965  -66.3807   53.6935 C   0  0  0  0  0  0  0  0  0  0  0  0
  -37.7184  -69.8866   51.0820 C   0  0  0  0  0  0  0  0  0  0  0  0
  -36.5421  -69.0010   51.0243 C   0  0  0  0  0  0  0  0  0  0  0  0
  -35.8476  -68.9654   52.1007 O   0  0  0  0  0  0  0  0  0  0  0  0
  -36.1260  -68.2258   49.9446 N   0  0  0  0  0  0  0  0  0  0  0  0
  -34.9594  -67.3359   50.0537 C   0  0  0  0  0  0  0  0  0  0  0  0
  -35.5470  -65.9267   49.8999 C   0  0  0  0  0  0  0  0  0  0  0  0
  -36.3531  -65.8475   48.7103 N   0  0  0  0  0  0  0  0  0  0  0  0
  -36.4132  -67.0241   47.8633 C   0  0  0  0  0  0  0  0  0  0  0  0
  -36.7737  -68.2565   48.6521 C   0  0  0  0  0  0  0  0  0  0  0  0
  -37.0794  -64.6799   48.3895 C   0  0  0  0  0  0  0  0  0  0  0  0
  -37.0208  -63.6988   49.2203 O   0  0  0  0  0  0  0  0  0  0  0  0
  -37.8494  -64.4830   47.2655 O   0  0  0  0  0  0  0  0  0  0  0  0
  -39.2720  -64.2825   47.3712 C   0  0  0  0  0  0  0  0  0  0  0  0
  -39.8132  -65.4825   48.1275 C   0  0  0  0  0  0  0  0  0  0  0  0
 11 12  1  0  0  0
 12 13  2  0  0  0
 12 17  1  0  0  0
 13 14  1  0  0  0
 14 15  2  0  0  0
 15 16  1  0  0  0
 15  1  1  0  0  0
 16 17  2  0  0  0
  1  2  1  0  0  0
  1  5  1  0  0  0
  2  3  2  0  0  0
  3  4  1  0  0  0
  4  5  2  0  0  0
  4  9  1  0  0  0
  5  6  1  0  0  0
  6  7  2  0  0  0
  7  8  1  0  0  0
  8  9  1  0  0  0
  8 18  1  0  0  0
  9 10  2  0  0  0
 18 19  1  0  0  0
 19 20  2  0  0  0
 19 21  1  0  0  0
 21 22  1  0  0  0
 21 26  1  0  0  0
 22 23  1  0  0  0
 23 24  1  0  0  0
 24 25  1  0  0  0
 24 27  1  0  0  0
 25 26  1  0  0  0
 27 28  2  0  0  0
 27 29  1  0  0  0
 29 30  1  0  0  0
 30 31  1  0  0  0
M  END
> <minimizedAffinity>
-8.68781

$$$$
1666


 30 34  0  0  0  0  0  0  0  0999 V2000
  -34.2433  -62.7349   47.5879 N   0  0  0  0  0  0  0  0  0  0  0  0
  -34.8517  -62.9364   46.2993 C   0  0  0  0  0  0  0  0  0  0  0  0
  -36.3069  -62.5277   46.2995 C   0  0  0  0  0  0  0  0  0  0  0  0
  -37.0323  -63.2341   47.3852 N   0  0  0  0  0  0  0  0  0  0  0  0
  -36.4743  -62.7798   48.6508 C   0  0  0  0  0  0  0  0  0  0  0  0
  -35.1349  -62.0808   48.4959 C   0  0  0  0  0  0  0  0  0  0  0  0
  -33.3008  -63.9908   48.1830 S   0  0  0  0  0  0  0  0  0  0  0  0
  -32.3437  -64.4215   47.0789 O   0  0  0  0  0  0  0  0  0  0  0  0
  -32.3796  -63.4096   49.2565 O   0  0  0  0  0  0  0  0  0  0  0  0
  -34.1167  -65.3303   48.8823 C   0  0  0  0  0  0  0  0  0  0  0  0
  -35.0081  -66.0734   48.1472 C   0  0  0  0  0  0  0  0  0  0  0  0
  -35.6389  -67.1520   48.7411 C   0  0  0  0  0  0  0  0  0  0  0  0
  -35.4086  -67.5161   50.0552 C   0  0  0  0  0  0  0  0  0  0  0  0
  -34.5127  -66.7673   50.7891 C   0  0  0  0  0  0  0  0  0  0  0  0
  -33.8791  -65.6835   50.1914 C   0  0  0  0  0  0  0  0  0  0  0  0
  -36.2787  -69.0010   50.8759 Br  0  0  0  0  0  0  0  0  0  0  0  0
  -38.3920  -62.7556   47.2567 C   0  0  0  0  0  0  0  0  0  0  0  0
  -39.4710  -63.7520   47.2153 C   0  0  0  0  0  0  0  0  0  0  0  0
  -39.6267  -64.6727   48.2899 N   0  0  0  0  0  0  0  0  0  0  0  0
  -39.2982  -66.0540   48.3851 C   0  0  0  0  0  0  0  0  0  0  0  0
  -39.2133  -66.8382   47.4288 O   0  0  0  0  0  0  0  0  0  0  0  0
  -39.0768  -66.3954   49.8109 C   0  0  0  0  0  0  0  0  0  0  0  0
  -40.0217  -65.3779   50.4903 C   0  0  0  0  0  0  0  0  0  0  0  0
  -41.2623  -66.1292   50.7959 C   0  0  0  0  0  0  0  0  0  0  0  0
  -41.2059  -67.2774   49.7741 C   0  0  0  0  0  0  0  0  0  0  0  0
  -39.7656  -67.6689   50.1485 C   0  0  0  0  0  0  0  0  0  0  0  0
  -39.9120  -67.6979   51.6424 C   0  0  0  0  0  0  0  0  0  0  0  0
  -40.9606  -66.9670   52.0209 C   0  0  0  0  0  0  0  0  0  0  0  0
  -40.1520  -64.2572   49.5702 C   0  0  0  0  0  0  0  0  0  0  0  0
  -40.6408  -63.1393   49.8704 O   0  0  0  0  0  0  0  0  0  0  0  0
  7  8  2  0  0  0
  7  9  2  0  0  0
  7  1  1  0  0  0
  7 10  1  0  0  0
  1  2  1  0  0  0
  1  6  1  0  0  0
  2  3  1  0  0  0
  3  4  1  0  0  0
  4  5  1  0  0  0
  4 17  1  0  0  0
  5  6  1  0  0  0
 17 18  1  0  0  0
 18 19  1  0  0  0
 19 20  1  0  0  0
 19 29  1  0  0  0
 20 21  2  0  0  0
 20 22  1  0  0  0
 22 23  1  0  0  0
 22 26  1  0  0  0
 23 24  1  0  0  0
 23 29  1  0  0  0
 24 25  1  0  0  0
 24 28  1  0  0  0
 25 26  1  0  0  0
 26 27  1  0  0  0
 27 28  2  0  0  0
 29 30  2  0  0  0
 10 11  2  0  0  0
 10 15  1  0  0  0
 11 12  1  0  0  0
 12 13  2  0  0  0
 13 14  1  0  0  0
 13 16  1  0  0  0
 14 15  2  0  0  0
M  END
> <minimizedAffinity>
-7.98450

$$$$
1673


 35 38  0  0  0  0  0  0  0  0999 V2000
  -41.0144  -65.4854   49.5380 C   0  0  0  0  0  0  0  0  0  0  0  0
  -39.6413  -66.0988   49.6014 C   0  0  0  0  0  0  0  0  0  0  0  0
  -38.7252  -65.0805   49.3391 N   0  0  0  0  0  0  0  0  0  0  0  0
  -39.4095  -64.3279   48.2600 C   0  0  0  0  0  0  0  0  0  0  0  0
  -38.8688  -63.7175   47.2987 O   0  0  0  0  0  0  0  0  0  0  0  0
  -40.8364  -64.4238   48.5223 C   0  0  0  0  0  0  0  0  0  0  0  0
  -41.7339  -63.7236   47.9733 O   0  0  0  0  0  0  0  0  0  0  0  0
  -39.4784  -67.1834   50.5364 C   0  0  0  0  0  0  0  0  0  0  0  0
  -40.4279  -67.6394   51.3954 C   0  0  0  0  0  0  0  0  0  0  0  0
  -40.1768  -68.7058   52.2446 C   0  0  0  0  0  0  0  0  0  0  0  0
  -38.9163  -69.3216   52.2145 C   0  0  0  0  0  0  0  0  0  0  0  0
  -37.9636  -68.8620   51.3509 C   0  0  0  0  0  0  0  0  0  0  0  0
  -38.2119  -67.8167   50.5172 C   0  0  0  0  0  0  0  0  0  0  0  0
  -38.6139  -70.3864   53.0397 O   0  0  0  0  0  0  0  0  0  0  0  0
  -41.1051  -69.1857   53.1116 O   0  0  0  0  0  0  0  0  0  0  0  0
  -41.5860  -68.4844   54.2121 C   0  0  0  0  0  0  0  0  0  0  0  0
  -40.5616  -68.3069   55.3186 C   0  0  0  0  0  0  0  0  0  0  0  0
  -41.5019  -64.9333   50.8020 C   0  0  0  0  0  0  0  0  0  0  0  0
  -40.6985  -64.2827   51.5563 O   0  0  0  0  0  0  0  0  0  0  0  0
  -47.2027  -65.5004   53.1357 Br  0  0  0  0  0  0  0  0  0  0  0  0
  -45.4284  -65.3307   52.4011 C   0  0  0  0  0  0  0  0  0  0  0  0
  -45.0693  -64.2402   51.6521 C   0  0  0  0  0  0  0  0  0  0  0  0
  -43.8045  -64.0688   51.0992 C   0  0  0  0  0  0  0  0  0  0  0  0
  -42.8595  -65.0459   51.3157 C   0  0  0  0  0  0  0  0  0  0  0  0
  -43.2346  -66.1438   52.0749 C   0  0  0  0  0  0  0  0  0  0  0  0
  -44.4855  -66.3127   52.6205 C   0  0  0  0  0  0  0  0  0  0  0  0
  -37.4008  -64.6487   49.6603 C   0  0  0  0  0  0  0  0  0  0  0  0
  -36.2842  -65.2602   48.9021 C   0  0  0  0  0  0  0  0  0  0  0  0
  -34.9421  -64.9559   49.1641 N   0  0  0  0  0  0  0  0  0  0  0  0
  -34.4433  -65.5822   50.3954 C   0  0  0  0  0  0  0  0  0  0  0  0
  -34.4458  -67.0724   50.3276 C   0  0  0  0  0  0  0  0  0  0  0  0
  -34.7428  -67.4798   49.0471 O   0  0  0  0  0  0  0  0  0  0  0  0
  -33.8192  -66.8729   48.1800 C   0  0  0  0  0  0  0  0  0  0  0  0
  -34.1030  -65.3928   48.0338 C   0  0  0  0  0  0  0  0  0  0  0  0
  -34.7757  -63.9575   49.2626 H   0  0  0  0  0  0  0  0  0  0  0  0
 20 21  1  0  0  0
 21 22  2  0  0  0
 21 26  1  0  0  0
 22 23  1  0  0  0
 23 24  2  0  0  0
 24 25  1  0  0  0
 24 18  1  0  0  0
 25 26  2  0  0  0
 18 19  2  0  0  0
 18  1  1  0  0  0
  1  2  1  0  0  0
  1  6  1  0  0  0
  2  3  1  0  0  0
  2  8  1  0  0  0
  3  4  1  0  0  0
  3 27  1  0  0  0
  4  5  2  0  0  0
  4  6  1  0  0  0
  6  7  2  0  0  0
 27 28  1  0  0  0
 28 29  1  0  0  0
 29 30  1  0  0  0
 29 34  1  0  0  0
 30 31  1  0  0  0
 31 32  1  0  0  0
 32 33  1  0  0  0
 33 34  1  0  0  0
  8  9  2  0  0  0
  8 13  1  0  0  0
  9 10  1  0  0  0
 10 11  2  0  0  0
 10 15  1  0  0  0
 11 12  1  0  0  0
 11 14  1  0  0  0
 12 13  2  0  0  0
 15 16  1  0  0  0
 16 17  1  0  0  0
 29 35  1  0  0  0
M  CHG 1  14  -1
M  CHG 1  29   1
M  END
> <minimizedAffinity>
-8.27881

$$$$
1676


 25 28  0  0  0  0  0  0  0  0999 V2000
  -39.3050  -69.0326   51.8923 C   0  0  0  0  0  0  0  0  0  0  0  0
  -39.3424  -70.2057   52.3106 O   0  0  0  0  0  0  0  0  0  0  0  0
  -38.2288  -68.6385   51.0577 N   0  0  0  0  0  0  0  0  0  0  0  0
  -38.1852  -67.6689   50.7040 H   0  0  0  0  0  0  0  0  0  0  0  0
  -42.0817  -64.6069   50.8711 Br  0  0  0  0  0  0  0  0  0  0  0  0
  -41.6693  -66.1571   51.9110 C   0  0  0  0  0  0  0  0  0  0  0  0
  -42.3786  -66.4403   53.0584 C   0  0  0  0  0  0  0  0  0  0  0  0
  -42.0981  -67.5504   53.8207 C   0  0  0  0  0  0  0  0  0  0  0  0
  -42.6132  -68.0666   54.9624 N   0  0  0  0  0  0  0  0  0  0  0  0
  -41.9398  -69.1685   55.2381 N   0  0  0  0  0  0  0  0  0  0  0  0
  -41.0173  -69.4021   54.3465 N   0  0  0  0  0  0  0  0  0  0  0  0
  -41.0882  -68.3967   53.4330 C   0  0  0  0  0  0  0  0  0  0  0  0
  -40.3717  -68.1172   52.2822 C   0  0  0  0  0  0  0  0  0  0  0  0
  -40.6602  -66.9966   51.5176 C   0  0  0  0  0  0  0  0  0  0  0  0
  -40.3187  -70.1680   54.2566 H   0  0  0  0  0  0  0  0  0  0  0  0
  -37.1872  -69.5656   50.6890 C   0  0  0  0  0  0  0  0  0  0  0  0
  -35.8642  -68.8499   50.7216 C   0  0  0  0  0  0  0  0  0  0  0  0
  -35.5296  -67.7370   50.0492 N   0  0  0  0  0  0  0  0  0  0  0  0
  -34.2566  -67.3791   50.3226 C   0  0  0  0  0  0  0  0  0  0  0  0
  -33.7945  -68.2930   51.1848 N   0  0  0  0  0  0  0  0  0  0  0  0
  -34.7665  -69.1856   51.4276 N   0  0  0  0  0  0  0  0  0  0  0  0
  -33.7534  -66.1553   49.6404 C   0  0  0  0  0  0  0  0  0  0  0  0
  -34.7814  -65.0677   49.9845 C   0  0  0  0  0  0  0  0  0  0  0  0
  -36.1771  -65.4647   49.6306 C   0  0  0  0  0  0  0  0  0  0  0  0
  -36.2513  -66.8896   49.1263 C   0  0  0  0  0  0  0  0  0  0  0  0
  5  6  1  0  0  0
  6  7  2  0  0  0
  6 14  1  0  0  0
  7  8  1  0  0  0
  8  9  1  0  0  0
  8 12  2  0  0  0
  9 10  2  0  0  0
 10 11  1  0  0  0
 11 12  1  0  0  0
 12 13  1  0  0  0
 13 14  2  0  0  0
 13  1  1  0  0  0
  1  2  2  0  0  0
  1  3  1  0  0  0
  3 16  1  0  0  0
 16 17  1  0  0  0
 17 18  1  0  0  0
 17 21  2  0  0  0
 18 19  1  0  0  0
 18 25  1  0  0  0
 19 20  2  0  0  0
 19 22  1  0  0  0
 20 21  1  0  0  0
 22 23  1  0  0  0
 23 24  1  0  0  0
 24 25  1  0  0  0
 11 15  1  0  0  0
  3  4  1  0  0  0
M  END
> <minimizedAffinity>
-8.44100

$$$$
1687


 27 30  0  0  0  0  0  0  0  0999 V2000
  -41.0618  -66.6939   51.8313 N   0  0  0  0  0  0  0  0  0  0  0  0
  -40.3487  -67.7139   52.3596 C   0  0  0  0  0  0  0  0  0  0  0  0
  -40.7509  -68.3774   53.4978 C   0  0  0  0  0  0  0  0  0  0  0  0
  -41.9840  -67.9778   54.1647 C   0  0  0  0  0  0  0  0  0  0  0  0
  -42.1166  -68.7872   55.2251 N   0  0  0  0  0  0  0  0  0  0  0  0
  -41.0903  -69.6502   55.2840 N   0  0  0  0  0  0  0  0  0  0  0  0
  -40.2604  -69.4194   54.2548 C   0  0  0  0  0  0  0  0  0  0  0  0
  -39.2097  -70.0659   54.0418 O   0  0  0  0  0  0  0  0  0  0  0  0
  -42.6887  -66.9295   53.5970 C   0  0  0  0  0  0  0  0  0  0  0  0
  -42.1916  -66.3467   52.4642 C   0  0  0  0  0  0  0  0  0  0  0  0
  -41.0054  -70.3723   56.0435 H   0  0  0  0  0  0  0  0  0  0  0  0
  -43.9278  -66.5015   54.2365 C   0  0  0  0  0  0  0  0  0  0  0  0
  -43.8688  -65.7278   55.2256 O   0  0  0  0  0  0  0  0  0  0  0  0
  -45.1522  -66.9210   53.7886 O   0  0  0  0  0  0  0  0  0  0  0  0
  -46.2625  -66.0405   53.7252 C   0  0  0  0  0  0  0  0  0  0  0  0
  -40.6063  -66.0132   50.6242 C   0  0  0  0  0  0  0  0  0  0  0  0
  -39.9565  -67.0431   49.7261 C   0  0  0  0  0  0  0  0  0  0  0  0
  -33.9320  -69.9421   51.8522 Cl  0  0  0  0  0  0  0  0  0  0  0  0
  -35.3240  -69.0588   51.2266 C   0  0  0  0  0  0  0  0  0  0  0  0
  -35.1864  -67.8954   50.4993 C   0  0  0  0  0  0  0  0  0  0  0  0
  -36.3120  -67.2456   50.0340 C   0  0  0  0  0  0  0  0  0  0  0  0
  -36.4989  -66.1094   49.3085 N   0  0  0  0  0  0  0  0  0  0  0  0
  -37.8173  -65.9207   49.1241 C   0  0  0  0  0  0  0  0  0  0  0  0
  -38.5151  -66.9135   49.7154 N   0  0  0  0  0  0  0  0  0  0  0  0
  -37.5885  -67.7167   50.2677 C   0  0  0  0  0  0  0  0  0  0  0  0
  -37.7362  -68.8768   50.9915 C   0  0  0  0  0  0  0  0  0  0  0  0
  -36.6063  -69.5206   51.4537 C   0  0  0  0  0  0  0  0  0  0  0  0
 18 19  1  0  0  0
 19 20  2  0  0  0
 19 27  1  0  0  0
 20 21  1  0  0  0
 21 22  1  0  0  0
 21 25  2  0  0  0
 22 23  2  0  0  0
 23 24  1  0  0  0
 24 25  1  0  0  0
 24 17  1  0  0  0
 25 26  1  0  0  0
 26 27  2  0  0  0
 17 16  1  0  0  0
 16  1  1  0  0  0
  1  2  1  0  0  0
  1 10  1  0  0  0
  2  3  2  0  0  0
  3  4  1  0  0  0
  3  7  1  0  0  0
  4  5  2  0  0  0
  4  9  1  0  0  0
  5  6  1  0  0  0
  6  7  1  0  0  0
  7  8  2  0  0  0
  9 10  2  0  0  0
  9 12  1  0  0  0
 12 13  2  0  0  0
 12 14  1  0  0  0
 14 15  1  0  0  0
  6 11  1  0  0  0
M  END
> <minimizedAffinity>
-8.72822

$$$$
1689


 32 35  0  0  0  0  0  0  0  0999 V2000
  -36.0781  -67.4778   49.9227 C   0  0  0  0  0  0  0  0  0  0  0  0
  -35.1363  -67.4009   50.7492 O   0  0  0  0  0  0  0  0  0  0  0  0
  -36.3888  -66.3380   49.1514 N   0  0  0  0  0  0  0  0  0  0  0  0
  -37.4085  -66.1272   48.1447 C   0  0  0  0  0  0  0  0  0  0  0  0
  -37.8812  -64.7698   48.4178 C   0  0  0  0  0  0  0  0  0  0  0  0
  -36.8976  -64.1379   49.4053 C   0  0  0  0  0  0  0  0  0  0  0  0
  -35.6897  -65.0818   49.2275 C   0  0  0  0  0  0  0  0  0  0  0  0
  -36.5622  -62.8471   49.0815 O   0  0  0  0  0  0  0  0  0  0  0  0
  -35.7656  -62.8726   48.4943 H   0  0  0  0  0  0  0  0  0  0  0  0
  -39.2189  -64.5108   48.7842 N   0  0  0  0  0  0  0  0  0  0  0  0
  -39.5373  -64.6038   50.1037 C   0  0  0  0  0  0  0  0  0  0  0  0
  -40.8137  -64.3671   50.5621 C   0  0  0  0  0  0  0  0  0  0  0  0
  -41.8134  -64.0243   49.6824 C   0  0  0  0  0  0  0  0  0  0  0  0
  -42.9971  -63.8009   50.0776 O   0  0  0  0  0  0  0  0  0  0  0  0
  -41.4994  -63.9321   48.3811 N   0  0  0  0  0  0  0  0  0  0  0  0
  -40.2440  -64.1730   47.9955 C   0  0  0  0  0  0  0  0  0  0  0  0
  -40.0083  -64.0704   46.7745 O   0  0  0  0  0  0  0  0  0  0  0  0
  -41.1487  -64.4727   52.0201 C   0  0  0  0  0  0  0  0  0  0  0  0
  -42.2567  -63.6700   47.6771 H   0  0  0  0  0  0  0  0  0  0  0  0
  -36.8070  -68.7580   49.8081 C   0  0  0  0  0  0  0  0  0  0  0  0
  -36.7095  -69.5322   51.0874 C   0  0  0  0  0  0  0  0  0  0  0  0
  -43.3498  -67.3242   54.2173 Cl  0  0  0  0  0  0  0  0  0  0  0  0
  -41.8109  -68.1183   53.9844 C   0  0  0  0  0  0  0  0  0  0  0  0
  -41.0848  -67.8985   52.8215 C   0  0  0  0  0  0  0  0  0  0  0  0
  -39.8625  -68.5181   52.6222 C   0  0  0  0  0  0  0  0  0  0  0  0
  -38.9501  -68.5123   51.6381 N   0  0  0  0  0  0  0  0  0  0  0  0
  -37.8936  -69.3161   51.9403 C   0  0  0  0  0  0  0  0  0  0  0  0
  -38.1936  -69.8249   53.1649 N   0  0  0  0  0  0  0  0  0  0  0  0
  -39.3734  -69.3583   53.5931 C   0  0  0  0  0  0  0  0  0  0  0  0
  -40.0989  -69.5727   54.7455 C   0  0  0  0  0  0  0  0  0  0  0  0
  -41.3247  -68.9597   54.9613 C   0  0  0  0  0  0  0  0  0  0  0  0
  -39.0871  -67.9413   50.7675 H   0  0  0  0  0  0  0  0  0  0  0  0
 22 23  1  0  0  0
 23 24  2  0  0  0
 23 31  1  0  0  0
 24 25  1  0  0  0
 25 26  1  0  0  0
 25 29  2  0  0  0
 26 27  1  0  0  0
 27 28  2  0  0  0
 27 21  1  0  0  0
 28 29  1  0  0  0
 29 30  1  0  0  0
 30 31  2  0  0  0
 21 20  1  0  0  0
 20  1  1  0  0  0
  1  2  2  0  0  0
  1  3  1  0  0  0
  3  4  1  0  0  0
  3  7  1  0  0  0
  4  5  1  0  0  0
  5  6  1  0  0  0
  5 10  1  0  0  0
  6  7  1  0  0  0
  6  8  1  0  0  0
 10 11  1  0  0  0
 10 16  1  0  0  0
 11 12  2  0  0  0
 12 13  1  0  0  0
 12 18  1  0  0  0
 13 14  2  0  0  0
 13 15  1  0  0  0
 15 16  1  0  0  0
 16 17  2  0  0  0
 26 32  1  0  0  0
  8  9  1  0  0  0
 15 19  1  0  0  0
M  END
> <minimizedAffinity>
-9.18543

$$$$
1690


 34 37  0  0  0  0  0  0  0  0999 V2000
  -35.9814  -68.9811   50.8798 C   0  0  0  0  0  0  0  0  0  0  0  0
  -35.0870  -69.7015   51.3924 O   0  0  0  0  0  0  0  0  0  0  0  0
  -35.6904  -67.6560   50.4376 N   0  0  0  0  0  0  0  0  0  0  0  0
  -36.6662  -66.7716   49.8409 C   0  0  0  0  0  0  0  0  0  0  0  0
  -36.0178  -65.9336   48.7256 C   0  0  0  0  0  0  0  0  0  0  0  0
  -34.8651  -66.7300   48.2177 C   0  0  0  0  0  0  0  0  0  0  0  0
  -33.7635  -66.7273   49.2527 C   0  0  0  0  0  0  0  0  0  0  0  0
  -34.3423  -67.1508   50.5869 C   0  0  0  0  0  0  0  0  0  0  0  0
  -37.0223  -65.7700   47.7601 O   0  0  0  0  0  0  0  0  0  0  0  0
  -35.6683  -64.6083   49.3250 C   0  0  0  0  0  0  0  0  0  0  0  0
  -37.5419  -64.9295   47.9703 H   0  0  0  0  0  0  0  0  0  0  0  0
  -34.4131  -66.4122   46.9093 N   0  0  0  0  0  0  0  0  0  0  0  0
  -33.5946  -65.3862   46.6330 C   0  0  0  0  0  0  0  0  0  0  0  0
  -33.1730  -65.1053   45.3395 C   0  0  0  0  0  0  0  0  0  0  0  0
  -33.6073  -65.9038   44.3071 C   0  0  0  0  0  0  0  0  0  0  0  0
  -33.2241  -65.6514   43.1223 O   0  0  0  0  0  0  0  0  0  0  0  0
  -34.4257  -66.9281   44.5860 N   0  0  0  0  0  0  0  0  0  0  0  0
  -34.8046  -67.1587   45.8549 C   0  0  0  0  0  0  0  0  0  0  0  0
  -35.5871  -68.1390   46.1168 O   0  0  0  0  0  0  0  0  0  0  0  0
  -32.2537  -63.9415   45.0921 C   0  0  0  0  0  0  0  0  0  0  0  0
  -34.7609  -67.5402   43.8134 H   0  0  0  0  0  0  0  0  0  0  0  0
  -37.3566  -69.4857   50.7244 C   0  0  0  0  0  0  0  0  0  0  0  0
  -37.9708  -69.6923   52.0789 C   0  0  0  0  0  0  0  0  0  0  0  0
  -44.2296  -65.9235   54.4320 Cl  0  0  0  0  0  0  0  0  0  0  0  0
  -42.9316  -66.5279   53.4283 C   0  0  0  0  0  0  0  0  0  0  0  0
  -41.9642  -67.3931   53.9092 C   0  0  0  0  0  0  0  0  0  0  0  0
  -40.9475  -67.8631   53.1123 C   0  0  0  0  0  0  0  0  0  0  0  0
  -39.9142  -68.6872   53.3288 N   0  0  0  0  0  0  0  0  0  0  0  0
  -39.1773  -68.8386   52.1944 C   0  0  0  0  0  0  0  0  0  0  0  0
  -39.7882  -68.0884   51.2897 N   0  0  0  0  0  0  0  0  0  0  0  0
  -40.8632  -67.4780   51.7970 C   0  0  0  0  0  0  0  0  0  0  0  0
  -41.8137  -66.6173   51.2948 C   0  0  0  0  0  0  0  0  0  0  0  0
  -42.8408  -66.1444   52.1021 C   0  0  0  0  0  0  0  0  0  0  0  0
  -39.6749  -69.1692   54.2384 H   0  0  0  0  0  0  0  0  0  0  0  0
 24 25  1  0  0  0
 25 26  2  0  0  0
 25 33  1  0  0  0
 26 27  1  0  0  0
 27 28  1  0  0  0
 27 31  2  0  0  0
 28 29  1  0  0  0
 29 30  2  0  0  0
 29 23  1  0  0  0
 30 31  1  0  0  0
 31 32  1  0  0  0
 32 33  2  0  0  0
 23 22  1  0  0  0
 22  1  1  0  0  0
  1  2  2  0  0  0
  1  3  1  0  0  0
  3  4  1  0  0  0
  3  8  1  0  0  0
  4  5  1  0  0  0
  5  6  1  0  0  0
  5  9  1  0  0  0
  5 10  1  0  0  0
  6  7  1  0  0  0
  6 12  1  0  0  0
  7  8  1  0  0  0
 12 13  1  0  0  0
 12 18  1  0  0  0
 13 14  2  0  0  0
 14 15  1  0  0  0
 14 20  1  0  0  0
 15 16  2  0  0  0
 15 17  1  0  0  0
 17 18  1  0  0  0
 18 19  2  0  0  0
 28 34  1  0  0  0
 17 21  1  0  0  0
  9 11  1  0  0  0
M  END
> <minimizedAffinity>
-8.71988

$$$$
1691


 35 39  0  0  0  0  0  0  0  0999 V2000
  -40.6066  -68.1246   52.8129 C   0  0  0  0  0  0  0  0  0  0  0  0
  -40.5493  -69.3632   52.6917 O   0  0  0  0  0  0  0  0  0  0  0  0
  -40.7345  -67.3098   51.6765 N   0  0  0  0  0  0  0  0  0  0  0  0
  -40.8111  -67.6240   50.2851 C   0  0  0  0  0  0  0  0  0  0  0  0
  -39.9358  -66.5486   49.5977 C   0  0  0  0  0  0  0  0  0  0  0  0
  -40.2173  -65.3896   50.4869 C   0  0  0  0  0  0  0  0  0  0  0  0
  -40.8437  -65.8658   51.7537 C   0  0  0  0  0  0  0  0  0  0  0  0
  -41.0936  -64.4621   49.9245 O   0  0  0  0  0  0  0  0  0  0  0  0
  -41.4866  -64.7986   49.0707 H   0  0  0  0  0  0  0  0  0  0  0  0
  -38.5706  -66.9914   49.6117 N   0  0  0  0  0  0  0  0  0  0  0  0
  -37.5445  -66.5365   48.8737 C   0  0  0  0  0  0  0  0  0  0  0  0
  -36.3854  -67.2609   49.2194 C   0  0  0  0  0  0  0  0  0  0  0  0
  -36.7645  -68.1370   50.1639 N   0  0  0  0  0  0  0  0  0  0  0  0
  -38.0640  -67.9898   50.4097 C   0  0  0  0  0  0  0  0  0  0  0  0
  -35.1755  -67.0040   48.6149 C   0  0  0  0  0  0  0  0  0  0  0  0
  -34.1569  -67.6684   48.9454 O   0  0  0  0  0  0  0  0  0  0  0  0
  -35.1366  -66.0400   47.6879 N   0  0  0  0  0  0  0  0  0  0  0  0
  -36.2376  -65.3592   47.3669 C   0  0  0  0  0  0  0  0  0  0  0  0
  -36.1842  -64.4554   46.4914 O   0  0  0  0  0  0  0  0  0  0  0  0
  -37.4640  -65.5732   47.9343 N   0  0  0  0  0  0  0  0  0  0  0  0
  -38.6026  -64.8059   47.5400 C   0  0  0  0  0  0  0  0  0  0  0  0
  -33.8635  -65.7428   47.0273 C   0  0  0  0  0  0  0  0  0  0  0  0
  -40.5384  -67.5270   54.1554 C   0  0  0  0  0  0  0  0  0  0  0  0
  -41.7045  -67.9888   55.0003 C   0  0  0  0  0  0  0  0  0  0  0  0
  -48.7821  -66.3263   52.4930 Cl  0  0  0  0  0  0  0  0  0  0  0  0
  -47.1069  -66.1799   53.0111 C   0  0  0  0  0  0  0  0  0  0  0  0
  -46.3726  -67.2757   53.4001 C   0  0  0  0  0  0  0  0  0  0  0  0
  -45.0466  -67.1173   53.8046 C   0  0  0  0  0  0  0  0  0  0  0  0
  -44.1021  -67.9743   54.2265 N   0  0  0  0  0  0  0  0  0  0  0  0
  -42.9566  -67.3278   54.5053 C   0  0  0  0  0  0  0  0  0  0  0  0
  -43.1928  -66.0404   54.2514 N   0  0  0  0  0  0  0  0  0  0  0  0
  -44.4597  -65.8704   53.8199 C   0  0  0  0  0  0  0  0  0  0  0  0
  -45.1968  -64.7721   53.4310 C   0  0  0  0  0  0  0  0  0  0  0  0
  -46.5214  -64.9446   53.0287 C   0  0  0  0  0  0  0  0  0  0  0  0
  -44.2714  -69.0120   54.3168 H   0  0  0  0  0  0  0  0  0  0  0  0
 25 26  1  0  0  0
 26 27  2  0  0  0
 26 34  1  0  0  0
 27 28  1  0  0  0
 28 29  1  0  0  0
 28 32  2  0  0  0
 29 30  1  0  0  0
 30 31  2  0  0  0
 30 24  1  0  0  0
 31 32  1  0  0  0
 32 33  1  0  0  0
 33 34  2  0  0  0
 24 23  1  0  0  0
 23  1  1  0  0  0
  1  2  2  0  0  0
  1  3  1  0  0  0
  3  4  1  0  0  0
  3  7  1  0  0  0
  4  5  1  0  0  0
  5  6  1  0  0  0
  5 10  1  0  0  0
  6  7  1  0  0  0
  6  8  1  0  0  0
 10 11  1  0  0  0
 10 14  1  0  0  0
 11 12  2  0  0  0
 11 20  1  0  0  0
 12 13  1  0  0  0
 12 15  1  0  0  0
 13 14  2  0  0  0
 15 16  2  0  0  0
 15 17  1  0  0  0
 17 18  1  0  0  0
 17 22  1  0  0  0
 18 19  2  0  0  0
 18 20  1  0  0  0
 20 21  1  0  0  0
 29 35  1  0  0  0
  8  9  1  0  0  0
M  END
> <minimizedAffinity>
-9.14911

$$$$
1699


 31 34  0  0  0  0  0  0  0  0999 V2000
  -39.1480  -69.2376   51.2828 Cl  0  0  0  0  0  0  0  0  0  0  0  0
  -37.5182  -68.7098   51.0171 C   0  0  0  0  0  0  0  0  0  0  0  0
  -37.2481  -67.6005   50.2290 C   0  0  0  0  0  0  0  0  0  0  0  0
  -35.9561  -67.1684   50.0086 C   0  0  0  0  0  0  0  0  0  0  0  0
  -34.9369  -67.8678   50.5924 C   0  0  0  0  0  0  0  0  0  0  0  0
  -35.1677  -68.9899   51.3942 C   0  0  0  0  0  0  0  0  0  0  0  0
  -36.4694  -69.3935   51.5935 C   0  0  0  0  0  0  0  0  0  0  0  0
  -33.6897  -67.2872   50.2349 N   0  0  0  0  0  0  0  0  0  0  0  0
  -33.9463  -66.1780   49.3875 C   0  0  0  0  0  0  0  0  0  0  0  0
  -32.9956  -65.4923   48.8896 O   0  0  0  0  0  0  0  0  0  0  0  0
  -35.3918  -66.0492   49.2570 C   0  0  0  0  0  0  0  0  0  0  0  0
  -35.8769  -64.7590   49.7544 N   0  0  0  0  0  0  0  0  0  0  0  0
  -35.4852  -63.8797   48.6758 C   0  0  0  0  0  0  0  0  0  0  0  0
  -35.7420  -64.6287   47.4086 C   0  0  0  0  0  0  0  0  0  0  0  0
  -35.9279  -66.0432   47.8686 C   0  0  0  0  0  0  0  0  0  0  0  0
  -35.2061  -66.9274   46.9209 C   0  0  0  0  0  0  0  0  0  0  0  0
  -35.2984  -68.1804   46.9958 O   0  0  0  0  0  0  0  0  0  0  0  0
  -34.4814  -66.0991   46.0263 N   0  0  0  0  0  0  0  0  0  0  0  0
  -34.5195  -64.7678   46.5534 C   0  0  0  0  0  0  0  0  0  0  0  0
  -33.7107  -63.8534   46.3652 O   0  0  0  0  0  0  0  0  0  0  0  0
  -32.7291  -67.6187   50.5466 H   0  0  0  0  0  0  0  0  0  0  0  0
  -36.9190  -64.8326   49.7398 H   0  0  0  0  0  0  0  0  0  0  0  0
  -36.1923  -62.5498   48.7306 C   0  0  0  0  0  0  0  0  0  0  0  0
  -35.4604  -61.6492   47.9669 O   0  0  0  0  0  0  0  0  0  0  0  0
  -37.6104  -62.6261   48.2265 C   0  0  0  0  0  0  0  0  0  0  0  0
  -35.8753  -61.4705   47.0846 H   0  0  0  0  0  0  0  0  0  0  0  0
  -33.8427  -66.5014   44.8309 C   0  0  0  0  0  0  0  0  0  0  0  0
  -32.5007  -67.1166   44.9009 C   0  0  0  0  0  0  0  0  0  0  0  0
  -31.8874  -67.2912   46.2366 C   0  0  0  0  0  0  0  0  0  0  0  0
  -31.8948  -68.5799   46.7480 O   0  0  0  0  0  0  0  0  0  0  0  0
  -31.6954  -69.4659   45.6617 C   0  0  0  0  0  0  0  0  0  0  0  0
  1  2  1  0  0  0
  2  3  2  0  0  0
  2  7  1  0  0  0
  3  4  1  0  0  0
  4  5  2  0  0  0
  4 11  1  0  0  0
  5  6  1  0  0  0
  5  8  1  0  0  0
  6  7  2  0  0  0
  8  9  1  0  0  0
  9 10  2  0  0  0
  9 11  1  0  0  0
 11 12  1  0  0  0
 11 15  1  0  0  0
 12 13  1  0  0  0
 13 14  1  0  0  0
 13 23  1  0  0  0
 14 15  1  0  0  0
 14 19  1  0  0  0
 15 16  1  0  0  0
 16 17  2  0  0  0
 16 18  1  0  0  0
 18 19  1  0  0  0
 18 27  1  0  0  0
 19 20  2  0  0  0
 27 28  1  0  0  0
 28 29  1  0  0  0
 29 30  1  0  0  0
 30 31  1  0  0  0
 23 24  1  0  0  0
 23 25  1  0  0  0
  8 21  1  0  0  0
 12 22  1  0  0  0
 24 26  1  0  0  0
M  END
> <minimizedAffinity>
-6.68005

$$$$
1706


 25 28  0  0  0  0  0  0  0  0999 V2000
  -40.7968  -68.4060   51.2891 F   0  0  0  0  0  0  0  0  0  0  0  0
  -39.4759  -68.2737   50.9298 C   0  0  0  0  0  0  0  0  0  0  0  0
  -39.1508  -67.4052   49.8802 C   0  0  0  0  0  0  0  0  0  0  0  0
  -37.8486  -67.2600   49.5089 C   0  0  0  0  0  0  0  0  0  0  0  0
  -36.8411  -67.9740   50.1723 C   0  0  0  0  0  0  0  0  0  0  0  0
  -37.1868  -68.8149   51.1939 C   0  0  0  0  0  0  0  0  0  0  0  0
  -38.4942  -68.9770   51.5844 C   0  0  0  0  0  0  0  0  0  0  0  0
  -38.9353  -70.0657   52.9066 Cl  0  0  0  0  0  0  0  0  0  0  0  0
  -37.7814  -66.2902   48.3844 C   0  0  0  0  0  0  0  0  0  0  0  0
  -37.1879  -66.9231   47.2491 N   0  0  0  0  0  0  0  0  0  0  0  0
  -35.7882  -66.9424   47.0747 C   0  0  0  0  0  0  0  0  0  0  0  0
  -35.1808  -67.7978   46.2118 N   0  0  0  0  0  0  0  0  0  0  0  0
  -33.8608  -67.8572   46.0097 C   0  0  0  0  0  0  0  0  0  0  0  0
  -33.0284  -66.9955   46.7155 C   0  0  0  0  0  0  0  0  0  0  0  0
  -33.5597  -66.1035   47.6043 C   0  0  0  0  0  0  0  0  0  0  0  0
  -34.9287  -66.0974   47.7624 C   0  0  0  0  0  0  0  0  0  0  0  0
  -35.5964  -65.1794   48.6902 C   0  0  0  0  0  0  0  0  0  0  0  0
  -34.8432  -64.3821   49.3463 O   0  0  0  0  0  0  0  0  0  0  0  0
  -36.9928  -65.1659   48.8577 N   0  0  0  0  0  0  0  0  0  0  0  0
  -39.1765  -65.9003   48.1518 C   0  0  0  0  0  0  0  0  0  0  0  0
  -39.6152  -65.0745   47.2691 O   0  0  0  0  0  0  0  0  0  0  0  0
  -39.9963  -66.5820   49.0657 N   0  0  0  0  0  0  0  0  0  0  0  0
  -37.7756  -67.3892   46.5152 H   0  0  0  0  0  0  0  0  0  0  0  0
  -37.4138  -64.3311   49.3268 H   0  0  0  0  0  0  0  0  0  0  0  0
  -41.0434  -66.5408   49.1821 H   0  0  0  0  0  0  0  0  0  0  0  0
  1  2  1  0  0  0
  2  3  2  0  0  0
  2  7  1  0  0  0
  3  4  1  0  0  0
  3 22  1  0  0  0
  4  5  2  0  0  0
  4  9  1  0  0  0
  5  6  1  0  0  0
  6  7  2  0  0  0
  7  8  1  0  0  0
  9 10  1  0  0  0
  9 19  1  0  0  0
  9 20  1  0  0  0
 10 11  1  0  0  0
 11 12  2  0  0  0
 11 16  1  0  0  0
 12 13  1  0  0  0
 13 14  2  0  0  0
 14 15  1  0  0  0
 15 16  2  0  0  0
 16 17  1  0  0  0
 17 18  2  0  0  0
 17 19  1  0  0  0
 20 21  2  0  0  0
 20 22  1  0  0  0
 10 23  1  0  0  0
 19 24  1  0  0  0
 22 25  1  0  0  0
M  END
> <minimizedAffinity>
-7.76723

$$$$
1711


 30 33  0  0  0  0  0  0  0  0999 V2000
  -35.9220  -65.9597   48.2028 N   0  0  0  0  0  0  0  0  0  0  0  0
  -35.0008  -65.9799   49.2844 C   0  0  0  0  0  0  0  0  0  0  0  0
  -34.7973  -67.3540   49.8709 C   0  0  0  0  0  0  0  0  0  0  0  0
  -35.9846  -68.1652   49.8015 N   0  0  0  0  0  0  0  0  0  0  0  0
  -36.6903  -68.2787   48.5477 C   0  0  0  0  0  0  0  0  0  0  0  0
  -36.1822  -67.2227   47.6158 C   0  0  0  0  0  0  0  0  0  0  0  0
  -36.4909  -68.8626   50.9258 C   0  0  0  0  0  0  0  0  0  0  0  0
  -35.8877  -68.7703   52.0125 O   0  0  0  0  0  0  0  0  0  0  0  0
  -37.2003  -64.8778   48.3180 S   0  0  0  0  0  0  0  0  0  0  0  0
  -38.4508  -65.5432   47.7597 O   0  0  0  0  0  0  0  0  0  0  0  0
  -37.5017  -64.6441   49.7862 O   0  0  0  0  0  0  0  0  0  0  0  0
  -36.9496  -63.3387   47.5863 C   0  0  0  0  0  0  0  0  0  0  0  0
  -35.6611  -62.8664   47.3994 C   0  0  0  0  0  0  0  0  0  0  0  0
  -35.4039  -61.6415   46.8182 C   0  0  0  0  0  0  0  0  0  0  0  0
  -36.4834  -60.8767   46.4153 C   0  0  0  0  0  0  0  0  0  0  0  0
  -37.7616  -61.3596   46.6083 C   0  0  0  0  0  0  0  0  0  0  0  0
  -38.0332  -62.5820   47.1875 C   0  0  0  0  0  0  0  0  0  0  0  0
  -36.1959  -59.1571   45.5966 Br  0  0  0  0  0  0  0  0  0  0  0  0
  -37.7121  -69.6950   50.8467 C   0  0  0  0  0  0  0  0  0  0  0  0
  -38.7549  -69.1679   51.6777 N   0  0  0  0  0  0  0  0  0  0  0  0
  -39.1311  -69.5259   53.0007 C   0  0  0  0  0  0  0  0  0  0  0  0
  -38.5657  -70.4136   53.6761 O   0  0  0  0  0  0  0  0  0  0  0  0
  -40.2534  -68.6930   53.4001 C   0  0  0  0  0  0  0  0  0  0  0  0
  -40.5712  -67.8432   52.3672 C   0  0  0  0  0  0  0  0  0  0  0  0
  -41.6206  -66.9469   52.5200 C   0  0  0  0  0  0  0  0  0  0  0  0
  -42.3494  -66.8867   53.6755 C   0  0  0  0  0  0  0  0  0  0  0  0
  -42.0378  -67.7427   54.7313 C   0  0  0  0  0  0  0  0  0  0  0  0
  -40.9859  -68.6300   54.5583 C   0  0  0  0  0  0  0  0  0  0  0  0
  -39.6463  -68.1213   51.2758 C   0  0  0  0  0  0  0  0  0  0  0  0
  -39.6845  -67.4990   50.1822 O   0  0  0  0  0  0  0  0  0  0  0  0
  9 10  2  0  0  0
  9 11  2  0  0  0
  9  1  1  0  0  0
  9 12  1  0  0  0
  1  2  1  0  0  0
  1  6  1  0  0  0
  2  3  1  0  0  0
  3  4  1  0  0  0
  4  5  1  0  0  0
  4  7  1  0  0  0
  5  6  1  0  0  0
  7  8  2  0  0  0
  7 19  1  0  0  0
 19 20  1  0  0  0
 20 21  1  0  0  0
 20 29  1  0  0  0
 21 22  2  0  0  0
 21 23  1  0  0  0
 23 24  2  0  0  0
 23 28  1  0  0  0
 24 25  1  0  0  0
 24 29  1  0  0  0
 25 26  2  0  0  0
 26 27  1  0  0  0
 27 28  2  0  0  0
 29 30  2  0  0  0
 12 13  2  0  0  0
 12 17  1  0  0  0
 13 14  1  0  0  0
 14 15  2  0  0  0
 15 16  1  0  0  0
 15 18  1  0  0  0
 16 17  2  0  0  0
M  END
> <minimizedAffinity>
-8.20256

$$$$
1718


 34 38  0  0  0  0  0  0  0  0999 V2000
  -37.2033  -69.7819   50.8496 Cl  0  0  0  0  0  0  0  0  0  0  0  0
  -38.3508  -68.4621   50.8373 C   0  0  0  0  0  0  0  0  0  0  0  0
  -38.1532  -67.4554   49.8914 C   0  0  0  0  0  0  0  0  0  0  0  0
  -39.0356  -66.3989   49.8498 C   0  0  0  0  0  0  0  0  0  0  0  0
  -40.0905  -66.3893   50.7643 C   0  0  0  0  0  0  0  0  0  0  0  0
  -40.2772  -67.3879   51.6955 C   0  0  0  0  0  0  0  0  0  0  0  0
  -39.3936  -68.4460   51.7358 C   0  0  0  0  0  0  0  0  0  0  0  0
  -38.6624  -65.4513   48.7998 C   0  0  0  0  0  0  0  0  0  0  0  0
  -39.7246  -65.2275   47.8373 N   0  0  0  0  0  0  0  0  0  0  0  0
  -39.4162  -63.9443   47.2208 C   0  0  0  0  0  0  0  0  0  0  0  0
  -38.7645  -63.1095   48.2886 C   0  0  0  0  0  0  0  0  0  0  0  0
  -38.2946  -64.0867   49.3377 C   0  0  0  0  0  0  0  0  0  0  0  0
  -36.8232  -63.9112   49.4261 C   0  0  0  0  0  0  0  0  0  0  0  0
  -36.1061  -64.6812   50.1238 O   0  0  0  0  0  0  0  0  0  0  0  0
  -36.4299  -62.8008   48.6374 N   0  0  0  0  0  0  0  0  0  0  0  0
  -37.4920  -62.5308   47.7349 C   0  0  0  0  0  0  0  0  0  0  0  0
  -37.4493  -61.9137   46.6333 O   0  0  0  0  0  0  0  0  0  0  0  0
  -37.4590  -66.0332   48.1842 C   0  0  0  0  0  0  0  0  0  0  0  0
  -36.7738  -65.5567   47.2070 O   0  0  0  0  0  0  0  0  0  0  0  0
  -37.1838  -67.2401   48.8740 N   0  0  0  0  0  0  0  0  0  0  0  0
  -40.6665  -65.2182   48.2891 H   0  0  0  0  0  0  0  0  0  0  0  0
  -36.3789  -67.8932   48.6716 H   0  0  0  0  0  0  0  0  0  0  0  0
  -35.2069  -62.0903   48.7351 C   0  0  0  0  0  0  0  0  0  0  0  0
  -33.9983  -62.7404   48.1885 C   0  0  0  0  0  0  0  0  0  0  0  0
  -32.8259  -62.4927   48.8859 O   0  0  0  0  0  0  0  0  0  0  0  0
  -31.9299  -63.3149   48.2018 C   0  0  0  0  0  0  0  0  0  0  0  0
  -32.2261  -63.0649   46.7176 C   0  0  0  0  0  0  0  0  0  0  0  0
  -33.6238  -62.4265   46.7872 C   0  0  0  0  0  0  0  0  0  0  0  0
  -40.6868  -63.3305   46.7109 C   0  0  0  0  0  0  0  0  0  0  0  0
  -41.5189  -62.9847   47.9072 C   0  0  0  0  0  0  0  0  0  0  0  0
  -41.5965  -61.7653   48.2054 O   0  0  0  0  0  0  0  0  0  0  0  0
  -42.1929  -63.9654   48.6785 N   0  0  0  0  0  0  0  0  0  0  0  0
  -43.0434  -64.4045   48.2751 H   0  0  0  0  0  0  0  0  0  0  0  0
  -41.8897  -64.2743   49.6230 H   0  0  0  0  0  0  0  0  0  0  0  0
  1  2  1  0  0  0
  2  3  2  0  0  0
  2  7  1  0  0  0
  3  4  1  0  0  0
  3 20  1  0  0  0
  4  5  2  0  0  0
  4  8  1  0  0  0
  5  6  1  0  0  0
  6  7  2  0  0  0
  8  9  1  0  0  0
  8 12  1  0  0  0
  8 18  1  0  0  0
  9 10  1  0  0  0
 10 11  1  0  0  0
 10 29  1  0  0  0
 11 12  1  0  0  0
 11 16  1  0  0  0
 12 13  1  0  0  0
 13 14  2  0  0  0
 13 15  1  0  0  0
 15 16  1  0  0  0
 15 23  1  0  0  0
 16 17  2  0  0  0
 23 24  1  0  0  0
 24 25  1  0  0  0
 24 28  1  0  0  0
 25 26  1  0  0  0
 26 27  1  0  0  0
 27 28  1  0  0  0
 29 30  1  0  0  0
 30 31  2  0  0  0
 30 32  1  0  0  0
 18 19  2  0  0  0
 18 20  1  0  0  0
  9 21  1  0  0  0
 32 33  1  0  0  0
 32 34  1  0  0  0
 20 22  1  0  0  0
M  END
> <minimizedAffinity>
-8.00753

$$$$
1721


 28 31  0  0  0  0  0  0  0  0999 V2000
  -41.1371  -65.8747   49.5377 C   0  0  0  0  0  0  0  0  0  0  0  0
  -39.8578  -65.1896   49.6359 C   0  0  0  0  0  0  0  0  0  0  0  0
  -39.8186  -64.3237   50.6719 O   0  0  0  0  0  0  0  0  0  0  0  0
  -38.7178  -65.2618   48.8845 N   0  0  0  0  0  0  0  0  0  0  0  0
  -38.4954  -65.9886   47.6814 C   0  0  0  0  0  0  0  0  0  0  0  0
  -37.4414  -67.0784   47.8636 C   0  0  0  0  0  0  0  0  0  0  0  0
  -36.5399  -66.5756   48.8601 N   0  0  0  0  0  0  0  0  0  0  0  0
  -36.2715  -65.1670   48.8698 C   0  0  0  0  0  0  0  0  0  0  0  0
  -37.5321  -64.4856   49.4127 C   0  0  0  0  0  0  0  0  0  0  0  0
  -35.9186  -67.4058   49.8099 C   0  0  0  0  0  0  0  0  0  0  0  0
  -34.6482  -67.1706   50.2502 N   0  0  0  0  0  0  0  0  0  0  0  0
  -34.0077  -67.9106   51.1378 C   0  0  0  0  0  0  0  0  0  0  0  0
  -34.5868  -69.0109   51.7048 C   0  0  0  0  0  0  0  0  0  0  0  0
  -35.8802  -69.3083   51.3011 C   0  0  0  0  0  0  0  0  0  0  0  0
  -36.5326  -68.5166   50.3689 C   0  0  0  0  0  0  0  0  0  0  0  0
  -41.9293  -65.8924   50.7093 N   0  0  0  0  0  0  0  0  0  0  0  0
  -42.6950  -65.2256   50.8396 H   0  0  0  0  0  0  0  0  0  0  0  0
  -39.3500  -70.0101   52.3274 Cl  0  0  0  0  0  0  0  0  0  0  0  0
  -40.5102  -68.7280   52.5552 C   0  0  0  0  0  0  0  0  0  0  0  0
  -41.1774  -68.5853   53.6927 N   0  0  0  0  0  0  0  0  0  0  0  0
  -42.0805  -67.6336   53.9508 C   0  0  0  0  0  0  0  0  0  0  0  0
  -42.8559  -67.3052   54.9967 N   0  0  0  0  0  0  0  0  0  0  0  0
  -43.5877  -66.2230   54.6821 C   0  0  0  0  0  0  0  0  0  0  0  0
  -43.2525  -65.8856   53.4226 N   0  0  0  0  0  0  0  0  0  0  0  0
  -42.3290  -66.7228   52.9275 C   0  0  0  0  0  0  0  0  0  0  0  0
  -41.6427  -66.8613   51.7450 C   0  0  0  0  0  0  0  0  0  0  0  0
  -40.7503  -67.8435   51.5612 N   0  0  0  0  0  0  0  0  0  0  0  0
  -43.6323  -65.0835   52.8524 H   0  0  0  0  0  0  0  0  0  0  0  0
 18 19  1  0  0  0
 19 20  2  0  0  0
 19 27  1  0  0  0
 20 21  1  0  0  0
 21 22  1  0  0  0
 21 25  2  0  0  0
 22 23  2  0  0  0
 23 24  1  0  0  0
 24 25  1  0  0  0
 25 26  1  0  0  0
 26 27  2  0  0  0
 26 16  1  0  0  0
 16  1  1  0  0  0
  1  2  1  0  0  0
  2  3  2  0  0  0
  2  4  1  0  0  0
  4  5  1  0  0  0
  4  9  1  0  0  0
  5  6  1  0  0  0
  6  7  1  0  0  0
  7  8  1  0  0  0
  7 10  1  0  0  0
  8  9  1  0  0  0
 10 11  2  0  0  0
 10 15  1  0  0  0
 11 12  1  0  0  0
 12 13  2  0  0  0
 13 14  1  0  0  0
 14 15  2  0  0  0
 24 28  1  0  0  0
 16 17  1  0  0  0
M  END
> <minimizedAffinity>
-8.03495

$$$$
1726


 30 33  0  0  0  0  0  0  0  0999 V2000
  -38.6901  -64.2421   47.4165 C   0  0  0  0  0  0  0  0  0  0  0  0
  -37.5111  -63.4433   47.1442 N   0  0  0  0  0  0  0  0  0  0  0  0
  -37.2846  -62.6235   48.2871 C   0  0  0  0  0  0  0  0  0  0  0  0
  -35.8921  -62.6570   48.8329 C   0  0  0  0  0  0  0  0  0  0  0  0
  -35.5372  -63.9146   49.5438 C   0  0  0  0  0  0  0  0  0  0  0  0
  -34.5333  -64.7134   48.8985 N   0  0  0  0  0  0  0  0  0  0  0  0
  -34.2399  -64.6588   47.5857 C   0  0  0  0  0  0  0  0  0  0  0  0
  -33.2863  -65.4185   46.9716 C   0  0  0  0  0  0  0  0  0  0  0  0
  -32.5598  -66.3107   47.7337 C   0  0  0  0  0  0  0  0  0  0  0  0
  -32.8528  -66.3726   49.0752 C   0  0  0  0  0  0  0  0  0  0  0  0
  -33.8211  -65.5926   49.6607 C   0  0  0  0  0  0  0  0  0  0  0  0
  -34.0622  -65.6770   50.8930 O   0  0  0  0  0  0  0  0  0  0  0  0
  -35.0715  -63.6634   46.8085 C   0  0  0  0  0  0  0  0  0  0  0  0
  -36.4300  -64.2319   46.6933 C   0  0  0  0  0  0  0  0  0  0  0  0
  -34.9825  -62.3978   47.6259 C   0  0  0  0  0  0  0  0  0  0  0  0
  -37.7951  -62.7990   46.3445 H   0  0  0  0  0  0  0  0  0  0  0  0
  -38.3874  -65.6267   47.8921 C   0  0  0  0  0  0  0  0  0  0  0  0
  -39.0436  -66.5573   47.0884 O   0  0  0  0  0  0  0  0  0  0  0  0
  -39.9948  -66.5606   47.3944 H   0  0  0  0  0  0  0  0  0  0  0  0
  -38.8675  -65.7068   49.3407 C   0  0  0  0  0  0  0  0  0  0  0  0
  -39.3470  -67.0062   49.5321 O   0  0  0  0  0  0  0  0  0  0  0  0
  -41.8309  -66.7869   51.2181 Br  0  0  0  0  0  0  0  0  0  0  0  0
  -40.2695  -67.8248   51.5552 C   0  0  0  0  0  0  0  0  0  0  0  0
  -39.2414  -67.7772   50.6408 C   0  0  0  0  0  0  0  0  0  0  0  0
  -38.1194  -68.5329   50.8990 C   0  0  0  0  0  0  0  0  0  0  0  0
  -38.0310  -69.3207   52.0509 C   0  0  0  0  0  0  0  0  0  0  0  0
  -39.0804  -69.3473   52.9493 C   0  0  0  0  0  0  0  0  0  0  0  0
  -40.1985  -68.6045   52.7076 C   0  0  0  0  0  0  0  0  0  0  0  0
  -39.0108  -70.1821   54.1888 C   0  0  0  0  0  0  0  0  0  0  0  0
  -36.6798  -68.4890   49.6550 Br  0  0  0  0  0  0  0  0  0  0  0  0
 22 23  1  0  0  0
 23 24  2  0  0  0
 23 28  1  0  0  0
 24 25  1  0  0  0
 24 21  1  0  0  0
 25 26  2  0  0  0
 25 30  1  0  0  0
 26 27  1  0  0  0
 27 28  2  0  0  0
 27 29  1  0  0  0
 21 20  1  0  0  0
 20 17  1  0  0  0
 17 18  1  0  0  0
 17  1  1  0  0  0
  1  2  1  0  0  0
  2  3  1  0  0  0
  2 14  1  0  0  0
  3  4  1  0  0  0
  4  5  1  0  0  0
  4 15  1  0  0  0
  5  6  1  0  0  0
  6  7  1  0  0  0
  6 11  1  0  0  0
  7  8  2  0  0  0
  7 13  1  0  0  0
  8  9  1  0  0  0
  9 10  2  0  0  0
 10 11  1  0  0  0
 11 12  2  0  0  0
 13 14  1  0  0  0
 13 15  1  0  0  0
 18 19  1  0  0  0
  2 16  1  0  0  0
M  CHG 1   2   1
M  END
> <minimizedAffinity>
-7.86509

$$$$
1732


 28 31  0  0  0  0  0  0  0  0999 V2000
  -39.7566  -65.6317   48.6810 N   0  0  0  0  0  0  0  0  0  0  0  0
  -39.2709  -66.1191   47.5512 N   0  0  0  0  0  0  0  0  0  0  0  0
  -38.1176  -66.7359   47.7836 N   0  0  0  0  0  0  0  0  0  0  0  0
  -37.8509  -66.6434   49.1034 C   0  0  0  0  0  0  0  0  0  0  0  0
  -38.8838  -65.9572   49.6194 N   0  0  0  0  0  0  0  0  0  0  0  0
  -36.6914  -67.1769   49.8029 C   0  0  0  0  0  0  0  0  0  0  0  0
  -35.5578  -66.4002   49.8625 C   0  0  0  0  0  0  0  0  0  0  0  0
  -34.4548  -66.9089   50.5278 C   0  0  0  0  0  0  0  0  0  0  0  0
  -34.4643  -68.1473   51.1183 C   0  0  0  0  0  0  0  0  0  0  0  0
  -35.6008  -68.9286   51.0592 C   0  0  0  0  0  0  0  0  0  0  0  0
  -36.7020  -68.4183   50.3944 C   0  0  0  0  0  0  0  0  0  0  0  0
  -35.4716  -65.1034   49.2733 N   0  0  0  0  0  0  0  0  0  0  0  0
  -35.9747  -64.0040   49.8202 N   0  0  0  0  0  0  0  0  0  0  0  0
  -35.7258  -62.9851   49.0280 N   0  0  0  0  0  0  0  0  0  0  0  0
  -35.0601  -63.4402   47.9691 N   0  0  0  0  0  0  0  0  0  0  0  0
  -34.9010  -64.7712   48.1242 C   0  0  0  0  0  0  0  0  0  0  0  0
  -41.0106  -64.8823   48.8601 C   0  0  0  0  0  0  0  0  0  0  0  0
  -41.9620  -66.2369   50.7542 N   0  0  0  0  0  0  0  0  0  0  0  0
  -41.5071  -65.0163   50.2550 C   0  0  0  0  0  0  0  0  0  0  0  0
  -41.4978  -63.9861   50.9536 O   0  0  0  0  0  0  0  0  0  0  0  0
  -41.9275  -67.0530   50.0729 H   0  0  0  0  0  0  0  0  0  0  0  0
  -40.0488  -67.9869   52.3389 Br  0  0  0  0  0  0  0  0  0  0  0  0
  -41.7259  -67.3286   52.9204 C   0  0  0  0  0  0  0  0  0  0  0  0
  -42.4622  -66.5355   52.0393 C   0  0  0  0  0  0  0  0  0  0  0  0
  -43.6749  -66.0903   52.5310 C   0  0  0  0  0  0  0  0  0  0  0  0
  -44.1339  -66.4089   53.8114 C   0  0  0  0  0  0  0  0  0  0  0  0
  -43.3639  -67.1942   54.6321 C   0  0  0  0  0  0  0  0  0  0  0  0
  -42.1475  -67.6596   54.1849 C   0  0  0  0  0  0  0  0  0  0  0  0
 22 23  1  0  0  0
 23 24  2  0  0  0
 23 28  1  0  0  0
 24 25  1  0  0  0
 24 18  1  0  0  0
 25 26  2  0  0  0
 26 27  1  0  0  0
 27 28  2  0  0  0
 18 19  1  0  0  0
 19 20  2  0  0  0
 19 17  1  0  0  0
 17  1  1  0  0  0
  1  2  1  0  0  0
  1  5  1  0  0  0
  2  3  2  0  0  0
  3  4  1  0  0  0
  4  5  2  0  0  0
  4  6  1  0  0  0
  6  7  1  0  0  0
  6 11  2  0  0  0
  7  8  2  0  0  0
  7 12  1  0  0  0
  8  9  1  0  0  0
  9 10  2  0  0  0
 10 11  1  0  0  0
 12 13  1  0  0  0
 12 16  1  0  0  0
 13 14  2  0  0  0
 14 15  1  0  0  0
 15 16  2  0  0  0
 18 21  1  0  0  0
M  END
> <minimizedAffinity>
-8.53525

$$$$
1736


 35 39  0  0  0  0  0  0  0  0999 V2000
  -33.3437  -68.0430   46.0623 Cl  0  0  0  0  0  0  0  0  0  0  0  0
  -33.2870  -66.5095   46.9466 C   0  0  0  0  0  0  0  0  0  0  0  0
  -34.3890  -65.6941   47.0152 C   0  0  0  0  0  0  0  0  0  0  0  0
  -34.3366  -64.5101   47.7013 C   0  0  0  0  0  0  0  0  0  0  0  0
  -33.1688  -64.1437   48.3215 C   0  0  0  0  0  0  0  0  0  0  0  0
  -32.0330  -64.9515   48.2697 C   0  0  0  0  0  0  0  0  0  0  0  0
  -32.1179  -66.1355   47.5722 C   0  0  0  0  0  0  0  0  0  0  0  0
  -33.3056  -62.8949   48.9735 N   0  0  0  0  0  0  0  0  0  0  0  0
  -34.6380  -62.4621   48.7425 C   0  0  0  0  0  0  0  0  0  0  0  0
  -35.1390  -61.3950   49.1572 O   0  0  0  0  0  0  0  0  0  0  0  0
  -35.3577  -63.4630   47.9322 C   0  0  0  0  0  0  0  0  0  0  0  0
  -35.8692  -62.9138   46.7004 N   0  0  0  0  0  0  0  0  0  0  0  0
  -37.1303  -63.5329   46.4374 C   0  0  0  0  0  0  0  0  0  0  0  0
  -37.7662  -63.8205   47.7776 C   0  0  0  0  0  0  0  0  0  0  0  0
  -36.5552  -63.9463   48.6663 C   0  0  0  0  0  0  0  0  0  0  0  0
  -36.4865  -65.3681   49.0843 C   0  0  0  0  0  0  0  0  0  0  0  0
  -35.5036  -66.0186   49.5208 O   0  0  0  0  0  0  0  0  0  0  0  0
  -37.8145  -65.8978   48.8929 N   0  0  0  0  0  0  0  0  0  0  0  0
  -38.4396  -65.1432   47.8345 C   0  0  0  0  0  0  0  0  0  0  0  0
  -39.3811  -65.5146   47.0868 O   0  0  0  0  0  0  0  0  0  0  0  0
  -32.5856  -62.3514   49.5338 H   0  0  0  0  0  0  0  0  0  0  0  0
  -35.1952  -63.0523   45.9408 H   0  0  0  0  0  0  0  0  0  0  0  0
  -38.0166  -62.6621   45.5729 C   0  0  0  0  0  0  0  0  0  0  0  0
  -37.2498  -62.2166   44.5000 O   0  0  0  0  0  0  0  0  0  0  0  0
  -38.3521  -61.4273   46.4027 C   0  0  0  0  0  0  0  0  0  0  0  0
  -36.6537  -61.4932   44.7987 H   0  0  0  0  0  0  0  0  0  0  0  0
  -38.4286  -66.9883   49.6202 C   0  0  0  0  0  0  0  0  0  0  0  0
  -39.5004  -66.4648   50.5192 C   0  0  0  0  0  0  0  0  0  0  0  0
  -40.1747  -67.3062   51.3785 C   0  0  0  0  0  0  0  0  0  0  0  0
  -41.1639  -66.7965   52.2022 C   0  0  0  0  0  0  0  0  0  0  0  0
  -41.5038  -65.4579   52.1950 C   0  0  0  0  0  0  0  0  0  0  0  0
  -40.8367  -64.6088   51.3401 C   0  0  0  0  0  0  0  0  0  0  0  0
  -39.8556  -65.1276   50.5269 C   0  0  0  0  0  0  0  0  0  0  0  0
  -39.8291  -68.6614   51.3844 O   0  0  0  0  0  0  0  0  0  0  0  0
  -39.2587  -69.2110   52.5768 C   0  0  0  0  0  0  0  0  0  0  0  0
  1  2  1  0  0  0
  2  3  2  0  0  0
  2  7  1  0  0  0
  3  4  1  0  0  0
  4  5  2  0  0  0
  4 11  1  0  0  0
  5  6  1  0  0  0
  5  8  1  0  0  0
  6  7  2  0  0  0
  8  9  1  0  0  0
  9 10  2  0  0  0
  9 11  1  0  0  0
 11 12  1  0  0  0
 11 15  1  0  0  0
 12 13  1  0  0  0
 13 14  1  0  0  0
 13 23  1  0  0  0
 14 15  1  0  0  0
 14 19  1  0  0  0
 15 16  1  0  0  0
 16 17  2  0  0  0
 16 18  1  0  0  0
 18 19  1  0  0  0
 18 27  1  0  0  0
 19 20  2  0  0  0
 27 28  1  0  0  0
 28 29  2  0  0  0
 28 33  1  0  0  0
 29 30  1  0  0  0
 29 34  1  0  0  0
 30 31  2  0  0  0
 31 32  1  0  0  0
 32 33  2  0  0  0
 34 35  1  0  0  0
 23 24  1  0  0  0
 23 25  1  0  0  0
  8 21  1  0  0  0
 12 22  1  0  0  0
 24 26  1  0  0  0
M  END
> <minimizedAffinity>
-7.43671

$$$$
1741


 28 31  0  0  0  0  0  0  0  0999 V2000
  -40.3233  -64.3259   49.7224 C   0  0  0  0  0  0  0  0  0  0  0  0
  -40.2924  -63.5321   50.6833 O   0  0  0  0  0  0  0  0  0  0  0  0
  -39.3769  -64.2291   48.6921 N   0  0  0  0  0  0  0  0  0  0  0  0
  -38.3237  -63.2380   48.6702 C   0  0  0  0  0  0  0  0  0  0  0  0
  -37.0180  -63.9858   48.4567 C   0  0  0  0  0  0  0  0  0  0  0  0
  -37.1999  -65.3762   48.5118 N   0  0  0  0  0  0  0  0  0  0  0  0
  -38.1226  -66.0012   47.6562 C   0  0  0  0  0  0  0  0  0  0  0  0
  -39.3773  -65.1428   47.5397 C   0  0  0  0  0  0  0  0  0  0  0  0
  -41.3920  -65.3819   49.6945 C   0  0  0  0  0  0  0  0  0  0  0  0
  -38.8576  -70.3365   54.1502 Br  0  0  0  0  0  0  0  0  0  0  0  0
  -39.6777  -68.9623   53.0931 C   0  0  0  0  0  0  0  0  0  0  0  0
  -40.7771  -68.2629   53.5958 C   0  0  0  0  0  0  0  0  0  0  0  0
  -41.3544  -67.2700   52.8108 C   0  0  0  0  0  0  0  0  0  0  0  0
  -40.8749  -66.9601   51.5597 C   0  0  0  0  0  0  0  0  0  0  0  0
  -41.6134  -65.9565   51.0045 N   0  0  0  0  0  0  0  0  0  0  0  0
  -42.5459  -65.6512   51.9149 C   0  0  0  0  0  0  0  0  0  0  0  0
  -42.4254  -66.4350   53.0446 C   0  0  0  0  0  0  0  0  0  0  0  0
  -39.7920  -67.6445   51.0585 C   0  0  0  0  0  0  0  0  0  0  0  0
  -39.2098  -68.6388   51.8377 C   0  0  0  0  0  0  0  0  0  0  0  0
  -36.5894  -66.1175   49.5358 C   0  0  0  0  0  0  0  0  0  0  0  0
  -35.3196  -66.7823   49.1406 C   0  0  0  0  0  0  0  0  0  0  0  0
  -35.4169  -67.9431   48.6689 O   0  0  0  0  0  0  0  0  0  0  0  0
  -34.0542  -66.1896   49.2677 N   0  0  0  0  0  0  0  0  0  0  0  0
  -32.8632  -66.9117   48.8666 C   0  0  0  0  0  0  0  0  0  0  0  0
  -32.1128  -66.0273   47.8930 C   0  0  0  0  0  0  0  0  0  0  0  0
  -31.6986  -64.9153   48.6409 O   0  0  0  0  0  0  0  0  0  0  0  0
  -32.7648  -64.1441   49.0379 C   0  0  0  0  0  0  0  0  0  0  0  0
  -33.8334  -64.8565   49.7915 C   0  0  0  0  0  0  0  0  0  0  0  0
 10 11  1  0  0  0
 11 12  2  0  0  0
 11 19  1  0  0  0
 12 13  1  0  0  0
 13 14  2  0  0  0
 13 17  1  0  0  0
 14 15  1  0  0  0
 14 18  1  0  0  0
 15 16  1  0  0  0
 15  9  1  0  0  0
 16 17  2  0  0  0
  9  1  1  0  0  0
  1  2  2  0  0  0
  1  3  1  0  0  0
  3  4  1  0  0  0
  3  8  1  0  0  0
  4  5  1  0  0  0
  5  6  1  0  0  0
  6  7  1  0  0  0
  6 20  1  0  0  0
  7  8  1  0  0  0
 20 21  1  0  0  0
 21 22  2  0  0  0
 21 23  1  0  0  0
 23 24  1  0  0  0
 23 28  1  0  0  0
 24 25  1  0  0  0
 25 26  1  0  0  0
 26 27  1  0  0  0
 27 28  1  0  0  0
 18 19  2  0  0  0
M  END
> <minimizedAffinity>
-8.19019

$$$$
1744


 34 37  0  0  0  0  0  0  0  0999 V2000
  -37.7794  -64.4875   48.2770 N   0  0  0  0  0  0  0  0  0  0  0  0
  -37.5262  -63.1200   48.5955 C   0  0  0  0  0  0  0  0  0  0  0  0
  -36.3795  -62.6572   48.8114 O   0  0  0  0  0  0  0  0  0  0  0  0
  -38.6367  -62.2287   48.6712 N   0  0  0  0  0  0  0  0  0  0  0  0
  -39.9602  -62.7298   48.4281 C   0  0  0  0  0  0  0  0  0  0  0  0
  -40.8686  -61.8461   48.2763 O   0  0  0  0  0  0  0  0  0  0  0  0
  -40.2642  -64.1707   48.3567 C   0  0  0  0  0  0  0  0  0  0  0  0
  -39.0807  -65.0024   48.0277 C   0  0  0  0  0  0  0  0  0  0  0  0
  -39.2717  -66.1426   47.5382 O   0  0  0  0  0  0  0  0  0  0  0  0
  -38.5221  -61.2081   48.9018 H   0  0  0  0  0  0  0  0  0  0  0  0
  -34.7661  -67.8981   50.7123 Cl  0  0  0  0  0  0  0  0  0  0  0  0
  -35.2111  -66.9772   49.3006 C   0  0  0  0  0  0  0  0  0  0  0  0
  -36.2777  -66.1132   49.3224 C   0  0  0  0  0  0  0  0  0  0  0  0
  -36.6583  -65.3622   48.2236 C   0  0  0  0  0  0  0  0  0  0  0  0
  -35.9358  -65.4927   47.0768 C   0  0  0  0  0  0  0  0  0  0  0  0
  -34.8461  -66.3549   47.0016 C   0  0  0  0  0  0  0  0  0  0  0  0
  -34.4996  -67.0867   48.1193 C   0  0  0  0  0  0  0  0  0  0  0  0
  -40.8845  -64.6465   49.6492 C   0  0  0  0  0  0  0  0  0  0  0  0
  -40.4146  -64.3531   50.8478 C   0  0  0  0  0  0  0  0  0  0  0  0
  -41.3260  -65.0277   51.7986 C   0  0  0  0  0  0  0  0  0  0  0  0
  -42.5700  -65.0581   51.0505 N   0  0  0  0  0  0  0  0  0  0  0  0
  -42.0607  -65.4433   49.7858 N   0  0  0  0  0  0  0  0  0  0  0  0
  -43.2880  -65.6865   51.4200 H   0  0  0  0  0  0  0  0  0  0  0  0
  -42.3881  -66.1105   49.0873 H   0  0  0  0  0  0  0  0  0  0  0  0
  -40.8540  -66.4098   52.0921 C   0  0  0  0  0  0  0  0  0  0  0  0
  -39.8115  -67.0318   51.4665 C   0  0  0  0  0  0  0  0  0  0  0  0
  -39.3883  -68.3023   51.8035 C   0  0  0  0  0  0  0  0  0  0  0  0
  -40.0231  -69.0051   52.8113 C   0  0  0  0  0  0  0  0  0  0  0  0
  -41.0943  -68.3601   53.4506 C   0  0  0  0  0  0  0  0  0  0  0  0
  -41.5031  -67.0947   53.1011 C   0  0  0  0  0  0  0  0  0  0  0  0
  -38.3098  -68.8989   51.1267 O   0  0  0  0  0  0  0  0  0  0  0  0
  -37.8561  -68.3673   50.3910 H   0  0  0  0  0  0  0  0  0  0  0  0
  -39.6267  -70.2687   53.1772 O   0  0  0  0  0  0  0  0  0  0  0  0
  -38.8526  -70.5018   54.3354 C   0  0  0  0  0  0  0  0  0  0  0  0
 11 12  1  0  0  0
 12 13  2  0  0  0
 12 17  1  0  0  0
 13 14  1  0  0  0
 14 15  2  0  0  0
 14  1  1  0  0  0
 15 16  1  0  0  0
 16 17  2  0  0  0
  1  2  1  0  0  0
  1  8  1  0  0  0
  2  3  2  0  0  0
  2  4  1  0  0  0
  4  5  1  0  0  0
  5  6  2  0  0  0
  5  7  1  0  0  0
  7  8  1  0  0  0
  7 18  1  0  0  0
  8  9  2  0  0  0
 18 19  2  0  0  0
 18 22  1  0  0  0
 19 20  1  0  0  0
 20 21  1  0  0  0
 20 25  1  0  0  0
 21 22  1  0  0  0
 25 26  2  0  0  0
 25 30  1  0  0  0
 26 27  1  0  0  0
 27 28  2  0  0  0
 27 31  1  0  0  0
 28 29  1  0  0  0
 28 33  1  0  0  0
 29 30  2  0  0  0
 33 34  1  0  0  0
  4 10  1  0  0  0
 21 23  1  0  0  0
 22 24  1  0  0  0
 31 32  1  0  0  0
M  END
> <minimizedAffinity>
-8.72223

$$$$
1745


 34 37  0  0  0  0  0  0  0  0999 V2000
  -36.6348  -65.5551   48.6736 N   0  0  0  0  0  0  0  0  0  0  0  0
  -36.8931  -64.1744   48.8711 C   0  0  0  0  0  0  0  0  0  0  0  0
  -36.1436  -63.4682   49.5590 O   0  0  0  0  0  0  0  0  0  0  0  0
  -38.0457  -63.5678   48.2691 N   0  0  0  0  0  0  0  0  0  0  0  0
  -38.9423  -64.3327   47.4657 C   0  0  0  0  0  0  0  0  0  0  0  0
  -39.6740  -63.8119   46.6062 O   0  0  0  0  0  0  0  0  0  0  0  0
  -38.9941  -65.8229   47.6783 C   0  0  0  0  0  0  0  0  0  0  0  0
  -37.5928  -66.2596   47.8542 C   0  0  0  0  0  0  0  0  0  0  0  0
  -37.1524  -67.3145   47.2705 O   0  0  0  0  0  0  0  0  0  0  0  0
  -38.2149  -62.5660   48.4257 H   0  0  0  0  0  0  0  0  0  0  0  0
  -35.0954  -69.1290   51.9614 Cl  0  0  0  0  0  0  0  0  0  0  0  0
  -34.7129  -67.9395   50.7464 C   0  0  0  0  0  0  0  0  0  0  0  0
  -35.7385  -67.2224   50.1710 C   0  0  0  0  0  0  0  0  0  0  0  0
  -35.5083  -66.2486   49.1919 C   0  0  0  0  0  0  0  0  0  0  0  0
  -34.2008  -66.0474   48.8359 C   0  0  0  0  0  0  0  0  0  0  0  0
  -33.1686  -66.7610   49.4059 C   0  0  0  0  0  0  0  0  0  0  0  0
  -33.4088  -67.7301   50.3838 C   0  0  0  0  0  0  0  0  0  0  0  0
  -39.8550  -66.1196   48.8622 C   0  0  0  0  0  0  0  0  0  0  0  0
  -40.7920  -67.0352   48.9987 C   0  0  0  0  0  0  0  0  0  0  0  0
  -41.3622  -66.9312   50.3700 C   0  0  0  0  0  0  0  0  0  0  0  0
  -41.0425  -65.5169   50.6916 N   0  0  0  0  0  0  0  0  0  0  0  0
  -39.7866  -65.3770   50.0869 N   0  0  0  0  0  0  0  0  0  0  0  0
  -41.7607  -64.8911   50.2761 H   0  0  0  0  0  0  0  0  0  0  0  0
  -38.9796  -64.8626   50.4230 H   0  0  0  0  0  0  0  0  0  0  0  0
  -40.5369  -67.7473   51.3014 C   0  0  0  0  0  0  0  0  0  0  0  0
  -40.8408  -67.8278   52.6772 C   0  0  0  0  0  0  0  0  0  0  0  0
  -40.1368  -68.5871   53.5597 C   0  0  0  0  0  0  0  0  0  0  0  0
  -39.0617  -69.3306   53.1104 C   0  0  0  0  0  0  0  0  0  0  0  0
  -38.7362  -69.2754   51.7747 C   0  0  0  0  0  0  0  0  0  0  0  0
  -39.4579  -68.5019   50.8927 C   0  0  0  0  0  0  0  0  0  0  0  0
  -38.3317  -70.1139   53.9985 O   0  0  0  0  0  0  0  0  0  0  0  0
  -38.6018  -70.1311   54.9732 H   0  0  0  0  0  0  0  0  0  0  0  0
  -40.4794  -68.6278   54.9188 O   0  0  0  0  0  0  0  0  0  0  0  0
  -41.7800  -69.0258   55.2943 C   0  0  0  0  0  0  0  0  0  0  0  0
 11 12  1  0  0  0
 12 13  2  0  0  0
 12 17  1  0  0  0
 13 14  1  0  0  0
 14 15  2  0  0  0
 14  1  1  0  0  0
 15 16  1  0  0  0
 16 17  2  0  0  0
  1  2  1  0  0  0
  1  8  1  0  0  0
  2  3  2  0  0  0
  2  4  1  0  0  0
  4  5  1  0  0  0
  5  6  2  0  0  0
  5  7  1  0  0  0
  7  8  1  0  0  0
  7 18  1  0  0  0
  8  9  2  0  0  0
 18 19  2  0  0  0
 18 22  1  0  0  0
 19 20  1  0  0  0
 20 21  1  0  0  0
 20 25  1  0  0  0
 21 22  1  0  0  0
 25 26  2  0  0  0
 25 30  1  0  0  0
 26 27  1  0  0  0
 27 28  2  0  0  0
 27 33  1  0  0  0
 28 29  1  0  0  0
 28 31  1  0  0  0
 29 30  2  0  0  0
 33 34  1  0  0  0
  4 10  1  0  0  0
 21 23  1  0  0  0
 22 24  1  0  0  0
 31 32  1  0  0  0
M  END
> <minimizedAffinity>
-8.57997

$$$$
1750


 27 30  0  0  0  0  0  0  0  0999 V2000
  -35.3809  -64.8954   48.6866 N   0  0  0  0  0  0  0  0  0  0  0  0
  -36.2261  -64.0280   49.4487 C   0  0  0  0  0  0  0  0  0  0  0  0
  -37.5534  -64.6708   49.8029 C   0  0  0  0  0  0  0  0  0  0  0  0
  -38.1158  -65.2645   48.6194 N   0  0  0  0  0  0  0  0  0  0  0  0
  -37.4368  -65.0462   47.3577 C   0  0  0  0  0  0  0  0  0  0  0  0
  -35.9973  -65.4743   47.5418 C   0  0  0  0  0  0  0  0  0  0  0  0
  -39.3030  -66.0516   48.6381 C   0  0  0  0  0  0  0  0  0  0  0  0
  -39.7721  -66.5591   47.5932 O   0  0  0  0  0  0  0  0  0  0  0  0
  -40.0174  -66.2923   49.8940 C   0  0  0  0  0  0  0  0  0  0  0  0
  -39.7616  -67.2840   50.7908 N   0  0  0  0  0  0  0  0  0  0  0  0
  -40.6242  -67.1802   51.8137 C   0  0  0  0  0  0  0  0  0  0  0  0
  -41.4120  -66.1357   51.5601 N   0  0  0  0  0  0  0  0  0  0  0  0
  -41.0627  -65.5761   50.3938 C   0  0  0  0  0  0  0  0  0  0  0  0
  -42.3740  -65.8184   52.4480 C   0  0  0  0  0  0  0  0  0  0  0  0
  -42.6007  -66.5047   53.6089 C   0  0  0  0  0  0  0  0  0  0  0  0
  -41.7891  -67.5978   53.8907 C   0  0  0  0  0  0  0  0  0  0  0  0
  -40.8096  -67.9127   52.9759 C   0  0  0  0  0  0  0  0  0  0  0  0
  -43.8686  -66.0615   54.7470 Cl  0  0  0  0  0  0  0  0  0  0  0  0
  -34.4081  -65.9439   49.5866 S   0  0  0  0  0  0  0  0  0  0  0  0
  -33.3970  -66.5923   48.6980 O   0  0  0  0  0  0  0  0  0  0  0  0
  -33.6795  -65.1450   50.6305 O   0  0  0  0  0  0  0  0  0  0  0  0
  -35.2828  -67.1765   50.4034 N   0  0  0  0  0  0  0  0  0  0  0  0
  -34.4317  -67.9838   51.2576 C   0  0  0  0  0  0  0  0  0  0  0  0
  -35.1216  -69.3138   51.4463 C   0  0  0  0  0  0  0  0  0  0  0  0
  -36.5056  -69.1779   51.4650 O   0  0  0  0  0  0  0  0  0  0  0  0
  -37.0245  -68.7968   50.2295 C   0  0  0  0  0  0  0  0  0  0  0  0
  -35.9163  -68.0923   49.4728 C   0  0  0  0  0  0  0  0  0  0  0  0
 19 20  2  0  0  0
 19 21  2  0  0  0
 19  1  1  0  0  0
 19 22  1  0  0  0
  1  2  1  0  0  0
  1  6  1  0  0  0
  2  3  1  0  0  0
  3  4  1  0  0  0
  4  5  1  0  0  0
  4  7  1  0  0  0
  5  6  1  0  0  0
  7  8  2  0  0  0
  7  9  1  0  0  0
  9 10  1  0  0  0
  9 13  2  0  0  0
 10 11  2  0  0  0
 11 12  1  0  0  0
 11 17  1  0  0  0
 12 13  1  0  0  0
 12 14  1  0  0  0
 14 15  2  0  0  0
 15 16  1  0  0  0
 15 18  1  0  0  0
 16 17  2  0  0  0
 22 23  1  0  0  0
 22 27  1  0  0  0
 23 24  1  0  0  0
 24 25  1  0  0  0
 25 26  1  0  0  0
 26 27  1  0  0  0
M  END
> <minimizedAffinity>
-7.66003

$$$$
1758


 28 32  0  0  0  0  0  0  0  0999 V2000
  -37.5267  -68.2461   50.3663 N   0  0  0  0  0  0  0  0  0  0  0  0
  -37.4267  -69.2779   51.1843 N   0  0  0  0  0  0  0  0  0  0  0  0
  -38.5002  -69.3801   51.9939 C   0  0  0  0  0  0  0  0  0  0  0  0
  -38.7540  -70.2676   52.9259 C   0  0  0  0  0  0  0  0  0  0  0  0
  -39.3395  -68.3349   51.6621 C   0  0  0  0  0  0  0  0  0  0  0  0
  -40.5263  -68.0624   52.2254 C   0  0  0  0  0  0  0  0  0  0  0  0
  -38.7001  -67.6552   50.6483 C   0  0  0  0  0  0  0  0  0  0  0  0
  -39.1423  -66.6316   50.0678 O   0  0  0  0  0  0  0  0  0  0  0  0
  -36.6223  -69.9478   51.2181 H   0  0  0  0  0  0  0  0  0  0  0  0
  -33.1175  -66.3276   46.2520 I   0  0  0  0  0  0  0  0  0  0  0  0
  -34.6042  -66.9798   47.5927 C   0  0  0  0  0  0  0  0  0  0  0  0
  -35.7337  -67.6417   47.1563 C   0  0  0  0  0  0  0  0  0  0  0  0
  -36.7212  -68.0751   48.0423 C   0  0  0  0  0  0  0  0  0  0  0  0
  -36.5665  -67.8396   49.3712 C   0  0  0  0  0  0  0  0  0  0  0  0
  -35.4303  -67.1752   49.7967 C   0  0  0  0  0  0  0  0  0  0  0  0
  -34.4442  -66.7394   48.9383 C   0  0  0  0  0  0  0  0  0  0  0  0
  -41.2203  -66.9290   51.7204 N   0  0  0  0  0  0  0  0  0  0  0  0
  -40.9586  -66.4261   50.8496 H   0  0  0  0  0  0  0  0  0  0  0  0
  -42.3703  -66.4306   52.4573 C   0  0  0  0  0  0  0  0  0  0  0  0
  -43.5706  -66.3163   51.5299 C   0  0  0  0  0  0  0  0  0  0  0  0
  -44.7109  -65.8806   52.2876 N   0  0  0  0  0  0  0  0  0  0  0  0
  -44.3879  -64.5722   52.8469 C   0  0  0  0  0  0  0  0  0  0  0  0
  -43.2851  -64.6476   53.7635 N   0  0  0  0  0  0  0  0  0  0  0  0
  -43.5560  -65.6101   54.8080 C   0  0  0  0  0  0  0  0  0  0  0  0
  -43.8559  -66.9137   54.2790 N   0  0  0  0  0  0  0  0  0  0  0  0
  -44.9652  -66.8454   53.3331 C   0  0  0  0  0  0  0  0  0  0  0  0
  -42.7036  -67.4092   53.5620 C   0  0  0  0  0  0  0  0  0  0  0  0
  -42.1145  -65.0723   53.0380 C   0  0  0  0  0  0  0  0  0  0  0  0
 10 11  1  0  0  0
 11 12  2  0  0  0
 11 16  1  0  0  0
 12 13  1  0  0  0
 13 14  2  0  0  0
 14 15  1  0  0  0
 14  1  1  0  0  0
 15 16  2  0  0  0
  1  2  1  0  0  0
  1  7  1  0  0  0
  2  3  1  0  0  0
  3  4  2  0  0  0
  3  5  1  0  0  0
  5  6  2  0  0  0
  5  7  1  0  0  0
  6 17  1  0  0  0
 17 19  1  0  0  0
 19 20  1  0  0  0
 19 27  1  0  0  0
 19 28  1  0  0  0
 20 21  1  0  0  0
 21 22  1  0  0  0
 21 26  1  0  0  0
 22 23  1  0  0  0
 23 24  1  0  0  0
 23 28  1  0  0  0
 24 25  1  0  0  0
 25 26  1  0  0  0
 25 27  1  0  0  0
  7  8  2  0  0  0
  2  9  1  0  0  0
 17 18  1  0  0  0
M  END
> <minimizedAffinity>
-7.50953

$$$$
1764


 34 37  0  0  0  0  0  0  0  0999 V2000
  -38.5849  -63.8358   48.1881 N   0  0  0  0  0  0  0  0  0  0  0  0
  -39.4564  -63.2636   49.0946 C   0  0  0  0  0  0  0  0  0  0  0  0
  -40.2590  -62.2275   48.2952 C   0  0  0  0  0  0  0  0  0  0  0  0
  -40.4147  -62.9271   46.9629 C   0  0  0  0  0  0  0  0  0  0  0  0
  -39.1918  -63.8067   46.8605 C   0  0  0  0  0  0  0  0  0  0  0  0
  -40.4167  -64.3353   49.5820 C   0  0  0  0  0  0  0  0  0  0  0  0
  -41.4544  -63.9235   50.1173 O   0  0  0  0  0  0  0  0  0  0  0  0
  -40.0903  -65.6910   49.4051 N   0  0  0  0  0  0  0  0  0  0  0  0
  -39.2023  -66.0031   48.9627 H   0  0  0  0  0  0  0  0  0  0  0  0
  -40.9960  -66.7207   49.8527 C   0  0  0  0  0  0  0  0  0  0  0  0
  -40.3971  -67.7869   50.6874 C   0  0  0  0  0  0  0  0  0  0  0  0
  -40.9354  -67.9503   51.9911 N   0  0  0  0  0  0  0  0  0  0  0  0
  -41.0568  -66.7584   52.7657 C   0  0  0  0  0  0  0  0  0  0  0  0
  -42.3591  -66.8370   53.5369 C   0  0  0  0  0  0  0  0  0  0  0  0
  -42.4065  -68.1550   54.2821 C   0  0  0  0  0  0  0  0  0  0  0  0
  -41.0836  -68.3575   54.9709 C   0  0  0  0  0  0  0  0  0  0  0  0
  -39.9992  -68.8584   54.0918 C   0  0  0  0  0  0  0  0  0  0  0  0
  -40.3549  -69.0632   52.6674 C   0  0  0  0  0  0  0  0  0  0  0  0
  -36.9350  -63.6511   48.1825 S   0  0  0  0  0  0  0  0  0  0  0  0
  -36.4932  -62.2822   48.6966 O   0  0  0  0  0  0  0  0  0  0  0  0
  -36.4543  -63.6585   46.7299 O   0  0  0  0  0  0  0  0  0  0  0  0
  -36.0443  -64.8870   49.0204 C   0  0  0  0  0  0  0  0  0  0  0  0
  -36.7304  -66.0290   49.4667 C   0  0  0  0  0  0  0  0  0  0  0  0
  -36.1477  -67.0326   50.1865 C   0  0  0  0  0  0  0  0  0  0  0  0
  -34.8034  -66.8983   50.4827 C   0  0  0  0  0  0  0  0  0  0  0  0
  -34.0770  -65.8180   50.0806 C   0  0  0  0  0  0  0  0  0  0  0  0
  -34.7199  -64.8257   49.3498 C   0  0  0  0  0  0  0  0  0  0  0  0
  -33.6977  -63.5245   48.7814 Cl  0  0  0  0  0  0  0  0  0  0  0  0
  -34.1766  -67.9491   51.2342 N   0  0  0  0  0  0  0  0  0  0  0  0
  -34.9472  -69.0770   51.6422 C   0  0  0  0  0  0  0  0  0  0  0  0
  -34.5945  -69.7499   52.6269 O   0  0  0  0  0  0  0  0  0  0  0  0
  -36.1600  -69.3954   50.8481 C   0  0  0  0  0  0  0  0  0  0  0  0
  -36.8297  -68.1576   50.6239 O   0  0  0  0  0  0  0  0  0  0  0  0
  -33.1566  -67.8608   51.4666 H   0  0  0  0  0  0  0  0  0  0  0  0
 19 20  2  0  0  0
 19 21  2  0  0  0
 19  1  1  0  0  0
 19 22  1  0  0  0
  1  2  1  0  0  0
  1  5  1  0  0  0
  2  3  1  0  0  0
  2  6  1  0  0  0
  3  4  1  0  0  0
  4  5  1  0  0  0
  6  7  2  0  0  0
  6  8  1  0  0  0
  8 10  1  0  0  0
 10 11  1  0  0  0
 11 12  1  0  0  0
 12 13  1  0  0  0
 12 18  1  0  0  0
 13 14  1  0  0  0
 14 15  1  0  0  0
 15 16  1  0  0  0
 16 17  1  0  0  0
 17 18  1  0  0  0
 22 23  2  0  0  0
 22 27  1  0  0  0
 23 24  1  0  0  0
 24 25  2  0  0  0
 24 33  1  0  0  0
 25 26  1  0  0  0
 25 29  1  0  0  0
 26 27  2  0  0  0
 27 28  1  0  0  0
 29 30  1  0  0  0
 30 31  2  0  0  0
 30 32  1  0  0  0
 32 33  1  0  0  0
  8  9  1  0  0  0
 29 34  1  0  0  0
M  END
> <minimizedAffinity>
-8.05688

$$$$
1781


 24 27  0  0  0  0  0  0  0  0999 V2000
  -40.9708  -64.5838   51.2361 C   0  0  0  0  0  0  0  0  0  0  0  0
  -40.3562  -63.7552   52.0429 O   0  0  0  0  0  0  0  0  0  0  0  0
  -40.3892  -64.7145   49.9842 N   0  0  0  0  0  0  0  0  0  0  0  0
  -40.7844  -65.4578   48.8345 C   0  0  0  0  0  0  0  0  0  0  0  0
  -39.8981  -66.7197   48.8522 C   0  0  0  0  0  0  0  0  0  0  0  0
  -38.5432  -66.2892   49.2439 N   0  0  0  0  0  0  0  0  0  0  0  0
  -38.1707  -64.9289   48.9808 C   0  0  0  0  0  0  0  0  0  0  0  0
  -39.0807  -64.0091   49.7731 C   0  0  0  0  0  0  0  0  0  0  0  0
  -37.6611  -67.2258   49.8571 C   0  0  0  0  0  0  0  0  0  0  0  0
  -36.3326  -66.9894   49.9322 N   0  0  0  0  0  0  0  0  0  0  0  0
  -35.4852  -67.8350   50.4907 N   0  0  0  0  0  0  0  0  0  0  0  0
  -35.8797  -68.9975   51.0290 C   0  0  0  0  0  0  0  0  0  0  0  0
  -34.8137  -69.6686   51.5305 N   0  0  0  0  0  0  0  0  0  0  0  0
  -33.7489  -68.9213   51.3050 N   0  0  0  0  0  0  0  0  0  0  0  0
  -34.1347  -67.7993   50.6715 C   0  0  0  0  0  0  0  0  0  0  0  0
  -37.2274  -69.3121   50.9916 C   0  0  0  0  0  0  0  0  0  0  0  0
  -38.0882  -68.4149   50.4041 C   0  0  0  0  0  0  0  0  0  0  0  0
  -45.6959  -67.4339   53.7214 Cl  0  0  0  0  0  0  0  0  0  0  0  0
  -44.3319  -66.5765   52.9902 C   0  0  0  0  0  0  0  0  0  0  0  0
  -43.0377  -66.9257   53.2865 C   0  0  0  0  0  0  0  0  0  0  0  0
  -41.9796  -66.2560   52.7167 C   0  0  0  0  0  0  0  0  0  0  0  0
  -42.1326  -65.1961   51.8152 C   0  0  0  0  0  0  0  0  0  0  0  0
  -43.4398  -64.8681   51.5362 C   0  0  0  0  0  0  0  0  0  0  0  0
  -44.5310  -65.5438   52.1118 C   0  0  0  0  0  0  0  0  0  0  0  0
 18 19  1  0  0  0
 19 20  2  0  0  0
 19 24  1  0  0  0
 20 21  1  0  0  0
 21 22  2  0  0  0
 22 23  1  0  0  0
 22  1  1  0  0  0
 23 24  2  0  0  0
  1  2  2  0  0  0
  1  3  1  0  0  0
  3  4  1  0  0  0
  3  8  1  0  0  0
  4  5  1  0  0  0
  5  6  1  0  0  0
  6  7  1  0  0  0
  6  9  1  0  0  0
  7  8  1  0  0  0
  9 10  2  0  0  0
  9 17  1  0  0  0
 10 11  1  0  0  0
 11 12  1  0  0  0
 11 15  1  0  0  0
 12 13  2  0  0  0
 12 16  1  0  0  0
 13 14  1  0  0  0
 14 15  2  0  0  0
 16 17  2  0  0  0
M  END
> <minimizedAffinity>
-8.09028

$$$$
1788


 30 33  0  0  0  0  0  0  0  0999 V2000
  -41.4217  -64.8851   50.9634 N   0  0  0  0  0  0  0  0  0  0  0  0
  -40.7876  -65.8986   51.4367 N   0  0  0  0  0  0  0  0  0  0  0  0
  -41.3868  -66.3803   52.5897 C   0  0  0  0  0  0  0  0  0  0  0  0
  -42.4316  -65.6042   52.8079 N   0  0  0  0  0  0  0  0  0  0  0  0
  -42.4490  -64.6778   51.7902 C   0  0  0  0  0  0  0  0  0  0  0  0
  -43.3189  -63.7861   51.6923 O   0  0  0  0  0  0  0  0  0  0  0  0
  -39.8662  -61.8010   46.0452 Cl  0  0  0  0  0  0  0  0  0  0  0  0
  -40.3122  -62.7016   47.4819 C   0  0  0  0  0  0  0  0  0  0  0  0
  -39.4178  -62.9758   48.4995 C   0  0  0  0  0  0  0  0  0  0  0  0
  -39.7800  -63.6862   49.6311 C   0  0  0  0  0  0  0  0  0  0  0  0
  -41.0682  -64.1568   49.7919 C   0  0  0  0  0  0  0  0  0  0  0  0
  -41.9700  -63.8896   48.7834 C   0  0  0  0  0  0  0  0  0  0  0  0
  -41.6049  -63.1746   47.6457 C   0  0  0  0  0  0  0  0  0  0  0  0
  -40.8035  -67.5166   53.2998 C   0  0  0  0  0  0  0  0  0  0  0  0
  -40.1002  -68.4692   52.5514 C   0  0  0  0  0  0  0  0  0  0  0  0
  -39.5585  -69.6080   53.0803 C   0  0  0  0  0  0  0  0  0  0  0  0
  -39.6844  -69.8851   54.4351 C   0  0  0  0  0  0  0  0  0  0  0  0
  -40.3705  -68.9636   55.1752 C   0  0  0  0  0  0  0  0  0  0  0  0
  -40.9227  -67.8015   54.6288 C   0  0  0  0  0  0  0  0  0  0  0  0
  -43.3394  -65.5913   53.9115 C   0  0  0  0  0  0  0  0  0  0  0  0
  -44.5425  -66.4300   53.7516 C   0  0  0  0  0  0  0  0  0  0  0  0
  -44.3230  -67.6895   53.9926 O   0  0  0  0  0  0  0  0  0  0  0  0
  -45.8342  -66.1107   53.3971 N   0  0  0  0  0  0  0  0  0  0  0  0
  -46.3057  -64.7986   53.0432 C   0  0  0  0  0  0  0  0  0  0  0  0
  -47.7928  -64.8011   52.6469 C   0  0  0  0  0  0  0  0  0  0  0  0
  -48.5705  -65.4326   53.7173 N   0  0  0  0  0  0  0  0  0  0  0  0
  -47.9925  -66.6703   54.1865 C   0  0  0  0  0  0  0  0  0  0  0  0
  -48.4514  -67.2357   55.2051 O   0  0  0  0  0  0  0  0  0  0  0  0
  -46.8559  -67.1719   53.3772 C   0  0  0  0  0  0  0  0  0  0  0  0
  -49.4359  -65.0406   54.0978 H   0  0  0  0  0  0  0  0  0  0  0  0
  7  8  1  0  0  0
  8  9  2  0  0  0
  8 13  1  0  0  0
  9 10  1  0  0  0
 10 11  2  0  0  0
 11 12  1  0  0  0
 11  1  1  0  0  0
 12 13  2  0  0  0
  1  2  1  0  0  0
  1  5  1  0  0  0
  2  3  2  0  0  0
  3  4  1  0  0  0
  3 14  1  0  0  0
  4  5  1  0  0  0
  4 20  1  0  0  0
  5  6  2  0  0  0
 20 21  1  0  0  0
 21 22  2  0  0  0
 21 23  1  0  0  0
 23 24  1  0  0  0
 23 29  1  0  0  0
 24 25  1  0  0  0
 25 26  1  0  0  0
 26 27  1  0  0  0
 27 28  2  0  0  0
 27 29  1  0  0  0
 14 15  2  0  0  0
 14 19  1  0  0  0
 15 16  1  0  0  0
 16 17  2  0  0  0
 17 18  1  0  0  0
 18 19  2  0  0  0
 26 30  1  0  0  0
M  END
> <minimizedAffinity>
-8.73363

$$$$
1789


 29 32  0  0  0  0  0  0  0  0999 V2000
  -42.4746  -67.9951   54.0716 N   0  0  0  0  0  0  0  0  0  0  0  0
  -42.4728  -68.8687   55.0503 N   0  0  0  0  0  0  0  0  0  0  0  0
  -41.3387  -69.5548   54.9469 N   0  0  0  0  0  0  0  0  0  0  0  0
  -40.6097  -69.1213   53.9007 C   0  0  0  0  0  0  0  0  0  0  0  0
  -41.3403  -68.1394   53.3627 C   0  0  0  0  0  0  0  0  0  0  0  0
  -40.5926  -67.6908   52.2833 C   0  0  0  0  0  0  0  0  0  0  0  0
  -40.9518  -66.7643   51.5224 O   0  0  0  0  0  0  0  0  0  0  0  0
  -39.4411  -68.3674   52.1568 N   0  0  0  0  0  0  0  0  0  0  0  0
  -39.4507  -69.2596   53.1645 C   0  0  0  0  0  0  0  0  0  0  0  0
  -38.5335  -70.1009   53.4024 O   0  0  0  0  0  0  0  0  0  0  0  0
  -43.2271  -69.0079   55.7861 H   0  0  0  0  0  0  0  0  0  0  0  0
  -41.0764  -70.3244   55.6083 H   0  0  0  0  0  0  0  0  0  0  0  0
  -46.8615  -64.1127   52.9731 Cl  0  0  0  0  0  0  0  0  0  0  0  0
  -45.5491  -65.2469   53.2993 C   0  0  0  0  0  0  0  0  0  0  0  0
  -44.2543  -64.8471   53.4708 C   0  0  0  0  0  0  0  0  0  0  0  0
  -43.2029  -65.7027   53.7269 C   0  0  0  0  0  0  0  0  0  0  0  0
  -43.4991  -67.0596   53.8120 C   0  0  0  0  0  0  0  0  0  0  0  0
  -44.8248  -67.4771   53.6366 C   0  0  0  0  0  0  0  0  0  0  0  0
  -45.8313  -66.5881   53.3847 C   0  0  0  0  0  0  0  0  0  0  0  0
  -38.4075  -68.2120   51.1889 C   0  0  0  0  0  0  0  0  0  0  0  0
  -37.1260  -68.6923   51.3745 C   0  0  0  0  0  0  0  0  0  0  0  0
  -36.1309  -68.5386   50.4317 C   0  0  0  0  0  0  0  0  0  0  0  0
  -36.3762  -67.8846   49.2422 C   0  0  0  0  0  0  0  0  0  0  0  0
  -37.6513  -67.3991   49.0426 C   0  0  0  0  0  0  0  0  0  0  0  0
  -38.6428  -67.5592   49.9938 C   0  0  0  0  0  0  0  0  0  0  0  0
  -35.3649  -67.7338   48.2967 O   0  0  0  0  0  0  0  0  0  0  0  0
  -35.5947  -67.6529   46.9237 C   0  0  0  0  0  0  0  0  0  0  0  0
  -34.8399  -69.0224   50.6194 O   0  0  0  0  0  0  0  0  0  0  0  0
  -34.5950  -69.7860   51.7860 C   0  0  0  0  0  0  0  0  0  0  0  0
 13 14  1  0  0  0
 14 15  2  0  0  0
 14 19  1  0  0  0
 15 16  1  0  0  0
 16 17  2  0  0  0
 17 18  1  0  0  0
 17  1  1  0  0  0
 18 19  2  0  0  0
  1  2  1  0  0  0
  1  5  1  0  0  0
  2  3  1  0  0  0
  3  4  1  0  0  0
  4  5  2  0  0  0
  4  9  1  0  0  0
  5  6  1  0  0  0
  6  7  2  0  0  0
  6  8  1  0  0  0
  8  9  1  0  0  0
  8 20  1  0  0  0
  9 10  2  0  0  0
 20 21  2  0  0  0
 20 25  1  0  0  0
 21 22  1  0  0  0
 22 23  2  0  0  0
 22 28  1  0  0  0
 23 24  1  0  0  0
 23 26  1  0  0  0
 24 25  2  0  0  0
 26 27  1  0  0  0
 28 29  1  0  0  0
  2 11  1  0  0  0
  3 12  1  0  0  0
M  END
> <minimizedAffinity>
-8.52446

$$$$
1790


 29 32  0  0  0  0  0  0  0  0999 V2000
  -42.4715  -67.9586   54.0693 N   0  0  0  0  0  0  0  0  0  0  0  0
  -42.4216  -68.8309   55.0563 N   0  0  0  0  0  0  0  0  0  0  0  0
  -41.2748  -69.4825   54.9110 N   0  0  0  0  0  0  0  0  0  0  0  0
  -40.5891  -69.0395   53.8432 C   0  0  0  0  0  0  0  0  0  0  0  0
  -41.3589  -68.0722   53.3168 C   0  0  0  0  0  0  0  0  0  0  0  0
  -40.6518  -67.6187   52.2194 C   0  0  0  0  0  0  0  0  0  0  0  0
  -41.0826  -66.6917   51.4710 O   0  0  0  0  0  0  0  0  0  0  0  0
  -39.4892  -68.2740   52.0660 N   0  0  0  0  0  0  0  0  0  0  0  0
  -39.4487  -69.1586   53.0765 C   0  0  0  0  0  0  0  0  0  0  0  0
  -38.4958  -69.9704   53.2730 O   0  0  0  0  0  0  0  0  0  0  0  0
  -43.1531  -68.9644   55.7950 H   0  0  0  0  0  0  0  0  0  0  0  0
  -40.9440  -70.2434   55.5428 H   0  0  0  0  0  0  0  0  0  0  0  0
  -46.9555  -64.1146   53.0410 Cl  0  0  0  0  0  0  0  0  0  0  0  0
  -45.6492  -65.2675   53.3441 C   0  0  0  0  0  0  0  0  0  0  0  0
  -44.3491  -64.8207   53.4609 C   0  0  0  0  0  0  0  0  0  0  0  0
  -43.3070  -65.6785   53.6964 C   0  0  0  0  0  0  0  0  0  0  0  0
  -43.5246  -67.0417   53.8261 C   0  0  0  0  0  0  0  0  0  0  0  0
  -44.8356  -67.4721   53.7061 C   0  0  0  0  0  0  0  0  0  0  0  0
  -45.8871  -66.6114   53.4693 C   0  0  0  0  0  0  0  0  0  0  0  0
  -38.5372  -68.0371   51.0313 C   0  0  0  0  0  0  0  0  0  0  0  0
  -37.2271  -68.4615   51.1243 C   0  0  0  0  0  0  0  0  0  0  0  0
  -36.2885  -68.2448   50.1364 C   0  0  0  0  0  0  0  0  0  0  0  0
  -36.6795  -67.5691   48.9996 C   0  0  0  0  0  0  0  0  0  0  0  0
  -37.9763  -67.1213   48.8528 C   0  0  0  0  0  0  0  0  0  0  0  0
  -38.8869  -67.3635   49.8767 C   0  0  0  0  0  0  0  0  0  0  0  0
  -38.3327  -66.4443   47.6938 O   0  0  0  0  0  0  0  0  0  0  0  0
  -39.1512  -65.3073   47.7201 C   0  0  0  0  0  0  0  0  0  0  0  0
  -34.9632  -68.6989   50.2805 O   0  0  0  0  0  0  0  0  0  0  0  0
  -34.0740  -67.9649   51.0899 C   0  0  0  0  0  0  0  0  0  0  0  0
 13 14  1  0  0  0
 14 15  2  0  0  0
 14 19  1  0  0  0
 15 16  1  0  0  0
 16 17  2  0  0  0
 17 18  1  0  0  0
 17  1  1  0  0  0
 18 19  2  0  0  0
  1  2  1  0  0  0
  1  5  1  0  0  0
  2  3  1  0  0  0
  3  4  1  0  0  0
  4  5  2  0  0  0
  4  9  1  0  0  0
  5  6  1  0  0  0
  6  7  2  0  0  0
  6  8  1  0  0  0
  8  9  1  0  0  0
  8 20  1  0  0  0
  9 10  2  0  0  0
 20 21  2  0  0  0
 20 25  1  0  0  0
 21 22  1  0  0  0
 22 23  2  0  0  0
 22 28  1  0  0  0
 23 24  1  0  0  0
 24 25  2  0  0  0
 24 26  1  0  0  0
 26 27  1  0  0  0
 28 29  1  0  0  0
  2 11  1  0  0  0
  3 12  1  0  0  0
M  END
> <minimizedAffinity>
-8.37020

$$$$
1801


 26 29  0  0  0  0  0  0  0  0999 V2000
  -44.6071  -64.5804   53.1924 Cl  0  0  0  0  0  0  0  0  0  0  0  0
  -43.3607  -65.8164   53.3617 C   0  0  0  0  0  0  0  0  0  0  0  0
  -42.3852  -65.9630   52.3914 C   0  0  0  0  0  0  0  0  0  0  0  0
  -41.4128  -66.9172   52.5110 C   0  0  0  0  0  0  0  0  0  0  0  0
  -41.4547  -67.7133   53.6305 C   0  0  0  0  0  0  0  0  0  0  0  0
  -42.4087  -67.5887   54.6063 C   0  0  0  0  0  0  0  0  0  0  0  0
  -43.3876  -66.6181   54.4726 C   0  0  0  0  0  0  0  0  0  0  0  0
  -40.4207  -68.7546   53.7932 C   0  0  0  0  0  0  0  0  0  0  0  0
  -40.1967  -69.6330   54.7062 N   0  0  0  0  0  0  0  0  0  0  0  0
  -39.0469  -70.4389   54.4129 C   0  0  0  0  0  0  0  0  0  0  0  0
  -38.5393  -69.9197   53.1076 C   0  0  0  0  0  0  0  0  0  0  0  0
  -39.4503  -68.8536   52.7646 N   0  0  0  0  0  0  0  0  0  0  0  0
  -39.4540  -67.9950   51.6151 C   0  0  0  0  0  0  0  0  0  0  0  0
  -38.6545  -67.9091   50.5417 N   0  0  0  0  0  0  0  0  0  0  0  0
  -39.0705  -66.9434   49.7415 N   0  0  0  0  0  0  0  0  0  0  0  0
  -40.1558  -66.4217   50.3385 C   0  0  0  0  0  0  0  0  0  0  0  0
  -40.8265  -65.4723   49.8658 O   0  0  0  0  0  0  0  0  0  0  0  0
  -40.4163  -67.0613   51.5103 N   0  0  0  0  0  0  0  0  0  0  0  0
  -38.4939  -66.5129   48.4718 C   0  0  0  0  0  0  0  0  0  0  0  0
  -37.0255  -66.7058   48.5225 C   0  0  0  0  0  0  0  0  0  0  0  0
  -36.4384  -67.1698   47.5047 O   0  0  0  0  0  0  0  0  0  0  0  0
  -36.2483  -66.3906   49.6678 N   0  0  0  0  0  0  0  0  0  0  0  0
  -36.7482  -66.0094   50.4966 H   0  0  0  0  0  0  0  0  0  0  0  0
  -34.8176  -66.5969   49.6701 C   0  0  0  0  0  0  0  0  0  0  0  0
  -34.0935  -65.3324   50.1401 C   0  0  0  0  0  0  0  0  0  0  0  0
  -34.5311  -67.6549   50.7269 C   0  0  0  0  0  0  0  0  0  0  0  0
  1  2  1  0  0  0
  2  3  2  0  0  0
  2  7  1  0  0  0
  3  4  1  0  0  0
  4  5  2  0  0  0
  4 18  1  0  0  0
  5  6  1  0  0  0
  5  8  1  0  0  0
  6  7  2  0  0  0
  8  9  2  0  0  0
  8 12  1  0  0  0
  9 10  1  0  0  0
 10 11  1  0  0  0
 11 12  1  0  0  0
 12 13  1  0  0  0
 13 14  2  0  0  0
 13 18  1  0  0  0
 14 15  1  0  0  0
 15 16  1  0  0  0
 15 19  1  0  0  0
 16 17  2  0  0  0
 16 18  1  0  0  0
 19 20  1  0  0  0
 20 21  2  0  0  0
 20 22  1  0  0  0
 22 24  1  0  0  0
 24 25  1  0  0  0
 24 26  1  0  0  0
 22 23  1  0  0  0
M  END
> <minimizedAffinity>
-8.39151

$$$$
1802


 27 30  0  0  0  0  0  0  0  0999 V2000
  -44.6280  -64.5222   53.1814 Cl  0  0  0  0  0  0  0  0  0  0  0  0
  -43.4205  -65.7897   53.4109 C   0  0  0  0  0  0  0  0  0  0  0  0
  -42.4421  -65.9557   52.4274 C   0  0  0  0  0  0  0  0  0  0  0  0
  -41.4632  -66.9212   52.5469 C   0  0  0  0  0  0  0  0  0  0  0  0
  -41.5051  -67.7079   53.6809 C   0  0  0  0  0  0  0  0  0  0  0  0
  -42.4360  -67.5807   54.6580 C   0  0  0  0  0  0  0  0  0  0  0  0
  -43.4265  -66.5952   54.5274 C   0  0  0  0  0  0  0  0  0  0  0  0
  -40.4418  -68.7385   53.7945 C   0  0  0  0  0  0  0  0  0  0  0  0
  -40.1994  -69.6240   54.7128 N   0  0  0  0  0  0  0  0  0  0  0  0
  -39.0364  -70.4083   54.3671 C   0  0  0  0  0  0  0  0  0  0  0  0
  -38.5284  -69.8786   53.0489 C   0  0  0  0  0  0  0  0  0  0  0  0
  -39.4965  -68.8331   52.7607 N   0  0  0  0  0  0  0  0  0  0  0  0
  -39.5224  -67.9801   51.6178 C   0  0  0  0  0  0  0  0  0  0  0  0
  -38.7204  -67.8981   50.5358 N   0  0  0  0  0  0  0  0  0  0  0  0
  -39.1574  -66.9214   49.7437 N   0  0  0  0  0  0  0  0  0  0  0  0
  -40.2250  -66.4194   50.3600 C   0  0  0  0  0  0  0  0  0  0  0  0
  -40.9285  -65.4649   49.9262 O   0  0  0  0  0  0  0  0  0  0  0  0
  -40.4803  -67.0613   51.5339 N   0  0  0  0  0  0  0  0  0  0  0  0
  -38.5615  -66.4954   48.4743 C   0  0  0  0  0  0  0  0  0  0  0  0
  -37.3335  -65.6533   48.9403 C   0  0  0  0  0  0  0  0  0  0  0  0
  -37.7348  -64.4533   49.1419 O   0  0  0  0  0  0  0  0  0  0  0  0
  -36.1223  -66.2140   49.0590 N   0  0  0  0  0  0  0  0  0  0  0  0
  -35.6299  -65.0506   49.5559 H   0  0  0  0  0  0  0  0  0  0  0  0
  -34.8771  -66.7902   49.1809 C   0  0  0  0  0  0  0  0  0  0  0  0
  -34.6678  -67.4530   50.5476 C   0  0  0  0  0  0  0  0  0  0  0  0
  -35.2724  -68.6859   50.6070 O   0  0  0  0  0  0  0  0  0  0  0  0
  -35.0124  -69.4146   51.7313 C   0  0  0  0  0  0  0  0  0  0  0  0
  1  2  1  0  0  0
  2  3  2  0  0  0
  2  7  1  0  0  0
  3  4  1  0  0  0
  4  5  2  0  0  0
  4 18  1  0  0  0
  5  6  1  0  0  0
  5  8  1  0  0  0
  6  7  2  0  0  0
  8  9  2  0  0  0
  8 12  1  0  0  0
  9 10  1  0  0  0
 10 11  1  0  0  0
 11 12  1  0  0  0
 12 13  1  0  0  0
 13 14  2  0  0  0
 13 18  1  0  0  0
 14 15  1  0  0  0
 15 16  1  0  0  0
 15 19  1  0  0  0
 16 17  2  0  0  0
 16 18  1  0  0  0
 19 20  1  0  0  0
 20 21  2  0  0  0
 20 22  1  0  0  0
 22 24  1  0  0  0
 24 25  1  0  0  0
 25 26  1  0  0  0
 26 27  1  0  0  0
 22 23  1  0  0  0
M  END
> <minimizedAffinity>
-7.85142

$$$$
1804


 26 30  0  0  0  0  0  0  0  0999 V2000
  -38.9264  -70.5350   54.6890 Cl  0  0  0  0  0  0  0  0  0  0  0  0
  -39.9927  -69.2402   54.1890 C   0  0  0  0  0  0  0  0  0  0  0  0
  -39.9031  -68.6259   52.9510 C   0  0  0  0  0  0  0  0  0  0  0  0
  -40.7477  -67.6097   52.5699 C   0  0  0  0  0  0  0  0  0  0  0  0
  -41.6989  -67.2237   53.4830 C   0  0  0  0  0  0  0  0  0  0  0  0
  -41.8334  -67.7978   54.7250 C   0  0  0  0  0  0  0  0  0  0  0  0
  -40.9595  -68.8277   55.0817 C   0  0  0  0  0  0  0  0  0  0  0  0
  -42.6225  -66.1352   53.1093 C   0  0  0  0  0  0  0  0  0  0  0  0
  -43.5875  -65.5809   53.7478 N   0  0  0  0  0  0  0  0  0  0  0  0
  -44.2219  -64.5447   52.9779 C   0  0  0  0  0  0  0  0  0  0  0  0
  -43.4692  -64.5285   51.6858 C   0  0  0  0  0  0  0  0  0  0  0  0
  -42.4714  -65.5556   51.8300 N   0  0  0  0  0  0  0  0  0  0  0  0
  -41.4531  -66.0029   50.9113 C   0  0  0  0  0  0  0  0  0  0  0  0
  -41.1235  -65.6106   49.6655 N   0  0  0  0  0  0  0  0  0  0  0  0
  -40.1042  -66.3337   49.2339 N   0  0  0  0  0  0  0  0  0  0  0  0
  -39.8118  -67.1781   50.2368 C   0  0  0  0  0  0  0  0  0  0  0  0
  -38.8764  -68.0253   50.1667 O   0  0  0  0  0  0  0  0  0  0  0  0
  -40.6330  -66.9957   51.2932 N   0  0  0  0  0  0  0  0  0  0  0  0
  -39.4248  -66.2418   47.9331 C   0  0  0  0  0  0  0  0  0  0  0  0
  -39.0029  -64.8307   47.7316 C   0  0  0  0  0  0  0  0  0  0  0  0
  -39.7064  -64.1377   46.9542 O   0  0  0  0  0  0  0  0  0  0  0  0
  -37.8621  -64.2854   48.3795 N   0  0  0  0  0  0  0  0  0  0  0  0
  -37.4012  -62.9192   48.2215 C   0  0  0  0  0  0  0  0  0  0  0  0
  -36.0724  -62.8357   48.9234 C   0  0  0  0  0  0  0  0  0  0  0  0
  -35.6427  -64.2880   48.9562 C   0  0  0  0  0  0  0  0  0  0  0  0
  -36.9747  -64.9671   49.2921 C   0  0  0  0  0  0  0  0  0  0  0  0
  1  2  1  0  0  0
  2  3  2  0  0  0
  2  7  1  0  0  0
  3  4  1  0  0  0
  4  5  2  0  0  0
  4 18  1  0  0  0
  5  6  1  0  0  0
  5  8  1  0  0  0
  6  7  2  0  0  0
  8  9  2  0  0  0
  8 12  1  0  0  0
  9 10  1  0  0  0
 10 11  1  0  0  0
 11 12  1  0  0  0
 12 13  1  0  0  0
 13 14  2  0  0  0
 13 18  1  0  0  0
 14 15  1  0  0  0
 15 16  1  0  0  0
 15 19  1  0  0  0
 16 17  2  0  0  0
 16 18  1  0  0  0
 19 20  1  0  0  0
 20 21  2  0  0  0
 20 22  1  0  0  0
 22 23  1  0  0  0
 22 26  1  0  0  0
 23 24  1  0  0  0
 24 25  1  0  0  0
 25 26  1  0  0  0
M  END
> <minimizedAffinity>
-8.95847

$$$$
1806


 32 35  0  0  0  0  0  0  0  0999 V2000
  -37.8855  -65.1896   48.0224 N   0  0  0  0  0  0  0  0  0  0  0  0
  -36.6498  -64.5343   47.6464 C   0  0  0  0  0  0  0  0  0  0  0  0
  -35.5406  -65.5978   47.6886 C   0  0  0  0  0  0  0  0  0  0  0  0
  -36.0000  -66.8281   48.2354 N   0  0  0  0  0  0  0  0  0  0  0  0
  -37.0665  -67.4692   47.4679 C   0  0  0  0  0  0  0  0  0  0  0  0
  -38.1886  -66.4615   47.3955 C   0  0  0  0  0  0  0  0  0  0  0  0
  -41.9300  -69.4464   54.7275 Cl  0  0  0  0  0  0  0  0  0  0  0  0
  -41.1523  -68.5659   53.4133 C   0  0  0  0  0  0  0  0  0  0  0  0
  -41.3903  -67.2479   53.1720 C   0  0  0  0  0  0  0  0  0  0  0  0
  -40.7576  -66.5989   52.1300 C   0  0  0  0  0  0  0  0  0  0  0  0
  -39.8776  -67.2703   51.3203 C   0  0  0  0  0  0  0  0  0  0  0  0
  -39.6396  -68.5980   51.5651 C   0  0  0  0  0  0  0  0  0  0  0  0
  -40.2715  -69.2515   52.6082 C   0  0  0  0  0  0  0  0  0  0  0  0
  -39.1980  -66.6242   50.2198 N   0  0  0  0  0  0  0  0  0  0  0  0
  -39.4137  -65.2567   49.9312 C   0  0  0  0  0  0  0  0  0  0  0  0
  -38.8159  -64.6349   48.9423 C   0  0  0  0  0  0  0  0  0  0  0  0
  -40.3371  -64.5297   50.7725 N   0  0  0  0  0  0  0  0  0  0  0  0
  -40.9886  -65.1905   51.8422 C   0  0  0  0  0  0  0  0  0  0  0  0
  -41.8095  -64.5684   52.5998 O   0  0  0  0  0  0  0  0  0  0  0  0
  -38.5441  -67.1808   49.6423 H   0  0  0  0  0  0  0  0  0  0  0  0
  -40.5205  -63.5233   50.5893 H   0  0  0  0  0  0  0  0  0  0  0  0
  -35.5831  -67.4956   49.4139 C   0  0  0  0  0  0  0  0  0  0  0  0
  -36.4345  -68.4388   49.9637 N   0  0  0  0  0  0  0  0  0  0  0  0
  -36.1671  -69.1237   51.0738 C   0  0  0  0  0  0  0  0  0  0  0  0
  -34.9815  -68.8835   51.7107 C   0  0  0  0  0  0  0  0  0  0  0  0
  -34.1157  -67.9600   51.1967 C   0  0  0  0  0  0  0  0  0  0  0  0
  -34.3921  -67.2325   50.0218 C   0  0  0  0  0  0  0  0  0  0  0  0
  -33.4484  -66.2948   49.4942 C   0  0  0  0  0  0  0  0  0  0  0  0
  -33.3908  -65.0994   49.7738 O   0  0  0  0  0  0  0  0  0  0  0  0
  -32.4808  -66.7602   48.5616 N   0  0  0  0  0  0  0  0  0  0  0  0
  -31.7219  -67.4132   48.8605 H   0  0  0  0  0  0  0  0  0  0  0  0
  -32.4707  -66.4860   47.5544 H   0  0  0  0  0  0  0  0  0  0  0  0
  7  8  1  0  0  0
  8  9  2  0  0  0
  8 13  1  0  0  0
  9 10  1  0  0  0
 10 11  2  0  0  0
 10 18  1  0  0  0
 11 12  1  0  0  0
 11 14  1  0  0  0
 12 13  2  0  0  0
 14 15  1  0  0  0
 15 16  2  0  0  0
 15 17  1  0  0  0
 16  1  1  0  0  0
  1  2  1  0  0  0
  1  6  1  0  0  0
  2  3  1  0  0  0
  3  4  1  0  0  0
  4  5  1  0  0  0
  4 22  1  0  0  0
  5  6  1  0  0  0
 22 23  2  0  0  0
 22 27  1  0  0  0
 23 24  1  0  0  0
 24 25  2  0  0  0
 25 26  1  0  0  0
 26 27  2  0  0  0
 27 28  1  0  0  0
 28 29  2  0  0  0
 28 30  1  0  0  0
 17 18  1  0  0  0
 18 19  2  0  0  0
 14 20  1  0  0  0
 30 31  1  0  0  0
 30 32  1  0  0  0
 17 21  1  0  0  0
M  END
> <minimizedAffinity>
-8.95246

$$$$
1808


 24 28  0  0  0  0  0  0  0  0999 V2000
  -36.9545  -67.2781   49.1114 N   0  0  0  0  0  0  0  0  0  0  0  0
  -35.5427  -67.2830   49.2539 C   0  0  0  0  0  0  0  0  0  0  0  0
  -34.9211  -67.9860   50.0864 O   0  0  0  0  0  0  0  0  0  0  0  0
  -34.9513  -66.3363   48.2705 C   0  0  0  0  0  0  0  0  0  0  0  0
  -34.7168  -64.9802   48.8609 C   0  0  0  0  0  0  0  0  0  0  0  0
  -34.9090  -64.1687   47.7207 O   0  0  0  0  0  0  0  0  0  0  0  0
  -36.2467  -64.5581   47.4583 C   0  0  0  0  0  0  0  0  0  0  0  0
  -36.0896  -66.0308   47.2958 C   0  0  0  0  0  0  0  0  0  0  0  0
  -37.2829  -66.7399   47.8309 C   0  0  0  0  0  0  0  0  0  0  0  0
  -38.3658  -66.8344   47.2471 O   0  0  0  0  0  0  0  0  0  0  0  0
  -36.8421  -64.2921   48.7937 C   0  0  0  0  0  0  0  0  0  0  0  0
  -35.8946  -64.6214   49.6665 C   0  0  0  0  0  0  0  0  0  0  0  0
  -40.7489  -69.2695   53.4425 Br  0  0  0  0  0  0  0  0  0  0  0  0
  -39.5610  -68.6568   52.0966 C   0  0  0  0  0  0  0  0  0  0  0  0
  -38.4271  -69.3793   51.8144 C   0  0  0  0  0  0  0  0  0  0  0  0
  -37.5829  -68.9117   50.8316 C   0  0  0  0  0  0  0  0  0  0  0  0
  -37.8401  -67.7525   50.1335 C   0  0  0  0  0  0  0  0  0  0  0  0
  -38.9859  -67.0218   50.4170 C   0  0  0  0  0  0  0  0  0  0  0  0
  -39.8397  -67.4996   51.4133 C   0  0  0  0  0  0  0  0  0  0  0  0
  -33.4063  -64.7800   49.4917 C   0  0  0  0  0  0  0  0  0  0  0  0
  -32.9240  -63.5045   49.3822 O   0  0  0  0  0  0  0  0  0  0  0  0
  -31.8459  -63.5114   48.5330 C   0  0  0  0  0  0  0  0  0  0  0  0
  -31.6589  -64.9279   48.0990 C   0  0  0  0  0  0  0  0  0  0  0  0
  -32.4531  -65.6456   48.9862 O   0  0  0  0  0  0  0  0  0  0  0  0
 13 14  1  0  0  0
 14 15  2  0  0  0
 14 19  1  0  0  0
 15 16  1  0  0  0
 16 17  2  0  0  0
 17 18  1  0  0  0
 17  1  1  0  0  0
 18 19  2  0  0  0
  1  2  1  0  0  0
  1  9  1  0  0  0
  2  3  2  0  0  0
  2  4  1  0  0  0
  4  5  1  0  0  0
  4  8  1  0  0  0
  5  6  1  0  0  0
  5 12  1  0  0  0
  5 20  1  0  0  0
  6  7  1  0  0  0
  7  8  1  0  0  0
  7 11  1  0  0  0
  8  9  1  0  0  0
  9 10  2  0  0  0
 11 12  2  0  0  0
 20 21  1  0  0  0
 20 24  1  0  0  0
 21 22  1  0  0  0
 22 23  1  0  0  0
 23 24  1  0  0  0
M  END
> <minimizedAffinity>
-7.93907

$$$$
1810


 32 35  0  0  0  0  0  0  0  0999 V2000
  -32.9984  -64.2787   47.2082 N   0  0  0  0  0  0  0  0  0  0  0  0
  -32.4707  -64.3016   48.5491 C   0  0  0  0  0  0  0  0  0  0  0  0
  -32.9854  -65.5505   49.2257 C   0  0  0  0  0  0  0  0  0  0  0  0
  -33.5778  -66.4184   48.2408 N   0  0  0  0  0  0  0  0  0  0  0  0
  -32.9618  -66.6274   46.9356 C   0  0  0  0  0  0  0  0  0  0  0  0
  -32.3299  -65.3195   46.4538 C   0  0  0  0  0  0  0  0  0  0  0  0
  -34.7858  -67.0793   48.5273 C   0  0  0  0  0  0  0  0  0  0  0  0
  -35.2769  -67.8782   47.6564 O   0  0  0  0  0  0  0  0  0  0  0  0
  -35.4851  -66.8513   49.8211 C   0  0  0  0  0  0  0  0  0  0  0  0
  -36.8798  -67.4078   49.8338 C   0  0  0  0  0  0  0  0  0  0  0  0
  -36.8024  -68.6367   50.6176 N   0  0  0  0  0  0  0  0  0  0  0  0
  -35.4606  -68.8762   50.9992 C   0  0  0  0  0  0  0  0  0  0  0  0
  -34.9978  -70.0009   51.3066 O   0  0  0  0  0  0  0  0  0  0  0  0
  -34.7893  -67.5596   50.9504 C   0  0  0  0  0  0  0  0  0  0  0  0
  -37.9336  -69.4754   50.9420 C   0  0  0  0  0  0  0  0  0  0  0  0
  -39.0287  -68.7034   51.5759 C   0  0  0  0  0  0  0  0  0  0  0  0
  -39.3291  -68.9277   52.9113 C   0  0  0  0  0  0  0  0  0  0  0  0
  -40.3382  -68.2463   53.5705 C   0  0  0  0  0  0  0  0  0  0  0  0
  -41.0523  -67.3174   52.8414 C   0  0  0  0  0  0  0  0  0  0  0  0
  -40.7788  -67.0686   51.5076 C   0  0  0  0  0  0  0  0  0  0  0  0
  -39.7566  -67.7697   50.8695 C   0  0  0  0  0  0  0  0  0  0  0  0
  -38.3913  -70.1141   53.7770 Cl  0  0  0  0  0  0  0  0  0  0  0  0
  -32.8061  -62.7306   46.4859 S   0  0  0  0  0  0  0  0  0  0  0  0
  -32.0724  -62.8166   45.1778 O   0  0  0  0  0  0  0  0  0  0  0  0
  -31.9128  -61.9285   47.4082 O   0  0  0  0  0  0  0  0  0  0  0  0
  -34.3264  -61.9058   46.3217 C   0  0  0  0  0  0  0  0  0  0  0  0
  -34.8937  -61.2687   45.2411 C   0  0  0  0  0  0  0  0  0  0  0  0
  -36.1041  -60.7730   45.6427 N   0  0  0  0  0  0  0  0  0  0  0  0
  -36.2622  -61.0846   46.8735 O   0  0  0  0  0  0  0  0  0  0  0  0
  -35.2425  -61.7607   47.3459 C   0  0  0  0  0  0  0  0  0  0  0  0
  -35.1609  -62.2488   48.7400 C   0  0  0  0  0  0  0  0  0  0  0  0
  -34.2872  -61.1626   43.9004 C   0  0  0  0  0  0  0  0  0  0  0  0
 23 24  2  0  0  0
 23 25  2  0  0  0
 23  1  1  0  0  0
 23 26  1  0  0  0
  1  2  1  0  0  0
  1  6  1  0  0  0
  2  3  1  0  0  0
  3  4  1  0  0  0
  4  5  1  0  0  0
  4  7  1  0  0  0
  5  6  1  0  0  0
  7  8  2  0  0  0
  7  9  1  0  0  0
  9 10  1  0  0  0
  9 14  1  0  0  0
 10 11  1  0  0  0
 11 12  1  0  0  0
 11 15  1  0  0  0
 12 13  2  0  0  0
 12 14  1  0  0  0
 15 16  1  0  0  0
 16 17  2  0  0  0
 16 21  1  0  0  0
 17 18  1  0  0  0
 17 22  1  0  0  0
 18 19  2  0  0  0
 19 20  1  0  0  0
 20 21  2  0  0  0
 26 27  1  0  0  0
 26 30  2  0  0  0
 27 28  2  0  0  0
 27 32  1  0  0  0
 28 29  1  0  0  0
 29 30  1  0  0  0
 30 31  1  0  0  0
M  END
> <minimizedAffinity>
-8.84623

$$$$
1816


 36 39  0  0  0  0  0  0  0  0999 V2000
  -35.5633  -67.2787   49.2114 C   0  0  0  0  0  0  0  0  0  0  0  0
  -35.2743  -66.8778   50.3913 O   0  0  0  0  0  0  0  0  0  0  0  0
  -34.8466  -66.7413   48.1570 N   0  0  0  0  0  0  0  0  0  0  0  0
  -33.8116  -65.7693   48.3245 C   0  0  0  0  0  0  0  0  0  0  0  0
  -34.2138  -64.5160   47.5444 C   0  0  0  0  0  0  0  0  0  0  0  0
  -34.4685  -64.8636   46.1874 N   0  0  0  0  0  0  0  0  0  0  0  0
  -34.3333  -66.2931   45.8349 C   0  0  0  0  0  0  0  0  0  0  0  0
  -35.1209  -67.1519   46.7991 C   0  0  0  0  0  0  0  0  0  0  0  0
  -34.8420  -63.9667   45.1644 C   0  0  0  0  0  0  0  0  0  0  0  0
  -35.0078  -64.5531   43.9833 O   0  0  0  0  0  0  0  0  0  0  0  0
  -35.0722  -62.5535   45.1682 C   0  0  0  0  0  0  0  0  0  0  0  0
  -36.1963  -62.0343   45.8592 C   0  0  0  0  0  0  0  0  0  0  0  0
  -36.4545  -60.6897   45.8823 C   0  0  0  0  0  0  0  0  0  0  0  0
  -37.4598  -60.2546   46.5033 O   0  0  0  0  0  0  0  0  0  0  0  0
  -35.6755  -59.7931   45.2631 N   0  0  0  0  0  0  0  0  0  0  0  0
  -34.6183  -60.2810   44.6129 C   0  0  0  0  0  0  0  0  0  0  0  0
  -33.8454  -59.4687   44.0068 O   0  0  0  0  0  0  0  0  0  0  0  0
  -34.3295  -61.6286   44.5702 N   0  0  0  0  0  0  0  0  0  0  0  0
  -35.9661  -58.3783   45.2972 C   0  0  0  0  0  0  0  0  0  0  0  0
  -33.4800  -61.9049   44.0401 H   0  0  0  0  0  0  0  0  0  0  0  0
  -36.6485  -68.2901   49.0809 C   0  0  0  0  0  0  0  0  0  0  0  0
  -41.4535  -68.8576   55.0887 Cl  0  0  0  0  0  0  0  0  0  0  0  0
  -40.9324  -68.1603   53.5720 C   0  0  0  0  0  0  0  0  0  0  0  0
  -39.7870  -68.5956   52.9125 C   0  0  0  0  0  0  0  0  0  0  0  0
  -39.3788  -68.0446   51.7220 C   0  0  0  0  0  0  0  0  0  0  0  0
  -40.1321  -67.0335   51.1720 C   0  0  0  0  0  0  0  0  0  0  0  0
  -41.2852  -66.5986   51.8388 C   0  0  0  0  0  0  0  0  0  0  0  0
  -41.6935  -67.1494   53.0318 C   0  0  0  0  0  0  0  0  0  0  0  0
  -39.7549  -66.4991   50.0358 O   0  0  0  0  0  0  0  0  0  0  0  0
  -38.6809  -66.8849   49.3910 C   0  0  0  0  0  0  0  0  0  0  0  0
  -38.3463  -66.3399   48.2863 O   0  0  0  0  0  0  0  0  0  0  0  0
  -37.8468  -67.8994   49.8576 C   0  0  0  0  0  0  0  0  0  0  0  0
  -38.2298  -68.4722   51.0493 C   0  0  0  0  0  0  0  0  0  0  0  0
  -37.4393  -69.5482   51.6387 C   0  0  0  0  0  0  0  0  0  0  0  0
  -42.8528  -66.7056   53.6945 O   0  0  0  0  0  0  0  0  0  0  0  0
  -43.2701  -65.3636   53.6458 C   0  0  0  0  0  0  0  0  0  0  0  0
 22 23  1  0  0  0
 23 24  2  0  0  0
 23 28  1  0  0  0
 24 25  1  0  0  0
 25 26  2  0  0  0
 25 33  1  0  0  0
 26 27  1  0  0  0
 26 29  1  0  0  0
 27 28  2  0  0  0
 28 35  1  0  0  0
 35 36  1  0  0  0
 29 30  1  0  0  0
 30 31  2  0  0  0
 30 32  1  0  0  0
 32 33  2  0  0  0
 32 21  1  0  0  0
 33 34  1  0  0  0
 21  1  1  0  0  0
  1  2  2  0  0  0
  1  3  1  0  0  0
  3  4  1  0  0  0
  3  8  1  0  0  0
  4  5  1  0  0  0
  5  6  1  0  0  0
  6  7  1  0  0  0
  6  9  1  0  0  0
  7  8  1  0  0  0
  9 10  2  0  0  0
  9 11  1  0  0  0
 11 12  2  0  0  0
 11 18  1  0  0  0
 12 13  1  0  0  0
 13 14  2  0  0  0
 13 15  1  0  0  0
 15 16  1  0  0  0
 15 19  1  0  0  0
 16 17  2  0  0  0
 16 18  1  0  0  0
 18 20  1  0  0  0
M  END
> <minimizedAffinity>
-8.79437

$$$$
1822


 24 27  0  0  0  0  0  0  0  0999 V2000
  -50.4866  -66.7469   53.9324 Cl  0  0  0  0  0  0  0  0  0  0  0  0
  -48.8023  -66.2960   53.6884 C   0  0  0  0  0  0  0  0  0  0  0  0
  -48.5130  -64.9847   53.3848 C   0  0  0  0  0  0  0  0  0  0  0  0
  -47.2256  -64.6517   53.2011 N   0  0  0  0  0  0  0  0  0  0  0  0
  -46.2128  -65.5515   53.3043 C   0  0  0  0  0  0  0  0  0  0  0  0
  -46.4833  -66.8338   53.6010 N   0  0  0  0  0  0  0  0  0  0  0  0
  -45.3405  -67.5122   53.6449 N   0  0  0  0  0  0  0  0  0  0  0  0
  -44.3036  -66.6921   53.3800 C   0  0  0  0  0  0  0  0  0  0  0  0
  -44.8761  -65.4798   53.1723 N   0  0  0  0  0  0  0  0  0  0  0  0
  -47.7729  -67.2053   53.7922 C   0  0  0  0  0  0  0  0  0  0  0  0
  -48.0313  -68.4183   54.0736 O   0  0  0  0  0  0  0  0  0  0  0  0
  -49.6211  -63.9775   53.2669 C   0  0  0  0  0  0  0  0  0  0  0  0
  -46.9991  -63.6557   52.9691 H   0  0  0  0  0  0  0  0  0  0  0  0
  -42.9183  -67.0219   53.3274 N   0  0  0  0  0  0  0  0  0  0  0  0
  -42.2155  -67.8206   54.2692 C   0  0  0  0  0  0  0  0  0  0  0  0
  -42.6852  -68.6435   55.0972 O   0  0  0  0  0  0  0  0  0  0  0  0
  -40.7436  -67.5444   54.1467 C   0  0  0  0  0  0  0  0  0  0  0  0
  -40.5847  -66.7751   52.8842 C   0  0  0  0  0  0  0  0  0  0  0  0
  -39.7823  -67.4884   51.8105 C   0  0  0  0  0  0  0  0  0  0  0  0
  -40.3608  -68.8655   51.6934 C   0  0  0  0  0  0  0  0  0  0  0  0
  -40.4637  -69.5324   52.8288 C   0  0  0  0  0  0  0  0  0  0  0  0
  -40.0051  -68.8634   54.0697 C   0  0  0  0  0  0  0  0  0  0  0  0
  -41.9556  -66.6408   52.3568 C   0  0  0  0  0  0  0  0  0  0  0  0
  -42.2549  -66.2365   51.1862 O   0  0  0  0  0  0  0  0  0  0  0  0
  1  2  1  0  0  0
  2  3  2  0  0  0
  2 10  1  0  0  0
  3  4  1  0  0  0
  3 12  1  0  0  0
  4  5  1  0  0  0
  5  6  1  0  0  0
  5  9  2  0  0  0
  6  7  1  0  0  0
  6 10  1  0  0  0
  7  8  2  0  0  0
  8  9  1  0  0  0
  8 14  1  0  0  0
 14 15  1  0  0  0
 14 23  1  0  0  0
 15 16  2  0  0  0
 15 17  1  0  0  0
 17 18  1  0  0  0
 17 22  1  0  0  0
 18 19  1  0  0  0
 18 23  1  0  0  0
 19 20  1  0  0  0
 20 21  2  0  0  0
 21 22  1  0  0  0
 23 24  2  0  0  0
 10 11  2  0  0  0
  4 13  1  0  0  0
M  END
> <minimizedAffinity>
-7.88577

$$$$
1825


 29 32  0  0  0  0  0  0  0  0999 V2000
  -39.7620  -64.9057   48.7760 N   0  0  0  0  0  0  0  0  0  0  0  0
  -38.9145  -64.3497   47.8595 C   0  0  0  0  0  0  0  0  0  0  0  0
  -37.6836  -64.8590   48.0329 N   0  0  0  0  0  0  0  0  0  0  0  0
  -37.6822  -65.7430   49.0386 C   0  0  0  0  0  0  0  0  0  0  0  0
  -39.0113  -65.7496   49.4870 C   0  0  0  0  0  0  0  0  0  0  0  0
  -36.7835  -64.2500   47.0538 C   0  0  0  0  0  0  0  0  0  0  0  0
  -37.5215  -63.0270   46.5432 C   0  0  0  0  0  0  0  0  0  0  0  0
  -38.9534  -63.3784   46.7370 C   0  0  0  0  0  0  0  0  0  0  0  0
  -36.6307  -66.5562   49.6274 C   0  0  0  0  0  0  0  0  0  0  0  0
  -35.3661  -66.0842   49.8467 C   0  0  0  0  0  0  0  0  0  0  0  0
  -34.3618  -66.8395   50.4237 C   0  0  0  0  0  0  0  0  0  0  0  0
  -34.5960  -68.1485   50.8160 C   0  0  0  0  0  0  0  0  0  0  0  0
  -35.8663  -68.6242   50.5973 C   0  0  0  0  0  0  0  0  0  0  0  0
  -36.8695  -67.8700   50.0209 C   0  0  0  0  0  0  0  0  0  0  0  0
  -33.6149  -68.9348   51.3961 O   0  0  0  0  0  0  0  0  0  0  0  0
  -33.8960  -70.1679   52.0321 C   0  0  0  0  0  0  0  0  0  0  0  0
  -41.1889  -64.5771   48.9073 C   0  0  0  0  0  0  0  0  0  0  0  0
  -42.1477  -66.0667   50.7187 N   0  0  0  0  0  0  0  0  0  0  0  0
  -41.6100  -64.8481   50.3369 C   0  0  0  0  0  0  0  0  0  0  0  0
  -41.4397  -63.9056   51.1178 O   0  0  0  0  0  0  0  0  0  0  0  0
  -42.2413  -66.8028   49.9543 H   0  0  0  0  0  0  0  0  0  0  0  0
  -40.9241  -68.3219   55.1880 Cl  0  0  0  0  0  0  0  0  0  0  0  0
  -42.0349  -67.4779   54.1298 C   0  0  0  0  0  0  0  0  0  0  0  0
  -41.6774  -67.1010   52.8554 C   0  0  0  0  0  0  0  0  0  0  0  0
  -42.5804  -66.4169   52.0128 C   0  0  0  0  0  0  0  0  0  0  0  0
  -43.8129  -66.1612   52.5390 C   0  0  0  0  0  0  0  0  0  0  0  0
  -44.1832  -66.5460   53.8433 C   0  0  0  0  0  0  0  0  0  0  0  0
  -43.2838  -67.2079   54.6390 C   0  0  0  0  0  0  0  0  0  0  0  0
  -40.3255  -67.4223   52.3655 C   0  0  0  0  0  0  0  0  0  0  0  0
 22 23  1  0  0  0
 23 24  2  0  0  0
 23 28  1  0  0  0
 24 25  1  0  0  0
 24 29  1  0  0  0
 25 26  2  0  0  0
 25 18  1  0  0  0
 26 27  1  0  0  0
 27 28  2  0  0  0
 18 19  1  0  0  0
 19 20  2  0  0  0
 19 17  1  0  0  0
 17  1  1  0  0  0
  1  2  1  0  0  0
  1  5  1  0  0  0
  2  3  2  0  0  0
  2  8  1  0  0  0
  3  4  1  0  0  0
  3  6  1  0  0  0
  4  5  2  0  0  0
  4  9  1  0  0  0
  9 10  2  0  0  0
  9 14  1  0  0  0
 10 11  1  0  0  0
 11 12  2  0  0  0
 12 13  1  0  0  0
 12 15  1  0  0  0
 13 14  2  0  0  0
 15 16  1  0  0  0
  6  7  1  0  0  0
  7  8  1  0  0  0
 18 21  1  0  0  0
M  END
> <minimizedAffinity>
-8.39097

$$$$
1835


 36 39  0  0  0  0  0  0  0  0999 V2000
  -40.6257  -67.5616   50.7922 C   0  0  0  0  0  0  0  0  0  0  0  0
  -41.5164  -67.1759   51.7192 N   0  0  0  0  0  0  0  0  0  0  0  0
  -41.1592  -67.7954   52.8574 C   0  0  0  0  0  0  0  0  0  0  0  0
  -41.6756  -67.7927   54.1103 N   0  0  0  0  0  0  0  0  0  0  0  0
  -41.1257  -68.5132   55.1070 C   0  0  0  0  0  0  0  0  0  0  0  0
  -40.0292  -69.2661   54.8728 N   0  0  0  0  0  0  0  0  0  0  0  0
  -39.4582  -69.3213   53.6549 C   0  0  0  0  0  0  0  0  0  0  0  0
  -40.0402  -68.5735   52.6499 C   0  0  0  0  0  0  0  0  0  0  0  0
  -39.7254  -68.4093   51.3438 N   0  0  0  0  0  0  0  0  0  0  0  0
  -38.3110  -70.1192   53.4408 N   0  0  0  0  0  0  0  0  0  0  0  0
  -37.4227  -69.9450   53.9418 H   0  0  0  0  0  0  0  0  0  0  0  0
  -38.3606  -70.8997   52.7621 H   0  0  0  0  0  0  0  0  0  0  0  0
  -42.6425  -66.2948   51.6111 C   0  0  0  0  0  0  0  0  0  0  0  0
  -43.6732  -66.6305   52.4852 O   0  0  0  0  0  0  0  0  0  0  0  0
  -44.4615  -65.4815   52.4344 C   0  0  0  0  0  0  0  0  0  0  0  0
  -43.4373  -64.4138   52.7887 C   0  0  0  0  0  0  0  0  0  0  0  0
  -42.2575  -64.8662   51.9530 C   0  0  0  0  0  0  0  0  0  0  0  0
  -42.2306  -64.0592   50.8134 O   0  0  0  0  0  0  0  0  0  0  0  0
  -43.8696  -63.1444   52.4313 O   0  0  0  0  0  0  0  0  0  0  0  0
  -42.6309  -64.5019   50.0385 H   0  0  0  0  0  0  0  0  0  0  0  0
  -44.6866  -63.2549   51.8743 H   0  0  0  0  0  0  0  0  0  0  0  0
  -45.5996  -65.5141   53.4185 C   0  0  0  0  0  0  0  0  0  0  0  0
  -45.2582  -66.0854   54.6194 O   0  0  0  0  0  0  0  0  0  0  0  0
  -44.4517  -66.6411   54.5484 H   0  0  0  0  0  0  0  0  0  0  0  0
  -40.6172  -67.1495   49.4330 N   0  0  0  0  0  0  0  0  0  0  0  0
  -41.3892  -67.4209   48.7786 H   0  0  0  0  0  0  0  0  0  0  0  0
  -39.0239  -65.4992   49.6483 C   0  0  0  0  0  0  0  0  0  0  0  0
  -39.5899  -66.3701   48.8964 N   0  0  0  0  0  0  0  0  0  0  0  0
  -39.8446  -62.8124   48.6577 Cl  0  0  0  0  0  0  0  0  0  0  0  0
  -38.1887  -63.3727   48.6843 C   0  0  0  0  0  0  0  0  0  0  0  0
  -37.9388  -64.6388   49.1677 C   0  0  0  0  0  0  0  0  0  0  0  0
  -36.6321  -65.0762   49.1863 C   0  0  0  0  0  0  0  0  0  0  0  0
  -35.5903  -64.2767   48.7368 C   0  0  0  0  0  0  0  0  0  0  0  0
  -35.8318  -63.0080   48.2509 C   0  0  0  0  0  0  0  0  0  0  0  0
  -37.1385  -62.5706   48.2322 C   0  0  0  0  0  0  0  0  0  0  0  0
  -36.3070  -66.6923   49.8028 Cl  0  0  0  0  0  0  0  0  0  0  0  0
 29 30  1  0  0  0
 30 31  2  0  0  0
 30 35  1  0  0  0
 31 32  1  0  0  0
 31 27  1  0  0  0
 32 33  2  0  0  0
 32 36  1  0  0  0
 33 34  1  0  0  0
 34 35  2  0  0  0
 27 28  2  0  0  0
 28 25  1  0  0  0
 25  1  1  0  0  0
  1  2  1  0  0  0
  1  9  2  0  0  0
  2  3  1  0  0  0
  2 13  1  0  0  0
  3  4  2  0  0  0
  3  8  1  0  0  0
  4  5  1  0  0  0
  5  6  2  0  0  0
  6  7  1  0  0  0
  7  8  2  0  0  0
  7 10  1  0  0  0
  8  9  1  0  0  0
 13 14  1  0  0  0
 13 17  1  0  0  0
 14 15  1  0  0  0
 15 16  1  0  0  0
 15 22  1  0  0  0
 16 17  1  0  0  0
 16 19  1  0  0  0
 17 18  1  0  0  0
 22 23  1  0  0  0
 25 26  1  0  0  0
 10 11  1  0  0  0
 10 12  1  0  0  0
 18 20  1  0  0  0
 19 21  1  0  0  0
 23 24  1  0  0  0
M  END
> <minimizedAffinity>
-8.75378

$$$$
1837


 29 32  0  0  0  0  0  0  0  0999 V2000
  -37.7133  -64.8574   48.9875 N   0  0  0  0  0  0  0  0  0  0  0  0
  -37.3033  -65.2577   47.6252 C   0  0  0  0  0  0  0  0  0  0  0  0
  -36.6815  -66.6486   47.8681 C   0  0  0  0  0  0  0  0  0  0  0  0
  -36.0224  -66.4913   49.1735 N   0  0  0  0  0  0  0  0  0  0  0  0
  -35.3833  -65.2298   49.3781 C   0  0  0  0  0  0  0  0  0  0  0  0
  -36.5147  -64.2067   49.5685 C   0  0  0  0  0  0  0  0  0  0  0  0
  -36.0848  -67.5490   50.0919 C   0  0  0  0  0  0  0  0  0  0  0  0
  -34.9361  -68.1313   50.5542 N   0  0  0  0  0  0  0  0  0  0  0  0
  -34.9136  -69.1473   51.4159 C   0  0  0  0  0  0  0  0  0  0  0  0
  -36.0664  -69.6488   51.8723 N   0  0  0  0  0  0  0  0  0  0  0  0
  -37.2470  -69.1670   51.4978 C   0  0  0  0  0  0  0  0  0  0  0  0
  -38.5248  -69.4793   51.7925 N   0  0  0  0  0  0  0  0  0  0  0  0
  -39.2774  -68.6531   51.1110 N   0  0  0  0  0  0  0  0  0  0  0  0
  -38.5316  -67.8274   50.3931 N   0  0  0  0  0  0  0  0  0  0  0  0
  -37.2561  -68.1012   50.5924 C   0  0  0  0  0  0  0  0  0  0  0  0
  -39.0220  -70.5148   52.6783 C   0  0  0  0  0  0  0  0  0  0  0  0
  -38.9298  -70.0911   54.1279 C   0  0  0  0  0  0  0  0  0  0  0  0
  -38.7894  -63.8848   48.9322 C   0  0  0  0  0  0  0  0  0  0  0  0
  -40.3397  -64.5108   50.8499 N   0  0  0  0  0  0  0  0  0  0  0  0
  -40.0134  -64.5719   49.4919 C   0  0  0  0  0  0  0  0  0  0  0  0
  -40.7471  -65.2155   48.6994 O   0  0  0  0  0  0  0  0  0  0  0  0
  -39.6526  -63.9829   51.4742 H   0  0  0  0  0  0  0  0  0  0  0  0
  -44.9447  -67.0239   53.7366 Cl  0  0  0  0  0  0  0  0  0  0  0  0
  -43.5966  -66.2938   52.8909 C   0  0  0  0  0  0  0  0  0  0  0  0
  -42.3043  -66.7777   53.0352 C   0  0  0  0  0  0  0  0  0  0  0  0
  -41.2667  -66.1869   52.3620 C   0  0  0  0  0  0  0  0  0  0  0  0
  -41.4455  -65.0866   51.5102 C   0  0  0  0  0  0  0  0  0  0  0  0
  -42.7266  -64.6271   51.3854 C   0  0  0  0  0  0  0  0  0  0  0  0
  -43.7882  -65.2165   52.0609 C   0  0  0  0  0  0  0  0  0  0  0  0
 23 24  1  0  0  0
 24 25  2  0  0  0
 24 29  1  0  0  0
 25 26  1  0  0  0
 26 27  2  0  0  0
 27 28  1  0  0  0
 27 19  1  0  0  0
 28 29  2  0  0  0
 19 20  1  0  0  0
 20 21  2  0  0  0
 20 18  1  0  0  0
 18  1  1  0  0  0
  1  2  1  0  0  0
  1  6  1  0  0  0
  2  3  1  0  0  0
  3  4  1  0  0  0
  4  5  1  0  0  0
  4  7  1  0  0  0
  5  6  1  0  0  0
  7  8  2  0  0  0
  7 15  1  0  0  0
  8  9  1  0  0  0
  9 10  2  0  0  0
 10 11  1  0  0  0
 11 12  1  0  0  0
 11 15  2  0  0  0
 12 13  1  0  0  0
 12 16  1  0  0  0
 13 14  2  0  0  0
 14 15  1  0  0  0
 16 17  1  0  0  0
 19 22  1  0  0  0
M  END
> <minimizedAffinity>
-7.80097

$$$$
1846


 31 34  0  0  0  0  0  0  0  0999 V2000
  -37.8982  -68.1592   50.4950 N   0  0  0  0  0  0  0  0  0  0  0  0
  -38.5368  -67.1482   49.8658 C   0  0  0  0  0  0  0  0  0  0  0  0
  -39.6948  -66.6594   50.3572 N   0  0  0  0  0  0  0  0  0  0  0  0
  -40.2685  -67.1316   51.4701 C   0  0  0  0  0  0  0  0  0  0  0  0
  -41.4203  -66.6518   51.9673 N   0  0  0  0  0  0  0  0  0  0  0  0
  -42.0173  -67.1078   53.0814 C   0  0  0  0  0  0  0  0  0  0  0  0
  -41.3896  -68.1261   53.7305 N   0  0  0  0  0  0  0  0  0  0  0  0
  -40.2367  -68.6352   53.2682 C   0  0  0  0  0  0  0  0  0  0  0  0
  -39.6328  -68.1593   52.1234 C   0  0  0  0  0  0  0  0  0  0  0  0
  -38.4484  -68.6692   51.6321 C   0  0  0  0  0  0  0  0  0  0  0  0
  -37.9156  -69.6081   52.2737 O   0  0  0  0  0  0  0  0  0  0  0  0
  -43.2329  -66.5751   53.5722 N   0  0  0  0  0  0  0  0  0  0  0  0
  -43.4222  -65.1437   53.5357 C   0  0  0  0  0  0  0  0  0  0  0  0
  -44.8669  -64.8481   53.1373 C   0  0  0  0  0  0  0  0  0  0  0  0
  -45.7724  -65.5938   53.8890 O   0  0  0  0  0  0  0  0  0  0  0  0
  -45.6154  -66.9236   53.4976 C   0  0  0  0  0  0  0  0  0  0  0  0
  -44.2952  -67.3937   54.1089 C   0  0  0  0  0  0  0  0  0  0  0  0
  -36.6712  -68.7336   50.0414 C   0  0  0  0  0  0  0  0  0  0  0  0
  -35.1168  -66.7370   50.1551 N   0  0  0  0  0  0  0  0  0  0  0  0
  -35.7675  -67.7213   49.3942 C   0  0  0  0  0  0  0  0  0  0  0  0
  -35.6379  -67.8143   48.1636 O   0  0  0  0  0  0  0  0  0  0  0  0
  -35.2825  -66.7248   51.2173 H   0  0  0  0  0  0  0  0  0  0  0  0
  -34.7821  -61.8894   48.5700 Cl  0  0  0  0  0  0  0  0  0  0  0  0
  -34.0269  -63.4477   48.8316 C   0  0  0  0  0  0  0  0  0  0  0  0
  -32.7033  -63.6386   48.5159 C   0  0  0  0  0  0  0  0  0  0  0  0
  -32.1896  -64.8900   48.7506 C   0  0  0  0  0  0  0  0  0  0  0  0
  -32.9405  -65.9404   49.2825 C   0  0  0  0  0  0  0  0  0  0  0  0
  -34.2616  -65.7599   49.6008 C   0  0  0  0  0  0  0  0  0  0  0  0
  -34.7746  -64.4727   49.3543 C   0  0  0  0  0  0  0  0  0  0  0  0
  -31.9181  -62.6084   47.9804 O   0  0  0  0  0  0  0  0  0  0  0  0
  -31.8057  -62.4654   46.5831 C   0  0  0  0  0  0  0  0  0  0  0  0
 23 24  1  0  0  0
 24 25  2  0  0  0
 24 29  1  0  0  0
 25 26  1  0  0  0
 25 30  1  0  0  0
 26 27  2  0  0  0
 27 28  1  0  0  0
 28 29  2  0  0  0
 28 19  1  0  0  0
 19 20  1  0  0  0
 20 21  2  0  0  0
 20 18  1  0  0  0
 18  1  1  0  0  0
  1  2  1  0  0  0
  1 10  1  0  0  0
  2  3  2  0  0  0
  3  4  1  0  0  0
  4  5  2  0  0  0
  4  9  1  0  0  0
  5  6  1  0  0  0
  6  7  2  0  0  0
  6 12  1  0  0  0
  7  8  1  0  0  0
  8  9  2  0  0  0
  9 10  1  0  0  0
 10 11  2  0  0  0
 12 13  1  0  0  0
 12 17  1  0  0  0
 13 14  1  0  0  0
 14 15  1  0  0  0
 15 16  1  0  0  0
 16 17  1  0  0  0
 30 31  1  0  0  0
 19 22  1  0  0  0
M  END
> <minimizedAffinity>
-8.26817

$$$$
1850


 24 27  0  0  0  0  0  0  0  0999 V2000
  -40.7629  -67.8331   55.4372 Cl  0  0  0  0  0  0  0  0  0  0  0  0
  -40.0316  -68.6620   54.0700 C   0  0  0  0  0  0  0  0  0  0  0  0
  -40.0349  -68.0828   52.8168 C   0  0  0  0  0  0  0  0  0  0  0  0
  -39.4667  -68.7261   51.7535 C   0  0  0  0  0  0  0  0  0  0  0  0
  -38.8951  -69.9603   51.9649 C   0  0  0  0  0  0  0  0  0  0  0  0
  -38.8813  -70.5566   53.2069 C   0  0  0  0  0  0  0  0  0  0  0  0
  -39.4575  -69.8982   54.2743 C   0  0  0  0  0  0  0  0  0  0  0  0
  -39.4299  -68.1704   50.3797 C   0  0  0  0  0  0  0  0  0  0  0  0
  -39.9074  -66.8113   50.4569 N   0  0  0  0  0  0  0  0  0  0  0  0
  -41.1025  -66.5856   51.2355 C   0  0  0  0  0  0  0  0  0  0  0  0
  -40.6818  -66.7441   52.7014 C   0  0  0  0  0  0  0  0  0  0  0  0
  -39.2567  -65.7331   49.8130 C   0  0  0  0  0  0  0  0  0  0  0  0
  -39.7256  -64.5695   49.9207 O   0  0  0  0  0  0  0  0  0  0  0  0
  -38.0284  -65.8922   48.9995 C   0  0  0  0  0  0  0  0  0  0  0  0
  -36.8923  -65.4339   49.6643 O   0  0  0  0  0  0  0  0  0  0  0  0
  -35.8279  -66.2440   50.0377 C   0  0  0  0  0  0  0  0  0  0  0  0
  -36.0768  -67.4794   50.5129 N   0  0  0  0  0  0  0  0  0  0  0  0
  -35.1018  -68.3034   50.8875 N   0  0  0  0  0  0  0  0  0  0  0  0
  -33.8086  -67.9613   50.8169 C   0  0  0  0  0  0  0  0  0  0  0  0
  -33.0553  -68.9869   51.2599 N   0  0  0  0  0  0  0  0  0  0  0  0
  -33.8830  -69.9455   51.5979 N   0  0  0  0  0  0  0  0  0  0  0  0
  -35.1496  -69.5546   51.3797 C   0  0  0  0  0  0  0  0  0  0  0  0
  -33.5134  -66.6925   50.3308 C   0  0  0  0  0  0  0  0  0  0  0  0
  -34.5193  -65.8405   49.9435 C   0  0  0  0  0  0  0  0  0  0  0  0
  1  2  1  0  0  0
  2  3  2  0  0  0
  2  7  1  0  0  0
  3  4  1  0  0  0
  3 11  1  0  0  0
  4  5  2  0  0  0
  4  8  1  0  0  0
  5  6  1  0  0  0
  6  7  2  0  0  0
  8  9  1  0  0  0
  9 10  1  0  0  0
  9 12  1  0  0  0
 10 11  1  0  0  0
 12 13  2  0  0  0
 12 14  1  0  0  0
 14 15  1  0  0  0
 15 16  1  0  0  0
 16 17  2  0  0  0
 16 24  1  0  0  0
 17 18  1  0  0  0
 18 19  1  0  0  0
 18 22  1  0  0  0
 19 20  2  0  0  0
 19 23  1  0  0  0
 20 21  1  0  0  0
 21 22  2  0  0  0
 23 24  2  0  0  0
M  END
> <minimizedAffinity>
-8.35887

$$$$
1852


 26 29  0  0  0  0  0  0  0  0999 V2000
  -38.3613  -66.1676   48.2625 S   0  0  0  0  0  0  0  0  0  0  0  0
  -37.0062  -65.9091   47.6965 O   0  0  0  0  0  0  0  0  0  0  0  0
  -39.2233  -66.7872   47.1941 O   0  0  0  0  0  0  0  0  0  0  0  0
  -38.2398  -67.2816   49.6043 C   0  0  0  0  0  0  0  0  0  0  0  0
  -39.3636  -67.6331   50.3253 C   0  0  0  0  0  0  0  0  0  0  0  0
  -39.3216  -68.5098   51.3958 C   0  0  0  0  0  0  0  0  0  0  0  0
  -38.1165  -69.0709   51.7773 C   0  0  0  0  0  0  0  0  0  0  0  0
  -37.0051  -68.7177   51.0560 C   0  0  0  0  0  0  0  0  0  0  0  0
  -37.0429  -67.8452   49.9897 C   0  0  0  0  0  0  0  0  0  0  0  0
  -38.1200  -69.9446   52.8531 O   0  0  0  0  0  0  0  0  0  0  0  0
  -39.0996  -69.9192   53.8762 C   0  0  0  0  0  0  0  0  0  0  0  0
  -40.4425  -69.4337   53.3988 C   0  0  0  0  0  0  0  0  0  0  0  0
  -40.4343  -68.8674   52.1213 O   0  0  0  0  0  0  0  0  0  0  0  0
  -39.1004  -64.6848   48.7297 N   0  0  0  0  0  0  0  0  0  0  0  0
  -39.0518  -64.4670   50.1412 C   0  0  0  0  0  0  0  0  0  0  0  0
  -40.4515  -64.0909   50.5959 C   0  0  0  0  0  0  0  0  0  0  0  0
  -41.3092  -64.7816   49.5559 C   0  0  0  0  0  0  0  0  0  0  0  0
  -40.4576  -64.5737   48.2980 C   0  0  0  0  0  0  0  0  0  0  0  0
  -40.6796  -64.7175   51.8469 O   0  0  0  0  0  0  0  0  0  0  0  0
  -41.9569  -64.9764   52.3173 C   0  0  0  0  0  0  0  0  0  0  0  0
  -42.1749  -66.2399   52.7839 N   0  0  0  0  0  0  0  0  0  0  0  0
  -43.4040  -66.5202   53.2472 C   0  0  0  0  0  0  0  0  0  0  0  0
  -44.4225  -65.5885   53.2615 C   0  0  0  0  0  0  0  0  0  0  0  0
  -44.1437  -64.3251   52.7763 C   0  0  0  0  0  0  0  0  0  0  0  0
  -42.9075  -64.0437   52.3116 N   0  0  0  0  0  0  0  0  0  0  0  0
  -46.0213  -65.9687   53.8679 Cl  0  0  0  0  0  0  0  0  0  0  0  0
  1  2  2  0  0  0
  1  3  2  0  0  0
  1 14  1  0  0  0
  1  4  1  0  0  0
 14 15  1  0  0  0
 14 18  1  0  0  0
 15 16  1  0  0  0
 16 17  1  0  0  0
 16 19  1  0  0  0
 17 18  1  0  0  0
 19 20  1  0  0  0
 20 21  2  0  0  0
 20 25  1  0  0  0
 21 22  1  0  0  0
 22 23  2  0  0  0
 23 24  1  0  0  0
 23 26  1  0  0  0
 24 25  2  0  0  0
  4  5  2  0  0  0
  4  9  1  0  0  0
  5  6  1  0  0  0
  6  7  2  0  0  0
  6 13  1  0  0  0
  7  8  1  0  0  0
  7 10  1  0  0  0
  8  9  2  0  0  0
 10 11  1  0  0  0
 11 12  1  0  0  0
 12 13  1  0  0  0
M  END
> <minimizedAffinity>
-7.84700

$$$$
1856


 31 34  0  0  0  0  0  0  0  0999 V2000
  -38.5770  -64.2376   49.4139 C   0  0  0  0  0  0  0  0  0  0  0  0
  -38.0112  -65.4298   49.6573 N   0  0  0  0  0  0  0  0  0  0  0  0
  -36.7880  -65.7974   49.1928 C   0  0  0  0  0  0  0  0  0  0  0  0
  -36.1520  -64.8577   48.4440 N   0  0  0  0  0  0  0  0  0  0  0  0
  -36.6671  -63.6500   48.1667 C   0  0  0  0  0  0  0  0  0  0  0  0
  -37.8667  -63.3658   48.6574 N   0  0  0  0  0  0  0  0  0  0  0  0
  -35.9486  -62.7201   47.3799 N   0  0  0  0  0  0  0  0  0  0  0  0
  -34.5207  -62.5108   47.5063 C   0  0  0  0  0  0  0  0  0  0  0  0
  -33.9456  -62.0886   46.1717 C   0  0  0  0  0  0  0  0  0  0  0  0
  -34.5362  -60.9709   45.6456 O   0  0  0  0  0  0  0  0  0  0  0  0
  -35.7460  -60.6421   46.2435 C   0  0  0  0  0  0  0  0  0  0  0  0
  -36.6120  -61.8925   46.3674 C   0  0  0  0  0  0  0  0  0  0  0  0
  -36.2226  -67.0569   49.4675 N   0  0  0  0  0  0  0  0  0  0  0  0
  -34.8029  -67.2093   49.5803 C   0  0  0  0  0  0  0  0  0  0  0  0
  -34.5297  -67.8833   50.9144 C   0  0  0  0  0  0  0  0  0  0  0  0
  -35.2133  -69.1086   50.8981 O   0  0  0  0  0  0  0  0  0  0  0  0
  -36.5908  -68.8915   50.9375 C   0  0  0  0  0  0  0  0  0  0  0  0
  -37.0482  -68.2136   49.6401 C   0  0  0  0  0  0  0  0  0  0  0  0
  -39.8594  -63.9006   49.9227 N   0  0  0  0  0  0  0  0  0  0  0  0
  -40.4706  -63.2185   49.4320 H   0  0  0  0  0  0  0  0  0  0  0  0
  -41.6128  -64.8213   51.1291 C   0  0  0  0  0  0  0  0  0  0  0  0
  -40.3446  -64.4734   51.0984 N   0  0  0  0  0  0  0  0  0  0  0  0
  -41.5154  -68.9318   54.4899 Br  0  0  0  0  0  0  0  0  0  0  0  0
  -42.1740  -67.2428   53.8966 C   0  0  0  0  0  0  0  0  0  0  0  0
  -41.6727  -66.6646   52.7688 C   0  0  0  0  0  0  0  0  0  0  0  0
  -42.1605  -65.4221   52.3351 C   0  0  0  0  0  0  0  0  0  0  0  0
  -43.1419  -64.8107   53.0671 C   0  0  0  0  0  0  0  0  0  0  0  0
  -43.6536  -65.4119   54.2285 C   0  0  0  0  0  0  0  0  0  0  0  0
  -43.1616  -66.6268   54.6324 C   0  0  0  0  0  0  0  0  0  0  0  0
  -43.6592  -63.5878   52.6879 O   0  0  0  0  0  0  0  0  0  0  0  0
  -43.3692  -63.0726   51.8823 H   0  0  0  0  0  0  0  0  0  0  0  0
 23 24  1  0  0  0
 24 25  2  0  0  0
 24 29  1  0  0  0
 25 26  1  0  0  0
 26 27  2  0  0  0
 26 21  1  0  0  0
 27 28  1  0  0  0
 27 30  1  0  0  0
 28 29  2  0  0  0
 21 22  2  0  0  0
 22 19  1  0  0  0
 19  1  1  0  0  0
  1  2  2  0  0  0
  1  6  1  0  0  0
  2  3  1  0  0  0
  3  4  2  0  0  0
  3 13  1  0  0  0
  4  5  1  0  0  0
  5  6  2  0  0  0
  5  7  1  0  0  0
  7  8  1  0  0  0
  7 12  1  0  0  0
  8  9  1  0  0  0
  9 10  1  0  0  0
 10 11  1  0  0  0
 11 12  1  0  0  0
 13 14  1  0  0  0
 13 18  1  0  0  0
 14 15  1  0  0  0
 15 16  1  0  0  0
 16 17  1  0  0  0
 17 18  1  0  0  0
 30 31  1  0  0  0
 19 20  1  0  0  0
M  END
> <minimizedAffinity>
-8.28954

$$$$
1863


 33 36  0  0  0  0  0  0  0  0999 V2000
  -39.1847  -67.9052   50.8595 N   0  0  0  0  0  0  0  0  0  0  0  0
  -39.7551  -68.3371   52.0176 C   0  0  0  0  0  0  0  0  0  0  0  0
  -40.6476  -67.3795   52.4221 C   0  0  0  0  0  0  0  0  0  0  0  0
  -40.5898  -66.4113   51.5086 N   0  0  0  0  0  0  0  0  0  0  0  0
  -39.6911  -66.7132   50.5337 C   0  0  0  0  0  0  0  0  0  0  0  0
  -41.3285  -67.5803   53.5636 N   0  0  0  0  0  0  0  0  0  0  0  0
  -41.1482  -68.6998   54.3149 C   0  0  0  0  0  0  0  0  0  0  0  0
  -41.7873  -68.8983   55.3959 O   0  0  0  0  0  0  0  0  0  0  0  0
  -40.2792  -69.6554   53.9444 N   0  0  0  0  0  0  0  0  0  0  0  0
  -39.5923  -69.4724   52.8083 C   0  0  0  0  0  0  0  0  0  0  0  0
  -38.7903  -70.3792   52.4922 O   0  0  0  0  0  0  0  0  0  0  0  0
  -42.2739  -66.6016   54.0329 C   0  0  0  0  0  0  0  0  0  0  0  0
  -40.1416  -70.5304   54.5349 H   0  0  0  0  0  0  0  0  0  0  0  0
  -39.3690  -65.8466   49.4260 N   0  0  0  0  0  0  0  0  0  0  0  0
  -39.4951  -64.4324   49.6928 C   0  0  0  0  0  0  0  0  0  0  0  0
  -39.0683  -63.5578   48.5417 C   0  0  0  0  0  0  0  0  0  0  0  0
  -37.8271  -64.0448   48.0606 N   0  0  0  0  0  0  0  0  0  0  0  0
  -37.9394  -65.3512   47.5033 C   0  0  0  0  0  0  0  0  0  0  0  0
  -38.9536  -66.2619   48.1302 C   0  0  0  0  0  0  0  0  0  0  0  0
  -36.8063  -63.9110   49.0516 C   0  0  0  0  0  0  0  0  0  0  0  0
  -35.7237  -62.9520   48.6838 C   0  0  0  0  0  0  0  0  0  0  0  0
  -35.5776  -61.8322   49.1984 O   0  0  0  0  0  0  0  0  0  0  0  0
  -34.8278  -63.4123   47.6622 N   0  0  0  0  0  0  0  0  0  0  0  0
  -35.0655  -63.3367   46.6475 H   0  0  0  0  0  0  0  0  0  0  0  0
  -33.9391  -63.8221   47.9418 H   0  0  0  0  0  0  0  0  0  0  0  0
  -38.2222  -68.6633   50.1325 C   0  0  0  0  0  0  0  0  0  0  0  0
  -33.8736  -65.7667   49.9659 Cl  0  0  0  0  0  0  0  0  0  0  0  0
  -34.7886  -67.1737   50.5008 C   0  0  0  0  0  0  0  0  0  0  0  0
  -36.0896  -67.4026   50.1516 C   0  0  0  0  0  0  0  0  0  0  0  0
  -36.8140  -68.5223   50.5879 C   0  0  0  0  0  0  0  0  0  0  0  0
  -36.1680  -69.4093   51.3942 C   0  0  0  0  0  0  0  0  0  0  0  0
  -34.8470  -69.1817   51.7509 C   0  0  0  0  0  0  0  0  0  0  0  0
  -34.1424  -68.0771   51.3169 C   0  0  0  0  0  0  0  0  0  0  0  0
 27 28  1  0  0  0
 28 29  2  0  0  0
 28 33  1  0  0  0
 29 30  1  0  0  0
 30 31  2  0  0  0
 30 26  1  0  0  0
 31 32  1  0  0  0
 32 33  2  0  0  0
 26  1  1  0  0  0
  1  2  1  0  0  0
  1  5  1  0  0  0
  2  3  2  0  0  0
  2 10  1  0  0  0
  3  4  1  0  0  0
  3  6  1  0  0  0
  4  5  2  0  0  0
  5 14  1  0  0  0
 14 15  1  0  0  0
 14 19  1  0  0  0
 15 16  1  0  0  0
 16 17  1  0  0  0
 17 18  1  0  0  0
 17 20  1  0  0  0
 18 19  1  0  0  0
 20 21  1  0  0  0
 21 22  2  0  0  0
 21 23  1  0  0  0
  6  7  1  0  0  0
  6 12  1  0  0  0
  7  8  2  0  0  0
  7  9  1  0  0  0
  9 10  1  0  0  0
 10 11  2  0  0  0
 23 24  1  0  0  0
 23 25  1  0  0  0
  9 13  1  0  0  0
M  END
> <minimizedAffinity>
-8.56396

$$$$
1865


 29 32  0  0  0  0  0  0  0  0999 V2000
  -35.6081  -67.6319   49.5196 N   0  0  0  0  0  0  0  0  0  0  0  0
  -34.5636  -67.6288   50.5044 C   0  0  0  0  0  0  0  0  0  0  0  0
  -34.4251  -68.5063   51.4193 O   0  0  0  0  0  0  0  0  0  0  0  0
  -33.7229  -66.4987   50.2868 N   0  0  0  0  0  0  0  0  0  0  0  0
  -34.5180  -65.5638   49.5221 C   0  0  0  0  0  0  0  0  0  0  0  0
  -35.4426  -64.8657   50.5018 C   0  0  0  0  0  0  0  0  0  0  0  0
  -36.5485  -64.2354   49.6629 C   0  0  0  0  0  0  0  0  0  0  0  0
  -35.9726  -63.5057   48.5494 N   0  0  0  0  0  0  0  0  0  0  0  0
  -34.5445  -63.3537   48.4584 C   0  0  0  0  0  0  0  0  0  0  0  0
  -33.7501  -64.5868   48.7397 C   0  0  0  0  0  0  0  0  0  0  0  0
  -36.8211  -62.9424   47.5613 C   0  0  0  0  0  0  0  0  0  0  0  0
  -36.3094  -62.3074   46.5842 O   0  0  0  0  0  0  0  0  0  0  0  0
  -35.3647  -66.4794   48.7175 C   0  0  0  0  0  0  0  0  0  0  0  0
  -35.8213  -66.3406   47.5508 O   0  0  0  0  0  0  0  0  0  0  0  0
  -32.7455  -66.3688   50.6085 H   0  0  0  0  0  0  0  0  0  0  0  0
  -38.2699  -63.0454   47.5944 C   0  0  0  0  0  0  0  0  0  0  0  0
  -39.0541  -62.0963   48.1422 N   0  0  0  0  0  0  0  0  0  0  0  0
  -40.3890  -62.2567   48.1384 C   0  0  0  0  0  0  0  0  0  0  0  0
  -40.9995  -63.3648   47.5908 C   0  0  0  0  0  0  0  0  0  0  0  0
  -40.2222  -64.3120   47.0447 N   0  0  0  0  0  0  0  0  0  0  0  0
  -38.8709  -64.1542   47.0458 C   0  0  0  0  0  0  0  0  0  0  0  0
  -36.6807  -68.5856   49.3585 C   0  0  0  0  0  0  0  0  0  0  0  0
  -38.8906  -70.1600   53.8413 Cl  0  0  0  0  0  0  0  0  0  0  0  0
  -38.8035  -69.1178   52.4352 C   0  0  0  0  0  0  0  0  0  0  0  0
  -37.8219  -69.2382   51.4735 C   0  0  0  0  0  0  0  0  0  0  0  0
  -37.7487  -68.4227   50.3675 C   0  0  0  0  0  0  0  0  0  0  0  0
  -38.6879  -67.4326   50.1917 C   0  0  0  0  0  0  0  0  0  0  0  0
  -39.6801  -67.2966   51.1469 C   0  0  0  0  0  0  0  0  0  0  0  0
  -39.7414  -68.1214   52.2511 C   0  0  0  0  0  0  0  0  0  0  0  0
 23 24  1  0  0  0
 24 25  2  0  0  0
 24 29  1  0  0  0
 25 26  1  0  0  0
 26 27  2  0  0  0
 26 22  1  0  0  0
 27 28  1  0  0  0
 28 29  2  0  0  0
 22  1  1  0  0  0
  1  2  1  0  0  0
  1 13  1  0  0  0
  2  3  2  0  0  0
  2  4  1  0  0  0
  4  5  1  0  0  0
  5  6  1  0  0  0
  5 10  1  0  0  0
  5 13  1  0  0  0
  6  7  1  0  0  0
  7  8  1  0  0  0
  8  9  1  0  0  0
  8 11  1  0  0  0
  9 10  1  0  0  0
 11 12  2  0  0  0
 11 16  1  0  0  0
 16 17  2  0  0  0
 16 21  1  0  0  0
 17 18  1  0  0  0
 18 19  2  0  0  0
 19 20  1  0  0  0
 20 21  2  0  0  0
 13 14  2  0  0  0
  4 15  1  0  0  0
M  END
> <minimizedAffinity>
-7.76030

$$$$
1871


 28 31  0  0  0  0  0  0  0  0999 V2000
  -37.9641  -66.7050   48.3070 C   0  0  0  0  0  0  0  0  0  0  0  0
  -38.6880  -67.1583   49.4297 N   0  0  0  0  0  0  0  0  0  0  0  0
  -37.8959  -68.0025   50.2200 C   0  0  0  0  0  0  0  0  0  0  0  0
  -37.9627  -68.7856   51.2686 C   0  0  0  0  0  0  0  0  0  0  0  0
  -36.7885  -69.5136   51.7625 C   0  0  0  0  0  0  0  0  0  0  0  0
  -35.4495  -69.1298   51.3329 C   0  0  0  0  0  0  0  0  0  0  0  0
  -35.3923  -68.0568   50.2742 C   0  0  0  0  0  0  0  0  0  0  0  0
  -36.6070  -67.9864   49.5435 N   0  0  0  0  0  0  0  0  0  0  0  0
  -36.9959  -67.8891   48.1423 C   0  0  0  0  0  0  0  0  0  0  0  0
  -35.8260  -67.6446   47.2846 C   0  0  0  0  0  0  0  0  0  0  0  0
  -38.7659  -66.7312   47.1891 O   0  0  0  0  0  0  0  0  0  0  0  0
  -39.3602  -67.9201   48.9620 H   0  0  0  0  0  0  0  0  0  0  0  0
  -38.5677  -66.0847   46.4869 H   0  0  0  0  0  0  0  0  0  0  0  0
  -34.7826  -61.6420   48.7120 Cl  0  0  0  0  0  0  0  0  0  0  0  0
  -35.7335  -63.1076   48.5601 C   0  0  0  0  0  0  0  0  0  0  0  0
  -36.5319  -63.3501   47.4510 C   0  0  0  0  0  0  0  0  0  0  0  0
  -37.2560  -64.5399   47.4049 C   0  0  0  0  0  0  0  0  0  0  0  0
  -37.2006  -65.4640   48.4150 C   0  0  0  0  0  0  0  0  0  0  0  0
  -36.4064  -65.2264   49.5234 C   0  0  0  0  0  0  0  0  0  0  0  0
  -35.6888  -64.0483   49.5703 C   0  0  0  0  0  0  0  0  0  0  0  0
  -39.6431  -66.3085   49.9781 C   0  0  0  0  0  0  0  0  0  0  0  0
  -40.8730  -66.8614   50.2957 C   0  0  0  0  0  0  0  0  0  0  0  0
  -41.9044  -66.1290   50.8315 C   0  0  0  0  0  0  0  0  0  0  0  0
  -41.7787  -64.7613   51.0960 C   0  0  0  0  0  0  0  0  0  0  0  0
  -40.5511  -64.2398   50.7708 C   0  0  0  0  0  0  0  0  0  0  0  0
  -39.5249  -64.9784   50.2356 C   0  0  0  0  0  0  0  0  0  0  0  0
  -42.8214  -64.0356   51.6388 O   0  0  0  0  0  0  0  0  0  0  0  0
  -43.3881  -64.4418   52.8590 C   0  0  0  0  0  0  0  0  0  0  0  0
 14 15  1  0  0  0
 15 16  2  0  0  0
 15 20  1  0  0  0
 16 17  1  0  0  0
 17 18  2  0  0  0
 18 19  1  0  0  0
 18  1  1  0  0  0
 19 20  2  0  0  0
  1  2  1  0  0  0
  1  9  1  0  0  0
  1 11  1  0  0  0
  2  3  1  0  0  0
  2 21  1  0  0  0
  3  4  2  0  0  0
  3  8  1  0  0  0
  4  5  1  0  0  0
  5  6  1  0  0  0
  6  7  1  0  0  0
  7  8  1  0  0  0
  8  9  1  0  0  0
  9 10  1  0  0  0
 21 22  2  0  0  0
 21 26  1  0  0  0
 22 23  1  0  0  0
 23 24  2  0  0  0
 24 25  1  0  0  0
 24 27  1  0  0  0
 25 26  2  0  0  0
 27 28  1  0  0  0
  2 12  1  0  0  0
 11 13  1  0  0  0
M  CHG 1   2   1
M  END
> <minimizedAffinity>
-8.12089

$$$$
1893


 28 31  0  0  0  0  0  0  0  0999 V2000
  -41.7194  -67.4651   52.9115 N   0  0  0  0  0  0  0  0  0  0  0  0
  -40.8335  -68.0812   52.0940 C   0  0  0  0  0  0  0  0  0  0  0  0
  -40.7830  -67.9009   50.8491 O   0  0  0  0  0  0  0  0  0  0  0  0
  -40.0025  -68.9262   52.8104 C   0  0  0  0  0  0  0  0  0  0  0  0
  -40.3835  -68.8267   54.0740 C   0  0  0  0  0  0  0  0  0  0  0  0
  -39.5718  -69.6514   54.7691 N   0  0  0  0  0  0  0  0  0  0  0  0
  -38.7173  -70.2351   53.9178 N   0  0  0  0  0  0  0  0  0  0  0  0
  -38.9777  -69.7904   52.6993 N   0  0  0  0  0  0  0  0  0  0  0  0
  -41.4329  -67.9338   54.1382 C   0  0  0  0  0  0  0  0  0  0  0  0
  -42.0143  -67.6241   55.2015 O   0  0  0  0  0  0  0  0  0  0  0  0
  -39.6109  -69.8035   55.7938 H   0  0  0  0  0  0  0  0  0  0  0  0
  -37.9645  -70.9232   54.1312 H   0  0  0  0  0  0  0  0  0  0  0  0
  -45.9656  -63.5852   51.3442 Cl  0  0  0  0  0  0  0  0  0  0  0  0
  -44.6839  -64.7133   51.8011 C   0  0  0  0  0  0  0  0  0  0  0  0
  -43.3563  -64.3496   51.7139 C   0  0  0  0  0  0  0  0  0  0  0  0
  -42.3984  -65.2752   52.0856 C   0  0  0  0  0  0  0  0  0  0  0  0
  -42.7164  -66.5389   52.5372 C   0  0  0  0  0  0  0  0  0  0  0  0
  -44.0557  -66.8653   52.6111 C   0  0  0  0  0  0  0  0  0  0  0  0
  -45.0537  -65.9657   52.2474 C   0  0  0  0  0  0  0  0  0  0  0  0
  -38.2943  -70.1567   51.4769 C   0  0  0  0  0  0  0  0  0  0  0  0
  -37.1698  -69.2470   51.1451 C   0  0  0  0  0  0  0  0  0  0  0  0
  -37.2816  -68.1473   50.3240 C   0  0  0  0  0  0  0  0  0  0  0  0
  -36.2329  -67.3028   50.0188 C   0  0  0  0  0  0  0  0  0  0  0  0
  -34.9964  -67.5625   50.5584 C   0  0  0  0  0  0  0  0  0  0  0  0
  -34.8391  -68.6506   51.3845 C   0  0  0  0  0  0  0  0  0  0  0  0
  -35.9085  -69.4818   51.6741 C   0  0  0  0  0  0  0  0  0  0  0  0
  -36.4556  -66.2108   49.1706 O   0  0  0  0  0  0  0  0  0  0  0  0
  -37.7058  -65.5534   49.1262 C   0  0  0  0  0  0  0  0  0  0  0  0
 13 14  1  0  0  0
 14 15  2  0  0  0
 14 19  1  0  0  0
 15 16  1  0  0  0
 16 17  2  0  0  0
 17 18  1  0  0  0
 17  1  1  0  0  0
 18 19  2  0  0  0
  1  2  1  0  0  0
  1  9  1  0  0  0
  2  3  2  0  0  0
  2  4  1  0  0  0
  4  5  2  0  0  0
  4  8  1  0  0  0
  5  6  1  0  0  0
  5  9  1  0  0  0
  6  7  1  0  0  0
  7  8  1  0  0  0
  8 20  1  0  0  0
 20 21  1  0  0  0
 21 22  2  0  0  0
 21 26  1  0  0  0
 22 23  1  0  0  0
 23 24  2  0  0  0
 23 27  1  0  0  0
 24 25  1  0  0  0
 25 26  2  0  0  0
 27 28  1  0  0  0
  9 10  2  0  0  0
  6 11  1  0  0  0
  7 12  1  0  0  0
M  END
> <minimizedAffinity>
-8.24776

$$$$
1894


 26 29  0  0  0  0  0  0  0  0999 V2000
  -41.7265  -67.4266   52.8416 N   0  0  0  0  0  0  0  0  0  0  0  0
  -40.8328  -68.0104   52.0118 C   0  0  0  0  0  0  0  0  0  0  0  0
  -40.7929  -67.8174   50.7786 O   0  0  0  0  0  0  0  0  0  0  0  0
  -39.9768  -68.8437   52.7120 C   0  0  0  0  0  0  0  0  0  0  0  0
  -40.3582  -68.7643   53.9950 C   0  0  0  0  0  0  0  0  0  0  0  0
  -39.5201  -69.5745   54.6655 N   0  0  0  0  0  0  0  0  0  0  0  0
  -38.6649  -70.1235   53.8223 N   0  0  0  0  0  0  0  0  0  0  0  0
  -38.9330  -69.6831   52.6118 N   0  0  0  0  0  0  0  0  0  0  0  0
  -41.4270  -67.8957   54.0592 C   0  0  0  0  0  0  0  0  0  0  0  0
  -42.0373  -67.5872   55.1194 O   0  0  0  0  0  0  0  0  0  0  0  0
  -39.5165  -69.7633   55.6891 H   0  0  0  0  0  0  0  0  0  0  0  0
  -37.8888  -70.8060   54.0695 H   0  0  0  0  0  0  0  0  0  0  0  0
  -46.1128  -63.5817   51.3907 Cl  0  0  0  0  0  0  0  0  0  0  0  0
  -44.8226  -64.7039   51.8144 C   0  0  0  0  0  0  0  0  0  0  0  0
  -45.1038  -65.9788   52.2579 C   0  0  0  0  0  0  0  0  0  0  0  0
  -44.0932  -66.8608   52.5908 C   0  0  0  0  0  0  0  0  0  0  0  0
  -42.7632  -66.5101   52.4956 C   0  0  0  0  0  0  0  0  0  0  0  0
  -42.4911  -65.2297   52.0491 C   0  0  0  0  0  0  0  0  0  0  0  0
  -43.4950  -64.3416   51.7146 C   0  0  0  0  0  0  0  0  0  0  0  0
  -38.2493  -70.0287   51.3877 C   0  0  0  0  0  0  0  0  0  0  0  0
  -37.0782  -69.1737   51.0977 C   0  0  0  0  0  0  0  0  0  0  0  0
  -37.2130  -68.0997   50.2524 C   0  0  0  0  0  0  0  0  0  0  0  0
  -36.1098  -67.3196   49.9934 C   0  0  0  0  0  0  0  0  0  0  0  0
  -34.8801  -67.5951   50.5638 C   0  0  0  0  0  0  0  0  0  0  0  0
  -34.7436  -68.6716   51.4107 C   0  0  0  0  0  0  0  0  0  0  0  0
  -35.8496  -69.4367   51.6581 C   0  0  0  0  0  0  0  0  0  0  0  0
 13 14  1  0  0  0
 14 15  2  0  0  0
 14 19  1  0  0  0
 15 16  1  0  0  0
 16 17  2  0  0  0
 17 18  1  0  0  0
 17  1  1  0  0  0
 18 19  2  0  0  0
  1  2  1  0  0  0
  1  9  1  0  0  0
  2  3  2  0  0  0
  2  4  1  0  0  0
  4  5  2  0  0  0
  4  8  1  0  0  0
  5  6  1  0  0  0
  5  9  1  0  0  0
  6  7  1  0  0  0
  7  8  1  0  0  0
  8 20  1  0  0  0
 20 21  1  0  0  0
 21 22  2  0  0  0
 21 26  1  0  0  0
 22 23  1  0  0  0
 23 24  2  0  0  0
 24 25  1  0  0  0
 25 26  2  0  0  0
  9 10  2  0  0  0
  6 11  1  0  0  0
  7 12  1  0  0  0
M  END
> <minimizedAffinity>
-8.30721

$$$$
1895


 32 35  0  0  0  0  0  0  0  0999 V2000
  -36.0079  -65.4818   48.6585 N   0  0  0  0  0  0  0  0  0  0  0  0
  -36.9938  -65.3107   49.6534 C   0  0  0  0  0  0  0  0  0  0  0  0
  -37.6090  -63.9097   49.4545 C   0  0  0  0  0  0  0  0  0  0  0  0
  -38.3424  -64.0413   48.2215 N   0  0  0  0  0  0  0  0  0  0  0  0
  -37.4513  -64.2530   47.0598 C   0  0  0  0  0  0  0  0  0  0  0  0
  -36.3014  -65.1327   47.3324 C   0  0  0  0  0  0  0  0  0  0  0  0
  -39.7174  -63.9963   47.9994 C   0  0  0  0  0  0  0  0  0  0  0  0
  -40.0387  -64.1653   46.7312 O   0  0  0  0  0  0  0  0  0  0  0  0
  -35.0262  -66.8654   48.8527 S   0  0  0  0  0  0  0  0  0  0  0  0
  -34.7677  -67.6133   47.6049 O   0  0  0  0  0  0  0  0  0  0  0  0
  -33.7043  -66.4230   49.4333 O   0  0  0  0  0  0  0  0  0  0  0  0
  -35.8290  -67.9178   50.0309 C   0  0  0  0  0  0  0  0  0  0  0  0
  -37.4773  -68.3122   50.1972 S   0  0  0  0  0  0  0  0  0  0  0  0
  -37.3764  -69.3501   51.5426 C   0  0  0  0  0  0  0  0  0  0  0  0
  -36.0366  -69.3606   51.8301 C   0  0  0  0  0  0  0  0  0  0  0  0
  -35.2400  -68.6163   51.0432 C   0  0  0  0  0  0  0  0  0  0  0  0
  -38.6849  -70.2082   52.3710 Cl  0  0  0  0  0  0  0  0  0  0  0  0
  -40.8738  -63.8103   48.8373 C   0  0  0  0  0  0  0  0  0  0  0  0
  -41.3239  -64.9118   49.6326 N   0  0  0  0  0  0  0  0  0  0  0  0
  -41.0726  -66.2917   49.3616 C   0  0  0  0  0  0  0  0  0  0  0  0
  -40.4181  -66.7042   48.3446 O   0  0  0  0  0  0  0  0  0  0  0  0
  -41.6628  -67.0575   50.3901 N   0  0  0  0  0  0  0  0  0  0  0  0
  -41.9406  -66.1736   51.5116 C   0  0  0  0  0  0  0  0  0  0  0  0
  -43.2030  -66.4840   52.2365 C   0  0  0  0  0  0  0  0  0  0  0  0
  -42.9855  -66.1359   53.7131 C   0  0  0  0  0  0  0  0  0  0  0  0
  -42.0784  -67.2173   54.2680 C   0  0  0  0  0  0  0  0  0  0  0  0
  -40.9066  -67.4072   53.3362 C   0  0  0  0  0  0  0  0  0  0  0  0
  -40.7260  -66.2123   52.4113 C   0  0  0  0  0  0  0  0  0  0  0  0
  -44.3918  -65.6679   51.7845 C   0  0  0  0  0  0  0  0  0  0  0  0
  -42.0792  -64.8446   50.8443 C   0  0  0  0  0  0  0  0  0  0  0  0
  -42.7255  -63.8633   51.2593 O   0  0  0  0  0  0  0  0  0  0  0  0
  -41.8708  -68.0676   50.3742 H   0  0  0  0  0  0  0  0  0  0  0  0
  9 10  2  0  0  0
  9 11  2  0  0  0
  9  1  1  0  0  0
  9 12  1  0  0  0
  1  2  1  0  0  0
  1  6  1  0  0  0
  2  3  1  0  0  0
  3  4  1  0  0  0
  4  5  1  0  0  0
  4  7  1  0  0  0
  5  6  1  0  0  0
  7  8  2  0  0  0
  7 18  1  0  0  0
 18 19  1  0  0  0
 19 20  1  0  0  0
 19 30  1  0  0  0
 20 21  2  0  0  0
 20 22  1  0  0  0
 22 23  1  0  0  0
 23 24  1  0  0  0
 23 28  1  0  0  0
 23 30  1  0  0  0
 24 25  1  0  0  0
 24 29  1  0  0  0
 25 26  1  0  0  0
 26 27  1  0  0  0
 27 28  1  0  0  0
 30 31  2  0  0  0
 12 13  1  0  0  0
 12 16  2  0  0  0
 13 14  1  0  0  0
 14 15  2  0  0  0
 14 17  1  0  0  0
 15 16  1  0  0  0
 22 32  1  0  0  0
M  END
> <minimizedAffinity>
-8.72657

$$$$
1906


 33 36  0  0  0  0  0  0  0  0999 V2000
  -36.9520  -65.7328   48.9087 C   0  0  0  0  0  0  0  0  0  0  0  0
  -36.0892  -66.3269   49.8410 O   0  0  0  0  0  0  0  0  0  0  0  0
  -35.1529  -67.1632   49.2978 C   0  0  0  0  0  0  0  0  0  0  0  0
  -34.0730  -66.4529   48.5068 C   0  0  0  0  0  0  0  0  0  0  0  0
  -34.8044  -65.3698   47.8002 N   0  0  0  0  0  0  0  0  0  0  0  0
  -36.1748  -65.6308   47.5832 C   0  0  0  0  0  0  0  0  0  0  0  0
  -34.0997  -64.2430   47.4308 C   0  0  0  0  0  0  0  0  0  0  0  0
  -32.8313  -64.1466   47.6987 O   0  0  0  0  0  0  0  0  0  0  0  0
  -34.6537  -63.1140   46.7479 C   0  0  0  0  0  0  0  0  0  0  0  0
  -34.9394  -63.1017   45.4458 N   0  0  0  0  0  0  0  0  0  0  0  0
  -35.4617  -62.0426   44.7962 C   0  0  0  0  0  0  0  0  0  0  0  0
  -35.7298  -60.8790   45.4994 C   0  0  0  0  0  0  0  0  0  0  0  0
  -35.4599  -60.8543   46.7944 N   0  0  0  0  0  0  0  0  0  0  0  0
  -34.9391  -61.9216   47.4218 C   0  0  0  0  0  0  0  0  0  0  0  0
  -36.3039  -59.7450   44.7339 C   0  0  0  0  0  0  0  0  0  0  0  0
  -38.0435  -66.7353   48.6642 C   0  0  0  0  0  0  0  0  0  0  0  0
  -38.7949  -67.1780   49.6468 O   0  0  0  0  0  0  0  0  0  0  0  0
  -41.5434  -68.4943   53.7182 Cl  0  0  0  0  0  0  0  0  0  0  0  0
  -40.1688  -68.6636   52.6261 C   0  0  0  0  0  0  0  0  0  0  0  0
  -40.0531  -67.8205   51.5545 C   0  0  0  0  0  0  0  0  0  0  0  0
  -38.9950  -67.9298   50.6891 C   0  0  0  0  0  0  0  0  0  0  0  0
  -38.0458  -68.9381   50.9480 C   0  0  0  0  0  0  0  0  0  0  0  0
  -38.1768  -69.7643   52.0146 C   0  0  0  0  0  0  0  0  0  0  0  0
  -39.2348  -69.6512   52.8782 C   0  0  0  0  0  0  0  0  0  0  0  0
  -37.3563  -64.4270   49.4214 C   0  0  0  0  0  0  0  0  0  0  0  0
  -38.3539  -63.6585   48.6746 C   0  0  0  0  0  0  0  0  0  0  0  0
  -38.0722  -63.1339   47.5807 O   0  0  0  0  0  0  0  0  0  0  0  0
  -39.6779  -63.4826   49.1693 N   0  0  0  0  0  0  0  0  0  0  0  0
  -40.0985  -64.0586   50.4420 C   0  0  0  0  0  0  0  0  0  0  0  0
  -41.4266  -64.7448   50.2015 C   0  0  0  0  0  0  0  0  0  0  0  0
  -42.3363  -63.8057   49.7058 O   0  0  0  0  0  0  0  0  0  0  0  0
  -41.9626  -63.4694   48.4053 C   0  0  0  0  0  0  0  0  0  0  0  0
  -40.6688  -62.7225   48.4363 C   0  0  0  0  0  0  0  0  0  0  0  0
 18 19  1  0  0  0
 19 20  2  0  0  0
 19 24  1  0  0  0
 20 21  1  0  0  0
 21 22  2  0  0  0
 21 17  1  0  0  0
 22 23  1  0  0  0
 23 24  2  0  0  0
 17 16  1  0  0  0
 16  1  1  0  0  0
  1  2  1  0  0  0
  1  6  1  0  0  0
  1 25  1  0  0  0
  2  3  1  0  0  0
  3  4  1  0  0  0
  4  5  1  0  0  0
  5  6  1  0  0  0
  5  7  1  0  0  0
  7  8  2  0  0  0
  7  9  1  0  0  0
  9 10  2  0  0  0
  9 14  1  0  0  0
 10 11  1  0  0  0
 11 12  2  0  0  0
 12 13  1  0  0  0
 12 15  1  0  0  0
 13 14  2  0  0  0
 25 26  1  0  0  0
 26 27  2  0  0  0
 26 28  1  0  0  0
 28 29  1  0  0  0
 28 33  1  0  0  0
 29 30  1  0  0  0
 30 31  1  0  0  0
 31 32  1  0  0  0
 32 33  1  0  0  0
M  END
> <minimizedAffinity>
-7.59113

$$$$
1913


 29 32  0  0  0  0  0  0  0  0999 V2000
  -40.6956  -66.5885   51.2454 N   0  0  0  0  0  0  0  0  0  0  0  0
  -40.4151  -65.1887   51.4674 C   0  0  0  0  0  0  0  0  0  0  0  0
  -40.4758  -64.3606   50.2120 C   0  0  0  0  0  0  0  0  0  0  0  0
  -39.7537  -65.0651   49.1165 C   0  0  0  0  0  0  0  0  0  0  0  0
  -40.4474  -66.3437   48.7939 C   0  0  0  0  0  0  0  0  0  0  0  0
  -40.8944  -67.1613   49.9498 C   0  0  0  0  0  0  0  0  0  0  0  0
  -38.5632  -70.2171   54.0881 Cl  0  0  0  0  0  0  0  0  0  0  0  0
  -39.8580  -69.1200   53.7358 C   0  0  0  0  0  0  0  0  0  0  0  0
  -40.9372  -69.0887   54.5200 N   0  0  0  0  0  0  0  0  0  0  0  0
  -41.9633  -68.2636   54.2939 C   0  0  0  0  0  0  0  0  0  0  0  0
  -43.1105  -68.0569   54.9284 N   0  0  0  0  0  0  0  0  0  0  0  0
  -43.7326  -67.0945   54.2353 C   0  0  0  0  0  0  0  0  0  0  0  0
  -43.0100  -66.6878   53.1835 N   0  0  0  0  0  0  0  0  0  0  0  0
  -41.8773  -67.4090   53.1854 C   0  0  0  0  0  0  0  0  0  0  0  0
  -40.7750  -67.4316   52.3730 C   0  0  0  0  0  0  0  0  0  0  0  0
  -39.7729  -68.3076   52.6784 N   0  0  0  0  0  0  0  0  0  0  0  0
  -43.2395  -65.9520   52.4748 H   0  0  0  0  0  0  0  0  0  0  0  0
  -38.3175  -65.1888   49.3711 C   0  0  0  0  0  0  0  0  0  0  0  0
  -37.8074  -66.3357   49.3762 O   0  0  0  0  0  0  0  0  0  0  0  0
  -37.4779  -64.0819   49.6121 N   0  0  0  0  0  0  0  0  0  0  0  0
  -37.9085  -63.1118   49.6070 H   0  0  0  0  0  0  0  0  0  0  0  0
  -36.0596  -64.1891   49.8648 C   0  0  0  0  0  0  0  0  0  0  0  0
  -35.2064  -63.7480   48.7105 C   0  0  0  0  0  0  0  0  0  0  0  0
  -34.1702  -64.7240   48.4243 N   0  0  0  0  0  0  0  0  0  0  0  0
  -34.4496  -65.5130   47.2722 C   0  0  0  0  0  0  0  0  0  0  0  0
  -34.7882  -66.9349   47.6728 C   0  0  0  0  0  0  0  0  0  0  0  0
  -33.6764  -67.4799   48.2650 O   0  0  0  0  0  0  0  0  0  0  0  0
  -33.1452  -66.7785   49.3145 C   0  0  0  0  0  0  0  0  0  0  0  0
  -33.7330  -65.4345   49.5718 C   0  0  0  0  0  0  0  0  0  0  0  0
  7  8  1  0  0  0
  8  9  2  0  0  0
  8 16  1  0  0  0
  9 10  1  0  0  0
 10 11  1  0  0  0
 10 14  2  0  0  0
 11 12  2  0  0  0
 12 13  1  0  0  0
 13 14  1  0  0  0
 14 15  1  0  0  0
 15 16  2  0  0  0
 15  1  1  0  0  0
  1  2  1  0  0  0
  1  6  1  0  0  0
  2  3  1  0  0  0
  3  4  1  0  0  0
  4  5  1  0  0  0
  4 18  1  0  0  0
  5  6  1  0  0  0
 18 19  2  0  0  0
 18 20  1  0  0  0
 20 22  1  0  0  0
 22 23  1  0  0  0
 23 24  1  0  0  0
 24 25  1  0  0  0
 24 29  1  0  0  0
 25 26  1  0  0  0
 26 27  1  0  0  0
 27 28  1  0  0  0
 28 29  1  0  0  0
 13 17  1  0  0  0
 20 21  1  0  0  0
M  END
> <minimizedAffinity>
-7.66696

$$$$
1927


 36 39  0  0  0  0  0  0  0  0999 V2000
  -38.5473  -69.2630   51.3136 C   0  0  0  0  0  0  0  0  0  0  0  0
  -42.7575  -66.6116   52.9132 C   0  0  0  0  0  0  0  0  0  0  0  0
  -42.1067  -66.9923   51.5855 C   0  0  0  0  0  0  0  0  0  0  0  0
  -40.6222  -66.8782   51.8648 C   0  0  0  0  0  0  0  0  0  0  0  0
  -40.2123  -67.8900   52.7735 N   0  0  0  0  0  0  0  0  0  0  0  0
  -40.9136  -67.9065   54.0839 C   0  0  0  0  0  0  0  0  0  0  0  0
  -42.3553  -67.5355   54.0014 C   0  0  0  0  0  0  0  0  0  0  0  0
  -39.2420  -68.8567   52.5446 C   0  0  0  0  0  0  0  0  0  0  0  0
  -38.8524  -69.5353   53.5931 O   0  0  0  0  0  0  0  0  0  0  0  0
  -42.1661  -65.3429   53.2129 O   0  0  0  0  0  0  0  0  0  0  0  0
  -42.0339  -65.3235   54.1931 H   0  0  0  0  0  0  0  0  0  0  0  0
  -48.7771  -66.0412   52.3346 Cl  0  0  0  0  0  0  0  0  0  0  0  0
  -47.0066  -66.1752   52.4976 C   0  0  0  0  0  0  0  0  0  0  0  0
  -46.4426  -67.0588   53.3858 C   0  0  0  0  0  0  0  0  0  0  0  0
  -45.0573  -67.1670   53.5055 C   0  0  0  0  0  0  0  0  0  0  0  0
  -44.1814  -66.3914   52.7346 C   0  0  0  0  0  0  0  0  0  0  0  0
  -44.7816  -65.5201   51.8575 C   0  0  0  0  0  0  0  0  0  0  0  0
  -46.1521  -65.4020   51.7291 C   0  0  0  0  0  0  0  0  0  0  0  0
  -37.4333  -68.5208   50.9149 N   0  0  0  0  0  0  0  0  0  0  0  0
  -37.4412  -67.5028   49.9122 C   0  0  0  0  0  0  0  0  0  0  0  0
  -38.5559  -67.3119   49.3582 O   0  0  0  0  0  0  0  0  0  0  0  0
  -36.5023  -68.6242   51.4002 H   0  0  0  0  0  0  0  0  0  0  0  0
  -36.2499  -66.7673   49.5878 C   0  0  0  0  0  0  0  0  0  0  0  0
  -36.0632  -65.5097   49.3570 C   0  0  0  0  0  0  0  0  0  0  0  0
  -37.1158  -64.5427   49.3784 N   0  0  0  0  0  0  0  0  0  0  0  0
  -36.8796  -63.1718   49.1451 N   0  0  0  0  0  0  0  0  0  0  0  0
  -35.5807  -62.6938   48.8797 C   0  0  0  0  0  0  0  0  0  0  0  0
  -35.4124  -61.4556   48.6785 O   0  0  0  0  0  0  0  0  0  0  0  0
  -34.4828  -63.6404   48.8494 C   0  0  0  0  0  0  0  0  0  0  0  0
  -34.7053  -64.9793   49.0758 C   0  0  0  0  0  0  0  0  0  0  0  0
  -33.6161  -65.8027   49.0576 C   0  0  0  0  0  0  0  0  0  0  0  0
  -32.3162  -65.3388   48.8240 C   0  0  0  0  0  0  0  0  0  0  0  0
  -32.1476  -63.9992   48.6046 C   0  0  0  0  0  0  0  0  0  0  0  0
  -33.2273  -63.1197   48.6122 C   0  0  0  0  0  0  0  0  0  0  0  0
  -38.1059  -64.8289   49.5690 H   0  0  0  0  0  0  0  0  0  0  0  0
  -37.6712  -62.4876   49.1728 H   0  0  0  0  0  0  0  0  0  0  0  0
 12 13  1  0  0  0
 13 14  2  0  0  0
 13 18  1  0  0  0
 14 15  1  0  0  0
 15 16  2  0  0  0
 16 17  1  0  0  0
 16  2  1  0  0  0
 17 18  2  0  0  0
  2  3  1  0  0  0
  2  7  1  0  0  0
  2 10  1  0  0  0
  3  4  1  0  0  0
  4  5  1  0  0  0
  5  6  1  0  0  0
  5  8  1  0  0  0
  6  7  1  0  0  0
  8  9  2  0  0  0
  8  1  1  0  0  0
  1 19  1  0  0  0
 19 20  1  0  0  0
 20 21  2  0  0  0
 20 23  1  0  0  0
 23 24  2  0  0  0
 24 25  1  0  0  0
 24 30  1  0  0  0
 25 26  1  0  0  0
 26 27  1  0  0  0
 27 28  2  0  0  0
 27 29  1  0  0  0
 29 30  2  0  0  0
 29 34  1  0  0  0
 30 31  1  0  0  0
 31 32  2  0  0  0
 32 33  1  0  0  0
 33 34  2  0  0  0
 19 22  1  0  0  0
 25 35  1  0  0  0
 26 36  1  0  0  0
 10 11  1  0  0  0
M  END
> <minimizedAffinity>
-9.59742

$$$$
1928


 28 31  0  0  0  0  0  0  0  0999 V2000
  -40.3400  -66.8757   51.7556 N   0  0  0  0  0  0  0  0  0  0  0  0
  -40.8403  -67.3039   52.9331 C   0  0  0  0  0  0  0  0  0  0  0  0
  -40.3355  -68.4220   53.5469 C   0  0  0  0  0  0  0  0  0  0  0  0
  -39.2371  -69.1555   52.9081 C   0  0  0  0  0  0  0  0  0  0  0  0
  -38.9462  -70.1939   53.7212 N   0  0  0  0  0  0  0  0  0  0  0  0
  -39.7439  -70.1650   54.7693 N   0  0  0  0  0  0  0  0  0  0  0  0
  -40.5940  -69.1289   54.7199 C   0  0  0  0  0  0  0  0  0  0  0  0
  -41.4766  -68.8172   55.5550 O   0  0  0  0  0  0  0  0  0  0  0  0
  -38.7585  -68.6796   51.7057 C   0  0  0  0  0  0  0  0  0  0  0  0
  -39.3433  -67.5556   51.1923 C   0  0  0  0  0  0  0  0  0  0  0  0
  -39.7147  -70.8593   55.5383 H   0  0  0  0  0  0  0  0  0  0  0  0
  -37.6642  -69.3846   51.0389 C   0  0  0  0  0  0  0  0  0  0  0  0
  -37.8536  -70.4845   50.5013 O   0  0  0  0  0  0  0  0  0  0  0  0
  -36.3901  -68.8441   50.9916 O   0  0  0  0  0  0  0  0  0  0  0  0
  -35.2819  -69.3971   51.6610 C   0  0  0  0  0  0  0  0  0  0  0  0
  -40.9181  -65.6768   51.1460 C   0  0  0  0  0  0  0  0  0  0  0  0
  -44.2597  -65.3957   52.5349 C   0  0  0  0  0  0  0  0  0  0  0  0
  -43.6395  -64.2761   52.9367 N   0  0  0  0  0  0  0  0  0  0  0  0
  -42.4170  -64.2576   52.4974 O   0  0  0  0  0  0  0  0  0  0  0  0
  -42.1982  -65.3472   51.8028 C   0  0  0  0  0  0  0  0  0  0  0  0
  -43.3492  -66.0709   51.8190 N   0  0  0  0  0  0  0  0  0  0  0  0
  -49.9548  -66.9081   53.7954 Cl  0  0  0  0  0  0  0  0  0  0  0  0
  -48.2976  -66.4611   53.4273 C   0  0  0  0  0  0  0  0  0  0  0  0
  -47.9758  -65.1829   53.0083 C   0  0  0  0  0  0  0  0  0  0  0  0
  -46.6650  -64.8506   52.7228 C   0  0  0  0  0  0  0  0  0  0  0  0
  -45.6373  -65.7570   52.8386 C   0  0  0  0  0  0  0  0  0  0  0  0
  -45.9524  -67.0341   53.2554 C   0  0  0  0  0  0  0  0  0  0  0  0
  -47.2632  -67.3785   53.5450 C   0  0  0  0  0  0  0  0  0  0  0  0
 22 23  1  0  0  0
 23 24  2  0  0  0
 23 28  1  0  0  0
 24 25  1  0  0  0
 25 26  2  0  0  0
 26 27  1  0  0  0
 26 17  1  0  0  0
 27 28  2  0  0  0
 17 18  2  0  0  0
 17 21  1  0  0  0
 18 19  1  0  0  0
 19 20  1  0  0  0
 20 21  2  0  0  0
 20 16  1  0  0  0
 16  1  1  0  0  0
  1  2  1  0  0  0
  1 10  1  0  0  0
  2  3  2  0  0  0
  3  4  1  0  0  0
  3  7  1  0  0  0
  4  5  2  0  0  0
  4  9  1  0  0  0
  5  6  1  0  0  0
  6  7  1  0  0  0
  7  8  2  0  0  0
  9 10  2  0  0  0
  9 12  1  0  0  0
 12 13  2  0  0  0
 12 14  1  0  0  0
 14 15  1  0  0  0
  6 11  1  0  0  0
M  END
> <minimizedAffinity>
-8.54696

$$$$
1930


 34 37  0  0  0  0  0  0  0  0999 V2000
  -36.4570  -68.2480   49.8436 C   0  0  0  0  0  0  0  0  0  0  0  0
  -37.2267  -68.6587   48.9375 O   0  0  0  0  0  0  0  0  0  0  0  0
  -35.5113  -67.2480   49.5519 N   0  0  0  0  0  0  0  0  0  0  0  0
  -35.3807  -66.6539   48.2210 C   0  0  0  0  0  0  0  0  0  0  0  0
  -34.0033  -67.0580   47.7345 C   0  0  0  0  0  0  0  0  0  0  0  0
  -32.9376  -66.6338   48.7176 C   0  0  0  0  0  0  0  0  0  0  0  0
  -33.5611  -65.8368   49.8695 C   0  0  0  0  0  0  0  0  0  0  0  0
  -34.5913  -66.7247   50.5469 C   0  0  0  0  0  0  0  0  0  0  0  0
  -32.3294  -67.7436   49.3536 O   0  0  0  0  0  0  0  0  0  0  0  0
  -31.8213  -65.8483   48.0988 C   0  0  0  0  0  0  0  0  0  0  0  0
  -31.5403  -67.3824   49.8270 H   0  0  0  0  0  0  0  0  0  0  0  0
  -33.7318  -66.7192   46.3821 N   0  0  0  0  0  0  0  0  0  0  0  0
  -34.0195  -65.4812   45.8831 C   0  0  0  0  0  0  0  0  0  0  0  0
  -33.7576  -65.1508   44.5704 C   0  0  0  0  0  0  0  0  0  0  0  0
  -33.1911  -66.0878   43.7351 C   0  0  0  0  0  0  0  0  0  0  0  0
  -32.9329  -65.8211   42.5123 O   0  0  0  0  0  0  0  0  0  0  0  0
  -32.9112  -67.3046   44.2335 N   0  0  0  0  0  0  0  0  0  0  0  0
  -33.1887  -67.5853   45.5397 C   0  0  0  0  0  0  0  0  0  0  0  0
  -32.9061  -68.7341   45.9476 O   0  0  0  0  0  0  0  0  0  0  0  0
  -34.0573  -63.8152   43.9968 C   0  0  0  0  0  0  0  0  0  0  0  0
  -32.4841  -68.0130   43.6084 H   0  0  0  0  0  0  0  0  0  0  0  0
  -36.5697  -68.8353   51.2007 C   0  0  0  0  0  0  0  0  0  0  0  0
  -37.7719  -69.7041   51.3786 C   0  0  0  0  0  0  0  0  0  0  0  0
  -43.7516  -65.4681   53.7977 Cl  0  0  0  0  0  0  0  0  0  0  0  0
  -42.4498  -66.6434   53.6911 C   0  0  0  0  0  0  0  0  0  0  0  0
  -41.6351  -66.7572   52.5935 C   0  0  0  0  0  0  0  0  0  0  0  0
  -40.6100  -67.6874   52.5176 C   0  0  0  0  0  0  0  0  0  0  0  0
  -39.6821  -68.0222   51.6055 N   0  0  0  0  0  0  0  0  0  0  0  0
  -38.9085  -69.0271   52.0505 C   0  0  0  0  0  0  0  0  0  0  0  0
  -39.3890  -69.3187   53.2938 N   0  0  0  0  0  0  0  0  0  0  0  0
  -40.4192  -68.5213   53.5996 C   0  0  0  0  0  0  0  0  0  0  0  0
  -41.2150  -68.4405   54.7227 C   0  0  0  0  0  0  0  0  0  0  0  0
  -42.2322  -67.4927   54.7554 C   0  0  0  0  0  0  0  0  0  0  0  0
  -38.8047  -70.3731   54.1204 C   0  0  0  0  0  0  0  0  0  0  0  0
 24 25  1  0  0  0
 25 26  2  0  0  0
 25 33  1  0  0  0
 26 27  1  0  0  0
 27 28  1  0  0  0
 27 31  2  0  0  0
 28 29  2  0  0  0
 29 30  1  0  0  0
 29 23  1  0  0  0
 30 31  1  0  0  0
 30 34  1  0  0  0
 31 32  1  0  0  0
 32 33  2  0  0  0
 23 22  1  0  0  0
 22  1  1  0  0  0
  1  2  2  0  0  0
  1  3  1  0  0  0
  3  4  1  0  0  0
  3  8  1  0  0  0
  4  5  1  0  0  0
  5  6  1  0  0  0
  5 12  1  0  0  0
  6  7  1  0  0  0
  6  9  1  0  0  0
  6 10  1  0  0  0
  7  8  1  0  0  0
 12 13  1  0  0  0
 12 18  1  0  0  0
 13 14  2  0  0  0
 14 15  1  0  0  0
 14 20  1  0  0  0
 15 16  2  0  0  0
 15 17  1  0  0  0
 17 18  1  0  0  0
 18 19  2  0  0  0
  9 11  1  0  0  0
 17 21  1  0  0  0
M  END
> <minimizedAffinity>
-8.95513

$$$$
1936


 25 28  0  0  0  0  0  0  0  0999 V2000
  -36.6317  -68.0419   49.9291 N   0  0  0  0  0  0  0  0  0  0  0  0
  -35.3120  -67.5532   49.9750 C   0  0  0  0  0  0  0  0  0  0  0  0
  -34.4590  -68.2481   50.5531 O   0  0  0  0  0  0  0  0  0  0  0  0
  -37.3661  -67.4722   49.4476 H   0  0  0  0  0  0  0  0  0  0  0  0
  -34.9124  -66.2695   49.3728 C   0  0  0  0  0  0  0  0  0  0  0  0
  -35.5156  -65.0546   49.9618 C   0  0  0  0  0  0  0  0  0  0  0  0
  -34.1113  -65.3259   50.3327 C   0  0  0  0  0  0  0  0  0  0  0  0
  -34.3646  -66.2454   48.0495 N   0  0  0  0  0  0  0  0  0  0  0  0
  -35.2903  -66.2493   46.9866 C   0  0  0  0  0  0  0  0  0  0  0  0
  -35.4276  -67.6858   46.4969 C   0  0  0  0  0  0  0  0  0  0  0  0
  -34.2654  -68.0872   45.8821 O   0  0  0  0  0  0  0  0  0  0  0  0
  -33.1205  -67.5063   46.3680 C   0  0  0  0  0  0  0  0  0  0  0  0
  -33.2526  -67.0711   47.8133 C   0  0  0  0  0  0  0  0  0  0  0  0
  -37.0220  -69.3062   50.5254 C   0  0  0  0  0  0  0  0  0  0  0  0
  -43.0993  -67.0715   54.7526 Cl  0  0  0  0  0  0  0  0  0  0  0  0
  -41.6425  -67.9117   54.2260 C   0  0  0  0  0  0  0  0  0  0  0  0
  -41.0331  -67.6382   53.0130 C   0  0  0  0  0  0  0  0  0  0  0  0
  -39.8951  -68.2720   52.5637 C   0  0  0  0  0  0  0  0  0  0  0  0
  -39.1221  -68.2036   51.4654 N   0  0  0  0  0  0  0  0  0  0  0  0
  -38.1019  -69.0783   51.5463 C   0  0  0  0  0  0  0  0  0  0  0  0
  -38.2529  -69.7016   52.7259 N   0  0  0  0  0  0  0  0  0  0  0  0
  -39.3331  -69.2478   53.3920 C   0  0  0  0  0  0  0  0  0  0  0  0
  -39.9281  -69.5298   54.5995 C   0  0  0  0  0  0  0  0  0  0  0  0
  -41.0612  -68.8878   55.0297 C   0  0  0  0  0  0  0  0  0  0  0  0
  -37.6093  -70.4448   53.0808 H   0  0  0  0  0  0  0  0  0  0  0  0
 15 16  1  0  0  0
 16 17  2  0  0  0
 16 24  1  0  0  0
 17 18  1  0  0  0
 18 19  1  0  0  0
 18 22  2  0  0  0
 19 20  2  0  0  0
 20 21  1  0  0  0
 20 14  1  0  0  0
 21 22  1  0  0  0
 22 23  1  0  0  0
 23 24  2  0  0  0
 14  1  1  0  0  0
  1  2  1  0  0  0
  2  3  2  0  0  0
  2  5  1  0  0  0
  5  6  1  0  0  0
  5  7  1  0  0  0
  5  8  1  0  0  0
  6  7  1  0  0  0
  8  9  1  0  0  0
  8 13  1  0  0  0
  9 10  1  0  0  0
 10 11  1  0  0  0
 11 12  1  0  0  0
 12 13  1  0  0  0
 21 25  1  0  0  0
  1  4  1  0  0  0
M  END
> <minimizedAffinity>
-7.61731

$$$$
1937


 31 34  0  0  0  0  0  0  0  0999 V2000
  -39.5295  -65.1106   48.7615 N   0  0  0  0  0  0  0  0  0  0  0  0
  -39.4924  -66.4244   48.3127 C   0  0  0  0  0  0  0  0  0  0  0  0
  -38.1008  -66.6275   47.5761 C   0  0  0  0  0  0  0  0  0  0  0  0
  -37.2806  -65.6898   48.2960 N   0  0  0  0  0  0  0  0  0  0  0  0
  -37.4684  -64.3084   47.7641 C   0  0  0  0  0  0  0  0  0  0  0  0
  -38.9656  -64.1866   47.7151 C   0  0  0  0  0  0  0  0  0  0  0  0
  -36.3821  -66.0089   49.2695 C   0  0  0  0  0  0  0  0  0  0  0  0
  -36.0844  -65.1027   50.1210 O   0  0  0  0  0  0  0  0  0  0  0  0
  -35.6600  -67.3050   49.4671 C   0  0  0  0  0  0  0  0  0  0  0  0
  -35.0188  -67.5536   48.1732 O   0  0  0  0  0  0  0  0  0  0  0  0
  -34.5804  -66.3265   47.5959 C   0  0  0  0  0  0  0  0  0  0  0  0
  -34.1300  -65.3551   48.4503 C   0  0  0  0  0  0  0  0  0  0  0  0
  -33.6891  -64.1223   47.9815 C   0  0  0  0  0  0  0  0  0  0  0  0
  -33.7303  -63.9354   46.6046 C   0  0  0  0  0  0  0  0  0  0  0  0
  -34.1688  -64.8939   45.7178 C   0  0  0  0  0  0  0  0  0  0  0  0
  -34.5957  -66.1059   46.2232 C   0  0  0  0  0  0  0  0  0  0  0  0
  -34.1134  -65.6103   49.8261 O   0  0  0  0  0  0  0  0  0  0  0  0
  -34.4392  -66.9234   50.3473 C   0  0  0  0  0  0  0  0  0  0  0  0
  -40.7302  -64.4779   49.2524 C   0  0  0  0  0  0  0  0  0  0  0  0
  -41.3061  -65.9885   51.1652 N   0  0  0  0  0  0  0  0  0  0  0  0
  -40.7904  -64.7563   50.7581 C   0  0  0  0  0  0  0  0  0  0  0  0
  -40.3867  -63.9285   51.5327 O   0  0  0  0  0  0  0  0  0  0  0  0
  -41.8446  -66.5244   50.3952 H   0  0  0  0  0  0  0  0  0  0  0  0
  -41.2875  -66.5426   52.4704 C   0  0  0  0  0  0  0  0  0  0  0  0
  -41.3802  -67.8734   55.0881 Cl  0  0  0  0  0  0  0  0  0  0  0  0
  -40.3877  -68.4397   53.7661 C   0  0  0  0  0  0  0  0  0  0  0  0
  -40.3292  -67.6703   52.6098 C   0  0  0  0  0  0  0  0  0  0  0  0
  -39.4986  -68.1208   51.6181 C   0  0  0  0  0  0  0  0  0  0  0  0
  -38.7677  -69.2936   51.7670 C   0  0  0  0  0  0  0  0  0  0  0  0
  -38.8244  -70.0762   52.9386 C   0  0  0  0  0  0  0  0  0  0  0  0
  -39.6624  -69.5763   53.9149 C   0  0  0  0  0  0  0  0  0  0  0  0
 25 26  1  0  0  0
 26 27  2  0  0  0
 26 31  1  0  0  0
 27 28  1  0  0  0
 27 24  1  0  0  0
 28 29  2  0  0  0
 29 30  1  0  0  0
 30 31  2  0  0  0
 24 20  1  0  0  0
 20 21  1  0  0  0
 21 22  2  0  0  0
 21 19  1  0  0  0
 19  1  1  0  0  0
  1  2  1  0  0  0
  1  6  1  0  0  0
  2  3  1  0  0  0
  3  4  1  0  0  0
  4  5  1  0  0  0
  4  7  1  0  0  0
  5  6  1  0  0  0
  7  8  2  0  0  0
  7  9  1  0  0  0
  9 10  1  0  0  0
  9 18  1  0  0  0
 10 11  1  0  0  0
 11 12  2  0  0  0
 11 16  1  0  0  0
 12 13  1  0  0  0
 12 17  1  0  0  0
 13 14  2  0  0  0
 14 15  1  0  0  0
 15 16  2  0  0  0
 17 18  1  0  0  0
 20 23  1  0  0  0
M  END
> <minimizedAffinity>
-8.15663

$$$$
1939


 28 31  0  0  0  0  0  0  0  0999 V2000
  -38.7962  -67.2343   50.0031 N   0  0  0  0  0  0  0  0  0  0  0  0
  -37.6553  -67.8723   50.4051 C   0  0  0  0  0  0  0  0  0  0  0  0
  -36.5632  -67.1021   50.1137 C   0  0  0  0  0  0  0  0  0  0  0  0
  -37.0670  -66.0166   49.5418 N   0  0  0  0  0  0  0  0  0  0  0  0
  -38.4358  -66.0705   49.4602 C   0  0  0  0  0  0  0  0  0  0  0  0
  -35.3134  -67.5087   50.4029 N   0  0  0  0  0  0  0  0  0  0  0  0
  -35.1181  -68.7142   50.9988 C   0  0  0  0  0  0  0  0  0  0  0  0
  -33.9389  -69.0504   51.2494 O   0  0  0  0  0  0  0  0  0  0  0  0
  -36.1594  -69.5069   51.3048 N   0  0  0  0  0  0  0  0  0  0  0  0
  -37.4006  -69.0914   51.0112 C   0  0  0  0  0  0  0  0  0  0  0  0
  -38.3353  -69.8655   51.3140 O   0  0  0  0  0  0  0  0  0  0  0  0
  -34.2114  -66.6275   50.0595 C   0  0  0  0  0  0  0  0  0  0  0  0
  -35.9556  -70.4206   51.7607 H   0  0  0  0  0  0  0  0  0  0  0  0
  -39.2024  -65.0363   48.8795 N   0  0  0  0  0  0  0  0  0  0  0  0
  -39.7785  -64.0379   49.7701 C   0  0  0  0  0  0  0  0  0  0  0  0
  -39.6909  -62.7369   48.9515 C   0  0  0  0  0  0  0  0  0  0  0  0
  -38.5240  -62.7230   48.0979 N   0  0  0  0  0  0  0  0  0  0  0  0
  -38.5590  -63.7082   47.0384 C   0  0  0  0  0  0  0  0  0  0  0  0
  -39.4981  -64.8074   47.5132 C   0  0  0  0  0  0  0  0  0  0  0  0
  -38.4908  -61.7895   47.6550 H   0  0  0  0  0  0  0  0  0  0  0  0
  -40.1061  -67.8044   50.1766 C   0  0  0  0  0  0  0  0  0  0  0  0
  -43.4366  -66.0695   54.8895 Cl  0  0  0  0  0  0  0  0  0  0  0  0
  -42.4793  -66.5444   53.5037 C   0  0  0  0  0  0  0  0  0  0  0  0
  -41.3940  -67.3444   53.7019 C   0  0  0  0  0  0  0  0  0  0  0  0
  -40.6038  -67.7459   52.6204 C   0  0  0  0  0  0  0  0  0  0  0  0
  -40.8678  -67.3699   51.3446 C   0  0  0  0  0  0  0  0  0  0  0  0
  -41.9922  -66.5473   51.1755 C   0  0  0  0  0  0  0  0  0  0  0  0
  -42.7831  -66.1399   52.2242 C   0  0  0  0  0  0  0  0  0  0  0  0
 22 23  1  0  0  0
 23 24  2  0  0  0
 23 28  1  0  0  0
 24 25  1  0  0  0
 25 26  2  0  0  0
 26 27  1  0  0  0
 26 21  1  0  0  0
 27 28  2  0  0  0
 21  1  1  0  0  0
  1  2  1  0  0  0
  1  5  1  0  0  0
  2  3  2  0  0  0
  2 10  1  0  0  0
  3  4  1  0  0  0
  3  6  1  0  0  0
  4  5  2  0  0  0
  5 14  1  0  0  0
 14 15  1  0  0  0
 14 19  1  0  0  0
 15 16  1  0  0  0
 16 17  1  0  0  0
 17 18  1  0  0  0
 18 19  1  0  0  0
  6  7  1  0  0  0
  6 12  1  0  0  0
  7  8  2  0  0  0
  7  9  1  0  0  0
  9 10  1  0  0  0
 10 11  2  0  0  0
 17 20  1  0  0  0
  9 13  1  0  0  0
M  END
> <minimizedAffinity>
-7.90847

$$$$
1940


 30 33  0  0  0  0  0  0  0  0999 V2000
  -40.6365  -66.4183   49.7862 C   0  0  0  0  0  0  0  0  0  0  0  0
  -41.1640  -65.1665   50.3440 N   0  0  0  0  0  0  0  0  0  0  0  0
  -40.0466  -64.5063   50.9100 C   0  0  0  0  0  0  0  0  0  0  0  0
  -40.0590  -63.7117   51.8798 O   0  0  0  0  0  0  0  0  0  0  0  0
  -38.8621  -64.9319   50.1408 C   0  0  0  0  0  0  0  0  0  0  0  0
  -37.6711  -64.5859   50.3110 O   0  0  0  0  0  0  0  0  0  0  0  0
  -39.3853  -65.8494   49.1381 C   0  0  0  0  0  0  0  0  0  0  0  0
  -38.8942  -66.0980   47.9740 C   0  0  0  0  0  0  0  0  0  0  0  0
  -39.5152  -66.9961   47.1078 O   0  0  0  0  0  0  0  0  0  0  0  0
  -38.5736  -70.0807   54.1111 Cl  0  0  0  0  0  0  0  0  0  0  0  0
  -39.2020  -69.0008   52.8917 C   0  0  0  0  0  0  0  0  0  0  0  0
  -40.2797  -68.1725   53.1203 C   0  0  0  0  0  0  0  0  0  0  0  0
  -40.7265  -67.3440   52.1094 C   0  0  0  0  0  0  0  0  0  0  0  0
  -40.1411  -67.3038   50.8692 C   0  0  0  0  0  0  0  0  0  0  0  0
  -39.0517  -68.1488   50.6554 C   0  0  0  0  0  0  0  0  0  0  0  0
  -38.6011  -68.9775   51.6592 C   0  0  0  0  0  0  0  0  0  0  0  0
  -37.6673  -65.4463   47.5264 C   0  0  0  0  0  0  0  0  0  0  0  0
  -37.4347  -64.2668   47.0714 O   0  0  0  0  0  0  0  0  0  0  0  0
  -36.1720  -64.1142   46.7918 C   0  0  0  0  0  0  0  0  0  0  0  0
  -35.5016  -65.2756   47.0794 C   0  0  0  0  0  0  0  0  0  0  0  0
  -36.4499  -66.1397   47.5513 C   0  0  0  0  0  0  0  0  0  0  0  0
  -42.5527  -64.7300   50.3142 C   0  0  0  0  0  0  0  0  0  0  0  0
  -43.2638  -64.8496   51.6266 C   0  0  0  0  0  0  0  0  0  0  0  0
  -44.1457  -65.9573   51.7650 N   0  0  0  0  0  0  0  0  0  0  0  0
  -44.0137  -66.7415   52.9507 C   0  0  0  0  0  0  0  0  0  0  0  0
  -44.3347  -65.9850   54.2195 C   0  0  0  0  0  0  0  0  0  0  0  0
  -45.6196  -65.4553   54.1687 O   0  0  0  0  0  0  0  0  0  0  0  0
  -45.8421  -64.7308   53.0023 C   0  0  0  0  0  0  0  0  0  0  0  0
  -45.5562  -65.5178   51.7500 C   0  0  0  0  0  0  0  0  0  0  0  0
  -44.0049  -66.5920   50.9486 H   0  0  0  0  0  0  0  0  0  0  0  0
 10 11  1  0  0  0
 11 12  2  0  0  0
 11 16  1  0  0  0
 12 13  1  0  0  0
 13 14  2  0  0  0
 14 15  1  0  0  0
 14  1  1  0  0  0
 15 16  2  0  0  0
  1  2  1  0  0  0
  1  7  1  0  0  0
  2  3  1  0  0  0
  2 22  1  0  0  0
  3  4  2  0  0  0
  3  5  1  0  0  0
  5  6  2  0  0  0
  5  7  1  0  0  0
  7  8  2  0  0  0
  8  9  1  0  0  0
  8 17  1  0  0  0
 17 18  1  0  0  0
 17 21  2  0  0  0
 18 19  1  0  0  0
 19 20  2  0  0  0
 20 21  1  0  0  0
 22 23  1  0  0  0
 23 24  1  0  0  0
 24 25  1  0  0  0
 24 29  1  0  0  0
 25 26  1  0  0  0
 26 27  1  0  0  0
 27 28  1  0  0  0
 28 29  1  0  0  0
 24 30  1  0  0  0
M  CHG 1   9  -1
M  CHG 1  24   1
M  END
> <minimizedAffinity>
-7.41941

$$$$
1941


 22 25  0  0  0  0  0  0  0  0999 V2000
  -35.2170  -66.5413   49.5198 N   0  0  0  0  0  0  0  0  0  0  0  0
  -35.0054  -65.1647   49.8655 C   0  0  0  0  0  0  0  0  0  0  0  0
  -35.9149  -64.4639   50.4299 O   0  0  0  0  0  0  0  0  0  0  0  0
  -33.6455  -64.7631   49.4712 C   0  0  0  0  0  0  0  0  0  0  0  0
  -33.2699  -65.8033   48.4436 C   0  0  0  0  0  0  0  0  0  0  0  0
  -33.0703  -65.1236   47.1062 C   0  0  0  0  0  0  0  0  0  0  0  0
  -31.8173  -64.2519   47.2762 C   0  0  0  0  0  0  0  0  0  0  0  0
  -32.1884  -63.2232   48.3051 C   0  0  0  0  0  0  0  0  0  0  0  0
  -31.4245  -62.3401   48.5879 O   0  0  0  0  0  0  0  0  0  0  0  0
  -33.5441  -63.3748   48.9388 C   0  0  0  0  0  0  0  0  0  0  0  0
  -34.5514  -63.1627   47.8030 C   0  0  0  0  0  0  0  0  0  0  0  0
  -34.2082  -64.2002   46.7692 C   0  0  0  0  0  0  0  0  0  0  0  0
  -34.8303  -64.2549   45.7442 O   0  0  0  0  0  0  0  0  0  0  0  0
  -34.3218  -66.8185   48.4519 C   0  0  0  0  0  0  0  0  0  0  0  0
  -34.4176  -67.7750   47.6502 O   0  0  0  0  0  0  0  0  0  0  0  0
  -38.9403  -70.4884   52.0872 Cl  0  0  0  0  0  0  0  0  0  0  0  0
  -37.8567  -69.3270   51.3298 C   0  0  0  0  0  0  0  0  0  0  0  0
  -36.4963  -69.4018   51.5011 C   0  0  0  0  0  0  0  0  0  0  0  0
  -35.6555  -68.4894   50.9053 C   0  0  0  0  0  0  0  0  0  0  0  0
  -36.1274  -67.4602   50.1122 C   0  0  0  0  0  0  0  0  0  0  0  0
  -37.4941  -67.4021   49.9516 C   0  0  0  0  0  0  0  0  0  0  0  0
  -38.3519  -68.3037   50.5383 C   0  0  0  0  0  0  0  0  0  0  0  0
 16 17  1  0  0  0
 17 18  2  0  0  0
 17 22  1  0  0  0
 18 19  1  0  0  0
 19 20  2  0  0  0
 20 21  1  0  0  0
 20  1  1  0  0  0
 21 22  2  0  0  0
  1  2  1  0  0  0
  1 14  1  0  0  0
  2  3  2  0  0  0
  2  4  1  0  0  0
  4  5  1  0  0  0
  4 10  1  0  0  0
  5  6  1  0  0  0
  5 14  1  0  0  0
  6  7  1  0  0  0
  6 12  1  0  0  0
  7  8  1  0  0  0
  8  9  2  0  0  0
  8 10  1  0  0  0
 10 11  1  0  0  0
 11 12  1  0  0  0
 12 13  2  0  0  0
 14 15  2  0  0  0
M  END
> <minimizedAffinity>
-7.14355

$$$$
1943


 34 38  0  0  0  0  0  0  0  0999 V2000
  -41.0583  -66.2205   50.5043 N   0  0  0  0  0  0  0  0  0  0  0  0
  -42.2566  -65.4940   50.8546 C   0  0  0  0  0  0  0  0  0  0  0  0
  -42.5252  -64.3358   50.5229 O   0  0  0  0  0  0  0  0  0  0  0  0
  -43.1262  -66.3480   51.6742 C   0  0  0  0  0  0  0  0  0  0  0  0
  -43.6907  -65.7036   52.9178 C   0  0  0  0  0  0  0  0  0  0  0  0
  -42.7891  -65.9858   54.0087 N   0  0  0  0  0  0  0  0  0  0  0  0
  -41.5693  -66.4875   53.4077 C   0  0  0  0  0  0  0  0  0  0  0  0
  -42.1257  -67.3134   52.2655 C   0  0  0  0  0  0  0  0  0  0  0  0
  -41.1772  -67.4982   51.1517 C   0  0  0  0  0  0  0  0  0  0  0  0
  -40.6304  -68.5709   50.8830 O   0  0  0  0  0  0  0  0  0  0  0  0
  -45.0269  -66.3636   53.1204 C   0  0  0  0  0  0  0  0  0  0  0  0
  -45.9912  -65.4309   52.8626 C   0  0  0  0  0  0  0  0  0  0  0  0
  -47.3576  -65.7498   52.9047 C   0  0  0  0  0  0  0  0  0  0  0  0
  -47.7600  -67.0320   53.2156 C   0  0  0  0  0  0  0  0  0  0  0  0
  -46.7944  -67.9669   53.4772 C   0  0  0  0  0  0  0  0  0  0  0  0
  -45.4558  -67.6377   53.4304 C   0  0  0  0  0  0  0  0  0  0  0  0
  -45.4173  -64.1521   52.6448 N   0  0  0  0  0  0  0  0  0  0  0  0
  -44.0121  -64.2973   52.7825 C   0  0  0  0  0  0  0  0  0  0  0  0
  -43.2197  -63.3317   52.7840 O   0  0  0  0  0  0  0  0  0  0  0  0
  -42.6234  -65.0892   54.5245 H   0  0  0  0  0  0  0  0  0  0  0  0
  -45.9421  -63.2517   52.4211 H   0  0  0  0  0  0  0  0  0  0  0  0
  -36.4754  -64.4338   47.1258 Cl  0  0  0  0  0  0  0  0  0  0  0  0
  -37.8171  -64.9623   48.1256 C   0  0  0  0  0  0  0  0  0  0  0  0
  -38.6974  -65.9017   47.6463 C   0  0  0  0  0  0  0  0  0  0  0  0
  -39.7612  -66.3065   48.4443 C   0  0  0  0  0  0  0  0  0  0  0  0
  -39.9862  -65.8167   49.7015 C   0  0  0  0  0  0  0  0  0  0  0  0
  -39.0890  -64.8803   50.1542 C   0  0  0  0  0  0  0  0  0  0  0  0
  -38.0098  -64.4541   49.3733 C   0  0  0  0  0  0  0  0  0  0  0  0
  -40.7712  -67.3391   54.3600 C   0  0  0  0  0  0  0  0  0  0  0  0
  -41.4348  -68.5765   54.7589 C   0  0  0  0  0  0  0  0  0  0  0  0
  -42.6174  -68.5638   55.1504 O   0  0  0  0  0  0  0  0  0  0  0  0
  -40.7346  -69.8040   54.7035 N   0  0  0  0  0  0  0  0  0  0  0  0
  -39.7231  -69.8973   54.4432 H   0  0  0  0  0  0  0  0  0  0  0  0
  -41.1906  -70.7363   54.9271 H   0  0  0  0  0  0  0  0  0  0  0  0
 22 23  1  0  0  0
 23 24  2  0  0  0
 23 28  1  0  0  0
 24 25  1  0  0  0
 25 26  2  0  0  0
 26 27  1  0  0  0
 26  1  1  0  0  0
 27 28  2  0  0  0
  1  2  1  0  0  0
  1  9  1  0  0  0
  2  3  2  0  0  0
  2  4  1  0  0  0
  4  5  1  0  0  0
  4  8  1  0  0  0
  5  6  1  0  0  0
  5 11  1  0  0  0
  5 18  1  0  0  0
  6  7  1  0  0  0
  7  8  1  0  0  0
  7 29  1  0  0  0
  8  9  1  0  0  0
  9 10  2  0  0  0
 29 30  1  0  0  0
 30 31  2  0  0  0
 30 32  1  0  0  0
 11 12  1  0  0  0
 11 16  2  0  0  0
 12 13  2  0  0  0
 12 17  1  0  0  0
 13 14  1  0  0  0
 14 15  2  0  0  0
 15 16  1  0  0  0
 17 18  1  0  0  0
 18 19  2  0  0  0
  6 20  1  0  0  0
 32 33  1  0  0  0
 32 34  1  0  0  0
 17 21  1  0  0  0
M  END
> <minimizedAffinity>
-8.30562

$$$$
1945


 24 27  0  0  0  0  0  0  0  0999 V2000
  -44.8803  -64.8206   53.3698 Cl  0  0  0  0  0  0  0  0  0  0  0  0
  -43.5517  -65.9608   53.4460 C   0  0  0  0  0  0  0  0  0  0  0  0
  -42.6582  -66.1045   52.4094 C   0  0  0  0  0  0  0  0  0  0  0  0
  -41.6034  -67.0183   52.4827 C   0  0  0  0  0  0  0  0  0  0  0  0
  -41.4760  -67.7820   53.6335 C   0  0  0  0  0  0  0  0  0  0  0  0
  -42.3603  -67.6496   54.6774 C   0  0  0  0  0  0  0  0  0  0  0  0
  -43.3922  -66.7503   54.5923 C   0  0  0  0  0  0  0  0  0  0  0  0
  -40.3784  -68.7578   53.7564 C   0  0  0  0  0  0  0  0  0  0  0  0
  -40.0366  -69.5753   54.6931 N   0  0  0  0  0  0  0  0  0  0  0  0
  -38.8699  -70.3436   54.3550 C   0  0  0  0  0  0  0  0  0  0  0  0
  -38.4985  -69.8651   52.9856 C   0  0  0  0  0  0  0  0  0  0  0  0
  -39.4853  -68.8686   52.6655 N   0  0  0  0  0  0  0  0  0  0  0  0
  -39.6424  -68.0710   51.4989 C   0  0  0  0  0  0  0  0  0  0  0  0
  -38.8551  -68.1538   50.5142 O   0  0  0  0  0  0  0  0  0  0  0  0
  -40.7135  -67.1174   51.3767 N   0  0  0  0  0  0  0  0  0  0  0  0
  -40.8544  -66.3108   50.1723 C   0  0  0  0  0  0  0  0  0  0  0  0
  -39.7981  -65.2760   50.0954 C   0  0  0  0  0  0  0  0  0  0  0  0
  -39.9274  -64.2443   50.7986 O   0  0  0  0  0  0  0  0  0  0  0  0
  -38.6544  -65.3971   49.2703 N   0  0  0  0  0  0  0  0  0  0  0  0
  -38.5614  -66.2583   48.6947 H   0  0  0  0  0  0  0  0  0  0  0  0
  -37.6388  -64.3736   49.2144 C   0  0  0  0  0  0  0  0  0  0  0  0
  -36.3029  -64.9892   48.8927 C   0  0  0  0  0  0  0  0  0  0  0  0
  -35.8617  -66.2051   49.6278 C   0  0  0  0  0  0  0  0  0  0  0  0
  -35.2400  -64.8994   49.9472 C   0  0  0  0  0  0  0  0  0  0  0  0
  1  2  1  0  0  0
  2  3  2  0  0  0
  2  7  1  0  0  0
  3  4  1  0  0  0
  4  5  2  0  0  0
  4 15  1  0  0  0
  5  6  1  0  0  0
  5  8  1  0  0  0
  6  7  2  0  0  0
  8  9  2  0  0  0
  8 12  1  0  0  0
  9 10  1  0  0  0
 10 11  1  0  0  0
 11 12  1  0  0  0
 12 13  1  0  0  0
 13 14  2  0  0  0
 13 15  1  0  0  0
 15 16  1  0  0  0
 16 17  1  0  0  0
 17 18  2  0  0  0
 17 19  1  0  0  0
 19 21  1  0  0  0
 21 22  1  0  0  0
 22 23  1  0  0  0
 22 24  1  0  0  0
 23 24  1  0  0  0
 19 20  1  0  0  0
M  END
> <minimizedAffinity>
-7.53595

$$$$
1956


 35 38  0  0  0  0  0  0  0  0999 V2000
  -37.8253  -65.5604   48.4677 C   0  0  0  0  0  0  0  0  0  0  0  0
  -38.7431  -64.6139   48.3642 C   0  0  0  0  0  0  0  0  0  0  0  0
  -40.2308  -64.8458   48.2799 C   0  0  0  0  0  0  0  0  0  0  0  0
  -40.7911  -63.5931   47.8623 N   0  0  0  0  0  0  0  0  0  0  0  0
  -39.8232  -62.5574   47.9466 C   0  0  0  0  0  0  0  0  0  0  0  0
  -40.0137  -61.3427   47.7885 O   0  0  0  0  0  0  0  0  0  0  0  0
  -38.5289  -63.2055   48.2620 C   0  0  0  0  0  0  0  0  0  0  0  0
  -37.4468  -62.5890   48.4048 O   0  0  0  0  0  0  0  0  0  0  0  0
  -38.3068  -66.8909   48.4932 O   0  0  0  0  0  0  0  0  0  0  0  0
  -31.8890  -64.5345   48.6570 Cl  0  0  0  0  0  0  0  0  0  0  0  0
  -33.6123  -64.8206   48.5738 C   0  0  0  0  0  0  0  0  0  0  0  0
  -34.2892  -64.9705   47.3871 C   0  0  0  0  0  0  0  0  0  0  0  0
  -35.6502  -65.1942   47.3768 C   0  0  0  0  0  0  0  0  0  0  0  0
  -36.4094  -65.2793   48.5521 C   0  0  0  0  0  0  0  0  0  0  0  0
  -35.7057  -65.1275   49.7232 C   0  0  0  0  0  0  0  0  0  0  0  0
  -34.3229  -64.8998   49.7373 C   0  0  0  0  0  0  0  0  0  0  0  0
  -40.6677  -65.2749   49.6363 C   0  0  0  0  0  0  0  0  0  0  0  0
  -41.1953  -66.5203   49.8223 C   0  0  0  0  0  0  0  0  0  0  0  0
  -41.5816  -66.9104   51.0727 C   0  0  0  0  0  0  0  0  0  0  0  0
  -41.4552  -66.0788   52.1643 C   0  0  0  0  0  0  0  0  0  0  0  0
  -40.9217  -64.8170   51.9779 C   0  0  0  0  0  0  0  0  0  0  0  0
  -40.5304  -64.4261   50.7060 C   0  0  0  0  0  0  0  0  0  0  0  0
  -41.8515  -66.4836   53.4347 O   0  0  0  0  0  0  0  0  0  0  0  0
  -41.8597  -67.8889   53.7246 C   0  0  0  0  0  0  0  0  0  0  0  0
  -40.5998  -68.2328   54.5152 C   0  0  0  0  0  0  0  0  0  0  0  0
  -39.7508  -69.1309   53.6267 C   0  0  0  0  0  0  0  0  0  0  0  0
  -42.1605  -63.3978   47.3975 C   0  0  0  0  0  0  0  0  0  0  0  0
  -42.9454  -62.6719   48.4351 C   0  0  0  0  0  0  0  0  0  0  0  0
  -44.1906  -63.3843   48.7657 N   0  0  0  0  0  0  0  0  0  0  0  0
  -45.2719  -62.7065   48.1194 C   0  0  0  0  0  0  0  0  0  0  0  0
  -46.6251  -63.1091   48.7007 C   0  0  0  0  0  0  0  0  0  0  0  0
  -46.5648  -62.8097   50.0737 O   0  0  0  0  0  0  0  0  0  0  0  0
  -45.6979  -63.7137   50.6511 C   0  0  0  0  0  0  0  0  0  0  0  0
  -44.2844  -63.3920   50.2092 C   0  0  0  0  0  0  0  0  0  0  0  0
  -44.1474  -64.3779   48.4186 H   0  0  0  0  0  0  0  0  0  0  0  0
 10 11  1  0  0  0
 11 12  2  0  0  0
 11 16  1  0  0  0
 12 13  1  0  0  0
 13 14  2  0  0  0
 14 15  1  0  0  0
 14  1  1  0  0  0
 15 16  2  0  0  0
  1  2  2  0  0  0
  1  9  1  0  0  0
  2  3  1  0  0  0
  2  7  1  0  0  0
  3  4  1  0  0  0
  3 17  1  0  0  0
  4  5  1  0  0  0
  4 27  1  0  0  0
  5  6  2  0  0  0
  5  7  1  0  0  0
  7  8  2  0  0  0
 27 28  1  0  0  0
 28 29  1  0  0  0
 29 30  1  0  0  0
 29 34  1  0  0  0
 30 31  1  0  0  0
 31 32  1  0  0  0
 32 33  1  0  0  0
 33 34  1  0  0  0
 17 18  2  0  0  0
 17 22  1  0  0  0
 18 19  1  0  0  0
 19 20  2  0  0  0
 20 21  1  0  0  0
 20 23  1  0  0  0
 21 22  2  0  0  0
 23 24  1  0  0  0
 24 25  1  0  0  0
 25 26  1  0  0  0
 29 35  1  0  0  0
M  CHG 1   9  -1
M  CHG 1  29   1
M  END
> <minimizedAffinity>
-6.92253

$$$$
1957


 36 40  0  0  0  0  0  0  0  0999 V2000
  -37.9339  -66.6959   49.7310 C   0  0  0  0  0  0  0  0  0  0  0  0
  -38.3592  -65.3379   49.4168 N   0  0  0  0  0  0  0  0  0  0  0  0
  -37.3768  -64.7953   48.4997 C   0  0  0  0  0  0  0  0  0  0  0  0
  -36.9588  -66.0052   47.7151 C   0  0  0  0  0  0  0  0  0  0  0  0
  -36.9648  -67.1330   48.6979 C   0  0  0  0  0  0  0  0  0  0  0  0
  -35.5691  -67.2398   49.2052 C   0  0  0  0  0  0  0  0  0  0  0  0
  -35.1883  -67.8738   50.2177 O   0  0  0  0  0  0  0  0  0  0  0  0
  -34.7468  -66.4705   48.3002 N   0  0  0  0  0  0  0  0  0  0  0  0
  -35.5595  -65.9785   47.2550 C   0  0  0  0  0  0  0  0  0  0  0  0
  -35.1837  -65.5810   46.1250 O   0  0  0  0  0  0  0  0  0  0  0  0
  -37.9530  -63.7463   47.6236 C   0  0  0  0  0  0  0  0  0  0  0  0
  -37.2696  -62.5850   47.8962 C   0  0  0  0  0  0  0  0  0  0  0  0
  -37.6085  -61.4298   47.2051 C   0  0  0  0  0  0  0  0  0  0  0  0
  -38.6143  -61.4775   46.2689 C   0  0  0  0  0  0  0  0  0  0  0  0
  -39.3077  -62.6421   45.9863 C   0  0  0  0  0  0  0  0  0  0  0  0
  -38.9614  -63.7821   46.6810 C   0  0  0  0  0  0  0  0  0  0  0  0
  -36.2741  -62.7984   48.9135 N   0  0  0  0  0  0  0  0  0  0  0  0
  -36.3396  -64.1607   49.2939 C   0  0  0  0  0  0  0  0  0  0  0  0
  -35.6143  -64.6721   50.1624 O   0  0  0  0  0  0  0  0  0  0  0  0
  -38.4387  -64.7769   50.2717 H   0  0  0  0  0  0  0  0  0  0  0  0
  -35.6451  -62.0407   49.2645 H   0  0  0  0  0  0  0  0  0  0  0  0
  -39.1945  -67.5160   49.7924 C   0  0  0  0  0  0  0  0  0  0  0  0
  -40.2615  -66.9485   49.1458 O   0  0  0  0  0  0  0  0  0  0  0  0
  -40.0771  -66.9687   48.1721 H   0  0  0  0  0  0  0  0  0  0  0  0
  -40.8402  -68.8232   55.4861 Cl  0  0  0  0  0  0  0  0  0  0  0  0
  -40.3724  -68.4443   53.8369 C   0  0  0  0  0  0  0  0  0  0  0  0
  -40.8791  -67.3502   53.1630 C   0  0  0  0  0  0  0  0  0  0  0  0
  -40.5073  -67.0634   51.8756 C   0  0  0  0  0  0  0  0  0  0  0  0
  -39.5984  -67.8633   51.1846 C   0  0  0  0  0  0  0  0  0  0  0  0
  -39.0871  -68.9540   51.8442 C   0  0  0  0  0  0  0  0  0  0  0  0
  -39.4765  -69.2195   53.1353 C   0  0  0  0  0  0  0  0  0  0  0  0
  -33.3406  -66.2410   48.4561 C   0  0  0  0  0  0  0  0  0  0  0  0
  -32.8437  -64.9182   48.0074 C   0  0  0  0  0  0  0  0  0  0  0  0
  -32.5916  -63.9022   49.0654 C   0  0  0  0  0  0  0  0  0  0  0  0
  -33.0649  -62.6381   48.7393 O   0  0  0  0  0  0  0  0  0  0  0  0
  -33.1642  -62.5248   47.3366 C   0  0  0  0  0  0  0  0  0  0  0  0
 25 26  1  0  0  0
 26 27  2  0  0  0
 26 31  1  0  0  0
 27 28  1  0  0  0
 28 29  2  0  0  0
 29 30  1  0  0  0
 29 22  1  0  0  0
 30 31  2  0  0  0
 22 23  1  0  0  0
 22  1  1  0  0  0
  1  2  1  0  0  0
  1  5  1  0  0  0
  2  3  1  0  0  0
  3  4  1  0  0  0
  3 11  1  0  0  0
  3 18  1  0  0  0
  4  5  1  0  0  0
  4  9  1  0  0  0
  5  6  1  0  0  0
  6  7  2  0  0  0
  6  8  1  0  0  0
  8  9  1  0  0  0
  8 32  1  0  0  0
  9 10  2  0  0  0
 32 33  1  0  0  0
 33 34  1  0  0  0
 34 35  1  0  0  0
 35 36  1  0  0  0
 11 12  1  0  0  0
 11 16  2  0  0  0
 12 13  2  0  0  0
 12 17  1  0  0  0
 13 14  1  0  0  0
 14 15  2  0  0  0
 15 16  1  0  0  0
 17 18  1  0  0  0
 18 19  2  0  0  0
 23 24  1  0  0  0
  2 20  1  0  0  0
 17 21  1  0  0  0
M  END
> <minimizedAffinity>
-7.96710

$$$$
1958


 28 31  0  0  0  0  0  0  0  0999 V2000
  -40.1941  -66.6554   51.6233 C   0  0  0  0  0  0  0  0  0  0  0  0
  -40.5380  -65.4861   51.2332 O   0  0  0  0  0  0  0  0  0  0  0  0
  -39.3670  -67.4809   50.8484 N   0  0  0  0  0  0  0  0  0  0  0  0
  -38.9791  -68.7870   51.2778 C   0  0  0  0  0  0  0  0  0  0  0  0
  -37.6712  -69.2633   50.7111 C   0  0  0  0  0  0  0  0  0  0  0  0
  -36.8256  -68.1051   50.3342 C   0  0  0  0  0  0  0  0  0  0  0  0
  -37.3858  -66.9755   49.7671 C   0  0  0  0  0  0  0  0  0  0  0  0
  -36.6307  -65.9279   49.4181 N   0  0  0  0  0  0  0  0  0  0  0  0
  -35.2924  -65.9017   49.5935 C   0  0  0  0  0  0  0  0  0  0  0  0
  -34.7389  -67.0064   50.1492 N   0  0  0  0  0  0  0  0  0  0  0  0
  -35.4551  -68.0830   50.5159 C   0  0  0  0  0  0  0  0  0  0  0  0
  -34.8564  -69.1989   51.0828 O   0  0  0  0  0  0  0  0  0  0  0  0
  -38.8843  -67.0093   49.5803 C   0  0  0  0  0  0  0  0  0  0  0  0
  -34.4091  -69.1682   52.0026 H   0  0  0  0  0  0  0  0  0  0  0  0
  -34.5447  -64.7747   49.2119 N   0  0  0  0  0  0  0  0  0  0  0  0
  -33.1635  -64.6565   49.5738 C   0  0  0  0  0  0  0  0  0  0  0  0
  -32.5365  -63.6849   48.5634 C   0  0  0  0  0  0  0  0  0  0  0  0
  -33.1091  -62.4407   48.6504 O   0  0  0  0  0  0  0  0  0  0  0  0
  -34.4768  -62.4066   48.6800 C   0  0  0  0  0  0  0  0  0  0  0  0
  -35.1606  -63.7267   48.4538 C   0  0  0  0  0  0  0  0  0  0  0  0
  -40.7215  -67.0985   52.9537 C   0  0  0  0  0  0  0  0  0  0  0  0
  -46.7113  -66.5400   53.3927 Cl  0  0  0  0  0  0  0  0  0  0  0  0
  -44.9737  -66.6963   53.2559 C   0  0  0  0  0  0  0  0  0  0  0  0
  -44.2949  -66.1436   52.1747 C   0  0  0  0  0  0  0  0  0  0  0  0
  -42.9264  -66.2735   52.0785 C   0  0  0  0  0  0  0  0  0  0  0  0
  -42.1831  -66.9437   53.0263 C   0  0  0  0  0  0  0  0  0  0  0  0
  -42.8482  -67.4938   54.1001 C   0  0  0  0  0  0  0  0  0  0  0  0
  -44.2154  -67.3645   54.1983 C   0  0  0  0  0  0  0  0  0  0  0  0
 22 23  1  0  0  0
 23 24  2  0  0  0
 23 28  1  0  0  0
 24 25  1  0  0  0
 25 26  2  0  0  0
 26 27  1  0  0  0
 26 21  1  0  0  0
 27 28  2  0  0  0
 21  1  1  0  0  0
  1  2  2  0  0  0
  1  3  1  0  0  0
  3  4  1  0  0  0
  3 13  1  0  0  0
  4  5  1  0  0  0
  5  6  1  0  0  0
  6  7  2  0  0  0
  6 11  1  0  0  0
  7  8  1  0  0  0
  7 13  1  0  0  0
  8  9  2  0  0  0
  9 10  1  0  0  0
  9 15  1  0  0  0
 10 11  2  0  0  0
 11 12  1  0  0  0
 15 16  1  0  0  0
 15 20  1  0  0  0
 16 17  1  0  0  0
 17 18  1  0  0  0
 18 19  1  0  0  0
 19 20  1  0  0  0
 12 14  1  0  0  0
M  END
> <minimizedAffinity>
-8.95092

$$$$
1960


 28 31  0  0  0  0  0  0  0  0999 V2000
  -40.9037  -64.9466   51.2606 C   0  0  0  0  0  0  0  0  0  0  0  0
  -40.4028  -64.1925   52.1358 O   0  0  0  0  0  0  0  0  0  0  0  0
  -40.5145  -64.7760   49.9226 N   0  0  0  0  0  0  0  0  0  0  0  0
  -39.5416  -63.7374   49.5404 C   0  0  0  0  0  0  0  0  0  0  0  0
  -38.6518  -64.3043   48.4447 C   0  0  0  0  0  0  0  0  0  0  0  0
  -38.6255  -65.7410   48.6322 N   0  0  0  0  0  0  0  0  0  0  0  0
  -39.8488  -66.4377   48.2726 C   0  0  0  0  0  0  0  0  0  0  0  0
  -41.0049  -65.5766   48.8096 C   0  0  0  0  0  0  0  0  0  0  0  0
  -37.4864  -66.4128   49.1466 C   0  0  0  0  0  0  0  0  0  0  0  0
  -37.6329  -67.6177   49.8091 C   0  0  0  0  0  0  0  0  0  0  0  0
  -36.5221  -68.2365   50.3053 N   0  0  0  0  0  0  0  0  0  0  0  0
  -35.3078  -67.7369   50.1838 N   0  0  0  0  0  0  0  0  0  0  0  0
  -35.0897  -66.5488   49.5397 C   0  0  0  0  0  0  0  0  0  0  0  0
  -36.2010  -65.9352   49.0461 C   0  0  0  0  0  0  0  0  0  0  0  0
  -33.7639  -66.0704   49.4482 N   0  0  0  0  0  0  0  0  0  0  0  0
  -33.4621  -64.6652   49.6479 C   0  0  0  0  0  0  0  0  0  0  0  0
  -32.4895  -64.1698   48.5766 C   0  0  0  0  0  0  0  0  0  0  0  0
  -31.4274  -65.0367   48.4132 O   0  0  0  0  0  0  0  0  0  0  0  0
  -31.9287  -66.2501   47.9674 C   0  0  0  0  0  0  0  0  0  0  0  0
  -32.6450  -66.9266   49.1499 C   0  0  0  0  0  0  0  0  0  0  0  0
  -41.8715  -65.9643   51.7124 C   0  0  0  0  0  0  0  0  0  0  0  0
  -39.0790  -70.5711   54.4251 Cl  0  0  0  0  0  0  0  0  0  0  0  0
  -39.8865  -69.2417   53.6519 C   0  0  0  0  0  0  0  0  0  0  0  0
  -39.8665  -69.1041   52.2629 C   0  0  0  0  0  0  0  0  0  0  0  0
  -40.5113  -68.0429   51.6543 C   0  0  0  0  0  0  0  0  0  0  0  0
  -41.1931  -67.0907   52.4076 C   0  0  0  0  0  0  0  0  0  0  0  0
  -41.2149  -67.2214   53.7685 C   0  0  0  0  0  0  0  0  0  0  0  0
  -40.5647  -68.2928   54.3805 C   0  0  0  0  0  0  0  0  0  0  0  0
 22 23  1  0  0  0
 23 24  2  0  0  0
 23 28  1  0  0  0
 24 25  1  0  0  0
 25 26  2  0  0  0
 26 27  1  0  0  0
 26 21  1  0  0  0
 27 28  2  0  0  0
 21  1  1  0  0  0
  1  2  2  0  0  0
  1  3  1  0  0  0
  3  4  1  0  0  0
  3  8  1  0  0  0
  4  5  1  0  0  0
  5  6  1  0  0  0
  6  7  1  0  0  0
  6  9  1  0  0  0
  7  8  1  0  0  0
  9 10  2  0  0  0
  9 14  1  0  0  0
 10 11  1  0  0  0
 11 12  2  0  0  0
 12 13  1  0  0  0
 13 14  2  0  0  0
 13 15  1  0  0  0
 15 16  1  0  0  0
 15 20  1  0  0  0
 16 17  1  0  0  0
 17 18  1  0  0  0
 18 19  1  0  0  0
 19 20  1  0  0  0
M  END
> <minimizedAffinity>
-8.21199

$$$$
1966


 27 30  0  0  0  0  0  0  0  0999 V2000
  -42.0574  -68.2065   54.5299 C   0  0  0  0  0  0  0  0  0  0  0  0
  -42.2485  -69.2985   55.1940 O   0  0  0  0  0  0  0  0  0  0  0  0
  -42.8127  -67.0710   54.6811 N   0  0  0  0  0  0  0  0  0  0  0  0
  -43.5823  -67.6913   55.6255 H   0  0  0  0  0  0  0  0  0  0  0  0
  -41.4894  -66.8435   51.7697 F   0  0  0  0  0  0  0  0  0  0  0  0
  -40.6908  -67.7474   52.3881 C   0  0  0  0  0  0  0  0  0  0  0  0
  -39.5101  -68.1682   51.8399 N   0  0  0  0  0  0  0  0  0  0  0  0
  -39.0060  -69.0495   52.7181 C   0  0  0  0  0  0  0  0  0  0  0  0
  -39.8425  -69.1659   53.7623 N   0  0  0  0  0  0  0  0  0  0  0  0
  -40.9123  -68.3645   53.5937 C   0  0  0  0  0  0  0  0  0  0  0  0
  -37.8035  -69.6334   52.4026 C   0  0  0  0  0  0  0  0  0  0  0  0
  -37.1133  -69.3394   51.2252 C   0  0  0  0  0  0  0  0  0  0  0  0
  -37.6588  -68.4348   50.3540 C   0  0  0  0  0  0  0  0  0  0  0  0
  -38.8770  -67.8587   50.6962 C   0  0  0  0  0  0  0  0  0  0  0  0
  -36.8397  -68.0120   48.8506 Cl  0  0  0  0  0  0  0  0  0  0  0  0
  -43.5643  -65.9428   54.8306 C   0  0  0  0  0  0  0  0  0  0  0  0
  -43.7621  -65.1202   53.5821 C   0  0  0  0  0  0  0  0  0  0  0  0
  -44.8484  -65.1298   52.8057 N   0  0  0  0  0  0  0  0  0  0  0  0
  -44.6442  -64.2772   51.8160 N   0  0  0  0  0  0  0  0  0  0  0  0
  -43.4579  -63.7220   51.9385 N   0  0  0  0  0  0  0  0  0  0  0  0
  -42.9174  -64.2506   53.0368 N   0  0  0  0  0  0  0  0  0  0  0  0
  -45.9905  -65.9428   53.0817 C   0  0  0  0  0  0  0  0  0  0  0  0
  -47.2311  -65.3202   53.1703 C   0  0  0  0  0  0  0  0  0  0  0  0
  -48.3787  -66.0505   53.4538 C   0  0  0  0  0  0  0  0  0  0  0  0
  -48.3245  -67.4146   53.6570 C   0  0  0  0  0  0  0  0  0  0  0  0
  -47.0916  -68.0249   53.5672 C   0  0  0  0  0  0  0  0  0  0  0  0
  -45.9470  -67.3006   53.2858 C   0  0  0  0  0  0  0  0  0  0  0  0
  5  6  1  0  0  0
  6  7  1  0  0  0
  6 10  2  0  0  0
  7  8  1  0  0  0
  7 14  1  0  0  0
  8  9  2  0  0  0
  8 11  1  0  0  0
  9 10  1  0  0  0
 10  1  1  0  0  0
  1  2  2  0  0  0
  1  3  1  0  0  0
  3 16  1  0  0  0
 16 17  1  0  0  0
 17 18  1  0  0  0
 17 21  2  0  0  0
 18 19  1  0  0  0
 18 22  1  0  0  0
 19 20  2  0  0  0
 20 21  1  0  0  0
 22 23  2  0  0  0
 22 27  1  0  0  0
 23 24  1  0  0  0
 24 25  2  0  0  0
 25 26  1  0  0  0
 26 27  2  0  0  0
 11 12  2  0  0  0
 12 13  1  0  0  0
 13 14  2  0  0  0
 13 15  1  0  0  0
  3  4  1  0  0  0
M  END
> <minimizedAffinity>
-9.10666

$$$$
1969


 26 29  0  0  0  0  0  0  0  0999 V2000
  -38.6005  -64.4973   48.7812 C   0  0  0  0  0  0  0  0  0  0  0  0
  -37.7933  -63.4027   49.0747 O   0  0  0  0  0  0  0  0  0  0  0  0
  -37.9363  -65.4033   48.0244 N   0  0  0  0  0  0  0  0  0  0  0  0
  -38.2972  -66.7092   47.5580 C   0  0  0  0  0  0  0  0  0  0  0  0
  -37.0166  -67.5334   47.3122 C   0  0  0  0  0  0  0  0  0  0  0  0
  -36.0793  -67.0361   48.3292 N   0  0  0  0  0  0  0  0  0  0  0  0
  -35.5311  -65.7293   48.1767 C   0  0  0  0  0  0  0  0  0  0  0  0
  -36.6090  -64.9355   47.5112 C   0  0  0  0  0  0  0  0  0  0  0  0
  -35.8390  -67.7953   49.4687 C   0  0  0  0  0  0  0  0  0  0  0  0
  -34.6132  -67.7185   50.1399 N   0  0  0  0  0  0  0  0  0  0  0  0
  -34.2975  -68.3547   51.2124 C   0  0  0  0  0  0  0  0  0  0  0  0
  -35.1972  -69.2209   51.8528 C   0  0  0  0  0  0  0  0  0  0  0  0
  -36.4145  -69.3091   51.1901 C   0  0  0  0  0  0  0  0  0  0  0  0
  -36.6673  -68.6526   50.1209 N   0  0  0  0  0  0  0  0  0  0  0  0
  -40.8662  -65.3896   51.2853 N   0  0  0  0  0  0  0  0  0  0  0  0
  -41.5254  -64.3202   50.8941 N   0  0  0  0  0  0  0  0  0  0  0  0
  -40.8768  -63.8595   50.0154 N   0  0  0  0  0  0  0  0  0  0  0  0
  -39.8401  -64.1510   49.4532 C   0  0  0  0  0  0  0  0  0  0  0  0
  -39.8122  -65.4620   50.5169 C   0  0  0  0  0  0  0  0  0  0  0  0
  -40.2841  -68.9888   55.0562 Cl  0  0  0  0  0  0  0  0  0  0  0  0
  -41.1724  -67.8417   54.1035 C   0  0  0  0  0  0  0  0  0  0  0  0
  -40.6190  -67.0886   53.0760 C   0  0  0  0  0  0  0  0  0  0  0  0
  -41.3651  -66.2168   52.3616 C   0  0  0  0  0  0  0  0  0  0  0  0
  -42.6977  -66.1157   52.7068 C   0  0  0  0  0  0  0  0  0  0  0  0
  -43.2926  -66.8225   53.6966 C   0  0  0  0  0  0  0  0  0  0  0  0
  -42.5630  -67.7022   54.4186 C   0  0  0  0  0  0  0  0  0  0  0  0
 20 21  1  0  0  0
 21 22  2  0  0  0
 21 26  1  0  0  0
 22 23  1  0  0  0
 23 24  2  0  0  0
 23 15  1  0  0  0
 24 25  1  0  0  0
 25 26  2  0  0  0
 15 16  1  0  0  0
 15 19  1  0  0  0
 16 17  2  0  0  0
 17 18  1  0  0  0
 18 19  2  0  0  0
 18  1  1  0  0  0
  1  2  2  0  0  0
  1  3  1  0  0  0
  3  4  1  0  0  0
  3  8  1  0  0  0
  4  5  1  0  0  0
  5  6  1  0  0  0
  6  7  1  0  0  0
  6  9  1  0  0  0
  7  8  1  0  0  0
  9 10  2  0  0  0
  9 14  1  0  0  0
 10 11  1  0  0  0
 11 12  2  0  0  0
 12 13  1  0  0  0
 13 14  2  0  0  0
M  END
> <minimizedAffinity>
-8.39853

$$$$
1971


 22 25  0  0  0  0  0  0  0  0999 V2000
  -41.8104  -67.0341   53.6357 N   0  0  0  0  0  0  0  0  0  0  0  0
  -43.0630  -67.1341   54.3386 C   0  0  0  0  0  0  0  0  0  0  0  0
  -43.4861  -68.1746   54.8953 O   0  0  0  0  0  0  0  0  0  0  0  0
  -43.7535  -65.8478   54.3002 C   0  0  0  0  0  0  0  0  0  0  0  0
  -44.9502  -65.7918   53.4092 C   0  0  0  0  0  0  0  0  0  0  0  0
  -44.9694  -64.4071   53.1047 O   0  0  0  0  0  0  0  0  0  0  0  0
  -43.6987  -64.3628   52.4748 C   0  0  0  0  0  0  0  0  0  0  0  0
  -42.8086  -64.8709   53.5819 C   0  0  0  0  0  0  0  0  0  0  0  0
  -41.7611  -65.7411   53.0433 C   0  0  0  0  0  0  0  0  0  0  0  0
  -40.9177  -65.4111   52.1741 O   0  0  0  0  0  0  0  0  0  0  0  0
  -43.8499  -65.4481   51.4829 C   0  0  0  0  0  0  0  0  0  0  0  0
  -44.6787  -66.3455   52.0640 C   0  0  0  0  0  0  0  0  0  0  0  0
  -38.1284  -69.3206   50.7766 Cl  0  0  0  0  0  0  0  0  0  0  0  0
  -39.0518  -69.1253   52.2503 C   0  0  0  0  0  0  0  0  0  0  0  0
  -40.0462  -68.1768   52.3597 C   0  0  0  0  0  0  0  0  0  0  0  0
  -40.7849  -68.0130   53.5208 C   0  0  0  0  0  0  0  0  0  0  0  0
  -40.4802  -68.8475   54.5778 C   0  0  0  0  0  0  0  0  0  0  0  0
  -39.4785  -69.8032   54.4685 C   0  0  0  0  0  0  0  0  0  0  0  0
  -38.7491  -69.9596   53.3072 C   0  0  0  0  0  0  0  0  0  0  0  0
  -46.2259  -66.2426   54.0279 C   0  0  0  0  0  0  0  0  0  0  0  0
  -46.3190  -67.6255   53.9373 O   0  0  0  0  0  0  0  0  0  0  0  0
  -45.5387  -67.9905   53.4595 H   0  0  0  0  0  0  0  0  0  0  0  0
 13 14  1  0  0  0
 14 15  2  0  0  0
 14 19  1  0  0  0
 15 16  1  0  0  0
 16 17  2  0  0  0
 16  1  1  0  0  0
 17 18  1  0  0  0
 18 19  2  0  0  0
  1  2  1  0  0  0
  1  9  1  0  0  0
  2  3  2  0  0  0
  2  4  1  0  0  0
  4  5  1  0  0  0
  4  8  1  0  0  0
  5  6  1  0  0  0
  5 12  1  0  0  0
  5 20  1  0  0  0
  6  7  1  0  0  0
  7  8  1  0  0  0
  7 11  1  0  0  0
  8  9  1  0  0  0
  9 10  2  0  0  0
 11 12  2  0  0  0
 20 21  1  0  0  0
 21 22  1  0  0  0
M  END
> <minimizedAffinity>
-8.15091

$$$$
1973


 24 27  0  0  0  0  0  0  0  0999 V2000
  -39.1067  -70.5625   54.3202 Cl  0  0  0  0  0  0  0  0  0  0  0  0
  -39.0640  -69.5041   52.9108 C   0  0  0  0  0  0  0  0  0  0  0  0
  -37.9335  -69.3699   52.1313 C   0  0  0  0  0  0  0  0  0  0  0  0
  -37.8813  -68.5625   51.0446 N   0  0  0  0  0  0  0  0  0  0  0  0
  -38.9435  -67.8327   50.6561 C   0  0  0  0  0  0  0  0  0  0  0  0
  -38.9101  -67.0171   49.5695 N   0  0  0  0  0  0  0  0  0  0  0  0
  -37.8119  -66.8804   48.8043 C   0  0  0  0  0  0  0  0  0  0  0  0
  -36.7050  -67.6281   49.1925 C   0  0  0  0  0  0  0  0  0  0  0  0
  -35.4907  -67.4780   48.3486 C   0  0  0  0  0  0  0  0  0  0  0  0
  -35.3521  -66.0340   48.1271 N   0  0  0  0  0  0  0  0  0  0  0  0
  -36.4112  -65.3649   47.4259 C   0  0  0  0  0  0  0  0  0  0  0  0
  -37.7628  -65.9945   47.6131 C   0  0  0  0  0  0  0  0  0  0  0  0
  -34.2165  -65.3396   48.5989 C   0  0  0  0  0  0  0  0  0  0  0  0
  -33.3383  -66.0245   49.2246 O   0  0  0  0  0  0  0  0  0  0  0  0
  -36.7680  -68.4468   50.2985 C   0  0  0  0  0  0  0  0  0  0  0  0
  -35.7407  -69.1209   50.6328 O   0  0  0  0  0  0  0  0  0  0  0  0
  -40.0887  -67.9526   51.4260 C   0  0  0  0  0  0  0  0  0  0  0  0
  -40.1674  -68.7677   52.5360 C   0  0  0  0  0  0  0  0  0  0  0  0
  -34.0190  -63.8874   48.3944 C   0  0  0  0  0  0  0  0  0  0  0  0
  -33.9108  -63.5252   46.9295 C   0  0  0  0  0  0  0  0  0  0  0  0
  -33.0374  -64.6029   46.3004 C   0  0  0  0  0  0  0  0  0  0  0  0
  -32.0132  -64.9620   47.1749 O   0  0  0  0  0  0  0  0  0  0  0  0
  -31.6169  -63.8793   47.9720 C   0  0  0  0  0  0  0  0  0  0  0  0
  -32.6620  -63.5119   49.0083 C   0  0  0  0  0  0  0  0  0  0  0  0
  1  2  1  0  0  0
  2  3  2  0  0  0
  2 18  1  0  0  0
  3  4  1  0  0  0
  4  5  1  0  0  0
  4 15  1  0  0  0
  5  6  2  0  0  0
  5 17  1  0  0  0
  6  7  1  0  0  0
  7  8  2  0  0  0
  7 12  1  0  0  0
  8  9  1  0  0  0
  8 15  1  0  0  0
  9 10  1  0  0  0
 10 11  1  0  0  0
 10 13  1  0  0  0
 11 12  1  0  0  0
 13 14  2  0  0  0
 13 19  1  0  0  0
 19 20  1  0  0  0
 19 24  1  0  0  0
 20 21  1  0  0  0
 21 22  1  0  0  0
 22 23  1  0  0  0
 23 24  1  0  0  0
 15 16  2  0  0  0
 17 18  2  0  0  0
M  END
> <minimizedAffinity>
-8.10825

$$$$
1974


 26 29  0  0  0  0  0  0  0  0999 V2000
  -39.9940  -68.9541   51.6041 F   0  0  0  0  0  0  0  0  0  0  0  0
  -40.8194  -68.2645   52.4277 C   0  0  0  0  0  0  0  0  0  0  0  0
  -41.1958  -66.9814   52.0606 C   0  0  0  0  0  0  0  0  0  0  0  0
  -42.0318  -66.2208   52.8480 C   0  0  0  0  0  0  0  0  0  0  0  0
  -42.4883  -66.7817   54.0286 C   0  0  0  0  0  0  0  0  0  0  0  0
  -42.1164  -68.0542   54.3940 C   0  0  0  0  0  0  0  0  0  0  0  0
  -41.2810  -68.8085   53.6032 C   0  0  0  0  0  0  0  0  0  0  0  0
  -43.5535  -65.8169   55.0353 Cl  0  0  0  0  0  0  0  0  0  0  0  0
  -42.2770  -64.9226   52.2543 C   0  0  0  0  0  0  0  0  0  0  0  0
  -42.9825  -63.9855   52.6923 O   0  0  0  0  0  0  0  0  0  0  0  0
  -41.5201  -64.9171   51.0089 C   0  0  0  0  0  0  0  0  0  0  0  0
  -41.4696  -63.9514   50.1846 O   0  0  0  0  0  0  0  0  0  0  0  0
  -40.8707  -66.1748   50.9090 N   0  0  0  0  0  0  0  0  0  0  0  0
  -40.0049  -66.6236   49.8381 C   0  0  0  0  0  0  0  0  0  0  0  0
  -38.6133  -66.2811   50.0428 N   0  0  0  0  0  0  0  0  0  0  0  0
  -37.7856  -67.4356   49.9656 C   0  0  0  0  0  0  0  0  0  0  0  0
  -36.5292  -67.2755   49.1845 C   0  0  0  0  0  0  0  0  0  0  0  0
  -36.6818  -66.4700   48.0009 N   0  0  0  0  0  0  0  0  0  0  0  0
  -37.8435  -65.6188   47.8913 C   0  0  0  0  0  0  0  0  0  0  0  0
  -38.1761  -65.1530   49.2928 C   0  0  0  0  0  0  0  0  0  0  0  0
  -35.7382  -66.4823   46.9488 C   0  0  0  0  0  0  0  0  0  0  0  0
  -35.2839  -65.3419   46.4031 N   0  0  0  0  0  0  0  0  0  0  0  0
  -34.3853  -65.3272   45.3991 C   0  0  0  0  0  0  0  0  0  0  0  0
  -33.8904  -66.5111   44.8867 C   0  0  0  0  0  0  0  0  0  0  0  0
  -34.3400  -67.6543   45.4287 N   0  0  0  0  0  0  0  0  0  0  0  0
  -35.2383  -67.6708   46.4317 C   0  0  0  0  0  0  0  0  0  0  0  0
  1  2  1  0  0  0
  2  3  2  0  0  0
  2  7  1  0  0  0
  3  4  1  0  0  0
  3 13  1  0  0  0
  4  5  2  0  0  0
  4  9  1  0  0  0
  5  6  1  0  0  0
  5  8  1  0  0  0
  6  7  2  0  0  0
  9 10  2  0  0  0
  9 11  1  0  0  0
 11 12  2  0  0  0
 11 13  1  0  0  0
 13 14  1  0  0  0
 14 15  1  0  0  0
 15 16  1  0  0  0
 15 20  1  0  0  0
 16 17  1  0  0  0
 17 18  1  0  0  0
 18 19  1  0  0  0
 18 21  1  0  0  0
 19 20  1  0  0  0
 21 22  2  0  0  0
 21 26  1  0  0  0
 22 23  1  0  0  0
 23 24  2  0  0  0
 24 25  1  0  0  0
 25 26  2  0  0  0
M  END
> <minimizedAffinity>
-8.00631

$$$$
1976


 26 29  0  0  0  0  0  0  0  0999 V2000
  -38.1541  -69.2531   52.0571 C   0  0  0  0  0  0  0  0  0  0  0  0
  -37.5772  -69.6986   53.1094 O   0  0  0  0  0  0  0  0  0  0  0  0
  -39.4239  -68.6204   52.1125 N   0  0  0  0  0  0  0  0  0  0  0  0
  -40.0142  -68.1415   50.9126 C   0  0  0  0  0  0  0  0  0  0  0  0
  -40.4940  -66.7056   51.1599 C   0  0  0  0  0  0  0  0  0  0  0  0
  -41.5618  -66.8909   52.2170 C   0  0  0  0  0  0  0  0  0  0  0  0
  -41.3365  -67.7650   53.2602 C   0  0  0  0  0  0  0  0  0  0  0  0
  -42.3166  -67.9263   54.1944 N   0  0  0  0  0  0  0  0  0  0  0  0
  -43.4865  -67.2706   54.1390 C   0  0  0  0  0  0  0  0  0  0  0  0
  -43.6897  -66.4226   53.1151 N   0  0  0  0  0  0  0  0  0  0  0  0
  -42.7469  -66.2170   52.1480 C   0  0  0  0  0  0  0  0  0  0  0  0
  -42.9534  -65.3456   51.0940 O   0  0  0  0  0  0  0  0  0  0  0  0
  -40.0636  -68.5028   53.3792 C   0  0  0  0  0  0  0  0  0  0  0  0
  -42.3847  -64.5083   51.0506 H   0  0  0  0  0  0  0  0  0  0  0  0
  -37.4319  -69.4257   50.7556 C   0  0  0  0  0  0  0  0  0  0  0  0
  -34.6730  -69.9762   51.8206 Cl  0  0  0  0  0  0  0  0  0  0  0  0
  -35.1078  -68.4848   51.0293 C   0  0  0  0  0  0  0  0  0  0  0  0
  -34.1873  -67.4648   50.8473 C   0  0  0  0  0  0  0  0  0  0  0  0
  -34.5160  -66.2761   50.2228 C   0  0  0  0  0  0  0  0  0  0  0  0
  -35.8140  -66.1266   49.7719 C   0  0  0  0  0  0  0  0  0  0  0  0
  -36.7188  -67.1541   49.9618 C   0  0  0  0  0  0  0  0  0  0  0  0
  -36.4085  -68.3501   50.5845 C   0  0  0  0  0  0  0  0  0  0  0  0
  -36.1410  -64.9406   49.1480 O   0  0  0  0  0  0  0  0  0  0  0  0
  -35.2097  -64.0339   48.5934 C   0  0  0  0  0  0  0  0  0  0  0  0
  -33.8111  -64.2236   49.0640 C   0  0  0  0  0  0  0  0  0  0  0  0
  -33.6433  -65.2368   50.0183 O   0  0  0  0  0  0  0  0  0  0  0  0
 16 17  1  0  0  0
 17 18  2  0  0  0
 17 22  1  0  0  0
 18 19  1  0  0  0
 19 20  2  0  0  0
 19 26  1  0  0  0
 20 21  1  0  0  0
 20 23  1  0  0  0
 21 22  2  0  0  0
 22 15  1  0  0  0
 15  1  1  0  0  0
  1  2  2  0  0  0
  1  3  1  0  0  0
  3  4  1  0  0  0
  3 13  1  0  0  0
  4  5  1  0  0  0
  5  6  1  0  0  0
  6  7  2  0  0  0
  6 11  1  0  0  0
  7  8  1  0  0  0
  7 13  1  0  0  0
  8  9  2  0  0  0
  9 10  1  0  0  0
 10 11  2  0  0  0
 11 12  1  0  0  0
 23 24  1  0  0  0
 24 25  1  0  0  0
 25 26  1  0  0  0
 12 14  1  0  0  0
M  END
> <minimizedAffinity>
-8.90266

$$$$
1982


 25 28  0  0  0  0  0  0  0  0999 V2000
  -44.7045  -64.5975   53.2059 Cl  0  0  0  0  0  0  0  0  0  0  0  0
  -43.4411  -65.8000   53.3557 C   0  0  0  0  0  0  0  0  0  0  0  0
  -42.4577  -65.9705   52.4035 C   0  0  0  0  0  0  0  0  0  0  0  0
  -41.4567  -66.9147   52.5083 C   0  0  0  0  0  0  0  0  0  0  0  0
  -41.4544  -67.7212   53.6302 C   0  0  0  0  0  0  0  0  0  0  0  0
  -42.4322  -67.5601   54.5899 C   0  0  0  0  0  0  0  0  0  0  0  0
  -43.4334  -66.6161   54.4842 C   0  0  0  0  0  0  0  0  0  0  0  0
  -40.3905  -68.7398   53.7650 C   0  0  0  0  0  0  0  0  0  0  0  0
  -40.1632  -69.5897   54.6758 N   0  0  0  0  0  0  0  0  0  0  0  0
  -39.0016  -70.4153   54.4210 C   0  0  0  0  0  0  0  0  0  0  0  0
  -38.4713  -69.9354   53.1097 C   0  0  0  0  0  0  0  0  0  0  0  0
  -39.3989  -68.8777   52.7568 N   0  0  0  0  0  0  0  0  0  0  0  0
  -39.4731  -68.0045   51.6297 C   0  0  0  0  0  0  0  0  0  0  0  0
  -38.6875  -67.9063   50.5423 N   0  0  0  0  0  0  0  0  0  0  0  0
  -39.1176  -66.9532   49.7333 N   0  0  0  0  0  0  0  0  0  0  0  0
  -40.2139  -66.4409   50.3448 C   0  0  0  0  0  0  0  0  0  0  0  0
  -40.8920  -65.5078   49.8630 O   0  0  0  0  0  0  0  0  0  0  0  0
  -40.4508  -67.0692   51.5082 N   0  0  0  0  0  0  0  0  0  0  0  0
  -38.5394  -66.5470   48.4668 C   0  0  0  0  0  0  0  0  0  0  0  0
  -37.0308  -66.3278   48.6480 C   0  0  0  0  0  0  0  0  0  0  0  0
  -36.2715  -67.2887   47.8091 C   0  0  0  0  0  0  0  0  0  0  0  0
  -35.0910  -67.6527   48.0392 O   0  0  0  0  0  0  0  0  0  0  0  0
  -36.9209  -67.8326   46.6714 N   0  0  0  0  0  0  0  0  0  0  0  0
  -37.5632  -67.2913   46.0647 H   0  0  0  0  0  0  0  0  0  0  0  0
  -36.7385  -68.8310   46.4398 H   0  0  0  0  0  0  0  0  0  0  0  0
  1  2  1  0  0  0
  2  3  2  0  0  0
  2  7  1  0  0  0
  3  4  1  0  0  0
  4  5  2  0  0  0
  4 18  1  0  0  0
  5  6  1  0  0  0
  5  8  1  0  0  0
  6  7  2  0  0  0
  8  9  2  0  0  0
  8 12  1  0  0  0
  9 10  1  0  0  0
 10 11  1  0  0  0
 11 12  1  0  0  0
 12 13  1  0  0  0
 13 14  2  0  0  0
 13 18  1  0  0  0
 14 15  1  0  0  0
 15 16  1  0  0  0
 15 19  1  0  0  0
 16 17  2  0  0  0
 16 18  1  0  0  0
 19 20  1  0  0  0
 20 21  1  0  0  0
 21 22  2  0  0  0
 21 23  1  0  0  0
 23 24  1  0  0  0
 23 25  1  0  0  0
M  END
> <minimizedAffinity>
-8.10124

$$$$
1986


 30 33  0  0  0  0  0  0  0  0999 V2000
  -39.1504  -68.9840   52.3534 Cl  0  0  0  0  0  0  0  0  0  0  0  0
  -39.5737  -67.8093   51.1201 C   0  0  0  0  0  0  0  0  0  0  0  0
  -38.6781  -66.8332   50.7316 C   0  0  0  0  0  0  0  0  0  0  0  0
  -39.0155  -65.8947   49.7478 C   0  0  0  0  0  0  0  0  0  0  0  0
  -40.2681  -65.9994   49.1999 C   0  0  0  0  0  0  0  0  0  0  0  0
  -41.1745  -66.9920   49.5975 C   0  0  0  0  0  0  0  0  0  0  0  0
  -40.8331  -67.9105   50.5660 C   0  0  0  0  0  0  0  0  0  0  0  0
  -40.6275  -65.0794   48.2192 O   0  0  0  0  0  0  0  0  0  0  0  0
  -39.7859  -64.0729   47.7774 C   0  0  0  0  0  0  0  0  0  0  0  0
  -38.5203  -63.9682   48.3326 C   0  0  0  0  0  0  0  0  0  0  0  0
  -38.0191  -64.8719   49.3741 C   0  0  0  0  0  0  0  0  0  0  0  0
  -37.7176  -62.9500   47.8579 C   0  0  0  0  0  0  0  0  0  0  0  0
  -36.5453  -62.8047   48.3299 O   0  0  0  0  0  0  0  0  0  0  0  0
  -38.0863  -62.0735   46.9105 N   0  0  0  0  0  0  0  0  0  0  0  0
  -39.3325  -62.2149   46.3966 C   0  0  0  0  0  0  0  0  0  0  0  0
  -39.6582  -61.3816   45.5086 O   0  0  0  0  0  0  0  0  0  0  0  0
  -40.1494  -63.1929   46.8289 N   0  0  0  0  0  0  0  0  0  0  0  0
  -41.4666  -63.2772   46.2308 C   0  0  0  0  0  0  0  0  0  0  0  0
  -37.1942  -61.0128   46.4415 C   0  0  0  0  0  0  0  0  0  0  0  0
  -36.7815  -65.5590   48.8792 C   0  0  0  0  0  0  0  0  0  0  0  0
  -35.5688  -65.3663   49.5036 C   0  0  0  0  0  0  0  0  0  0  0  0
  -34.4523  -65.9941   49.0438 N   0  0  0  0  0  0  0  0  0  0  0  0
  -34.5194  -66.8150   47.9658 C   0  0  0  0  0  0  0  0  0  0  0  0
  -33.4627  -67.3800   47.5667 O   0  0  0  0  0  0  0  0  0  0  0  0
  -35.6870  -67.0218   47.3365 N   0  0  0  0  0  0  0  0  0  0  0  0
  -36.7949  -66.4034   47.7870 C   0  0  0  0  0  0  0  0  0  0  0  0
  -37.8652  -66.6047   47.1956 O   0  0  0  0  0  0  0  0  0  0  0  0
  -35.7232  -67.9105   46.1791 C   0  0  0  0  0  0  0  0  0  0  0  0
  -33.1987  -65.7507   49.7503 C   0  0  0  0  0  0  0  0  0  0  0  0
  -35.4968  -64.5403   50.5905 O   0  0  0  0  0  0  0  0  0  0  0  0
  1  2  1  0  0  0
  2  3  2  0  0  0
  2  7  1  0  0  0
  3  4  1  0  0  0
  4  5  2  0  0  0
  4 11  1  0  0  0
  5  6  1  0  0  0
  5  8  1  0  0  0
  6  7  2  0  0  0
  8  9  1  0  0  0
  9 10  2  0  0  0
  9 17  1  0  0  0
 10 11  1  0  0  0
 10 12  1  0  0  0
 11 20  1  0  0  0
 20 21  2  0  0  0
 20 26  1  0  0  0
 21 22  1  0  0  0
 21 30  1  0  0  0
 22 23  1  0  0  0
 22 29  1  0  0  0
 23 24  2  0  0  0
 23 25  1  0  0  0
 25 26  1  0  0  0
 25 28  1  0  0  0
 26 27  2  0  0  0
 12 13  2  0  0  0
 12 14  1  0  0  0
 14 15  1  0  0  0
 14 19  1  0  0  0
 15 16  2  0  0  0
 15 17  1  0  0  0
 17 18  1  0  0  0
M  CHG 1  30  -1
M  END
> <minimizedAffinity>
-6.70792

$$$$
1991


 31 34  0  0  0  0  0  0  0  0999 V2000
  -38.9640  -70.9800   54.5018 Cl  0  0  0  0  0  0  0  0  0  0  0  0
  -39.8223  -69.5242   54.0584 C   0  0  0  0  0  0  0  0  0  0  0  0
  -40.0618  -69.2169   52.7376 C   0  0  0  0  0  0  0  0  0  0  0  0
  -40.7360  -68.0702   52.4081 C   0  0  0  0  0  0  0  0  0  0  0  0
  -41.1810  -67.2135   53.4222 C   0  0  0  0  0  0  0  0  0  0  0  0
  -40.9440  -67.5144   54.7538 C   0  0  0  0  0  0  0  0  0  0  0  0
  -40.2670  -68.6677   55.0412 C   0  0  0  0  0  0  0  0  0  0  0  0
  -41.8719  -66.0231   53.2558 O   0  0  0  0  0  0  0  0  0  0  0  0
  -42.6623  -65.6304   52.1590 C   0  0  0  0  0  0  0  0  0  0  0  0
  -41.8610  -65.4665   50.9087 C   0  0  0  0  0  0  0  0  0  0  0  0
  -40.8548  -66.4613   50.6899 N   0  0  0  0  0  0  0  0  0  0  0  0
  -40.9174  -67.8768   50.9467 C   0  0  0  0  0  0  0  0  0  0  0  0
  -39.5969  -66.0310   50.1444 C   0  0  0  0  0  0  0  0  0  0  0  0
  -38.7281  -66.9179   49.9552 O   0  0  0  0  0  0  0  0  0  0  0  0
  -43.8183  -66.6040   51.9912 C   0  0  0  0  0  0  0  0  0  0  0  0
  -45.0291  -66.1212   52.7701 C   0  0  0  0  0  0  0  0  0  0  0  0
  -45.5570  -64.9531   52.2559 O   0  0  0  0  0  0  0  0  0  0  0  0
  -44.5740  -64.1988   51.6258 C   0  0  0  0  0  0  0  0  0  0  0  0
  -43.3062  -64.2733   52.4544 C   0  0  0  0  0  0  0  0  0  0  0  0
  -39.3376  -64.6285   49.8238 C   0  0  0  0  0  0  0  0  0  0  0  0
  -39.7548  -64.1538   48.5557 N   0  0  0  0  0  0  0  0  0  0  0  0
  -39.0273  -64.8042   47.4626 C   0  0  0  0  0  0  0  0  0  0  0  0
  -37.5848  -64.4978   47.6167 C   0  0  0  0  0  0  0  0  0  0  0  0
  -37.2301  -63.0747   47.8913 C   0  0  0  0  0  0  0  0  0  0  0  0
  -38.3286  -62.1663   48.2803 C   0  0  0  0  0  0  0  0  0  0  0  0
  -39.6980  -62.7267   48.3571 C   0  0  0  0  0  0  0  0  0  0  0  0
  -36.0931  -62.9687   48.8382 C   0  0  0  0  0  0  0  0  0  0  0  0
  -35.8698  -63.9041   49.6330 O   0  0  0  0  0  0  0  0  0  0  0  0
  -35.2770  -61.8172   48.8361 N   0  0  0  0  0  0  0  0  0  0  0  0
  -34.3129  -61.9384   48.4064 H   0  0  0  0  0  0  0  0  0  0  0  0
  -35.5247  -60.8912   49.2045 H   0  0  0  0  0  0  0  0  0  0  0  0
  1  2  1  0  0  0
  2  3  2  0  0  0
  2  7  1  0  0  0
  3  4  1  0  0  0
  4  5  2  0  0  0
  4 12  1  0  0  0
  5  6  1  0  0  0
  5  8  1  0  0  0
  6  7  2  0  0  0
  8  9  1  0  0  0
  9 10  1  0  0  0
  9 15  1  0  0  0
  9 19  1  0  0  0
 10 11  1  0  0  0
 11 12  1  0  0  0
 11 13  1  0  0  0
 13 14  2  0  0  0
 13 20  1  0  0  0
 20 21  1  0  0  0
 21 22  1  0  0  0
 21 26  1  0  0  0
 22 23  1  0  0  0
 23 24  1  0  0  0
 24 25  1  0  0  0
 24 27  1  0  0  0
 25 26  1  0  0  0
 27 28  2  0  0  0
 27 29  1  0  0  0
 15 16  1  0  0  0
 16 17  1  0  0  0
 17 18  1  0  0  0
 18 19  1  0  0  0
 29 30  1  0  0  0
 29 31  1  0  0  0
M  END
> <minimizedAffinity>
-8.46819

$$$$
2003


 28 31  0  0  0  0  0  0  0  0999 V2000
  -47.8398  -66.3887   52.5621 N   0  0  0  0  0  0  0  0  0  0  0  0
  -47.2158  -67.1666   53.5880 C   0  0  0  0  0  0  0  0  0  0  0  0
  -45.7231  -66.9796   53.6544 C   0  0  0  0  0  0  0  0  0  0  0  0
  -45.3257  -65.6208   53.3659 N   0  0  0  0  0  0  0  0  0  0  0  0
  -46.2586  -64.5626   53.0834 C   0  0  0  0  0  0  0  0  0  0  0  0
  -47.5973  -64.9912   52.6161 C   0  0  0  0  0  0  0  0  0  0  0  0
  -43.9379  -65.3143   53.3635 C   0  0  0  0  0  0  0  0  0  0  0  0
  -43.5227  -64.1330   53.1168 O   0  0  0  0  0  0  0  0  0  0  0  0
  -42.9398  -66.3462   53.6436 C   0  0  0  0  0  0  0  0  0  0  0  0
  -42.7644  -66.9096   54.8917 C   0  0  0  0  0  0  0  0  0  0  0  0
  -41.8258  -67.8567   55.0755 N   0  0  0  0  0  0  0  0  0  0  0  0
  -41.0231  -68.3040   54.0928 C   0  0  0  0  0  0  0  0  0  0  0  0
  -41.1819  -67.7654   52.8700 N   0  0  0  0  0  0  0  0  0  0  0  0
  -40.3875  -68.2011   51.8718 C   0  0  0  0  0  0  0  0  0  0  0  0
  -39.4262  -69.1720   52.0675 C   0  0  0  0  0  0  0  0  0  0  0  0
  -39.2387  -69.7450   53.3107 C   0  0  0  0  0  0  0  0  0  0  0  0
  -40.0651  -69.2835   54.3205 C   0  0  0  0  0  0  0  0  0  0  0  0
  -42.1096  -66.8155   52.6453 C   0  0  0  0  0  0  0  0  0  0  0  0
  -42.2579  -66.3125   51.5046 O   0  0  0  0  0  0  0  0  0  0  0  0
  -49.4336  -66.8361   52.2072 S   0  0  0  0  0  0  0  0  0  0  0  0
  -50.3854  -65.7602   52.5656 O   0  0  0  0  0  0  0  0  0  0  0  0
  -49.5352  -67.1373   50.7287 O   0  0  0  0  0  0  0  0  0  0  0  0
  -49.8240  -68.3111   53.1079 C   0  0  0  0  0  0  0  0  0  0  0  0
  -50.4234  -68.4852   54.6941 S   0  0  0  0  0  0  0  0  0  0  0  0
  -50.5123  -70.1865   54.7640 C   0  0  0  0  0  0  0  0  0  0  0  0
  -50.0653  -70.5707   53.5302 C   0  0  0  0  0  0  0  0  0  0  0  0
  -49.7097  -69.6074   52.6749 C   0  0  0  0  0  0  0  0  0  0  0  0
  -51.0471  -71.2407   56.0888 Cl  0  0  0  0  0  0  0  0  0  0  0  0
 20 21  2  0  0  0
 20 22  2  0  0  0
 20  1  1  0  0  0
 20 23  1  0  0  0
  1  2  1  0  0  0
  1  6  1  0  0  0
  2  3  1  0  0  0
  3  4  1  0  0  0
  4  5  1  0  0  0
  4  7  1  0  0  0
  5  6  1  0  0  0
  7  8  2  0  0  0
  7  9  1  0  0  0
  9 10  2  0  0  0
  9 18  1  0  0  0
 10 11  1  0  0  0
 11 12  2  0  0  0
 12 13  1  0  0  0
 12 17  1  0  0  0
 13 14  1  0  0  0
 13 18  1  0  0  0
 14 15  2  0  0  0
 15 16  1  0  0  0
 16 17  2  0  0  0
 18 19  2  0  0  0
 23 24  1  0  0  0
 23 27  2  0  0  0
 24 25  1  0  0  0
 25 26  2  0  0  0
 25 28  1  0  0  0
 26 27  1  0  0  0
M  END
> <minimizedAffinity>
-8.47276

$$$$
2004


 29 32  0  0  0  0  0  0  0  0999 V2000
  -37.6472  -69.0633   51.4352 S   0  0  0  0  0  0  0  0  0  0  0  0
  -36.6810  -69.5762   52.4924 O   0  0  0  0  0  0  0  0  0  0  0  0
  -37.9026  -70.2808   50.5484 O   0  0  0  0  0  0  0  0  0  0  0  0
  -39.1662  -68.6911   52.2207 C   0  0  0  0  0  0  0  0  0  0  0  0
  -40.0470  -67.7860   51.5955 C   0  0  0  0  0  0  0  0  0  0  0  0
  -41.2289  -67.4082   52.1912 C   0  0  0  0  0  0  0  0  0  0  0  0
  -41.6221  -67.8830   53.4219 C   0  0  0  0  0  0  0  0  0  0  0  0
  -40.7684  -68.7667   54.0340 C   0  0  0  0  0  0  0  0  0  0  0  0
  -39.5603  -69.1652   53.4434 C   0  0  0  0  0  0  0  0  0  0  0  0
  -38.5658  -70.3520   54.2531 Cl  0  0  0  0  0  0  0  0  0  0  0  0
  -42.8492  -67.4525   53.9809 N   0  0  0  0  0  0  0  0  0  0  0  0
  -43.7076  -66.5339   53.3165 C   0  0  0  0  0  0  0  0  0  0  0  0
  -44.8955  -66.3165   53.6233 O   0  0  0  0  0  0  0  0  0  0  0  0
  -43.1124  -65.7926   52.1735 C   0  0  0  0  0  0  0  0  0  0  0  0
  -42.0835  -66.5107   51.5503 O   0  0  0  0  0  0  0  0  0  0  0  0
  -42.5540  -64.4635   52.6295 C   0  0  0  0  0  0  0  0  0  0  0  0
  -43.1430  -67.8174   54.9168 H   0  0  0  0  0  0  0  0  0  0  0  0
  -36.9606  -67.8470   50.5130 N   0  0  0  0  0  0  0  0  0  0  0  0
  -37.5711  -67.5084   49.3032 C   0  0  0  0  0  0  0  0  0  0  0  0
  -37.0119  -66.2142   48.6944 C   0  0  0  0  0  0  0  0  0  0  0  0
  -35.5957  -66.1122   48.8835 N   0  0  0  0  0  0  0  0  0  0  0  0
  -35.0578  -66.4412   50.1854 C   0  0  0  0  0  0  0  0  0  0  0  0
  -35.5167  -67.8519   50.4984 C   0  0  0  0  0  0  0  0  0  0  0  0
  -34.7661  -65.7050   47.8321 C   0  0  0  0  0  0  0  0  0  0  0  0
  -35.2563  -65.4248   46.7089 O   0  0  0  0  0  0  0  0  0  0  0  0
  -33.2817  -65.5833   47.9824 C   0  0  0  0  0  0  0  0  0  0  0  0
  -32.8523  -64.3955   48.8109 C   0  0  0  0  0  0  0  0  0  0  0  0
  -32.7848  -63.5974   47.5110 C   0  0  0  0  0  0  0  0  0  0  0  0
  -32.6491  -64.9347   46.7770 C   0  0  0  0  0  0  0  0  0  0  0  0
  1  2  2  0  0  0
  1  3  2  0  0  0
  1 18  1  0  0  0
  1  4  1  0  0  0
 18 19  1  0  0  0
 18 23  1  0  0  0
 19 20  1  0  0  0
 20 21  1  0  0  0
 21 22  1  0  0  0
 21 24  1  0  0  0
 22 23  1  0  0  0
 24 25  2  0  0  0
 24 26  1  0  0  0
 26 27  1  0  0  0
 26 29  1  0  0  0
 27 28  1  0  0  0
 28 29  1  0  0  0
  4  5  2  0  0  0
  4  9  1  0  0  0
  5  6  1  0  0  0
  6  7  2  0  0  0
  6 15  1  0  0  0
  7  8  1  0  0  0
  7 11  1  0  0  0
  8  9  2  0  0  0
  9 10  1  0  0  0
 11 12  1  0  0  0
 12 13  2  0  0  0
 12 14  1  0  0  0
 14 15  1  0  0  0
 14 16  1  0  0  0
 11 17  1  0  0  0
M  END
> <minimizedAffinity>
-8.38825

$$$$
2012


 25 28  0  0  0  0  0  0  0  0999 V2000
  -41.6863  -66.8114   52.9364 N   0  0  0  0  0  0  0  0  0  0  0  0
  -41.5667  -65.5301   52.3285 C   0  0  0  0  0  0  0  0  0  0  0  0
  -40.6856  -65.2205   51.5090 O   0  0  0  0  0  0  0  0  0  0  0  0
  -42.6404  -64.6544   52.8275 C   0  0  0  0  0  0  0  0  0  0  0  0
  -43.1890  -63.7599   51.9659 O   0  0  0  0  0  0  0  0  0  0  0  0
  -44.5158  -63.7429   52.3548 N   0  0  0  0  0  0  0  0  0  0  0  0
  -44.8959  -65.0793   52.6928 C   0  0  0  0  0  0  0  0  0  0  0  0
  -43.7394  -65.6638   52.9846 C   0  0  0  0  0  0  0  0  0  0  0  0
  -43.0721  -66.9018   53.3589 C   0  0  0  0  0  0  0  0  0  0  0  0
  -43.6464  -67.8530   53.9473 O   0  0  0  0  0  0  0  0  0  0  0  0
  -45.0937  -62.8878   52.3899 H   0  0  0  0  0  0  0  0  0  0  0  0
  -38.0409  -70.0157   51.0942 Cl  0  0  0  0  0  0  0  0  0  0  0  0
  -39.0550  -69.3522   52.3723 C   0  0  0  0  0  0  0  0  0  0  0  0
  -39.9626  -68.3340   52.0933 C   0  0  0  0  0  0  0  0  0  0  0  0
  -40.7347  -67.8518   53.1241 C   0  0  0  0  0  0  0  0  0  0  0  0
  -40.6100  -68.3714   54.4223 C   0  0  0  0  0  0  0  0  0  0  0  0
  -39.7193  -69.3678   54.6881 C   0  0  0  0  0  0  0  0  0  0  0  0
  -38.9428  -69.8566   53.6509 C   0  0  0  0  0  0  0  0  0  0  0  0
  -46.2239  -65.6560   52.7602 C   0  0  0  0  0  0  0  0  0  0  0  0
  -46.7054  -66.2586   53.9260 C   0  0  0  0  0  0  0  0  0  0  0  0
  -47.9472  -66.7189   53.7150 N   0  0  0  0  0  0  0  0  0  0  0  0
  -48.2823  -66.4350   52.4551 N   0  0  0  0  0  0  0  0  0  0  0  0
  -47.2468  -65.7923   51.8671 C   0  0  0  0  0  0  0  0  0  0  0  0
  -47.2118  -65.3198   50.4601 C   0  0  0  0  0  0  0  0  0  0  0  0
  -48.8384  -67.4162   54.6358 C   0  0  0  0  0  0  0  0  0  0  0  0
 12 13  1  0  0  0
 13 14  2  0  0  0
 13 18  1  0  0  0
 14 15  1  0  0  0
 15 16  2  0  0  0
 15  1  1  0  0  0
 16 17  1  0  0  0
 17 18  2  0  0  0
  1  2  1  0  0  0
  1  9  1  0  0  0
  2  3  2  0  0  0
  2  4  1  0  0  0
  4  5  1  0  0  0
  4  8  1  0  0  0
  5  6  1  0  0  0
  6  7  1  0  0  0
  7  8  2  0  0  0
  7 19  1  0  0  0
  8  9  1  0  0  0
  9 10  2  0  0  0
 19 20  2  0  0  0
 19 23  1  0  0  0
 20 21  1  0  0  0
 21 22  1  0  0  0
 21 25  1  0  0  0
 22 23  2  0  0  0
 23 24  1  0  0  0
  6 11  1  0  0  0
M  END
> <minimizedAffinity>
-8.80350

$$$$
2014


 26 29  0  0  0  0  0  0  0  0999 V2000
  -40.6511  -67.5545   51.8854 C   0  0  0  0  0  0  0  0  0  0  0  0
  -39.8448  -66.9724   51.0023 N   0  0  0  0  0  0  0  0  0  0  0  0
  -38.9012  -67.8622   50.5765 C   0  0  0  0  0  0  0  0  0  0  0  0
  -39.1748  -69.0108   51.2381 N   0  0  0  0  0  0  0  0  0  0  0  0
  -40.2086  -68.8440   52.0172 N   0  0  0  0  0  0  0  0  0  0  0  0
  -38.0807  -67.2903   49.6821 N   0  0  0  0  0  0  0  0  0  0  0  0
  -38.4571  -66.0305   49.4970 C   0  0  0  0  0  0  0  0  0  0  0  0
  -39.5714  -65.8272   50.3279 C   0  0  0  0  0  0  0  0  0  0  0  0
  -40.1772  -64.6329   50.3387 N   0  0  0  0  0  0  0  0  0  0  0  0
  -39.6767  -63.6553   49.5359 C   0  0  0  0  0  0  0  0  0  0  0  0
  -40.2699  -62.5324   49.5682 O   0  0  0  0  0  0  0  0  0  0  0  0
  -38.6247  -63.7957   48.7339 N   0  0  0  0  0  0  0  0  0  0  0  0
  -38.0199  -64.9848   48.7180 C   0  0  0  0  0  0  0  0  0  0  0  0
  -37.0204  -65.1723   47.9774 O   0  0  0  0  0  0  0  0  0  0  0  0
  -38.1443  -62.6840   47.8949 C   0  0  0  0  0  0  0  0  0  0  0  0
  -41.3407  -64.3676   51.1338 C   0  0  0  0  0  0  0  0  0  0  0  0
  -36.9604  -67.9201   49.0135 C   0  0  0  0  0  0  0  0  0  0  0  0
  -45.6284  -65.6272   51.8059 Br  0  0  0  0  0  0  0  0  0  0  0  0
  -44.0530  -66.2621   52.6974 C   0  0  0  0  0  0  0  0  0  0  0  0
  -42.9467  -66.6265   51.9803 C   0  0  0  0  0  0  0  0  0  0  0  0
  -41.8090  -67.0857   52.6392 C   0  0  0  0  0  0  0  0  0  0  0  0
  -41.8679  -67.1469   54.0159 C   0  0  0  0  0  0  0  0  0  0  0  0
  -42.9761  -66.7807   54.7209 C   0  0  0  0  0  0  0  0  0  0  0  0
  -44.1143  -66.3223   54.0784 C   0  0  0  0  0  0  0  0  0  0  0  0
  -40.7009  -67.6164   54.6587 O   0  0  0  0  0  0  0  0  0  0  0  0
  -40.7282  -68.7949   55.4426 C   0  0  0  0  0  0  0  0  0  0  0  0
 18 19  1  0  0  0
 19 20  2  0  0  0
 19 24  1  0  0  0
 20 21  1  0  0  0
 21 22  2  0  0  0
 21  1  1  0  0  0
 22 23  1  0  0  0
 22 25  1  0  0  0
 23 24  2  0  0  0
 25 26  1  0  0  0
  1  2  1  0  0  0
  1  5  2  0  0  0
  2  3  1  0  0  0
  2  8  1  0  0  0
  3  4  2  0  0  0
  3  6  1  0  0  0
  4  5  1  0  0  0
  6  7  1  0  0  0
  6 17  1  0  0  0
  7  8  2  0  0  0
  7 13  1  0  0  0
  8  9  1  0  0  0
  9 10  1  0  0  0
  9 16  1  0  0  0
 10 11  2  0  0  0
 10 12  1  0  0  0
 12 13  1  0  0  0
 12 15  1  0  0  0
 13 14  2  0  0  0
M  END
> <minimizedAffinity>
-7.97483

$$$$
2017


 24 27  0  0  0  0  0  0  0  0999 V2000
  -48.5559  -65.2236   52.6606 Cl  0  0  0  0  0  0  0  0  0  0  0  0
  -46.8667  -65.6869   52.7793 C   0  0  0  0  0  0  0  0  0  0  0  0
  -45.8529  -64.9387   52.2122 C   0  0  0  0  0  0  0  0  0  0  0  0
  -44.5487  -65.3065   52.3098 N   0  0  0  0  0  0  0  0  0  0  0  0
  -44.1574  -66.4154   52.9607 C   0  0  0  0  0  0  0  0  0  0  0  0
  -42.8681  -66.7883   53.0626 N   0  0  0  0  0  0  0  0  0  0  0  0
  -41.8751  -66.0665   52.5131 C   0  0  0  0  0  0  0  0  0  0  0  0
  -42.2716  -64.9121   51.8358 C   0  0  0  0  0  0  0  0  0  0  0  0
  -43.5952  -64.5406   51.7375 C   0  0  0  0  0  0  0  0  0  0  0  0
  -43.9515  -63.4872   51.1176 O   0  0  0  0  0  0  0  0  0  0  0  0
  -45.1566  -67.1861   53.5407 C   0  0  0  0  0  0  0  0  0  0  0  0
  -46.4871  -66.8291   53.4524 C   0  0  0  0  0  0  0  0  0  0  0  0
  -40.4385  -66.4363   52.5990 C   0  0  0  0  0  0  0  0  0  0  0  0
  -40.2598  -67.7408   52.0780 N   0  0  0  0  0  0  0  0  0  0  0  0
  -39.7706  -68.7402   52.9511 C   0  0  0  0  0  0  0  0  0  0  0  0
  -38.9725  -69.8375   52.2644 C   0  0  0  0  0  0  0  0  0  0  0  0
  -37.9769  -69.1414   51.4070 C   0  0  0  0  0  0  0  0  0  0  0  0
  -38.4723  -68.1271   50.6145 C   0  0  0  0  0  0  0  0  0  0  0  0
  -37.6114  -67.4686   49.8240 N   0  0  0  0  0  0  0  0  0  0  0  0
  -36.2842  -67.8026   49.8140 C   0  0  0  0  0  0  0  0  0  0  0  0
  -35.8344  -68.8042   50.6066 N   0  0  0  0  0  0  0  0  0  0  0  0
  -36.6500  -69.5051   51.4252 C   0  0  0  0  0  0  0  0  0  0  0  0
  -35.3209  -67.0801   48.9434 C   0  0  0  0  0  0  0  0  0  0  0  0
  -39.9259  -67.8445   50.6980 C   0  0  0  0  0  0  0  0  0  0  0  0
  1  2  1  0  0  0
  2  3  2  0  0  0
  2 12  1  0  0  0
  3  4  1  0  0  0
  4  5  1  0  0  0
  4  9  1  0  0  0
  5  6  2  0  0  0
  5 11  1  0  0  0
  6  7  1  0  0  0
  7  8  2  0  0  0
  7 13  1  0  0  0
  8  9  1  0  0  0
  9 10  2  0  0  0
 13 14  1  0  0  0
 14 15  1  0  0  0
 14 24  1  0  0  0
 15 16  1  0  0  0
 16 17  1  0  0  0
 17 18  2  0  0  0
 17 22  1  0  0  0
 18 19  1  0  0  0
 18 24  1  0  0  0
 19 20  2  0  0  0
 20 21  1  0  0  0
 20 23  1  0  0  0
 21 22  2  0  0  0
 11 12  2  0  0  0
M  END
> <minimizedAffinity>
-8.17859

$$$$
2020


 22 24  0  0  0  0  0  0  0  0999 V2000
  -42.7414  -66.3330   51.1870 C   0  0  0  0  0  0  0  0  0  0  0  0
  -42.5426  -64.8208   50.8899 C   0  0  0  0  0  0  0  0  0  0  0  0
  -41.4179  -64.5589   51.9101 C   0  0  0  0  0  0  0  0  0  0  0  0
  -40.3862  -63.9688   51.6456 O   0  0  0  0  0  0  0  0  0  0  0  0
  -41.7665  -65.1069   53.2020 N   0  0  0  0  0  0  0  0  0  0  0  0
  -43.2094  -65.3546   53.3780 C   0  0  0  0  0  0  0  0  0  0  0  0
  -43.8246  -64.1178   52.8763 N   0  0  0  0  0  0  0  0  0  0  0  0
  -43.6431  -63.9799   51.4529 C   0  0  0  0  0  0  0  0  0  0  0  0
  -44.3329  -63.2285   50.7398 O   0  0  0  0  0  0  0  0  0  0  0  0
  -43.5926  -66.4407   52.3364 C   0  0  0  0  0  0  0  0  0  0  0  0
  -43.6313  -65.7206   54.7322 C   0  0  0  0  0  0  0  0  0  0  0  0
  -41.0839  -65.3269   53.9320 H   0  0  0  0  0  0  0  0  0  0  0  0
  -44.3141  -63.4465   53.4789 H   0  0  0  0  0  0  0  0  0  0  0  0
  -38.2815  -66.5112   48.3511 Br  0  0  0  0  0  0  0  0  0  0  0  0
  -39.3093  -67.0080   49.8725 C   0  0  0  0  0  0  0  0  0  0  0  0
  -40.5962  -66.4936   50.0447 C   0  0  0  0  0  0  0  0  0  0  0  0
  -41.3778  -66.8494   51.1514 C   0  0  0  0  0  0  0  0  0  0  0  0
  -40.7939  -67.7285   52.0462 C   0  0  0  0  0  0  0  0  0  0  0  0
  -39.5168  -68.2275   51.8568 C   0  0  0  0  0  0  0  0  0  0  0  0
  -38.7670  -67.8693   50.7719 C   0  0  0  0  0  0  0  0  0  0  0  0
  -41.5645  -68.0571   53.1249 O   0  0  0  0  0  0  0  0  0  0  0  0
  -40.9566  -68.4058   54.3393 C   0  0  0  0  0  0  0  0  0  0  0  0
 14 15  1  0  0  0
 15 16  2  0  0  0
 15 20  1  0  0  0
 16 17  1  0  0  0
 17 18  2  0  0  0
 17  1  1  0  0  0
 18 19  1  0  0  0
 18 21  1  0  0  0
 19 20  2  0  0  0
 21 22  1  0  0  0
  1  2  1  0  0  0
  1 10  1  0  0  0
  2  3  1  0  0  0
  2  8  1  0  0  0
  3  4  2  0  0  0
  3  5  1  0  0  0
  5  6  1  0  0  0
  6  7  1  0  0  0
  6 10  1  0  0  0
  6 11  1  0  0  0
  7  8  1  0  0  0
  8  9  2  0  0  0
  5 12  1  0  0  0
  7 13  1  0  0  0
M  END
> <minimizedAffinity>
-6.78290

$$$$
2028


 31 34  0  0  0  0  0  0  0  0999 V2000
  -42.4406  -66.5802   51.5009 Cl  0  0  0  0  0  0  0  0  0  0  0  0
  -40.8249  -67.2513   51.2943 C   0  0  0  0  0  0  0  0  0  0  0  0
  -40.0385  -66.7681   50.2327 C   0  0  0  0  0  0  0  0  0  0  0  0
  -38.7869  -67.2860   50.0793 C   0  0  0  0  0  0  0  0  0  0  0  0
  -38.2889  -68.2644   50.9285 C   0  0  0  0  0  0  0  0  0  0  0  0
  -39.0823  -68.7190   51.9568 C   0  0  0  0  0  0  0  0  0  0  0  0
  -40.3507  -68.2196   52.1510 C   0  0  0  0  0  0  0  0  0  0  0  0
  -38.5177  -69.7804   52.8621 C   0  0  0  0  0  0  0  0  0  0  0  0
  -38.1267  -66.5211   48.9769 C   0  0  0  0  0  0  0  0  0  0  0  0
  -37.2913  -67.2821   48.1367 N   0  0  0  0  0  0  0  0  0  0  0  0
  -35.9828  -67.2642   48.7266 C   0  0  0  0  0  0  0  0  0  0  0  0
  -35.9554  -66.2736   49.8182 C   0  0  0  0  0  0  0  0  0  0  0  0
  -37.2221  -65.4641   49.5289 C   0  0  0  0  0  0  0  0  0  0  0  0
  -36.7309  -64.5323   48.5304 C   0  0  0  0  0  0  0  0  0  0  0  0
  -37.2273  -64.0420   47.4926 O   0  0  0  0  0  0  0  0  0  0  0  0
  -35.3868  -64.1988   48.9671 N   0  0  0  0  0  0  0  0  0  0  0  0
  -34.9116  -65.2565   49.7862 C   0  0  0  0  0  0  0  0  0  0  0  0
  -33.8110  -65.2811   50.3542 O   0  0  0  0  0  0  0  0  0  0  0  0
  -39.2456  -65.8616   48.3075 C   0  0  0  0  0  0  0  0  0  0  0  0
  -39.3364  -65.3276   47.1573 O   0  0  0  0  0  0  0  0  0  0  0  0
  -40.3595  -65.8794   49.1693 N   0  0  0  0  0  0  0  0  0  0  0  0
  -37.6356  -68.2617   47.9908 H   0  0  0  0  0  0  0  0  0  0  0  0
  -41.2728  -65.3637   49.0980 H   0  0  0  0  0  0  0  0  0  0  0  0
  -34.8867  -67.1266   47.6866 C   0  0  0  0  0  0  0  0  0  0  0  0
  -33.6458  -67.5143   48.0966 O   0  0  0  0  0  0  0  0  0  0  0  0
  -35.3638  -67.6914   46.3894 C   0  0  0  0  0  0  0  0  0  0  0  0
  -33.1423  -68.0551   47.4364 H   0  0  0  0  0  0  0  0  0  0  0  0
  -34.6254  -63.0155   48.6655 C   0  0  0  0  0  0  0  0  0  0  0  0
  -33.7873  -63.0826   47.4434 C   0  0  0  0  0  0  0  0  0  0  0  0
  -32.6610  -63.8476   47.4848 O   0  0  0  0  0  0  0  0  0  0  0  0
  -31.6487  -63.3628   48.2867 C   0  0  0  0  0  0  0  0  0  0  0  0
  1  2  1  0  0  0
  2  3  2  0  0  0
  2  7  1  0  0  0
  3  4  1  0  0  0
  3 21  1  0  0  0
  4  5  2  0  0  0
  4  9  1  0  0  0
  5  6  1  0  0  0
  6  7  2  0  0  0
  6  8  1  0  0  0
  9 10  1  0  0  0
  9 13  1  0  0  0
  9 19  1  0  0  0
 10 11  1  0  0  0
 11 12  1  0  0  0
 11 24  1  0  0  0
 12 13  1  0  0  0
 12 17  1  0  0  0
 13 14  1  0  0  0
 14 15  2  0  0  0
 14 16  1  0  0  0
 16 17  1  0  0  0
 16 28  1  0  0  0
 17 18  2  0  0  0
 28 29  1  0  0  0
 29 30  1  0  0  0
 30 31  1  0  0  0
 24 25  1  0  0  0
 24 26  1  0  0  0
 19 20  2  0  0  0
 19 21  1  0  0  0
 10 22  1  0  0  0
 25 27  1  0  0  0
 21 23  1  0  0  0
M  END
> <minimizedAffinity>
-8.03509

$$$$
2032


 31 34  0  0  0  0  0  0  0  0999 V2000
  -43.5743  -67.4724   54.4555 C   0  0  0  0  0  0  0  0  0  0  0  0
  -42.4686  -67.8328   53.8885 C   0  0  0  0  0  0  0  0  0  0  0  0
  -42.0810  -67.5610   52.6064 O   0  0  0  0  0  0  0  0  0  0  0  0
  -40.8223  -68.1162   52.3842 C   0  0  0  0  0  0  0  0  0  0  0  0
  -40.3467  -68.7626   53.4796 C   0  0  0  0  0  0  0  0  0  0  0  0
  -39.0883  -69.3750   53.4697 C   0  0  0  0  0  0  0  0  0  0  0  0
  -38.2778  -69.3588   52.3648 C   0  0  0  0  0  0  0  0  0  0  0  0
  -38.8161  -68.6827   51.2550 C   0  0  0  0  0  0  0  0  0  0  0  0
  -40.0255  -68.0764   51.2342 C   0  0  0  0  0  0  0  0  0  0  0  0
  -37.9521  -68.7100   50.1400 O   0  0  0  0  0  0  0  0  0  0  0  0
  -41.3893  -68.6097   54.5003 C   0  0  0  0  0  0  0  0  0  0  0  0
  -41.3540  -69.0627   55.6813 O   0  0  0  0  0  0  0  0  0  0  0  0
  -48.6275  -67.3019   52.7210 Br  0  0  0  0  0  0  0  0  0  0  0  0
  -46.9152  -66.5450   53.0324 C   0  0  0  0  0  0  0  0  0  0  0  0
  -45.8789  -67.2738   53.6430 C   0  0  0  0  0  0  0  0  0  0  0  0
  -44.6540  -66.6984   53.8598 C   0  0  0  0  0  0  0  0  0  0  0  0
  -44.4391  -65.3963   53.4714 C   0  0  0  0  0  0  0  0  0  0  0  0
  -45.4741  -64.6718   52.8613 C   0  0  0  0  0  0  0  0  0  0  0  0
  -46.6878  -65.2416   52.6502 C   0  0  0  0  0  0  0  0  0  0  0  0
  -43.2102  -64.8847   53.7078 O   0  0  0  0  0  0  0  0  0  0  0  0
  -42.3483  -64.2975   52.7950 C   0  0  0  0  0  0  0  0  0  0  0  0
  -40.6135  -67.4110   50.0564 C   0  0  0  0  0  0  0  0  0  0  0  0
  -39.6958  -66.4641   49.4686 N   0  0  0  0  0  0  0  0  0  0  0  0
  -39.7849  -65.2039   50.1842 C   0  0  0  0  0  0  0  0  0  0  0  0
  -39.7074  -64.0029   49.3406 C   0  0  0  0  0  0  0  0  0  0  0  0
  -38.9209  -64.1136   48.1536 N   0  0  0  0  0  0  0  0  0  0  0  0
  -38.4603  -65.3745   47.7852 C   0  0  0  0  0  0  0  0  0  0  0  0
  -39.5460  -66.4390   48.0951 C   0  0  0  0  0  0  0  0  0  0  0  0
  -38.7206  -66.8730   49.8408 H   0  0  0  0  0  0  0  0  0  0  0  0
  -39.1698  -63.1679   47.1333 C   0  0  0  0  0  0  0  0  0  0  0  0
  -40.5727  -63.1077   46.6403 C   0  0  0  0  0  0  0  0  0  0  0  0
 13 14  1  0  0  0
 14 15  2  0  0  0
 14 19  1  0  0  0
 15 16  1  0  0  0
 16 17  2  0  0  0
 16  1  1  0  0  0
 17 18  1  0  0  0
 17 20  1  0  0  0
 18 19  2  0  0  0
 20 21  1  0  0  0
  1  2  2  0  0  0
  2  3  1  0  0  0
  2 11  1  0  0  0
  3  4  1  0  0  0
  4  5  2  0  0  0
  4  9  1  0  0  0
  5  6  1  0  0  0
  5 11  1  0  0  0
  6  7  2  0  0  0
  7  8  1  0  0  0
  8  9  2  0  0  0
  8 10  1  0  0  0
  9 22  1  0  0  0
 22 23  1  0  0  0
 23 24  1  0  0  0
 23 28  1  0  0  0
 24 25  1  0  0  0
 25 26  1  0  0  0
 26 27  1  0  0  0
 26 30  1  0  0  0
 27 28  1  0  0  0
 30 31  1  0  0  0
 11 12  2  0  0  0
 23 29  1  0  0  0
M  CHG 1  10  -1
M  CHG 1  23   1
M  END
> <minimizedAffinity>
-8.47000

$$$$
2033


 29 32  0  0  0  0  0  0  0  0999 V2000
  -43.4520  -66.9555   53.7830 C   0  0  0  0  0  0  0  0  0  0  0  0
  -42.3302  -67.5781   53.5482 C   0  0  0  0  0  0  0  0  0  0  0  0
  -41.5760  -67.4289   52.3948 O   0  0  0  0  0  0  0  0  0  0  0  0
  -40.4377  -68.2129   52.4188 C   0  0  0  0  0  0  0  0  0  0  0  0
  -40.3699  -68.9311   53.5910 C   0  0  0  0  0  0  0  0  0  0  0  0
  -39.3096  -69.7820   53.8217 C   0  0  0  0  0  0  0  0  0  0  0  0
  -38.3215  -69.9070   52.8683 C   0  0  0  0  0  0  0  0  0  0  0  0
  -38.4149  -69.1613   51.6767 C   0  0  0  0  0  0  0  0  0  0  0  0
  -39.4509  -68.3144   51.4279 C   0  0  0  0  0  0  0  0  0  0  0  0
  -37.3413  -69.3910   50.8015 O   0  0  0  0  0  0  0  0  0  0  0  0
  -41.5699  -68.5478   54.3424 C   0  0  0  0  0  0  0  0  0  0  0  0
  -41.9031  -68.9691   55.4721 O   0  0  0  0  0  0  0  0  0  0  0  0
  -47.7076  -65.6572   50.7388 Br  0  0  0  0  0  0  0  0  0  0  0  0
  -45.9907  -65.3708   51.5126 C   0  0  0  0  0  0  0  0  0  0  0  0
  -45.3573  -66.2392   52.3543 C   0  0  0  0  0  0  0  0  0  0  0  0
  -44.1140  -66.0092   52.9011 C   0  0  0  0  0  0  0  0  0  0  0  0
  -43.4843  -64.8090   52.5575 C   0  0  0  0  0  0  0  0  0  0  0  0
  -44.0713  -63.9012   51.7197 C   0  0  0  0  0  0  0  0  0  0  0  0
  -45.3275  -64.1881   51.1986 C   0  0  0  0  0  0  0  0  0  0  0  0
  -42.2344  -64.5562   53.0884 O   0  0  0  0  0  0  0  0  0  0  0  0
  -41.1368  -64.3304   52.2433 C   0  0  0  0  0  0  0  0  0  0  0  0
  -39.5880  -67.5155   50.2412 C   0  0  0  0  0  0  0  0  0  0  0  0
  -38.7475  -66.4266   49.9527 N   0  0  0  0  0  0  0  0  0  0  0  0
  -37.6289  -66.7083   49.0947 C   0  0  0  0  0  0  0  0  0  0  0  0
  -37.9654  -66.7104   47.6239 C   0  0  0  0  0  0  0  0  0  0  0  0
  -39.3208  -66.5614   47.3643 O   0  0  0  0  0  0  0  0  0  0  0  0
  -39.6972  -65.3496   47.9334 C   0  0  0  0  0  0  0  0  0  0  0  0
  -39.4884  -65.2733   49.4101 C   0  0  0  0  0  0  0  0  0  0  0  0
  -38.3669  -66.0444   50.8428 H   0  0  0  0  0  0  0  0  0  0  0  0
 13 14  1  0  0  0
 14 15  2  0  0  0
 14 19  1  0  0  0
 15 16  1  0  0  0
 16 17  2  0  0  0
 16  1  1  0  0  0
 17 18  1  0  0  0
 17 20  1  0  0  0
 18 19  2  0  0  0
 20 21  1  0  0  0
  1  2  2  0  0  0
  2  3  1  0  0  0
  2 11  1  0  0  0
  3  4  1  0  0  0
  4  5  2  0  0  0
  4  9  1  0  0  0
  5  6  1  0  0  0
  5 11  1  0  0  0
  6  7  2  0  0  0
  7  8  1  0  0  0
  8  9  2  0  0  0
  8 10  1  0  0  0
  9 22  1  0  0  0
 22 23  1  0  0  0
 23 24  1  0  0  0
 23 28  1  0  0  0
 24 25  1  0  0  0
 25 26  1  0  0  0
 26 27  1  0  0  0
 27 28  1  0  0  0
 11 12  2  0  0  0
 23 29  1  0  0  0
M  CHG 1  10  -1
M  CHG 1  23   1
M  END
> <minimizedAffinity>
-8.96188

$$$$
2041


 30 33  0  0  0  0  0  0  0  0999 V2000
  -42.8029  -67.3988   53.6065 N   0  0  0  0  0  0  0  0  0  0  0  0
  -42.4144  -68.0340   54.8496 C   0  0  0  0  0  0  0  0  0  0  0  0
  -41.5725  -69.2729   54.5713 C   0  0  0  0  0  0  0  0  0  0  0  0
  -40.3753  -68.8439   53.8488 N   0  0  0  0  0  0  0  0  0  0  0  0
  -40.4067  -67.4925   53.3738 C   0  0  0  0  0  0  0  0  0  0  0  0
  -41.7234  -67.2803   52.6739 C   0  0  0  0  0  0  0  0  0  0  0  0
  -39.3150  -69.7414   53.6886 C   0  0  0  0  0  0  0  0  0  0  0  0
  -39.4240  -70.9318   54.1943 O   0  0  0  0  0  0  0  0  0  0  0  0
  -43.5141  -65.8661   53.9254 S   0  0  0  0  0  0  0  0  0  0  0  0
  -43.3638  -65.6141   55.4077 O   0  0  0  0  0  0  0  0  0  0  0  0
  -42.8075  -64.7590   53.2196 O   0  0  0  0  0  0  0  0  0  0  0  0
  -45.2086  -65.9051   53.4927 C   0  0  0  0  0  0  0  0  0  0  0  0
  -45.9438  -64.7966   53.1398 C   0  0  0  0  0  0  0  0  0  0  0  0
  -47.2764  -64.8909   52.8186 C   0  0  0  0  0  0  0  0  0  0  0  0
  -47.9154  -66.1303   52.8438 C   0  0  0  0  0  0  0  0  0  0  0  0
  -47.1804  -67.2660   53.2015 C   0  0  0  0  0  0  0  0  0  0  0  0
  -45.8453  -67.1459   53.5189 C   0  0  0  0  0  0  0  0  0  0  0  0
  -49.6067  -66.2347   52.4329 Cl  0  0  0  0  0  0  0  0  0  0  0  0
  -38.0348  -69.5300   53.0055 C   0  0  0  0  0  0  0  0  0  0  0  0
  -38.1240  -69.6084   51.2214 S   0  0  0  0  0  0  0  0  0  0  0  0
  -37.4365  -68.1864   50.3919 C   0  0  0  0  0  0  0  0  0  0  0  0
  -38.2104  -67.3252   49.7441 N   0  0  0  0  0  0  0  0  0  0  0  0
  -37.7478  -66.2367   49.1232 C   0  0  0  0  0  0  0  0  0  0  0  0
  -36.3999  -65.9984   49.1564 N   0  0  0  0  0  0  0  0  0  0  0  0
  -35.5923  -66.8473   49.8004 C   0  0  0  0  0  0  0  0  0  0  0  0
  -34.2404  -66.8359   49.9880 N   0  0  0  0  0  0  0  0  0  0  0  0
  -33.9126  -67.8927   50.7025 N   0  0  0  0  0  0  0  0  0  0  0  0
  -34.9991  -68.6093   50.9990 C   0  0  0  0  0  0  0  0  0  0  0  0
  -36.0760  -67.9727   50.4416 C   0  0  0  0  0  0  0  0  0  0  0  0
  -33.3392  -65.8352   49.4969 C   0  0  0  0  0  0  0  0  0  0  0  0
  9 10  2  0  0  0
  9 11  2  0  0  0
  9  1  1  0  0  0
  9 12  1  0  0  0
  1  2  1  0  0  0
  1  6  1  0  0  0
  2  3  1  0  0  0
  3  4  1  0  0  0
  4  5  1  0  0  0
  4  7  1  0  0  0
  5  6  1  0  0  0
  7  8  2  0  0  0
  7 19  1  0  0  0
 19 20  1  0  0  0
 20 21  1  0  0  0
 21 22  2  0  0  0
 21 29  1  0  0  0
 22 23  1  0  0  0
 23 24  2  0  0  0
 24 25  1  0  0  0
 25 26  1  0  0  0
 25 29  2  0  0  0
 26 27  1  0  0  0
 26 30  1  0  0  0
 27 28  2  0  0  0
 28 29  1  0  0  0
 12 13  2  0  0  0
 12 17  1  0  0  0
 13 14  1  0  0  0
 14 15  2  0  0  0
 15 16  1  0  0  0
 15 18  1  0  0  0
 16 17  2  0  0  0
M  END
> <minimizedAffinity>
-8.43629

$$$$
2043


 32 35  0  0  0  0  0  0  0  0999 V2000
  -35.9957  -65.6528   48.3511 N   0  0  0  0  0  0  0  0  0  0  0  0
  -36.0873  -65.0749   49.6692 C   0  0  0  0  0  0  0  0  0  0  0  0
  -37.2819  -64.1234   49.6802 C   0  0  0  0  0  0  0  0  0  0  0  0
  -38.3614  -64.7105   48.9805 N   0  0  0  0  0  0  0  0  0  0  0  0
  -38.1007  -64.6619   47.4735 C   0  0  0  0  0  0  0  0  0  0  0  0
  -36.6483  -64.9381   47.3175 C   0  0  0  0  0  0  0  0  0  0  0  0
  -39.5051  -65.3259   49.3991 C   0  0  0  0  0  0  0  0  0  0  0  0
  -40.3199  -65.5715   48.3162 O   0  0  0  0  0  0  0  0  0  0  0  0
  -40.1371  -65.7944   50.5692 C   0  0  0  0  0  0  0  0  0  0  0  0
  -41.2914  -65.8231   51.1489 C   0  0  0  0  0  0  0  0  0  0  0  0
  -42.4513  -65.2438   50.6131 N   0  0  0  0  0  0  0  0  0  0  0  0
  -43.7337  -65.3162   51.2015 N   0  0  0  0  0  0  0  0  0  0  0  0
  -43.8869  -66.0082   52.4070 C   0  0  0  0  0  0  0  0  0  0  0  0
  -45.0236  -66.0803   52.9427 O   0  0  0  0  0  0  0  0  0  0  0  0
  -42.7033  -66.6368   53.0194 C   0  0  0  0  0  0  0  0  0  0  0  0
  -41.4514  -66.5626   52.4375 C   0  0  0  0  0  0  0  0  0  0  0  0
  -40.4144  -67.1710   53.0684 C   0  0  0  0  0  0  0  0  0  0  0  0
  -40.6298  -67.8489   54.2726 C   0  0  0  0  0  0  0  0  0  0  0  0
  -41.8697  -67.9256   54.8553 C   0  0  0  0  0  0  0  0  0  0  0  0
  -42.9191  -67.3065   54.2112 C   0  0  0  0  0  0  0  0  0  0  0  0
  -42.4116  -64.6868   49.7568 H   0  0  0  0  0  0  0  0  0  0  0  0
  -44.5389  -64.8369   50.6992 H   0  0  0  0  0  0  0  0  0  0  0  0
  -36.0561  -67.3301   48.2907 S   0  0  0  0  0  0  0  0  0  0  0  0
  -36.8760  -67.7217   47.0683 O   0  0  0  0  0  0  0  0  0  0  0  0
  -34.6531  -67.8460   47.9920 O   0  0  0  0  0  0  0  0  0  0  0  0
  -36.6143  -68.1118   49.7166 C   0  0  0  0  0  0  0  0  0  0  0  0
  -37.9522  -68.3127   49.9462 C   0  0  0  0  0  0  0  0  0  0  0  0
  -38.3775  -68.9444   51.1009 C   0  0  0  0  0  0  0  0  0  0  0  0
  -37.4915  -69.3905   52.0560 C   0  0  0  0  0  0  0  0  0  0  0  0
  -36.1392  -69.1899   51.8304 C   0  0  0  0  0  0  0  0  0  0  0  0
  -35.7246  -68.5531   50.6626 C   0  0  0  0  0  0  0  0  0  0  0  0
  -38.0819  -70.1839   53.5024 Cl  0  0  0  0  0  0  0  0  0  0  0  0
 23 24  2  0  0  0
 23 25  2  0  0  0
 23  1  1  0  0  0
 23 26  1  0  0  0
  1  2  1  0  0  0
  1  6  1  0  0  0
  2  3  1  0  0  0
  3  4  1  0  0  0
  4  5  1  0  0  0
  4  7  1  0  0  0
  5  6  1  0  0  0
  7  8  2  0  0  0
  7  9  1  0  0  0
  9 10  2  0  0  0
 10 11  1  0  0  0
 10 16  1  0  0  0
 11 12  1  0  0  0
 12 13  1  0  0  0
 13 14  2  0  0  0
 13 15  1  0  0  0
 15 16  2  0  0  0
 15 20  1  0  0  0
 16 17  1  0  0  0
 17 18  2  0  0  0
 18 19  1  0  0  0
 19 20  2  0  0  0
 26 27  2  0  0  0
 26 31  1  0  0  0
 27 28  1  0  0  0
 28 29  2  0  0  0
 29 30  1  0  0  0
 29 32  1  0  0  0
 30 31  2  0  0  0
 11 21  1  0  0  0
 12 22  1  0  0  0
M  END
> <minimizedAffinity>
-9.83186

$$$$
2046


 26 29  0  0  0  0  0  0  0  0999 V2000
  -36.1806  -67.9046   48.1856 Cl  0  0  0  0  0  0  0  0  0  0  0  0
  -37.1932  -68.1320   49.5775 C   0  0  0  0  0  0  0  0  0  0  0  0
  -38.2895  -67.3374   49.7960 C   0  0  0  0  0  0  0  0  0  0  0  0
  -39.0523  -67.5671   50.9187 C   0  0  0  0  0  0  0  0  0  0  0  0
  -38.7719  -68.5562   51.8365 C   0  0  0  0  0  0  0  0  0  0  0  0
  -37.6682  -69.3442   51.6017 C   0  0  0  0  0  0  0  0  0  0  0  0
  -36.8980  -69.1213   50.4807 C   0  0  0  0  0  0  0  0  0  0  0  0
  -38.6540  -66.2963   48.9243 N   0  0  0  0  0  0  0  0  0  0  0  0
  -39.5516  -66.4025   47.9657 N   0  0  0  0  0  0  0  0  0  0  0  0
  -39.6769  -65.2522   47.3312 N   0  0  0  0  0  0  0  0  0  0  0  0
  -38.8376  -64.4165   47.9088 N   0  0  0  0  0  0  0  0  0  0  0  0
  -38.1801  -65.0575   48.9212 C   0  0  0  0  0  0  0  0  0  0  0  0
  -37.1716  -64.3948   49.7467 C   0  0  0  0  0  0  0  0  0  0  0  0
  -35.7488  -64.7114   49.7699 C   0  0  0  0  0  0  0  0  0  0  0  0
  -36.1876  -63.4795   48.9606 C   0  0  0  0  0  0  0  0  0  0  0  0
  -39.5942  -68.7751   53.0100 N   0  0  0  0  0  0  0  0  0  0  0  0
  -39.1755  -68.9496   53.9285 H   0  0  0  0  0  0  0  0  0  0  0  0
  -41.0014  -68.7329   52.8136 C   0  0  0  0  0  0  0  0  0  0  0  0
  -41.8156  -67.9946   53.7745 C   0  0  0  0  0  0  0  0  0  0  0  0
  -41.9882  -68.6536   54.8940 O   0  0  0  0  0  0  0  0  0  0  0  0
  -42.4186  -66.7628   53.7196 N   0  0  0  0  0  0  0  0  0  0  0  0
  -42.3029  -65.8093   52.6629 C   0  0  0  0  0  0  0  0  0  0  0  0
  -43.6990  -65.5270   52.1152 C   0  0  0  0  0  0  0  0  0  0  0  0
  -44.3923  -64.9319   53.1921 O   0  0  0  0  0  0  0  0  0  0  0  0
  -44.6260  -65.9009   54.1434 C   0  0  0  0  0  0  0  0  0  0  0  0
  -43.3179  -66.3352   54.8135 C   0  0  0  0  0  0  0  0  0  0  0  0
  1  2  1  0  0  0
  2  3  2  0  0  0
  2  7  1  0  0  0
  3  4  1  0  0  0
  3  8  1  0  0  0
  4  5  2  0  0  0
  5  6  1  0  0  0
  5 16  1  0  0  0
  6  7  2  0  0  0
 16 18  1  0  0  0
 18 19  1  0  0  0
 19 20  2  0  0  0
 19 21  1  0  0  0
 21 22  1  0  0  0
 21 26  1  0  0  0
 22 23  1  0  0  0
 23 24  1  0  0  0
 24 25  1  0  0  0
 25 26  1  0  0  0
  8  9  1  0  0  0
  8 12  1  0  0  0
  9 10  2  0  0  0
 10 11  1  0  0  0
 11 12  2  0  0  0
 12 13  1  0  0  0
 13 14  1  0  0  0
 13 15  1  0  0  0
 14 15  1  0  0  0
 16 17  1  0  0  0
M  END
> <minimizedAffinity>
-7.64960

$$$$
2063


 34 37  0  0  0  0  0  0  0  0999 V2000
  -36.7283  -67.2392   48.9520 C   0  0  0  0  0  0  0  0  0  0  0  0
  -37.7255  -66.2822   48.7882 C   0  0  0  0  0  0  0  0  0  0  0  0
  -38.7878  -66.2310   49.5565 O   0  0  0  0  0  0  0  0  0  0  0  0
  -38.9973  -67.0756   50.5385 C   0  0  0  0  0  0  0  0  0  0  0  0
  -38.0656  -68.0583   50.7775 C   0  0  0  0  0  0  0  0  0  0  0  0
  -38.3252  -68.9197   51.8154 C   0  0  0  0  0  0  0  0  0  0  0  0
  -39.4475  -68.8398   52.6001 C   0  0  0  0  0  0  0  0  0  0  0  0
  -40.4146  -67.8396   52.3728 C   0  0  0  0  0  0  0  0  0  0  0  0
  -40.1480  -66.9816   51.3321 C   0  0  0  0  0  0  0  0  0  0  0  0
  -36.9382  -68.1403   49.9892 C   0  0  0  0  0  0  0  0  0  0  0  0
  -36.0836  -69.0401   50.2069 O   0  0  0  0  0  0  0  0  0  0  0  0
  -31.8749  -67.4755   45.1367 Br  0  0  0  0  0  0  0  0  0  0  0  0
  -33.3657  -67.3946   46.3324 C   0  0  0  0  0  0  0  0  0  0  0  0
  -33.2385  -66.9143   47.6152 C   0  0  0  0  0  0  0  0  0  0  0  0
  -34.3150  -66.8510   48.4922 C   0  0  0  0  0  0  0  0  0  0  0  0
  -35.5643  -67.2768   48.0915 C   0  0  0  0  0  0  0  0  0  0  0  0
  -35.6899  -67.7594   46.7999 C   0  0  0  0  0  0  0  0  0  0  0  0
  -34.6221  -67.8224   45.9282 C   0  0  0  0  0  0  0  0  0  0  0  0
  -41.5292  -67.7929   53.1843 O   0  0  0  0  0  0  0  0  0  0  0  0
  -42.6696  -67.0791   52.9602 C   0  0  0  0  0  0  0  0  0  0  0  0
  -42.4221  -65.7485   52.5282 O   0  0  0  0  0  0  0  0  0  0  0  0
  -43.5647  -65.3595   51.8637 C   0  0  0  0  0  0  0  0  0  0  0  0
  -44.7880  -65.2836   52.7236 C   0  0  0  0  0  0  0  0  0  0  0  0
  -44.9072  -66.4604   53.6619 C   0  0  0  0  0  0  0  0  0  0  0  0
  -43.5564  -66.9086   54.1801 C   0  0  0  0  0  0  0  0  0  0  0  0
  -43.7337  -68.1085   54.8584 O   0  0  0  0  0  0  0  0  0  0  0  0
  -45.7923  -66.1505   54.6863 O   0  0  0  0  0  0  0  0  0  0  0  0
  -45.8999  -65.3402   51.8677 O   0  0  0  0  0  0  0  0  0  0  0  0
  -43.7400  -67.9633   55.8337 H   0  0  0  0  0  0  0  0  0  0  0  0
  -46.3058  -65.3055   54.5004 H   0  0  0  0  0  0  0  0  0  0  0  0
  -45.7833  -66.0518   51.1899 H   0  0  0  0  0  0  0  0  0  0  0  0
  -43.3940  -64.0686   51.1035 C   0  0  0  0  0  0  0  0  0  0  0  0
  -44.2565  -63.0745   51.5600 O   0  0  0  0  0  0  0  0  0  0  0  0
  -43.9561  -62.2298   51.0993 H   0  0  0  0  0  0  0  0  0  0  0  0
 12 13  1  0  0  0
 13 14  2  0  0  0
 13 18  1  0  0  0
 14 15  1  0  0  0
 15 16  2  0  0  0
 16 17  1  0  0  0
 16  1  1  0  0  0
 17 18  2  0  0  0
  1  2  2  0  0  0
  1 10  1  0  0  0
  2  3  1  0  0  0
  3  4  1  0  0  0
  4  5  2  0  0  0
  4  9  1  0  0  0
  5  6  1  0  0  0
  5 10  1  0  0  0
  6  7  2  0  0  0
  7  8  1  0  0  0
  8  9  2  0  0  0
  8 19  1  0  0  0
 19 20  1  0  0  0
 20 21  1  0  0  0
 20 25  1  0  0  0
 21 22  1  0  0  0
 22 23  1  0  0  0
 22 32  1  0  0  0
 23 24  1  0  0  0
 23 28  1  0  0  0
 24 25  1  0  0  0
 24 27  1  0  0  0
 25 26  1  0  0  0
 32 33  1  0  0  0
 10 11  2  0  0  0
 26 29  1  0  0  0
 27 30  1  0  0  0
 28 31  1  0  0  0
 33 34  1  0  0  0
M  END
> <minimizedAffinity>
-8.95849

$$$$
2072


 27 30  0  0  0  0  0  0  0  0999 V2000
  -35.7609  -65.6002   48.1016 N   0  0  0  0  0  0  0  0  0  0  0  0
  -35.7090  -65.0334   49.3995 C   0  0  0  0  0  0  0  0  0  0  0  0
  -36.9106  -64.2645   49.8701 C   0  0  0  0  0  0  0  0  0  0  0  0
  -38.0856  -64.8377   49.3013 N   0  0  0  0  0  0  0  0  0  0  0  0
  -37.9945  -64.5998   47.8611 C   0  0  0  0  0  0  0  0  0  0  0  0
  -36.9131  -65.4551   47.3153 C   0  0  0  0  0  0  0  0  0  0  0  0
  -35.3155  -67.2621   48.1898 S   0  0  0  0  0  0  0  0  0  0  0  0
  -35.7664  -67.9461   46.9186 O   0  0  0  0  0  0  0  0  0  0  0  0
  -33.8473  -67.4355   48.3026 O   0  0  0  0  0  0  0  0  0  0  0  0
  -36.0643  -68.0207   49.6029 C   0  0  0  0  0  0  0  0  0  0  0  0
  -37.7160  -68.2323   49.9675 S   0  0  0  0  0  0  0  0  0  0  0  0
  -37.5685  -69.0281   51.4650 C   0  0  0  0  0  0  0  0  0  0  0  0
  -36.2130  -69.1080   51.6418 C   0  0  0  0  0  0  0  0  0  0  0  0
  -35.4379  -68.5889   50.6821 C   0  0  0  0  0  0  0  0  0  0  0  0
  -38.9470  -69.6731   52.6477 Br  0  0  0  0  0  0  0  0  0  0  0  0
  -39.3148  -64.3513   49.8278 C   0  0  0  0  0  0  0  0  0  0  0  0
  -40.4303  -65.3196   49.6282 C   0  0  0  0  0  0  0  0  0  0  0  0
  -41.0937  -65.6613   50.8687 N   0  0  0  0  0  0  0  0  0  0  0  0
  -40.8738  -66.7285   51.6353 N   0  0  0  0  0  0  0  0  0  0  0  0
  -41.6690  -66.7012   52.7138 C   0  0  0  0  0  0  0  0  0  0  0  0
  -42.4116  -65.5909   52.6291 N   0  0  0  0  0  0  0  0  0  0  0  0
  -43.3230  -65.2804   53.5824 C   0  0  0  0  0  0  0  0  0  0  0  0
  -43.5342  -66.0813   54.6819 C   0  0  0  0  0  0  0  0  0  0  0  0
  -42.7816  -67.2337   54.7949 C   0  0  0  0  0  0  0  0  0  0  0  0
  -41.8628  -67.5224   53.8096 C   0  0  0  0  0  0  0  0  0  0  0  0
  -42.0456  -64.9532   51.4787 C   0  0  0  0  0  0  0  0  0  0  0  0
  -42.5804  -63.8736   51.1307 O   0  0  0  0  0  0  0  0  0  0  0  0
  7  8  2  0  0  0
  7  9  2  0  0  0
  7  1  1  0  0  0
  7 10  1  0  0  0
  1  2  1  0  0  0
  1  6  1  0  0  0
  2  3  1  0  0  0
  3  4  1  0  0  0
  4  5  1  0  0  0
  4 16  1  0  0  0
  5  6  1  0  0  0
 16 17  1  0  0  0
 17 18  1  0  0  0
 18 19  1  0  0  0
 18 26  1  0  0  0
 19 20  2  0  0  0
 20 21  1  0  0  0
 20 25  1  0  0  0
 21 22  1  0  0  0
 21 26  1  0  0  0
 22 23  2  0  0  0
 23 24  1  0  0  0
 24 25  2  0  0  0
 26 27  2  0  0  0
 10 11  1  0  0  0
 10 14  2  0  0  0
 11 12  1  0  0  0
 12 13  2  0  0  0
 12 15  1  0  0  0
 13 14  1  0  0  0
M  END
> <minimizedAffinity>
-7.54382

$$$$
2079


 31 34  0  0  0  0  0  0  0  0999 V2000
  -38.0340  -67.6782   50.3978 C   0  0  0  0  0  0  0  0  0  0  0  0
  -37.9321  -68.6893   51.3253 C   0  0  0  0  0  0  0  0  0  0  0  0
  -38.9490  -68.8331   52.2797 C   0  0  0  0  0  0  0  0  0  0  0  0
  -40.0338  -67.9846   52.3065 C   0  0  0  0  0  0  0  0  0  0  0  0
  -41.0929  -68.0499   53.2125 C   0  0  0  0  0  0  0  0  0  0  0  0
  -40.9709  -69.1121   54.1434 C   0  0  0  0  0  0  0  0  0  0  0  0
  -39.8936  -69.9932   54.1463 C   0  0  0  0  0  0  0  0  0  0  0  0
  -38.8881  -69.8442   53.2046 C   0  0  0  0  0  0  0  0  0  0  0  0
  -41.9113  -69.3595   55.1241 O   0  0  0  0  0  0  0  0  0  0  0  0
  -40.0864  -67.0640   51.4309 O   0  0  0  0  0  0  0  0  0  0  0  0
  -39.1714  -66.8487   50.4818 C   0  0  0  0  0  0  0  0  0  0  0  0
  -39.2843  -65.9272   49.6649 O   0  0  0  0  0  0  0  0  0  0  0  0
  -33.7615  -67.1796   46.1069 Cl  0  0  0  0  0  0  0  0  0  0  0  0
  -35.0470  -67.2542   47.3367 C   0  0  0  0  0  0  0  0  0  0  0  0
  -34.9157  -66.6806   48.5959 C   0  0  0  0  0  0  0  0  0  0  0  0
  -35.8934  -66.8080   49.5664 C   0  0  0  0  0  0  0  0  0  0  0  0
  -37.0647  -67.5397   49.2925 C   0  0  0  0  0  0  0  0  0  0  0  0
  -37.1676  -68.0786   48.0602 C   0  0  0  0  0  0  0  0  0  0  0  0
  -36.2036  -67.9670   47.0744 C   0  0  0  0  0  0  0  0  0  0  0  0
  -42.3119  -67.3204   53.2018 C   0  0  0  0  0  0  0  0  0  0  0  0
  -43.2403  -67.2549   54.3013 N   0  0  0  0  0  0  0  0  0  0  0  0
  -43.3430  -65.8738   54.8501 C   0  0  0  0  0  0  0  0  0  0  0  0
  -43.3352  -64.8857   53.7385 C   0  0  0  0  0  0  0  0  0  0  0  0
  -44.4178  -65.0138   52.7901 N   0  0  0  0  0  0  0  0  0  0  0  0
  -44.8997  -66.3480   52.6709 C   0  0  0  0  0  0  0  0  0  0  0  0
  -44.6120  -67.3333   53.7031 C   0  0  0  0  0  0  0  0  0  0  0  0
  -43.2315  -67.9489   55.0128 H   0  0  0  0  0  0  0  0  0  0  0  0
  -44.0048  -64.5014   51.4747 C   0  0  0  0  0  0  0  0  0  0  0  0
  -42.5086  -64.5809   51.2770 C   0  0  0  0  0  0  0  0  0  0  0  0
  -42.1553  -65.3043   50.1478 O   0  0  0  0  0  0  0  0  0  0  0  0
  -42.0961  -64.6626   49.3707 H   0  0  0  0  0  0  0  0  0  0  0  0
 13 14  1  0  0  0
 14 15  2  0  0  0
 14 19  1  0  0  0
 15 16  1  0  0  0
 16 17  2  0  0  0
 17 18  1  0  0  0
 17  1  1  0  0  0
 18 19  2  0  0  0
  1  2  2  0  0  0
  1 11  1  0  0  0
  2  3  1  0  0  0
  3  4  2  0  0  0
  3  8  1  0  0  0
  4  5  1  0  0  0
  4 10  1  0  0  0
  5  6  2  0  0  0
  5 20  1  0  0  0
  6  7  1  0  0  0
  6  9  1  0  0  0
  7  8  2  0  0  0
 20 21  1  0  0  0
 21 22  1  0  0  0
 21 26  1  0  0  0
 22 23  1  0  0  0
 23 24  1  0  0  0
 24 25  1  0  0  0
 24 28  1  0  0  0
 25 26  1  0  0  0
 28 29  1  0  0  0
 29 30  1  0  0  0
 10 11  1  0  0  0
 11 12  2  0  0  0
 21 27  1  0  0  0
 30 31  1  0  0  0
M  CHG 1   9  -1
M  CHG 1  21   1
M  END
> <minimizedAffinity>
-8.70520

$$$$
2087


 32 35  0  0  0  0  0  0  0  0999 V2000
  -38.5744  -67.1203   49.8045 N   0  0  0  0  0  0  0  0  0  0  0  0
  -37.3557  -67.6118   50.2022 C   0  0  0  0  0  0  0  0  0  0  0  0
  -36.3854  -66.6477   50.0130 C   0  0  0  0  0  0  0  0  0  0  0  0
  -37.0307  -65.5941   49.5035 N   0  0  0  0  0  0  0  0  0  0  0  0
  -38.3655  -65.8769   49.3712 C   0  0  0  0  0  0  0  0  0  0  0  0
  -35.0967  -66.8898   50.3219 N   0  0  0  0  0  0  0  0  0  0  0  0
  -34.7787  -68.0941   50.8175 C   0  0  0  0  0  0  0  0  0  0  0  0
  -33.5736  -68.3085   51.1018 O   0  0  0  0  0  0  0  0  0  0  0  0
  -35.6894  -69.0537   51.0127 N   0  0  0  0  0  0  0  0  0  0  0  0
  -37.0063  -68.8444   50.7120 C   0  0  0  0  0  0  0  0  0  0  0  0
  -37.8353  -69.7661   50.9041 O   0  0  0  0  0  0  0  0  0  0  0  0
  -34.1098  -65.8462   50.1130 C   0  0  0  0  0  0  0  0  0  0  0  0
  -35.4216  -69.9942   51.4003 H   0  0  0  0  0  0  0  0  0  0  0  0
  -39.2546  -64.9730   48.7681 N   0  0  0  0  0  0  0  0  0  0  0  0
  -39.7574  -64.9352   47.4416 C   0  0  0  0  0  0  0  0  0  0  0  0
  -40.1131  -63.5124   46.9965 C   0  0  0  0  0  0  0  0  0  0  0  0
  -39.4384  -62.4786   47.6668 N   0  0  0  0  0  0  0  0  0  0  0  0
  -39.3780  -62.5466   49.0737 C   0  0  0  0  0  0  0  0  0  0  0  0
  -39.7839  -63.8883   49.6396 C   0  0  0  0  0  0  0  0  0  0  0  0
  -38.5111  -61.6774   46.9811 C   0  0  0  0  0  0  0  0  0  0  0  0
  -37.1161  -62.1410   46.9361 C   0  0  0  0  0  0  0  0  0  0  0  0
  -36.7144  -63.0101   46.1172 O   0  0  0  0  0  0  0  0  0  0  0  0
  -36.1925  -61.6186   47.8158 O   0  0  0  0  0  0  0  0  0  0  0  0
  -35.5107  -62.4065   48.7527 C   0  0  0  0  0  0  0  0  0  0  0  0
  -39.8081  -67.8584   49.8965 C   0  0  0  0  0  0  0  0  0  0  0  0
  -43.3081  -66.0593   54.6559 Br  0  0  0  0  0  0  0  0  0  0  0  0
  -42.2225  -66.6023   53.1848 C   0  0  0  0  0  0  0  0  0  0  0  0
  -42.5767  -66.2972   51.8895 C   0  0  0  0  0  0  0  0  0  0  0  0
  -41.7710  -66.7036   50.8249 C   0  0  0  0  0  0  0  0  0  0  0  0
  -40.6316  -67.4054   51.0883 C   0  0  0  0  0  0  0  0  0  0  0  0
  -40.2663  -67.7161   52.3663 C   0  0  0  0  0  0  0  0  0  0  0  0
  -41.0581  -67.3160   53.4145 C   0  0  0  0  0  0  0  0  0  0  0  0
 26 27  1  0  0  0
 27 28  2  0  0  0
 27 32  1  0  0  0
 28 29  1  0  0  0
 29 30  2  0  0  0
 30 31  1  0  0  0
 30 25  1  0  0  0
 31 32  2  0  0  0
 25  1  1  0  0  0
  1  2  1  0  0  0
  1  5  1  0  0  0
  2  3  2  0  0  0
  2 10  1  0  0  0
  3  4  1  0  0  0
  3  6  1  0  0  0
  4  5  2  0  0  0
  5 14  1  0  0  0
 14 15  1  0  0  0
 14 19  1  0  0  0
 15 16  1  0  0  0
 16 17  1  0  0  0
 17 18  1  0  0  0
 17 20  1  0  0  0
 18 19  1  0  0  0
 20 21  1  0  0  0
 21 22  2  0  0  0
 21 23  1  0  0  0
 23 24  1  0  0  0
  6  7  1  0  0  0
  6 12  1  0  0  0
  7  8  2  0  0  0
  7  9  1  0  0  0
  9 10  1  0  0  0
 10 11  2  0  0  0
  9 13  1  0  0  0
M  END
> <minimizedAffinity>
-7.31377

$$$$
2091


 28 31  0  0  0  0  0  0  0  0999 V2000
  -38.4612  -67.4379   50.0212 N   0  0  0  0  0  0  0  0  0  0  0  0
  -37.3768  -68.1095   50.4353 C   0  0  0  0  0  0  0  0  0  0  0  0
  -36.2593  -67.3378   50.2069 C   0  0  0  0  0  0  0  0  0  0  0  0
  -36.7000  -66.2159   49.6589 N   0  0  0  0  0  0  0  0  0  0  0  0
  -38.0343  -66.2464   49.5338 C   0  0  0  0  0  0  0  0  0  0  0  0
  -34.9994  -67.7281   50.5243 N   0  0  0  0  0  0  0  0  0  0  0  0
  -34.8641  -68.9365   51.0938 C   0  0  0  0  0  0  0  0  0  0  0  0
  -33.6902  -69.2827   51.3799 O   0  0  0  0  0  0  0  0  0  0  0  0
  -35.9159  -69.7348   51.3457 N   0  0  0  0  0  0  0  0  0  0  0  0
  -37.1699  -69.3577   51.0341 C   0  0  0  0  0  0  0  0  0  0  0  0
  -38.1602  -70.0679   51.2550 O   0  0  0  0  0  0  0  0  0  0  0  0
  -33.8840  -66.8493   50.2427 C   0  0  0  0  0  0  0  0  0  0  0  0
  -35.8013  -70.6707   51.7909 H   0  0  0  0  0  0  0  0  0  0  0  0
  -38.8710  -65.2195   48.9852 N   0  0  0  0  0  0  0  0  0  0  0  0
  -39.1005  -65.2291   47.5574 C   0  0  0  0  0  0  0  0  0  0  0  0
  -38.4760  -63.9683   46.9779 C   0  0  0  0  0  0  0  0  0  0  0  0
  -38.3409  -62.9239   47.9377 N   0  0  0  0  0  0  0  0  0  0  0  0
  -39.3261  -62.8864   48.9668 C   0  0  0  0  0  0  0  0  0  0  0  0
  -39.4904  -64.1665   49.7453 C   0  0  0  0  0  0  0  0  0  0  0  0
  -37.0322  -62.5160   48.2826 C   0  0  0  0  0  0  0  0  0  0  0  0
  -39.8291  -67.8935   50.0707 C   0  0  0  0  0  0  0  0  0  0  0  0
  -43.4244  -65.9757   54.7067 Br  0  0  0  0  0  0  0  0  0  0  0  0
  -42.2895  -66.6145   53.3151 C   0  0  0  0  0  0  0  0  0  0  0  0
  -41.1550  -67.3741   53.5828 C   0  0  0  0  0  0  0  0  0  0  0  0
  -40.3597  -67.8025   52.5215 C   0  0  0  0  0  0  0  0  0  0  0  0
  -40.6296  -67.5183   51.2189 C   0  0  0  0  0  0  0  0  0  0  0  0
  -41.7876  -66.7479   50.9971 C   0  0  0  0  0  0  0  0  0  0  0  0
  -42.6012  -66.3025   52.0125 C   0  0  0  0  0  0  0  0  0  0  0  0
 22 23  1  0  0  0
 23 24  2  0  0  0
 23 28  1  0  0  0
 24 25  1  0  0  0
 25 26  2  0  0  0
 26 27  1  0  0  0
 26 21  1  0  0  0
 27 28  2  0  0  0
 21  1  1  0  0  0
  1  2  1  0  0  0
  1  5  1  0  0  0
  2  3  2  0  0  0
  2 10  1  0  0  0
  3  4  1  0  0  0
  3  6  1  0  0  0
  4  5  2  0  0  0
  5 14  1  0  0  0
 14 15  1  0  0  0
 14 19  1  0  0  0
 15 16  1  0  0  0
 16 17  1  0  0  0
 17 18  1  0  0  0
 17 20  1  0  0  0
 18 19  1  0  0  0
  6  7  1  0  0  0
  6 12  1  0  0  0
  7  8  2  0  0  0
  7  9  1  0  0  0
  9 10  1  0  0  0
 10 11  2  0  0  0
  9 13  1  0  0  0
M  END
> <minimizedAffinity>
-8.04534

$$$$
2103


 29 32  0  0  0  0  0  0  0  0999 V2000
  -39.9534  -67.3373   50.9770 C   0  0  0  0  0  0  0  0  0  0  0  0
  -38.8946  -68.2358   51.3588 C   0  0  0  0  0  0  0  0  0  0  0  0
  -38.9720  -68.9087   52.5226 C   0  0  0  0  0  0  0  0  0  0  0  0
  -40.0755  -68.7518   53.3812 C   0  0  0  0  0  0  0  0  0  0  0  0
  -41.0934  -67.8973   53.0337 C   0  0  0  0  0  0  0  0  0  0  0  0
  -41.0222  -67.1882   51.8239 C   0  0  0  0  0  0  0  0  0  0  0  0
  -42.0664  -66.1899   51.4775 C   0  0  0  0  0  0  0  0  0  0  0  0
  -42.9009  -65.7386   52.6715 C   0  0  0  0  0  0  0  0  0  0  0  0
  -43.3317  -66.8579   53.4759 N   0  0  0  0  0  0  0  0  0  0  0  0
  -42.2702  -67.7333   53.8814 C   0  0  0  0  0  0  0  0  0  0  0  0
  -42.4212  -68.3231   54.9713 O   0  0  0  0  0  0  0  0  0  0  0  0
  -44.7154  -67.0758   53.8393 C   0  0  0  0  0  0  0  0  0  0  0  0
  -40.0788  -69.4601   54.5247 O   0  0  0  0  0  0  0  0  0  0  0  0
  -37.8137  -69.6946   52.6238 O   0  0  0  0  0  0  0  0  0  0  0  0
  -37.1277  -69.6994   51.3898 C   0  0  0  0  0  0  0  0  0  0  0  0
  -37.7002  -68.5907   50.7247 O   0  0  0  0  0  0  0  0  0  0  0  0
  -40.7138  -69.5087   55.2451 H   0  0  0  0  0  0  0  0  0  0  0  0
  -39.6877  -66.7252   49.6926 C   0  0  0  0  0  0  0  0  0  0  0  0
  -38.4449  -64.6595   49.3719 C   0  0  0  0  0  0  0  0  0  0  0  0
  -39.4598  -64.0589   49.7628 O   0  0  0  0  0  0  0  0  0  0  0  0
  -38.4827  -66.1349   49.3041 N   0  0  0  0  0  0  0  0  0  0  0  0
  -37.5743  -66.5183   49.0051 H   0  0  0  0  0  0  0  0  0  0  0  0
  -33.1359  -64.2575   49.0802 Br  0  0  0  0  0  0  0  0  0  0  0  0
  -34.9137  -63.6213   48.7940 C   0  0  0  0  0  0  0  0  0  0  0  0
  -35.1300  -62.4205   48.1960 C   0  0  0  0  0  0  0  0  0  0  0  0
  -36.3645  -61.9640   47.9899 N   0  0  0  0  0  0  0  0  0  0  0  0
  -37.4177  -62.6980   48.3771 C   0  0  0  0  0  0  0  0  0  0  0  0
  -37.2556  -63.9338   48.9934 C   0  0  0  0  0  0  0  0  0  0  0  0
  -35.9837  -64.4125   49.2096 C   0  0  0  0  0  0  0  0  0  0  0  0
 23 24  1  0  0  0
 24 25  2  0  0  0
 24 29  1  0  0  0
 25 26  1  0  0  0
 26 27  2  0  0  0
 27 28  1  0  0  0
 28 29  2  0  0  0
 28 19  1  0  0  0
 19 20  2  0  0  0
 19 21  1  0  0  0
 21 18  1  0  0  0
 18  1  1  0  0  0
  1  2  2  0  0  0
  1  6  1  0  0  0
  2  3  1  0  0  0
  2 16  1  0  0  0
  3  4  2  0  0  0
  3 14  1  0  0  0
  4  5  1  0  0  0
  4 13  1  0  0  0
  5  6  2  0  0  0
  5 10  1  0  0  0
  6  7  1  0  0  0
  7  8  1  0  0  0
  8  9  1  0  0  0
  9 10  1  0  0  0
  9 12  1  0  0  0
 10 11  2  0  0  0
 14 15  1  0  0  0
 15 16  1  0  0  0
 21 22  1  0  0  0
 13 17  1  0  0  0
M  END
> <minimizedAffinity>
-8.84465

$$$$
2105


 29 32  0  0  0  0  0  0  0  0999 V2000
  -34.5290  -63.3240   45.3677 Cl  0  0  0  0  0  0  0  0  0  0  0  0
  -35.1434  -63.5760   46.9882 C   0  0  0  0  0  0  0  0  0  0  0  0
  -35.8183  -64.7518   47.3168 C   0  0  0  0  0  0  0  0  0  0  0  0
  -36.3120  -64.9861   48.5659 C   0  0  0  0  0  0  0  0  0  0  0  0
  -36.1086  -63.9885   49.5096 C   0  0  0  0  0  0  0  0  0  0  0  0
  -35.4436  -62.8209   49.2046 C   0  0  0  0  0  0  0  0  0  0  0  0
  -34.9529  -62.6027   47.9369 C   0  0  0  0  0  0  0  0  0  0  0  0
  -36.9665  -66.3105   48.5835 C   0  0  0  0  0  0  0  0  0  0  0  0
  -38.4370  -66.1616   48.8821 C   0  0  0  0  0  0  0  0  0  0  0  0
  -39.0356  -66.7686   49.8686 C   0  0  0  0  0  0  0  0  0  0  0  0
  -38.3310  -67.6338   50.7564 N   0  0  0  0  0  0  0  0  0  0  0  0
  -36.9439  -67.8300   50.5479 C   0  0  0  0  0  0  0  0  0  0  0  0
  -36.3306  -67.2242   49.5567 C   0  0  0  0  0  0  0  0  0  0  0  0
  -36.1698  -68.6838   51.3958 N   0  0  0  0  0  0  0  0  0  0  0  0
  -40.4648  -66.3962   49.8622 C   0  0  0  0  0  0  0  0  0  0  0  0
  -40.6237  -65.5372   48.8018 O   0  0  0  0  0  0  0  0  0  0  0  0
  -39.4180  -65.3568   48.1649 C   0  0  0  0  0  0  0  0  0  0  0  0
  -39.1702  -64.6304   47.1400 O   0  0  0  0  0  0  0  0  0  0  0  0
  -40.8246  -65.8002   51.2049 C   0  0  0  0  0  0  0  0  0  0  0  0
  -41.3618  -67.6010   49.6433 C   0  0  0  0  0  0  0  0  0  0  0  0
  -36.7989  -66.8224   47.2032 C   0  0  0  0  0  0  0  0  0  0  0  0
  -37.2143  -67.9487   46.7505 O   0  0  0  0  0  0  0  0  0  0  0  0
  -36.0984  -65.8483   46.4633 N   0  0  0  0  0  0  0  0  0  0  0  0
  -38.8030  -68.1216   51.5470 H   0  0  0  0  0  0  0  0  0  0  0  0
  -36.2021  -68.5795   52.4185 H   0  0  0  0  0  0  0  0  0  0  0  0
  -35.5811  -69.4029   50.9588 H   0  0  0  0  0  0  0  0  0  0  0  0
  -35.8403  -65.9582   45.4356 H   0  0  0  0  0  0  0  0  0  0  0  0
  -34.9037  -67.4538   49.3782 C   0  0  0  0  0  0  0  0  0  0  0  0
  -33.7667  -67.6233   49.2470 N   0  0  0  0  0  0  0  0  0  0  0  0
  1  2  1  0  0  0
  2  3  2  0  0  0
  2  7  1  0  0  0
  3  4  1  0  0  0
  3 23  1  0  0  0
  4  5  2  0  0  0
  4  8  1  0  0  0
  5  6  1  0  0  0
  6  7  2  0  0  0
  8  9  1  0  0  0
  8 13  1  0  0  0
  8 21  1  0  0  0
  9 10  2  0  0  0
  9 17  1  0  0  0
 10 11  1  0  0  0
 10 15  1  0  0  0
 11 12  1  0  0  0
 12 13  2  0  0  0
 12 14  1  0  0  0
 13 28  1  0  0  0
 28 29  3  0  0  0
 15 16  1  0  0  0
 15 19  1  0  0  0
 15 20  1  0  0  0
 16 17  1  0  0  0
 17 18  2  0  0  0
 21 22  2  0  0  0
 21 23  1  0  0  0
 11 24  1  0  0  0
 14 25  1  0  0  0
 14 26  1  0  0  0
 23 27  1  0  0  0
M  END
> <minimizedAffinity>
-6.39284

$$$$
2109


 21 24  0  0  0  0  0  0  0  0999 V2000
  -41.9828  -66.3296   53.1279 N   0  0  0  0  0  0  0  0  0  0  0  0
  -42.2380  -64.9585   52.7892 C   0  0  0  0  0  0  0  0  0  0  0  0
  -41.6090  -64.2735   51.9449 O   0  0  0  0  0  0  0  0  0  0  0  0
  -43.3715  -64.4437   53.5911 C   0  0  0  0  0  0  0  0  0  0  0  0
  -44.3477  -63.8366   52.8091 O   0  0  0  0  0  0  0  0  0  0  0  0
  -44.9060  -64.7677   52.0534 N   0  0  0  0  0  0  0  0  0  0  0  0
  -44.7690  -66.0344   52.6245 C   0  0  0  0  0  0  0  0  0  0  0  0
  -44.0747  -65.7467   53.9566 C   0  0  0  0  0  0  0  0  0  0  0  0
  -42.9136  -66.6451   54.1626 C   0  0  0  0  0  0  0  0  0  0  0  0
  -42.7225  -67.5302   55.0492 O   0  0  0  0  0  0  0  0  0  0  0  0
  -45.9522  -66.8934   52.7705 C   0  0  0  0  0  0  0  0  0  0  0  0
  -47.2402  -66.3999   52.2393 C   0  0  0  0  0  0  0  0  0  0  0  0
  -46.9714  -65.5713   51.0023 C   0  0  0  0  0  0  0  0  0  0  0  0
  -46.1193  -64.4099   51.4439 C   0  0  0  0  0  0  0  0  0  0  0  0
  -37.8709  -70.0589   50.8227 Cl  0  0  0  0  0  0  0  0  0  0  0  0
  -39.0717  -68.9695   51.4938 C   0  0  0  0  0  0  0  0  0  0  0  0
  -39.7971  -68.1309   50.6732 C   0  0  0  0  0  0  0  0  0  0  0  0
  -40.7425  -67.2742   51.2121 C   0  0  0  0  0  0  0  0  0  0  0  0
  -41.0098  -67.2097   52.5627 C   0  0  0  0  0  0  0  0  0  0  0  0
  -40.2750  -68.0569   53.3800 C   0  0  0  0  0  0  0  0  0  0  0  0
  -39.3307  -68.9140   52.8475 C   0  0  0  0  0  0  0  0  0  0  0  0
 15 16  1  0  0  0
 16 17  2  0  0  0
 16 21  1  0  0  0
 17 18  1  0  0  0
 18 19  2  0  0  0
 19 20  1  0  0  0
 19  1  1  0  0  0
 20 21  2  0  0  0
  1  2  1  0  0  0
  1  9  1  0  0  0
  2  3  2  0  0  0
  2  4  1  0  0  0
  4  5  1  0  0  0
  4  8  1  0  0  0
  5  6  1  0  0  0
  6  7  1  0  0  0
  6 14  1  0  0  0
  7  8  1  0  0  0
  7 11  1  0  0  0
  8  9  1  0  0  0
  9 10  2  0  0  0
 11 12  1  0  0  0
 12 13  1  0  0  0
 13 14  1  0  0  0
M  END
> <minimizedAffinity>
-8.04476

$$$$
2116


 33 36  0  0  0  0  0  0  0  0999 V2000
  -38.2500  -65.1186   48.8074 C   0  0  0  0  0  0  0  0  0  0  0  0
  -37.5747  -66.1280   49.3334 N   0  0  0  0  0  0  0  0  0  0  0  0
  -36.2358  -66.1653   49.4499 C   0  0  0  0  0  0  0  0  0  0  0  0
  -35.5582  -65.0896   48.9934 N   0  0  0  0  0  0  0  0  0  0  0  0
  -36.1954  -64.0215   48.4433 C   0  0  0  0  0  0  0  0  0  0  0  0
  -37.5487  -64.0556   48.3598 N   0  0  0  0  0  0  0  0  0  0  0  0
  -35.4748  -62.9124   47.9564 N   0  0  0  0  0  0  0  0  0  0  0  0
  -34.0662  -62.7608   48.2161 C   0  0  0  0  0  0  0  0  0  0  0  0
  -33.4210  -62.5491   46.8386 C   0  0  0  0  0  0  0  0  0  0  0  0
  -34.0666  -61.5127   46.1957 O   0  0  0  0  0  0  0  0  0  0  0  0
  -35.3571  -61.8930   45.8299 C   0  0  0  0  0  0  0  0  0  0  0  0
  -36.1395  -61.9119   47.1607 C   0  0  0  0  0  0  0  0  0  0  0  0
  -35.5459  -67.2872   50.0252 N   0  0  0  0  0  0  0  0  0  0  0  0
  -34.1743  -67.1901   50.4365 C   0  0  0  0  0  0  0  0  0  0  0  0
  -33.6405  -68.3106   51.2407 C   0  0  0  0  0  0  0  0  0  0  0  0
  -34.4016  -69.4703   51.1921 O   0  0  0  0  0  0  0  0  0  0  0  0
  -35.7494  -69.2209   51.4116 C   0  0  0  0  0  0  0  0  0  0  0  0
  -36.2665  -68.5164   50.1813 C   0  0  0  0  0  0  0  0  0  0  0  0
  -39.6664  -65.1825   48.6964 N   0  0  0  0  0  0  0  0  0  0  0  0
  -40.1262  -64.7771   47.8726 H   0  0  0  0  0  0  0  0  0  0  0  0
  -40.4158  -65.4182   50.9247 C   0  0  0  0  0  0  0  0  0  0  0  0
  -40.4233  -65.7827   49.6886 N   0  0  0  0  0  0  0  0  0  0  0  0
  -40.8146  -68.7354   55.1230 Br  0  0  0  0  0  0  0  0  0  0  0  0
  -41.5426  -67.5423   53.8341 C   0  0  0  0  0  0  0  0  0  0  0  0
  -42.9048  -67.2897   53.8721 C   0  0  0  0  0  0  0  0  0  0  0  0
  -43.4112  -66.4237   52.9218 C   0  0  0  0  0  0  0  0  0  0  0  0
  -42.5967  -65.8436   51.9841 C   0  0  0  0  0  0  0  0  0  0  0  0
  -41.2237  -66.0809   51.9277 C   0  0  0  0  0  0  0  0  0  0  0  0
  -40.7368  -66.9470   52.8822 C   0  0  0  0  0  0  0  0  0  0  0  0
  -43.1164  -64.9691   51.0239 O   0  0  0  0  0  0  0  0  0  0  0  0
  -43.7420  -67.8742   54.8200 O   0  0  0  0  0  0  0  0  0  0  0  0
  -44.1136  -64.7772   51.0384 H   0  0  0  0  0  0  0  0  0  0  0  0
  -43.4209  -68.5073   55.5368 H   0  0  0  0  0  0  0  0  0  0  0  0
 23 24  1  0  0  0
 24 25  2  0  0  0
 24 29  1  0  0  0
 25 26  1  0  0  0
 25 31  1  0  0  0
 26 27  2  0  0  0
 27 28  1  0  0  0
 27 30  1  0  0  0
 28 29  2  0  0  0
 28 21  1  0  0  0
 21 22  2  0  0  0
 22 19  1  0  0  0
 19  1  1  0  0  0
  1  2  2  0  0  0
  1  6  1  0  0  0
  2  3  1  0  0  0
  3  4  2  0  0  0
  3 13  1  0  0  0
  4  5  1  0  0  0
  5  6  2  0  0  0
  5  7  1  0  0  0
  7  8  1  0  0  0
  7 12  1  0  0  0
  8  9  1  0  0  0
  9 10  1  0  0  0
 10 11  1  0  0  0
 11 12  1  0  0  0
 13 14  1  0  0  0
 13 18  1  0  0  0
 14 15  1  0  0  0
 15 16  1  0  0  0
 16 17  1  0  0  0
 17 18  1  0  0  0
 19 20  1  0  0  0
 30 32  1  0  0  0
 31 33  1  0  0  0
M  END
> <minimizedAffinity>
-8.21571

$$$$
2121


 31 34  0  0  0  0  0  0  0  0999 V2000
  -36.3841  -67.8083   48.7795 C   0  0  0  0  0  0  0  0  0  0  0  0
  -37.0364  -67.8984   47.6127 O   0  0  0  0  0  0  0  0  0  0  0  0
  -35.0763  -67.3951   48.6401 N   0  0  0  0  0  0  0  0  0  0  0  0
  -34.7443  -67.1134   47.2151 C   0  0  0  0  0  0  0  0  0  0  0  0
  -35.0485  -65.6582   46.9162 C   0  0  0  0  0  0  0  0  0  0  0  0
  -35.0512  -64.9217   48.2010 C   0  0  0  0  0  0  0  0  0  0  0  0
  -33.7319  -65.0348   48.8932 C   0  0  0  0  0  0  0  0  0  0  0  0
  -34.0001  -65.8142   50.1925 C   0  0  0  0  0  0  0  0  0  0  0  0
  -34.1561  -67.2709   49.7171 C   0  0  0  0  0  0  0  0  0  0  0  0
  -33.1239  -63.8094   49.1582 O   0  0  0  0  0  0  0  0  0  0  0  0
  -33.3975  -63.2018   48.3969 H   0  0  0  0  0  0  0  0  0  0  0  0
  -41.9210  -68.3639   53.9552 Cl  0  0  0  0  0  0  0  0  0  0  0  0
  -40.4148  -68.6568   53.0817 C   0  0  0  0  0  0  0  0  0  0  0  0
  -40.1417  -67.8957   51.9912 C   0  0  0  0  0  0  0  0  0  0  0  0
  -38.9420  -68.1529   51.3187 C   0  0  0  0  0  0  0  0  0  0  0  0
  -38.0783  -69.1119   51.7201 C   0  0  0  0  0  0  0  0  0  0  0  0
  -37.0266  -69.0975   50.8455 N   0  0  0  0  0  0  0  0  0  0  0  0
  -37.2003  -68.1627   49.9084 C   0  0  0  0  0  0  0  0  0  0  0  0
  -38.4182  -67.5477   50.1933 C   0  0  0  0  0  0  0  0  0  0  0  0
  -38.3682  -69.8706   52.8216 C   0  0  0  0  0  0  0  0  0  0  0  0
  -39.5492  -69.6420   53.5114 C   0  0  0  0  0  0  0  0  0  0  0  0
  -36.2347  -69.7410   50.9695 H   0  0  0  0  0  0  0  0  0  0  0  0
  -35.4971  -63.5647   48.1992 N   0  0  0  0  0  0  0  0  0  0  0  0
  -36.3899  -63.2157   49.2753 C   0  0  0  0  0  0  0  0  0  0  0  0
  -37.6693  -63.9585   49.1966 C   0  0  0  0  0  0  0  0  0  0  0  0
  -38.2302  -63.6845   47.8689 N   0  0  0  0  0  0  0  0  0  0  0  0
  -37.4650  -62.7925   47.0371 C   0  0  0  0  0  0  0  0  0  0  0  0
  -36.0069  -63.1258   46.9284 C   0  0  0  0  0  0  0  0  0  0  0  0
  -39.4717  -64.2752   47.4826 C   0  0  0  0  0  0  0  0  0  0  0  0
  -39.9296  -64.0486   46.3549 O   0  0  0  0  0  0  0  0  0  0  0  0
  -40.1795  -65.1536   48.4668 C   0  0  0  0  0  0  0  0  0  0  0  0
 12 13  1  0  0  0
 13 14  2  0  0  0
 13 21  1  0  0  0
 14 15  1  0  0  0
 15 16  2  0  0  0
 15 19  1  0  0  0
 16 17  1  0  0  0
 16 20  1  0  0  0
 17 18  1  0  0  0
 18 19  2  0  0  0
 18  1  1  0  0  0
  1  2  2  0  0  0
  1  3  1  0  0  0
  3  4  1  0  0  0
  3  9  1  0  0  0
  4  5  1  0  0  0
  5  6  1  0  0  0
  6  7  1  0  0  0
  6 23  1  0  0  0
  7  8  1  0  0  0
  7 10  1  0  0  0
  8  9  1  0  0  0
 23 24  1  0  0  0
 23 28  1  0  0  0
 24 25  1  0  0  0
 25 26  1  0  0  0
 26 27  1  0  0  0
 26 29  1  0  0  0
 27 28  1  0  0  0
 29 30  2  0  0  0
 29 31  1  0  0  0
 20 21  2  0  0  0
 17 22  1  0  0  0
 10 11  1  0  0  0
M  END
> <minimizedAffinity>
-8.81742

$$$$
2122


 29 32  0  0  0  0  0  0  0  0999 V2000
  -41.9298  -65.3612   51.3673 C   0  0  0  0  0  0  0  0  0  0  0  0
  -41.4021  -64.2312   51.8688 N   0  0  0  0  0  0  0  0  0  0  0  0
  -40.4613  -63.7814   51.0881 O   0  0  0  0  0  0  0  0  0  0  0  0
  -40.3679  -64.6160   50.0726 C   0  0  0  0  0  0  0  0  0  0  0  0
  -41.2642  -65.5944   50.2285 N   0  0  0  0  0  0  0  0  0  0  0  0
  -39.3744  -64.3969   48.9683 C   0  0  0  0  0  0  0  0  0  0  0  0
  -39.9703  -64.2980   47.8404 O   0  0  0  0  0  0  0  0  0  0  0  0
  -38.0584  -64.3268   49.2396 N   0  0  0  0  0  0  0  0  0  0  0  0
  -37.8084  -64.0663   47.9161 H   0  0  0  0  0  0  0  0  0  0  0  0
  -36.7034  -64.2516   49.5007 C   0  0  0  0  0  0  0  0  0  0  0  0
  -35.8586  -65.1672   48.6069 C   0  0  0  0  0  0  0  0  0  0  0  0
  -35.3438  -66.3126   49.2462 N   0  0  0  0  0  0  0  0  0  0  0  0
  -36.2643  -67.3806   49.2057 C   0  0  0  0  0  0  0  0  0  0  0  0
  -36.0950  -68.3489   50.3277 C   0  0  0  0  0  0  0  0  0  0  0  0
  -34.7565  -68.5584   50.5389 O   0  0  0  0  0  0  0  0  0  0  0  0
  -34.0822  -67.4500   51.0146 C   0  0  0  0  0  0  0  0  0  0  0  0
  -34.5070  -66.1662   50.3654 C   0  0  0  0  0  0  0  0  0  0  0  0
  -43.0473  -66.1343   51.9754 C   0  0  0  0  0  0  0  0  0  0  0  0
  -38.7507  -70.0369   52.0710 Cl  0  0  0  0  0  0  0  0  0  0  0  0
  -39.8812  -69.2142   53.1342 C   0  0  0  0  0  0  0  0  0  0  0  0
  -40.7755  -68.3038   52.5788 C   0  0  0  0  0  0  0  0  0  0  0  0
  -41.6675  -67.6571   53.4228 C   0  0  0  0  0  0  0  0  0  0  0  0
  -41.6219  -67.9541   54.7871 C   0  0  0  0  0  0  0  0  0  0  0  0
  -40.7381  -68.8492   55.3160 C   0  0  0  0  0  0  0  0  0  0  0  0
  -39.8619  -69.4847   54.4907 C   0  0  0  0  0  0  0  0  0  0  0  0
  -42.5504  -67.2111   55.3065 O   0  0  0  0  0  0  0  0  0  0  0  0
  -43.1608  -66.4873   54.4031 C   0  0  0  0  0  0  0  0  0  0  0  0
  -44.0983  -65.6868   54.6646 O   0  0  0  0  0  0  0  0  0  0  0  0
  -42.6226  -66.7501   53.1992 N   0  0  0  0  0  0  0  0  0  0  0  0
 19 20  1  0  0  0
 20 21  2  0  0  0
 20 25  1  0  0  0
 21 22  1  0  0  0
 22 23  2  0  0  0
 22 29  1  0  0  0
 23 24  1  0  0  0
 23 26  1  0  0  0
 24 25  2  0  0  0
 26 27  1  0  0  0
 27 28  2  0  0  0
 27 29  1  0  0  0
 29 18  1  0  0  0
 18  1  1  0  0  0
  1  2  2  0  0  0
  1  5  1  0  0  0
  2  3  1  0  0  0
  3  4  1  0  0  0
  4  5  2  0  0  0
  4  6  1  0  0  0
  6  7  2  0  0  0
  6  8  1  0  0  0
  8 10  1  0  0  0
 10 11  1  0  0  0
 11 12  1  0  0  0
 12 13  1  0  0  0
 12 17  1  0  0  0
 13 14  1  0  0  0
 14 15  1  0  0  0
 15 16  1  0  0  0
 16 17  1  0  0  0
  8  9  1  0  0  0
M  END
> <minimizedAffinity>
-8.59702

$$$$
2124


 25 29  0  0  0  0  0  0  0  0999 V2000
  -38.5015  -67.0383   49.6242 N   0  0  0  0  0  0  0  0  0  0  0  0
  -37.9487  -66.8250   48.3338 C   0  0  0  0  0  0  0  0  0  0  0  0
  -38.3289  -65.9456   47.5163 O   0  0  0  0  0  0  0  0  0  0  0  0
  -36.8382  -67.7998   48.0707 C   0  0  0  0  0  0  0  0  0  0  0  0
  -35.5666  -67.0916   47.7428 C   0  0  0  0  0  0  0  0  0  0  0  0
  -34.6034  -67.6682   48.6074 O   0  0  0  0  0  0  0  0  0  0  0  0
  -35.3255  -67.4549   49.8096 C   0  0  0  0  0  0  0  0  0  0  0  0
  -36.5424  -68.3161   49.4865 C   0  0  0  0  0  0  0  0  0  0  0  0
  -37.7123  -68.0113   50.2969 C   0  0  0  0  0  0  0  0  0  0  0  0
  -37.9610  -68.5389   51.4112 O   0  0  0  0  0  0  0  0  0  0  0  0
  -35.6186  -66.0067   49.6934 C   0  0  0  0  0  0  0  0  0  0  0  0
  -35.6493  -65.7350   48.3724 C   0  0  0  0  0  0  0  0  0  0  0  0
  -34.6029  -67.8534   51.0279 C   0  0  0  0  0  0  0  0  0  0  0  0
  -43.2508  -64.4034   52.1993 Cl  0  0  0  0  0  0  0  0  0  0  0  0
  -41.8677  -65.2020   51.4446 C   0  0  0  0  0  0  0  0  0  0  0  0
  -41.9148  -66.5243   51.0743 C   0  0  0  0  0  0  0  0  0  0  0  0
  -40.8139  -67.1172   50.4815 C   0  0  0  0  0  0  0  0  0  0  0  0
  -39.6451  -66.4371   50.2379 C   0  0  0  0  0  0  0  0  0  0  0  0
  -39.5956  -65.1060   50.6089 C   0  0  0  0  0  0  0  0  0  0  0  0
  -40.7034  -64.5073   51.2050 C   0  0  0  0  0  0  0  0  0  0  0  0
  -35.1491  -67.0812   46.3353 C   0  0  0  0  0  0  0  0  0  0  0  0
  -34.3244  -65.9742   46.1254 O   0  0  0  0  0  0  0  0  0  0  0  0
  -33.0330  -66.3416   46.4088 C   0  0  0  0  0  0  0  0  0  0  0  0
  -33.0412  -67.8222   46.1346 C   0  0  0  0  0  0  0  0  0  0  0  0
  -34.3628  -68.2032   46.0723 O   0  0  0  0  0  0  0  0  0  0  0  0
 14 15  1  0  0  0
 15 16  2  0  0  0
 15 20  1  0  0  0
 16 17  1  0  0  0
 17 18  2  0  0  0
 18 19  1  0  0  0
 18  1  1  0  0  0
 19 20  2  0  0  0
  1  2  1  0  0  0
  1  9  1  0  0  0
  2  3  2  0  0  0
  2  4  1  0  0  0
  4  5  1  0  0  0
  4  8  1  0  0  0
  5  6  1  0  0  0
  5 12  1  0  0  0
  5 21  1  0  0  0
  6  7  1  0  0  0
  7  8  1  0  0  0
  7 11  1  0  0  0
  7 13  1  0  0  0
  8  9  1  0  0  0
  9 10  2  0  0  0
 11 12  2  0  0  0
 21 22  1  0  0  0
 21 25  1  0  0  0
 22 23  1  0  0  0
 23 24  1  0  0  0
 24 25  1  0  0  0
M  END
> <minimizedAffinity>
-7.86588

$$$$
2134


 36 39  0  0  0  0  0  0  0  0999 V2000
  -43.3398  -65.9992   52.7806 C   0  0  0  0  0  0  0  0  0  0  0  0
  -42.2825  -66.7700   52.8578 N   0  0  0  0  0  0  0  0  0  0  0  0
  -41.4069  -66.5695   51.8212 N   0  0  0  0  0  0  0  0  0  0  0  0
  -41.9938  -65.5518   51.0090 C   0  0  0  0  0  0  0  0  0  0  0  0
  -41.6124  -64.9679   49.9119 N   0  0  0  0  0  0  0  0  0  0  0  0
  -42.3966  -63.9635   49.2859 N   0  0  0  0  0  0  0  0  0  0  0  0
  -43.6299  -63.5432   49.8159 C   0  0  0  0  0  0  0  0  0  0  0  0
  -44.3774  -62.6126   49.2378 C   0  0  0  0  0  0  0  0  0  0  0  0
  -44.0753  -64.1843   51.0482 C   0  0  0  0  0  0  0  0  0  0  0  0
  -45.1549  -63.8297   51.5318 O   0  0  0  0  0  0  0  0  0  0  0  0
  -43.2303  -65.1849   51.6186 N   0  0  0  0  0  0  0  0  0  0  0  0
  -41.9977  -63.5595   48.4087 H   0  0  0  0  0  0  0  0  0  0  0  0
  -40.1934  -67.2792   51.5904 C   0  0  0  0  0  0  0  0  0  0  0  0
  -39.7790  -68.2827   52.4315 C   0  0  0  0  0  0  0  0  0  0  0  0
  -38.6282  -69.0327   52.2305 C   0  0  0  0  0  0  0  0  0  0  0  0
  -37.8292  -68.7843   51.1326 C   0  0  0  0  0  0  0  0  0  0  0  0
  -38.2230  -67.7788   50.2749 C   0  0  0  0  0  0  0  0  0  0  0  0
  -39.3842  -67.0414   50.5027 C   0  0  0  0  0  0  0  0  0  0  0  0
  -36.6024  -69.5926   50.8574 C   0  0  0  0  0  0  0  0  0  0  0  0
  -45.7461  -66.2603   53.2918 N   0  0  0  0  0  0  0  0  0  0  0  0
  -44.4290  -65.9962   53.7373 C   0  0  0  0  0  0  0  0  0  0  0  0
  -44.2264  -65.7539   54.9699 O   0  0  0  0  0  0  0  0  0  0  0  0
  -45.9695  -66.4848   52.3109 H   0  0  0  0  0  0  0  0  0  0  0  0
  -48.6715  -67.1812   55.5169 N   0  0  0  0  0  0  0  0  0  0  0  0
  -47.6426  -67.2845   54.5645 C   0  0  0  0  0  0  0  0  0  0  0  0
  -47.4858  -68.3963   53.9909 O   0  0  0  0  0  0  0  0  0  0  0  0
  -46.7805  -66.2255   54.2200 N   0  0  0  0  0  0  0  0  0  0  0  0
  -48.8321  -66.2655   56.0061 H   0  0  0  0  0  0  0  0  0  0  0  0
  -46.9042  -65.2709   54.6913 H   0  0  0  0  0  0  0  0  0  0  0  0
  -52.2964  -71.5758   57.1644 Cl  0  0  0  0  0  0  0  0  0  0  0  0
  -51.2508  -70.2527   56.6327 C   0  0  0  0  0  0  0  0  0  0  0  0
  -51.5591  -69.5287   55.5102 C   0  0  0  0  0  0  0  0  0  0  0  0
  -50.6921  -68.5177   55.1593 C   0  0  0  0  0  0  0  0  0  0  0  0
  -49.5497  -68.2330   55.9037 C   0  0  0  0  0  0  0  0  0  0  0  0
  -49.2809  -68.9941   57.0322 C   0  0  0  0  0  0  0  0  0  0  0  0
  -50.1390  -70.0080   57.3931 C   0  0  0  0  0  0  0  0  0  0  0  0
 30 31  1  0  0  0
 31 32  2  0  0  0
 31 36  1  0  0  0
 32 33  1  0  0  0
 33 34  2  0  0  0
 34 35  1  0  0  0
 34 24  1  0  0  0
 35 36  2  0  0  0
 24 25  1  0  0  0
 25 26  2  0  0  0
 25 27  1  0  0  0
 27 20  1  0  0  0
 20 21  1  0  0  0
 21 22  2  0  0  0
 21  1  1  0  0  0
  1  2  2  0  0  0
  1 11  1  0  0  0
  2  3  1  0  0  0
  3  4  1  0  0  0
  3 13  1  0  0  0
  4  5  2  0  0  0
  4 11  1  0  0  0
  5  6  1  0  0  0
  6  7  1  0  0  0
  7  8  2  0  0  0
  7  9  1  0  0  0
  9 10  2  0  0  0
  9 11  1  0  0  0
 13 14  2  0  0  0
 13 18  1  0  0  0
 14 15  1  0  0  0
 15 16  2  0  0  0
 16 17  1  0  0  0
 16 19  1  0  0  0
 17 18  2  0  0  0
 24 28  1  0  0  0
 27 29  1  0  0  0
 20 23  1  0  0  0
  6 12  1  0  0  0
M  END
> <minimizedAffinity>
-8.41782

$$$$
2136


 33 37  0  0  0  0  0  0  0  0999 V2000
  -33.9277  -64.2425   48.0804 Cl  0  0  0  0  0  0  0  0  0  0  0  0
  -35.1243  -65.5017   47.8590 C   0  0  0  0  0  0  0  0  0  0  0  0
  -36.3308  -65.5097   48.5285 C   0  0  0  0  0  0  0  0  0  0  0  0
  -37.2587  -66.5262   48.3293 C   0  0  0  0  0  0  0  0  0  0  0  0
  -36.9132  -67.5076   47.4414 C   0  0  0  0  0  0  0  0  0  0  0  0
  -35.7167  -67.5162   46.7648 C   0  0  0  0  0  0  0  0  0  0  0  0
  -34.8102  -66.5182   46.9629 C   0  0  0  0  0  0  0  0  0  0  0  0
  -38.4249  -66.2499   49.1767 C   0  0  0  0  0  0  0  0  0  0  0  0
  -38.7006  -67.3261   50.1113 N   0  0  0  0  0  0  0  0  0  0  0  0
  -40.0638  -67.0092   50.5442 C   0  0  0  0  0  0  0  0  0  0  0  0
  -40.7677  -66.4506   49.3666 C   0  0  0  0  0  0  0  0  0  0  0  0
  -39.6890  -66.2084   48.3597 C   0  0  0  0  0  0  0  0  0  0  0  0
  -39.9243  -64.9070   47.7280 C   0  0  0  0  0  0  0  0  0  0  0  0
  -39.3601  -64.5283   46.6710 O   0  0  0  0  0  0  0  0  0  0  0  0
  -40.8746  -64.2244   48.5363 N   0  0  0  0  0  0  0  0  0  0  0  0
  -41.2690  -65.0495   49.6242 C   0  0  0  0  0  0  0  0  0  0  0  0
  -41.9236  -64.7385   50.6564 O   0  0  0  0  0  0  0  0  0  0  0  0
  -38.1331  -65.0026   49.9013 C   0  0  0  0  0  0  0  0  0  0  0  0
  -38.8366  -64.4005   50.7250 O   0  0  0  0  0  0  0  0  0  0  0  0
  -36.8449  -64.5838   49.4741 N   0  0  0  0  0  0  0  0  0  0  0  0
  -38.0327  -67.3170   50.9302 H   0  0  0  0  0  0  0  0  0  0  0  0
  -36.3245  -63.7225   49.7926 H   0  0  0  0  0  0  0  0  0  0  0  0
  -41.3642  -62.8733   48.2749 C   0  0  0  0  0  0  0  0  0  0  0  0
  -42.8481  -62.9685   47.9509 C   0  0  0  0  0  0  0  0  0  0  0  0
  -43.5799  -62.0769   48.7191 O   0  0  0  0  0  0  0  0  0  0  0  0
  -44.5812  -62.7569   49.3844 C   0  0  0  0  0  0  0  0  0  0  0  0
  -40.7617  -68.2253   51.0747 C   0  0  0  0  0  0  0  0  0  0  0  0
  -40.6206  -68.4294   52.5258 C   0  0  0  0  0  0  0  0  0  0  0  0
  -41.4211  -67.6593   53.3668 C   0  0  0  0  0  0  0  0  0  0  0  0
  -41.3284  -67.8409   54.7224 C   0  0  0  0  0  0  0  0  0  0  0  0
  -40.4767  -68.7540   55.2970 C   0  0  0  0  0  0  0  0  0  0  0  0
  -39.7021  -69.4962   54.4321 C   0  0  0  0  0  0  0  0  0  0  0  0
  -39.7560  -69.3545   53.0614 C   0  0  0  0  0  0  0  0  0  0  0  0
  1  2  1  0  0  0
  2  3  2  0  0  0
  2  7  1  0  0  0
  3  4  1  0  0  0
  3 20  1  0  0  0
  4  5  2  0  0  0
  4  8  1  0  0  0
  5  6  1  0  0  0
  6  7  2  0  0  0
  8  9  1  0  0  0
  8 12  1  0  0  0
  8 18  1  0  0  0
  9 10  1  0  0  0
 10 11  1  0  0  0
 10 27  1  0  0  0
 11 12  1  0  0  0
 11 16  1  0  0  0
 12 13  1  0  0  0
 13 14  2  0  0  0
 13 15  1  0  0  0
 15 16  1  0  0  0
 15 23  1  0  0  0
 16 17  2  0  0  0
 23 24  1  0  0  0
 24 25  1  0  0  0
 25 26  1  0  0  0
 27 28  1  0  0  0
 28 29  2  0  0  0
 28 33  1  0  0  0
 29 30  1  0  0  0
 30 31  2  0  0  0
 31 32  1  0  0  0
 32 33  2  0  0  0
 18 19  2  0  0  0
 18 20  1  0  0  0
  9 21  1  0  0  0
 20 22  1  0  0  0
M  END
> <minimizedAffinity>
-8.22700

$$$$
2139


 27 30  0  0  0  0  0  0  0  0999 V2000
  -40.0670  -65.7869   50.1306 N   0  0  0  0  0  0  0  0  0  0  0  0
  -41.0479  -65.1181   49.3726 C   0  0  0  0  0  0  0  0  0  0  0  0
  -42.3159  -64.7490   50.0936 C   0  0  0  0  0  0  0  0  0  0  0  0
  -41.9673  -64.7074   51.5380 N   0  0  0  0  0  0  0  0  0  0  0  0
  -40.6929  -64.1549   51.8014 C   0  0  0  0  0  0  0  0  0  0  0  0
  -39.6578  -65.1664   51.3589 C   0  0  0  0  0  0  0  0  0  0  0  0
  -42.9454  -65.1841   52.4363 C   0  0  0  0  0  0  0  0  0  0  0  0
  -44.1445  -64.5332   52.5224 N   0  0  0  0  0  0  0  0  0  0  0  0
  -45.1311  -64.8564   53.3489 C   0  0  0  0  0  0  0  0  0  0  0  0
  -44.9584  -65.9030   54.1736 N   0  0  0  0  0  0  0  0  0  0  0  0
  -43.7926  -66.5868   54.1332 C   0  0  0  0  0  0  0  0  0  0  0  0
  -43.3501  -67.6597   54.8147 N   0  0  0  0  0  0  0  0  0  0  0  0
  -42.1216  -67.9682   54.3986 C   0  0  0  0  0  0  0  0  0  0  0  0
  -41.7334  -67.1094   53.4393 N   0  0  0  0  0  0  0  0  0  0  0  0
  -42.7512  -66.2512   53.2658 C   0  0  0  0  0  0  0  0  0  0  0  0
  -46.3742  -64.1243   53.3875 N   0  0  0  0  0  0  0  0  0  0  0  0
  -40.8131  -67.1544   52.9520 H   0  0  0  0  0  0  0  0  0  0  0  0
  -46.6932  -63.6335   54.2340 H   0  0  0  0  0  0  0  0  0  0  0  0
  -46.9740  -64.0837   52.5397 H   0  0  0  0  0  0  0  0  0  0  0  0
  -40.0650  -67.1988   50.1145 C   0  0  0  0  0  0  0  0  0  0  0  0
  -34.9434  -69.9022   51.6548 Cl  0  0  0  0  0  0  0  0  0  0  0  0
  -36.4460  -69.1180   51.2117 C   0  0  0  0  0  0  0  0  0  0  0  0
  -37.6005  -69.4100   51.9067 C   0  0  0  0  0  0  0  0  0  0  0  0
  -38.7612  -68.7556   51.5095 C   0  0  0  0  0  0  0  0  0  0  0  0
  -38.8087  -67.8512   50.4787 C   0  0  0  0  0  0  0  0  0  0  0  0
  -37.6483  -67.5741   49.8013 C   0  0  0  0  0  0  0  0  0  0  0  0
  -36.4903  -68.2101   50.1783 C   0  0  0  0  0  0  0  0  0  0  0  0
 21 22  1  0  0  0
 22 23  2  0  0  0
 22 27  1  0  0  0
 23 24  1  0  0  0
 24 25  2  0  0  0
 25 26  1  0  0  0
 25 20  1  0  0  0
 26 27  2  0  0  0
 20  1  1  0  0  0
  1  2  1  0  0  0
  1  6  1  0  0  0
  2  3  1  0  0  0
  3  4  1  0  0  0
  4  5  1  0  0  0
  4  7  1  0  0  0
  5  6  1  0  0  0
  7  8  2  0  0  0
  7 15  1  0  0  0
  8  9  1  0  0  0
  9 10  2  0  0  0
  9 16  1  0  0  0
 10 11  1  0  0  0
 11 12  1  0  0  0
 11 15  2  0  0  0
 12 13  2  0  0  0
 13 14  1  0  0  0
 14 15  1  0  0  0
 14 17  1  0  0  0
 16 18  1  0  0  0
 16 19  1  0  0  0
M  END
> <minimizedAffinity>
-7.73800

$$$$
2149


 24 27  0  0  0  0  0  0  0  0999 V2000
  -36.6523  -69.1444   50.5885 N   0  0  0  0  0  0  0  0  0  0  0  0
  -35.5938  -69.0470   51.3707 N   0  0  0  0  0  0  0  0  0  0  0  0
  -34.7429  -68.1475   50.9125 N   0  0  0  0  0  0  0  0  0  0  0  0
  -35.2406  -67.6251   49.7921 C   0  0  0  0  0  0  0  0  0  0  0  0
  -36.4490  -68.2541   49.5849 C   0  0  0  0  0  0  0  0  0  0  0  0
  -37.1612  -67.9013   48.5050 N   0  0  0  0  0  0  0  0  0  0  0  0
  -36.7089  -66.9639   47.6544 C   0  0  0  0  0  0  0  0  0  0  0  0
  -35.5263  -66.3638   47.8773 N   0  0  0  0  0  0  0  0  0  0  0  0
  -34.7316  -66.6512   48.9414 C   0  0  0  0  0  0  0  0  0  0  0  0
  -33.4946  -66.0261   49.1791 N   0  0  0  0  0  0  0  0  0  0  0  0
  -32.1922  -66.5404   48.8488 C   0  0  0  0  0  0  0  0  0  0  0  0
  -31.5306  -65.5816   47.9303 C   0  0  0  0  0  0  0  0  0  0  0  0
  -32.0386  -64.2771   47.8545 N   0  0  0  0  0  0  0  0  0  0  0  0
  -32.8461  -63.7666   48.8787 C   0  0  0  0  0  0  0  0  0  0  0  0
  -33.4622  -64.7339   49.8182 C   0  0  0  0  0  0  0  0  0  0  0  0
  -32.7062  -64.0960   46.5779 C   0  0  0  0  0  0  0  0  0  0  0  0
  -37.8191  -70.0129   50.7326 C   0  0  0  0  0  0  0  0  0  0  0  0
  -41.2699  -67.8284   55.1479 Cl  0  0  0  0  0  0  0  0  0  0  0  0
  -40.2658  -68.4517   53.8429 C   0  0  0  0  0  0  0  0  0  0  0  0
  -39.5291  -69.5940   54.0302 C   0  0  0  0  0  0  0  0  0  0  0  0
  -38.7444  -70.0706   52.9926 C   0  0  0  0  0  0  0  0  0  0  0  0
  -38.6880  -69.4286   51.7862 C   0  0  0  0  0  0  0  0  0  0  0  0
  -39.4252  -68.2842   51.5953 C   0  0  0  0  0  0  0  0  0  0  0  0
  -40.2022  -67.8111   52.6222 C   0  0  0  0  0  0  0  0  0  0  0  0
 18 19  1  0  0  0
 19 20  2  0  0  0
 19 24  1  0  0  0
 20 21  1  0  0  0
 21 22  2  0  0  0
 22 23  1  0  0  0
 22 17  1  0  0  0
 23 24  2  0  0  0
 17  1  1  0  0  0
  1  2  1  0  0  0
  1  5  1  0  0  0
  2  3  2  0  0  0
  3  4  1  0  0  0
  4  5  2  0  0  0
  4  9  1  0  0  0
  5  6  1  0  0  0
  6  7  2  0  0  0
  7  8  1  0  0  0
  8  9  2  0  0  0
  9 10  1  0  0  0
 10 11  1  0  0  0
 10 15  1  0  0  0
 11 12  1  0  0  0
 12 13  1  0  0  0
 13 14  1  0  0  0
 13 16  1  0  0  0
 14 15  1  0  0  0
M  END
> <minimizedAffinity>
-7.77151

$$$$
2163


 31 34  0  0  0  0  0  0  0  0999 V2000
  -39.1453  -66.0815   49.0401 C   0  0  0  0  0  0  0  0  0  0  0  0
  -38.2014  -66.9740   49.4093 N   0  0  0  0  0  0  0  0  0  0  0  0
  -36.9098  -66.6352   49.4945 C   0  0  0  0  0  0  0  0  0  0  0  0
  -36.5594  -65.3730   49.2023 N   0  0  0  0  0  0  0  0  0  0  0  0
  -37.4562  -64.4230   48.8247 C   0  0  0  0  0  0  0  0  0  0  0  0
  -38.7509  -64.8392   48.7594 N   0  0  0  0  0  0  0  0  0  0  0  0
  -35.9165  -67.5744   49.8818 N   0  0  0  0  0  0  0  0  0  0  0  0
  -36.2476  -68.8625   50.4499 C   0  0  0  0  0  0  0  0  0  0  0  0
  -35.3298  -69.2036   51.6142 C   0  0  0  0  0  0  0  0  0  0  0  0
  -33.9986  -68.9204   51.2884 O   0  0  0  0  0  0  0  0  0  0  0  0
  -33.8136  -67.5858   51.0178 C   0  0  0  0  0  0  0  0  0  0  0  0
  -34.5143  -67.2633   49.7157 C   0  0  0  0  0  0  0  0  0  0  0  0
  -37.0825  -63.1017   48.5197 N   0  0  0  0  0  0  0  0  0  0  0  0
  -37.9702  -62.2167   47.8262 C   0  0  0  0  0  0  0  0  0  0  0  0
  -37.2031  -61.6655   46.6261 C   0  0  0  0  0  0  0  0  0  0  0  0
  -36.0513  -61.0761   47.1178 O   0  0  0  0  0  0  0  0  0  0  0  0
  -35.1696  -61.9839   47.6552 C   0  0  0  0  0  0  0  0  0  0  0  0
  -35.7889  -62.6164   48.9018 C   0  0  0  0  0  0  0  0  0  0  0  0
  -40.5262  -66.4076   48.9398 N   0  0  0  0  0  0  0  0  0  0  0  0
  -41.0288  -66.3638   48.0121 H   0  0  0  0  0  0  0  0  0  0  0  0
  -41.4239  -66.0995   51.1031 C   0  0  0  0  0  0  0  0  0  0  0  0
  -41.2911  -66.7987   50.0399 N   0  0  0  0  0  0  0  0  0  0  0  0
  -46.1836  -66.2681   53.5081 Br  0  0  0  0  0  0  0  0  0  0  0  0
  -44.3200  -66.6536   53.4023 C   0  0  0  0  0  0  0  0  0  0  0  0
  -43.5712  -66.2476   52.3201 C   0  0  0  0  0  0  0  0  0  0  0  0
  -42.2277  -66.5244   52.2437 C   0  0  0  0  0  0  0  0  0  0  0  0
  -41.6487  -67.2207   53.2823 C   0  0  0  0  0  0  0  0  0  0  0  0
  -42.3969  -67.6390   54.3855 C   0  0  0  0  0  0  0  0  0  0  0  0
  -43.7513  -67.3564   54.4570 C   0  0  0  0  0  0  0  0  0  0  0  0
  -40.2886  -67.4879   53.1792 O   0  0  0  0  0  0  0  0  0  0  0  0
  -39.7537  -68.7808   53.0164 C   0  0  0  0  0  0  0  0  0  0  0  0
 23 24  1  0  0  0
 24 25  2  0  0  0
 24 29  1  0  0  0
 25 26  1  0  0  0
 26 27  2  0  0  0
 26 21  1  0  0  0
 27 28  1  0  0  0
 27 30  1  0  0  0
 28 29  2  0  0  0
 30 31  1  0  0  0
 21 22  2  0  0  0
 22 19  1  0  0  0
 19  1  1  0  0  0
  1  2  2  0  0  0
  1  6  1  0  0  0
  2  3  1  0  0  0
  3  4  2  0  0  0
  3  7  1  0  0  0
  4  5  1  0  0  0
  5  6  2  0  0  0
  5 13  1  0  0  0
 13 14  1  0  0  0
 13 18  1  0  0  0
 14 15  1  0  0  0
 15 16  1  0  0  0
 16 17  1  0  0  0
 17 18  1  0  0  0
  7  8  1  0  0  0
  7 12  1  0  0  0
  8  9  1  0  0  0
  9 10  1  0  0  0
 10 11  1  0  0  0
 11 12  1  0  0  0
 19 20  1  0  0  0
M  END
> <minimizedAffinity>
-7.97133

$$$$
2164


 25 28  0  0  0  0  0  0  0  0999 V2000
  -43.9156  -66.2853   54.2198 C   0  0  0  0  0  0  0  0  0  0  0  0
  -44.5888  -66.0937   52.8857 C   0  0  0  0  0  0  0  0  0  0  0  0
  -43.6184  -65.0538   52.5126 N   0  0  0  0  0  0  0  0  0  0  0  0
  -43.3099  -64.9440   53.9265 C   0  0  0  0  0  0  0  0  0  0  0  0
  -43.2250  -64.4745   51.2751 C   0  0  0  0  0  0  0  0  0  0  0  0
  -44.0027  -63.5743   50.6194 N   0  0  0  0  0  0  0  0  0  0  0  0
  -43.6015  -63.0320   49.4323 C   0  0  0  0  0  0  0  0  0  0  0  0
  -42.4330  -63.3680   48.8772 N   0  0  0  0  0  0  0  0  0  0  0  0
  -41.6197  -64.2460   49.4667 C   0  0  0  0  0  0  0  0  0  0  0  0
  -40.4153  -64.7412   49.1183 N   0  0  0  0  0  0  0  0  0  0  0  0
  -40.0688  -65.5789   50.0713 N   0  0  0  0  0  0  0  0  0  0  0  0
  -41.0154  -65.6324   51.0152 N   0  0  0  0  0  0  0  0  0  0  0  0
  -42.0272  -64.7931   50.6664 C   0  0  0  0  0  0  0  0  0  0  0  0
  -39.6237  -64.4324   47.9301 C   0  0  0  0  0  0  0  0  0  0  0  0
  -41.6445  -67.2250   53.7226 N   0  0  0  0  0  0  0  0  0  0  0  0
  -42.9310  -67.4226   54.2476 C   0  0  0  0  0  0  0  0  0  0  0  0
  -43.3559  -68.4740   54.7482 O   0  0  0  0  0  0  0  0  0  0  0  0
  -41.3960  -66.2521   53.3103 H   0  0  0  0  0  0  0  0  0  0  0  0
  -37.7147  -69.2825   50.8481 Br  0  0  0  0  0  0  0  0  0  0  0  0
  -38.7938  -69.1987   52.4163 C   0  0  0  0  0  0  0  0  0  0  0  0
  -39.8116  -68.2821   52.5403 C   0  0  0  0  0  0  0  0  0  0  0  0
  -40.6240  -68.1947   53.6807 C   0  0  0  0  0  0  0  0  0  0  0  0
  -40.3508  -69.0811   54.6844 C   0  0  0  0  0  0  0  0  0  0  0  0
  -39.3153  -70.0089   54.5490 C   0  0  0  0  0  0  0  0  0  0  0  0
  -38.5436  -70.0717   53.4330 C   0  0  0  0  0  0  0  0  0  0  0  0
 19 20  1  0  0  0
 20 21  2  0  0  0
 20 25  1  0  0  0
 21 22  1  0  0  0
 22 23  2  0  0  0
 22 15  1  0  0  0
 23 24  1  0  0  0
 24 25  2  0  0  0
 15 16  1  0  0  0
 16 17  2  0  0  0
 16  1  1  0  0  0
  1  2  1  0  0  0
  1  4  1  0  0  0
  2  3  1  0  0  0
  3  4  1  0  0  0
  3  5  1  0  0  0
  5  6  2  0  0  0
  5 13  1  0  0  0
  6  7  1  0  0  0
  7  8  2  0  0  0
  8  9  1  0  0  0
  9 10  1  0  0  0
  9 13  2  0  0  0
 10 11  1  0  0  0
 10 14  1  0  0  0
 11 12  2  0  0  0
 12 13  1  0  0  0
 15 18  1  0  0  0
M  END
> <minimizedAffinity>
-8.21595

$$$$
2170


 32 36  0  0  0  0  0  0  0  0999 V2000
  -40.7516  -64.5809   50.1219 N   0  0  0  0  0  0  0  0  0  0  0  0
  -41.9570  -64.5226   50.6467 N   0  0  0  0  0  0  0  0  0  0  0  0
  -42.7646  -63.7099   49.9504 C   0  0  0  0  0  0  0  0  0  0  0  0
  -43.9874  -63.6634   50.5023 N   0  0  0  0  0  0  0  0  0  0  0  0
  -44.0057  -64.4591   51.5935 C   0  0  0  0  0  0  0  0  0  0  0  0
  -42.7157  -64.9954   51.6718 C   0  0  0  0  0  0  0  0  0  0  0  0
  -42.4997  -65.8467   52.7346 C   0  0  0  0  0  0  0  0  0  0  0  0
  -41.3440  -66.3548   52.8490 O   0  0  0  0  0  0  0  0  0  0  0  0
  -43.4511  -66.1631   53.6531 N   0  0  0  0  0  0  0  0  0  0  0  0
  -44.6636  -65.6082   53.5061 C   0  0  0  0  0  0  0  0  0  0  0  0
  -45.5415  -65.9175   54.3776 O   0  0  0  0  0  0  0  0  0  0  0  0
  -44.9475  -64.7697   52.4997 N   0  0  0  0  0  0  0  0  0  0  0  0
  -46.2673  -64.2074   52.4002 C   0  0  0  0  0  0  0  0  0  0  0  0
  -43.1435  -67.0671   54.7379 C   0  0  0  0  0  0  0  0  0  0  0  0
  -42.0002  -63.2383   48.9331 N   0  0  0  0  0  0  0  0  0  0  0  0
  -40.7701  -63.7607   49.0266 C   0  0  0  0  0  0  0  0  0  0  0  0
  -39.6498  -63.5409   48.1746 N   0  0  0  0  0  0  0  0  0  0  0  0
  -39.2032  -64.5441   47.2229 C   0  0  0  0  0  0  0  0  0  0  0  0
  -37.6944  -64.5303   47.2163 C   0  0  0  0  0  0  0  0  0  0  0  0
  -37.2271  -63.2371   46.9321 O   0  0  0  0  0  0  0  0  0  0  0  0
  -37.4830  -62.3625   47.9651 C   0  0  0  0  0  0  0  0  0  0  0  0
  -38.9417  -62.2904   48.2503 C   0  0  0  0  0  0  0  0  0  0  0  0
  -39.5841  -65.3195   50.5438 C   0  0  0  0  0  0  0  0  0  0  0  0
  -39.5741  -66.7209   50.0887 C   0  0  0  0  0  0  0  0  0  0  0  0
  -40.5006  -67.2177   49.4101 O   0  0  0  0  0  0  0  0  0  0  0  0
  -34.8065  -70.1178   51.5502 Cl  0  0  0  0  0  0  0  0  0  0  0  0
  -36.2009  -69.1362   51.1334 C   0  0  0  0  0  0  0  0  0  0  0  0
  -37.4557  -69.3942   51.6687 C   0  0  0  0  0  0  0  0  0  0  0  0
  -38.5398  -68.6102   51.3279 C   0  0  0  0  0  0  0  0  0  0  0  0
  -38.4326  -67.5504   50.4527 C   0  0  0  0  0  0  0  0  0  0  0  0
  -37.1613  -67.3021   49.9214 C   0  0  0  0  0  0  0  0  0  0  0  0
  -36.0728  -68.0793   50.2565 C   0  0  0  0  0  0  0  0  0  0  0  0
 26 27  1  0  0  0
 27 28  2  0  0  0
 27 32  1  0  0  0
 28 29  1  0  0  0
 29 30  2  0  0  0
 30 31  1  0  0  0
 30 24  1  0  0  0
 31 32  2  0  0  0
 24 25  2  0  0  0
 24 23  1  0  0  0
 23  1  1  0  0  0
  1  2  1  0  0  0
  1 16  1  0  0  0
  2  3  1  0  0  0
  2  6  1  0  0  0
  3  4  2  0  0  0
  3 15  1  0  0  0
  4  5  1  0  0  0
  5  6  2  0  0  0
  5 12  1  0  0  0
  6  7  1  0  0  0
  7  8  2  0  0  0
  7  9  1  0  0  0
  9 10  1  0  0  0
  9 14  1  0  0  0
 10 11  2  0  0  0
 10 12  1  0  0  0
 12 13  1  0  0  0
 15 16  2  0  0  0
 16 17  1  0  0  0
 17 18  1  0  0  0
 17 22  1  0  0  0
 18 19  1  0  0  0
 19 20  1  0  0  0
 20 21  1  0  0  0
 21 22  1  0  0  0
M  END
> <minimizedAffinity>
-8.20612

$$$$
2177


 31 35  0  0  0  0  0  0  0  0999 V2000
  -44.1397  -66.6800   54.1052 N   0  0  0  0  0  0  0  0  0  0  0  0
  -43.7914  -65.2806   54.1721 C   0  0  0  0  0  0  0  0  0  0  0  0
  -43.9307  -64.6946   52.7911 C   0  0  0  0  0  0  0  0  0  0  0  0
  -45.1468  -65.1021   52.1155 N   0  0  0  0  0  0  0  0  0  0  0  0
  -45.4956  -66.5086   52.0943 C   0  0  0  0  0  0  0  0  0  0  0  0
  -45.4006  -67.0435   53.4994 C   0  0  0  0  0  0  0  0  0  0  0  0
  -36.4901  -69.1694   50.3433 Cl  0  0  0  0  0  0  0  0  0  0  0  0
  -38.0226  -68.6339   51.0401 C   0  0  0  0  0  0  0  0  0  0  0  0
  -38.4366  -69.1494   52.2482 C   0  0  0  0  0  0  0  0  0  0  0  0
  -39.6231  -68.7541   52.8169 C   0  0  0  0  0  0  0  0  0  0  0  0
  -40.4385  -67.8279   52.1989 C   0  0  0  0  0  0  0  0  0  0  0  0
  -40.0084  -67.3231   50.9900 C   0  0  0  0  0  0  0  0  0  0  0  0
  -38.8229  -67.7094   50.4078 C   0  0  0  0  0  0  0  0  0  0  0  0
  -41.6520  -67.4591   52.8357 N   0  0  0  0  0  0  0  0  0  0  0  0
  -42.0936  -67.9832   54.0838 C   0  0  0  0  0  0  0  0  0  0  0  0
  -43.2224  -67.6203   54.6472 C   0  0  0  0  0  0  0  0  0  0  0  0
  -41.2605  -68.9355   54.7273 N   0  0  0  0  0  0  0  0  0  0  0  0
  -40.0522  -69.3158   54.1134 C   0  0  0  0  0  0  0  0  0  0  0  0
  -39.2557  -70.1646   54.6318 O   0  0  0  0  0  0  0  0  0  0  0  0
  -42.2743  -66.7607   52.3762 H   0  0  0  0  0  0  0  0  0  0  0  0
  -41.5151  -69.3655   55.6453 H   0  0  0  0  0  0  0  0  0  0  0  0
  -45.9751  -64.1225   51.4858 C   0  0  0  0  0  0  0  0  0  0  0  0
  -47.2762  -64.0538   51.8297 N   0  0  0  0  0  0  0  0  0  0  0  0
  -48.1015  -63.1349   51.2542 C   0  0  0  0  0  0  0  0  0  0  0  0
  -47.6330  -62.2731   50.3249 N   0  0  0  0  0  0  0  0  0  0  0  0
  -46.3519  -62.2924   49.9426 C   0  0  0  0  0  0  0  0  0  0  0  0
  -45.6382  -61.5683   49.0616 N   0  0  0  0  0  0  0  0  0  0  0  0
  -44.3986  -62.0245   49.0881 N   0  0  0  0  0  0  0  0  0  0  0  0
  -44.2953  -63.0463   49.9840 C   0  0  0  0  0  0  0  0  0  0  0  0
  -45.5200  -63.2397   50.5422 C   0  0  0  0  0  0  0  0  0  0  0  0
  -46.1163  -60.4710   48.2150 C   0  0  0  0  0  0  0  0  0  0  0  0
  7  8  1  0  0  0
  8  9  2  0  0  0
  8 13  1  0  0  0
  9 10  1  0  0  0
 10 11  2  0  0  0
 10 18  1  0  0  0
 11 12  1  0  0  0
 11 14  1  0  0  0
 12 13  2  0  0  0
 14 15  1  0  0  0
 15 16  2  0  0  0
 15 17  1  0  0  0
 16  1  1  0  0  0
  1  2  1  0  0  0
  1  6  1  0  0  0
  2  3  1  0  0  0
  3  4  1  0  0  0
  4  5  1  0  0  0
  4 22  1  0  0  0
  5  6  1  0  0  0
 22 23  2  0  0  0
 22 30  1  0  0  0
 23 24  1  0  0  0
 24 25  2  0  0  0
 25 26  1  0  0  0
 26 27  1  0  0  0
 26 30  2  0  0  0
 27 28  1  0  0  0
 27 31  1  0  0  0
 28 29  2  0  0  0
 29 30  1  0  0  0
 17 18  1  0  0  0
 18 19  2  0  0  0
 14 20  1  0  0  0
 17 21  1  0  0  0
M  END
> <minimizedAffinity>
-8.71493

$$$$
2184


 29 32  0  0  0  0  0  0  0  0999 V2000
  -38.2316  -64.5709   48.4494 N   0  0  0  0  0  0  0  0  0  0  0  0
  -38.6791  -64.3589   49.7395 C   0  0  0  0  0  0  0  0  0  0  0  0
  -40.2437  -64.4405   49.7992 C   0  0  0  0  0  0  0  0  0  0  0  0
  -40.3832  -65.9607   49.5902 N   0  0  0  0  0  0  0  0  0  0  0  0
  -40.0242  -66.3368   48.3114 C   0  0  0  0  0  0  0  0  0  0  0  0
  -39.3809  -65.0948   47.6553 C   0  0  0  0  0  0  0  0  0  0  0  0
  -38.0936  -63.6094   47.9981 H   0  0  0  0  0  0  0  0  0  0  0  0
  -40.7762  -66.6327   50.7678 C   0  0  0  0  0  0  0  0  0  0  0  0
  -40.1221  -67.6488   51.3722 C   0  0  0  0  0  0  0  0  0  0  0  0
  -40.4655  -68.0884   52.6828 C   0  0  0  0  0  0  0  0  0  0  0  0
  -41.4772  -67.5006   53.3939 C   0  0  0  0  0  0  0  0  0  0  0  0
  -42.1628  -66.4588   52.7771 C   0  0  0  0  0  0  0  0  0  0  0  0
  -41.8237  -66.0407   51.4989 C   0  0  0  0  0  0  0  0  0  0  0  0
  -41.7762  -67.9662   54.6682 O   0  0  0  0  0  0  0  0  0  0  0  0
  -40.7898  -68.6537   55.4531 C   0  0  0  0  0  0  0  0  0  0  0  0
  -37.1102  -65.3229   48.0896 C   0  0  0  0  0  0  0  0  0  0  0  0
  -37.4242  -69.7298   50.7621 Cl  0  0  0  0  0  0  0  0  0  0  0  0
  -36.2367  -68.4477   50.5005 C   0  0  0  0  0  0  0  0  0  0  0  0
  -36.4682  -67.3446   49.7230 C   0  0  0  0  0  0  0  0  0  0  0  0
  -35.5398  -66.3710   49.5993 C   0  0  0  0  0  0  0  0  0  0  0  0
  -34.3385  -66.4535   50.2473 C   0  0  0  0  0  0  0  0  0  0  0  0
  -34.0943  -67.5939   51.0496 C   0  0  0  0  0  0  0  0  0  0  0  0
  -35.0219  -68.5888   51.1799 C   0  0  0  0  0  0  0  0  0  0  0  0
  -34.7373  -69.7255   51.9696 O   0  0  0  0  0  0  0  0  0  0  0  0
  -33.4300  -65.5229   50.1725 O   0  0  0  0  0  0  0  0  0  0  0  0
  -33.6506  -64.4340   49.4446 C   0  0  0  0  0  0  0  0  0  0  0  0
  -32.7737  -63.5628   49.3884 O   0  0  0  0  0  0  0  0  0  0  0  0
  -34.8642  -64.2701   48.7467 C   0  0  0  0  0  0  0  0  0  0  0  0
  -35.8257  -65.2184   48.8010 C   0  0  0  0  0  0  0  0  0  0  0  0
 17 18  1  0  0  0
 18 19  2  0  0  0
 18 23  1  0  0  0
 19 20  1  0  0  0
 20 21  2  0  0  0
 20 29  1  0  0  0
 21 22  1  0  0  0
 21 25  1  0  0  0
 22 23  2  0  0  0
 23 24  1  0  0  0
 25 26  1  0  0  0
 26 27  2  0  0  0
 26 28  1  0  0  0
 28 29  2  0  0  0
 29 16  1  0  0  0
 16  1  1  0  0  0
  1  2  1  0  0  0
  1  6  1  0  0  0
  2  3  1  0  0  0
  3  4  1  0  0  0
  4  5  1  0  0  0
  4  8  1  0  0  0
  5  6  1  0  0  0
  8  9  2  0  0  0
  8 13  1  0  0  0
  9 10  1  0  0  0
 10 11  2  0  0  0
 11 12  1  0  0  0
 11 14  1  0  0  0
 12 13  2  0  0  0
 14 15  1  0  0  0
  1  7  1  0  0  0
M  CHG 1   1   1
M  CHG 1  24  -1
M  END
> <minimizedAffinity>
-8.53379

$$$$
2195


 29 32  0  0  0  0  0  0  0  0999 V2000
  -40.8858  -67.4487   51.5132 C   0  0  0  0  0  0  0  0  0  0  0  0
  -39.7343  -67.6750   50.8842 N   0  0  0  0  0  0  0  0  0  0  0  0
  -38.7877  -68.4766   51.4025 C   0  0  0  0  0  0  0  0  0  0  0  0
  -37.5540  -68.8702   50.9826 N   0  0  0  0  0  0  0  0  0  0  0  0
  -37.0817  -69.6702   51.9150 N   0  0  0  0  0  0  0  0  0  0  0  0
  -37.9390  -69.8137   52.9078 N   0  0  0  0  0  0  0  0  0  0  0  0
  -39.0238  -69.0823   52.6293 C   0  0  0  0  0  0  0  0  0  0  0  0
  -40.2167  -68.8561   53.2943 C   0  0  0  0  0  0  0  0  0  0  0  0
  -41.0936  -68.0408   52.6933 N   0  0  0  0  0  0  0  0  0  0  0  0
  -40.4714  -69.4523   54.5214 O   0  0  0  0  0  0  0  0  0  0  0  0
  -40.5001  -70.4576   54.5992 H   0  0  0  0  0  0  0  0  0  0  0  0
  -43.5282  -65.3941   52.4947 N   0  0  0  0  0  0  0  0  0  0  0  0
  -43.1892  -66.5273   51.7590 C   0  0  0  0  0  0  0  0  0  0  0  0
  -41.9589  -66.5738   50.9666 C   0  0  0  0  0  0  0  0  0  0  0  0
  -41.3914  -65.1935   50.7589 C   0  0  0  0  0  0  0  0  0  0  0  0
  -41.2616  -64.5299   52.0830 C   0  0  0  0  0  0  0  0  0  0  0  0
  -42.6182  -64.3675   52.7054 C   0  0  0  0  0  0  0  0  0  0  0  0
  -44.7219  -65.6449   53.6711 S   0  0  0  0  0  0  0  0  0  0  0  0
  -45.7714  -64.5895   53.6802 O   0  0  0  0  0  0  0  0  0  0  0  0
  -44.0400  -65.7290   55.0216 O   0  0  0  0  0  0  0  0  0  0  0  0
  -45.5224  -67.2404   53.4460 C   0  0  0  0  0  0  0  0  0  0  0  0
  -36.9090  -68.4838   49.7667 C   0  0  0  0  0  0  0  0  0  0  0  0
  -35.9797  -67.3390   49.9244 C   0  0  0  0  0  0  0  0  0  0  0  0
  -36.3547  -66.1178   49.4236 C   0  0  0  0  0  0  0  0  0  0  0  0
  -35.5422  -64.9911   49.5286 C   0  0  0  0  0  0  0  0  0  0  0  0
  -34.3164  -65.0830   50.1521 C   0  0  0  0  0  0  0  0  0  0  0  0
  -33.9334  -66.3054   50.6578 C   0  0  0  0  0  0  0  0  0  0  0  0
  -34.7544  -67.4255   50.5469 C   0  0  0  0  0  0  0  0  0  0  0  0
  -37.8992  -65.9320   48.6193 Cl  0  0  0  0  0  0  0  0  0  0  0  0
 18 19  2  0  0  0
 18 20  2  0  0  0
 18 12  1  0  0  0
 18 21  1  0  0  0
 12 13  1  0  0  0
 12 17  1  0  0  0
 13 14  1  0  0  0
 14 15  1  0  0  0
 14  1  1  0  0  0
 15 16  1  0  0  0
 16 17  1  0  0  0
  1  2  2  0  0  0
  1  9  1  0  0  0
  2  3  1  0  0  0
  3  4  1  0  0  0
  3  7  2  0  0  0
  4  5  1  0  0  0
  4 22  1  0  0  0
  5  6  2  0  0  0
  6  7  1  0  0  0
  7  8  1  0  0  0
  8  9  2  0  0  0
  8 10  1  0  0  0
 22 23  1  0  0  0
 23 24  2  0  0  0
 23 28  1  0  0  0
 24 25  1  0  0  0
 24 29  1  0  0  0
 25 26  2  0  0  0
 26 27  1  0  0  0
 27 28  2  0  0  0
 10 11  1  0  0  0
M  END
> <minimizedAffinity>
-8.90514

$$$$
2197


 28 31  0  0  0  0  0  0  0  0999 V2000
  -40.0475  -65.2115   50.7626 N   0  0  0  0  0  0  0  0  0  0  0  0
  -41.2372  -64.8070   51.5397 C   0  0  0  0  0  0  0  0  0  0  0  0
  -42.3928  -64.8139   50.6091 C   0  0  0  0  0  0  0  0  0  0  0  0
  -42.2665  -64.2144   49.4113 O   0  0  0  0  0  0  0  0  0  0  0  0
  -41.0513  -63.9216   48.9251 C   0  0  0  0  0  0  0  0  0  0  0  0
  -39.8783  -64.1808   49.8058 C   0  0  0  0  0  0  0  0  0  0  0  0
  -43.5443  -64.2061   51.3386 C   0  0  0  0  0  0  0  0  0  0  0  0
  -43.9539  -63.0857   50.9331 O   0  0  0  0  0  0  0  0  0  0  0  0
  -44.1992  -64.7916   52.4379 N   0  0  0  0  0  0  0  0  0  0  0  0
  -43.8401  -66.0735   53.0144 C   0  0  0  0  0  0  0  0  0  0  0  0
  -44.7064  -66.2717   54.2423 C   0  0  0  0  0  0  0  0  0  0  0  0
  -46.1230  -66.2982   53.9294 N   0  0  0  0  0  0  0  0  0  0  0  0
  -46.4492  -65.1785   53.1050 C   0  0  0  0  0  0  0  0  0  0  0  0
  -45.3309  -64.1284   53.1029 C   0  0  0  0  0  0  0  0  0  0  0  0
  -46.4361  -67.5758   53.3755 C   0  0  0  0  0  0  0  0  0  0  0  0
  -47.5738  -68.2770   54.0658 C   0  0  0  0  0  0  0  0  0  0  0  0
  -48.3167  -69.2547   53.1566 C   0  0  0  0  0  0  0  0  0  0  0  0
  -48.9762  -68.0353   53.7212 C   0  0  0  0  0  0  0  0  0  0  0  0
  -40.1595  -66.8098   50.2459 S   0  0  0  0  0  0  0  0  0  0  0  0
  -41.3560  -67.4415   50.9700 O   0  0  0  0  0  0  0  0  0  0  0  0
  -40.5044  -66.9477   48.7829 O   0  0  0  0  0  0  0  0  0  0  0  0
  -38.7897  -67.7842   50.6741 C   0  0  0  0  0  0  0  0  0  0  0  0
  -37.5806  -67.6649   50.0247 C   0  0  0  0  0  0  0  0  0  0  0  0
  -36.5020  -68.4767   50.3198 C   0  0  0  0  0  0  0  0  0  0  0  0
  -36.6238  -69.4367   51.2928 C   0  0  0  0  0  0  0  0  0  0  0  0
  -37.8332  -69.5699   51.9592 C   0  0  0  0  0  0  0  0  0  0  0  0
  -38.8969  -68.7653   51.6616 C   0  0  0  0  0  0  0  0  0  0  0  0
  -37.3231  -66.3880   48.8206 Cl  0  0  0  0  0  0  0  0  0  0  0  0
 19 20  2  0  0  0
 19 21  2  0  0  0
 19  1  1  0  0  0
 19 22  1  0  0  0
  1  2  1  0  0  0
  1  6  1  0  0  0
  2  3  1  0  0  0
  3  4  1  0  0  0
  3  7  1  0  0  0
  4  5  1  0  0  0
  5  6  1  0  0  0
  7  8  2  0  0  0
  7  9  1  0  0  0
  9 10  1  0  0  0
  9 14  1  0  0  0
 10 11  1  0  0  0
 11 12  1  0  0  0
 12 13  1  0  0  0
 12 15  1  0  0  0
 13 14  1  0  0  0
 15 16  1  0  0  0
 16 17  1  0  0  0
 16 18  1  0  0  0
 17 18  1  0  0  0
 22 23  2  0  0  0
 22 27  1  0  0  0
 23 24  1  0  0  0
 23 28  1  0  0  0
 24 25  2  0  0  0
 25 26  1  0  0  0
 26 27  2  0  0  0
M  END
> <minimizedAffinity>
-7.51019

$$$$
2210


 33 36  0  0  0  0  0  0  0  0999 V2000
  -41.0851  -65.8389   49.9970 C   0  0  0  0  0  0  0  0  0  0  0  0
  -40.2061  -64.9920   49.4458 C   0  0  0  0  0  0  0  0  0  0  0  0
  -38.8536  -64.9573   49.7654 O   0  0  0  0  0  0  0  0  0  0  0  0
  -38.2314  -63.9764   48.9809 C   0  0  0  0  0  0  0  0  0  0  0  0
  -39.1050  -63.3444   48.1502 C   0  0  0  0  0  0  0  0  0  0  0  0
  -38.6990  -62.3626   47.2769 C   0  0  0  0  0  0  0  0  0  0  0  0
  -37.3593  -61.9920   47.2276 C   0  0  0  0  0  0  0  0  0  0  0  0
  -36.4691  -62.6425   48.0837 C   0  0  0  0  0  0  0  0  0  0  0  0
  -36.8755  -63.6088   48.9461 C   0  0  0  0  0  0  0  0  0  0  0  0
  -35.1468  -62.2133   47.9741 O   0  0  0  0  0  0  0  0  0  0  0  0
  -40.4245  -63.9833   48.4305 C   0  0  0  0  0  0  0  0  0  0  0  0
  -41.5074  -63.7024   47.9003 O   0  0  0  0  0  0  0  0  0  0  0  0
  -37.6907  -69.7801   51.0302 Br  0  0  0  0  0  0  0  0  0  0  0  0
  -39.0716  -68.5682   51.5341 C   0  0  0  0  0  0  0  0  0  0  0  0
  -39.5384  -67.6209   50.6069 C   0  0  0  0  0  0  0  0  0  0  0  0
  -40.5161  -66.7717   50.9852 C   0  0  0  0  0  0  0  0  0  0  0  0
  -41.0662  -66.8136   52.2469 C   0  0  0  0  0  0  0  0  0  0  0  0
  -40.5876  -67.7694   53.1549 C   0  0  0  0  0  0  0  0  0  0  0  0
  -39.5846  -68.6510   52.8046 C   0  0  0  0  0  0  0  0  0  0  0  0
  -42.0749  -65.9279   52.5965 O   0  0  0  0  0  0  0  0  0  0  0  0
  -43.0289  -66.1135   53.5832 C   0  0  0  0  0  0  0  0  0  0  0  0
  -36.0325  -64.2004   50.0071 C   0  0  0  0  0  0  0  0  0  0  0  0
  -35.0677  -65.0775   49.5346 N   0  0  0  0  0  0  0  0  0  0  0  0
  -35.5325  -66.5000   49.5694 C   0  0  0  0  0  0  0  0  0  0  0  0
  -35.1875  -67.0408   48.1592 C   0  0  0  0  0  0  0  0  0  0  0  0
  -34.2680  -66.1505   47.5244 N   0  0  0  0  0  0  0  0  0  0  0  0
  -33.1653  -65.7512   48.3076 C   0  0  0  0  0  0  0  0  0  0  0  0
  -33.6860  -65.0782   49.6517 C   0  0  0  0  0  0  0  0  0  0  0  0
  -35.2476  -64.9072   48.4147 H   0  0  0  0  0  0  0  0  0  0  0  0
  -34.5135  -65.7364   46.2343 C   0  0  0  0  0  0  0  0  0  0  0  0
  -34.1871  -66.6249   45.0764 C   0  0  0  0  0  0  0  0  0  0  0  0
  -35.2650  -67.4721   44.7721 O   0  0  0  0  0  0  0  0  0  0  0  0
  -35.3722  -67.5111   43.7655 H   0  0  0  0  0  0  0  0  0  0  0  0
 13 14  1  0  0  0
 14 15  2  0  0  0
 14 19  1  0  0  0
 15 16  1  0  0  0
 16 17  2  0  0  0
 16  1  1  0  0  0
 17 18  1  0  0  0
 17 20  1  0  0  0
 18 19  2  0  0  0
 20 21  1  0  0  0
  1  2  2  0  0  0
  2  3  1  0  0  0
  2 11  1  0  0  0
  3  4  1  0  0  0
  4  5  2  0  0  0
  4  9  1  0  0  0
  5  6  1  0  0  0
  5 11  1  0  0  0
  6  7  2  0  0  0
  7  8  1  0  0  0
  8  9  2  0  0  0
  8 10  1  0  0  0
  9 22  1  0  0  0
 22 23  1  0  0  0
 23 24  1  0  0  0
 23 28  1  0  0  0
 24 25  1  0  0  0
 25 26  1  0  0  0
 26 27  1  0  0  0
 26 30  1  0  0  0
 27 28  1  0  0  0
 30 31  1  0  0  0
 31 32  1  0  0  0
 11 12  2  0  0  0
 23 29  1  0  0  0
 32 33  1  0  0  0
M  CHG 1  10  -1
M  CHG 1  23   1
M  END
> <minimizedAffinity>
-7.65977

$$$$
2213


 31 34  0  0  0  0  0  0  0  0999 V2000
  -38.1180  -69.9664   51.0583 Cl  0  0  0  0  0  0  0  0  0  0  0  0
  -36.6593  -69.0085   50.9284 C   0  0  0  0  0  0  0  0  0  0  0  0
  -36.7545  -67.7338   50.3506 C   0  0  0  0  0  0  0  0  0  0  0  0
  -35.6298  -66.9599   50.2340 C   0  0  0  0  0  0  0  0  0  0  0  0
  -34.4299  -67.5002   50.7100 C   0  0  0  0  0  0  0  0  0  0  0  0
  -34.3486  -68.7532   51.2752 C   0  0  0  0  0  0  0  0  0  0  0  0
  -35.4810  -69.5380   51.3948 C   0  0  0  0  0  0  0  0  0  0  0  0
  -32.8276  -69.4106   51.8661 Cl  0  0  0  0  0  0  0  0  0  0  0  0
  -35.6364  -65.6135   49.6422 C   0  0  0  0  0  0  0  0  0  0  0  0
  -36.9910  -65.2329   49.2074 C   0  0  0  0  0  0  0  0  0  0  0  0
  -38.0947  -66.0166   49.3320 C   0  0  0  0  0  0  0  0  0  0  0  0
  -39.3296  -65.6151   48.9114 N   0  0  0  0  0  0  0  0  0  0  0  0
  -39.4297  -64.4074   48.3619 C   0  0  0  0  0  0  0  0  0  0  0  0
  -40.5596  -63.9898   47.9547 O   0  0  0  0  0  0  0  0  0  0  0  0
  -38.3614  -63.5971   48.2186 N   0  0  0  0  0  0  0  0  0  0  0  0
  -37.1469  -63.9799   48.6280 C   0  0  0  0  0  0  0  0  0  0  0  0
  -36.1501  -63.2248   48.4949 O   0  0  0  0  0  0  0  0  0  0  0  0
  -38.5369  -62.2854   47.6110 C   0  0  0  0  0  0  0  0  0  0  0  0
  -40.4841  -66.4750   49.0584 C   0  0  0  0  0  0  0  0  0  0  0  0
  -37.9705  -67.2554   49.8998 O   0  0  0  0  0  0  0  0  0  0  0  0
  -34.6471  -65.5049   48.5189 C   0  0  0  0  0  0  0  0  0  0  0  0
  -34.8294  -66.1572   47.3238 C   0  0  0  0  0  0  0  0  0  0  0  0
  -33.9578  -66.0879   46.3054 N   0  0  0  0  0  0  0  0  0  0  0  0
  -32.8493  -65.3405   46.4690 C   0  0  0  0  0  0  0  0  0  0  0  0
  -32.0334  -65.2830   45.5028 O   0  0  0  0  0  0  0  0  0  0  0  0
  -32.6301  -64.6854   47.6226 N   0  0  0  0  0  0  0  0  0  0  0  0
  -33.4887  -64.7408   48.6504 C   0  0  0  0  0  0  0  0  0  0  0  0
  -33.3117  -64.1406   49.7374 O   0  0  0  0  0  0  0  0  0  0  0  0
  -31.4254  -63.8980   47.7495 C   0  0  0  0  0  0  0  0  0  0  0  0
  -34.1809  -66.7856   45.0534 C   0  0  0  0  0  0  0  0  0  0  0  0
  -35.9652  -66.9230   47.1578 O   0  0  0  0  0  0  0  0  0  0  0  0
  1  2  1  0  0  0
  2  3  2  0  0  0
  2  7  1  0  0  0
  3  4  1  0  0  0
  3 20  1  0  0  0
  4  5  2  0  0  0
  4  9  1  0  0  0
  5  6  1  0  0  0
  6  7  2  0  0  0
  6  8  1  0  0  0
  9 10  1  0  0  0
  9 21  1  0  0  0
 10 11  2  0  0  0
 10 16  1  0  0  0
 11 12  1  0  0  0
 11 20  1  0  0  0
 12 13  1  0  0  0
 12 19  1  0  0  0
 13 14  2  0  0  0
 13 15  1  0  0  0
 15 16  1  0  0  0
 15 18  1  0  0  0
 16 17  2  0  0  0
 21 22  2  0  0  0
 21 27  1  0  0  0
 22 23  1  0  0  0
 22 31  1  0  0  0
 23 24  1  0  0  0
 23 30  1  0  0  0
 24 25  2  0  0  0
 24 26  1  0  0  0
 26 27  1  0  0  0
 26 29  1  0  0  0
 27 28  2  0  0  0
M  CHG 1  31  -1
M  END
> <minimizedAffinity>
-8.04451

$$$$
2214


 34 38  0  0  0  0  0  0  0  0999 V2000
  -38.9649  -70.4475   51.9148 Cl  0  0  0  0  0  0  0  0  0  0  0  0
  -39.9549  -69.4143   52.9232 C   0  0  0  0  0  0  0  0  0  0  0  0
  -40.6076  -68.3181   52.4284 C   0  0  0  0  0  0  0  0  0  0  0  0
  -41.3876  -67.5200   53.2694 C   0  0  0  0  0  0  0  0  0  0  0  0
  -41.4735  -67.8693   54.5841 C   0  0  0  0  0  0  0  0  0  0  0  0
  -40.8045  -68.9939   55.0949 C   0  0  0  0  0  0  0  0  0  0  0  0
  -40.0417  -69.7738   54.2728 C   0  0  0  0  0  0  0  0  0  0  0  0
  -42.3082  -66.9285   55.2523 N   0  0  0  0  0  0  0  0  0  0  0  0
  -42.7587  -65.9633   54.3328 C   0  0  0  0  0  0  0  0  0  0  0  0
  -43.5201  -64.9914   54.6371 O   0  0  0  0  0  0  0  0  0  0  0  0
  -42.1887  -66.3086   53.0264 C   0  0  0  0  0  0  0  0  0  0  0  0
  -41.2770  -65.2988   52.5359 N   0  0  0  0  0  0  0  0  0  0  0  0
  -41.7940  -64.7118   51.3407 C   0  0  0  0  0  0  0  0  0  0  0  0
  -43.1746  -65.2216   51.2131 C   0  0  0  0  0  0  0  0  0  0  0  0
  -43.2441  -66.5205   51.9674 C   0  0  0  0  0  0  0  0  0  0  0  0
  -44.6175  -66.5014   52.5169 C   0  0  0  0  0  0  0  0  0  0  0  0
  -45.3023  -67.4656   52.9412 O   0  0  0  0  0  0  0  0  0  0  0  0
  -45.1256  -65.1502   52.5134 N   0  0  0  0  0  0  0  0  0  0  0  0
  -44.0834  -64.3237   52.0086 C   0  0  0  0  0  0  0  0  0  0  0  0
  -43.9820  -63.0910   52.2106 O   0  0  0  0  0  0  0  0  0  0  0  0
  -42.5662  -66.9345   56.2849 H   0  0  0  0  0  0  0  0  0  0  0  0
  -40.3275  -65.6758   52.3209 H   0  0  0  0  0  0  0  0  0  0  0  0
  -46.4439  -64.7393   52.9482 C   0  0  0  0  0  0  0  0  0  0  0  0
  -47.3338  -64.3080   51.8144 C   0  0  0  0  0  0  0  0  0  0  0  0
  -47.3995  -65.3216   50.8619 O   0  0  0  0  0  0  0  0  0  0  0  0
  -48.4804  -66.1113   51.1813 C   0  0  0  0  0  0  0  0  0  0  0  0
  -49.4915  -65.2521   51.9083 C   0  0  0  0  0  0  0  0  0  0  0  0
  -48.7290  -63.9775   52.2125 C   0  0  0  0  0  0  0  0  0  0  0  0
  -40.9211  -64.9642   50.1405 C   0  0  0  0  0  0  0  0  0  0  0  0
  -40.0651  -63.8554   49.7621 C   0  0  0  0  0  0  0  0  0  0  0  0
  -40.5661  -62.7640   49.4182 O   0  0  0  0  0  0  0  0  0  0  0  0
  -38.6588  -63.9847   49.7735 N   0  0  0  0  0  0  0  0  0  0  0  0
  -38.0835  -63.2820   50.2942 H   0  0  0  0  0  0  0  0  0  0  0  0
  -38.1373  -64.7414   49.2928 H   0  0  0  0  0  0  0  0  0  0  0  0
  1  2  1  0  0  0
  2  3  2  0  0  0
  2  7  1  0  0  0
  3  4  1  0  0  0
  4  5  2  0  0  0
  4 11  1  0  0  0
  5  6  1  0  0  0
  5  8  1  0  0  0
  6  7  2  0  0  0
  8  9  1  0  0  0
  9 10  2  0  0  0
  9 11  1  0  0  0
 11 12  1  0  0  0
 11 15  1  0  0  0
 12 13  1  0  0  0
 13 14  1  0  0  0
 13 29  1  0  0  0
 14 15  1  0  0  0
 14 19  1  0  0  0
 15 16  1  0  0  0
 16 17  2  0  0  0
 16 18  1  0  0  0
 18 19  1  0  0  0
 18 23  1  0  0  0
 19 20  2  0  0  0
 23 24  1  0  0  0
 24 25  1  0  0  0
 24 28  1  0  0  0
 25 26  1  0  0  0
 26 27  1  0  0  0
 27 28  1  0  0  0
 29 30  1  0  0  0
 30 31  2  0  0  0
 30 32  1  0  0  0
  8 21  1  0  0  0
 12 22  1  0  0  0
 32 33  1  0  0  0
 32 34  1  0  0  0
M  END
> <minimizedAffinity>
-7.77631

$$$$
2225


 29 32  0  0  0  0  0  0  0  0999 V2000
  -37.6594  -63.5606   48.3809 C   0  0  0  0  0  0  0  0  0  0  0  0
  -37.8897  -62.3011   48.6297 O   0  0  0  0  0  0  0  0  0  0  0  0
  -38.7228  -64.2760   47.8541 N   0  0  0  0  0  0  0  0  0  0  0  0
  -40.0108  -63.5467   47.6429 C   0  0  0  0  0  0  0  0  0  0  0  0
  -41.0980  -64.4986   48.0739 C   0  0  0  0  0  0  0  0  0  0  0  0
  -40.6218  -65.5449   48.9603 N   0  0  0  0  0  0  0  0  0  0  0  0
  -39.6296  -66.4469   48.4400 C   0  0  0  0  0  0  0  0  0  0  0  0
  -38.7870  -65.6564   47.4520 C   0  0  0  0  0  0  0  0  0  0  0  0
  -41.1268  -65.6454   50.2739 C   0  0  0  0  0  0  0  0  0  0  0  0
  -40.9118  -66.7574   51.0304 N   0  0  0  0  0  0  0  0  0  0  0  0
  -41.3627  -66.8973   52.2693 C   0  0  0  0  0  0  0  0  0  0  0  0
  -42.0750  -65.8667   52.7939 N   0  0  0  0  0  0  0  0  0  0  0  0
  -42.3249  -64.7570   52.1229 C   0  0  0  0  0  0  0  0  0  0  0  0
  -41.8492  -64.6168   50.8230 C   0  0  0  0  0  0  0  0  0  0  0  0
  -41.1480  -68.0469   53.0686 N   0  0  0  0  0  0  0  0  0  0  0  0
  -41.6683  -68.0928   54.4307 C   0  0  0  0  0  0  0  0  0  0  0  0
  -40.4654  -68.4578   55.3061 C   0  0  0  0  0  0  0  0  0  0  0  0
  -39.9651  -69.6767   54.9329 O   0  0  0  0  0  0  0  0  0  0  0  0
  -39.4640  -69.7308   53.6543 C   0  0  0  0  0  0  0  0  0  0  0  0
  -40.4260  -69.2084   52.6110 C   0  0  0  0  0  0  0  0  0  0  0  0
  -36.2874  -63.9923   48.7113 C   0  0  0  0  0  0  0  0  0  0  0  0
  -35.9927  -65.1051   49.2812 O   0  0  0  0  0  0  0  0  0  0  0  0
  -34.3192  -70.0849   51.9194 Cl  0  0  0  0  0  0  0  0  0  0  0  0
  -34.8316  -68.6135   51.1317 C   0  0  0  0  0  0  0  0  0  0  0  0
  -36.0658  -68.5044   50.5339 C   0  0  0  0  0  0  0  0  0  0  0  0
  -36.4785  -67.3623   49.9174 C   0  0  0  0  0  0  0  0  0  0  0  0
  -35.6571  -66.2159   49.8531 C   0  0  0  0  0  0  0  0  0  0  0  0
  -34.3956  -66.3475   50.4712 C   0  0  0  0  0  0  0  0  0  0  0  0
  -34.0159  -67.5063   51.0804 C   0  0  0  0  0  0  0  0  0  0  0  0
 23 24  1  0  0  0
 24 25  2  0  0  0
 24 29  1  0  0  0
 25 26  1  0  0  0
 26 27  2  0  0  0
 27 28  1  0  0  0
 27 22  1  0  0  0
 28 29  2  0  0  0
 22 21  1  0  0  0
 21  1  1  0  0  0
  1  2  2  0  0  0
  1  3  1  0  0  0
  3  4  1  0  0  0
  3  8  1  0  0  0
  4  5  1  0  0  0
  5  6  1  0  0  0
  6  7  1  0  0  0
  6  9  1  0  0  0
  7  8  1  0  0  0
  9 10  2  0  0  0
  9 14  1  0  0  0
 10 11  1  0  0  0
 11 12  2  0  0  0
 11 15  1  0  0  0
 12 13  1  0  0  0
 13 14  2  0  0  0
 15 16  1  0  0  0
 15 20  1  0  0  0
 16 17  1  0  0  0
 17 18  1  0  0  0
 18 19  1  0  0  0
 19 20  1  0  0  0
M  END
> <minimizedAffinity>
-7.66060

$$$$
2231


 27 31  0  0  0  0  0  0  0  0999 V2000
  -40.2315  -66.7093   51.1629 N   0  0  0  0  0  0  0  0  0  0  0  0
  -39.7478  -65.7820   50.3555 N   0  0  0  0  0  0  0  0  0  0  0  0
  -38.6165  -66.1636   49.7952 N   0  0  0  0  0  0  0  0  0  0  0  0
  -38.3043  -67.3973   50.2275 C   0  0  0  0  0  0  0  0  0  0  0  0
  -39.3331  -67.7238   51.0882 C   0  0  0  0  0  0  0  0  0  0  0  0
  -39.2894  -68.9341   51.6893 N   0  0  0  0  0  0  0  0  0  0  0  0
  -38.2612  -69.7632   51.4306 C   0  0  0  0  0  0  0  0  0  0  0  0
  -37.2532  -69.4364   50.5847 N   0  0  0  0  0  0  0  0  0  0  0  0
  -37.2477  -68.2444   49.9602 C   0  0  0  0  0  0  0  0  0  0  0  0
  -36.1953  -67.8838   49.0655 N   0  0  0  0  0  0  0  0  0  0  0  0
  -36.4228  -68.1506   47.6579 C   0  0  0  0  0  0  0  0  0  0  0  0
  -35.5707  -67.2323   46.7850 C   0  0  0  0  0  0  0  0  0  0  0  0
  -34.3017  -66.9899   47.3709 N   0  0  0  0  0  0  0  0  0  0  0  0
  -34.3917  -66.2763   48.6820 C   0  0  0  0  0  0  0  0  0  0  0  0
  -35.0152  -67.2954   49.6172 C   0  0  0  0  0  0  0  0  0  0  0  0
  -33.0691  -67.3504   46.8541 C   0  0  0  0  0  0  0  0  0  0  0  0
  -32.0425  -66.9980   47.6093 O   0  0  0  0  0  0  0  0  0  0  0  0
  -32.6685  -68.0454   45.6402 C   0  0  0  0  0  0  0  0  0  0  0  0
  -31.5661  -67.4813   44.8271 C   0  0  0  0  0  0  0  0  0  0  0  0
  -31.4775  -68.8625   45.4334 C   0  0  0  0  0  0  0  0  0  0  0  0
  -45.3190  -66.3670   54.2181 Cl  0  0  0  0  0  0  0  0  0  0  0  0
  -43.8290  -66.4712   53.3321 C   0  0  0  0  0  0  0  0  0  0  0  0
  -42.7301  -67.0555   53.9097 C   0  0  0  0  0  0  0  0  0  0  0  0
  -41.5463  -67.1394   53.2114 C   0  0  0  0  0  0  0  0  0  0  0  0
  -41.4235  -66.6506   51.9316 C   0  0  0  0  0  0  0  0  0  0  0  0
  -42.5427  -66.0696   51.3783 C   0  0  0  0  0  0  0  0  0  0  0  0
  -43.7395  -65.9756   52.0637 C   0  0  0  0  0  0  0  0  0  0  0  0
 21 22  1  0  0  0
 22 23  2  0  0  0
 22 27  1  0  0  0
 23 24  1  0  0  0
 24 25  2  0  0  0
 25 26  1  0  0  0
 25  1  1  0  0  0
 26 27  2  0  0  0
  1  2  1  0  0  0
  1  5  1  0  0  0
  2  3  2  0  0  0
  3  4  1  0  0  0
  4  5  2  0  0  0
  4  9  1  0  0  0
  5  6  1  0  0  0
  6  7  2  0  0  0
  7  8  1  0  0  0
  8  9  2  0  0  0
  9 10  1  0  0  0
 10 11  1  0  0  0
 10 15  1  0  0  0
 11 12  1  0  0  0
 12 13  1  0  0  0
 13 14  1  0  0  0
 13 16  1  0  0  0
 14 15  1  0  0  0
 16 17  2  0  0  0
 16 18  1  0  0  0
 18 19  1  0  0  0
 18 20  1  0  0  0
 19 20  1  0  0  0
M  END
> <minimizedAffinity>
-7.37530

$$$$
2242


 32 35  0  0  0  0  0  0  0  0999 V2000
  -40.6575  -66.9443   52.1596 N   0  0  0  0  0  0  0  0  0  0  0  0
  -40.2862  -67.4579   50.9147 C   0  0  0  0  0  0  0  0  0  0  0  0
  -41.1054  -67.8734   50.0827 O   0  0  0  0  0  0  0  0  0  0  0  0
  -39.8788  -66.6119   52.8119 H   0  0  0  0  0  0  0  0  0  0  0  0
  -40.9829  -68.0363   54.8583 Cl  0  0  0  0  0  0  0  0  0  0  0  0
  -42.2585  -67.3116   53.9036 C   0  0  0  0  0  0  0  0  0  0  0  0
  -43.5121  -67.2363   54.4419 C   0  0  0  0  0  0  0  0  0  0  0  0
  -44.5576  -66.6845   53.7563 C   0  0  0  0  0  0  0  0  0  0  0  0
  -44.3196  -66.2008   52.4973 C   0  0  0  0  0  0  0  0  0  0  0  0
  -43.0282  -66.2811   51.9484 C   0  0  0  0  0  0  0  0  0  0  0  0
  -41.9742  -66.8310   52.6226 C   0  0  0  0  0  0  0  0  0  0  0  0
  -45.3285  -65.6241   51.7305 O   0  0  0  0  0  0  0  0  0  0  0  0
  -46.5579  -65.1595   52.3075 C   0  0  0  0  0  0  0  0  0  0  0  0
  -46.8961  -65.9805   53.5076 C   0  0  0  0  0  0  0  0  0  0  0  0
  -48.1034  -66.1305   53.8059 O   0  0  0  0  0  0  0  0  0  0  0  0
  -45.8787  -66.5835   54.3008 N   0  0  0  0  0  0  0  0  0  0  0  0
  -46.0889  -66.9429   55.2526 H   0  0  0  0  0  0  0  0  0  0  0  0
  -38.8509  -67.5277   50.5240 C   0  0  0  0  0  0  0  0  0  0  0  0
  -38.3282  -66.5210   49.8954 N   0  0  0  0  0  0  0  0  0  0  0  0
  -36.9939  -66.5055   49.4939 N   0  0  0  0  0  0  0  0  0  0  0  0
  -36.1817  -67.6215   49.7809 C   0  0  0  0  0  0  0  0  0  0  0  0
  -34.9453  -67.5256   49.4726 O   0  0  0  0  0  0  0  0  0  0  0  0
  -36.7082  -68.8519   50.4058 C   0  0  0  0  0  0  0  0  0  0  0  0
  -38.0531  -68.6609   50.8229 N   0  0  0  0  0  0  0  0  0  0  0  0
  -38.5116  -69.4132   51.4001 H   0  0  0  0  0  0  0  0  0  0  0  0
  -36.4461  -65.3650   48.7888 C   0  0  0  0  0  0  0  0  0  0  0  0
  -36.3388  -65.3500   47.4194 C   0  0  0  0  0  0  0  0  0  0  0  0
  -35.8102  -64.2347   46.7614 C   0  0  0  0  0  0  0  0  0  0  0  0
  -35.3844  -63.1302   47.4709 C   0  0  0  0  0  0  0  0  0  0  0  0
  -35.4974  -63.1611   48.8418 C   0  0  0  0  0  0  0  0  0  0  0  0
  -36.0144  -64.2513   49.4765 C   0  0  0  0  0  0  0  0  0  0  0  0
  -34.8166  -61.9137   46.8165 C   0  0  0  0  0  0  0  0  0  0  0  0
  5  6  1  0  0  0
  6  7  2  0  0  0
  6 11  1  0  0  0
  7  8  1  0  0  0
  8  9  2  0  0  0
  8 16  1  0  0  0
  9 10  1  0  0  0
  9 12  1  0  0  0
 10 11  2  0  0  0
 11  1  1  0  0  0
  1  2  1  0  0  0
  2  3  2  0  0  0
  2 18  1  0  0  0
 18 19  2  0  0  0
 18 24  1  0  0  0
 19 20  1  0  0  0
 20 21  1  0  0  0
 20 26  1  0  0  0
 21 22  2  0  0  0
 21 23  1  0  0  0
 23 24  1  0  0  0
 26 27  2  0  0  0
 26 31  1  0  0  0
 27 28  1  0  0  0
 28 29  2  0  0  0
 29 30  1  0  0  0
 29 32  1  0  0  0
 30 31  2  0  0  0
 12 13  1  0  0  0
 13 14  1  0  0  0
 14 15  2  0  0  0
 14 16  1  0  0  0
  1  4  1  0  0  0
 24 25  1  0  0  0
 16 17  1  0  0  0
M  END
> <minimizedAffinity>
-8.74409

$$$$
2266


 27 30  0  0  0  0  0  0  0  0999 V2000
  -40.5887  -69.1179   53.0075 N   0  0  0  0  0  0  0  0  0  0  0  0
  -39.4513  -69.8313   53.4308 C   0  0  0  0  0  0  0  0  0  0  0  0
  -38.5903  -70.3459   52.2941 C   0  0  0  0  0  0  0  0  0  0  0  0
  -38.3083  -69.1648   51.4244 C   0  0  0  0  0  0  0  0  0  0  0  0
  -39.3844  -68.3629   51.1047 C   0  0  0  0  0  0  0  0  0  0  0  0
  -39.1991  -67.2928   50.3314 N   0  0  0  0  0  0  0  0  0  0  0  0
  -37.9531  -67.0321   49.8868 C   0  0  0  0  0  0  0  0  0  0  0  0
  -36.8880  -67.7969   50.1842 N   0  0  0  0  0  0  0  0  0  0  0  0
  -35.7817  -67.2955   49.6039 N   0  0  0  0  0  0  0  0  0  0  0  0
  -36.0878  -66.1892   48.9107 C   0  0  0  0  0  0  0  0  0  0  0  0
  -37.4407  -66.0095   49.0766 C   0  0  0  0  0  0  0  0  0  0  0  0
  -37.0393  -68.8895   50.9653 C   0  0  0  0  0  0  0  0  0  0  0  0
  -36.0822  -69.6431   51.2774 O   0  0  0  0  0  0  0  0  0  0  0  0
  -40.7032  -68.7570   51.6552 C   0  0  0  0  0  0  0  0  0  0  0  0
  -34.8344  -67.7277   49.6984 H   0  0  0  0  0  0  0  0  0  0  0  0
  -41.4617  -68.2691   54.1614 S   0  0  0  0  0  0  0  0  0  0  0  0
  -42.0802  -69.1936   55.2002 O   0  0  0  0  0  0  0  0  0  0  0  0
  -40.4794  -67.4152   54.9569 O   0  0  0  0  0  0  0  0  0  0  0  0
  -42.7180  -67.2449   53.5815 C   0  0  0  0  0  0  0  0  0  0  0  0
  -42.4213  -66.0849   52.8698 C   0  0  0  0  0  0  0  0  0  0  0  0
  -43.4509  -65.2862   52.4227 C   0  0  0  0  0  0  0  0  0  0  0  0
  -44.7538  -65.5888   52.6497 C   0  0  0  0  0  0  0  0  0  0  0  0
  -45.0778  -66.7201   53.3447 C   0  0  0  0  0  0  0  0  0  0  0  0
  -44.0480  -67.5202   53.7932 C   0  0  0  0  0  0  0  0  0  0  0  0
  -46.7664  -67.1385   53.6546 Cl  0  0  0  0  0  0  0  0  0  0  0  0
  -41.1283  -65.7057   52.5963 O   0  0  0  0  0  0  0  0  0  0  0  0
  -40.9018  -64.5515   51.8195 C   0  0  0  0  0  0  0  0  0  0  0  0
 16 17  2  0  0  0
 16 18  2  0  0  0
 16  1  1  0  0  0
 16 19  1  0  0  0
  1  2  1  0  0  0
  1 14  1  0  0  0
  2  3  1  0  0  0
  3  4  1  0  0  0
  4  5  2  0  0  0
  4 12  1  0  0  0
  5  6  1  0  0  0
  5 14  1  0  0  0
  6  7  2  0  0  0
  7  8  1  0  0  0
  7 11  1  0  0  0
  8  9  1  0  0  0
  8 12  1  0  0  0
  9 10  1  0  0  0
 10 11  2  0  0  0
 12 13  2  0  0  0
 19 20  2  0  0  0
 19 24  1  0  0  0
 20 21  1  0  0  0
 20 26  1  0  0  0
 21 22  2  0  0  0
 22 23  1  0  0  0
 23 24  2  0  0  0
 23 25  1  0  0  0
 26 27  1  0  0  0
  9 15  1  0  0  0
M  END
> <minimizedAffinity>
-8.28456

$$$$
2267


 27 30  0  0  0  0  0  0  0  0999 V2000
  -41.8553  -65.6143   50.8496 N   0  0  0  0  0  0  0  0  0  0  0  0
  -42.7529  -65.3428   51.8804 C   0  0  0  0  0  0  0  0  0  0  0  0
  -43.0018  -66.5187   52.7957 C   0  0  0  0  0  0  0  0  0  0  0  0
  -41.8624  -67.4627   52.8702 C   0  0  0  0  0  0  0  0  0  0  0  0
  -41.1526  -67.6740   51.7131 C   0  0  0  0  0  0  0  0  0  0  0  0
  -40.1088  -68.5109   51.6848 N   0  0  0  0  0  0  0  0  0  0  0  0
  -39.7424  -69.1684   52.8334 C   0  0  0  0  0  0  0  0  0  0  0  0
  -40.4513  -68.9482   53.9598 N   0  0  0  0  0  0  0  0  0  0  0  0
  -39.9011  -69.6959   54.9203 N   0  0  0  0  0  0  0  0  0  0  0  0
  -38.8705  -70.3791   54.4380 C   0  0  0  0  0  0  0  0  0  0  0  0
  -38.7296  -70.0681   53.0868 C   0  0  0  0  0  0  0  0  0  0  0  0
  -41.5027  -68.1230   54.0447 C   0  0  0  0  0  0  0  0  0  0  0  0
  -42.1607  -67.9191   55.0934 O   0  0  0  0  0  0  0  0  0  0  0  0
  -41.5644  -66.9537   50.4969 C   0  0  0  0  0  0  0  0  0  0  0  0
  -40.2243  -69.7460   55.9133 H   0  0  0  0  0  0  0  0  0  0  0  0
  -40.7972  -64.4254   50.3501 S   0  0  0  0  0  0  0  0  0  0  0  0
  -41.5248  -63.4472   49.4559 O   0  0  0  0  0  0  0  0  0  0  0  0
  -40.2702  -63.6375   51.5126 O   0  0  0  0  0  0  0  0  0  0  0  0
  -39.4246  -65.0118   49.4371 C   0  0  0  0  0  0  0  0  0  0  0  0
  -38.1149  -64.8103   49.8373 C   0  0  0  0  0  0  0  0  0  0  0  0
  -37.0653  -65.2977   49.0735 C   0  0  0  0  0  0  0  0  0  0  0  0
  -37.2681  -65.9930   47.9037 C   0  0  0  0  0  0  0  0  0  0  0  0
  -38.5717  -66.1943   47.5044 C   0  0  0  0  0  0  0  0  0  0  0  0
  -39.6143  -65.7103   48.2631 C   0  0  0  0  0  0  0  0  0  0  0  0
  -35.4133  -65.0332   49.5950 Cl  0  0  0  0  0  0  0  0  0  0  0  0
  -36.1900  -66.4782   47.1461 O   0  0  0  0  0  0  0  0  0  0  0  0
  -36.0033  -67.8741   47.0075 C   0  0  0  0  0  0  0  0  0  0  0  0
 16 17  2  0  0  0
 16 18  2  0  0  0
 16  1  1  0  0  0
 16 19  1  0  0  0
  1  2  1  0  0  0
  1 14  1  0  0  0
  2  3  1  0  0  0
  3  4  1  0  0  0
  4  5  2  0  0  0
  4 12  1  0  0  0
  5  6  1  0  0  0
  5 14  1  0  0  0
  6  7  2  0  0  0
  7  8  1  0  0  0
  7 11  1  0  0  0
  8  9  1  0  0  0
  8 12  1  0  0  0
  9 10  1  0  0  0
 10 11  2  0  0  0
 12 13  2  0  0  0
 19 20  2  0  0  0
 19 24  1  0  0  0
 20 21  1  0  0  0
 21 22  2  0  0  0
 21 25  1  0  0  0
 22 23  1  0  0  0
 22 26  1  0  0  0
 23 24  2  0  0  0
 26 27  1  0  0  0
  9 15  1  0  0  0
M  END
> <minimizedAffinity>
-8.42720

$$$$
2270


 22 24  0  0  0  0  0  0  0  0999 V2000
  -37.4577  -69.0055   50.8903 C   0  0  0  0  0  0  0  0  0  0  0  0
  -36.4346  -69.7326   51.0354 O   0  0  0  0  0  0  0  0  0  0  0  0
  -37.6284  -68.1844   49.7337 N   0  0  0  0  0  0  0  0  0  0  0  0
  -38.4711  -67.6151   49.6623 H   0  0  0  0  0  0  0  0  0  0  0  0
  -41.8331  -68.7347   54.9844 Cl  0  0  0  0  0  0  0  0  0  0  0  0
  -40.5341  -68.8397   53.7989 C   0  0  0  0  0  0  0  0  0  0  0  0
  -40.5466  -67.9998   52.7058 C   0  0  0  0  0  0  0  0  0  0  0  0
  -39.5231  -68.0967   51.7904 C   0  0  0  0  0  0  0  0  0  0  0  0
  -38.4688  -69.0073   51.9168 C   0  0  0  0  0  0  0  0  0  0  0  0
  -38.4648  -69.8344   53.0024 C   0  0  0  0  0  0  0  0  0  0  0  0
  -39.4974  -69.7502   53.9435 C   0  0  0  0  0  0  0  0  0  0  0  0
  -41.5799  -67.0853   52.5537 O   0  0  0  0  0  0  0  0  0  0  0  0
  -41.3360  -65.7657   52.1068 C   0  0  0  0  0  0  0  0  0  0  0  0
  -36.6007  -68.2113   48.7353 C   0  0  0  0  0  0  0  0  0  0  0  0
  -35.5726  -67.1533   48.7954 C   0  0  0  0  0  0  0  0  0  0  0  0
  -34.3183  -67.4870   49.3972 N   0  0  0  0  0  0  0  0  0  0  0  0
  -33.3011  -66.7667   48.5931 C   0  0  0  0  0  0  0  0  0  0  0  0
  -33.8738  -65.3500   48.4609 C   0  0  0  0  0  0  0  0  0  0  0  0
  -34.8118  -65.0396   49.5208 N   0  0  0  0  0  0  0  0  0  0  0  0
  -36.0289  -65.8502   49.4313 C   0  0  0  0  0  0  0  0  0  0  0  0
  -34.1816  -65.4368   50.7678 C   0  0  0  0  0  0  0  0  0  0  0  0
  -34.1210  -66.9589   50.7317 C   0  0  0  0  0  0  0  0  0  0  0  0
  5  6  1  0  0  0
  6  7  2  0  0  0
  6 11  1  0  0  0
  7  8  1  0  0  0
  7 12  1  0  0  0
  8  9  2  0  0  0
  9 10  1  0  0  0
  9  1  1  0  0  0
 10 11  2  0  0  0
  1  2  2  0  0  0
  1  3  1  0  0  0
  3 14  1  0  0  0
 14 15  1  0  0  0
 15 16  1  0  0  0
 15 20  1  0  0  0
 16 17  1  0  0  0
 16 22  1  0  0  0
 17 18  1  0  0  0
 18 19  1  0  0  0
 19 20  1  0  0  0
 19 21  1  0  0  0
 21 22  1  0  0  0
 12 13  1  0  0  0
  3  4  1  0  0  0
M  END
> <minimizedAffinity>
-6.81908

$$$$
2271


 27 30  0  0  0  0  0  0  0  0999 V2000
  -37.2060  -66.6743   47.6832 C   0  0  0  0  0  0  0  0  0  0  0  0
  -36.7025  -67.3990   48.7404 N   0  0  0  0  0  0  0  0  0  0  0  0
  -35.5664  -66.6350   49.2124 C   0  0  0  0  0  0  0  0  0  0  0  0
  -35.0929  -66.2923   50.3662 C   0  0  0  0  0  0  0  0  0  0  0  0
  -33.8749  -65.4825   50.5501 C   0  0  0  0  0  0  0  0  0  0  0  0
  -33.1980  -65.0418   49.3013 C   0  0  0  0  0  0  0  0  0  0  0  0
  -33.5142  -65.8661   48.0991 C   0  0  0  0  0  0  0  0  0  0  0  0
  -34.9130  -66.2295   48.0227 N   0  0  0  0  0  0  0  0  0  0  0  0
  -35.8940  -66.2864   46.9426 C   0  0  0  0  0  0  0  0  0  0  0  0
  -37.8587  -67.5082   46.7317 O   0  0  0  0  0  0  0  0  0  0  0  0
  -36.2014  -68.2571   48.3036 H   0  0  0  0  0  0  0  0  0  0  0  0
  -37.1590  -68.1268   46.3981 H   0  0  0  0  0  0  0  0  0  0  0  0
  -40.3168  -61.5704   48.1863 Cl  0  0  0  0  0  0  0  0  0  0  0  0
  -39.4235  -63.0630   48.0431 C   0  0  0  0  0  0  0  0  0  0  0  0
  -40.0212  -64.2736   47.7160 C   0  0  0  0  0  0  0  0  0  0  0  0
  -39.3048  -65.4290   47.6094 C   0  0  0  0  0  0  0  0  0  0  0  0
  -37.9404  -65.4336   47.8267 C   0  0  0  0  0  0  0  0  0  0  0  0
  -37.3433  -64.2407   48.1499 C   0  0  0  0  0  0  0  0  0  0  0  0
  -38.0727  -63.0693   48.2579 C   0  0  0  0  0  0  0  0  0  0  0  0
  -37.4704  -67.9238   49.7684 C   0  0  0  0  0  0  0  0  0  0  0  0
  -38.6175  -67.4134   50.2741 C   0  0  0  0  0  0  0  0  0  0  0  0
  -39.2867  -68.0675   51.3071 C   0  0  0  0  0  0  0  0  0  0  0  0
  -38.8261  -69.2501   51.8606 C   0  0  0  0  0  0  0  0  0  0  0  0
  -37.6559  -69.7456   51.3250 C   0  0  0  0  0  0  0  0  0  0  0  0
  -36.9748  -69.1268   50.3106 C   0  0  0  0  0  0  0  0  0  0  0  0
  -39.5219  -69.8674   52.8872 O   0  0  0  0  0  0  0  0  0  0  0  0
  -38.8351  -70.2553   54.0492 C   0  0  0  0  0  0  0  0  0  0  0  0
 13 14  1  0  0  0
 14 15  2  0  0  0
 14 19  1  0  0  0
 15 16  1  0  0  0
 16 17  2  0  0  0
 17 18  1  0  0  0
 17  1  1  0  0  0
 18 19  2  0  0  0
  1  2  1  0  0  0
  1  9  1  0  0  0
  1 10  1  0  0  0
  2  3  1  0  0  0
  2 20  1  0  0  0
  3  4  2  0  0  0
  3  8  1  0  0  0
  4  5  1  0  0  0
  5  6  1  0  0  0
  6  7  1  0  0  0
  7  8  1  0  0  0
  8  9  1  0  0  0
 20 21  2  0  0  0
 20 25  1  0  0  0
 21 22  1  0  0  0
 22 23  2  0  0  0
 23 24  1  0  0  0
 23 26  1  0  0  0
 24 25  2  0  0  0
 26 27  1  0  0  0
  2 11  1  0  0  0
 10 12  1  0  0  0
M  CHG 1   2   1
M  END
> <minimizedAffinity>
-7.62774

$$$$
2272


 29 32  0  0  0  0  0  0  0  0999 V2000
  -40.3099  -65.6679   48.8464 C   0  0  0  0  0  0  0  0  0  0  0  0
  -40.7247  -66.8885   48.8967 O   0  0  0  0  0  0  0  0  0  0  0  0
  -39.0492  -65.4822   48.2757 N   0  0  0  0  0  0  0  0  0  0  0  0
  -38.2950  -64.2150   48.3100 C   0  0  0  0  0  0  0  0  0  0  0  0
  -37.1665  -64.6438   49.2997 C   0  0  0  0  0  0  0  0  0  0  0  0
  -36.3566  -65.6520   48.6303 N   0  0  0  0  0  0  0  0  0  0  0  0
  -36.8756  -66.4170   47.6349 C   0  0  0  0  0  0  0  0  0  0  0  0
  -38.3717  -66.5126   47.5381 C   0  0  0  0  0  0  0  0  0  0  0  0
  -41.2354  -64.6935   49.3711 C   0  0  0  0  0  0  0  0  0  0  0  0
  -41.1454  -64.1928   50.7398 C   0  0  0  0  0  0  0  0  0  0  0  0
  -41.6689  -69.6679   55.1338 Cl  0  0  0  0  0  0  0  0  0  0  0  0
  -41.6900  -68.2646   54.0946 C   0  0  0  0  0  0  0  0  0  0  0  0
  -42.7753  -67.4328   54.0718 C   0  0  0  0  0  0  0  0  0  0  0  0
  -42.7593  -66.3075   53.2377 C   0  0  0  0  0  0  0  0  0  0  0  0
  -41.6849  -66.0066   52.4344 C   0  0  0  0  0  0  0  0  0  0  0  0
  -40.5615  -66.8522   52.4494 C   0  0  0  0  0  0  0  0  0  0  0  0
  -40.6119  -67.9551   53.2858 C   0  0  0  0  0  0  0  0  0  0  0  0
  -41.9173  -64.8856   51.7569 N   0  0  0  0  0  0  0  0  0  0  0  0
  -43.1727  -64.4844   52.1516 C   0  0  0  0  0  0  0  0  0  0  0  0
  -43.7722  -63.4525   51.7326 O   0  0  0  0  0  0  0  0  0  0  0  0
  -43.6247  -65.3523   53.0226 O   0  0  0  0  0  0  0  0  0  0  0  0
  -35.2728  -65.9374   49.4448 C   0  0  0  0  0  0  0  0  0  0  0  0
  -35.3185  -67.3715   49.9739 C   0  0  0  0  0  0  0  0  0  0  0  0
  -34.1778  -67.9723   49.9265 O   0  0  0  0  0  0  0  0  0  0  0  0
  -36.4480  -67.9079   50.4212 N   0  0  0  0  0  0  0  0  0  0  0  0
  -35.7911  -69.0040   50.8815 H   0  0  0  0  0  0  0  0  0  0  0  0
  -37.6506  -68.4784   50.8966 C   0  0  0  0  0  0  0  0  0  0  0  0
  -37.4767  -69.4468   52.1283 C   0  0  0  0  0  0  0  0  0  0  0  0
  -37.8038  -69.9831   50.8207 C   0  0  0  0  0  0  0  0  0  0  0  0
 11 12  1  0  0  0
 12 13  2  0  0  0
 12 17  1  0  0  0
 13 14  1  0  0  0
 14 15  2  0  0  0
 14 21  1  0  0  0
 15 16  1  0  0  0
 15 18  1  0  0  0
 16 17  2  0  0  0
 18 19  1  0  0  0
 18 10  1  0  0  0
 19 20  2  0  0  0
 19 21  1  0  0  0
 10  9  1  0  0  0
  9  1  1  0  0  0
  1  2  2  0  0  0
  1  3  1  0  0  0
  3  4  1  0  0  0
  3  8  1  0  0  0
  4  5  1  0  0  0
  5  6  1  0  0  0
  6  7  1  0  0  0
  6 22  1  0  0  0
  7  8  1  0  0  0
 22 23  1  0  0  0
 23 24  2  0  0  0
 23 25  1  0  0  0
 25 27  1  0  0  0
 27 28  1  0  0  0
 27 29  1  0  0  0
 28 29  1  0  0  0
 25 26  1  0  0  0
M  END
> <minimizedAffinity>
-7.56949

$$$$
2275


 21 23  0  0  0  0  0  0  0  0999 V2000
  -39.2739  -70.2409   54.1069 Cl  0  0  0  0  0  0  0  0  0  0  0  0
  -40.3500  -69.0463   53.4164 C   0  0  0  0  0  0  0  0  0  0  0  0
  -40.1548  -68.6050   52.1240 C   0  0  0  0  0  0  0  0  0  0  0  0
  -41.0429  -67.6678   51.6444 C   0  0  0  0  0  0  0  0  0  0  0  0
  -40.9553  -67.1948   50.4700 O   0  0  0  0  0  0  0  0  0  0  0  0
  -42.0393  -67.2264   52.4265 N   0  0  0  0  0  0  0  0  0  0  0  0
  -42.2631  -67.6200   53.6647 N   0  0  0  0  0  0  0  0  0  0  0  0
  -43.3571  -67.1151   54.4773 C   0  0  0  0  0  0  0  0  0  0  0  0
  -43.1261  -65.6904   54.9346 C   0  0  0  0  0  0  0  0  0  0  0  0
  -43.5064  -64.7116   53.8372 C   0  0  0  0  0  0  0  0  0  0  0  0
  -42.6721  -64.9268   52.5953 C   0  0  0  0  0  0  0  0  0  0  0  0
  -42.9749  -66.2241   51.8931 C   0  0  0  0  0  0  0  0  0  0  0  0
  -44.3334  -66.6676   52.3047 C   0  0  0  0  0  0  0  0  0  0  0  0
  -44.5518  -67.0610   53.5546 C   0  0  0  0  0  0  0  0  0  0  0  0
  -41.3958  -68.5494   54.1643 C   0  0  0  0  0  0  0  0  0  0  0  0
  -41.5874  -68.9498   55.3622 O   0  0  0  0  0  0  0  0  0  0  0  0
  -39.0942  -69.0703   51.2948 N   0  0  0  0  0  0  0  0  0  0  0  0
  -39.3422  -69.9263   50.7123 H   0  0  0  0  0  0  0  0  0  0  0  0
  -37.7916  -68.4667   51.2201 C   0  0  0  0  0  0  0  0  0  0  0  0
  -36.6847  -69.4706   51.4925 C   0  0  0  0  0  0  0  0  0  0  0  0
  -37.4944  -67.7941   49.9217 C   0  0  0  0  0  0  0  0  0  0  0  0
  1  2  1  0  0  0
  2  3  2  0  0  0
  2 15  1  0  0  0
  3  4  1  0  0  0
  3 17  1  0  0  0
  4  5  2  0  0  0
  4  6  1  0  0  0
  6  7  1  0  0  0
  6 12  1  0  0  0
  7  8  1  0  0  0
  7 15  1  0  0  0
  8  9  1  0  0  0
  8 14  1  0  0  0
  9 10  1  0  0  0
 10 11  1  0  0  0
 11 12  1  0  0  0
 12 13  1  0  0  0
 13 14  2  0  0  0
 15 16  2  0  0  0
 17 19  1  0  0  0
 19 20  1  0  0  0
 19 21  1  0  0  0
 17 18  1  0  0  0
M  END
> <minimizedAffinity>
-7.31510

$$$$
2276


 21 24  0  0  0  0  0  0  0  0999 V2000
  -41.7103  -66.6082   51.6875 Cl  0  0  0  0  0  0  0  0  0  0  0  0
  -40.1431  -67.0998   51.0766 C   0  0  0  0  0  0  0  0  0  0  0  0
  -39.6341  -68.3095   51.5007 C   0  0  0  0  0  0  0  0  0  0  0  0
  -38.3765  -68.6360   50.9776 C   0  0  0  0  0  0  0  0  0  0  0  0
  -37.8690  -69.7190   51.3276 O   0  0  0  0  0  0  0  0  0  0  0  0
  -37.7412  -67.8165   50.1314 N   0  0  0  0  0  0  0  0  0  0  0  0
  -38.2360  -66.6562   49.7286 N   0  0  0  0  0  0  0  0  0  0  0  0
  -37.4170  -65.8893   48.8006 C   0  0  0  0  0  0  0  0  0  0  0  0
  -36.0789  -65.6746   49.4835 C   0  0  0  0  0  0  0  0  0  0  0  0
  -35.5375  -66.9453   49.9792 C   0  0  0  0  0  0  0  0  0  0  0  0
  -36.4227  -68.1329   49.5773 C   0  0  0  0  0  0  0  0  0  0  0  0
  -36.6116  -68.0159   48.0904 C   0  0  0  0  0  0  0  0  0  0  0  0
  -37.1220  -66.8654   47.6853 C   0  0  0  0  0  0  0  0  0  0  0  0
  -34.8343  -66.1763   48.8523 C   0  0  0  0  0  0  0  0  0  0  0  0
  -39.4270  -66.2954   50.1949 C   0  0  0  0  0  0  0  0  0  0  0  0
  -39.9058  -65.1953   49.8181 O   0  0  0  0  0  0  0  0  0  0  0  0
  -40.3009  -69.1941   52.3968 N   0  0  0  0  0  0  0  0  0  0  0  0
  -40.8678  -69.9412   51.9428 H   0  0  0  0  0  0  0  0  0  0  0  0
  -40.2468  -69.1265   53.8115 C   0  0  0  0  0  0  0  0  0  0  0  0
  -41.5786  -69.2756   54.5001 C   0  0  0  0  0  0  0  0  0  0  0  0
  -39.3237  -70.1690   54.4268 C   0  0  0  0  0  0  0  0  0  0  0  0
  1  2  1  0  0  0
  2  3  2  0  0  0
  2 15  1  0  0  0
  3  4  1  0  0  0
  3 17  1  0  0  0
  4  5  2  0  0  0
  4  6  1  0  0  0
  6  7  1  0  0  0
  6 11  1  0  0  0
  7  8  1  0  0  0
  7 15  1  0  0  0
  8  9  1  0  0  0
  8 13  1  0  0  0
  9 10  1  0  0  0
  9 14  1  0  0  0
 10 11  1  0  0  0
 10 14  1  0  0  0
 11 12  1  0  0  0
 12 13  2  0  0  0
 15 16  2  0  0  0
 17 19  1  0  0  0
 19 20  1  0  0  0
 19 21  1  0  0  0
 17 18  1  0  0  0
M  END
> <minimizedAffinity>
-7.04996

$$$$
2281


 34 37  0  0  0  0  0  0  0  0999 V2000
  -39.9414  -63.6489   48.8116 N   0  0  0  0  0  0  0  0  0  0  0  0
  -39.5821  -62.3073   48.6231 C   0  0  0  0  0  0  0  0  0  0  0  0
  -40.8949  -61.5296   48.2415 C   0  0  0  0  0  0  0  0  0  0  0  0
  -42.0919  -62.1914   48.4030 N   0  0  0  0  0  0  0  0  0  0  0  0
  -42.1224  -63.6264   48.3244 C   0  0  0  0  0  0  0  0  0  0  0  0
  -40.8068  -64.1498   47.6605 C   0  0  0  0  0  0  0  0  0  0  0  0
  -38.8293  -66.4503   48.2585 Cl  0  0  0  0  0  0  0  0  0  0  0  0
  -39.5993  -65.8489   49.7817 C   0  0  0  0  0  0  0  0  0  0  0  0
  -39.8532  -64.5502   49.8610 C   0  0  0  0  0  0  0  0  0  0  0  0
  -40.4368  -64.1074   51.1506 C   0  0  0  0  0  0  0  0  0  0  0  0
  -40.6631  -64.9999   52.0394 N   0  0  0  0  0  0  0  0  0  0  0  0
  -40.4032  -66.3274   51.9100 N   0  0  0  0  0  0  0  0  0  0  0  0
  -39.8741  -66.7627   50.7998 C   0  0  0  0  0  0  0  0  0  0  0  0
  -39.6023  -67.9903   50.5726 O   0  0  0  0  0  0  0  0  0  0  0  0
  -40.9814  -67.2122   52.9201 C   0  0  0  0  0  0  0  0  0  0  0  0
  -40.2363  -68.0827   53.6484 C   0  0  0  0  0  0  0  0  0  0  0  0
  -40.7893  -68.8153   54.6763 C   0  0  0  0  0  0  0  0  0  0  0  0
  -42.1384  -68.6807   54.9999 C   0  0  0  0  0  0  0  0  0  0  0  0
  -42.8803  -67.7856   54.2293 C   0  0  0  0  0  0  0  0  0  0  0  0
  -42.3223  -67.0828   53.2334 C   0  0  0  0  0  0  0  0  0  0  0  0
  -43.1701  -61.8030   47.4332 C   0  0  0  0  0  0  0  0  0  0  0  0
  -44.4260  -62.4289   47.8189 C   0  0  0  0  0  0  0  0  0  0  0  0
  -45.1125  -63.1864   47.3684 O   0  0  0  0  0  0  0  0  0  0  0  0
  -44.9266  -61.8331   49.3397 N   0  0  0  0  0  0  0  0  0  0  0  0
  -45.9592  -62.9075   49.5544 C   0  0  0  0  0  0  0  0  0  0  0  0
  -46.5957  -63.4485   48.6926 O   0  0  0  0  0  0  0  0  0  0  0  0
  -46.0708  -63.2168   50.9613 N   0  0  0  0  0  0  0  0  0  0  0  0
  -44.3961  -61.2825   49.2234 H   0  0  0  0  0  0  0  0  0  0  0  0
  -45.4583  -62.6180   51.6093 H   0  0  0  0  0  0  0  0  0  0  0  0
  -46.9013  -64.1872   51.5684 C   0  0  0  0  0  0  0  0  0  0  0  0
  -46.7614  -65.6062   51.1954 C   0  0  0  0  0  0  0  0  0  0  0  0
  -45.7639  -66.2410   52.1697 C   0  0  0  0  0  0  0  0  0  0  0  0
  -46.0626  -65.4730   53.4360 C   0  0  0  0  0  0  0  0  0  0  0  0
  -46.5373  -64.1373   53.0669 C   0  0  0  0  0  0  0  0  0  0  0  0
  7  8  1  0  0  0
  8  9  2  0  0  0
  8 13  1  0  0  0
  9 10  1  0  0  0
  9  1  1  0  0  0
 10 11  2  0  0  0
 11 12  1  0  0  0
 12 13  1  0  0  0
 12 15  1  0  0  0
 13 14  2  0  0  0
 15 16  2  0  0  0
 15 20  1  0  0  0
 16 17  1  0  0  0
 17 18  2  0  0  0
 18 19  1  0  0  0
 19 20  2  0  0  0
  1  2  1  0  0  0
  1  6  1  0  0  0
  2  3  1  0  0  0
  3  4  1  0  0  0
  4  5  1  0  0  0
  4 21  1  0  0  0
  5  6  1  0  0  0
 21 22  1  0  0  0
 22 23  2  0  0  0
 22 24  1  0  0  0
 24 25  1  0  0  0
 25 26  2  0  0  0
 25 27  1  0  0  0
 27 30  1  0  0  0
 30 31  1  0  0  0
 30 34  1  0  0  0
 31 32  1  0  0  0
 32 33  1  0  0  0
 33 34  1  0  0  0
 24 28  1  0  0  0
 27 29  1  0  0  0
M  END
> <minimizedAffinity>
-7.86763

$$$$
2282


 31 34  0  0  0  0  0  0  0  0999 V2000
  -38.7969  -65.1683   48.9551 N   0  0  0  0  0  0  0  0  0  0  0  0
  -38.6644  -65.8833   47.7083 C   0  0  0  0  0  0  0  0  0  0  0  0
  -37.2864  -66.4556   47.5919 C   0  0  0  0  0  0  0  0  0  0  0  0
  -36.6578  -66.3281   48.8831 N   0  0  0  0  0  0  0  0  0  0  0  0
  -36.3914  -64.9570   49.1296 C   0  0  0  0  0  0  0  0  0  0  0  0
  -37.7426  -64.2748   49.3646 C   0  0  0  0  0  0  0  0  0  0  0  0
  -40.8662  -63.0746   48.6293 Cl  0  0  0  0  0  0  0  0  0  0  0  0
  -40.9893  -64.4040   49.7619 C   0  0  0  0  0  0  0  0  0  0  0  0
  -39.9295  -65.3056   49.7992 C   0  0  0  0  0  0  0  0  0  0  0  0
  -40.0588  -66.3389   50.7023 C   0  0  0  0  0  0  0  0  0  0  0  0
  -41.1527  -66.4350   51.4782 N   0  0  0  0  0  0  0  0  0  0  0  0
  -42.1685  -65.5901   51.4585 N   0  0  0  0  0  0  0  0  0  0  0  0
  -42.0830  -64.5650   50.5899 C   0  0  0  0  0  0  0  0  0  0  0  0
  -43.0415  -63.7433   50.5523 O   0  0  0  0  0  0  0  0  0  0  0  0
  -43.3056  -65.7586   52.3152 C   0  0  0  0  0  0  0  0  0  0  0  0
  -43.1627  -65.6575   53.6798 C   0  0  0  0  0  0  0  0  0  0  0  0
  -44.2656  -65.8195   54.5256 C   0  0  0  0  0  0  0  0  0  0  0  0
  -45.5194  -66.0832   54.0232 C   0  0  0  0  0  0  0  0  0  0  0  0
  -45.6717  -66.1853   52.6580 C   0  0  0  0  0  0  0  0  0  0  0  0
  -44.5676  -66.0230   51.8278 C   0  0  0  0  0  0  0  0  0  0  0  0
  -35.6644  -67.2768   49.1933 C   0  0  0  0  0  0  0  0  0  0  0  0
  -36.0950  -68.3435   50.1031 C   0  0  0  0  0  0  0  0  0  0  0  0
  -35.1635  -68.9617   50.7216 O   0  0  0  0  0  0  0  0  0  0  0  0
  -37.4301  -68.7415   50.3553 N   0  0  0  0  0  0  0  0  0  0  0  0
  -38.1859  -68.2289   49.8579 H   0  0  0  0  0  0  0  0  0  0  0  0
  -37.8042  -69.7977   51.2616 C   0  0  0  0  0  0  0  0  0  0  0  0
  -38.5207  -69.2153   52.4405 C   0  0  0  0  0  0  0  0  0  0  0  0
  -39.8647  -69.1722   52.1810 O   0  0  0  0  0  0  0  0  0  0  0  0
  -40.5691  -69.8648   53.1272 C   0  0  0  0  0  0  0  0  0  0  0  0
  -39.6925  -69.7648   54.3577 C   0  0  0  0  0  0  0  0  0  0  0  0
  -38.3404  -70.0668   53.6891 C   0  0  0  0  0  0  0  0  0  0  0  0
  7  8  1  0  0  0
  8  9  2  0  0  0
  8 13  1  0  0  0
  9 10  1  0  0  0
  9  1  1  0  0  0
 10 11  2  0  0  0
 11 12  1  0  0  0
 12 13  1  0  0  0
 12 15  1  0  0  0
 13 14  2  0  0  0
 15 16  2  0  0  0
 15 20  1  0  0  0
 16 17  1  0  0  0
 17 18  2  0  0  0
 18 19  1  0  0  0
 19 20  2  0  0  0
  1  2  1  0  0  0
  1  6  1  0  0  0
  2  3  1  0  0  0
  3  4  1  0  0  0
  4  5  1  0  0  0
  4 21  1  0  0  0
  5  6  1  0  0  0
 21 22  1  0  0  0
 22 23  2  0  0  0
 22 24  1  0  0  0
 24 26  1  0  0  0
 26 27  1  0  0  0
 27 28  1  0  0  0
 27 31  1  0  0  0
 28 29  1  0  0  0
 29 30  1  0  0  0
 30 31  1  0  0  0
 24 25  1  0  0  0
M  END
> <minimizedAffinity>
-7.88240

$$$$
2284


 33 37  0  0  0  0  0  0  0  0999 V2000
  -35.6402  -67.4365   47.6454 C   0  0  0  0  0  0  0  0  0  0  0  0
  -36.6253  -66.5702   47.2144 C   0  0  0  0  0  0  0  0  0  0  0  0
  -37.8058  -66.3415   47.8744 C   0  0  0  0  0  0  0  0  0  0  0  0
  -38.6403  -65.5163   47.3768 O   0  0  0  0  0  0  0  0  0  0  0  0
  -38.0606  -66.9983   49.0449 N   0  0  0  0  0  0  0  0  0  0  0  0
  -39.1121  -66.8764   49.7527 N   0  0  0  0  0  0  0  0  0  0  0  0
  -39.2904  -67.5335   50.8604 C   0  0  0  0  0  0  0  0  0  0  0  0
  -37.8110  -68.4235   50.9100 S   0  0  0  0  0  0  0  0  0  0  0  0
  -37.1065  -67.8345   49.4590 C   0  0  0  0  0  0  0  0  0  0  0  0
  -35.9452  -68.0575   48.8052 N   0  0  0  0  0  0  0  0  0  0  0  0
  -40.3990  -67.5536   51.8222 C   0  0  0  0  0  0  0  0  0  0  0  0
  -41.4929  -66.7485   51.5877 C   0  0  0  0  0  0  0  0  0  0  0  0
  -42.5731  -66.7223   52.4589 C   0  0  0  0  0  0  0  0  0  0  0  0
  -42.5624  -67.5166   53.5868 C   0  0  0  0  0  0  0  0  0  0  0  0
  -41.4746  -68.3336   53.8432 C   0  0  0  0  0  0  0  0  0  0  0  0
  -40.4272  -68.3244   52.9507 C   0  0  0  0  0  0  0  0  0  0  0  0
  -43.9049  -67.4945   54.6840 Cl  0  0  0  0  0  0  0  0  0  0  0  0
  -34.3809  -67.6479   46.8923 C   0  0  0  0  0  0  0  0  0  0  0  0
  -31.9395  -64.3007   47.0744 N   0  0  0  0  0  0  0  0  0  0  0  0
  -32.3204  -64.7654   45.8126 C   0  0  0  0  0  0  0  0  0  0  0  0
  -32.6979  -66.2492   45.8715 C   0  0  0  0  0  0  0  0  0  0  0  0
  -33.6221  -66.4386   46.9171 N   0  0  0  0  0  0  0  0  0  0  0  0
  -33.1653  -66.0261   48.1894 C   0  0  0  0  0  0  0  0  0  0  0  0
  -31.8466  -65.2980   48.0568 C   0  0  0  0  0  0  0  0  0  0  0  0
  -32.1091  -62.7052   47.4967 S   0  0  0  0  0  0  0  0  0  0  0  0
  -31.4249  -61.8463   46.4378 O   0  0  0  0  0  0  0  0  0  0  0  0
  -31.5253  -62.3986   48.8515 O   0  0  0  0  0  0  0  0  0  0  0  0
  -33.7895  -62.2185   47.4735 C   0  0  0  0  0  0  0  0  0  0  0  0
  -34.4214  -61.5158   46.4927 N   0  0  0  0  0  0  0  0  0  0  0  0
  -35.7014  -61.3218   46.8152 C   0  0  0  0  0  0  0  0  0  0  0  0
  -35.9533  -61.8850   48.0050 N   0  0  0  0  0  0  0  0  0  0  0  0
  -34.7748  -62.4353   48.4062 C   0  0  0  0  0  0  0  0  0  0  0  0
  -36.8555  -61.8958   48.5083 H   0  0  0  0  0  0  0  0  0  0  0  0
 25 26  2  0  0  0
 25 27  2  0  0  0
 25 19  1  0  0  0
 25 28  1  0  0  0
 19 20  1  0  0  0
 19 24  1  0  0  0
 20 21  1  0  0  0
 21 22  1  0  0  0
 22 23  1  0  0  0
 22 18  1  0  0  0
 23 24  1  0  0  0
 18  1  1  0  0  0
  1  2  2  0  0  0
  1 10  1  0  0  0
  2  3  1  0  0  0
  3  4  2  0  0  0
  3  5  1  0  0  0
  5  6  1  0  0  0
  5  9  1  0  0  0
  6  7  2  0  0  0
  7  8  1  0  0  0
  7 11  1  0  0  0
  8  9  1  0  0  0
  9 10  2  0  0  0
 11 12  2  0  0  0
 11 16  1  0  0  0
 12 13  1  0  0  0
 13 14  2  0  0  0
 14 15  1  0  0  0
 14 17  1  0  0  0
 15 16  2  0  0  0
 28 29  1  0  0  0
 28 32  2  0  0  0
 29 30  2  0  0  0
 30 31  1  0  0  0
 31 32  1  0  0  0
 31 33  1  0  0  0
M  END
> <minimizedAffinity>
-8.25636

$$$$
2285


 32 35  0  0  0  0  0  0  0  0999 V2000
  -37.7949  -64.1454   47.1434 N   0  0  0  0  0  0  0  0  0  0  0  0
  -38.1563  -65.2077   48.0340 C   0  0  0  0  0  0  0  0  0  0  0  0
  -39.6654  -65.5122   48.0683 C   0  0  0  0  0  0  0  0  0  0  0  0
  -40.3201  -64.2839   48.3936 N   0  0  0  0  0  0  0  0  0  0  0  0
  -40.1546  -63.3885   47.2823 C   0  0  0  0  0  0  0  0  0  0  0  0
  -38.7119  -62.9707   47.3559 C   0  0  0  0  0  0  0  0  0  0  0  0
  -36.2450  -63.5199   47.7540 S   0  0  0  0  0  0  0  0  0  0  0  0
  -35.4819  -62.9861   46.5566 O   0  0  0  0  0  0  0  0  0  0  0  0
  -36.5252  -62.4115   48.7053 O   0  0  0  0  0  0  0  0  0  0  0  0
  -35.3066  -64.7467   48.5101 C   0  0  0  0  0  0  0  0  0  0  0  0
  -34.6030  -65.5829   47.6328 C   0  0  0  0  0  0  0  0  0  0  0  0
  -33.7145  -66.5731   48.0603 C   0  0  0  0  0  0  0  0  0  0  0  0
  -33.5210  -66.7331   49.4291 C   0  0  0  0  0  0  0  0  0  0  0  0
  -34.2276  -65.9047   50.2818 C   0  0  0  0  0  0  0  0  0  0  0  0
  -35.1055  -64.9211   49.8448 C   0  0  0  0  0  0  0  0  0  0  0  0
  -32.6253  -67.7258   49.7809 O   0  0  0  0  0  0  0  0  0  0  0  0
  -31.4405  -67.8783   48.9536 C   0  0  0  0  0  0  0  0  0  0  0  0
  -31.7314  -67.7797   47.4929 C   0  0  0  0  0  0  0  0  0  0  0  0
  -33.0405  -67.3839   47.1632 O   0  0  0  0  0  0  0  0  0  0  0  0
  -41.4571  -64.3076   49.1821 C   0  0  0  0  0  0  0  0  0  0  0  0
  -41.3523  -64.9251   50.5060 C   0  0  0  0  0  0  0  0  0  0  0  0
  -40.8872  -64.1013   51.4111 O   0  0  0  0  0  0  0  0  0  0  0  0
  -41.6543  -66.1765   50.9608 N   0  0  0  0  0  0  0  0  0  0  0  0
  -42.0063  -66.9789   50.3403 H   0  0  0  0  0  0  0  0  0  0  0  0
  -41.5930  -66.5971   52.3623 C   0  0  0  0  0  0  0  0  0  0  0  0
  -40.6837  -67.7551   52.4772 C   0  0  0  0  0  0  0  0  0  0  0  0
  -40.5047  -68.4199   53.7122 C   0  0  0  0  0  0  0  0  0  0  0  0
  -39.5896  -69.3849   53.8948 C   0  0  0  0  0  0  0  0  0  0  0  0
  -38.7412  -69.7900   52.8172 C   0  0  0  0  0  0  0  0  0  0  0  0
  -38.8908  -69.1652   51.6452 C   0  0  0  0  0  0  0  0  0  0  0  0
  -39.8341  -68.1531   51.4288 C   0  0  0  0  0  0  0  0  0  0  0  0
  -41.5627  -67.9566   55.0680 Cl  0  0  0  0  0  0  0  0  0  0  0  0
  7  8  2  0  0  0
  7  9  2  0  0  0
  7  1  1  0  0  0
  7 10  1  0  0  0
  1  2  1  0  0  0
  1  6  1  0  0  0
  2  3  1  0  0  0
  3  4  1  0  0  0
  4  5  1  0  0  0
  4 20  1  0  0  0
  5  6  1  0  0  0
 20 21  1  0  0  0
 21 22  2  0  0  0
 21 23  1  0  0  0
 23 25  1  0  0  0
 25 26  1  0  0  0
 26 27  2  0  0  0
 26 31  1  0  0  0
 27 28  1  0  0  0
 27 32  1  0  0  0
 28 29  2  0  0  0
 29 30  1  0  0  0
 30 31  2  0  0  0
 10 11  2  0  0  0
 10 15  1  0  0  0
 11 12  1  0  0  0
 12 13  2  0  0  0
 12 19  1  0  0  0
 13 14  1  0  0  0
 13 16  1  0  0  0
 14 15  2  0  0  0
 16 17  1  0  0  0
 17 18  1  0  0  0
 18 19  1  0  0  0
 23 24  1  0  0  0
M  END
> <minimizedAffinity>
-8.29642

$$$$
2286


 31 34  0  0  0  0  0  0  0  0999 V2000
  -36.3737  -65.8259   48.1685 N   0  0  0  0  0  0  0  0  0  0  0  0
  -37.4560  -65.5407   47.2982 C   0  0  0  0  0  0  0  0  0  0  0  0
  -38.8141  -65.6986   47.9291 C   0  0  0  0  0  0  0  0  0  0  0  0
  -38.8399  -65.2253   49.2970 N   0  0  0  0  0  0  0  0  0  0  0  0
  -37.6856  -64.4614   49.7311 C   0  0  0  0  0  0  0  0  0  0  0  0
  -36.3950  -65.1847   49.4348 C   0  0  0  0  0  0  0  0  0  0  0  0
  -39.9399  -65.5163   50.1131 C   0  0  0  0  0  0  0  0  0  0  0  0
  -40.8902  -66.1848   49.6415 O   0  0  0  0  0  0  0  0  0  0  0  0
  -35.9061  -67.4710   48.2210 S   0  0  0  0  0  0  0  0  0  0  0  0
  -34.4325  -67.5739   47.9729 O   0  0  0  0  0  0  0  0  0  0  0  0
  -36.6128  -68.2742   47.1693 O   0  0  0  0  0  0  0  0  0  0  0  0
  -36.3093  -68.2135   49.7782 C   0  0  0  0  0  0  0  0  0  0  0  0
  -37.8392  -68.6135   50.3995 S   0  0  0  0  0  0  0  0  0  0  0  0
  -37.3680  -69.2630   51.8987 C   0  0  0  0  0  0  0  0  0  0  0  0
  -36.0035  -69.1499   51.8779 C   0  0  0  0  0  0  0  0  0  0  0  0
  -35.4519  -68.6027   50.7709 C   0  0  0  0  0  0  0  0  0  0  0  0
  -38.3725  -69.9338   53.2018 Cl  0  0  0  0  0  0  0  0  0  0  0  0
  -40.0272  -65.0601   51.5244 C   0  0  0  0  0  0  0  0  0  0  0  0
  -41.2123  -65.5430   52.1773 N   0  0  0  0  0  0  0  0  0  0  0  0
  -41.3103  -66.7932   52.8424 C   0  0  0  0  0  0  0  0  0  0  0  0
  -40.3598  -67.6402   52.9409 O   0  0  0  0  0  0  0  0  0  0  0  0
  -42.6064  -66.9949   53.3910 N   0  0  0  0  0  0  0  0  0  0  0  0
  -43.4492  -65.9330   52.8738 C   0  0  0  0  0  0  0  0  0  0  0  0
  -44.2392  -65.2547   53.9554 C   0  0  0  0  0  0  0  0  0  0  0  0
  -45.5246  -65.9503   54.2936 C   0  0  0  0  0  0  0  0  0  0  0  0
  -46.3696  -66.2736   53.0967 C   0  0  0  0  0  0  0  0  0  0  0  0
  -45.6911  -65.9101   51.7940 C   0  0  0  0  0  0  0  0  0  0  0  0
  -44.3165  -66.5413   51.7974 C   0  0  0  0  0  0  0  0  0  0  0  0
  -42.4932  -64.9432   52.3174 C   0  0  0  0  0  0  0  0  0  0  0  0
  -42.7387  -63.7538   52.0056 O   0  0  0  0  0  0  0  0  0  0  0  0
  -42.9889  -68.0736   54.3016 C   0  0  0  0  0  0  0  0  0  0  0  0
  9 10  2  0  0  0
  9 11  2  0  0  0
  9  1  1  0  0  0
  9 12  1  0  0  0
  1  2  1  0  0  0
  1  6  1  0  0  0
  2  3  1  0  0  0
  3  4  1  0  0  0
  4  5  1  0  0  0
  4  7  1  0  0  0
  5  6  1  0  0  0
  7  8  2  0  0  0
  7 18  1  0  0  0
 18 19  1  0  0  0
 19 20  1  0  0  0
 19 29  1  0  0  0
 20 21  2  0  0  0
 20 22  1  0  0  0
 22 23  1  0  0  0
 22 31  1  0  0  0
 23 24  1  0  0  0
 23 28  1  0  0  0
 23 29  1  0  0  0
 24 25  1  0  0  0
 25 26  1  0  0  0
 26 27  1  0  0  0
 27 28  1  0  0  0
 29 30  2  0  0  0
 12 13  1  0  0  0
 12 16  2  0  0  0
 13 14  1  0  0  0
 14 15  2  0  0  0
 14 17  1  0  0  0
 15 16  1  0  0  0
M  END
> <minimizedAffinity>
-7.85956

$$$$
2298


 34 37  0  0  0  0  0  0  0  0999 V2000
  -40.8192  -65.4076   49.0631 C   0  0  0  0  0  0  0  0  0  0  0  0
  -42.3183  -65.0359   52.2160 N   0  0  0  0  0  0  0  0  0  0  0  0
  -43.0700  -64.1576   51.4638 C   0  0  0  0  0  0  0  0  0  0  0  0
  -42.6645  -64.2134   50.0157 C   0  0  0  0  0  0  0  0  0  0  0  0
  -41.2678  -64.2412   49.7664 N   0  0  0  0  0  0  0  0  0  0  0  0
  -40.5174  -64.0029   50.9573 C   0  0  0  0  0  0  0  0  0  0  0  0
  -40.9305  -64.9870   52.0476 C   0  0  0  0  0  0  0  0  0  0  0  0
  -42.9764  -66.1259   53.2843 S   0  0  0  0  0  0  0  0  0  0  0  0
  -43.3322  -65.5263   54.6225 O   0  0  0  0  0  0  0  0  0  0  0  0
  -44.2425  -66.7898   52.7909 O   0  0  0  0  0  0  0  0  0  0  0  0
  -41.8135  -67.4031   53.6278 C   0  0  0  0  0  0  0  0  0  0  0  0
  -41.1814  -68.0776   52.6202 C   0  0  0  0  0  0  0  0  0  0  0  0
  -40.2758  -69.0718   52.8822 C   0  0  0  0  0  0  0  0  0  0  0  0
  -40.0018  -69.3953   54.1930 C   0  0  0  0  0  0  0  0  0  0  0  0
  -40.6393  -68.7160   55.2139 C   0  0  0  0  0  0  0  0  0  0  0  0
  -41.5436  -67.7218   54.9398 C   0  0  0  0  0  0  0  0  0  0  0  0
  -38.8379  -70.6730   54.4955 Cl  0  0  0  0  0  0  0  0  0  0  0  0
  -39.6665  -65.0836   48.1565 C   0  0  0  0  0  0  0  0  0  0  0  0
  -39.9305  -64.4544   47.1089 O   0  0  0  0  0  0  0  0  0  0  0  0
  -38.3424  -65.4743   48.4784 N   0  0  0  0  0  0  0  0  0  0  0  0
  -38.1884  -66.0010   49.3795 H   0  0  0  0  0  0  0  0  0  0  0  0
  -37.3036  -65.1232   47.5542 C   0  0  0  0  0  0  0  0  0  0  0  0
  -35.9319  -65.0252   48.1016 C   0  0  0  0  0  0  0  0  0  0  0  0
  -35.2177  -66.3403   47.9074 C   0  0  0  0  0  0  0  0  0  0  0  0
  -35.3854  -67.2729   49.1112 C   0  0  0  0  0  0  0  0  0  0  0  0
  -34.6560  -66.7095   50.3145 C   0  0  0  0  0  0  0  0  0  0  0  0
  -34.7151  -65.1965   50.2112 C   0  0  0  0  0  0  0  0  0  0  0  0
  -36.0742  -64.8702   49.6286 C   0  0  0  0  0  0  0  0  0  0  0  0
  -35.1184  -63.9544   47.6703 N   0  0  0  0  0  0  0  0  0  0  0  0
  -34.4337  -64.0816   46.4330 C   0  0  0  0  0  0  0  0  0  0  0  0
  -33.3276  -63.0106   46.4502 C   0  0  0  0  0  0  0  0  0  0  0  0
  -33.8862  -61.7565   46.5063 O   0  0  0  0  0  0  0  0  0  0  0  0
  -35.2564  -61.7476   46.5777 C   0  0  0  0  0  0  0  0  0  0  0  0
  -35.7805  -62.6678   47.6807 C   0  0  0  0  0  0  0  0  0  0  0  0
  8  9  2  0  0  0
  8 10  2  0  0  0
  8  2  1  0  0  0
  8 11  1  0  0  0
  2  3  1  0  0  0
  2  7  1  0  0  0
  3  4  1  0  0  0
  4  5  1  0  0  0
  5  6  1  0  0  0
  5  1  1  0  0  0
  6  7  1  0  0  0
  1 18  1  0  0  0
 18 19  2  0  0  0
 18 20  1  0  0  0
 20 22  1  0  0  0
 22 23  1  0  0  0
 23 24  1  0  0  0
 23 28  1  0  0  0
 23 29  1  0  0  0
 24 25  1  0  0  0
 25 26  1  0  0  0
 26 27  1  0  0  0
 27 28  1  0  0  0
 29 30  1  0  0  0
 29 34  1  0  0  0
 30 31  1  0  0  0
 31 32  1  0  0  0
 32 33  1  0  0  0
 33 34  1  0  0  0
 11 12  2  0  0  0
 11 16  1  0  0  0
 12 13  1  0  0  0
 13 14  2  0  0  0
 14 15  1  0  0  0
 14 17  1  0  0  0
 15 16  2  0  0  0
 20 21  1  0  0  0
M  END
> <minimizedAffinity>
-8.09879

$$$$
2301


 24 27  0  0  0  0  0  0  0  0999 V2000
  -42.7298  -65.7616   52.9552 C   0  0  0  0  0  0  0  0  0  0  0  0
  -41.9887  -65.6884   51.6613 C   0  0  0  0  0  0  0  0  0  0  0  0
  -41.8161  -67.0936   51.0586 C   0  0  0  0  0  0  0  0  0  0  0  0
  -40.9494  -67.7618   52.0403 N   0  0  0  0  0  0  0  0  0  0  0  0
  -41.5537  -67.9729   53.3176 C   0  0  0  0  0  0  0  0  0  0  0  0
  -42.1503  -66.7319   53.9150 C   0  0  0  0  0  0  0  0  0  0  0  0
  -42.6111  -64.4731   53.5364 O   0  0  0  0  0  0  0  0  0  0  0  0
  -41.7290  -64.4574   54.0213 H   0  0  0  0  0  0  0  0  0  0  0  0
  -39.6367  -68.1257   51.6548 C   0  0  0  0  0  0  0  0  0  0  0  0
  -39.0727  -67.5380   50.5857 N   0  0  0  0  0  0  0  0  0  0  0  0
  -37.8576  -67.7820   50.1354 N   0  0  0  0  0  0  0  0  0  0  0  0
  -37.1144  -67.3253   49.1240 N   0  0  0  0  0  0  0  0  0  0  0  0
  -35.9373  -67.9096   49.1142 N   0  0  0  0  0  0  0  0  0  0  0  0
  -35.9071  -68.7442   50.1167 N   0  0  0  0  0  0  0  0  0  0  0  0
  -37.0970  -68.6770   50.7629 C   0  0  0  0  0  0  0  0  0  0  0  0
  -37.6102  -69.3243   51.8739 C   0  0  0  0  0  0  0  0  0  0  0  0
  -38.8835  -69.0567   52.3303 C   0  0  0  0  0  0  0  0  0  0  0  0
  -48.6341  -66.7009   52.1572 Cl  0  0  0  0  0  0  0  0  0  0  0  0
  -46.9214  -66.4086   52.3789 C   0  0  0  0  0  0  0  0  0  0  0  0
  -46.2295  -65.4667   51.6293 C   0  0  0  0  0  0  0  0  0  0  0  0
  -44.8923  -65.2174   51.7684 C   0  0  0  0  0  0  0  0  0  0  0  0
  -44.1694  -65.9181   52.6903 C   0  0  0  0  0  0  0  0  0  0  0  0
  -44.8363  -66.8697   53.4605 C   0  0  0  0  0  0  0  0  0  0  0  0
  -46.1880  -67.1080   53.3044 C   0  0  0  0  0  0  0  0  0  0  0  0
 18 19  1  0  0  0
 19 20  2  0  0  0
 19 24  1  0  0  0
 20 21  1  0  0  0
 21 22  2  0  0  0
 22 23  1  0  0  0
 22  1  1  0  0  0
 23 24  2  0  0  0
  1  2  1  0  0  0
  1  6  1  0  0  0
  1  7  1  0  0  0
  2  3  1  0  0  0
  3  4  1  0  0  0
  4  5  1  0  0  0
  4  9  1  0  0  0
  5  6  1  0  0  0
  9 10  2  0  0  0
  9 17  1  0  0  0
 10 11  1  0  0  0
 11 12  1  0  0  0
 11 15  1  0  0  0
 12 13  2  0  0  0
 13 14  1  0  0  0
 14 15  2  0  0  0
 15 16  1  0  0  0
 16 17  2  0  0  0
  7  8  1  0  0  0
M  END
> <minimizedAffinity>
-8.06868

$$$$
2304


 28 31  0  0  0  0  0  0  0  0999 V2000
  -44.5695  -66.1541   52.5748 N   0  0  0  0  0  0  0  0  0  0  0  0
  -45.0738  -65.0702   51.8205 C   0  0  0  0  0  0  0  0  0  0  0  0
  -46.4667  -65.2642   51.2818 C   0  0  0  0  0  0  0  0  0  0  0  0
  -47.3621  -65.8600   52.2334 N   0  0  0  0  0  0  0  0  0  0  0  0
  -46.7723  -66.4237   53.4218 C   0  0  0  0  0  0  0  0  0  0  0  0
  -45.5023  -67.1461   52.9809 C   0  0  0  0  0  0  0  0  0  0  0  0
  -48.7442  -65.8810   51.9841 C   0  0  0  0  0  0  0  0  0  0  0  0
  -49.1441  -65.3676   50.9010 O   0  0  0  0  0  0  0  0  0  0  0  0
  -49.7541  -66.4648   52.9093 C   0  0  0  0  0  0  0  0  0  0  0  0
  -50.0080  -67.8284   52.6202 N   0  0  0  0  0  0  0  0  0  0  0  0
  -51.0533  -68.0983   51.6874 C   0  0  0  0  0  0  0  0  0  0  0  0
  -52.1967  -66.7294   51.9628 S   0  0  0  0  0  0  0  0  0  0  0  0
  -51.0342  -65.6838   52.9262 C   0  0  0  0  0  0  0  0  0  0  0  0
  -51.7006  -69.3435   52.2622 C   0  0  0  0  0  0  0  0  0  0  0  0
  -50.4340  -70.1623   52.5445 C   0  0  0  0  0  0  0  0  0  0  0  0
  -49.5033  -69.1309   52.9956 C   0  0  0  0  0  0  0  0  0  0  0  0
  -48.4276  -69.3808   53.6183 O   0  0  0  0  0  0  0  0  0  0  0  0
  -50.6470  -68.2713   50.2784 C   0  0  0  0  0  0  0  0  0  0  0  0
  -43.3641  -65.7696   53.7053 S   0  0  0  0  0  0  0  0  0  0  0  0
  -42.7973  -64.4096   53.4438 O   0  0  0  0  0  0  0  0  0  0  0  0
  -43.9953  -65.7193   55.0747 O   0  0  0  0  0  0  0  0  0  0  0  0
  -42.0858  -66.9785   53.7865 C   0  0  0  0  0  0  0  0  0  0  0  0
  -41.9851  -67.8177   54.8738 C   0  0  0  0  0  0  0  0  0  0  0  0
  -40.9987  -68.7710   54.9693 C   0  0  0  0  0  0  0  0  0  0  0  0
  -40.0559  -68.9318   53.9699 C   0  0  0  0  0  0  0  0  0  0  0  0
  -40.1833  -68.0738   52.8903 C   0  0  0  0  0  0  0  0  0  0  0  0
  -41.1628  -67.1183   52.7813 C   0  0  0  0  0  0  0  0  0  0  0  0
  -38.7864  -70.1348   54.0589 Cl  0  0  0  0  0  0  0  0  0  0  0  0
 19 20  2  0  0  0
 19 21  2  0  0  0
 19  1  1  0  0  0
 19 22  1  0  0  0
  1  2  1  0  0  0
  1  6  1  0  0  0
  2  3  1  0  0  0
  3  4  1  0  0  0
  4  5  1  0  0  0
  4  7  1  0  0  0
  5  6  1  0  0  0
  7  8  2  0  0  0
  7  9  1  0  0  0
  9 10  1  0  0  0
  9 13  1  0  0  0
 10 11  1  0  0  0
 10 16  1  0  0  0
 11 12  1  0  0  0
 11 14  1  0  0  0
 11 18  1  0  0  0
 12 13  1  0  0  0
 14 15  1  0  0  0
 15 16  1  0  0  0
 16 17  2  0  0  0
 22 23  2  0  0  0
 22 27  1  0  0  0
 23 24  1  0  0  0
 24 25  2  0  0  0
 25 26  1  0  0  0
 25 28  1  0  0  0
 26 27  2  0  0  0
M  END
> <minimizedAffinity>
-8.17243

$$$$
2319


 33 36  0  0  0  0  0  0  0  0999 V2000
  -40.5702  -64.9993   48.6866 N   0  0  0  0  0  0  0  0  0  0  0  0
  -39.9509  -63.7299   48.6644 C   0  0  0  0  0  0  0  0  0  0  0  0
  -40.2491  -62.8649   49.5140 O   0  0  0  0  0  0  0  0  0  0  0  0
  -40.3709  -65.7671   48.0107 H   0  0  0  0  0  0  0  0  0  0  0  0
  -41.1443  -68.8232   55.0584 Br  0  0  0  0  0  0  0  0  0  0  0  0
  -42.0761  -67.6739   53.8441 C   0  0  0  0  0  0  0  0  0  0  0  0
  -41.4751  -67.1858   52.7019 C   0  0  0  0  0  0  0  0  0  0  0  0
  -42.1398  -66.3559   51.8153 C   0  0  0  0  0  0  0  0  0  0  0  0
  -43.4424  -66.0367   52.1313 C   0  0  0  0  0  0  0  0  0  0  0  0
  -44.0753  -66.5029   53.2616 C   0  0  0  0  0  0  0  0  0  0  0  0
  -43.3964  -67.3331   54.1384 C   0  0  0  0  0  0  0  0  0  0  0  0
  -45.8860  -66.0222   53.6410 Br  0  0  0  0  0  0  0  0  0  0  0  0
  -41.2824  -65.9899   50.6978 C   0  0  0  0  0  0  0  0  0  0  0  0
  -41.5205  -65.2491   49.6813 N   0  0  0  0  0  0  0  0  0  0  0  0
  -40.0019  -66.6617   50.9451 C   0  0  0  0  0  0  0  0  0  0  0  0
  -39.0044  -66.5757   50.1798 O   0  0  0  0  0  0  0  0  0  0  0  0
  -40.1712  -67.3653   52.1596 N   0  0  0  0  0  0  0  0  0  0  0  0
  -39.4370  -67.9422   52.6039 H   0  0  0  0  0  0  0  0  0  0  0  0
  -38.9231  -63.3583   47.6411 C   0  0  0  0  0  0  0  0  0  0  0  0
  -37.9772  -64.4173   47.4201 N   0  0  0  0  0  0  0  0  0  0  0  0
  -36.7869  -64.5611   48.1835 C   0  0  0  0  0  0  0  0  0  0  0  0
  -36.5569  -63.7274   49.0866 O   0  0  0  0  0  0  0  0  0  0  0  0
  -38.1316  -65.1374   46.6758 H   0  0  0  0  0  0  0  0  0  0  0  0
  -35.7932  -65.6544   47.9636 C   0  0  0  0  0  0  0  0  0  0  0  0
  -36.2793  -66.8940   48.3857 O   0  0  0  0  0  0  0  0  0  0  0  0
  -35.8149  -67.5955   49.4961 C   0  0  0  0  0  0  0  0  0  0  0  0
  -34.5844  -67.2423   49.9838 C   0  0  0  0  0  0  0  0  0  0  0  0
  -34.0936  -67.9287   51.0946 C   0  0  0  0  0  0  0  0  0  0  0  0
  -34.7972  -68.9393   51.7092 C   0  0  0  0  0  0  0  0  0  0  0  0
  -36.0341  -69.2677   51.1891 C   0  0  0  0  0  0  0  0  0  0  0  0
  -36.5233  -68.5943   50.0944 C   0  0  0  0  0  0  0  0  0  0  0  0
  -33.8771  -66.2397   49.3800 O   0  0  0  0  0  0  0  0  0  0  0  0
  -34.4438  -65.3156   48.4927 C   0  0  0  0  0  0  0  0  0  0  0  0
  5  6  1  0  0  0
  6  7  2  0  0  0
  6 11  1  0  0  0
  7  8  1  0  0  0
  7 17  1  0  0  0
  8  9  2  0  0  0
  8 13  1  0  0  0
  9 10  1  0  0  0
 10 11  2  0  0  0
 10 12  1  0  0  0
 13 14  2  0  0  0
 13 15  1  0  0  0
 14  1  1  0  0  0
  1  2  1  0  0  0
  2  3  2  0  0  0
  2 19  1  0  0  0
 19 20  1  0  0  0
 20 21  1  0  0  0
 21 22  2  0  0  0
 21 24  1  0  0  0
 24 25  1  0  0  0
 24 33  1  0  0  0
 25 26  1  0  0  0
 26 27  2  0  0  0
 26 31  1  0  0  0
 27 28  1  0  0  0
 27 32  1  0  0  0
 28 29  2  0  0  0
 29 30  1  0  0  0
 30 31  2  0  0  0
 32 33  1  0  0  0
 15 16  2  0  0  0
 15 17  1  0  0  0
  1  4  1  0  0  0
 20 23  1  0  0  0
 17 18  1  0  0  0
M  END
> <minimizedAffinity>
-8.94628

$$$$
2330


 28 31  0  0  0  0  0  0  0  0999 V2000
  -39.5965  -69.2848   52.5246 C   0  0  0  0  0  0  0  0  0  0  0  0
  -39.6703  -70.5245   52.6861 O   0  0  0  0  0  0  0  0  0  0  0  0
  -40.4940  -68.4525   53.1958 N   0  0  0  0  0  0  0  0  0  0  0  0
  -40.3358  -67.4008   52.9953 H   0  0  0  0  0  0  0  0  0  0  0  0
  -40.5236  -67.5877   50.2461 Cl  0  0  0  0  0  0  0  0  0  0  0  0
  -38.8370  -67.9925   50.5289 C   0  0  0  0  0  0  0  0  0  0  0  0
  -38.5453  -68.7853   51.6193 C   0  0  0  0  0  0  0  0  0  0  0  0
  -37.2167  -69.0915   51.8234 C   0  0  0  0  0  0  0  0  0  0  0  0
  -36.1926  -68.6607   51.0210 C   0  0  0  0  0  0  0  0  0  0  0  0
  -36.5403  -67.8595   49.9278 C   0  0  0  0  0  0  0  0  0  0  0  0
  -37.8436  -67.5214   49.6737 C   0  0  0  0  0  0  0  0  0  0  0  0
  -34.7955  -68.9968   51.2547 C   0  0  0  0  0  0  0  0  0  0  0  0
  -34.2697  -69.9943   51.9716 N   0  0  0  0  0  0  0  0  0  0  0  0
  -32.9305  -69.9195   51.9067 N   0  0  0  0  0  0  0  0  0  0  0  0
  -32.6116  -68.8813   51.1542 N   0  0  0  0  0  0  0  0  0  0  0  0
  -33.7527  -68.3165   50.7535 N   0  0  0  0  0  0  0  0  0  0  0  0
  -32.2418  -70.5598   52.3646 H   0  0  0  0  0  0  0  0  0  0  0  0
  -41.5522  -68.7461   54.0733 C   0  0  0  0  0  0  0  0  0  0  0  0
  -42.4918  -67.7035   54.5053 C   0  0  0  0  0  0  0  0  0  0  0  0
  -43.1057  -66.8273   53.5112 C   0  0  0  0  0  0  0  0  0  0  0  0
  -44.4028  -66.7208   53.2037 N   0  0  0  0  0  0  0  0  0  0  0  0
  -44.5359  -65.7812   52.2812 C   0  0  0  0  0  0  0  0  0  0  0  0
  -43.3155  -65.2995   52.0113 N   0  0  0  0  0  0  0  0  0  0  0  0
  -42.4534  -65.9349   52.7576 N   0  0  0  0  0  0  0  0  0  0  0  0
  -45.7595  -65.4306   51.7516 C   0  0  0  0  0  0  0  0  0  0  0  0
  -46.8715  -66.1044   52.2225 C   0  0  0  0  0  0  0  0  0  0  0  0
  -46.7239  -67.0745   53.1761 C   0  0  0  0  0  0  0  0  0  0  0  0
  -45.4865  -67.3769   53.6630 C   0  0  0  0  0  0  0  0  0  0  0  0
  5  6  1  0  0  0
  6  7  2  0  0  0
  6 11  1  0  0  0
  7  8  1  0  0  0
  7  1  1  0  0  0
  8  9  2  0  0  0
  9 10  1  0  0  0
  9 12  1  0  0  0
 10 11  2  0  0  0
 12 13  2  0  0  0
 12 16  1  0  0  0
 13 14  1  0  0  0
 14 15  1  0  0  0
 15 16  2  0  0  0
  1  2  2  0  0  0
  1  3  1  0  0  0
  3 18  1  0  0  0
 18 19  1  0  0  0
 19 20  1  0  0  0
 20 21  1  0  0  0
 20 24  2  0  0  0
 21 22  1  0  0  0
 21 28  1  0  0  0
 22 23  2  0  0  0
 22 25  1  0  0  0
 23 24  1  0  0  0
 25 26  2  0  0  0
 26 27  1  0  0  0
 27 28  2  0  0  0
 14 17  1  0  0  0
  3  4  1  0  0  0
M  END
> <minimizedAffinity>
-8.94072

$$$$
2334


 30 33  0  0  0  0  0  0  0  0999 V2000
  -38.8579  -65.9395   48.7484 S   0  0  0  0  0  0  0  0  0  0  0  0
  -39.9981  -64.9313   48.9097 O   0  0  0  0  0  0  0  0  0  0  0  0
  -39.1891  -66.6675   47.4403 O   0  0  0  0  0  0  0  0  0  0  0  0
  -38.9100  -67.0869   50.0192 C   0  0  0  0  0  0  0  0  0  0  0  0
  -37.9506  -68.0556   50.1849 C   0  0  0  0  0  0  0  0  0  0  0  0
  -38.0136  -68.9144   51.2721 C   0  0  0  0  0  0  0  0  0  0  0  0
  -39.0414  -68.8214   52.2144 C   0  0  0  0  0  0  0  0  0  0  0  0
  -40.0114  -67.8568   52.0589 C   0  0  0  0  0  0  0  0  0  0  0  0
  -39.9312  -67.0147   50.9749 C   0  0  0  0  0  0  0  0  0  0  0  0
  -36.6583  -68.3381   49.0382 Cl  0  0  0  0  0  0  0  0  0  0  0  0
  -41.0950  -67.7390   53.0253 C   0  0  0  0  0  0  0  0  0  0  0  0
  -41.4469  -68.6605   53.9378 N   0  0  0  0  0  0  0  0  0  0  0  0
  -42.4586  -68.2279   54.6385 O   0  0  0  0  0  0  0  0  0  0  0  0
  -42.7910  -67.0374   54.2152 C   0  0  0  0  0  0  0  0  0  0  0  0
  -41.9510  -66.7212   53.2113 N   0  0  0  0  0  0  0  0  0  0  0  0
  -43.9027  -66.1707   54.7402 C   0  0  0  0  0  0  0  0  0  0  0  0
  -37.4367  -65.0348   48.5672 N   0  0  0  0  0  0  0  0  0  0  0  0
  -36.6985  -65.2380   47.3718 C   0  0  0  0  0  0  0  0  0  0  0  0
  -35.4657  -64.3697   47.2761 C   0  0  0  0  0  0  0  0  0  0  0  0
  -35.8281  -62.9325   47.4277 C   0  0  0  0  0  0  0  0  0  0  0  0
  -36.6994  -62.6979   48.6497 C   0  0  0  0  0  0  0  0  0  0  0  0
  -37.8659  -63.6212   48.5942 C   0  0  0  0  0  0  0  0  0  0  0  0
  -34.3403  -64.8226   48.1182 C   0  0  0  0  0  0  0  0  0  0  0  0
  -34.3617  -64.3956   49.3315 O   0  0  0  0  0  0  0  0  0  0  0  0
  -33.2850  -65.6455   47.7501 N   0  0  0  0  0  0  0  0  0  0  0  0
  -32.2753  -66.0390   48.6822 C   0  0  0  0  0  0  0  0  0  0  0  0
  -31.7778  -67.4429   48.4785 C   0  0  0  0  0  0  0  0  0  0  0  0
  -31.9309  -67.9432   47.2234 O   0  0  0  0  0  0  0  0  0  0  0  0
  -33.1209  -67.6649   46.5838 C   0  0  0  0  0  0  0  0  0  0  0  0
  -33.1371  -66.1379   46.4023 C   0  0  0  0  0  0  0  0  0  0  0  0
  1  2  2  0  0  0
  1  3  2  0  0  0
  1 17  1  0  0  0
  1  4  1  0  0  0
 17 18  1  0  0  0
 17 22  1  0  0  0
 18 19  1  0  0  0
 19 20  1  0  0  0
 19 23  1  0  0  0
 20 21  1  0  0  0
 21 22  1  0  0  0
 23 24  2  0  0  0
 23 25  1  0  0  0
 25 26  1  0  0  0
 25 30  1  0  0  0
 26 27  1  0  0  0
 27 28  1  0  0  0
 28 29  1  0  0  0
 29 30  1  0  0  0
  4  5  2  0  0  0
  4  9  1  0  0  0
  5  6  1  0  0  0
  5 10  1  0  0  0
  6  7  2  0  0  0
  7  8  1  0  0  0
  8  9  2  0  0  0
  8 11  1  0  0  0
 11 12  2  0  0  0
 11 15  1  0  0  0
 12 13  1  0  0  0
 13 14  1  0  0  0
 14 15  2  0  0  0
 14 16  1  0  0  0
M  END
> <minimizedAffinity>
-8.53490

$$$$
2335


 35 38  0  0  0  0  0  0  0  0999 V2000
  -40.5027  -65.4125   49.5147 N   0  0  0  0  0  0  0  0  0  0  0  0
  -41.2463  -64.7622   50.5194 C   0  0  0  0  0  0  0  0  0  0  0  0
  -41.0852  -65.3820   51.8905 C   0  0  0  0  0  0  0  0  0  0  0  0
  -40.7582  -66.8260   51.8695 C   0  0  0  0  0  0  0  0  0  0  0  0
  -40.9974  -67.5548   50.5980 C   0  0  0  0  0  0  0  0  0  0  0  0
  -40.6982  -66.7834   49.3378 C   0  0  0  0  0  0  0  0  0  0  0  0
  -42.2900  -65.1426   52.7256 C   0  0  0  0  0  0  0  0  0  0  0  0
  -42.7438  -63.9735   52.7832 O   0  0  0  0  0  0  0  0  0  0  0  0
  -42.9115  -66.2323   53.4433 N   0  0  0  0  0  0  0  0  0  0  0  0
  -42.4568  -67.1424   53.3353 H   0  0  0  0  0  0  0  0  0  0  0  0
  -44.0593  -65.9313   54.2187 C   0  0  0  0  0  0  0  0  0  0  0  0
  -45.3428  -66.5938   53.8896 C   0  0  0  0  0  0  0  0  0  0  0  0
  -46.4837  -65.7989   53.6244 N   0  0  0  0  0  0  0  0  0  0  0  0
  -47.6448  -66.4304   53.1950 C   0  0  0  0  0  0  0  0  0  0  0  0
  -48.1019  -66.1219   51.7985 C   0  0  0  0  0  0  0  0  0  0  0  0
  -47.9324  -64.7864   51.4646 O   0  0  0  0  0  0  0  0  0  0  0  0
  -46.5598  -64.5418   51.4998 C   0  0  0  0  0  0  0  0  0  0  0  0
  -46.1481  -64.5644   52.9538 C   0  0  0  0  0  0  0  0  0  0  0  0
  -39.3809  -64.5640   48.6295 S   0  0  0  0  0  0  0  0  0  0  0  0
  -39.5854  -63.0716   48.8840 O   0  0  0  0  0  0  0  0  0  0  0  0
  -39.7144  -64.7205   47.1509 O   0  0  0  0  0  0  0  0  0  0  0  0
  -37.7245  -64.9878   48.8579 C   0  0  0  0  0  0  0  0  0  0  0  0
  -37.3873  -66.1141   49.5929 C   0  0  0  0  0  0  0  0  0  0  0  0
  -36.0848  -66.5027   49.7926 C   0  0  0  0  0  0  0  0  0  0  0  0
  -35.0576  -65.7326   49.2345 C   0  0  0  0  0  0  0  0  0  0  0  0
  -35.3975  -64.6326   48.5176 C   0  0  0  0  0  0  0  0  0  0  0  0
  -36.7113  -64.2428   48.3167 C   0  0  0  0  0  0  0  0  0  0  0  0
  -37.0726  -62.6545   47.2815 Br  0  0  0  0  0  0  0  0  0  0  0  0
  -33.7313  -66.3200   49.5668 C   0  0  0  0  0  0  0  0  0  0  0  0
  -34.0653  -67.1552   50.7859 C   0  0  0  0  0  0  0  0  0  0  0  0
  -35.4348  -67.5727   50.4639 N   0  0  0  0  0  0  0  0  0  0  0  0
  -35.9486  -68.8265   50.7887 C   0  0  0  0  0  0  0  0  0  0  0  0
  -35.1968  -69.6915   51.3572 O   0  0  0  0  0  0  0  0  0  0  0  0
  -37.3235  -69.2424   50.5197 C   0  0  0  0  0  0  0  0  0  0  0  0
  -38.1047  -69.5024   51.8054 C   0  0  0  0  0  0  0  0  0  0  0  0
 19 20  2  0  0  0
 19 21  2  0  0  0
 19  1  1  0  0  0
 19 22  1  0  0  0
  1  2  1  0  0  0
  1  6  1  0  0  0
  2  3  1  0  0  0
  3  4  1  0  0  0
  3  7  1  0  0  0
  4  5  1  0  0  0
  5  6  1  0  0  0
  7  8  2  0  0  0
  7  9  1  0  0  0
  9 11  1  0  0  0
 11 12  1  0  0  0
 12 13  1  0  0  0
 13 14  1  0  0  0
 13 18  1  0  0  0
 14 15  1  0  0  0
 15 16  1  0  0  0
 16 17  1  0  0  0
 17 18  1  0  0  0
 22 23  2  0  0  0
 22 27  1  0  0  0
 23 24  1  0  0  0
 24 25  2  0  0  0
 24 31  1  0  0  0
 25 26  1  0  0  0
 25 29  1  0  0  0
 26 27  2  0  0  0
 27 28  1  0  0  0
 29 30  1  0  0  0
 30 31  1  0  0  0
 31 32  1  0  0  0
 32 33  2  0  0  0
 32 34  1  0  0  0
 34 35  1  0  0  0
  9 10  1  0  0  0
M  END
> <minimizedAffinity>
-8.53730

$$$$
2345


 27 30  0  0  0  0  0  0  0  0999 V2000
  -35.1046  -67.5031   50.2395 C   0  0  0  0  0  0  0  0  0  0  0  0
  -34.4542  -67.2738   51.3267 O   0  0  0  0  0  0  0  0  0  0  0  0
  -34.8438  -66.6395   49.1705 N   0  0  0  0  0  0  0  0  0  0  0  0
  -33.8943  -65.5491   49.3242 C   0  0  0  0  0  0  0  0  0  0  0  0
  -34.5587  -64.2124   49.0097 C   0  0  0  0  0  0  0  0  0  0  0  0
  -35.5176  -64.4036   47.9619 N   0  0  0  0  0  0  0  0  0  0  0  0
  -35.3273  -65.4852   47.0441 C   0  0  0  0  0  0  0  0  0  0  0  0
  -35.4791  -66.7709   47.8808 C   0  0  0  0  0  0  0  0  0  0  0  0
  -38.2898  -68.4596   50.9735 N   0  0  0  0  0  0  0  0  0  0  0  0
  -37.4345  -68.3163   49.8017 C   0  0  0  0  0  0  0  0  0  0  0  0
  -36.0371  -68.6366   50.2538 C   0  0  0  0  0  0  0  0  0  0  0  0
  -36.1512  -69.3660   51.5507 C   0  0  0  0  0  0  0  0  0  0  0  0
  -37.6057  -69.3993   51.8306 C   0  0  0  0  0  0  0  0  0  0  0  0
  -38.2545  -70.1040   52.6708 O   0  0  0  0  0  0  0  0  0  0  0  0
  -43.5487  -65.7881   52.0596 Cl  0  0  0  0  0  0  0  0  0  0  0  0
  -42.0007  -66.5721   51.7461 C   0  0  0  0  0  0  0  0  0  0  0  0
  -41.1668  -66.9148   52.7770 C   0  0  0  0  0  0  0  0  0  0  0  0
  -39.9558  -67.5293   52.5172 C   0  0  0  0  0  0  0  0  0  0  0  0
  -39.5359  -67.8229   51.2377 C   0  0  0  0  0  0  0  0  0  0  0  0
  -40.3859  -67.4730   50.2100 C   0  0  0  0  0  0  0  0  0  0  0  0
  -41.6158  -66.8488   50.4635 C   0  0  0  0  0  0  0  0  0  0  0  0
  -36.6347  -63.5505   47.8367 C   0  0  0  0  0  0  0  0  0  0  0  0
  -37.8078  -63.6390   48.5227 N   0  0  0  0  0  0  0  0  0  0  0  0
  -38.6173  -62.6462   48.1308 C   0  0  0  0  0  0  0  0  0  0  0  0
  -37.9595  -61.9063   47.1769 C   0  0  0  0  0  0  0  0  0  0  0  0
  -36.7783  -62.4803   47.0303 N   0  0  0  0  0  0  0  0  0  0  0  0
  -38.1310  -64.6611   49.5270 C   0  0  0  0  0  0  0  0  0  0  0  0
 15 16  1  0  0  0
 16 17  2  0  0  0
 16 21  1  0  0  0
 17 18  1  0  0  0
 18 19  2  0  0  0
 19 20  1  0  0  0
 19  9  1  0  0  0
 20 21  2  0  0  0
  9 10  1  0  0  0
  9 13  1  0  0  0
 10 11  1  0  0  0
 11 12  1  0  0  0
 11  1  1  0  0  0
 12 13  1  0  0  0
 13 14  2  0  0  0
  1  2  2  0  0  0
  1  3  1  0  0  0
  3  4  1  0  0  0
  3  8  1  0  0  0
  4  5  1  0  0  0
  5  6  1  0  0  0
  6  7  1  0  0  0
  6 22  1  0  0  0
  7  8  1  0  0  0
 22 23  1  0  0  0
 22 26  2  0  0  0
 23 24  1  0  0  0
 23 27  1  0  0  0
 24 25  2  0  0  0
 25 26  1  0  0  0
M  END
> <minimizedAffinity>
-7.69689

$$$$
2349


 28 31  0  0  0  0  0  0  0  0999 V2000
  -43.7412  -65.6354   52.2584 N   0  0  0  0  0  0  0  0  0  0  0  0
  -43.2508  -64.3882   51.7450 C   0  0  0  0  0  0  0  0  0  0  0  0
  -42.0113  -64.1515   51.8037 O   0  0  0  0  0  0  0  0  0  0  0  0
  -44.2110  -63.5000   51.2002 N   0  0  0  0  0  0  0  0  0  0  0  0
  -45.4502  -63.7150   51.1410 C   0  0  0  0  0  0  0  0  0  0  0  0
  -46.1516  -64.9474   51.6413 C   0  0  0  0  0  0  0  0  0  0  0  0
  -47.0051  -64.4605   52.7781 C   0  0  0  0  0  0  0  0  0  0  0  0
  -48.1418  -65.2277   53.1129 N   0  0  0  0  0  0  0  0  0  0  0  0
  -48.8801  -65.7570   52.0282 C   0  0  0  0  0  0  0  0  0  0  0  0
  -48.2989  -65.8872   50.8079 C   0  0  0  0  0  0  0  0  0  0  0  0
  -49.0567  -66.4138   49.7653 C   0  0  0  0  0  0  0  0  0  0  0  0
  -50.3668  -66.7877   49.9863 C   0  0  0  0  0  0  0  0  0  0  0  0
  -50.9594  -66.6533   51.2327 C   0  0  0  0  0  0  0  0  0  0  0  0
  -50.1895  -66.1251   52.2675 C   0  0  0  0  0  0  0  0  0  0  0  0
  -51.2108  -67.3471   48.8831 C   0  0  0  0  0  0  0  0  0  0  0  0
  -46.9021  -65.5129   50.4974 C   0  0  0  0  0  0  0  0  0  0  0  0
  -47.9257  -66.2639   54.1107 C   0  0  0  0  0  0  0  0  0  0  0  0
  -45.1325  -65.8854   52.1722 C   0  0  0  0  0  0  0  0  0  0  0  0
  -45.4794  -67.0429   52.6045 O   0  0  0  0  0  0  0  0  0  0  0  0
  -46.3096  -62.7583   50.5694 O   0  0  0  0  0  0  0  0  0  0  0  0
  -48.8283  -64.5600   53.5915 H   0  0  0  0  0  0  0  0  0  0  0  0
  -39.7798  -69.3699   54.8274 Cl  0  0  0  0  0  0  0  0  0  0  0  0
  -40.9151  -68.2792   54.0550 C   0  0  0  0  0  0  0  0  0  0  0  0
  -41.9148  -67.6481   54.7959 C   0  0  0  0  0  0  0  0  0  0  0  0
  -42.8143  -66.8001   54.2083 C   0  0  0  0  0  0  0  0  0  0  0  0
  -42.7968  -66.5101   52.8425 C   0  0  0  0  0  0  0  0  0  0  0  0
  -41.7999  -67.1407   52.1163 C   0  0  0  0  0  0  0  0  0  0  0  0
  -40.8959  -67.9927   52.7039 C   0  0  0  0  0  0  0  0  0  0  0  0
 22 23  1  0  0  0
 23 24  2  0  0  0
 23 28  1  0  0  0
 24 25  1  0  0  0
 25 26  2  0  0  0
 26 27  1  0  0  0
 26  1  1  0  0  0
 27 28  2  0  0  0
  1  2  1  0  0  0
  1 18  1  0  0  0
  2  3  2  0  0  0
  2  4  1  0  0  0
  4  5  2  0  0  0
  5  6  1  0  0  0
  5 20  1  0  0  0
  6  7  1  0  0  0
  6 16  1  0  0  0
  6 18  1  0  0  0
  7  8  1  0  0  0
  8  9  1  0  0  0
  8 17  1  0  0  0
  9 10  2  0  0  0
  9 14  1  0  0  0
 10 11  1  0  0  0
 10 16  1  0  0  0
 11 12  2  0  0  0
 12 13  1  0  0  0
 12 15  1  0  0  0
 13 14  2  0  0  0
 18 19  2  0  0  0
  8 21  1  0  0  0
M  CHG 1   8   1
M  CHG 1  20  -1
M  END
> <minimizedAffinity>
-7.85199

$$$$
2350


 23 26  0  0  0  0  0  0  0  0999 V2000
  -35.9764  -67.6735   49.5789 N   0  0  0  0  0  0  0  0  0  0  0  0
  -35.8533  -67.5091   48.1567 C   0  0  0  0  0  0  0  0  0  0  0  0
  -36.6804  -67.9756   47.3336 O   0  0  0  0  0  0  0  0  0  0  0  0
  -34.6364  -66.7283   47.8213 C   0  0  0  0  0  0  0  0  0  0  0  0
  -34.9242  -65.4137   47.1720 C   0  0  0  0  0  0  0  0  0  0  0  0
  -36.2594  -64.9318   47.6996 C   0  0  0  0  0  0  0  0  0  0  0  0
  -35.9369  -64.7024   49.1754 C   0  0  0  0  0  0  0  0  0  0  0  0
  -34.4501  -64.9304   49.3177 C   0  0  0  0  0  0  0  0  0  0  0  0
  -34.0567  -66.3690   49.1953 C   0  0  0  0  0  0  0  0  0  0  0  0
  -34.7422  -67.2715   50.1515 C   0  0  0  0  0  0  0  0  0  0  0  0
  -34.2774  -67.6027   51.2697 O   0  0  0  0  0  0  0  0  0  0  0  0
  -34.0071  -64.4336   47.9228 C   0  0  0  0  0  0  0  0  0  0  0  0
  -36.1589  -63.3741   49.5332 O   0  0  0  0  0  0  0  0  0  0  0  0
  -36.5183  -63.7020   47.1341 O   0  0  0  0  0  0  0  0  0  0  0  0
  -37.1001  -63.3138   49.8775 H   0  0  0  0  0  0  0  0  0  0  0  0
  -36.3440  -63.6420   46.1662 H   0  0  0  0  0  0  0  0  0  0  0  0
  -40.7106  -69.5585   52.7373 Cl  0  0  0  0  0  0  0  0  0  0  0  0
  -39.3122  -69.0197   51.8098 C   0  0  0  0  0  0  0  0  0  0  0  0
  -39.3836  -67.8785   51.0337 C   0  0  0  0  0  0  0  0  0  0  0  0
  -38.3046  -67.4384   50.3050 C   0  0  0  0  0  0  0  0  0  0  0  0
  -37.0916  -68.1374   50.3273 C   0  0  0  0  0  0  0  0  0  0  0  0
  -37.0580  -69.2676   51.1103 C   0  0  0  0  0  0  0  0  0  0  0  0
  -38.1208  -69.7301   51.8491 C   0  0  0  0  0  0  0  0  0  0  0  0
 17 18  1  0  0  0
 18 19  2  0  0  0
 18 23  1  0  0  0
 19 20  1  0  0  0
 20 21  2  0  0  0
 21 22  1  0  0  0
 21  1  1  0  0  0
 22 23  2  0  0  0
  1  2  1  0  0  0
  1 10  1  0  0  0
  2  3  2  0  0  0
  2  4  1  0  0  0
  4  5  1  0  0  0
  4  9  1  0  0  0
  5  6  1  0  0  0
  5 12  1  0  0  0
  6  7  1  0  0  0
  6 14  1  0  0  0
  7  8  1  0  0  0
  7 13  1  0  0  0
  8  9  1  0  0  0
  8 12  1  0  0  0
  9 10  1  0  0  0
 10 11  2  0  0  0
 13 15  1  0  0  0
 14 16  1  0  0  0
M  END
> <minimizedAffinity>
-7.32357

$$$$
2357


 36 39  0  0  0  0  0  0  0  0999 V2000
  -39.8001  -64.5377   49.2668 C   0  0  0  0  0  0  0  0  0  0  0  0
  -40.7420  -65.4370   49.4744 C   0  0  0  0  0  0  0  0  0  0  0  0
  -41.0847  -65.4894   50.9178 C   0  0  0  0  0  0  0  0  0  0  0  0
  -40.5829  -64.2360   51.4077 N   0  0  0  0  0  0  0  0  0  0  0  0
  -39.5094  -63.9762   50.5421 N   0  0  0  0  0  0  0  0  0  0  0  0
  -40.3373  -64.2201   52.3961 H   0  0  0  0  0  0  0  0  0  0  0  0
  -38.6497  -63.4556   50.8075 H   0  0  0  0  0  0  0  0  0  0  0  0
  -36.6590  -64.3348   48.3778 N   0  0  0  0  0  0  0  0  0  0  0  0
  -36.6264  -62.9404   48.6466 C   0  0  0  0  0  0  0  0  0  0  0  0
  -35.5323  -62.4621   49.1089 O   0  0  0  0  0  0  0  0  0  0  0  0
  -37.7470  -62.1379   48.4112 N   0  0  0  0  0  0  0  0  0  0  0  0
  -38.9410  -62.6957   47.8994 C   0  0  0  0  0  0  0  0  0  0  0  0
  -39.8178  -61.9673   47.3960 O   0  0  0  0  0  0  0  0  0  0  0  0
  -39.1566  -64.1586   47.9614 C   0  0  0  0  0  0  0  0  0  0  0  0
  -37.8652  -64.8803   47.8646 C   0  0  0  0  0  0  0  0  0  0  0  0
  -37.8450  -65.9954   47.3156 O   0  0  0  0  0  0  0  0  0  0  0  0
  -37.6665  -61.1026   48.6282 H   0  0  0  0  0  0  0  0  0  0  0  0
  -31.7952  -67.6777   49.3610 Cl  0  0  0  0  0  0  0  0  0  0  0  0
  -33.2333  -66.6900   49.0695 C   0  0  0  0  0  0  0  0  0  0  0  0
  -33.4526  -66.1070   47.8468 C   0  0  0  0  0  0  0  0  0  0  0  0
  -34.5805  -65.3397   47.6373 C   0  0  0  0  0  0  0  0  0  0  0  0
  -35.5095  -65.1332   48.6244 C   0  0  0  0  0  0  0  0  0  0  0  0
  -35.2905  -65.7135   49.8425 C   0  0  0  0  0  0  0  0  0  0  0  0
  -34.1517  -66.4964   50.0736 C   0  0  0  0  0  0  0  0  0  0  0  0
  -40.4592  -66.6689   51.5044 C   0  0  0  0  0  0  0  0  0  0  0  0
  -40.7996  -67.0205   52.7930 C   0  0  0  0  0  0  0  0  0  0  0  0
  -40.2660  -68.1195   53.4352 C   0  0  0  0  0  0  0  0  0  0  0  0
  -39.3389  -68.8992   52.7312 C   0  0  0  0  0  0  0  0  0  0  0  0
  -38.9663  -68.5874   51.4419 C   0  0  0  0  0  0  0  0  0  0  0  0
  -39.5420  -67.4735   50.8639 C   0  0  0  0  0  0  0  0  0  0  0  0
  -38.7786  -70.0057   53.3286 O   0  0  0  0  0  0  0  0  0  0  0  0
  -39.0381  -70.2528   54.2737 H   0  0  0  0  0  0  0  0  0  0  0  0
  -38.0592  -69.3781   50.8019 O   0  0  0  0  0  0  0  0  0  0  0  0
  -36.7032  -69.1021   50.6031 C   0  0  0  0  0  0  0  0  0  0  0  0
  -40.6029  -68.4829   54.7327 O   0  0  0  0  0  0  0  0  0  0  0  0
  -41.8444  -69.1338   54.9106 C   0  0  0  0  0  0  0  0  0  0  0  0
 18 19  1  0  0  0
 19 20  2  0  0  0
 19 24  1  0  0  0
 20 21  1  0  0  0
 21 22  2  0  0  0
 22 23  1  0  0  0
 22  8  1  0  0  0
 23 24  2  0  0  0
  8  9  1  0  0  0
  8 15  1  0  0  0
  9 10  2  0  0  0
  9 11  1  0  0  0
 11 12  1  0  0  0
 12 13  2  0  0  0
 12 14  1  0  0  0
 14 15  1  0  0  0
 14  1  1  0  0  0
 15 16  2  0  0  0
  1  2  2  0  0  0
  1  5  1  0  0  0
  2  3  1  0  0  0
  3  4  1  0  0  0
  3 25  1  0  0  0
  4  5  1  0  0  0
 25 26  2  0  0  0
 25 30  1  0  0  0
 26 27  1  0  0  0
 27 28  2  0  0  0
 27 35  1  0  0  0
 28 29  1  0  0  0
 28 31  1  0  0  0
 29 30  2  0  0  0
 29 33  1  0  0  0
 33 34  1  0  0  0
 35 36  1  0  0  0
 11 17  1  0  0  0
  4  6  1  0  0  0
  5  7  1  0  0  0
 31 32  1  0  0  0
M  END
> <minimizedAffinity>
-8.62468

$$$$
2358


 34 37  0  0  0  0  0  0  0  0999 V2000
  -36.5642  -64.4316   48.6642 N   0  0  0  0  0  0  0  0  0  0  0  0
  -36.5113  -63.0122   48.7013 C   0  0  0  0  0  0  0  0  0  0  0  0
  -35.3981  -62.4614   48.9467 O   0  0  0  0  0  0  0  0  0  0  0  0
  -37.6608  -62.2226   48.4733 N   0  0  0  0  0  0  0  0  0  0  0  0
  -38.9078  -62.8310   48.1988 C   0  0  0  0  0  0  0  0  0  0  0  0
  -39.9160  -62.1415   47.8141 O   0  0  0  0  0  0  0  0  0  0  0  0
  -39.1034  -64.2734   48.3403 C   0  0  0  0  0  0  0  0  0  0  0  0
  -37.8323  -65.0075   48.3864 C   0  0  0  0  0  0  0  0  0  0  0  0
  -37.8302  -66.2672   48.1625 O   0  0  0  0  0  0  0  0  0  0  0  0
  -37.6004  -61.1717   48.5059 H   0  0  0  0  0  0  0  0  0  0  0  0
  -31.7699  -67.8727   49.5414 Cl  0  0  0  0  0  0  0  0  0  0  0  0
  -33.1830  -66.8618   49.3024 C   0  0  0  0  0  0  0  0  0  0  0  0
  -34.0091  -66.5247   50.3646 C   0  0  0  0  0  0  0  0  0  0  0  0
  -35.0997  -65.7382   50.1467 C   0  0  0  0  0  0  0  0  0  0  0  0
  -35.4244  -65.2516   48.8862 C   0  0  0  0  0  0  0  0  0  0  0  0
  -34.6017  -65.5887   47.8346 C   0  0  0  0  0  0  0  0  0  0  0  0
  -33.4776  -66.3938   48.0321 C   0  0  0  0  0  0  0  0  0  0  0  0
  -39.9661  -64.5644   49.5236 C   0  0  0  0  0  0  0  0  0  0  0  0
  -41.0481  -65.2947   49.5755 C   0  0  0  0  0  0  0  0  0  0  0  0
  -41.5286  -65.2674   50.9787 C   0  0  0  0  0  0  0  0  0  0  0  0
  -40.8643  -64.1169   51.5528 N   0  0  0  0  0  0  0  0  0  0  0  0
  -39.6780  -64.0384   50.8145 N   0  0  0  0  0  0  0  0  0  0  0  0
  -41.4418  -63.2491   51.4487 H   0  0  0  0  0  0  0  0  0  0  0  0
  -38.7756  -63.6535   51.1966 H   0  0  0  0  0  0  0  0  0  0  0  0
  -41.1247  -66.5080   51.6965 C   0  0  0  0  0  0  0  0  0  0  0  0
  -41.3640  -66.6916   53.0392 C   0  0  0  0  0  0  0  0  0  0  0  0
  -40.9919  -67.8390   53.7152 C   0  0  0  0  0  0  0  0  0  0  0  0
  -40.3548  -68.8570   53.0430 C   0  0  0  0  0  0  0  0  0  0  0  0
  -40.1076  -68.6934   51.7024 C   0  0  0  0  0  0  0  0  0  0  0  0
  -40.4822  -67.5462   51.0384 C   0  0  0  0  0  0  0  0  0  0  0  0
  -41.2594  -67.9653   55.0648 O   0  0  0  0  0  0  0  0  0  0  0  0
  -41.7211  -67.2381   55.5739 H   0  0  0  0  0  0  0  0  0  0  0  0
  -39.9748  -70.0112   53.6984 O   0  0  0  0  0  0  0  0  0  0  0  0
  -38.6437  -70.1567   54.1377 C   0  0  0  0  0  0  0  0  0  0  0  0
 11 12  1  0  0  0
 12 13  2  0  0  0
 12 17  1  0  0  0
 13 14  1  0  0  0
 14 15  2  0  0  0
 15 16  1  0  0  0
 15  1  1  0  0  0
 16 17  2  0  0  0
  1  2  1  0  0  0
  1  8  1  0  0  0
  2  3  2  0  0  0
  2  4  1  0  0  0
  4  5  1  0  0  0
  5  6  2  0  0  0
  5  7  1  0  0  0
  7  8  1  0  0  0
  7 18  1  0  0  0
  8  9  2  0  0  0
 18 19  2  0  0  0
 18 22  1  0  0  0
 19 20  1  0  0  0
 20 21  1  0  0  0
 20 25  1  0  0  0
 21 22  1  0  0  0
 25 26  2  0  0  0
 25 30  1  0  0  0
 26 27  1  0  0  0
 27 28  2  0  0  0
 27 31  1  0  0  0
 28 29  1  0  0  0
 28 33  1  0  0  0
 29 30  2  0  0  0
 33 34  1  0  0  0
  4 10  1  0  0  0
 21 23  1  0  0  0
 22 24  1  0  0  0
 31 32  1  0  0  0
M  END
> <minimizedAffinity>
-8.69109

$$$$
2359


 32 35  0  0  0  0  0  0  0  0999 V2000
  -42.9341  -66.3974   52.9663 N   0  0  0  0  0  0  0  0  0  0  0  0
  -43.0906  -66.5382   54.3873 C   0  0  0  0  0  0  0  0  0  0  0  0
  -44.0464  -65.9772   55.0066 O   0  0  0  0  0  0  0  0  0  0  0  0
  -42.1260  -67.3336   55.0598 N   0  0  0  0  0  0  0  0  0  0  0  0
  -41.0478  -67.9607   54.3295 C   0  0  0  0  0  0  0  0  0  0  0  0
  -40.5334  -68.9609   54.8458 O   0  0  0  0  0  0  0  0  0  0  0  0
  -40.6309  -67.4021   53.0580 C   0  0  0  0  0  0  0  0  0  0  0  0
  -41.8597  -67.0338   52.2928 C   0  0  0  0  0  0  0  0  0  0  0  0
  -42.0108  -67.2534   51.0641 O   0  0  0  0  0  0  0  0  0  0  0  0
  -42.2215  -67.4477   56.0843 H   0  0  0  0  0  0  0  0  0  0  0  0
  -47.0505  -63.1079   50.1027 Cl  0  0  0  0  0  0  0  0  0  0  0  0
  -45.8253  -64.0263   50.9284 C   0  0  0  0  0  0  0  0  0  0  0  0
  -46.1603  -65.2853   51.4070 C   0  0  0  0  0  0  0  0  0  0  0  0
  -45.2031  -66.0336   52.0660 C   0  0  0  0  0  0  0  0  0  0  0  0
  -43.9126  -65.5880   52.2757 C   0  0  0  0  0  0  0  0  0  0  0  0
  -43.5985  -64.3329   51.7915 C   0  0  0  0  0  0  0  0  0  0  0  0
  -44.5299  -63.5555   51.1275 C   0  0  0  0  0  0  0  0  0  0  0  0
  -39.6770  -68.1486   52.2699 C   0  0  0  0  0  0  0  0  0  0  0  0
  -38.8452  -67.7210   51.3480 C   0  0  0  0  0  0  0  0  0  0  0  0
  -38.0399  -68.8350   50.7898 C   0  0  0  0  0  0  0  0  0  0  0  0
  -38.3253  -69.9204   51.6994 N   0  0  0  0  0  0  0  0  0  0  0  0
  -39.4908  -69.5754   52.3800 N   0  0  0  0  0  0  0  0  0  0  0  0
  -37.5268  -70.1402   52.3329 H   0  0  0  0  0  0  0  0  0  0  0  0
  -40.0874  -70.2771   52.8664 H   0  0  0  0  0  0  0  0  0  0  0  0
  -36.5951  -68.5814   50.8327 C   0  0  0  0  0  0  0  0  0  0  0  0
  -35.7947  -69.4754   51.5275 C   0  0  0  0  0  0  0  0  0  0  0  0
  -34.4368  -69.2675   51.5865 C   0  0  0  0  0  0  0  0  0  0  0  0
  -33.8435  -68.1901   50.9710 C   0  0  0  0  0  0  0  0  0  0  0  0
  -34.6232  -67.2939   50.2784 C   0  0  0  0  0  0  0  0  0  0  0  0
  -36.0008  -67.5080   50.2217 C   0  0  0  0  0  0  0  0  0  0  0  0
  -33.6169  -70.1642   52.2844 O   0  0  0  0  0  0  0  0  0  0  0  0
  -34.0345  -70.9572   52.7390 H   0  0  0  0  0  0  0  0  0  0  0  0
 11 12  1  0  0  0
 12 13  2  0  0  0
 12 17  1  0  0  0
 13 14  1  0  0  0
 14 15  2  0  0  0
 15 16  1  0  0  0
 15  1  1  0  0  0
 16 17  2  0  0  0
  1  2  1  0  0  0
  1  8  1  0  0  0
  2  3  2  0  0  0
  2  4  1  0  0  0
  4  5  1  0  0  0
  5  6  2  0  0  0
  5  7  1  0  0  0
  7  8  1  0  0  0
  7 18  1  0  0  0
  8  9  2  0  0  0
 18 19  2  0  0  0
 18 22  1  0  0  0
 19 20  1  0  0  0
 20 21  1  0  0  0
 20 25  1  0  0  0
 21 22  1  0  0  0
 25 26  2  0  0  0
 25 30  1  0  0  0
 26 27  1  0  0  0
 27 28  2  0  0  0
 27 31  1  0  0  0
 28 29  1  0  0  0
 29 30  2  0  0  0
  4 10  1  0  0  0
 21 23  1  0  0  0
 22 24  1  0  0  0
 31 32  1  0  0  0
M  END
> <minimizedAffinity>
-9.47656

$$$$
2361


 30 33  0  0  0  0  0  0  0  0999 V2000
  -40.4794  -65.6210   50.4901 N   0  0  0  0  0  0  0  0  0  0  0  0
  -40.1726  -64.2660   50.7628 C   0  0  0  0  0  0  0  0  0  0  0  0
  -40.1759  -63.8423   51.9455 O   0  0  0  0  0  0  0  0  0  0  0  0
  -39.8576  -63.3906   49.6660 N   0  0  0  0  0  0  0  0  0  0  0  0
  -39.8530  -63.8675   48.3275 C   0  0  0  0  0  0  0  0  0  0  0  0
  -39.9130  -63.0461   47.3787 O   0  0  0  0  0  0  0  0  0  0  0  0
  -39.7781  -65.3157   48.0762 C   0  0  0  0  0  0  0  0  0  0  0  0
  -40.4661  -66.0623   49.1437 C   0  0  0  0  0  0  0  0  0  0  0  0
  -41.0768  -67.1510   48.8620 O   0  0  0  0  0  0  0  0  0  0  0  0
  -39.6258  -62.3859   49.8209 H   0  0  0  0  0  0  0  0  0  0  0  0
  -41.7875  -69.4544   54.9461 Cl  0  0  0  0  0  0  0  0  0  0  0  0
  -41.4125  -68.3329   53.6489 C   0  0  0  0  0  0  0  0  0  0  0  0
  -42.2817  -67.3190   53.3064 C   0  0  0  0  0  0  0  0  0  0  0  0
  -41.9814  -66.4338   52.2776 C   0  0  0  0  0  0  0  0  0  0  0  0
  -40.8071  -66.5356   51.5636 C   0  0  0  0  0  0  0  0  0  0  0  0
  -39.9411  -67.5494   51.9090 C   0  0  0  0  0  0  0  0  0  0  0  0
  -40.2388  -68.4304   52.9326 C   0  0  0  0  0  0  0  0  0  0  0  0
  -38.3501  -65.7671   47.9696 C   0  0  0  0  0  0  0  0  0  0  0  0
  -37.8938  -66.9502   47.6510 C   0  0  0  0  0  0  0  0  0  0  0  0
  -36.4229  -66.9255   47.6779 C   0  0  0  0  0  0  0  0  0  0  0  0
  -36.0993  -65.5269   47.6947 N   0  0  0  0  0  0  0  0  0  0  0  0
  -37.2485  -64.9076   48.2110 N   0  0  0  0  0  0  0  0  0  0  0  0
  -35.8569  -65.1662   46.7671 H   0  0  0  0  0  0  0  0  0  0  0  0
  -37.2162  -63.9729   48.6783 H   0  0  0  0  0  0  0  0  0  0  0  0
  -36.0002  -67.5644   48.9507 C   0  0  0  0  0  0  0  0  0  0  0  0
  -34.7508  -67.3179   49.4676 C   0  0  0  0  0  0  0  0  0  0  0  0
  -34.3569  -67.9009   50.6334 N   0  0  0  0  0  0  0  0  0  0  0  0
  -35.1500  -68.7319   51.3286 C   0  0  0  0  0  0  0  0  0  0  0  0
  -36.4081  -69.0009   50.8392 C   0  0  0  0  0  0  0  0  0  0  0  0
  -36.8295  -68.4087   49.6398 C   0  0  0  0  0  0  0  0  0  0  0  0
 11 12  1  0  0  0
 12 13  2  0  0  0
 12 17  1  0  0  0
 13 14  1  0  0  0
 14 15  2  0  0  0
 15 16  1  0  0  0
 15  1  1  0  0  0
 16 17  2  0  0  0
  1  2  1  0  0  0
  1  8  1  0  0  0
  2  3  2  0  0  0
  2  4  1  0  0  0
  4  5  1  0  0  0
  5  6  2  0  0  0
  5  7  1  0  0  0
  7  8  1  0  0  0
  7 18  1  0  0  0
  8  9  2  0  0  0
 18 19  2  0  0  0
 18 22  1  0  0  0
 19 20  1  0  0  0
 20 21  1  0  0  0
 20 25  1  0  0  0
 21 22  1  0  0  0
 25 26  2  0  0  0
 25 30  1  0  0  0
 26 27  1  0  0  0
 27 28  2  0  0  0
 28 29  1  0  0  0
 29 30  2  0  0  0
  4 10  1  0  0  0
 21 23  1  0  0  0
 22 24  1  0  0  0
M  END
> <minimizedAffinity>
-8.51222

$$$$
2363


 33 36  0  0  0  0  0  0  0  0999 V2000
  -39.6035  -65.7514   49.5198 N   0  0  0  0  0  0  0  0  0  0  0  0
  -40.5046  -66.4082   50.3980 C   0  0  0  0  0  0  0  0  0  0  0  0
  -39.9563  -67.5777   51.0685 C   0  0  0  0  0  0  0  0  0  0  0  0
  -38.7118  -68.0638   50.8036 C   0  0  0  0  0  0  0  0  0  0  0  0
  -38.2548  -69.2139   51.4745 C   0  0  0  0  0  0  0  0  0  0  0  0
  -39.0119  -69.8848   52.4014 C   0  0  0  0  0  0  0  0  0  0  0  0
  -40.2743  -69.3758   52.6586 C   0  0  0  0  0  0  0  0  0  0  0  0
  -40.7214  -68.2677   52.0149 C   0  0  0  0  0  0  0  0  0  0  0  0
  -37.8252  -67.4253   49.8707 N   0  0  0  0  0  0  0  0  0  0  0  0
  -38.3244  -66.2594   49.2467 C   0  0  0  0  0  0  0  0  0  0  0  0
  -37.6002  -65.6355   48.4045 O   0  0  0  0  0  0  0  0  0  0  0  0
  -41.5589  -66.8772   49.5370 O   0  0  0  0  0  0  0  0  0  0  0  0
  -36.8871  -67.8255   49.6923 H   0  0  0  0  0  0  0  0  0  0  0  0
  -42.4113  -66.9053   50.0448 H   0  0  0  0  0  0  0  0  0  0  0  0
  -41.3003  -60.6519   46.8343 Cl  0  0  0  0  0  0  0  0  0  0  0  0
  -40.8063  -62.1570   47.6190 C   0  0  0  0  0  0  0  0  0  0  0  0
  -39.9055  -62.1056   48.6585 C   0  0  0  0  0  0  0  0  0  0  0  0
  -39.5125  -63.2867   49.2804 C   0  0  0  0  0  0  0  0  0  0  0  0
  -40.0092  -64.4963   48.8732 C   0  0  0  0  0  0  0  0  0  0  0  0
  -40.9088  -64.5159   47.8299 C   0  0  0  0  0  0  0  0  0  0  0  0
  -41.3212  -63.3608   47.1895 C   0  0  0  0  0  0  0  0  0  0  0  0
  -41.1630  -65.4680   51.3409 C   0  0  0  0  0  0  0  0  0  0  0  0
  -40.4886  -64.8346   52.1551 O   0  0  0  0  0  0  0  0  0  0  0  0
  -42.5619  -65.3322   51.2674 N   0  0  0  0  0  0  0  0  0  0  0  0
  -43.1486  -65.8715   50.5720 H   0  0  0  0  0  0  0  0  0  0  0  0
  -43.3128  -64.4349   52.1464 C   0  0  0  0  0  0  0  0  0  0  0  0
  -43.7622  -65.0997   53.3906 C   0  0  0  0  0  0  0  0  0  0  0  0
  -45.1041  -65.5331   53.4503 N   0  0  0  0  0  0  0  0  0  0  0  0
  -46.1251  -64.6280   53.1165 C   0  0  0  0  0  0  0  0  0  0  0  0
  -47.4409  -65.4012   52.9913 C   0  0  0  0  0  0  0  0  0  0  0  0
  -47.4720  -66.4622   53.9139 O   0  0  0  0  0  0  0  0  0  0  0  0
  -46.5918  -67.4773   53.5465 C   0  0  0  0  0  0  0  0  0  0  0  0
  -45.3575  -66.8461   52.9618 C   0  0  0  0  0  0  0  0  0  0  0  0
 15 16  1  0  0  0
 16 17  2  0  0  0
 16 21  1  0  0  0
 17 18  1  0  0  0
 18 19  2  0  0  0
 19 20  1  0  0  0
 19  1  1  0  0  0
 20 21  2  0  0  0
  1  2  1  0  0  0
  1 10  1  0  0  0
  2  3  1  0  0  0
  2 12  1  0  0  0
  2 22  1  0  0  0
  3  4  1  0  0  0
  3  8  2  0  0  0
  4  5  2  0  0  0
  4  9  1  0  0  0
  5  6  1  0  0  0
  6  7  2  0  0  0
  7  8  1  0  0  0
  9 10  1  0  0  0
 10 11  2  0  0  0
 22 23  2  0  0  0
 22 24  1  0  0  0
 24 26  1  0  0  0
 26 27  1  0  0  0
 27 28  1  0  0  0
 28 29  1  0  0  0
 28 33  1  0  0  0
 29 30  1  0  0  0
 30 31  1  0  0  0
 31 32  1  0  0  0
 32 33  1  0  0  0
  9 13  1  0  0  0
 12 14  1  0  0  0
 24 25  1  0  0  0
M  END
> <minimizedAffinity>
-7.87812

$$$$
2364


 33 37  0  0  0  0  0  0  0  0999 V2000
  -40.4797  -65.5279   48.9673 N   0  0  0  0  0  0  0  0  0  0  0  0
  -40.7960  -64.1865   49.3183 C   0  0  0  0  0  0  0  0  0  0  0  0
  -41.8842  -63.9416   49.9318 O   0  0  0  0  0  0  0  0  0  0  0  0
  -39.9267  -63.0461   49.0115 C   0  0  0  0  0  0  0  0  0  0  0  0
  -38.8458  -63.3336   48.1277 N   0  0  0  0  0  0  0  0  0  0  0  0
  -38.2883  -64.6444   48.2090 C   0  0  0  0  0  0  0  0  0  0  0  0
  -37.1852  -64.8315   49.2218 C   0  0  0  0  0  0  0  0  0  0  0  0
  -36.2459  -65.0001   48.1605 N   0  0  0  0  0  0  0  0  0  0  0  0
  -37.2094  -64.8035   47.1510 C   0  0  0  0  0  0  0  0  0  0  0  0
  -39.3008  -65.7321   48.1978 C   0  0  0  0  0  0  0  0  0  0  0  0
  -39.1581  -66.8002   47.5501 O   0  0  0  0  0  0  0  0  0  0  0  0
  -39.2839  -63.0814   46.7851 C   0  0  0  0  0  0  0  0  0  0  0  0
  -40.6871  -62.5471   46.8457 C   0  0  0  0  0  0  0  0  0  0  0  0
  -40.7881  -62.0277   48.2513 C   0  0  0  0  0  0  0  0  0  0  0  0
  -40.9343  -61.5658   45.8953 O   0  0  0  0  0  0  0  0  0  0  0  0
  -41.2627  -62.0207   45.0821 H   0  0  0  0  0  0  0  0  0  0  0  0
  -41.3126  -66.6488   49.3656 C   0  0  0  0  0  0  0  0  0  0  0  0
  -38.0003  -69.5390   52.1909 Cl  0  0  0  0  0  0  0  0  0  0  0  0
  -39.3810  -68.4711   52.0679 C   0  0  0  0  0  0  0  0  0  0  0  0
  -39.7977  -67.9942   50.8419 C   0  0  0  0  0  0  0  0  0  0  0  0
  -40.8798  -67.1528   50.7148 C   0  0  0  0  0  0  0  0  0  0  0  0
  -41.5536  -66.7892   51.8597 C   0  0  0  0  0  0  0  0  0  0  0  0
  -41.1327  -67.2664   53.0609 C   0  0  0  0  0  0  0  0  0  0  0  0
  -40.0539  -68.1079   53.2100 C   0  0  0  0  0  0  0  0  0  0  0  0
  -35.0388  -64.2571   48.1749 C   0  0  0  0  0  0  0  0  0  0  0  0
  -33.7991  -65.0354   48.0724 C   0  0  0  0  0  0  0  0  0  0  0  0
  -33.8112  -66.2725   47.4766 C   0  0  0  0  0  0  0  0  0  0  0  0
  -32.6451  -67.0350   47.3655 C   0  0  0  0  0  0  0  0  0  0  0  0
  -31.4664  -66.5307   47.8652 C   0  0  0  0  0  0  0  0  0  0  0  0
  -31.4259  -65.2952   48.4657 C   0  0  0  0  0  0  0  0  0  0  0  0
  -32.6065  -64.5612   48.5597 C   0  0  0  0  0  0  0  0  0  0  0  0
  -32.6534  -68.2795   46.7673 O   0  0  0  0  0  0  0  0  0  0  0  0
  -31.7569  -68.5219   45.6992 C   0  0  0  0  0  0  0  0  0  0  0  0
 18 19  1  0  0  0
 19 20  2  0  0  0
 19 24  1  0  0  0
 20 21  1  0  0  0
 21 22  2  0  0  0
 21 17  1  0  0  0
 22 23  1  0  0  0
 23 24  2  0  0  0
 17  1  1  0  0  0
  1  2  1  0  0  0
  1 10  1  0  0  0
  2  3  2  0  0  0
  2  4  1  0  0  0
  4  5  1  0  0  0
  4 14  1  0  0  0
  5  6  1  0  0  0
  5 12  1  0  0  0
  6  7  1  0  0  0
  6  9  1  0  0  0
  6 10  1  0  0  0
  7  8  1  0  0  0
  8  9  1  0  0  0
  8 25  1  0  0  0
 25 26  1  0  0  0
 26 27  2  0  0  0
 26 31  1  0  0  0
 27 28  1  0  0  0
 28 29  2  0  0  0
 28 32  1  0  0  0
 29 30  1  0  0  0
 30 31  2  0  0  0
 32 33  1  0  0  0
 10 11  2  0  0  0
 12 13  1  0  0  0
 13 14  1  0  0  0
 13 15  1  0  0  0
 15 16  1  0  0  0
M  END
> <minimizedAffinity>
-7.76770

$$$$
2365


 32 36  0  0  0  0  0  0  0  0999 V2000
  -41.7940  -65.5727   50.5648 N   0  0  0  0  0  0  0  0  0  0  0  0
  -40.5594  -66.2292   50.6796 C   0  0  0  0  0  0  0  0  0  0  0  0
  -40.4253  -67.1018   51.5905 O   0  0  0  0  0  0  0  0  0  0  0  0
  -41.9209  -64.8494   49.8159 H   0  0  0  0  0  0  0  0  0  0  0  0
  -39.3912  -65.9722   49.8054 C   0  0  0  0  0  0  0  0  0  0  0  0
  -38.1708  -66.7142   50.3116 C   0  0  0  0  0  0  0  0  0  0  0  0
  -36.9801  -66.4467   49.4352 C   0  0  0  0  0  0  0  0  0  0  0  0
  -37.3114  -66.9999   48.0476 C   0  0  0  0  0  0  0  0  0  0  0  0
  -38.5224  -66.3078   47.5089 C   0  0  0  0  0  0  0  0  0  0  0  0
  -39.7045  -66.5139   48.4276 C   0  0  0  0  0  0  0  0  0  0  0  0
  -38.2333  -64.8295   47.3871 C   0  0  0  0  0  0  0  0  0  0  0  0
  -37.9156  -64.3039   48.7676 C   0  0  0  0  0  0  0  0  0  0  0  0
  -36.6770  -64.9883   49.2863 C   0  0  0  0  0  0  0  0  0  0  0  0
  -39.0943  -64.4938   49.6846 C   0  0  0  0  0  0  0  0  0  0  0  0
  -35.8646  -67.1907   49.9863 N   0  0  0  0  0  0  0  0  0  0  0  0
  -35.7318  -68.4875   50.2021 N   0  0  0  0  0  0  0  0  0  0  0  0
  -34.5742  -68.7802   50.7144 N   0  0  0  0  0  0  0  0  0  0  0  0
  -33.8962  -67.6548   50.8543 C   0  0  0  0  0  0  0  0  0  0  0  0
  -34.7029  -66.6564   50.3980 N   0  0  0  0  0  0  0  0  0  0  0  0
  -43.1892  -65.0985   52.5523 C   0  0  0  0  0  0  0  0  0  0  0  0
  -42.5370  -64.0729   52.8725 O   0  0  0  0  0  0  0  0  0  0  0  0
  -42.8416  -65.8597   51.4109 N   0  0  0  0  0  0  0  0  0  0  0  0
  -43.4388  -66.7096   51.2071 H   0  0  0  0  0  0  0  0  0  0  0  0
  -44.3381  -65.4621   53.4314 C   0  0  0  0  0  0  0  0  0  0  0  0
  -45.2271  -66.4872   52.8126 C   0  0  0  0  0  0  0  0  0  0  0  0
  -43.8112  -65.9133   54.7743 C   0  0  0  0  0  0  0  0  0  0  0  0
  -39.6153  -69.3895   54.4911 Br  0  0  0  0  0  0  0  0  0  0  0  0
  -41.3420  -68.5863   54.5678 C   0  0  0  0  0  0  0  0  0  0  0  0
  -41.6807  -67.2508   54.6550 C   0  0  0  0  0  0  0  0  0  0  0  0
  -43.0324  -67.1259   54.6863 N   0  0  0  0  0  0  0  0  0  0  0  0
  -43.5294  -68.3310   54.6225 N   0  0  0  0  0  0  0  0  0  0  0  0
  -42.5632  -69.2643   54.5485 C   0  0  0  0  0  0  0  0  0  0  0  0
 27 28  1  0  0  0
 28 29  2  0  0  0
 28 32  1  0  0  0
 29 30  1  0  0  0
 30 31  1  0  0  0
 30 26  1  0  0  0
 31 32  2  0  0  0
 26 24  1  0  0  0
 24 25  1  0  0  0
 24 20  1  0  0  0
 20 21  2  0  0  0
 20 22  1  0  0  0
 22  1  1  0  0  0
  1  2  1  0  0  0
  2  3  2  0  0  0
  2  5  1  0  0  0
  5  6  1  0  0  0
  5 10  1  0  0  0
  5 14  1  0  0  0
  6  7  1  0  0  0
  7  8  1  0  0  0
  7 13  1  0  0  0
  7 15  1  0  0  0
  8  9  1  0  0  0
  9 10  1  0  0  0
  9 11  1  0  0  0
 11 12  1  0  0  0
 12 13  1  0  0  0
 12 14  1  0  0  0
 15 16  1  0  0  0
 15 19  1  0  0  0
 16 17  2  0  0  0
 17 18  1  0  0  0
 18 19  2  0  0  0
 22 23  1  0  0  0
  1  4  1  0  0  0
M  END
> <minimizedAffinity>
-8.15763

$$$$
2373


 28 31  0  0  0  0  0  0  0  0999 V2000
  -38.9207  -69.0378   51.2623 N   0  0  0  0  0  0  0  0  0  0  0  0
  -39.5467  -69.4784   52.3396 C   0  0  0  0  0  0  0  0  0  0  0  0
  -40.5801  -68.6585   52.6712 N   0  0  0  0  0  0  0  0  0  0  0  0
  -40.6101  -67.6780   51.7957 C   0  0  0  0  0  0  0  0  0  0  0  0
  -39.5515  -67.9239   50.8961 C   0  0  0  0  0  0  0  0  0  0  0  0
  -41.4744  -68.9056   53.7669 C   0  0  0  0  0  0  0  0  0  0  0  0
  -40.7873  -68.5960   55.0950 C   0  0  0  0  0  0  0  0  0  0  0  0
  -39.3309  -69.0257   54.8896 C   0  0  0  0  0  0  0  0  0  0  0  0
  -39.3215  -70.4980   54.5835 C   0  0  0  0  0  0  0  0  0  0  0  0
  -39.1194  -70.7086   53.0746 C   0  0  0  0  0  0  0  0  0  0  0  0
  -41.5229  -66.5381   51.6675 C   0  0  0  0  0  0  0  0  0  0  0  0
  -42.7035  -66.3800   52.3184 C   0  0  0  0  0  0  0  0  0  0  0  0
  -43.5609  -65.3025   52.0989 C   0  0  0  0  0  0  0  0  0  0  0  0
  -43.2345  -64.3313   51.1927 C   0  0  0  0  0  0  0  0  0  0  0  0
  -42.0444  -64.4608   50.5186 C   0  0  0  0  0  0  0  0  0  0  0  0
  -41.2091  -65.5327   50.7461 C   0  0  0  0  0  0  0  0  0  0  0  0
  -44.0798  -63.2345   50.9516 O   0  0  0  0  0  0  0  0  0  0  0  0
  -44.6503  -62.9789   49.6964 C   0  0  0  0  0  0  0  0  0  0  0  0
  -37.7633  -69.5644   50.5322 C   0  0  0  0  0  0  0  0  0  0  0  0
  -36.5412  -68.9734   51.1185 C   0  0  0  0  0  0  0  0  0  0  0  0
  -36.1142  -69.4827   52.2076 O   0  0  0  0  0  0  0  0  0  0  0  0
  -33.3976  -64.4137   48.7825 Cl  0  0  0  0  0  0  0  0  0  0  0  0
  -34.2788  -65.7492   49.4781 C   0  0  0  0  0  0  0  0  0  0  0  0
  -33.7315  -66.6581   50.3490 C   0  0  0  0  0  0  0  0  0  0  0  0
  -34.4696  -67.6919   50.8686 C   0  0  0  0  0  0  0  0  0  0  0  0
  -35.8173  -67.8668   50.5325 C   0  0  0  0  0  0  0  0  0  0  0  0
  -36.3625  -66.9644   49.6678 C   0  0  0  0  0  0  0  0  0  0  0  0
  -35.6135  -65.9309   49.1518 C   0  0  0  0  0  0  0  0  0  0  0  0
 22 23  1  0  0  0
 23 24  2  0  0  0
 23 28  1  0  0  0
 24 25  1  0  0  0
 25 26  2  0  0  0
 26 27  1  0  0  0
 26 20  1  0  0  0
 27 28  2  0  0  0
 20 21  2  0  0  0
 20 19  1  0  0  0
 19  1  1  0  0  0
  1  2  2  0  0  0
  1  5  1  0  0  0
  2  3  1  0  0  0
  2 10  1  0  0  0
  3  4  1  0  0  0
  3  6  1  0  0  0
  4  5  2  0  0  0
  4 11  1  0  0  0
 11 12  2  0  0  0
 11 16  1  0  0  0
 12 13  1  0  0  0
 13 14  2  0  0  0
 14 15  1  0  0  0
 14 17  1  0  0  0
 15 16  2  0  0  0
 17 18  1  0  0  0
  6  7  1  0  0  0
  7  8  1  0  0  0
  8  9  1  0  0  0
  9 10  1  0  0  0
M  END
> <minimizedAffinity>
-8.33541

$$$$
2375


 37 40  0  0  0  0  0  0  0  0999 V2000
  -45.2222  -64.6207   51.3280 C   0  0  0  0  0  0  0  0  0  0  0  0
  -44.5631  -63.5309   50.6701 C   0  0  0  0  0  0  0  0  0  0  0  0
  -48.2829  -67.6200   53.5866 C   0  0  0  0  0  0  0  0  0  0  0  0
  -49.0757  -67.4626   52.3582 C   0  0  0  0  0  0  0  0  0  0  0  0
  -48.7136  -66.3239   51.4377 C   0  0  0  0  0  0  0  0  0  0  0  0
  -47.5259  -65.6093   51.7738 N   0  0  0  0  0  0  0  0  0  0  0  0
  -47.4238  -65.2527   53.2029 C   0  0  0  0  0  0  0  0  0  0  0  0
  -47.5619  -66.3925   54.0861 C   0  0  0  0  0  0  0  0  0  0  0  0
  -46.6253  -64.9951   50.8710 C   0  0  0  0  0  0  0  0  0  0  0  0
  -46.9544  -64.7490   49.7133 O   0  0  0  0  0  0  0  0  0  0  0  0
  -47.2911  -68.6107   53.3170 O   0  0  0  0  0  0  0  0  0  0  0  0
  -47.3596  -69.3596   53.9328 H   0  0  0  0  0  0  0  0  0  0  0  0
  -51.4605  -70.0132   58.1778 Cl  0  0  0  0  0  0  0  0  0  0  0  0
  -50.5407  -69.2761   56.8441 C   0  0  0  0  0  0  0  0  0  0  0  0
  -50.4374  -69.9149   55.6303 C   0  0  0  0  0  0  0  0  0  0  0  0
  -49.6965  -69.3292   54.5931 C   0  0  0  0  0  0  0  0  0  0  0  0
  -49.0578  -68.1080   54.7504 C   0  0  0  0  0  0  0  0  0  0  0  0
  -49.1785  -67.4977   55.9566 C   0  0  0  0  0  0  0  0  0  0  0  0
  -49.9026  -68.0580   57.0014 C   0  0  0  0  0  0  0  0  0  0  0  0
  -44.5215  -65.8090   51.7542 N   0  0  0  0  0  0  0  0  0  0  0  0
  -43.7959  -65.9314   52.9380 C   0  0  0  0  0  0  0  0  0  0  0  0
  -43.7974  -64.7208   53.6022 O   0  0  0  0  0  0  0  0  0  0  0  0
  -44.5822  -66.5713   50.9982 H   0  0  0  0  0  0  0  0  0  0  0  0
  -43.1024  -66.8902   53.6606 C   0  0  0  0  0  0  0  0  0  0  0  0
  -42.0567  -67.6483   53.8066 C   0  0  0  0  0  0  0  0  0  0  0  0
  -41.9695  -68.5284   54.9796 N   0  0  0  0  0  0  0  0  0  0  0  0
  -40.9451  -69.4339   55.1732 N   0  0  0  0  0  0  0  0  0  0  0  0
  -39.9094  -69.5808   54.2645 C   0  0  0  0  0  0  0  0  0  0  0  0
  -38.9544  -70.3865   54.4031 O   0  0  0  0  0  0  0  0  0  0  0  0
  -39.9102  -68.7348   53.0470 C   0  0  0  0  0  0  0  0  0  0  0  0
  -40.9501  -67.8493   52.8918 C   0  0  0  0  0  0  0  0  0  0  0  0
  -40.9622  -67.1464   51.6818 C   0  0  0  0  0  0  0  0  0  0  0  0
  -39.9743  -67.3389   50.7269 C   0  0  0  0  0  0  0  0  0  0  0  0
  -38.9501  -68.2265   50.9298 C   0  0  0  0  0  0  0  0  0  0  0  0
  -38.9247  -68.9361   52.1113 C   0  0  0  0  0  0  0  0  0  0  0  0
  -42.7532  -68.4299   55.6809 H   0  0  0  0  0  0  0  0  0  0  0  0
  -40.9467  -70.0358   56.0426 H   0  0  0  0  0  0  0  0  0  0  0  0
 13 14  1  0  0  0
 14 15  2  0  0  0
 14 19  1  0  0  0
 15 16  1  0  0  0
 16 17  2  0  0  0
 17 18  1  0  0  0
 17  3  1  0  0  0
 18 19  2  0  0  0
  3  4  1  0  0  0
  3  8  1  0  0  0
  3 11  1  0  0  0
  4  5  1  0  0  0
  5  6  1  0  0  0
  6  7  1  0  0  0
  6  9  1  0  0  0
  7  8  1  0  0  0
  9 10  2  0  0  0
  9  1  1  0  0  0
  1 20  1  0  0  0
  1  2  1  0  0  0
 20 21  1  0  0  0
 21 22  2  0  0  0
 21 24  1  0  0  0
 24 25  2  0  0  0
 25 26  1  0  0  0
 25 31  1  0  0  0
 26 27  1  0  0  0
 27 28  1  0  0  0
 28 29  2  0  0  0
 28 30  1  0  0  0
 30 31  2  0  0  0
 30 35  1  0  0  0
 31 32  1  0  0  0
 32 33  2  0  0  0
 33 34  1  0  0  0
 34 35  2  0  0  0
 20 23  1  0  0  0
 26 36  1  0  0  0
 27 37  1  0  0  0
 11 12  1  0  0  0
M  END
> <minimizedAffinity>
-9.30602

$$$$
2377


 33 36  0  0  0  0  0  0  0  0999 V2000
  -38.5240  -66.8480   49.2897 N   0  0  0  0  0  0  0  0  0  0  0  0
  -38.5587  -66.4815   47.8773 C   0  0  0  0  0  0  0  0  0  0  0  0
  -37.4842  -65.4778   47.5249 C   0  0  0  0  0  0  0  0  0  0  0  0
  -36.4906  -65.5065   48.5705 N   0  0  0  0  0  0  0  0  0  0  0  0
  -36.0945  -66.8257   49.0295 C   0  0  0  0  0  0  0  0  0  0  0  0
  -37.2681  -67.3836   49.8335 C   0  0  0  0  0  0  0  0  0  0  0  0
  -35.9090  -64.3570   49.1438 C   0  0  0  0  0  0  0  0  0  0  0  0
  -35.0543  -64.4941   50.0463 O   0  0  0  0  0  0  0  0  0  0  0  0
  -39.4086  -64.0063   49.7045 Cl  0  0  0  0  0  0  0  0  0  0  0  0
  -40.2060  -65.4131   50.3622 C   0  0  0  0  0  0  0  0  0  0  0  0
  -39.6586  -66.6503   50.0990 C   0  0  0  0  0  0  0  0  0  0  0  0
  -40.3522  -67.7214   50.6800 C   0  0  0  0  0  0  0  0  0  0  0  0
  -41.4552  -67.5235   51.4256 N   0  0  0  0  0  0  0  0  0  0  0  0
  -41.9836  -66.3454   51.6810 N   0  0  0  0  0  0  0  0  0  0  0  0
  -41.3561  -65.2904   51.1468 C   0  0  0  0  0  0  0  0  0  0  0  0
  -41.7963  -64.1300   51.3429 O   0  0  0  0  0  0  0  0  0  0  0  0
  -43.1557  -66.2272   52.4820 C   0  0  0  0  0  0  0  0  0  0  0  0
  -44.4189  -66.0984   51.9251 C   0  0  0  0  0  0  0  0  0  0  0  0
  -45.5642  -65.9830   52.6862 C   0  0  0  0  0  0  0  0  0  0  0  0
  -45.4376  -65.9971   54.0597 C   0  0  0  0  0  0  0  0  0  0  0  0
  -44.1926  -66.1233   54.6483 C   0  0  0  0  0  0  0  0  0  0  0  0
  -43.0496  -66.2386   53.8489 C   0  0  0  0  0  0  0  0  0  0  0  0
  -36.2571  -62.9754   48.7325 C   0  0  0  0  0  0  0  0  0  0  0  0
  -35.0138  -62.1283   48.5901 C   0  0  0  0  0  0  0  0  0  0  0  0
  -34.2767  -62.4009   47.3127 C   0  0  0  0  0  0  0  0  0  0  0  0
  -33.3081  -63.4701   47.4107 N   0  0  0  0  0  0  0  0  0  0  0  0
  -33.3629  -64.7120   46.7325 C   0  0  0  0  0  0  0  0  0  0  0  0
  -34.2743  -65.0964   45.9250 O   0  0  0  0  0  0  0  0  0  0  0  0
  -32.2533  -65.5221   47.0535 N   0  0  0  0  0  0  0  0  0  0  0  0
  -31.4249  -64.8028   47.9956 C   0  0  0  0  0  0  0  0  0  0  0  0
  -32.1092  -63.5056   48.1925 C   0  0  0  0  0  0  0  0  0  0  0  0
  -31.7119  -62.5760   48.9265 O   0  0  0  0  0  0  0  0  0  0  0  0
  -31.9766  -66.8473   46.5378 C   0  0  0  0  0  0  0  0  0  0  0  0
  9 10  1  0  0  0
 10 11  2  0  0  0
 10 15  1  0  0  0
 11 12  1  0  0  0
 11  1  1  0  0  0
 12 13  2  0  0  0
 13 14  1  0  0  0
 14 15  1  0  0  0
 14 17  1  0  0  0
 15 16  2  0  0  0
 17 18  2  0  0  0
 17 22  1  0  0  0
 18 19  1  0  0  0
 19 20  2  0  0  0
 20 21  1  0  0  0
 21 22  2  0  0  0
  1  2  1  0  0  0
  1  6  1  0  0  0
  2  3  1  0  0  0
  3  4  1  0  0  0
  4  5  1  0  0  0
  4  7  1  0  0  0
  5  6  1  0  0  0
  7  8  2  0  0  0
  7 23  1  0  0  0
 23 24  1  0  0  0
 24 25  1  0  0  0
 25 26  1  0  0  0
 26 27  1  0  0  0
 26 31  1  0  0  0
 27 28  2  0  0  0
 27 29  1  0  0  0
 29 30  1  0  0  0
 29 33  1  0  0  0
 30 31  1  0  0  0
 31 32  2  0  0  0
M  END
> <minimizedAffinity>
-7.94356

$$$$
2380


 27 30  0  0  0  0  0  0  0  0999 V2000
  -37.9861  -69.9953   50.9513 Cl  0  0  0  0  0  0  0  0  0  0  0  0
  -38.8331  -68.4519   50.9539 C   0  0  0  0  0  0  0  0  0  0  0  0
  -38.3015  -67.4297   50.2042 C   0  0  0  0  0  0  0  0  0  0  0  0
  -38.9915  -66.2283   50.2288 C   0  0  0  0  0  0  0  0  0  0  0  0
  -40.1149  -66.1102   50.9581 N   0  0  0  0  0  0  0  0  0  0  0  0
  -40.6370  -67.0856   51.6832 N   0  0  0  0  0  0  0  0  0  0  0  0
  -39.9916  -68.2653   51.6821 C   0  0  0  0  0  0  0  0  0  0  0  0
  -40.4318  -69.2433   52.3510 O   0  0  0  0  0  0  0  0  0  0  0  0
  -37.1162  -67.6404   49.4681 N   0  0  0  0  0  0  0  0  0  0  0  0
  -35.8236  -67.7984   50.1250 C   0  0  0  0  0  0  0  0  0  0  0  0
  -35.0241  -66.5410   49.7317 C   0  0  0  0  0  0  0  0  0  0  0  0
  -35.0238  -66.3760   48.3118 N   0  0  0  0  0  0  0  0  0  0  0  0
  -35.6654  -67.4410   47.5122 C   0  0  0  0  0  0  0  0  0  0  0  0
  -37.0661  -67.7191   48.0195 C   0  0  0  0  0  0  0  0  0  0  0  0
  -34.4451  -65.2621   47.6495 C   0  0  0  0  0  0  0  0  0  0  0  0
  -34.4691  -65.1589   46.3864 O   0  0  0  0  0  0  0  0  0  0  0  0
  -33.7834  -64.1602   48.3700 C   0  0  0  0  0  0  0  0  0  0  0  0
  -32.4570  -64.4122   48.5425 O   0  0  0  0  0  0  0  0  0  0  0  0
  -31.7762  -63.2015   48.5286 C   0  0  0  0  0  0  0  0  0  0  0  0
  -32.4665  -62.4905   47.3733 C   0  0  0  0  0  0  0  0  0  0  0  0
  -33.9148  -62.8400   47.6444 C   0  0  0  0  0  0  0  0  0  0  0  0
  -41.8411  -66.8969   52.4415 C   0  0  0  0  0  0  0  0  0  0  0  0
  -42.9709  -66.3864   51.8363 C   0  0  0  0  0  0  0  0  0  0  0  0
  -44.1505  -66.1977   52.5621 C   0  0  0  0  0  0  0  0  0  0  0  0
  -44.2020  -66.5189   53.8948 C   0  0  0  0  0  0  0  0  0  0  0  0
  -43.0861  -67.0264   54.5098 C   0  0  0  0  0  0  0  0  0  0  0  0
  -41.9349  -67.2067   53.7824 C   0  0  0  0  0  0  0  0  0  0  0  0
  1  2  1  0  0  0
  2  3  2  0  0  0
  2  7  1  0  0  0
  3  4  1  0  0  0
  3  9  1  0  0  0
  4  5  2  0  0  0
  5  6  1  0  0  0
  6  7  1  0  0  0
  6 22  1  0  0  0
  7  8  2  0  0  0
 22 23  2  0  0  0
 22 27  1  0  0  0
 23 24  1  0  0  0
 24 25  2  0  0  0
 25 26  1  0  0  0
 26 27  2  0  0  0
  9 10  1  0  0  0
  9 14  1  0  0  0
 10 11  1  0  0  0
 11 12  1  0  0  0
 12 13  1  0  0  0
 12 15  1  0  0  0
 13 14  1  0  0  0
 15 16  2  0  0  0
 15 17  1  0  0  0
 17 18  1  0  0  0
 17 21  1  0  0  0
 18 19  1  0  0  0
 19 20  1  0  0  0
 20 21  1  0  0  0
M  END
> <minimizedAffinity>
-7.91168

$$$$
2381


 30 33  0  0  0  0  0  0  0  0999 V2000
  -38.4460  -65.6963   48.8720 N   0  0  0  0  0  0  0  0  0  0  0  0
  -38.5398  -66.3791   47.6116 C   0  0  0  0  0  0  0  0  0  0  0  0
  -37.2096  -66.9706   47.2010 C   0  0  0  0  0  0  0  0  0  0  0  0
  -36.1014  -66.1537   47.6285 N   0  0  0  0  0  0  0  0  0  0  0  0
  -36.3661  -64.8120   48.0881 C   0  0  0  0  0  0  0  0  0  0  0  0
  -37.2970  -64.9075   49.2695 C   0  0  0  0  0  0  0  0  0  0  0  0
  -34.7805  -66.6685   47.5942 C   0  0  0  0  0  0  0  0  0  0  0  0
  -34.5404  -67.8517   47.1905 O   0  0  0  0  0  0  0  0  0  0  0  0
  -38.4931  -68.1452   50.6247 Cl  0  0  0  0  0  0  0  0  0  0  0  0
  -39.6886  -66.8690   50.6441 C   0  0  0  0  0  0  0  0  0  0  0  0
  -39.5408  -65.7996   49.7838 C   0  0  0  0  0  0  0  0  0  0  0  0
  -40.5196  -64.8243   49.8517 C   0  0  0  0  0  0  0  0  0  0  0  0
  -41.5556  -64.9120   50.7067 N   0  0  0  0  0  0  0  0  0  0  0  0
  -41.7131  -65.9297   51.5377 N   0  0  0  0  0  0  0  0  0  0  0  0
  -40.7793  -66.8973   51.4991 C   0  0  0  0  0  0  0  0  0  0  0  0
  -40.9206  -67.8621   52.2795 O   0  0  0  0  0  0  0  0  0  0  0  0
  -42.8181  -66.0150   52.4421 C   0  0  0  0  0  0  0  0  0  0  0  0
  -44.0953  -66.2543   51.9777 C   0  0  0  0  0  0  0  0  0  0  0  0
  -45.1671  -66.3379   52.8432 C   0  0  0  0  0  0  0  0  0  0  0  0
  -45.0151  -66.1870   54.2062 C   0  0  0  0  0  0  0  0  0  0  0  0
  -43.7409  -65.9484   54.6767 C   0  0  0  0  0  0  0  0  0  0  0  0
  -42.6757  -65.8654   53.8091 C   0  0  0  0  0  0  0  0  0  0  0  0
  -33.6031  -65.8684   48.0226 C   0  0  0  0  0  0  0  0  0  0  0  0
  -33.4127  -65.9177   49.4105 O   0  0  0  0  0  0  0  0  0  0  0  0
  -33.5754  -67.1036   50.1006 C   0  0  0  0  0  0  0  0  0  0  0  0
  -32.7458  -68.1459   50.2210 N   0  0  0  0  0  0  0  0  0  0  0  0
  -33.2807  -69.0628   50.9589 O   0  0  0  0  0  0  0  0  0  0  0  0
  -34.4784  -68.7069   51.3752 C   0  0  0  0  0  0  0  0  0  0  0  0
  -34.6959  -67.4532   50.8409 C   0  0  0  0  0  0  0  0  0  0  0  0
  -35.3301  -69.5493   52.2344 C   0  0  0  0  0  0  0  0  0  0  0  0
  9 10  1  0  0  0
 10 11  2  0  0  0
 10 15  1  0  0  0
 11 12  1  0  0  0
 11  1  1  0  0  0
 12 13  2  0  0  0
 13 14  1  0  0  0
 14 15  1  0  0  0
 14 17  1  0  0  0
 15 16  2  0  0  0
 17 18  2  0  0  0
 17 22  1  0  0  0
 18 19  1  0  0  0
 19 20  2  0  0  0
 20 21  1  0  0  0
 21 22  2  0  0  0
  1  2  1  0  0  0
  1  6  1  0  0  0
  2  3  1  0  0  0
  3  4  1  0  0  0
  4  5  1  0  0  0
  4  7  1  0  0  0
  5  6  1  0  0  0
  7  8  2  0  0  0
  7 23  1  0  0  0
 23 24  1  0  0  0
 24 25  1  0  0  0
 25 26  2  0  0  0
 25 29  1  0  0  0
 26 27  1  0  0  0
 27 28  1  0  0  0
 28 29  2  0  0  0
 28 30  1  0  0  0
M  END
> <minimizedAffinity>
-8.14025

$$$$
2386


 30 33  0  0  0  0  0  0  0  0999 V2000
  -39.1213  -70.6650   53.2670 Cl  0  0  0  0  0  0  0  0  0  0  0  0
  -38.5685  -69.4616   52.1069 C   0  0  0  0  0  0  0  0  0  0  0  0
  -39.5447  -68.7007   51.4676 C   0  0  0  0  0  0  0  0  0  0  0  0
  -39.1285  -67.7556   50.5572 C   0  0  0  0  0  0  0  0  0  0  0  0
  -37.7758  -67.5798   50.2976 C   0  0  0  0  0  0  0  0  0  0  0  0
  -36.8084  -68.3431   50.9396 C   0  0  0  0  0  0  0  0  0  0  0  0
  -37.2275  -69.2931   51.8535 C   0  0  0  0  0  0  0  0  0  0  0  0
  -37.2794  -66.6519   49.3975 O   0  0  0  0  0  0  0  0  0  0  0  0
  -37.8649  -66.1172   48.2429 C   0  0  0  0  0  0  0  0  0  0  0  0
  -39.1352  -65.3727   48.4380 C   0  0  0  0  0  0  0  0  0  0  0  0
  -39.8935  -65.6901   49.6046 N   0  0  0  0  0  0  0  0  0  0  0  0
  -40.3050  -67.0481   49.9848 C   0  0  0  0  0  0  0  0  0  0  0  0
  -40.2969  -64.6360   50.4694 C   0  0  0  0  0  0  0  0  0  0  0  0
  -39.9605  -63.4750   50.1422 O   0  0  0  0  0  0  0  0  0  0  0  0
  -36.8389  -65.1766   47.5829 C   0  0  0  0  0  0  0  0  0  0  0  0
  -35.5553  -65.9549   47.4781 C   0  0  0  0  0  0  0  0  0  0  0  0
  -35.7020  -67.2784   47.8546 O   0  0  0  0  0  0  0  0  0  0  0  0
  -36.6781  -67.9365   47.1275 C   0  0  0  0  0  0  0  0  0  0  0  0
  -38.0215  -67.2448   47.2102 C   0  0  0  0  0  0  0  0  0  0  0  0
  -41.0690  -64.8697   51.6800 C   0  0  0  0  0  0  0  0  0  0  0  0
  -42.5073  -64.5480   51.6656 C   0  0  0  0  0  0  0  0  0  0  0  0
  -43.2806  -64.5900   52.9172 C   0  0  0  0  0  0  0  0  0  0  0  0
  -44.0880  -65.7110   53.2246 N   0  0  0  0  0  0  0  0  0  0  0  0
  -43.7883  -66.7038   54.1891 C   0  0  0  0  0  0  0  0  0  0  0  0
  -42.7796  -66.7850   54.9512 O   0  0  0  0  0  0  0  0  0  0  0  0
  -44.8516  -67.6399   54.1681 N   0  0  0  0  0  0  0  0  0  0  0  0
  -45.9869  -67.0435   53.4678 C   0  0  0  0  0  0  0  0  0  0  0  0
  -45.3227  -66.0344   52.6159 C   0  0  0  0  0  0  0  0  0  0  0  0
  -45.8040  -65.5572   51.5260 O   0  0  0  0  0  0  0  0  0  0  0  0
  -44.8642  -68.5982   54.5696 H   0  0  0  0  0  0  0  0  0  0  0  0
  1  2  1  0  0  0
  2  3  2  0  0  0
  2  7  1  0  0  0
  3  4  1  0  0  0
  4  5  2  0  0  0
  4 12  1  0  0  0
  5  6  1  0  0  0
  5  8  1  0  0  0
  6  7  2  0  0  0
  8  9  1  0  0  0
  9 10  1  0  0  0
  9 15  1  0  0  0
  9 19  1  0  0  0
 10 11  1  0  0  0
 11 12  1  0  0  0
 11 13  1  0  0  0
 13 14  2  0  0  0
 13 20  1  0  0  0
 20 21  1  0  0  0
 21 22  1  0  0  0
 22 23  1  0  0  0
 23 24  1  0  0  0
 23 28  1  0  0  0
 24 25  2  0  0  0
 24 26  1  0  0  0
 26 27  1  0  0  0
 27 28  1  0  0  0
 28 29  2  0  0  0
 15 16  1  0  0  0
 16 17  1  0  0  0
 17 18  1  0  0  0
 18 19  1  0  0  0
 26 30  1  0  0  0
M  END
> <minimizedAffinity>
-8.44865

$$$$
2402


 33 36  0  0  0  0  0  0  0  0999 V2000
  -38.6227  -64.6786   48.0858 C   0  0  0  0  0  0  0  0  0  0  0  0
  -39.0425  -63.3581   47.7223 N   0  0  0  0  0  0  0  0  0  0  0  0
  -39.8117  -62.7733   48.7618 C   0  0  0  0  0  0  0  0  0  0  0  0
  -40.2087  -61.5935   48.9186 O   0  0  0  0  0  0  0  0  0  0  0  0
  -40.1292  -63.8293   49.7510 C   0  0  0  0  0  0  0  0  0  0  0  0
  -40.7934  -63.6963   50.8092 O   0  0  0  0  0  0  0  0  0  0  0  0
  -39.5082  -65.0323   49.2291 C   0  0  0  0  0  0  0  0  0  0  0  0
  -39.7209  -66.2457   49.7538 C   0  0  0  0  0  0  0  0  0  0  0  0
  -39.0061  -67.2767   49.1309 O   0  0  0  0  0  0  0  0  0  0  0  0
  -40.6208  -66.4912   50.8747 C   0  0  0  0  0  0  0  0  0  0  0  0
  -41.8836  -66.2724   51.0070 O   0  0  0  0  0  0  0  0  0  0  0  0
  -42.3760  -66.6136   52.1604 C   0  0  0  0  0  0  0  0  0  0  0  0
  -41.3396  -67.1306   52.9228 C   0  0  0  0  0  0  0  0  0  0  0  0
  -40.2305  -67.0414   52.0794 C   0  0  0  0  0  0  0  0  0  0  0  0
  -41.5872  -67.5720   54.2009 C   0  0  0  0  0  0  0  0  0  0  0  0
  -42.8529  -67.5079   54.7361 C   0  0  0  0  0  0  0  0  0  0  0  0
  -43.8972  -66.9916   53.9794 C   0  0  0  0  0  0  0  0  0  0  0  0
  -43.6418  -66.5595   52.7166 C   0  0  0  0  0  0  0  0  0  0  0  0
  -44.6568  -66.0421   51.9391 O   0  0  0  0  0  0  0  0  0  0  0  0
  -44.9633  -64.6589   51.8283 C   0  0  0  0  0  0  0  0  0  0  0  0
  -32.5517  -65.4934   48.8223 Br  0  0  0  0  0  0  0  0  0  0  0  0
  -34.4350  -65.2006   48.6693 C   0  0  0  0  0  0  0  0  0  0  0  0
  -35.0719  -65.6955   47.5682 C   0  0  0  0  0  0  0  0  0  0  0  0
  -36.4144  -65.5051   47.4248 C   0  0  0  0  0  0  0  0  0  0  0  0
  -37.1996  -64.8289   48.3390 C   0  0  0  0  0  0  0  0  0  0  0  0
  -36.5318  -64.3403   49.4414 C   0  0  0  0  0  0  0  0  0  0  0  0
  -35.1605  -64.5178   49.6163 C   0  0  0  0  0  0  0  0  0  0  0  0
  -38.7447  -62.6858   46.4872 C   0  0  0  0  0  0  0  0  0  0  0  0
  -37.7400  -61.5663   46.6900 C   0  0  0  0  0  0  0  0  0  0  0  0
  -36.5280  -61.7501   45.9685 N   0  0  0  0  0  0  0  0  0  0  0  0
  -35.3495  -61.9306   46.7600 C   0  0  0  0  0  0  0  0  0  0  0  0
  -36.6599  -62.8239   44.9930 C   0  0  0  0  0  0  0  0  0  0  0  0
  -36.3660  -60.8678   45.3970 H   0  0  0  0  0  0  0  0  0  0  0  0
 21 22  1  0  0  0
 22 23  2  0  0  0
 22 27  1  0  0  0
 23 24  1  0  0  0
 24 25  2  0  0  0
 25 26  1  0  0  0
 25  1  1  0  0  0
 26 27  2  0  0  0
  1  2  1  0  0  0
  1  7  1  0  0  0
  2  3  1  0  0  0
  2 28  1  0  0  0
  3  4  2  0  0  0
  3  5  1  0  0  0
  5  6  2  0  0  0
  5  7  1  0  0  0
  7  8  2  0  0  0
  8  9  1  0  0  0
  8 10  1  0  0  0
 10 11  1  0  0  0
 10 14  2  0  0  0
 11 12  1  0  0  0
 12 13  2  0  0  0
 12 18  1  0  0  0
 13 14  1  0  0  0
 13 15  1  0  0  0
 15 16  2  0  0  0
 16 17  1  0  0  0
 17 18  2  0  0  0
 18 19  1  0  0  0
 19 20  1  0  0  0
 28 29  1  0  0  0
 29 30  1  0  0  0
 30 31  1  0  0  0
 30 32  1  0  0  0
 30 33  1  0  0  0
M  CHG 1   9  -1
M  CHG 1  30   1
M  END
> <minimizedAffinity>
-7.48548

$$$$
2403


 26 29  0  0  0  0  0  0  0  0999 V2000
  -43.8175  -65.6481   54.2719 C   0  0  0  0  0  0  0  0  0  0  0  0
  -44.9770  -65.8701   53.4307 N   0  0  0  0  0  0  0  0  0  0  0  0
  -45.3894  -65.2203   52.3327 C   0  0  0  0  0  0  0  0  0  0  0  0
  -46.5797  -65.7588   51.8557 C   0  0  0  0  0  0  0  0  0  0  0  0
  -46.8769  -66.7660   52.7105 N   0  0  0  0  0  0  0  0  0  0  0  0
  -45.9273  -66.8355   53.6468 C   0  0  0  0  0  0  0  0  0  0  0  0
  -47.2185  -65.3008   50.7596 N   0  0  0  0  0  0  0  0  0  0  0  0
  -46.6395  -64.2672   50.1204 C   0  0  0  0  0  0  0  0  0  0  0  0
  -47.2231  -63.8253   49.0930 O   0  0  0  0  0  0  0  0  0  0  0  0
  -45.4916  -63.7120   50.5379 N   0  0  0  0  0  0  0  0  0  0  0  0
  -44.8510  -64.1677   51.6346 C   0  0  0  0  0  0  0  0  0  0  0  0
  -43.7828  -63.6667   52.0365 O   0  0  0  0  0  0  0  0  0  0  0  0
  -44.8700  -62.5970   49.8451 C   0  0  0  0  0  0  0  0  0  0  0  0
  -48.4592  -65.9062   50.3150 C   0  0  0  0  0  0  0  0  0  0  0  0
  -37.4163  -69.6612   50.9776 Br  0  0  0  0  0  0  0  0  0  0  0  0
  -38.8965  -68.5787   51.4952 C   0  0  0  0  0  0  0  0  0  0  0  0
  -39.4736  -68.8150   52.7132 C   0  0  0  0  0  0  0  0  0  0  0  0
  -40.5232  -68.0598   53.0996 N   0  0  0  0  0  0  0  0  0  0  0  0
  -41.0011  -67.0882   52.3078 C   0  0  0  0  0  0  0  0  0  0  0  0
  -42.0628  -66.3244   52.6995 N   0  0  0  0  0  0  0  0  0  0  0  0
  -42.6597  -66.5235   53.8882 C   0  0  0  0  0  0  0  0  0  0  0  0
  -42.1548  -67.5226   54.6828 C   0  0  0  0  0  0  0  0  0  0  0  0
  -41.0854  -68.3105   54.3175 C   0  0  0  0  0  0  0  0  0  0  0  0
  -40.6125  -69.2181   55.0184 O   0  0  0  0  0  0  0  0  0  0  0  0
  -40.4227  -66.8414   51.0730 C   0  0  0  0  0  0  0  0  0  0  0  0
  -39.3543  -67.5929   50.6514 C   0  0  0  0  0  0  0  0  0  0  0  0
 15 16  1  0  0  0
 16 17  2  0  0  0
 16 26  1  0  0  0
 17 18  1  0  0  0
 18 19  1  0  0  0
 18 23  1  0  0  0
 19 20  2  0  0  0
 19 25  1  0  0  0
 20 21  1  0  0  0
 21 22  2  0  0  0
 21  1  1  0  0  0
 22 23  1  0  0  0
 23 24  2  0  0  0
  1  2  1  0  0  0
  2  3  1  0  0  0
  2  6  1  0  0  0
  3  4  2  0  0  0
  3 11  1  0  0  0
  4  5  1  0  0  0
  4  7  1  0  0  0
  5  6  2  0  0  0
  7  8  1  0  0  0
  7 14  1  0  0  0
  8  9  2  0  0  0
  8 10  1  0  0  0
 10 11  1  0  0  0
 10 13  1  0  0  0
 11 12  2  0  0  0
 25 26  2  0  0  0
M  END
> <minimizedAffinity>
-8.37939

$$$$
2416


 34 37  0  0  0  0  0  0  0  0999 V2000
  -37.4123  -63.6352   47.8537 N   0  0  0  0  0  0  0  0  0  0  0  0
  -38.4868  -62.8517   47.4439 C   0  0  0  0  0  0  0  0  0  0  0  0
  -39.7840  -63.6520   47.6230 C   0  0  0  0  0  0  0  0  0  0  0  0
  -39.7280  -64.3961   48.8822 N   0  0  0  0  0  0  0  0  0  0  0  0
  -38.6163  -65.3143   49.0321 C   0  0  0  0  0  0  0  0  0  0  0  0
  -37.6541  -65.0177   47.8725 C   0  0  0  0  0  0  0  0  0  0  0  0
  -40.7156  -64.1876   49.8852 C   0  0  0  0  0  0  0  0  0  0  0  0
  -41.6160  -63.3500   49.6441 O   0  0  0  0  0  0  0  0  0  0  0  0
  -35.8768  -63.0279   47.9978 S   0  0  0  0  0  0  0  0  0  0  0  0
  -35.4980  -62.3398   46.6992 O   0  0  0  0  0  0  0  0  0  0  0  0
  -35.7271  -61.9719   49.0730 O   0  0  0  0  0  0  0  0  0  0  0  0
  -34.6424  -64.2594   48.2843 C   0  0  0  0  0  0  0  0  0  0  0  0
  -34.4364  -64.7960   49.5342 C   0  0  0  0  0  0  0  0  0  0  0  0
  -33.4583  -65.7505   49.7093 C   0  0  0  0  0  0  0  0  0  0  0  0
  -32.6560  -66.2107   48.6818 C   0  0  0  0  0  0  0  0  0  0  0  0
  -32.8663  -65.6673   47.4204 C   0  0  0  0  0  0  0  0  0  0  0  0
  -33.8444  -64.7137   47.2509 C   0  0  0  0  0  0  0  0  0  0  0  0
  -31.4252  -67.4121   48.8927 Cl  0  0  0  0  0  0  0  0  0  0  0  0
  -40.6692  -64.9271   51.1461 C   0  0  0  0  0  0  0  0  0  0  0  0
  -41.6762  -66.0643   51.2375 C   0  0  0  0  0  0  0  0  0  0  0  0
  -42.1559  -66.3018   52.5734 N   0  0  0  0  0  0  0  0  0  0  0  0
  -41.9567  -67.3717   53.4863 C   0  0  0  0  0  0  0  0  0  0  0  0
  -42.7741  -67.5601   54.4257 O   0  0  0  0  0  0  0  0  0  0  0  0
  -40.8516  -68.3546   53.4790 C   0  0  0  0  0  0  0  0  0  0  0  0
  -40.0853  -68.7461   52.3757 C   0  0  0  0  0  0  0  0  0  0  0  0
  -39.0889  -69.6657   52.5408 C   0  0  0  0  0  0  0  0  0  0  0  0
  -38.7926  -70.2410   53.7780 C   0  0  0  0  0  0  0  0  0  0  0  0
  -39.5727  -69.8291   54.8590 C   0  0  0  0  0  0  0  0  0  0  0  0
  -40.5816  -68.9035   54.7064 C   0  0  0  0  0  0  0  0  0  0  0  0
  -40.2367  -68.2712   51.0464 N   0  0  0  0  0  0  0  0  0  0  0  0
  -41.1260  -67.2596   50.5631 C   0  0  0  0  0  0  0  0  0  0  0  0
  -41.4764  -67.4608   49.3469 O   0  0  0  0  0  0  0  0  0  0  0  0
  -42.7880  -65.5554   53.0030 H   0  0  0  0  0  0  0  0  0  0  0  0
  -39.6271  -68.7133   50.3590 H   0  0  0  0  0  0  0  0  0  0  0  0
  9 10  2  0  0  0
  9 11  2  0  0  0
  9  1  1  0  0  0
  9 12  1  0  0  0
  1  2  1  0  0  0
  1  6  1  0  0  0
  2  3  1  0  0  0
  3  4  1  0  0  0
  4  5  1  0  0  0
  4  7  1  0  0  0
  5  6  1  0  0  0
  7  8  2  0  0  0
  7 19  1  0  0  0
 19 20  1  0  0  0
 20 21  1  0  0  0
 20 31  1  0  0  0
 21 22  1  0  0  0
 22 23  2  0  0  0
 22 24  1  0  0  0
 24 25  2  0  0  0
 24 29  1  0  0  0
 25 26  1  0  0  0
 25 30  1  0  0  0
 26 27  2  0  0  0
 27 28  1  0  0  0
 28 29  2  0  0  0
 30 31  1  0  0  0
 31 32  2  0  0  0
 12 13  2  0  0  0
 12 17  1  0  0  0
 13 14  1  0  0  0
 14 15  2  0  0  0
 15 16  1  0  0  0
 15 18  1  0  0  0
 16 17  2  0  0  0
 21 33  1  0  0  0
 30 34  1  0  0  0
M  END
> <minimizedAffinity>
-9.31407

$$$$
2417


 27 30  0  0  0  0  0  0  0  0999 V2000
  -40.9096  -65.4013   49.8023 N   0  0  0  0  0  0  0  0  0  0  0  0
  -40.2814  -65.6692   48.4879 C   0  0  0  0  0  0  0  0  0  0  0  0
  -38.8672  -65.7934   48.8279 C   0  0  0  0  0  0  0  0  0  0  0  0
  -38.6556  -64.5173   49.6270 C   0  0  0  0  0  0  0  0  0  0  0  0
  -39.9556  -64.6746   50.5247 C   0  0  0  0  0  0  0  0  0  0  0  0
  -38.9434  -63.2968   48.8012 C   0  0  0  0  0  0  0  0  0  0  0  0
  -39.7804  -62.4205   49.5409 O   0  0  0  0  0  0  0  0  0  0  0  0
  -39.2246  -62.1521   50.3696 H   0  0  0  0  0  0  0  0  0  0  0  0
  -41.3428  -66.7088   50.3182 C   0  0  0  0  0  0  0  0  0  0  0  0
  -39.2387  -68.7374   51.1837 Cl  0  0  0  0  0  0  0  0  0  0  0  0
  -40.0403  -68.4317   52.7209 C   0  0  0  0  0  0  0  0  0  0  0  0
  -41.1337  -67.5990   52.7142 C   0  0  0  0  0  0  0  0  0  0  0  0
  -41.8171  -67.4408   53.8976 C   0  0  0  0  0  0  0  0  0  0  0  0
  -42.7772  -66.5300   53.6256 N   0  0  0  0  0  0  0  0  0  0  0  0
  -42.6786  -66.1462   52.3809 N   0  0  0  0  0  0  0  0  0  0  0  0
  -41.6452  -66.7891   51.7250 C   0  0  0  0  0  0  0  0  0  0  0  0
  -43.8374  -66.1410   54.5719 C   0  0  0  0  0  0  0  0  0  0  0  0
  -41.4456  -68.0598   55.0521 C   0  0  0  0  0  0  0  0  0  0  0  0
  -40.3274  -68.8989   55.0417 C   0  0  0  0  0  0  0  0  0  0  0  0
  -39.6234  -69.0753   53.8548 C   0  0  0  0  0  0  0  0  0  0  0  0
  -37.9114  -65.8453   47.6619 C   0  0  0  0  0  0  0  0  0  0  0  0
  -36.7713  -66.6167   48.0460 N   0  0  0  0  0  0  0  0  0  0  0  0
  -36.5316  -67.7460   47.1723 C   0  0  0  0  0  0  0  0  0  0  0  0
  -35.1678  -67.7293   46.5216 C   0  0  0  0  0  0  0  0  0  0  0  0
  -34.1247  -67.6037   47.4101 O   0  0  0  0  0  0  0  0  0  0  0  0
  -34.4304  -66.7797   48.4894 C   0  0  0  0  0  0  0  0  0  0  0  0
  -35.5454  -65.8549   48.1074 C   0  0  0  0  0  0  0  0  0  0  0  0
 10 11  1  0  0  0
 11 12  2  0  0  0
 11 20  1  0  0  0
 12 13  1  0  0  0
 12 16  1  0  0  0
 13 14  1  0  0  0
 13 18  2  0  0  0
 14 15  1  0  0  0
 14 17  1  0  0  0
 15 16  2  0  0  0
 16  9  1  0  0  0
  9  1  1  0  0  0
  1  2  1  0  0  0
  1  5  1  0  0  0
  2  3  1  0  0  0
  3  4  1  0  0  0
  3 21  1  0  0  0
  4  5  1  0  0  0
  4  6  1  0  0  0
  6  7  1  0  0  0
 21 22  1  0  0  0
 22 23  1  0  0  0
 22 27  1  0  0  0
 23 24  1  0  0  0
 24 25  1  0  0  0
 25 26  1  0  0  0
 26 27  1  0  0  0
 18 19  1  0  0  0
 19 20  2  0  0  0
  7  8  1  0  0  0
M  END
> <minimizedAffinity>
-8.00563

$$$$
2419


 32 36  0  0  0  0  0  0  0  0999 V2000
  -37.6385  -67.6765   49.6449 C   0  0  0  0  0  0  0  0  0  0  0  0
  -37.5471  -68.4954   50.7826 C   0  0  0  0  0  0  0  0  0  0  0  0
  -38.6979  -68.3752   51.4322 N   0  0  0  0  0  0  0  0  0  0  0  0
  -39.3000  -68.8439   52.5678 C   0  0  0  0  0  0  0  0  0  0  0  0
  -40.5365  -68.2497   52.5932 C   0  0  0  0  0  0  0  0  0  0  0  0
  -40.6271  -67.4796   51.5197 N   0  0  0  0  0  0  0  0  0  0  0  0
  -39.4821  -67.5487   50.7818 C   0  0  0  0  0  0  0  0  0  0  0  0
  -38.8446  -67.0984   49.6607 N   0  0  0  0  0  0  0  0  0  0  0  0
  -41.4430  -68.4986   53.6278 C   0  0  0  0  0  0  0  0  0  0  0  0
  -41.0955  -69.3593   54.6465 C   0  0  0  0  0  0  0  0  0  0  0  0
  -39.8498  -69.9428   54.5974 C   0  0  0  0  0  0  0  0  0  0  0  0
  -38.9424  -69.6998   53.5730 C   0  0  0  0  0  0  0  0  0  0  0  0
  -41.4654  -66.9065   51.3068 H   0  0  0  0  0  0  0  0  0  0  0  0
  -32.8592  -66.9859   45.7915 Br  0  0  0  0  0  0  0  0  0  0  0  0
  -34.3606  -67.2060   46.9775 C   0  0  0  0  0  0  0  0  0  0  0  0
  -34.3079  -66.8062   48.2775 C   0  0  0  0  0  0  0  0  0  0  0  0
  -35.3752  -66.9642   49.1141 C   0  0  0  0  0  0  0  0  0  0  0  0
  -36.5589  -67.5352   48.6923 C   0  0  0  0  0  0  0  0  0  0  0  0
  -36.6131  -67.9335   47.3999 C   0  0  0  0  0  0  0  0  0  0  0  0
  -35.5150  -67.7765   46.5196 C   0  0  0  0  0  0  0  0  0  0  0  0
  -39.4704  -66.1673   48.7725 C   0  0  0  0  0  0  0  0  0  0  0  0
  -39.6143  -64.7750   49.2386 C   0  0  0  0  0  0  0  0  0  0  0  0
  -39.0680  -63.6774   48.3989 C   0  0  0  0  0  0  0  0  0  0  0  0
  -37.9189  -63.0474   49.0108 N   0  0  0  0  0  0  0  0  0  0  0  0
  -38.0807  -62.1528   49.4665 H   0  0  0  0  0  0  0  0  0  0  0  0
  -37.6436  -63.7023   49.8307 H   0  0  0  0  0  0  0  0  0  0  0  0
  -36.7655  -63.0253   48.1607 C   0  0  0  0  0  0  0  0  0  0  0  0
  -35.4458  -63.0751   48.8773 C   0  0  0  0  0  0  0  0  0  0  0  0
  -34.3994  -62.5567   47.8797 C   0  0  0  0  0  0  0  0  0  0  0  0
  -34.3651  -63.4764   46.7086 C   0  0  0  0  0  0  0  0  0  0  0  0
  -35.7190  -63.7163   46.0817 C   0  0  0  0  0  0  0  0  0  0  0  0
  -36.7326  -64.1585   47.1432 C   0  0  0  0  0  0  0  0  0  0  0  0
 14 15  1  0  0  0
 15 16  2  0  0  0
 15 20  1  0  0  0
 16 17  1  0  0  0
 17 18  2  0  0  0
 18 19  1  0  0  0
 18  1  1  0  0  0
 19 20  2  0  0  0
  1  2  2  0  0  0
  1  8  1  0  0  0
  2  3  1  0  0  0
  3  4  1  0  0  0
  3  7  1  0  0  0
  4  5  2  0  0  0
  4 12  1  0  0  0
  5  6  1  0  0  0
  5  9  1  0  0  0
  6  7  2  0  0  0
  7  8  1  0  0  0
  8 21  1  0  0  0
 21 22  1  0  0  0
 22 23  1  0  0  0
 23 24  1  0  0  0
 24 27  1  0  0  0
 27 28  1  0  0  0
 27 32  1  0  0  0
 28 29  1  0  0  0
 29 30  1  0  0  0
 30 31  1  0  0  0
 31 32  1  0  0  0
  9 10  2  0  0  0
 10 11  1  0  0  0
 11 12  2  0  0  0
  6 13  1  0  0  0
 24 25  1  0  0  0
 24 26  1  0  0  0
M  CHG 1  24   1
M  END
> <minimizedAffinity>
-7.47823

$$$$
2420


 29 32  0  0  0  0  0  0  0  0999 V2000
  -40.6159  -68.2830   53.0800 N   0  0  0  0  0  0  0  0  0  0  0  0
  -40.5489  -69.4896   52.2578 C   0  0  0  0  0  0  0  0  0  0  0  0
  -39.2325  -70.1089   52.6713 C   0  0  0  0  0  0  0  0  0  0  0  0
  -39.2551  -69.9303   54.1848 C   0  0  0  0  0  0  0  0  0  0  0  0
  -40.0944  -68.6914   54.3480 C   0  0  0  0  0  0  0  0  0  0  0  0
  -40.3129  -68.0903   55.4417 O   0  0  0  0  0  0  0  0  0  0  0  0
  -46.5345  -64.4223   53.0231 Br  0  0  0  0  0  0  0  0  0  0  0  0
  -44.8530  -65.3112   52.9557 C   0  0  0  0  0  0  0  0  0  0  0  0
  -43.7436  -64.6841   52.4344 C   0  0  0  0  0  0  0  0  0  0  0  0
  -42.5316  -65.3055   52.3786 C   0  0  0  0  0  0  0  0  0  0  0  0
  -41.2891  -64.9614   51.9359 N   0  0  0  0  0  0  0  0  0  0  0  0
  -40.4559  -65.9727   52.1278 N   0  0  0  0  0  0  0  0  0  0  0  0
  -41.0952  -67.0059   52.6919 C   0  0  0  0  0  0  0  0  0  0  0  0
  -42.4110  -66.5886   52.8529 C   0  0  0  0  0  0  0  0  0  0  0  0
  -43.5143  -67.2449   53.3842 C   0  0  0  0  0  0  0  0  0  0  0  0
  -44.7374  -66.6156   53.4400 C   0  0  0  0  0  0  0  0  0  0  0  0
  -41.1244  -64.0104   51.5215 H   0  0  0  0  0  0  0  0  0  0  0  0
  -38.0754  -69.3907   52.0859 C   0  0  0  0  0  0  0  0  0  0  0  0
  -36.9575  -69.5117   52.6459 O   0  0  0  0  0  0  0  0  0  0  0  0
  -38.1854  -68.5819   50.9321 N   0  0  0  0  0  0  0  0  0  0  0  0
  -39.1375  -68.5029   50.4918 H   0  0  0  0  0  0  0  0  0  0  0  0
  -37.0654  -67.8819   50.3576 C   0  0  0  0  0  0  0  0  0  0  0  0
  -37.2238  -67.8229   48.8531 C   0  0  0  0  0  0  0  0  0  0  0  0
  -37.3860  -66.4783   48.3573 N   0  0  0  0  0  0  0  0  0  0  0  0
  -38.6201  -66.4461   47.5804 C   0  0  0  0  0  0  0  0  0  0  0  0
  -39.8195  -66.2331   48.4999 C   0  0  0  0  0  0  0  0  0  0  0  0
  -39.8323  -64.9832   49.0733 O   0  0  0  0  0  0  0  0  0  0  0  0
  -38.5576  -64.4665   49.0768 C   0  0  0  0  0  0  0  0  0  0  0  0
  -37.5164  -65.5112   49.4234 C   0  0  0  0  0  0  0  0  0  0  0  0
  7  8  1  0  0  0
  8  9  2  0  0  0
  8 16  1  0  0  0
  9 10  1  0  0  0
 10 11  1  0  0  0
 10 14  2  0  0  0
 11 12  1  0  0  0
 12 13  2  0  0  0
 13 14  1  0  0  0
 13  1  1  0  0  0
 14 15  1  0  0  0
 15 16  2  0  0  0
  1  2  1  0  0  0
  1  5  1  0  0  0
  2  3  1  0  0  0
  3  4  1  0  0  0
  3 18  1  0  0  0
  4  5  1  0  0  0
  5  6  2  0  0  0
 18 19  2  0  0  0
 18 20  1  0  0  0
 20 22  1  0  0  0
 22 23  1  0  0  0
 23 24  1  0  0  0
 24 25  1  0  0  0
 24 29  1  0  0  0
 25 26  1  0  0  0
 26 27  1  0  0  0
 27 28  1  0  0  0
 28 29  1  0  0  0
 11 17  1  0  0  0
 20 21  1  0  0  0
M  END
> <minimizedAffinity>
-7.50072

$$$$
2432


 26 29  0  0  0  0  0  0  0  0999 V2000
  -40.9466  -66.5647   49.9506 C   0  0  0  0  0  0  0  0  0  0  0  0
  -41.3458  -67.6229   49.2695 O   0  0  0  0  0  0  0  0  0  0  0  0
  -40.1711  -65.6374   49.2729 N   0  0  0  0  0  0  0  0  0  0  0  0
  -39.8182  -65.9300   47.8625 C   0  0  0  0  0  0  0  0  0  0  0  0
  -38.3155  -66.0073   47.8188 C   0  0  0  0  0  0  0  0  0  0  0  0
  -37.6628  -65.6482   49.0377 N   0  0  0  0  0  0  0  0  0  0  0  0
  -38.1706  -64.6604   49.9784 C   0  0  0  0  0  0  0  0  0  0  0  0
  -39.6469  -64.4008   49.7206 C   0  0  0  0  0  0  0  0  0  0  0  0
  -36.4368  -66.2737   49.3936 C   0  0  0  0  0  0  0  0  0  0  0  0
  -35.2545  -65.7566   49.0099 N   0  0  0  0  0  0  0  0  0  0  0  0
  -34.0777  -66.3402   49.3379 C   0  0  0  0  0  0  0  0  0  0  0  0
  -34.0587  -67.4690   50.0675 N   0  0  0  0  0  0  0  0  0  0  0  0
  -35.1948  -68.0475   50.4891 C   0  0  0  0  0  0  0  0  0  0  0  0
  -35.4448  -69.1525   51.2158 N   0  0  0  0  0  0  0  0  0  0  0  0
  -36.7537  -69.2504   51.3341 N   0  0  0  0  0  0  0  0  0  0  0  0
  -37.3691  -68.2266   50.6974 C   0  0  0  0  0  0  0  0  0  0  0  0
  -36.4020  -67.4313   50.1413 C   0  0  0  0  0  0  0  0  0  0  0  0
  -34.4754  -70.0907   51.7825 C   0  0  0  0  0  0  0  0  0  0  0  0
  -43.6401  -65.6281   54.4131 Cl  0  0  0  0  0  0  0  0  0  0  0  0
  -42.5098  -66.2467   53.2284 C   0  0  0  0  0  0  0  0  0  0  0  0
  -42.3898  -65.9049   51.9154 N   0  0  0  0  0  0  0  0  0  0  0  0
  -41.4133  -66.5849   51.3125 C   0  0  0  0  0  0  0  0  0  0  0  0
  -40.8968  -67.4014   52.3269 C   0  0  0  0  0  0  0  0  0  0  0  0
  -41.5677  -67.1985   53.5097 C   0  0  0  0  0  0  0  0  0  0  0  0
  -41.2951  -67.9763   55.0541 Cl  0  0  0  0  0  0  0  0  0  0  0  0
  -43.0272  -65.1789   51.5317 H   0  0  0  0  0  0  0  0  0  0  0  0
 19 20  1  0  0  0
 20 21  1  0  0  0
 20 24  2  0  0  0
 21 22  1  0  0  0
 22 23  2  0  0  0
 22  1  1  0  0  0
 23 24  1  0  0  0
 24 25  1  0  0  0
  1  2  2  0  0  0
  1  3  1  0  0  0
  3  4  1  0  0  0
  3  8  1  0  0  0
  4  5  1  0  0  0
  5  6  1  0  0  0
  6  7  1  0  0  0
  6  9  1  0  0  0
  7  8  1  0  0  0
  9 10  2  0  0  0
  9 17  1  0  0  0
 10 11  1  0  0  0
 11 12  2  0  0  0
 12 13  1  0  0  0
 13 14  1  0  0  0
 13 17  2  0  0  0
 14 15  1  0  0  0
 14 18  1  0  0  0
 15 16  2  0  0  0
 16 17  1  0  0  0
 21 26  1  0  0  0
M  END
> <minimizedAffinity>
-7.43861

$$$$
2439


 30 34  0  0  0  0  0  0  0  0999 V2000
  -37.3162  -67.7151   49.4531 C   0  0  0  0  0  0  0  0  0  0  0  0
  -37.2047  -68.5818   50.5552 C   0  0  0  0  0  0  0  0  0  0  0  0
  -38.3205  -68.5104   51.2777 N   0  0  0  0  0  0  0  0  0  0  0  0
  -38.9135  -69.0014   52.3969 C   0  0  0  0  0  0  0  0  0  0  0  0
  -40.1261  -68.4082   52.4865 C   0  0  0  0  0  0  0  0  0  0  0  0
  -40.2416  -67.5828   51.4360 N   0  0  0  0  0  0  0  0  0  0  0  0
  -39.1266  -67.6355   50.6735 C   0  0  0  0  0  0  0  0  0  0  0  0
  -38.5218  -67.1365   49.5459 N   0  0  0  0  0  0  0  0  0  0  0  0
  -40.9801  -68.7059   53.5336 C   0  0  0  0  0  0  0  0  0  0  0  0
  -40.6104  -69.6155   54.5112 C   0  0  0  0  0  0  0  0  0  0  0  0
  -39.3660  -70.2244   54.4187 C   0  0  0  0  0  0  0  0  0  0  0  0
  -38.5425  -69.9046   53.3627 C   0  0  0  0  0  0  0  0  0  0  0  0
  -41.0722  -66.9689   51.2300 H   0  0  0  0  0  0  0  0  0  0  0  0
  -32.4904  -66.9614   45.6314 Br  0  0  0  0  0  0  0  0  0  0  0  0
  -33.9739  -67.1927   46.7903 C   0  0  0  0  0  0  0  0  0  0  0  0
  -33.9109  -66.8643   48.1131 C   0  0  0  0  0  0  0  0  0  0  0  0
  -35.0112  -67.0462   48.9277 C   0  0  0  0  0  0  0  0  0  0  0  0
  -36.2283  -67.5597   48.4811 C   0  0  0  0  0  0  0  0  0  0  0  0
  -36.2792  -67.8828   47.1607 C   0  0  0  0  0  0  0  0  0  0  0  0
  -35.1542  -67.6997   46.3206 C   0  0  0  0  0  0  0  0  0  0  0  0
  -39.1151  -66.1616   48.6919 C   0  0  0  0  0  0  0  0  0  0  0  0
  -39.1030  -64.7469   49.2113 C   0  0  0  0  0  0  0  0  0  0  0  0
  -37.7964  -64.1561   49.5031 C   0  0  0  0  0  0  0  0  0  0  0  0
  -37.3742  -62.9821   48.7973 N   0  0  0  0  0  0  0  0  0  0  0  0
  -35.9315  -62.8196   48.8021 C   0  0  0  0  0  0  0  0  0  0  0  0
  -35.1976  -63.4819   47.7148 C   0  0  0  0  0  0  0  0  0  0  0  0
  -36.0048  -64.0138   46.5896 C   0  0  0  0  0  0  0  0  0  0  0  0
  -37.1989  -63.1644   46.3337 C   0  0  0  0  0  0  0  0  0  0  0  0
  -37.9856  -62.7832   47.5315 C   0  0  0  0  0  0  0  0  0  0  0  0
  -37.6823  -62.1895   49.4043 H   0  0  0  0  0  0  0  0  0  0  0  0
 14 15  1  0  0  0
 15 16  2  0  0  0
 15 20  1  0  0  0
 16 17  1  0  0  0
 17 18  2  0  0  0
 18 19  1  0  0  0
 18  1  1  0  0  0
 19 20  2  0  0  0
  1  2  2  0  0  0
  1  8  1  0  0  0
  2  3  1  0  0  0
  3  4  1  0  0  0
  3  7  1  0  0  0
  4  5  2  0  0  0
  4 12  1  0  0  0
  5  6  1  0  0  0
  5  9  1  0  0  0
  6  7  2  0  0  0
  7  8  1  0  0  0
  8 21  1  0  0  0
 21 22  1  0  0  0
 22 23  1  0  0  0
 23 24  1  0  0  0
 24 25  1  0  0  0
 24 29  1  0  0  0
 25 26  1  0  0  0
 26 27  1  0  0  0
 27 28  1  0  0  0
 28 29  1  0  0  0
  9 10  2  0  0  0
 10 11  1  0  0  0
 11 12  2  0  0  0
  6 13  1  0  0  0
 24 30  1  0  0  0
M  CHG 1  24   1
M  END
> <minimizedAffinity>
-7.68131

$$$$
2440


 33 36  0  0  0  0  0  0  0  0999 V2000
  -44.5824  -66.6345   53.2238 Cl  0  0  0  0  0  0  0  0  0  0  0  0
  -42.8781  -67.0267   53.4297 C   0  0  0  0  0  0  0  0  0  0  0  0
  -42.0807  -67.0448   52.2757 C   0  0  0  0  0  0  0  0  0  0  0  0
  -40.7572  -67.3497   52.4404 C   0  0  0  0  0  0  0  0  0  0  0  0
  -40.2201  -67.6336   53.7137 C   0  0  0  0  0  0  0  0  0  0  0  0
  -41.0101  -67.6132   54.8350 C   0  0  0  0  0  0  0  0  0  0  0  0
  -42.3421  -67.3051   54.6635 C   0  0  0  0  0  0  0  0  0  0  0  0
  -40.1158  -67.2992   51.1195 C   0  0  0  0  0  0  0  0  0  0  0  0
  -39.3769  -68.4608   50.7753 N   0  0  0  0  0  0  0  0  0  0  0  0
  -38.3193  -68.1624   49.9135 C   0  0  0  0  0  0  0  0  0  0  0  0
  -38.1186  -66.6681   50.0411 C   0  0  0  0  0  0  0  0  0  0  0  0
  -39.0874  -66.1712   51.0640 C   0  0  0  0  0  0  0  0  0  0  0  0
  -39.6711  -64.9036   50.5520 C   0  0  0  0  0  0  0  0  0  0  0  0
  -40.4445  -64.1716   51.2126 O   0  0  0  0  0  0  0  0  0  0  0  0
  -39.1921  -64.7062   49.2211 N   0  0  0  0  0  0  0  0  0  0  0  0
  -38.5383  -65.9238   48.8334 C   0  0  0  0  0  0  0  0  0  0  0  0
  -38.3613  -66.2803   47.6578 O   0  0  0  0  0  0  0  0  0  0  0  0
  -41.1913  -66.9786   50.1765 C   0  0  0  0  0  0  0  0  0  0  0  0
  -41.1349  -66.8565   48.9132 O   0  0  0  0  0  0  0  0  0  0  0  0
  -42.3905  -66.8095   50.9076 N   0  0  0  0  0  0  0  0  0  0  0  0
  -39.9311  -69.3120   50.5850 H   0  0  0  0  0  0  0  0  0  0  0  0
  -43.3445  -66.5589   50.5556 H   0  0  0  0  0  0  0  0  0  0  0  0
  -39.3129  -63.5379   48.4042 C   0  0  0  0  0  0  0  0  0  0  0  0
  -38.1252  -62.6450   48.3611 C   0  0  0  0  0  0  0  0  0  0  0  0
  -37.1297  -62.9123   47.2887 C   0  0  0  0  0  0  0  0  0  0  0  0
  -35.8626  -63.5572   47.8390 C   0  0  0  0  0  0  0  0  0  0  0  0
  -37.0608  -68.9329   50.0166 C   0  0  0  0  0  0  0  0  0  0  0  0
  -36.4522  -69.1079   51.3502 C   0  0  0  0  0  0  0  0  0  0  0  0
  -34.9883  -69.1479   51.4279 C   0  0  0  0  0  0  0  0  0  0  0  0
  -34.3830  -70.2358   51.4170 O   0  0  0  0  0  0  0  0  0  0  0  0
  -34.1861  -67.9732   51.5165 N   0  0  0  0  0  0  0  0  0  0  0  0
  -34.0860  -67.2895   50.7454 H   0  0  0  0  0  0  0  0  0  0  0  0
  -33.6753  -67.7885   52.3963 H   0  0  0  0  0  0  0  0  0  0  0  0
  1  2  1  0  0  0
  2  3  2  0  0  0
  2  7  1  0  0  0
  3  4  1  0  0  0
  3 20  1  0  0  0
  4  5  2  0  0  0
  4  8  1  0  0  0
  5  6  1  0  0  0
  6  7  2  0  0  0
  8  9  1  0  0  0
  8 12  1  0  0  0
  8 18  1  0  0  0
  9 10  1  0  0  0
 10 11  1  0  0  0
 10 27  1  0  0  0
 11 12  1  0  0  0
 11 16  1  0  0  0
 12 13  1  0  0  0
 13 14  2  0  0  0
 13 15  1  0  0  0
 15 16  1  0  0  0
 15 23  1  0  0  0
 16 17  2  0  0  0
 23 24  1  0  0  0
 24 25  1  0  0  0
 25 26  1  0  0  0
 27 28  1  0  0  0
 28 29  1  0  0  0
 29 30  2  0  0  0
 29 31  1  0  0  0
 18 19  2  0  0  0
 18 20  1  0  0  0
  9 21  1  0  0  0
 31 32  1  0  0  0
 31 33  1  0  0  0
 20 22  1  0  0  0
M  END
> <minimizedAffinity>
-7.20784

$$$$
2447


 33 36  0  0  0  0  0  0  0  0999 V2000
  -34.8071  -65.6868   49.2567 C   0  0  0  0  0  0  0  0  0  0  0  0
  -34.9887  -66.9166   50.0811 C   0  0  0  0  0  0  0  0  0  0  0  0
  -34.1859  -67.2483   50.9856 O   0  0  0  0  0  0  0  0  0  0  0  0
  -36.1241  -67.6517   49.7507 O   0  0  0  0  0  0  0  0  0  0  0  0
  -37.2776  -67.1171   49.2159 C   0  0  0  0  0  0  0  0  0  0  0  0
  -37.3116  -65.7845   48.9965 C   0  0  0  0  0  0  0  0  0  0  0  0
  -36.1451  -64.9979   49.3348 C   0  0  0  0  0  0  0  0  0  0  0  0
  -36.2195  -63.8066   49.6799 O   0  0  0  0  0  0  0  0  0  0  0  0
  -33.7091  -64.8093   49.7439 C   0  0  0  0  0  0  0  0  0  0  0  0
  -33.1358  -63.2721   45.9592 N   0  0  0  0  0  0  0  0  0  0  0  0
  -34.0093  -62.8737   47.0113 C   0  0  0  0  0  0  0  0  0  0  0  0
  -33.2434  -62.9122   48.3192 C   0  0  0  0  0  0  0  0  0  0  0  0
  -32.9935  -64.2984   48.6280 N   0  0  0  0  0  0  0  0  0  0  0  0
  -32.8235  -65.1484   47.5088 C   0  0  0  0  0  0  0  0  0  0  0  0
  -32.2478  -64.3133   46.3641 C   0  0  0  0  0  0  0  0  0  0  0  0
  -32.4052  -61.9897   45.1171 S   0  0  0  0  0  0  0  0  0  0  0  0
  -33.3847  -60.9169   44.6916 O   0  0  0  0  0  0  0  0  0  0  0  0
  -31.4247  -61.3058   46.0606 O   0  0  0  0  0  0  0  0  0  0  0  0
  -31.4976  -62.4944   43.7043 C   0  0  0  0  0  0  0  0  0  0  0  0
  -38.5101  -65.1374   48.4456 C   0  0  0  0  0  0  0  0  0  0  0  0
  -39.6654  -65.2289   49.2394 N   0  0  0  0  0  0  0  0  0  0  0  0
  -39.6694  -64.7822   50.5663 C   0  0  0  0  0  0  0  0  0  0  0  0
  -40.8129  -65.4561   51.3582 C   0  0  0  0  0  0  0  0  0  0  0  0
  -40.7014  -66.8583   51.0474 N   0  0  0  0  0  0  0  0  0  0  0  0
  -41.0592  -67.1991   49.6779 C   0  0  0  0  0  0  0  0  0  0  0  0
  -40.7479  -66.0157   48.7717 C   0  0  0  0  0  0  0  0  0  0  0  0
  -40.2703  -67.8158   51.9862 C   0  0  0  0  0  0  0  0  0  0  0  0
  -40.6817  -67.8405   53.2994 C   0  0  0  0  0  0  0  0  0  0  0  0
  -40.2310  -68.8021   54.1734 C   0  0  0  0  0  0  0  0  0  0  0  0
  -39.3507  -69.7870   53.7908 C   0  0  0  0  0  0  0  0  0  0  0  0
  -38.9224  -69.7888   52.4886 C   0  0  0  0  0  0  0  0  0  0  0  0
  -39.3745  -68.8202   51.6044 C   0  0  0  0  0  0  0  0  0  0  0  0
  -40.7879  -68.7797   55.8248 Cl  0  0  0  0  0  0  0  0  0  0  0  0
 16 17  2  0  0  0
 16 18  2  0  0  0
 16 10  1  0  0  0
 16 19  1  0  0  0
 10 11  1  0  0  0
 10 15  1  0  0  0
 11 12  1  0  0  0
 12 13  1  0  0  0
 13 14  1  0  0  0
 13  9  1  0  0  0
 14 15  1  0  0  0
  9  1  1  0  0  0
  1  2  1  0  0  0
  1  7  1  0  0  0
  2  3  2  0  0  0
  2  4  1  0  0  0
  4  5  1  0  0  0
  5  6  2  0  0  0
  6  7  1  0  0  0
  6 20  1  0  0  0
  7  8  2  0  0  0
 20 21  1  0  0  0
 21 22  1  0  0  0
 21 26  1  0  0  0
 22 23  1  0  0  0
 23 24  1  0  0  0
 24 25  1  0  0  0
 24 27  1  0  0  0
 25 26  1  0  0  0
 27 28  2  0  0  0
 27 32  1  0  0  0
 28 29  1  0  0  0
 29 30  2  0  0  0
 29 33  1  0  0  0
 30 31  1  0  0  0
 31 32  2  0  0  0
M  END
> <minimizedAffinity>
-8.14362

$$$$
