# created with PyMOL 2.5.2
@<TRIPOS>MOLECULE
out/docking_results/vina_output/2jam_docked_ligand.pdbqt
32 34 1                 
SMALL
USER_CHARGES
@<TRIPOS>ATOM
1	   C	10.401	5.152	11.850	C.2	1	UNK0	0.000	
2	   C	9.286	5.987	12.051	C.2	1	UNK0	0.000	
3	   C	9.665	6.992	12.930	C.2	1	UNK0	0.000	
4	   C	10.996	6.730	13.242	C.2	1	UNK0	0.000	
5	   C	7.903	5.820	11.408	C.3	1	UNK0	0.000	
6	   C	11.912	7.505	14.189	C.3	1	UNK0	0.000	
7	   N	11.408	5.647	12.588	N.pl3	1	UNK0	0.000	
8	   H	12.338	5.256	12.640	 H	1	UNK0	0.000	
9	   C	10.374	4.027	11.015	C.2	1	UNK0	0.000	
10	   C	11.495	3.305	10.523	C.2	1	UNK0	0.000	
11	   C	11.388	2.069	9.859	C.2	1	UNK0	0.000	
12	   C	12.869	3.599	10.514	C.2	1	UNK0	0.000	
13	   C	10.306	1.260	9.547	C.2	1	UNK0	0.000	
14	   C	12.688	1.673	9.493	C.2	1	UNK0	0.000	
15	   C	10.517	0.058	8.870	C.2	1	UNK0	0.000	
16	   C	11.812	-0.349	8.499	C.2	1	UNK0	0.000	
17	  Cl	9.155	-0.940	8.517	Cl	1	UNK0	0.000	
18	   C	12.901	0.463	8.821	C.2	1	UNK0	0.000	
19	   N	13.538	2.627	9.910	N.pl3	1	UNK0	0.000	
20	   O	13.445	4.585	10.992	O.2	1	UNK0	0.000	
21	   C	8.800	8.160	13.530	C.2	1	UNK0	0.000	
22	   N	8.806	9.336	12.898	N.pl3	1	UNK0	0.000	
23	   H	9.386	9.434	12.076	 H	1	UNK0	0.000	
24	   O	8.103	7.949	14.517	O.2	1	UNK0	0.000	
25	   C	8.006	10.510	13.337	C.3	1	UNK0	0.000	
26	   C	6.609	10.370	12.678	C.3	1	UNK0	0.000	
27	   N	5.609	9.572	13.444	N.3	1	UNK0	0.000	
28	   H	6.158	8.974	14.046	 H	1	UNK0	0.000	
29	   C	4.793	8.703	12.560	C.3	1	UNK0	0.000	
30	   C	5.422	8.525	11.167	C.3	1	UNK0	0.000	
31	   C	4.756	10.380	14.352	C.3	1	UNK0	0.000	
32	   C	5.268	10.246	15.796	C.3	1	UNK0	0.000	
@<TRIPOS>BOND
1 1 2 2
2 1 7 1
3 2 3 1
4 3 4 2
5 3 21 1
6 4 6 1
7 2 5 1
8 7 8 1
9 4 7 1
10 1 9 1
11 9 10 2
12 10 11 1
13 10 12 1
14 12 20 2
15 11 13 1
16 11 14 2
17 14 19 1
18 13 15 2
19 16 18 2
20 15 16 1
21 15 17 1
22 14 18 1
23 12 19 1
24 21 24 2
25 22 25 1
26 21 22 1
27 22 23 1
28 25 26 1
29 26 27 1
30 27 28 1
31 27 31 1
32 27 29 1
33 29 30 1
34 31 32 1
@<TRIPOS>SUBSTRUCTURE
1	UNK0	1	GROUP	1 ****	UNK
