out/docking_results/vina_output/2jam_docked_ligand.pdbqt
 OpenBabel03072216103D

 32 34  0  0  0  0  0  0  0  0999 V2000
   10.4010    5.1520   11.8500 C   0  0  0  0  0  0  0  0  0  0  0  0
    9.2860    5.9870   12.0510 C   0  0  0  0  0  0  0  0  0  0  0  0
    9.6650    6.9920   12.9300 C   0  0  0  0  0  0  0  0  0  0  0  0
   10.9960    6.7300   13.2420 C   0  0  0  0  0  0  0  0  0  0  0  0
    7.9030    5.8200   11.4080 C   0  0  0  0  0  1  0  0  0  0  0  0
   11.9120    7.5050   14.1890 C   0  0  0  0  0  1  0  0  0  0  0  0
   11.4080    5.6470   12.5880 N   0  0  0  0  0  0  0  0  0  0  0  0
   12.3380    5.2560   12.6400 H   0  0  0  0  0  0  0  0  0  0  0  0
   10.3740    4.0270   11.0150 C   0  0  0  0  0  3  0  0  0  0  0  0
   11.4950    3.3050   10.5230 C   0  0  0  0  0  0  0  0  0  0  0  0
   11.3880    2.0690    9.8590 C   0  0  0  0  0  0  0  0  0  0  0  0
   12.8690    3.5990   10.5140 C   0  0  0  0  0  0  0  0  0  0  0  0
   10.3060    1.2600    9.5470 C   0  0  0  0  0  3  0  0  0  0  0  0
   12.6880    1.6730    9.4930 C   0  0  0  0  0  0  0  0  0  0  0  0
   10.5170    0.0580    8.8700 C   0  0  0  0  0  0  0  0  0  0  0  0
   11.8120   -0.3490    8.4990 C   0  0  0  0  0  3  0  0  0  0  0  0
    9.1550   -0.9400    8.5170 Cl  0  0  0  0  0  0  0  0  0  0  0  0
   12.9010    0.4630    8.8210 C   0  0  0  0  0  3  0  0  0  0  0  0
   13.5380    2.6270    9.9100 N   0  0  0  0  0  2  0  0  0  0  0  0
   13.4450    4.5850   10.9920 O   0  0  0  0  0  0  0  0  0  0  0  0
    8.8000    8.1600   13.5300 C   0  0  0  0  0  0  0  0  0  0  0  0
    8.8060    9.3360   12.8980 N   0  0  0  0  0  0  0  0  0  0  0  0
    9.3860    9.4340   12.0760 H   0  0  0  0  0  0  0  0  0  0  0  0
    8.1030    7.9490   14.5170 O   0  0  0  0  0  0  0  0  0  0  0  0
    8.0060   10.5100   13.3370 C   0  0  0  0  0  2  0  0  0  0  0  0
    6.6090   10.3700   12.6780 C   0  0  0  0  0  2  0  0  0  0  0  0
    5.6090    9.5720   13.4440 N   0  0  0  0  0  4  0  0  0  0  0  0
    6.1580    8.9740   14.0460 H   0  0  0  0  0  0  0  0  0  0  0  0
    4.7930    8.7030   12.5600 C   0  0  0  0  0  2  0  0  0  0  0  0
    5.4220    8.5250   11.1670 C   0  0  0  0  0  1  0  0  0  0  0  0
    4.7560   10.3800   14.3520 C   0  0  0  0  0  2  0  0  0  0  0  0
    5.2680   10.2460   15.7960 C   0  0  0  0  0  1  0  0  0  0  0  0
  1  2  2  0  0  0  0
  1  7  1  0  0  0  0
  2  3  1  0  0  0  0
  3  4  2  0  0  0  0
  3 21  1  0  0  0  0
  4  6  1  0  0  0  0
  5  2  1  0  0  0  0
  7  8  1  0  0  0  0
  7  4  1  0  0  0  0
  9  1  1  0  0  0  0
 10  9  2  0  0  0  0
 11 10  1  0  0  0  0
 12 10  1  0  0  0  0
 12 20  2  0  0  0  0
 13 11  1  0  0  0  0
 14 11  2  0  0  0  0
 14 19  1  0  0  0  0
 15 13  2  0  0  0  0
 16 18  2  0  0  0  0
 16 15  1  0  0  0  0
 17 15  1  0  0  0  0
 18 14  1  0  0  0  0
 19 12  1  0  0  0  0
 21 24  2  0  0  0  0
 22 25  1  0  0  0  0
 22 21  1  0  0  0  0
 23 22  1  0  0  0  0
 26 25  1  0  0  0  0
 26 27  1  0  0  0  0
 27 28  1  0  0  0  0
 27 31  1  0  0  0  0
 29 27  1  0  0  0  0
 30 29  1  0  0  0  0
 31 32  1  0  0  0  0
M  END
>  <Pose>
1

>  <Score>
-8.312

$$$$
out/docking_results/vina_output/2jam_docked_ligand.pdbqt
 OpenBabel03072216103D

 32 34  0  0  0  0  0  0  0  0999 V2000
    8.7460    7.6800   13.0190 C   0  0  0  0  0  0  0  0  0  0  0  0
    8.7560    6.5840   12.1380 C   0  0  0  0  0  0  0  0  0  0  0  0
   10.0030    6.5420   11.5300 C   0  0  0  0  0  0  0  0  0  0  0  0
   10.7080    7.6210   12.0550 C   0  0  0  0  0  0  0  0  0  0  0  0
    7.5970    5.6060   11.8970 C   0  0  0  0  0  1  0  0  0  0  0  0
   12.1300    8.0710   11.7210 C   0  0  0  0  0  1  0  0  0  0  0  0
    9.9500    8.2700   12.9350 N   0  0  0  0  0  0  0  0  0  0  0  0
   10.2360    9.0840   13.4600 H   0  0  0  0  0  0  0  0  0  0  0  0
    7.6350    8.0230   13.8030 C   0  0  0  0  0  3  0  0  0  0  0  0
    6.3500    8.4080   13.3340 C   0  0  0  0  0  0  0  0  0  0  0  0
    5.2290    8.5400   14.1730 C   0  0  0  0  0  0  0  0  0  0  0  0
    5.8870    8.7710   12.0580 C   0  0  0  0  0  0  0  0  0  0  0  0
    5.0420    8.3330   15.5320 C   0  0  0  0  0  3  0  0  0  0  0  0
    4.1500    8.9610   13.3740 C   0  0  0  0  0  0  0  0  0  0  0  0
    3.7820    8.5460   16.0940 C   0  0  0  0  0  0  0  0  0  0  0  0
    2.6970    8.9670   15.3050 C   0  0  0  0  0  3  0  0  0  0  0  0
    3.5740    8.2570   17.7820 Cl  0  0  0  0  0  0  0  0  0  0  0  0
    2.8840    9.1680   13.9370 C   0  0  0  0  0  3  0  0  0  0  0  0
    4.6000    9.0840   12.1140 N   0  0  0  0  0  2  0  0  0  0  0  0
    6.5180    8.8010   10.9930 O   0  0  0  0  0  0  0  0  0  0  0  0
   10.5350    5.5540   10.4290 C   0  0  0  0  0  0  0  0  0  0  0  0
   10.9760    4.3550   10.8190 N   0  0  0  0  0  0  0  0  0  0  0  0
   10.9730    4.1440   11.8070 H   0  0  0  0  0  0  0  0  0  0  0  0
   10.4770    5.8780    9.2480 O   0  0  0  0  0  0  0  0  0  0  0  0
   11.4690    3.3140    9.8800 C   0  0  0  0  0  2  0  0  0  0  0  0
   10.6140    2.0450   10.1280 C   0  0  0  0  0  2  0  0  0  0  0  0
   11.2700    0.7480    9.7970 N   0  0  0  0  0  4  0  0  0  0  0  0
   11.2130    0.2020   10.6450 H   0  0  0  0  0  0  0  0  0  0  0  0
   12.7050    0.9170    9.4590 C   0  0  0  0  0  2  0  0  0  0  0  0
   13.0530    0.3550    8.0700 C   0  0  0  0  0  1  0  0  0  0  0  0
   10.5570   -0.0440    8.7620 C   0  0  0  0  0  2  0  0  0  0  0  0
    9.0770   -0.1920    9.1550 C   0  0  0  0  0  1  0  0  0  0  0  0
  1  9  1  0  0  0  0
  2  1  2  0  0  0  0
  3  4  2  0  0  0  0
  3  2  1  0  0  0  0
  4  7  1  0  0  0  0
  5  2  1  0  0  0  0
  6  4  1  0  0  0  0
  7  1  1  0  0  0  0
  7  8  1  0  0  0  0
 10  9  2  0  0  0  0
 10 11  1  0  0  0  0
 11 13  1  0  0  0  0
 12 19  1  0  0  0  0
 12 10  1  0  0  0  0
 13 15  2  0  0  0  0
 14 18  1  0  0  0  0
 14 11  2  0  0  0  0
 15 17  1  0  0  0  0
 16 15  1  0  0  0  0
 18 16  2  0  0  0  0
 19 14  1  0  0  0  0
 20 12  2  0  0  0  0
 21 22  1  0  0  0  0
 21  3  1  0  0  0  0
 22 23  1  0  0  0  0
 24 21  2  0  0  0  0
 25 26  1  0  0  0  0
 25 22  1  0  0  0  0
 27 26  1  0  0  0  0
 27 28  1  0  0  0  0
 29 27  1  0  0  0  0
 30 29  1  0  0  0  0
 31 32  1  0  0  0  0
 31 27  1  0  0  0  0
M  END
>  <Pose>
2

>  <Score>
-8.178

$$$$
out/docking_results/vina_output/2jam_docked_ligand.pdbqt
 OpenBabel03072216103D

 32 34  0  0  0  0  0  0  0  0999 V2000
   14.3670    3.5800   11.2480 C   0  0  0  0  0  0  0  0  0  0  0  0
   14.0570    4.7450   11.9740 C   0  0  0  0  0  0  0  0  0  0  0  0
   15.2360    5.2250   12.5260 C   0  0  0  0  0  0  0  0  0  0  0  0
   16.2250    4.3310   12.1260 C   0  0  0  0  0  0  0  0  0  0  0  0
   12.6650    5.3740   12.1230 C   0  0  0  0  0  1  0  0  0  0  0  0
   17.7140    4.3570   12.4670 C   0  0  0  0  0  1  0  0  0  0  0  0
   15.6890    3.3770   11.3680 N   0  0  0  0  0  0  0  0  0  0  0  0
   16.2010    2.6140   10.9470 H   0  0  0  0  0  0  0  0  0  0  0  0
   13.4060    2.8300   10.5580 C   0  0  0  0  0  3  0  0  0  0  0  0
   13.6430    1.9120    9.4980 C   0  0  0  0  0  0  0  0  0  0  0  0
   12.6580    1.0450    8.9920 C   0  0  0  0  0  0  0  0  0  0  0  0
   14.7800    1.6640    8.7100 C   0  0  0  0  0  0  0  0  0  0  0  0
   11.3350    0.8200    9.3400 C   0  0  0  0  0  3  0  0  0  0  0  0
   13.2390    0.3140    7.9400 C   0  0  0  0  0  0  0  0  0  0  0  0
   10.5910   -0.1320    8.6410 C   0  0  0  0  0  0  0  0  0  0  0  0
   11.1620   -0.8690    7.5880 C   0  0  0  0  0  3  0  0  0  0  0  0
    8.9540   -0.4080    9.1130 Cl  0  0  0  0  0  0  0  0  0  0  0  0
   12.4950   -0.6470    7.2430 C   0  0  0  0  0  3  0  0  0  0  0  0
   14.5130    0.7250    7.8120 N   0  0  0  0  0  2  0  0  0  0  0  0
   15.8980    2.1880    8.7900 O   0  0  0  0  0  0  0  0  0  0  0  0
   15.4560    6.4670   13.4660 C   0  0  0  0  0  0  0  0  0  0  0  0
   15.0390    6.3790   14.7310 N   0  0  0  0  0  0  0  0  0  0  0  0
   14.5760    5.5300   15.0240 H   0  0  0  0  0  0  0  0  0  0  0  0
   16.0520    7.4500   13.0380 O   0  0  0  0  0  0  0  0  0  0  0  0
   15.2170    7.4640   15.7330 C   0  0  0  0  0  2  0  0  0  0  0  0
   13.9000    8.2810   15.7470 C   0  0  0  0  0  2  0  0  0  0  0  0
   12.6420    7.4810   15.7920 N   0  0  0  0  0  4  0  0  0  0  0  0
   12.9320    6.5290   15.6190 H   0  0  0  0  0  0  0  0  0  0  0  0
   11.6940    7.8710   14.7190 C   0  0  0  0  0  2  0  0  0  0  0  0
   12.3380    8.7970   13.6720 C   0  0  0  0  0  1  0  0  0  0  0  0
   11.9820    7.4640   17.1220 C   0  0  0  0  0  2  0  0  0  0  0  0
   10.4590    7.5840   16.9440 C   0  0  0  0  0  1  0  0  0  0  0  0
  1  7  1  0  0  0  0
  1  2  2  0  0  0  0
  2  5  1  0  0  0  0
  2  3  1  0  0  0  0
  3 21  1  0  0  0  0
  4  6  1  0  0  0  0
  4  3  2  0  0  0  0
  7  4  1  0  0  0  0
  8  7  1  0  0  0  0
  9  1  1  0  0  0  0
 10  9  2  0  0  0  0
 11 13  1  0  0  0  0
 11 10  1  0  0  0  0
 12 20  2  0  0  0  0
 12 10  1  0  0  0  0
 14 11  2  0  0  0  0
 15 17  1  0  0  0  0
 15 13  2  0  0  0  0
 16 15  1  0  0  0  0
 18 16  2  0  0  0  0
 18 14  1  0  0  0  0
 19 14  1  0  0  0  0
 19 12  1  0  0  0  0
 21 22  1  0  0  0  0
 22 23  1  0  0  0  0
 22 25  1  0  0  0  0
 24 21  2  0  0  0  0
 25 26  1  0  0  0  0
 26 27  1  0  0  0  0
 27 31  1  0  0  0  0
 28 27  1  0  0  0  0
 29 27  1  0  0  0  0
 30 29  1  0  0  0  0
 32 31  1  0  0  0  0
M  END
>  <Pose>
3

>  <Score>
-8.166

$$$$
out/docking_results/vina_output/2jam_docked_ligand.pdbqt
 OpenBabel03072216103D

 32 34  0  0  0  0  0  0  0  0999 V2000
   14.4910    3.5730   11.2910 C   0  0  0  0  0  0  0  0  0  0  0  0
   14.2100    4.7030   12.0810 C   0  0  0  0  0  0  0  0  0  0  0  0
   15.4120    5.1690   12.5930 C   0  0  0  0  0  0  0  0  0  0  0  0
   16.3850    4.3020   12.1060 C   0  0  0  0  0  0  0  0  0  0  0  0
   12.8230    5.3130   12.3270 C   0  0  0  0  0  1  0  0  0  0  0  0
   17.8900    4.3270   12.3730 C   0  0  0  0  0  1  0  0  0  0  0  0
   15.8190    3.3770   11.3350 N   0  0  0  0  0  0  0  0  0  0  0  0
   16.3140    2.6370   10.8570 H   0  0  0  0  0  0  0  0  0  0  0  0
   13.5020    2.8450   10.6170 C   0  0  0  0  0  3  0  0  0  0  0  0
   13.7010    1.9060    9.5680 C   0  0  0  0  0  0  0  0  0  0  0  0
   12.6850    1.0650    9.0810 C   0  0  0  0  0  0  0  0  0  0  0  0
   14.8230    1.6120    8.7750 C   0  0  0  0  0  0  0  0  0  0  0  0
   11.3580    0.8860    9.4420 C   0  0  0  0  0  3  0  0  0  0  0  0
   13.2350    0.3020    8.0340 C   0  0  0  0  0  0  0  0  0  0  0  0
   10.5790   -0.0510    8.7610 C   0  0  0  0  0  0  0  0  0  0  0  0
   11.1180   -0.8200    7.7130 C   0  0  0  0  0  3  0  0  0  0  0  0
    8.9390   -0.2690    9.2480 Cl  0  0  0  0  0  0  0  0  0  0  0  0
   12.4560   -0.6440    7.3560 C   0  0  0  0  0  3  0  0  0  0  0  0
   14.5200    0.6700    7.8920 N   0  0  0  0  0  2  0  0  0  0  0  0
   15.9580    2.1010    8.8400 O   0  0  0  0  0  0  0  0  0  0  0  0
   15.6710    6.3720   13.5740 C   0  0  0  0  0  0  0  0  0  0  0  0
   15.5560    7.6120   13.0920 N   0  0  0  0  0  0  0  0  0  0  0  0
   15.3330    7.7250   12.1130 H   0  0  0  0  0  0  0  0  0  0  0  0
   15.9100    6.1460   14.7560 O   0  0  0  0  0  0  0  0  0  0  0  0
   15.7360    8.8350   13.9180 C   0  0  0  0  0  2  0  0  0  0  0  0
   17.1950    9.3120   13.6970 C   0  0  0  0  0  2  0  0  0  0  0  0
   17.4460   10.0620   12.4330 N   0  0  0  0  0  4  0  0  0  0  0  0
   16.5540   10.0780   11.9570 H   0  0  0  0  0  0  0  0  0  0  0  0
   18.4180    9.3650   11.5540 C   0  0  0  0  0  2  0  0  0  0  0  0
   17.7290    8.5060   10.4790 C   0  0  0  0  0  1  0  0  0  0  0  0
   17.8190   11.4850   12.6360 C   0  0  0  0  0  2  0  0  0  0  0  0
   19.2160   11.5660   13.2730 C   0  0  0  0  0  1  0  0  0  0  0  0
  1  7  1  0  0  0  0
  1  2  2  0  0  0  0
  2  5  1  0  0  0  0
  2  3  1  0  0  0  0
  3 21  1  0  0  0  0
  4  6  1  0  0  0  0
  4  3  2  0  0  0  0
  7  4  1  0  0  0  0
  8  7  1  0  0  0  0
  9  1  1  0  0  0  0
 10  9  2  0  0  0  0
 11 13  1  0  0  0  0
 11 10  1  0  0  0  0
 12 20  2  0  0  0  0
 12 10  1  0  0  0  0
 14 11  2  0  0  0  0
 15 17  1  0  0  0  0
 15 13  2  0  0  0  0
 16 15  1  0  0  0  0
 18 16  2  0  0  0  0
 18 14  1  0  0  0  0
 19 14  1  0  0  0  0
 19 12  1  0  0  0  0
 21 24  2  0  0  0  0
 22 21  1  0  0  0  0
 22 25  1  0  0  0  0
 23 22  1  0  0  0  0
 26 25  1  0  0  0  0
 27 31  1  0  0  0  0
 27 26  1  0  0  0  0
 28 27  1  0  0  0  0
 29 27  1  0  0  0  0
 30 29  1  0  0  0  0
 31 32  1  0  0  0  0
M  END
>  <Pose>
4

>  <Score>
-8.107

$$$$
out/docking_results/vina_output/2jam_docked_ligand.pdbqt
 OpenBabel03072216103D

 32 34  0  0  0  0  0  0  0  0999 V2000
   10.2270    5.1480   12.0050 C   0  0  0  0  0  0  0  0  0  0  0  0
    9.0390    5.8860   12.1610 C   0  0  0  0  0  0  0  0  0  0  0  0
    9.2740    6.8650   13.1160 C   0  0  0  0  0  0  0  0  0  0  0  0
   10.5940    6.6850   13.5170 C   0  0  0  0  0  0  0  0  0  0  0  0
    7.7230    5.6530   11.4060 C   0  0  0  0  0  1  0  0  0  0  0  0
   11.3760    7.4700   14.5690 C   0  0  0  0  0  1  0  0  0  0  0  0
   11.1350    5.6730   12.8430 N   0  0  0  0  0  0  0  0  0  0  0  0
   12.0870    5.3500   12.9460 H   0  0  0  0  0  0  0  0  0  0  0  0
   10.3480    4.0720   11.1150 C   0  0  0  0  0  3  0  0  0  0  0  0
   11.5570    3.5050   10.6260 C   0  0  0  0  0  0  0  0  0  0  0  0
   11.6060    2.3020    9.8980 C   0  0  0  0  0  0  0  0  0  0  0  0
   12.8890    3.9480   10.6790 C   0  0  0  0  0  0  0  0  0  0  0  0
   10.6290    1.3970    9.5090 C   0  0  0  0  0  3  0  0  0  0  0  0
   12.9510    2.0700    9.5570 C   0  0  0  0  0  0  0  0  0  0  0  0
   10.9920    0.2630    8.7810 C   0  0  0  0  0  0  0  0  0  0  0  0
   12.3340    0.0200    8.4350 C   0  0  0  0  0  3  0  0  0  0  0  0
    9.7590   -0.8570    8.3320 Cl  0  0  0  0  0  0  0  0  0  0  0  0
   13.3160    0.9280    8.8330 C   0  0  0  0  0  3  0  0  0  0  0  0
   13.6780    3.0880   10.0490 N   0  0  0  0  0  2  0  0  0  0  0  0
   13.3380    4.9640   11.2240 O   0  0  0  0  0  0  0  0  0  0  0  0
    8.2790    7.9300   13.7070 C   0  0  0  0  0  0  0  0  0  0  0  0
    7.3910    7.5240   14.6180 N   0  0  0  0  0  0  0  0  0  0  0  0
    7.3790    6.5460   14.8700 H   0  0  0  0  0  0  0  0  0  0  0  0
    8.3790    9.1040   13.3670 O   0  0  0  0  0  0  0  0  0  0  0  0
    6.4200    8.4330   15.2820 C   0  0  0  0  0  2  0  0  0  0  0  0
    5.0090    7.8410   15.0320 C   0  0  0  0  0  2  0  0  0  0  0  0
    4.0890    8.6840   14.2140 N   0  0  0  0  0  4  0  0  0  0  0  0
    3.4640    8.0290   13.7660 H   0  0  0  0  0  0  0  0  0  0  0  0
    4.8100    9.4270   13.1510 C   0  0  0  0  0  2  0  0  0  0  0  0
    5.0250    8.5800   11.8840 C   0  0  0  0  0  1  0  0  0  0  0  0
    3.2210    9.5850   15.0150 C   0  0  0  0  0  2  0  0  0  0  0  0
    2.7090    8.8360   16.2580 C   0  0  0  0  0  1  0  0  0  0  0  0
  1  2  2  0  0  0  0
  1  7  1  0  0  0  0
  2  3  1  0  0  0  0
  3  4  2  0  0  0  0
  3 21  1  0  0  0  0
  4  6  1  0  0  0  0
  5  2  1  0  0  0  0
  7  8  1  0  0  0  0
  7  4  1  0  0  0  0
  9  1  1  0  0  0  0
 10 12  1  0  0  0  0
 10  9  2  0  0  0  0
 11 10  1  0  0  0  0
 12 20  2  0  0  0  0
 13 11  2  0  0  0  0
 14 11  1  0  0  0  0
 14 19  1  0  0  0  0
 15 13  1  0  0  0  0
 16 15  2  0  0  0  0
 16 18  1  0  0  0  0
 17 15  1  0  0  0  0
 18 14  2  0  0  0  0
 19 12  1  0  0  0  0
 21 22  1  0  0  0  0
 22 23  1  0  0  0  0
 22 25  1  0  0  0  0
 24 21  2  0  0  0  0
 26 25  1  0  0  0  0
 27 31  1  0  0  0  0
 27 26  1  0  0  0  0
 28 27  1  0  0  0  0
 29 27  1  0  0  0  0
 30 29  1  0  0  0  0
 31 32  1  0  0  0  0
M  END
>  <Pose>
5

>  <Score>
-7.954

$$$$
out/docking_results/vina_output/2jam_docked_ligand.pdbqt
 OpenBabel03072216103D

 32 34  0  0  0  0  0  0  0  0999 V2000
   14.6720    3.4510   11.1320 C   0  0  0  0  0  0  0  0  0  0  0  0
   14.4830    4.6480   11.8470 C   0  0  0  0  0  0  0  0  0  0  0  0
   15.7200    5.0520   12.3290 C   0  0  0  0  0  0  0  0  0  0  0  0
   16.6210    4.0820   11.9000 C   0  0  0  0  0  0  0  0  0  0  0  0
   13.1490    5.3790   12.0510 C   0  0  0  0  0  1  0  0  0  0  0  0
   18.1240    4.0070   12.1660 C   0  0  0  0  0  1  0  0  0  0  0  0
   15.9810    3.1550   11.1910 N   0  0  0  0  0  0  0  0  0  0  0  0
   16.4150    2.3500   10.7620 H   0  0  0  0  0  0  0  0  0  0  0  0
   13.6270    2.7590   10.5070 C   0  0  0  0  0  3  0  0  0  0  0  0
   13.7430    1.8060    9.4580 C   0  0  0  0  0  0  0  0  0  0  0  0
   12.6740    1.0040    9.0210 C   0  0  0  0  0  0  0  0  0  0  0  0
   14.8180    1.4610    8.6210 C   0  0  0  0  0  0  0  0  0  0  0  0
   11.3570    0.8830    9.4380 C   0  0  0  0  0  3  0  0  0  0  0  0
   13.1480    0.2130    7.9580 C   0  0  0  0  0  0  0  0  0  0  0  0
   10.5130   -0.0260    8.7980 C   0  0  0  0  0  0  0  0  0  0  0  0
   10.9760   -0.8230    7.7360 C   0  0  0  0  0  3  0  0  0  0  0  0
    8.8870   -0.1740    9.3560 Cl  0  0  0  0  0  0  0  0  0  0  0  0
   12.3030   -0.7050    7.3210 C   0  0  0  0  0  3  0  0  0  0  0  0
   14.4400    0.5270    7.7600 N   0  0  0  0  0  2  0  0  0  0  0  0
   15.9740    1.9040    8.6350 O   0  0  0  0  0  0  0  0  0  0  0  0
   16.0750    6.2920   13.2290 C   0  0  0  0  0  0  0  0  0  0  0  0
   16.3600    7.4480   12.6240 N   0  0  0  0  0  0  0  0  0  0  0  0
   16.3600    7.4700   11.6140 H   0  0  0  0  0  0  0  0  0  0  0  0
   16.0250    6.1860   14.4500 O   0  0  0  0  0  0  0  0  0  0  0  0
   16.6750    8.7030   13.3550 C   0  0  0  0  0  2  0  0  0  0  0  0
   18.2120    8.7310   13.5540 C   0  0  0  0  0  2  0  0  0  0  0  0
   18.7610    7.7150   14.4980 N   0  0  0  0  0  4  0  0  0  0  0  0
   18.0010    7.0680   14.6560 H   0  0  0  0  0  0  0  0  0  0  0  0
   19.1320    8.3100   15.8060 C   0  0  0  0  0  2  0  0  0  0  0  0
   18.0630    8.0690   16.8860 C   0  0  0  0  0  1  0  0  0  0  0  0
   19.8700    6.9020   13.9350 C   0  0  0  0  0  2  0  0  0  0  0  0
   20.0480    7.2360   12.4440 C   0  0  0  0  0  1  0  0  0  0  0  0
  1  7  1  0  0  0  0
  1  2  2  0  0  0  0
  2  5  1  0  0  0  0
  2  3  1  0  0  0  0
  3 21  1  0  0  0  0
  4  6  1  0  0  0  0
  4  3  2  0  0  0  0
  7  4  1  0  0  0  0
  8  7  1  0  0  0  0
  9  1  1  0  0  0  0
 10  9  2  0  0  0  0
 11 13  1  0  0  0  0
 11 10  1  0  0  0  0
 12 20  2  0  0  0  0
 12 10  1  0  0  0  0
 14 11  2  0  0  0  0
 15 17  1  0  0  0  0
 15 13  2  0  0  0  0
 16 15  1  0  0  0  0
 18 16  2  0  0  0  0
 18 14  1  0  0  0  0
 19 14  1  0  0  0  0
 19 12  1  0  0  0  0
 21 24  2  0  0  0  0
 22 21  1  0  0  0  0
 22 25  1  0  0  0  0
 23 22  1  0  0  0  0
 25 26  1  0  0  0  0
 26 27  1  0  0  0  0
 27 28  1  0  0  0  0
 27 29  1  0  0  0  0
 29 30  1  0  0  0  0
 31 27  1  0  0  0  0
 32 31  1  0  0  0  0
M  END
>  <Pose>
6

>  <Score>
-7.808

$$$$
out/docking_results/vina_output/2jam_docked_ligand.pdbqt
 OpenBabel03072216103D

 32 34  0  0  0  0  0  0  0  0999 V2000
    8.3050    6.7560   12.9450 C   0  0  0  0  0  0  0  0  0  0  0  0
    9.6760    6.7990   13.2610 C   0  0  0  0  0  0  0  0  0  0  0  0
   10.3620    6.1320   12.2560 C   0  0  0  0  0  0  0  0  0  0  0  0
    9.3850    5.6970   11.3650 C   0  0  0  0  0  0  0  0  0  0  0  0
   10.3000    7.4690   14.4930 C   0  0  0  0  0  1  0  0  0  0  0  0
    9.5710    4.8850   10.0840 C   0  0  0  0  0  1  0  0  0  0  0  0
    8.1840    6.0830   11.7890 N   0  0  0  0  0  0  0  0  0  0  0  0
    7.3130    5.8980   11.3130 H   0  0  0  0  0  0  0  0  0  0  0  0
    7.3150    7.3350   13.7500 C   0  0  0  0  0  3  0  0  0  0  0  0
    6.0870    7.9020   13.3140 C   0  0  0  0  0  0  0  0  0  0  0  0
    5.0550    8.2790   14.1920 C   0  0  0  0  0  0  0  0  0  0  0  0
    5.6180    8.2530   12.0360 C   0  0  0  0  0  0  0  0  0  0  0  0
    4.9150    8.1980   15.5690 C   0  0  0  0  0  3  0  0  0  0  0  0
    4.0170    8.8250   13.4140 C   0  0  0  0  0  0  0  0  0  0  0  0
    3.7440    8.6610   16.1710 C   0  0  0  0  0  0  0  0  0  0  0  0
    2.7000    9.2080   15.4040 C   0  0  0  0  0  3  0  0  0  0  0  0
    3.5880    8.5240   17.8840 Cl  0  0  0  0  0  0  0  0  0  0  0  0
    2.8390    9.2820   14.0170 C   0  0  0  0  0  3  0  0  0  0  0  0
    4.4070    8.7860   12.1280 N   0  0  0  0  0  2  0  0  0  0  0  0
    6.1830    8.1050   10.9450 O   0  0  0  0  0  0  0  0  0  0  0  0
   11.9020    5.8410   12.1340 C   0  0  0  0  0  0  0  0  0  0  0  0
   12.3260    4.5950   12.3580 N   0  0  0  0  0  0  0  0  0  0  0  0
   11.6440    3.8980   12.6220 H   0  0  0  0  0  0  0  0  0  0  0  0
   12.6600    6.7380   11.7810 O   0  0  0  0  0  0  0  0  0  0  0  0
   13.7480    4.1760   12.2400 C   0  0  0  0  0  2  0  0  0  0  0  0
   13.9010    3.4950   10.8550 C   0  0  0  0  0  2  0  0  0  0  0  0
   13.7090    2.0170   10.8360 N   0  0  0  0  0  4  0  0  0  0  0  0
   13.7490    1.7360   11.8060 H   0  0  0  0  0  0  0  0  0  0  0  0
   14.8030    1.3210   10.1150 C   0  0  0  0  0  2  0  0  0  0  0  0
   15.9880    2.2520    9.8030 C   0  0  0  0  0  1  0  0  0  0  0  0
   12.3740    1.5860   10.3480 C   0  0  0  0  0  2  0  0  0  0  0  0
   12.5350    0.7910    9.0410 C   0  0  0  0  0  1  0  0  0  0  0  0
  1  2  2  0  0  0  0
  1  9  1  0  0  0  0
  2  5  1  0  0  0  0
  3  2  1  0  0  0  0
  4  7  1  0  0  0  0
  4  3  2  0  0  0  0
  6  4  1  0  0  0  0
  7  1  1  0  0  0  0
  8  7  1  0  0  0  0
 10  9  2  0  0  0  0
 10 11  1  0  0  0  0
 11 13  1  0  0  0  0
 12 19  1  0  0  0  0
 12 10  1  0  0  0  0
 13 15  2  0  0  0  0
 14 18  1  0  0  0  0
 14 11  2  0  0  0  0
 15 17  1  0  0  0  0
 16 15  1  0  0  0  0
 18 16  2  0  0  0  0
 19 14  1  0  0  0  0
 20 12  2  0  0  0  0
 21  3  1  0  0  0  0
 21 22  1  0  0  0  0
 22 23  1  0  0  0  0
 24 21  2  0  0  0  0
 25 22  1  0  0  0  0
 26 25  1  0  0  0  0
 27 26  1  0  0  0  0
 27 28  1  0  0  0  0
 29 27  1  0  0  0  0
 30 29  1  0  0  0  0
 31 27  1  0  0  0  0
 32 31  1  0  0  0  0
M  END
>  <Pose>
7

>  <Score>
-7.652

$$$$
out/docking_results/vina_output/2jam_docked_ligand.pdbqt
 OpenBabel03072216103D

 32 34  0  0  0  0  0  0  0  0999 V2000
   11.0640    5.6480   12.2120 C   0  0  0  0  0  0  0  0  0  0  0  0
   11.0300    7.0450   12.3810 C   0  0  0  0  0  0  0  0  0  0  0  0
    9.7010    7.4200   12.5220 C   0  0  0  0  0  0  0  0  0  0  0  0
    8.9700    6.2400   12.4250 C   0  0  0  0  0  0  0  0  0  0  0  0
   12.2440    7.9830   12.4110 C   0  0  0  0  0  1  0  0  0  0  0  0
    7.4530    6.0640   12.4840 C   0  0  0  0  0  1  0  0  0  0  0  0
    9.7950    5.2110   12.2500 N   0  0  0  0  0  0  0  0  0  0  0  0
    9.5090    4.2470   12.1600 H   0  0  0  0  0  0  0  0  0  0  0  0
   12.2530    4.9270   12.0380 C   0  0  0  0  0  3  0  0  0  0  0  0
   12.5480    4.0120   10.9910 C   0  0  0  0  0  0  0  0  0  0  0  0
   13.8320    3.4820   10.7670 C   0  0  0  0  0  0  0  0  0  0  0  0
   11.7350    3.4070   10.0190 C   0  0  0  0  0  0  0  0  0  0  0  0
   15.0540    3.6820   11.3920 C   0  0  0  0  0  3  0  0  0  0  0  0
   13.7390    2.5980    9.6760 C   0  0  0  0  0  0  0  0  0  0  0  0
   16.1820    3.0020   10.9300 C   0  0  0  0  0  0  0  0  0  0  0  0
   16.1010    2.1160    9.8410 C   0  0  0  0  0  3  0  0  0  0  0  0
   17.6940    3.2890   11.7110 Cl  0  0  0  0  0  0  0  0  0  0  0  0
   14.8730    1.9220    9.2090 C   0  0  0  0  0  3  0  0  0  0  0  0
   12.4590    2.5900    9.2650 N   0  0  0  0  0  2  0  0  0  0  0  0
   10.5240    3.5710    9.8210 O   0  0  0  0  0  0  0  0  0  0  0  0
    9.0920    8.8600   12.6890 C   0  0  0  0  0  0  0  0  0  0  0  0
    7.9650    9.1460   12.0320 N   0  0  0  0  0  0  0  0  0  0  0  0
    7.5660    8.4350   11.4360 H   0  0  0  0  0  0  0  0  0  0  0  0
    9.6240    9.6560   13.4550 O   0  0  0  0  0  0  0  0  0  0  0  0
    7.2640   10.4540   12.1310 C   0  0  0  0  0  2  0  0  0  0  0  0
    6.2650   10.3390   13.3110 C   0  0  0  0  0  2  0  0  0  0  0  0
    5.6860    8.9830   13.5380 N   0  0  0  0  0  4  0  0  0  0  0  0
    6.3870    8.3390   13.2010 H   0  0  0  0  0  0  0  0  0  0  0  0
    4.4490    8.7650   12.7470 C   0  0  0  0  0  2  0  0  0  0  0  0
    3.1780    9.1500   13.5230 C   0  0  0  0  0  1  0  0  0  0  0  0
    5.4830    8.6440   14.9690 C   0  0  0  0  0  2  0  0  0  0  0  0
    5.5460    7.1180   15.1510 C   0  0  0  0  0  1  0  0  0  0  0  0
  1  7  1  0  0  0  0
  1  2  2  0  0  0  0
  2  5  1  0  0  0  0
  2  3  1  0  0  0  0
  3 21  1  0  0  0  0
  4  6  1  0  0  0  0
  4  3  2  0  0  0  0
  7  4  1  0  0  0  0
  8  7  1  0  0  0  0
  9  1  1  0  0  0  0
 10  9  2  0  0  0  0
 11 10  1  0  0  0  0
 11 13  1  0  0  0  0
 12 10  1  0  0  0  0
 14 11  2  0  0  0  0
 15 13  2  0  0  0  0
 15 17  1  0  0  0  0
 16 15  1  0  0  0  0
 18 14  1  0  0  0  0
 18 16  2  0  0  0  0
 19 14  1  0  0  0  0
 19 12  1  0  0  0  0
 20 12  2  0  0  0  0
 21 24  2  0  0  0  0
 22 25  1  0  0  0  0
 22 21  1  0  0  0  0
 23 22  1  0  0  0  0
 25 26  1  0  0  0  0
 26 27  1  0  0  0  0
 27 31  1  0  0  0  0
 28 27  1  0  0  0  0
 29 30  1  0  0  0  0
 29 27  1  0  0  0  0
 31 32  1  0  0  0  0
M  END
>  <Pose>
8

>  <Score>
-7.500

$$$$
out/docking_results/vina_output/2jam_docked_ligand.pdbqt
 OpenBabel03072216103D

 32 34  0  0  0  0  0  0  0  0999 V2000
   14.8180    3.7060   11.8320 C   0  0  0  0  0  0  0  0  0  0  0  0
   16.2160    3.8670   11.8550 C   0  0  0  0  0  0  0  0  0  0  0  0
   16.5010    4.9640   12.6560 C   0  0  0  0  0  0  0  0  0  0  0  0
   15.2670    5.4410   13.0870 C   0  0  0  0  0  0  0  0  0  0  0  0
   17.2400    2.9840   11.1290 C   0  0  0  0  0  1  0  0  0  0  0  0
   14.9810    6.6500   13.9760 C   0  0  0  0  0  1  0  0  0  0  0  0
   14.2930    4.6790   12.5950 N   0  0  0  0  0  0  0  0  0  0  0  0
   13.3070    4.8130   12.7690 H   0  0  0  0  0  0  0  0  0  0  0  0
   14.1760    2.6890   11.1130 C   0  0  0  0  0  3  0  0  0  0  0  0
   12.7740    2.4930   10.9830 C   0  0  0  0  0  0  0  0  0  0  0  0
   12.2020    1.5760   10.0830 C   0  0  0  0  0  0  0  0  0  0  0  0
   11.6820    3.0560   11.6650 C   0  0  0  0  0  0  0  0  0  0  0  0
   12.7490    0.7150    9.1440 C   0  0  0  0  0  3  0  0  0  0  0  0
   10.8070    1.6320   10.2530 C   0  0  0  0  0  0  0  0  0  0  0  0
   11.9070   -0.0900    8.3750 C   0  0  0  0  0  0  0  0  0  0  0  0
   10.5110   -0.0420    8.5350 C   0  0  0  0  0  3  0  0  0  0  0  0
   12.6150   -1.1340    7.1970 Cl  0  0  0  0  0  0  0  0  0  0  0  0
    9.9610    0.8310    9.4750 C   0  0  0  0  0  3  0  0  0  0  0  0
   10.5490    2.5360   11.2140 N   0  0  0  0  0  2  0  0  0  0  0  0
   11.6940    3.9200   12.5510 O   0  0  0  0  0  0  0  0  0  0  0  0
   17.8950    5.6140   12.9850 C   0  0  0  0  0  0  0  0  0  0  0  0
   18.6160    6.1020   11.9720 N   0  0  0  0  0  0  0  0  0  0  0  0
   18.2470    6.0100   11.0360 H   0  0  0  0  0  0  0  0  0  0  0  0
   18.2560    5.7110   14.1530 O   0  0  0  0  0  0  0  0  0  0  0  0
   19.9300    6.7740   12.1470 C   0  0  0  0  0  2  0  0  0  0  0  0
   21.0180    5.6850   11.9580 C   0  0  0  0  0  2  0  0  0  0  0  0
   20.9680    4.5470   12.9200 N   0  0  0  0  0  4  0  0  0  0  0  0
   20.1260    4.6960   13.4580 H   0  0  0  0  0  0  0  0  0  0  0  0
   22.1170    4.5590   13.8590 C   0  0  0  0  0  2  0  0  0  0  0  0
   23.4680    4.3990   13.1400 C   0  0  0  0  0  1  0  0  0  0  0  0
   20.8050    3.2180   12.2770 C   0  0  0  0  0  2  0  0  0  0  0  0
   20.1590    2.2400   13.2730 C   0  0  0  0  0  1  0  0  0  0  0  0
  1  2  2  0  0  0  0
  1  7  1  0  0  0  0
  2  3  1  0  0  0  0
  3 21  1  0  0  0  0
  3  4  2  0  0  0  0
  4  6  1  0  0  0  0
  5  2  1  0  0  0  0
  7  8  1  0  0  0  0
  7  4  1  0  0  0  0
  9  1  1  0  0  0  0
 10  9  2  0  0  0  0
 10 12  1  0  0  0  0
 11 14  1  0  0  0  0
 11 10  1  0  0  0  0
 12 20  2  0  0  0  0
 13 11  2  0  0  0  0
 14 19  1  0  0  0  0
 15 16  2  0  0  0  0
 15 13  1  0  0  0  0
 16 18  1  0  0  0  0
 17 15  1  0  0  0  0
 18 14  2  0  0  0  0
 19 12  1  0  0  0  0
 21 24  2  0  0  0  0
 22 25  1  0  0  0  0
 22 21  1  0  0  0  0
 23 22  1  0  0  0  0
 26 25  1  0  0  0  0
 26 27  1  0  0  0  0
 27 28  1  0  0  0  0
 27 29  1  0  0  0  0
 30 29  1  0  0  0  0
 31 27  1  0  0  0  0
 31 32  1  0  0  0  0
M  END
>  <Pose>
9

>  <Score>
-7.387

$$$$
out/docking_results/vina_output/2jam_docked_ligand.pdbqt
 OpenBabel03072216103D

 32 34  0  0  0  0  0  0  0  0999 V2000
    9.7780    6.1190   11.6320 C   0  0  0  0  0  0  0  0  0  0  0  0
    8.5250    6.6380   12.0080 C   0  0  0  0  0  0  0  0  0  0  0  0
    8.7460    7.8490   12.6500 C   0  0  0  0  0  0  0  0  0  0  0  0
   10.1260    8.0230   12.6510 C   0  0  0  0  0  0  0  0  0  0  0  0
    7.1600    5.9850   11.7500 C   0  0  0  0  0  1  0  0  0  0  0  0
   10.9310    9.1760   13.2500 C   0  0  0  0  0  1  0  0  0  0  0  0
   10.7100    6.9960   12.0390 N   0  0  0  0  0  0  0  0  0  0  0  0
   11.7060    6.8910   11.9030 H   0  0  0  0  0  0  0  0  0  0  0  0
    9.9300    4.8990   10.9600 C   0  0  0  0  0  3  0  0  0  0  0  0
   11.1390    4.1750   10.7740 C   0  0  0  0  0  0  0  0  0  0  0  0
   11.1840    2.8630   10.2690 C   0  0  0  0  0  0  0  0  0  0  0  0
   12.4840    4.5300   10.9730 C   0  0  0  0  0  0  0  0  0  0  0  0
   10.1970    1.9730    9.8760 C   0  0  0  0  0  3  0  0  0  0  0  0
   12.5380    2.4850   10.1960 C   0  0  0  0  0  0  0  0  0  0  0  0
   10.5560    0.7070    9.4100 C   0  0  0  0  0  0  0  0  0  0  0  0
   11.9060    0.3180    9.3330 C   0  0  0  0  0  3  0  0  0  0  0  0
    9.3050   -0.3890    8.9520 Cl  0  0  0  0  0  0  0  0  0  0  0  0
   12.8980    1.2120    9.7360 C   0  0  0  0  0  3  0  0  0  0  0  0
   13.2750    3.5220   10.6300 N   0  0  0  0  0  2  0  0  0  0  0  0
   12.9400    5.5930   11.4130 O   0  0  0  0  0  0  0  0  0  0  0  0
    7.7030    8.8230   13.3120 C   0  0  0  0  0  0  0  0  0  0  0  0
    7.1170    8.4370   14.4480 N   0  0  0  0  0  0  0  0  0  0  0  0
    7.3480    7.5270   14.8200 H   0  0  0  0  0  0  0  0  0  0  0  0
    7.5010    9.9230   12.8100 O   0  0  0  0  0  0  0  0  0  0  0  0
    6.1430    9.2750   15.1970 C   0  0  0  0  0  2  0  0  0  0  0  0
    5.1790    8.3010   15.9220 C   0  0  0  0  0  2  0  0  0  0  0  0
    5.0800    8.4700   17.4010 N   0  0  0  0  0  4  0  0  0  0  0  0
    5.0220    7.5300   17.7670 H   0  0  0  0  0  0  0  0  0  0  0  0
    3.8470    9.1920   17.7990 C   0  0  0  0  0  2  0  0  0  0  0  0
    2.6960    8.9890   16.7980 C   0  0  0  0  0  1  0  0  0  0  0  0
    6.2880    9.0690   18.0230 C   0  0  0  0  0  2  0  0  0  0  0  0
    5.8960   10.3500   18.7800 C   0  0  0  0  0  1  0  0  0  0  0  0
  1  2  2  0  0  0  0
  1  7  1  0  0  0  0
  2  3  1  0  0  0  0
  3  4  2  0  0  0  0
  3 21  1  0  0  0  0
  4  6  1  0  0  0  0
  5  2  1  0  0  0  0
  7  4  1  0  0  0  0
  8  7  1  0  0  0  0
  9  1  1  0  0  0  0
 10  9  2  0  0  0  0
 10 12  1  0  0  0  0
 11 10  1  0  0  0  0
 12 20  2  0  0  0  0
 13 11  2  0  0  0  0
 14 11  1  0  0  0  0
 14 19  1  0  0  0  0
 15 13  1  0  0  0  0
 16 15  2  0  0  0  0
 16 18  1  0  0  0  0
 17 15  1  0  0  0  0
 18 14  2  0  0  0  0
 19 12  1  0  0  0  0
 21 22  1  0  0  0  0
 22 23  1  0  0  0  0
 22 25  1  0  0  0  0
 24 21  2  0  0  0  0
 25 26  1  0  0  0  0
 26 27  1  0  0  0  0
 27 28  1  0  0  0  0
 27 29  1  0  0  0  0
 27 31  1  0  0  0  0
 30 29  1  0  0  0  0
 31 32  1  0  0  0  0
M  END
>  <Pose>
10

>  <Score>
-7.325

$$$$
