MODEL 1
REMARK VINA RESULT:    -8.312      0.000      0.000
REMARK INTER + INTRA:         -12.685
REMARK INTER:                 -11.412
REMARK INTRA:                  -1.273
REMARK UNBOUND:                -0.972
REMARK  7 active torsions:
REMARK  status: ('A' for Active; 'I' for Inactive)
REMARK    1  A    between atoms: CAK_9  and  CAL_10 
REMARK    2  A    between atoms: CAN_12  and  CAS_16 
REMARK       I    between atoms: CAS_16  and  NAU_24 
REMARK    3  A    between atoms: CAV_17  and  CAW_18 
REMARK    4  A    between atoms: CAV_17  and  NAU_24 
REMARK    5  A    between atoms: CAW_18  and  NAX_26 
REMARK    6  A    between atoms: CAY_19  and  NAX_26 
REMARK    7  A    between atoms: CAZ_20  and  NAX_26 
ROOT
ATOM      1  CAL   J A   1      10.401   5.152  11.850  0.00  0.00     0.021 A 
ATOM      2  CAM   J A   1       9.286   5.987  12.051  0.00  0.00    -0.021 A 
ATOM      3  CAN   J A   1       9.665   6.992  12.930  0.00  0.00     0.061 A 
ATOM      4  CAO   J A   1      10.996   6.730  13.242  0.00  0.00     0.021 A 
ATOM      5  CAQ   J A   1       7.903   5.820  11.408  0.00  0.00     0.051 C 
ATOM      6  CAR   J A   1      11.912   7.505  14.189  0.00  0.00     0.069 C 
ATOM      7  NAP   J A   1      11.408   5.647  12.588  0.00  0.00    -0.362 N 
ATOM      8  HAP   J A   1      12.338   5.256  12.640  0.00  0.00     0.165 HD
ENDROOT
BRANCH   1   9
ATOM      9  CAK   J A   1      10.374   4.027  11.015  0.00  0.00     0.103 C 
ATOM     10  CAG   J A   1      11.495   3.305  10.523  0.00  0.00     0.030 A 
ATOM     11  CAE   J A   1      11.388   2.069   9.859  0.00  0.00     0.006 A 
ATOM     12  CAI   J A   1      12.869   3.599  10.514  0.00  0.00     0.275 A 
ATOM     13  CAD   J A   1      10.306   1.260   9.547  0.00  0.00     0.038 A 
ATOM     14  CAF   J A   1      12.688   1.673   9.493  0.00  0.00     0.071 A 
ATOM     15  CAA   J A   1      10.517   0.058   8.870  0.00  0.00     0.035 A 
ATOM     16  CAB   J A   1      11.812  -0.349   8.499  0.00  0.00     0.026 A 
ATOM     17 CL     J A   1       9.155  -0.940   8.517  0.00  0.00    -0.084 Cl
ATOM     18  CAC   J A   1      12.901   0.463   8.821  0.00  0.00     0.034 A 
ATOM     19  NAH   J A   1      13.538   2.627   9.910  0.00  0.00    -0.209 NA
ATOM     20  OAJ   J A   1      13.445   4.585  10.992  0.00  0.00    -0.266 OA
ENDBRANCH   1   9
BRANCH   3  21
ATOM     21  CAS   J A   1       8.800   8.160  13.530  0.00  0.00     0.254 C 
ATOM     22  NAU   J A   1       8.806   9.336  12.898  0.00  0.00    -0.355 N 
ATOM     23  HAU   J A   1       9.386   9.434  12.076  0.00  0.00     0.162 HD
ATOM     24  OAT   J A   1       8.103   7.949  14.517  0.00  0.00    -0.268 OA
BRANCH  22  25
ATOM     25  CAV   J A   1       8.006  10.510  13.337  0.00  0.00     0.150 C 
BRANCH  25  26
ATOM     26  CAW   J A   1       6.609  10.370  12.678  0.00  0.00     0.254 C 
BRANCH  26  27
ATOM     27  NAX   J A   1       5.609   9.572  13.444  0.00  0.00    -0.070 N 
ATOM     28  HAX   J A   1       6.158   8.974  14.046  0.00  0.00     0.279 HD
BRANCH  27  29
ATOM     29  CAY   J A   1       4.793   8.703  12.560  0.00  0.00     0.230 C 
ATOM     30  CBB   J A   1       5.422   8.525  11.167  0.00  0.00     0.034 C 
ENDBRANCH  27  29
BRANCH  27  31
ATOM     31  CAZ   J A   1       4.756  10.380  14.352  0.00  0.00     0.230 C 
ATOM     32  CBA   J A   1       5.268  10.246  15.796  0.00  0.00     0.034 C 
ENDBRANCH  27  31
ENDBRANCH  26  27
ENDBRANCH  25  26
ENDBRANCH  22  25
ENDBRANCH   3  21
TORSDOF 7
ENDMDL
MODEL 2
REMARK VINA RESULT:    -8.178      3.204      9.334
REMARK INTER + INTRA:         -12.497
REMARK INTER:                 -11.715
REMARK INTRA:                  -0.782
REMARK UNBOUND:                -0.972
REMARK  7 active torsions:
REMARK  status: ('A' for Active; 'I' for Inactive)
REMARK    1  A    between atoms: CAK_9  and  CAL_10 
REMARK    2  A    between atoms: CAN_12  and  CAS_16 
REMARK       I    between atoms: CAS_16  and  NAU_24 
REMARK    3  A    between atoms: CAV_17  and  CAW_18 
REMARK    4  A    between atoms: CAV_17  and  NAU_24 
REMARK    5  A    between atoms: CAW_18  and  NAX_26 
REMARK    6  A    between atoms: CAY_19  and  NAX_26 
REMARK    7  A    between atoms: CAZ_20  and  NAX_26 
ROOT
ATOM      1  CAL   J A   1       8.746   7.680  13.019  0.00  0.00     0.021 A 
ATOM      2  CAM   J A   1       8.756   6.584  12.138  0.00  0.00    -0.021 A 
ATOM      3  CAN   J A   1      10.003   6.542  11.530  0.00  0.00     0.061 A 
ATOM      4  CAO   J A   1      10.708   7.621  12.055  0.00  0.00     0.021 A 
ATOM      5  CAQ   J A   1       7.597   5.606  11.897  0.00  0.00     0.051 C 
ATOM      6  CAR   J A   1      12.130   8.071  11.721  0.00  0.00     0.069 C 
ATOM      7  NAP   J A   1       9.950   8.270  12.935  0.00  0.00    -0.362 N 
ATOM      8  HAP   J A   1      10.236   9.084  13.460  0.00  0.00     0.165 HD
ENDROOT
BRANCH   1   9
ATOM      9  CAK   J A   1       7.635   8.023  13.803  0.00  0.00     0.103 C 
ATOM     10  CAG   J A   1       6.350   8.408  13.334  0.00  0.00     0.030 A 
ATOM     11  CAE   J A   1       5.229   8.540  14.173  0.00  0.00     0.006 A 
ATOM     12  CAI   J A   1       5.887   8.771  12.058  0.00  0.00     0.275 A 
ATOM     13  CAD   J A   1       5.042   8.333  15.532  0.00  0.00     0.038 A 
ATOM     14  CAF   J A   1       4.150   8.961  13.374  0.00  0.00     0.071 A 
ATOM     15  CAA   J A   1       3.782   8.546  16.094  0.00  0.00     0.035 A 
ATOM     16  CAB   J A   1       2.697   8.967  15.305  0.00  0.00     0.026 A 
ATOM     17 CL     J A   1       3.574   8.257  17.782  0.00  0.00    -0.084 Cl
ATOM     18  CAC   J A   1       2.884   9.168  13.937  0.00  0.00     0.034 A 
ATOM     19  NAH   J A   1       4.600   9.084  12.114  0.00  0.00    -0.209 NA
ATOM     20  OAJ   J A   1       6.518   8.801  10.993  0.00  0.00    -0.266 OA
ENDBRANCH   1   9
BRANCH   3  21
ATOM     21  CAS   J A   1      10.535   5.554  10.429  0.00  0.00     0.254 C 
ATOM     22  NAU   J A   1      10.976   4.355  10.819  0.00  0.00    -0.355 N 
ATOM     23  HAU   J A   1      10.973   4.144  11.807  0.00  0.00     0.162 HD
ATOM     24  OAT   J A   1      10.477   5.878   9.248  0.00  0.00    -0.268 OA
BRANCH  22  25
ATOM     25  CAV   J A   1      11.469   3.314   9.880  0.00  0.00     0.150 C 
BRANCH  25  26
ATOM     26  CAW   J A   1      10.614   2.045  10.128  0.00  0.00     0.254 C 
BRANCH  26  27
ATOM     27  NAX   J A   1      11.270   0.748   9.797  0.00  0.00    -0.070 N 
ATOM     28  HAX   J A   1      11.213   0.202  10.645  0.00  0.00     0.279 HD
BRANCH  27  29
ATOM     29  CAY   J A   1      12.705   0.917   9.459  0.00  0.00     0.230 C 
ATOM     30  CBB   J A   1      13.053   0.355   8.070  0.00  0.00     0.034 C 
ENDBRANCH  27  29
BRANCH  27  31
ATOM     31  CAZ   J A   1      10.557  -0.044   8.762  0.00  0.00     0.230 C 
ATOM     32  CBA   J A   1       9.077  -0.192   9.155  0.00  0.00     0.034 C 
ENDBRANCH  27  31
ENDBRANCH  26  27
ENDBRANCH  25  26
ENDBRANCH  22  25
ENDBRANCH   3  21
TORSDOF 7
ENDMDL
MODEL 3
REMARK VINA RESULT:    -8.166      4.228      5.396
REMARK INTER + INTRA:         -12.479
REMARK INTER:                 -11.221
REMARK INTRA:                  -1.259
REMARK UNBOUND:                -0.972
REMARK  7 active torsions:
REMARK  status: ('A' for Active; 'I' for Inactive)
REMARK    1  A    between atoms: CAK_9  and  CAL_10 
REMARK    2  A    between atoms: CAN_12  and  CAS_16 
REMARK       I    between atoms: CAS_16  and  NAU_24 
REMARK    3  A    between atoms: CAV_17  and  CAW_18 
REMARK    4  A    between atoms: CAV_17  and  NAU_24 
REMARK    5  A    between atoms: CAW_18  and  NAX_26 
REMARK    6  A    between atoms: CAY_19  and  NAX_26 
REMARK    7  A    between atoms: CAZ_20  and  NAX_26 
ROOT
ATOM      1  CAL   J A   1      14.367   3.580  11.248  0.00  0.00     0.021 A 
ATOM      2  CAM   J A   1      14.057   4.745  11.974  0.00  0.00    -0.021 A 
ATOM      3  CAN   J A   1      15.236   5.225  12.526  0.00  0.00     0.061 A 
ATOM      4  CAO   J A   1      16.225   4.331  12.126  0.00  0.00     0.021 A 
ATOM      5  CAQ   J A   1      12.665   5.374  12.123  0.00  0.00     0.051 C 
ATOM      6  CAR   J A   1      17.714   4.357  12.467  0.00  0.00     0.069 C 
ATOM      7  NAP   J A   1      15.689   3.377  11.368  0.00  0.00    -0.362 N 
ATOM      8  HAP   J A   1      16.201   2.614  10.947  0.00  0.00     0.165 HD
ENDROOT
BRANCH   1   9
ATOM      9  CAK   J A   1      13.406   2.830  10.558  0.00  0.00     0.103 C 
ATOM     10  CAG   J A   1      13.643   1.912   9.498  0.00  0.00     0.030 A 
ATOM     11  CAE   J A   1      12.658   1.045   8.992  0.00  0.00     0.006 A 
ATOM     12  CAI   J A   1      14.780   1.664   8.710  0.00  0.00     0.275 A 
ATOM     13  CAD   J A   1      11.335   0.820   9.340  0.00  0.00     0.038 A 
ATOM     14  CAF   J A   1      13.239   0.314   7.940  0.00  0.00     0.071 A 
ATOM     15  CAA   J A   1      10.591  -0.132   8.641  0.00  0.00     0.035 A 
ATOM     16  CAB   J A   1      11.162  -0.869   7.588  0.00  0.00     0.026 A 
ATOM     17 CL     J A   1       8.954  -0.408   9.113  0.00  0.00    -0.084 Cl
ATOM     18  CAC   J A   1      12.495  -0.647   7.243  0.00  0.00     0.034 A 
ATOM     19  NAH   J A   1      14.513   0.725   7.812  0.00  0.00    -0.209 NA
ATOM     20  OAJ   J A   1      15.898   2.188   8.790  0.00  0.00    -0.266 OA
ENDBRANCH   1   9
BRANCH   3  21
ATOM     21  CAS   J A   1      15.456   6.467  13.466  0.00  0.00     0.254 C 
ATOM     22  NAU   J A   1      15.039   6.379  14.731  0.00  0.00    -0.355 N 
ATOM     23  HAU   J A   1      14.576   5.530  15.024  0.00  0.00     0.162 HD
ATOM     24  OAT   J A   1      16.052   7.450  13.038  0.00  0.00    -0.268 OA
BRANCH  22  25
ATOM     25  CAV   J A   1      15.217   7.464  15.733  0.00  0.00     0.150 C 
BRANCH  25  26
ATOM     26  CAW   J A   1      13.900   8.281  15.747  0.00  0.00     0.254 C 
BRANCH  26  27
ATOM     27  NAX   J A   1      12.642   7.481  15.792  0.00  0.00    -0.070 N 
ATOM     28  HAX   J A   1      12.932   6.529  15.619  0.00  0.00     0.279 HD
BRANCH  27  29
ATOM     29  CAY   J A   1      11.694   7.871  14.719  0.00  0.00     0.230 C 
ATOM     30  CBB   J A   1      12.338   8.797  13.672  0.00  0.00     0.034 C 
ENDBRANCH  27  29
BRANCH  27  31
ATOM     31  CAZ   J A   1      11.982   7.464  17.122  0.00  0.00     0.230 C 
ATOM     32  CBA   J A   1      10.459   7.584  16.944  0.00  0.00     0.034 C 
ENDBRANCH  27  31
ENDBRANCH  26  27
ENDBRANCH  25  26
ENDBRANCH  22  25
ENDBRANCH   3  21
TORSDOF 7
ENDMDL
MODEL 4
REMARK VINA RESULT:    -8.107      5.342      7.162
REMARK INTER + INTRA:         -12.396
REMARK INTER:                 -11.415
REMARK INTRA:                  -0.981
REMARK UNBOUND:                -0.972
REMARK  7 active torsions:
REMARK  status: ('A' for Active; 'I' for Inactive)
REMARK    1  A    between atoms: CAK_9  and  CAL_10 
REMARK    2  A    between atoms: CAN_12  and  CAS_16 
REMARK       I    between atoms: CAS_16  and  NAU_24 
REMARK    3  A    between atoms: CAV_17  and  CAW_18 
REMARK    4  A    between atoms: CAV_17  and  NAU_24 
REMARK    5  A    between atoms: CAW_18  and  NAX_26 
REMARK    6  A    between atoms: CAY_19  and  NAX_26 
REMARK    7  A    between atoms: CAZ_20  and  NAX_26 
ROOT
ATOM      1  CAL   J A   1      14.491   3.573  11.291  0.00  0.00     0.021 A 
ATOM      2  CAM   J A   1      14.210   4.703  12.081  0.00  0.00    -0.021 A 
ATOM      3  CAN   J A   1      15.412   5.169  12.593  0.00  0.00     0.061 A 
ATOM      4  CAO   J A   1      16.385   4.302  12.106  0.00  0.00     0.021 A 
ATOM      5  CAQ   J A   1      12.823   5.313  12.327  0.00  0.00     0.051 C 
ATOM      6  CAR   J A   1      17.890   4.327  12.373  0.00  0.00     0.069 C 
ATOM      7  NAP   J A   1      15.819   3.377  11.335  0.00  0.00    -0.362 N 
ATOM      8  HAP   J A   1      16.314   2.637  10.857  0.00  0.00     0.165 HD
ENDROOT
BRANCH   1   9
ATOM      9  CAK   J A   1      13.502   2.845  10.617  0.00  0.00     0.103 C 
ATOM     10  CAG   J A   1      13.701   1.906   9.568  0.00  0.00     0.030 A 
ATOM     11  CAE   J A   1      12.685   1.065   9.081  0.00  0.00     0.006 A 
ATOM     12  CAI   J A   1      14.823   1.612   8.775  0.00  0.00     0.275 A 
ATOM     13  CAD   J A   1      11.358   0.886   9.442  0.00  0.00     0.038 A 
ATOM     14  CAF   J A   1      13.235   0.302   8.034  0.00  0.00     0.071 A 
ATOM     15  CAA   J A   1      10.579  -0.051   8.761  0.00  0.00     0.035 A 
ATOM     16  CAB   J A   1      11.118  -0.820   7.713  0.00  0.00     0.026 A 
ATOM     17 CL     J A   1       8.939  -0.269   9.248  0.00  0.00    -0.084 Cl
ATOM     18  CAC   J A   1      12.456  -0.644   7.356  0.00  0.00     0.034 A 
ATOM     19  NAH   J A   1      14.520   0.670   7.892  0.00  0.00    -0.209 NA
ATOM     20  OAJ   J A   1      15.958   2.101   8.840  0.00  0.00    -0.266 OA
ENDBRANCH   1   9
BRANCH   3  21
ATOM     21  CAS   J A   1      15.671   6.372  13.574  0.00  0.00     0.254 C 
ATOM     22  NAU   J A   1      15.556   7.612  13.092  0.00  0.00    -0.355 N 
ATOM     23  HAU   J A   1      15.333   7.725  12.113  0.00  0.00     0.162 HD
ATOM     24  OAT   J A   1      15.910   6.146  14.756  0.00  0.00    -0.268 OA
BRANCH  22  25
ATOM     25  CAV   J A   1      15.736   8.835  13.918  0.00  0.00     0.150 C 
BRANCH  25  26
ATOM     26  CAW   J A   1      17.195   9.312  13.697  0.00  0.00     0.254 C 
BRANCH  26  27
ATOM     27  NAX   J A   1      17.446  10.062  12.433  0.00  0.00    -0.070 N 
ATOM     28  HAX   J A   1      16.554  10.078  11.957  0.00  0.00     0.279 HD
BRANCH  27  29
ATOM     29  CAY   J A   1      18.418   9.365  11.554  0.00  0.00     0.230 C 
ATOM     30  CBB   J A   1      17.729   8.506  10.479  0.00  0.00     0.034 C 
ENDBRANCH  27  29
BRANCH  27  31
ATOM     31  CAZ   J A   1      17.819  11.485  12.636  0.00  0.00     0.230 C 
ATOM     32  CBA   J A   1      19.216  11.566  13.273  0.00  0.00     0.034 C 
ENDBRANCH  27  31
ENDBRANCH  26  27
ENDBRANCH  25  26
ENDBRANCH  22  25
ENDBRANCH   3  21
TORSDOF 7
ENDMDL
MODEL 5
REMARK VINA RESULT:    -7.954      1.228      1.410
REMARK INTER + INTRA:         -12.181
REMARK INTER:                 -11.058
REMARK INTRA:                  -1.123
REMARK UNBOUND:                -0.972
REMARK  7 active torsions:
REMARK  status: ('A' for Active; 'I' for Inactive)
REMARK    1  A    between atoms: CAK_9  and  CAL_10 
REMARK    2  A    between atoms: CAN_12  and  CAS_16 
REMARK       I    between atoms: CAS_16  and  NAU_24 
REMARK    3  A    between atoms: CAV_17  and  CAW_18 
REMARK    4  A    between atoms: CAV_17  and  NAU_24 
REMARK    5  A    between atoms: CAW_18  and  NAX_26 
REMARK    6  A    between atoms: CAY_19  and  NAX_26 
REMARK    7  A    between atoms: CAZ_20  and  NAX_26 
ROOT
ATOM      1  CAL   J A   1      10.227   5.148  12.005  0.00  0.00     0.021 A 
ATOM      2  CAM   J A   1       9.039   5.886  12.161  0.00  0.00    -0.021 A 
ATOM      3  CAN   J A   1       9.274   6.865  13.116  0.00  0.00     0.061 A 
ATOM      4  CAO   J A   1      10.594   6.685  13.517  0.00  0.00     0.021 A 
ATOM      5  CAQ   J A   1       7.723   5.653  11.406  0.00  0.00     0.051 C 
ATOM      6  CAR   J A   1      11.376   7.470  14.569  0.00  0.00     0.069 C 
ATOM      7  NAP   J A   1      11.135   5.673  12.843  0.00  0.00    -0.362 N 
ATOM      8  HAP   J A   1      12.087   5.350  12.946  0.00  0.00     0.165 HD
ENDROOT
BRANCH   1   9
ATOM      9  CAK   J A   1      10.348   4.072  11.115  0.00  0.00     0.103 C 
ATOM     10  CAG   J A   1      11.557   3.505  10.626  0.00  0.00     0.030 A 
ATOM     11  CAE   J A   1      11.606   2.302   9.898  0.00  0.00     0.006 A 
ATOM     12  CAI   J A   1      12.889   3.948  10.679  0.00  0.00     0.275 A 
ATOM     13  CAD   J A   1      10.629   1.397   9.509  0.00  0.00     0.038 A 
ATOM     14  CAF   J A   1      12.951   2.070   9.557  0.00  0.00     0.071 A 
ATOM     15  CAA   J A   1      10.992   0.263   8.781  0.00  0.00     0.035 A 
ATOM     16  CAB   J A   1      12.334   0.020   8.435  0.00  0.00     0.026 A 
ATOM     17 CL     J A   1       9.759  -0.857   8.332  0.00  0.00    -0.084 Cl
ATOM     18  CAC   J A   1      13.316   0.928   8.833  0.00  0.00     0.034 A 
ATOM     19  NAH   J A   1      13.678   3.088  10.049  0.00  0.00    -0.209 NA
ATOM     20  OAJ   J A   1      13.338   4.964  11.224  0.00  0.00    -0.266 OA
ENDBRANCH   1   9
BRANCH   3  21
ATOM     21  CAS   J A   1       8.279   7.930  13.707  0.00  0.00     0.254 C 
ATOM     22  NAU   J A   1       7.391   7.524  14.618  0.00  0.00    -0.355 N 
ATOM     23  HAU   J A   1       7.379   6.546  14.870  0.00  0.00     0.162 HD
ATOM     24  OAT   J A   1       8.379   9.104  13.367  0.00  0.00    -0.268 OA
BRANCH  22  25
ATOM     25  CAV   J A   1       6.420   8.433  15.282  0.00  0.00     0.150 C 
BRANCH  25  26
ATOM     26  CAW   J A   1       5.009   7.841  15.032  0.00  0.00     0.254 C 
BRANCH  26  27
ATOM     27  NAX   J A   1       4.089   8.684  14.214  0.00  0.00    -0.070 N 
ATOM     28  HAX   J A   1       3.464   8.029  13.766  0.00  0.00     0.279 HD
BRANCH  27  29
ATOM     29  CAY   J A   1       4.810   9.427  13.151  0.00  0.00     0.230 C 
ATOM     30  CBB   J A   1       5.025   8.580  11.884  0.00  0.00     0.034 C 
ENDBRANCH  27  29
BRANCH  27  31
ATOM     31  CAZ   J A   1       3.221   9.585  15.015  0.00  0.00     0.230 C 
ATOM     32  CBA   J A   1       2.709   8.836  16.258  0.00  0.00     0.034 C 
ENDBRANCH  27  31
ENDBRANCH  26  27
ENDBRANCH  25  26
ENDBRANCH  22  25
ENDBRANCH   3  21
TORSDOF 7
ENDMDL
MODEL 6
REMARK VINA RESULT:    -7.808      5.614      7.851
REMARK INTER + INTRA:         -11.975
REMARK INTER:                 -10.661
REMARK INTRA:                  -1.314
REMARK UNBOUND:                -0.972
REMARK  7 active torsions:
REMARK  status: ('A' for Active; 'I' for Inactive)
REMARK    1  A    between atoms: CAK_9  and  CAL_10 
REMARK    2  A    between atoms: CAN_12  and  CAS_16 
REMARK       I    between atoms: CAS_16  and  NAU_24 
REMARK    3  A    between atoms: CAV_17  and  CAW_18 
REMARK    4  A    between atoms: CAV_17  and  NAU_24 
REMARK    5  A    between atoms: CAW_18  and  NAX_26 
REMARK    6  A    between atoms: CAY_19  and  NAX_26 
REMARK    7  A    between atoms: CAZ_20  and  NAX_26 
ROOT
ATOM      1  CAL   J A   1      14.672   3.451  11.132  0.00  0.00     0.021 A 
ATOM      2  CAM   J A   1      14.483   4.648  11.847  0.00  0.00    -0.021 A 
ATOM      3  CAN   J A   1      15.720   5.052  12.329  0.00  0.00     0.061 A 
ATOM      4  CAO   J A   1      16.621   4.082  11.900  0.00  0.00     0.021 A 
ATOM      5  CAQ   J A   1      13.149   5.379  12.051  0.00  0.00     0.051 C 
ATOM      6  CAR   J A   1      18.124   4.007  12.166  0.00  0.00     0.069 C 
ATOM      7  NAP   J A   1      15.981   3.155  11.191  0.00  0.00    -0.362 N 
ATOM      8  HAP   J A   1      16.415   2.350  10.762  0.00  0.00     0.165 HD
ENDROOT
BRANCH   1   9
ATOM      9  CAK   J A   1      13.627   2.759  10.507  0.00  0.00     0.103 C 
ATOM     10  CAG   J A   1      13.743   1.806   9.458  0.00  0.00     0.030 A 
ATOM     11  CAE   J A   1      12.674   1.004   9.021  0.00  0.00     0.006 A 
ATOM     12  CAI   J A   1      14.818   1.461   8.621  0.00  0.00     0.275 A 
ATOM     13  CAD   J A   1      11.357   0.883   9.438  0.00  0.00     0.038 A 
ATOM     14  CAF   J A   1      13.148   0.213   7.958  0.00  0.00     0.071 A 
ATOM     15  CAA   J A   1      10.513  -0.026   8.798  0.00  0.00     0.035 A 
ATOM     16  CAB   J A   1      10.976  -0.823   7.736  0.00  0.00     0.026 A 
ATOM     17 CL     J A   1       8.887  -0.174   9.356  0.00  0.00    -0.084 Cl
ATOM     18  CAC   J A   1      12.303  -0.705   7.321  0.00  0.00     0.034 A 
ATOM     19  NAH   J A   1      14.440   0.527   7.760  0.00  0.00    -0.209 NA
ATOM     20  OAJ   J A   1      15.974   1.904   8.635  0.00  0.00    -0.266 OA
ENDBRANCH   1   9
BRANCH   3  21
ATOM     21  CAS   J A   1      16.075   6.292  13.229  0.00  0.00     0.254 C 
ATOM     22  NAU   J A   1      16.360   7.448  12.624  0.00  0.00    -0.355 N 
ATOM     23  HAU   J A   1      16.360   7.470  11.614  0.00  0.00     0.162 HD
ATOM     24  OAT   J A   1      16.025   6.186  14.450  0.00  0.00    -0.268 OA
BRANCH  22  25
ATOM     25  CAV   J A   1      16.675   8.703  13.355  0.00  0.00     0.150 C 
BRANCH  25  26
ATOM     26  CAW   J A   1      18.212   8.731  13.554  0.00  0.00     0.254 C 
BRANCH  26  27
ATOM     27  NAX   J A   1      18.761   7.715  14.498  0.00  0.00    -0.070 N 
ATOM     28  HAX   J A   1      18.001   7.068  14.656  0.00  0.00     0.279 HD
BRANCH  27  29
ATOM     29  CAY   J A   1      19.132   8.310  15.806  0.00  0.00     0.230 C 
ATOM     30  CBB   J A   1      18.063   8.069  16.886  0.00  0.00     0.034 C 
ENDBRANCH  27  29
BRANCH  27  31
ATOM     31  CAZ   J A   1      19.870   6.902  13.935  0.00  0.00     0.230 C 
ATOM     32  CBA   J A   1      20.048   7.236  12.444  0.00  0.00     0.034 C 
ENDBRANCH  27  31
ENDBRANCH  26  27
ENDBRANCH  25  26
ENDBRANCH  22  25
ENDBRANCH   3  21
TORSDOF 7
ENDMDL
MODEL 7
REMARK VINA RESULT:    -7.652      3.296      9.534
REMARK INTER + INTRA:         -11.755
REMARK INTER:                 -10.733
REMARK INTRA:                  -1.022
REMARK UNBOUND:                -0.972
REMARK  7 active torsions:
REMARK  status: ('A' for Active; 'I' for Inactive)
REMARK    1  A    between atoms: CAK_9  and  CAL_10 
REMARK    2  A    between atoms: CAN_12  and  CAS_16 
REMARK       I    between atoms: CAS_16  and  NAU_24 
REMARK    3  A    between atoms: CAV_17  and  CAW_18 
REMARK    4  A    between atoms: CAV_17  and  NAU_24 
REMARK    5  A    between atoms: CAW_18  and  NAX_26 
REMARK    6  A    between atoms: CAY_19  and  NAX_26 
REMARK    7  A    between atoms: CAZ_20  and  NAX_26 
ROOT
ATOM      1  CAL   J A   1       8.305   6.756  12.945  0.00  0.00     0.021 A 
ATOM      2  CAM   J A   1       9.676   6.799  13.261  0.00  0.00    -0.021 A 
ATOM      3  CAN   J A   1      10.362   6.132  12.256  0.00  0.00     0.061 A 
ATOM      4  CAO   J A   1       9.385   5.697  11.365  0.00  0.00     0.021 A 
ATOM      5  CAQ   J A   1      10.300   7.469  14.493  0.00  0.00     0.051 C 
ATOM      6  CAR   J A   1       9.571   4.885  10.084  0.00  0.00     0.069 C 
ATOM      7  NAP   J A   1       8.184   6.083  11.789  0.00  0.00    -0.362 N 
ATOM      8  HAP   J A   1       7.313   5.898  11.313  0.00  0.00     0.165 HD
ENDROOT
BRANCH   1   9
ATOM      9  CAK   J A   1       7.315   7.335  13.750  0.00  0.00     0.103 C 
ATOM     10  CAG   J A   1       6.087   7.902  13.314  0.00  0.00     0.030 A 
ATOM     11  CAE   J A   1       5.055   8.279  14.192  0.00  0.00     0.006 A 
ATOM     12  CAI   J A   1       5.618   8.253  12.036  0.00  0.00     0.275 A 
ATOM     13  CAD   J A   1       4.915   8.198  15.569  0.00  0.00     0.038 A 
ATOM     14  CAF   J A   1       4.017   8.825  13.414  0.00  0.00     0.071 A 
ATOM     15  CAA   J A   1       3.744   8.661  16.171  0.00  0.00     0.035 A 
ATOM     16  CAB   J A   1       2.700   9.208  15.404  0.00  0.00     0.026 A 
ATOM     17 CL     J A   1       3.588   8.524  17.884  0.00  0.00    -0.084 Cl
ATOM     18  CAC   J A   1       2.839   9.282  14.017  0.00  0.00     0.034 A 
ATOM     19  NAH   J A   1       4.407   8.786  12.128  0.00  0.00    -0.209 NA
ATOM     20  OAJ   J A   1       6.183   8.105  10.945  0.00  0.00    -0.266 OA
ENDBRANCH   1   9
BRANCH   3  21
ATOM     21  CAS   J A   1      11.902   5.841  12.134  0.00  0.00     0.254 C 
ATOM     22  NAU   J A   1      12.326   4.595  12.358  0.00  0.00    -0.355 N 
ATOM     23  HAU   J A   1      11.644   3.898  12.622  0.00  0.00     0.162 HD
ATOM     24  OAT   J A   1      12.660   6.738  11.781  0.00  0.00    -0.268 OA
BRANCH  22  25
ATOM     25  CAV   J A   1      13.748   4.176  12.240  0.00  0.00     0.150 C 
BRANCH  25  26
ATOM     26  CAW   J A   1      13.901   3.495  10.855  0.00  0.00     0.254 C 
BRANCH  26  27
ATOM     27  NAX   J A   1      13.709   2.017  10.836  0.00  0.00    -0.070 N 
ATOM     28  HAX   J A   1      13.749   1.736  11.806  0.00  0.00     0.279 HD
BRANCH  27  29
ATOM     29  CAY   J A   1      14.803   1.321  10.115  0.00  0.00     0.230 C 
ATOM     30  CBB   J A   1      15.988   2.252   9.803  0.00  0.00     0.034 C 
ENDBRANCH  27  29
BRANCH  27  31
ATOM     31  CAZ   J A   1      12.374   1.586  10.348  0.00  0.00     0.230 C 
ATOM     32  CBA   J A   1      12.535   0.791   9.041  0.00  0.00     0.034 C 
ENDBRANCH  27  31
ENDBRANCH  26  27
ENDBRANCH  25  26
ENDBRANCH  22  25
ENDBRANCH   3  21
TORSDOF 7
ENDMDL
MODEL 8
REMARK VINA RESULT:    -7.500      2.591      3.436
REMARK INTER + INTRA:         -11.541
REMARK INTER:                 -10.847
REMARK INTRA:                  -0.694
REMARK UNBOUND:                -0.972
REMARK  7 active torsions:
REMARK  status: ('A' for Active; 'I' for Inactive)
REMARK    1  A    between atoms: CAK_9  and  CAL_10 
REMARK    2  A    between atoms: CAN_12  and  CAS_16 
REMARK       I    between atoms: CAS_16  and  NAU_24 
REMARK    3  A    between atoms: CAV_17  and  CAW_18 
REMARK    4  A    between atoms: CAV_17  and  NAU_24 
REMARK    5  A    between atoms: CAW_18  and  NAX_26 
REMARK    6  A    between atoms: CAY_19  and  NAX_26 
REMARK    7  A    between atoms: CAZ_20  and  NAX_26 
ROOT
ATOM      1  CAL   J A   1      11.064   5.648  12.212  0.00  0.00     0.021 A 
ATOM      2  CAM   J A   1      11.030   7.045  12.381  0.00  0.00    -0.021 A 
ATOM      3  CAN   J A   1       9.701   7.420  12.522  0.00  0.00     0.061 A 
ATOM      4  CAO   J A   1       8.970   6.240  12.425  0.00  0.00     0.021 A 
ATOM      5  CAQ   J A   1      12.244   7.983  12.411  0.00  0.00     0.051 C 
ATOM      6  CAR   J A   1       7.453   6.064  12.484  0.00  0.00     0.069 C 
ATOM      7  NAP   J A   1       9.795   5.211  12.250  0.00  0.00    -0.362 N 
ATOM      8  HAP   J A   1       9.509   4.247  12.160  0.00  0.00     0.165 HD
ENDROOT
BRANCH   1   9
ATOM      9  CAK   J A   1      12.253   4.927  12.038  0.00  0.00     0.103 C 
ATOM     10  CAG   J A   1      12.548   4.012  10.991  0.00  0.00     0.030 A 
ATOM     11  CAE   J A   1      13.832   3.482  10.767  0.00  0.00     0.006 A 
ATOM     12  CAI   J A   1      11.735   3.407  10.019  0.00  0.00     0.275 A 
ATOM     13  CAD   J A   1      15.054   3.682  11.392  0.00  0.00     0.038 A 
ATOM     14  CAF   J A   1      13.739   2.598   9.676  0.00  0.00     0.071 A 
ATOM     15  CAA   J A   1      16.182   3.002  10.930  0.00  0.00     0.035 A 
ATOM     16  CAB   J A   1      16.101   2.116   9.841  0.00  0.00     0.026 A 
ATOM     17 CL     J A   1      17.694   3.289  11.711  0.00  0.00    -0.084 Cl
ATOM     18  CAC   J A   1      14.873   1.922   9.209  0.00  0.00     0.034 A 
ATOM     19  NAH   J A   1      12.459   2.590   9.265  0.00  0.00    -0.209 NA
ATOM     20  OAJ   J A   1      10.524   3.571   9.821  0.00  0.00    -0.266 OA
ENDBRANCH   1   9
BRANCH   3  21
ATOM     21  CAS   J A   1       9.092   8.860  12.689  0.00  0.00     0.254 C 
ATOM     22  NAU   J A   1       7.965   9.146  12.032  0.00  0.00    -0.355 N 
ATOM     23  HAU   J A   1       7.566   8.435  11.436  0.00  0.00     0.162 HD
ATOM     24  OAT   J A   1       9.624   9.656  13.455  0.00  0.00    -0.268 OA
BRANCH  22  25
ATOM     25  CAV   J A   1       7.264  10.454  12.131  0.00  0.00     0.150 C 
BRANCH  25  26
ATOM     26  CAW   J A   1       6.265  10.339  13.311  0.00  0.00     0.254 C 
BRANCH  26  27
ATOM     27  NAX   J A   1       5.686   8.983  13.538  0.00  0.00    -0.070 N 
ATOM     28  HAX   J A   1       6.387   8.339  13.201  0.00  0.00     0.279 HD
BRANCH  27  29
ATOM     29  CAY   J A   1       4.449   8.765  12.747  0.00  0.00     0.230 C 
ATOM     30  CBB   J A   1       3.178   9.150  13.523  0.00  0.00     0.034 C 
ENDBRANCH  27  29
BRANCH  27  31
ATOM     31  CAZ   J A   1       5.483   8.644  14.969  0.00  0.00     0.230 C 
ATOM     32  CBA   J A   1       5.546   7.118  15.151  0.00  0.00     0.034 C 
ENDBRANCH  27  31
ENDBRANCH  26  27
ENDBRANCH  25  26
ENDBRANCH  22  25
ENDBRANCH   3  21
TORSDOF 7
ENDMDL
MODEL 9
REMARK VINA RESULT:    -7.387      5.420      9.399
REMARK INTER + INTRA:         -11.382
REMARK INTER:                 -10.410
REMARK INTRA:                  -0.972
REMARK UNBOUND:                -0.972
REMARK  7 active torsions:
REMARK  status: ('A' for Active; 'I' for Inactive)
REMARK    1  A    between atoms: CAK_9  and  CAL_10 
REMARK    2  A    between atoms: CAN_12  and  CAS_16 
REMARK       I    between atoms: CAS_16  and  NAU_24 
REMARK    3  A    between atoms: CAV_17  and  CAW_18 
REMARK    4  A    between atoms: CAV_17  and  NAU_24 
REMARK    5  A    between atoms: CAW_18  and  NAX_26 
REMARK    6  A    between atoms: CAY_19  and  NAX_26 
REMARK    7  A    between atoms: CAZ_20  and  NAX_26 
ROOT
ATOM      1  CAL   J A   1      14.818   3.706  11.832  0.00  0.00     0.021 A 
ATOM      2  CAM   J A   1      16.216   3.867  11.855  0.00  0.00    -0.021 A 
ATOM      3  CAN   J A   1      16.501   4.964  12.656  0.00  0.00     0.061 A 
ATOM      4  CAO   J A   1      15.267   5.441  13.087  0.00  0.00     0.021 A 
ATOM      5  CAQ   J A   1      17.240   2.984  11.129  0.00  0.00     0.051 C 
ATOM      6  CAR   J A   1      14.981   6.650  13.976  0.00  0.00     0.069 C 
ATOM      7  NAP   J A   1      14.293   4.679  12.595  0.00  0.00    -0.362 N 
ATOM      8  HAP   J A   1      13.307   4.813  12.769  0.00  0.00     0.165 HD
ENDROOT
BRANCH   1   9
ATOM      9  CAK   J A   1      14.176   2.689  11.113  0.00  0.00     0.103 C 
ATOM     10  CAG   J A   1      12.774   2.493  10.983  0.00  0.00     0.030 A 
ATOM     11  CAE   J A   1      12.202   1.576  10.083  0.00  0.00     0.006 A 
ATOM     12  CAI   J A   1      11.682   3.056  11.665  0.00  0.00     0.275 A 
ATOM     13  CAD   J A   1      12.749   0.715   9.144  0.00  0.00     0.038 A 
ATOM     14  CAF   J A   1      10.807   1.632  10.253  0.00  0.00     0.071 A 
ATOM     15  CAA   J A   1      11.907  -0.090   8.375  0.00  0.00     0.035 A 
ATOM     16  CAB   J A   1      10.511  -0.042   8.535  0.00  0.00     0.026 A 
ATOM     17 CL     J A   1      12.615  -1.134   7.197  0.00  0.00    -0.084 Cl
ATOM     18  CAC   J A   1       9.961   0.831   9.475  0.00  0.00     0.034 A 
ATOM     19  NAH   J A   1      10.549   2.536  11.214  0.00  0.00    -0.209 NA
ATOM     20  OAJ   J A   1      11.694   3.920  12.551  0.00  0.00    -0.266 OA
ENDBRANCH   1   9
BRANCH   3  21
ATOM     21  CAS   J A   1      17.895   5.614  12.985  0.00  0.00     0.254 C 
ATOM     22  NAU   J A   1      18.616   6.102  11.972  0.00  0.00    -0.355 N 
ATOM     23  HAU   J A   1      18.247   6.010  11.036  0.00  0.00     0.162 HD
ATOM     24  OAT   J A   1      18.256   5.711  14.153  0.00  0.00    -0.268 OA
BRANCH  22  25
ATOM     25  CAV   J A   1      19.930   6.774  12.147  0.00  0.00     0.150 C 
BRANCH  25  26
ATOM     26  CAW   J A   1      21.018   5.685  11.958  0.00  0.00     0.254 C 
BRANCH  26  27
ATOM     27  NAX   J A   1      20.968   4.547  12.920  0.00  0.00    -0.070 N 
ATOM     28  HAX   J A   1      20.126   4.696  13.458  0.00  0.00     0.279 HD
BRANCH  27  29
ATOM     29  CAY   J A   1      22.117   4.559  13.859  0.00  0.00     0.230 C 
ATOM     30  CBB   J A   1      23.468   4.399  13.140  0.00  0.00     0.034 C 
ENDBRANCH  27  29
BRANCH  27  31
ATOM     31  CAZ   J A   1      20.805   3.218  12.277  0.00  0.00     0.230 C 
ATOM     32  CBA   J A   1      20.159   2.240  13.273  0.00  0.00     0.034 C 
ENDBRANCH  27  31
ENDBRANCH  26  27
ENDBRANCH  25  26
ENDBRANCH  22  25
ENDBRANCH   3  21
TORSDOF 7
ENDMDL
MODEL 10
REMARK VINA RESULT:    -7.325      1.774      2.487
REMARK INTER + INTRA:         -11.295
REMARK INTER:                 -10.558
REMARK INTRA:                  -0.737
REMARK UNBOUND:                -0.972
REMARK  7 active torsions:
REMARK  status: ('A' for Active; 'I' for Inactive)
REMARK    1  A    between atoms: CAK_9  and  CAL_10 
REMARK    2  A    between atoms: CAN_12  and  CAS_16 
REMARK       I    between atoms: CAS_16  and  NAU_24 
REMARK    3  A    between atoms: CAV_17  and  CAW_18 
REMARK    4  A    between atoms: CAV_17  and  NAU_24 
REMARK    5  A    between atoms: CAW_18  and  NAX_26 
REMARK    6  A    between atoms: CAY_19  and  NAX_26 
REMARK    7  A    between atoms: CAZ_20  and  NAX_26 
ROOT
ATOM      1  CAL   J A   1       9.778   6.119  11.632  0.00  0.00     0.021 A 
ATOM      2  CAM   J A   1       8.525   6.638  12.008  0.00  0.00    -0.021 A 
ATOM      3  CAN   J A   1       8.746   7.849  12.650  0.00  0.00     0.061 A 
ATOM      4  CAO   J A   1      10.126   8.023  12.651  0.00  0.00     0.021 A 
ATOM      5  CAQ   J A   1       7.160   5.985  11.750  0.00  0.00     0.051 C 
ATOM      6  CAR   J A   1      10.931   9.176  13.250  0.00  0.00     0.069 C 
ATOM      7  NAP   J A   1      10.710   6.996  12.039  0.00  0.00    -0.362 N 
ATOM      8  HAP   J A   1      11.706   6.891  11.903  0.00  0.00     0.165 HD
ENDROOT
BRANCH   1   9
ATOM      9  CAK   J A   1       9.930   4.899  10.960  0.00  0.00     0.103 C 
ATOM     10  CAG   J A   1      11.139   4.175  10.774  0.00  0.00     0.030 A 
ATOM     11  CAE   J A   1      11.184   2.863  10.269  0.00  0.00     0.006 A 
ATOM     12  CAI   J A   1      12.484   4.530  10.973  0.00  0.00     0.275 A 
ATOM     13  CAD   J A   1      10.197   1.973   9.876  0.00  0.00     0.038 A 
ATOM     14  CAF   J A   1      12.538   2.485  10.196  0.00  0.00     0.071 A 
ATOM     15  CAA   J A   1      10.556   0.707   9.410  0.00  0.00     0.035 A 
ATOM     16  CAB   J A   1      11.906   0.318   9.333  0.00  0.00     0.026 A 
ATOM     17 CL     J A   1       9.305  -0.389   8.952  0.00  0.00    -0.084 Cl
ATOM     18  CAC   J A   1      12.898   1.212   9.736  0.00  0.00     0.034 A 
ATOM     19  NAH   J A   1      13.275   3.522  10.630  0.00  0.00    -0.209 NA
ATOM     20  OAJ   J A   1      12.940   5.593  11.413  0.00  0.00    -0.266 OA
ENDBRANCH   1   9
BRANCH   3  21
ATOM     21  CAS   J A   1       7.703   8.823  13.312  0.00  0.00     0.254 C 
ATOM     22  NAU   J A   1       7.117   8.437  14.448  0.00  0.00    -0.355 N 
ATOM     23  HAU   J A   1       7.348   7.527  14.820  0.00  0.00     0.162 HD
ATOM     24  OAT   J A   1       7.501   9.923  12.810  0.00  0.00    -0.268 OA
BRANCH  22  25
ATOM     25  CAV   J A   1       6.143   9.275  15.197  0.00  0.00     0.150 C 
BRANCH  25  26
ATOM     26  CAW   J A   1       5.179   8.301  15.922  0.00  0.00     0.254 C 
BRANCH  26  27
ATOM     27  NAX   J A   1       5.080   8.470  17.401  0.00  0.00    -0.070 N 
ATOM     28  HAX   J A   1       5.022   7.530  17.767  0.00  0.00     0.279 HD
BRANCH  27  29
ATOM     29  CAY   J A   1       3.847   9.192  17.799  0.00  0.00     0.230 C 
ATOM     30  CBB   J A   1       2.696   8.989  16.798  0.00  0.00     0.034 C 
ENDBRANCH  27  29
BRANCH  27  31
ATOM     31  CAZ   J A   1       6.288   9.069  18.023  0.00  0.00     0.230 C 
ATOM     32  CBA   J A   1       5.896  10.350  18.780  0.00  0.00     0.034 C 
ENDBRANCH  27  31
ENDBRANCH  26  27
ENDBRANCH  25  26
ENDBRANCH  22  25
ENDBRANCH   3  21
TORSDOF 7
ENDMDL
