MODEL 1
REMARK VINA RESULT:    -9.868      0.000      0.000
REMARK INTER + INTRA:         -12.590
REMARK INTER:                 -12.159
REMARK INTRA:                  -0.430
REMARK UNBOUND:                -0.414
REMARK  4 active torsions:
REMARK  status: ('A' for Active; 'I' for Inactive)
REMARK    1  A    between atoms: C1_1  and  C17_19 
REMARK    2  A    between atoms: C9_10  and  C10_11 
REMARK    3  A    between atoms: C12_13  and  N16_17 
REMARK       I    between atoms: N16_17  and  C22_24 
REMARK    4  A    between atoms: C22_24  and  C24_26 
ROOT
ATOM      1  C1  Q35 B   1     -38.704 -68.752  51.924  0.00  0.00     0.014 A 
ATOM      2  C2  Q35 B   1     -38.221 -69.817  52.689  0.00  0.00     0.018 A 
ATOM      3  C3  Q35 B   1     -38.896 -70.215  53.849  0.00  0.00     0.033 A 
ATOM      4  C4  Q35 B   1     -39.860 -68.076  52.307  0.00  0.00     0.031 A 
ATOM      5  C5  Q35 B   1     -40.527 -68.480  53.454  0.00  0.00     0.024 A 
ATOM      6  C6  Q35 B   1     -40.054 -69.535  54.220  0.00  0.00     0.062 A 
ATOM      7  N7  Q35 B   1     -40.897 -69.686  55.248  0.00  0.00    -0.277 N 
ATOM      8  H7  Q35 B   1     -40.819 -70.379  55.979  0.00  0.00     0.189 HD
ATOM      9  N8  Q35 B   1     -41.900 -68.724  55.139  0.00  0.00    -0.173 NA
ATOM     10  C9  Q35 B   1     -41.676 -67.974  54.051  0.00  0.00     0.099 A 
ENDROOT
BRANCH  10  11
ATOM     11  C10 Q35 B   1     -42.584 -66.876  53.601  0.00  0.00    -0.003 A 
ATOM     12  C11 Q35 B   1     -42.314 -66.350  52.341  0.00  0.00     0.043 A 
ATOM     13  C12 Q35 B   1     -43.064 -65.307  51.809  0.00  0.00     0.035 A 
ATOM     14  C13 Q35 B   1     -44.118 -64.768  52.549  0.00  0.00     0.029 A 
ATOM     15  C14 Q35 B   1     -44.390 -65.286  53.821  0.00  0.00     0.003 A 
ATOM     16  C15 Q35 B   1     -43.626 -66.330  54.352  0.00  0.00     0.014 A 
BRANCH  13  17
ATOM     17  N16 Q35 B   1     -42.725 -64.892  50.557  0.00  0.00    -0.321 N 
ATOM     18  H16 Q35 B   1     -43.363 -65.128  49.809  0.00  0.00     0.169 HD
ATOM     19  C22 Q35 B   1     -41.631 -64.202  50.221  0.00  0.00     0.279 C 
ATOM     20  O23 Q35 B   1     -40.804 -63.878  51.049  0.00  0.00    -0.265 OA
BRANCH  19  21
ATOM     21  C24 Q35 B   1     -41.457 -63.856  48.939  0.00  0.00     0.142 A 
ATOM     22  C25 Q35 B   1     -42.359 -63.283  48.131  0.00  0.00     0.045 A 
ATOM     23  C26 Q35 B   1     -41.865 -63.097  46.974  0.00  0.00     0.027 A 
ATOM     24  C27 Q35 B   1     -40.661 -63.492  46.862  0.00  0.00     0.143 A 
ATOM     25  O28 Q35 B   1     -40.263 -64.040  48.149  0.00  0.00    -0.317 OA
ENDBRANCH  19  21
ENDBRANCH  13  17
ENDBRANCH  10  11
BRANCH   1  26
ATOM     26  C17 Q35 B   1     -37.980 -68.324  50.695  0.00  0.00     0.178 A 
ATOM     27  N18 Q35 B   1     -36.908 -68.936  50.150  0.00  0.00    -0.133 NA
ATOM     28  N19 Q35 B   1     -36.552 -68.215  49.003  0.00  0.00    -0.169 NA
ATOM     29  C20 Q35 B   1     -37.417 -67.187  48.893  0.00  0.00     0.324 A 
ATOM     30  N21 Q35 B   1     -38.282 -67.256  49.929  0.00  0.00    -0.246 NA
ENDBRANCH   1  26
TORSDOF 4
ENDMDL
MODEL 2
REMARK VINA RESULT:    -9.843      1.816      5.134
REMARK INTER + INTRA:         -12.558
REMARK INTER:                 -12.003
REMARK INTRA:                  -0.555
REMARK UNBOUND:                -0.414
REMARK  4 active torsions:
REMARK  status: ('A' for Active; 'I' for Inactive)
REMARK    1  A    between atoms: C1_1  and  C17_19 
REMARK    2  A    between atoms: C9_10  and  C10_11 
REMARK    3  A    between atoms: C12_13  and  N16_17 
REMARK       I    between atoms: N16_17  and  C22_24 
REMARK    4  A    between atoms: C22_24  and  C24_26 
ROOT
ATOM      1  C1  Q35 B   1     -42.193 -66.961  53.430  0.00  0.00     0.014 A 
ATOM      2  C2  Q35 B   1     -42.640 -67.653  54.558  0.00  0.00     0.018 A 
ATOM      3  C3  Q35 B   1     -41.932 -68.765  55.030  0.00  0.00     0.033 A 
ATOM      4  C4  Q35 B   1     -41.040 -67.368  52.763  0.00  0.00     0.031 A 
ATOM      5  C5  Q35 B   1     -40.340 -68.467  53.240  0.00  0.00     0.024 A 
ATOM      6  C6  Q35 B   1     -40.777 -69.161  54.358  0.00  0.00     0.062 A 
ATOM      7  N7  Q35 B   1     -39.908 -70.156  54.571  0.00  0.00    -0.277 N 
ATOM      8  H7  Q35 B   1     -39.957 -70.834  55.318  0.00  0.00     0.189 HD
ATOM      9  N8  Q35 B   1     -38.925 -70.098  53.584  0.00  0.00    -0.173 NA
ATOM     10  C9  Q35 B   1     -39.187 -69.076  52.759  0.00  0.00     0.099 A 
ENDROOT
BRANCH  10  11
ATOM     11  C10 Q35 B   1     -38.308 -68.690  51.613  0.00  0.00    -0.003 A 
ATOM     12  C11 Q35 B   1     -38.821 -67.716  50.762  0.00  0.00     0.043 A 
ATOM     13  C12 Q35 B   1     -38.121 -67.281  49.643  0.00  0.00     0.035 A 
ATOM     14  C13 Q35 B   1     -36.869 -67.831  49.356  0.00  0.00     0.029 A 
ATOM     15  C14 Q35 B   1     -36.350 -68.817  50.202  0.00  0.00     0.003 A 
ATOM     16  C15 Q35 B   1     -37.064 -69.254  51.323  0.00  0.00     0.014 A 
BRANCH  13  17
ATOM     17  N16 Q35 B   1     -38.709 -66.305  48.898  0.00  0.00    -0.321 N 
ATOM     18  H16 Q35 B   1     -39.415 -66.598  48.237  0.00  0.00     0.169 HD
ATOM     19  C22 Q35 B   1     -38.443 -64.996  48.957  0.00  0.00     0.279 C 
ATOM     20  O23 Q35 B   1     -37.606 -64.551  49.716  0.00  0.00    -0.265 OA
BRANCH  19  21
ATOM     21  C24 Q35 B   1     -39.129 -64.165  48.162  0.00  0.00     0.142 A 
ATOM     22  C25 Q35 B   1     -39.105 -62.825  48.188  0.00  0.00     0.045 A 
ATOM     23  C26 Q35 B   1     -39.882 -62.350  47.300  0.00  0.00     0.027 A 
ATOM     24  C27 Q35 B   1     -40.484 -63.239  46.618  0.00  0.00     0.143 A 
ATOM     25  O28 Q35 B   1     -40.054 -64.535  47.118  0.00  0.00    -0.317 OA
ENDBRANCH  19  21
ENDBRANCH  13  17
ENDBRANCH  10  11
BRANCH   1  26
ATOM     26  C17 Q35 B   1     -42.952 -65.783  52.924  0.00  0.00     0.178 A 
ATOM     27  N18 Q35 B   1     -42.716 -64.491  53.237  0.00  0.00    -0.133 NA
ATOM     28  N19 Q35 B   1     -43.649 -63.714  52.539  0.00  0.00    -0.169 NA
ATOM     29  C20 Q35 B   1     -44.423 -64.561  51.829  0.00  0.00     0.324 A 
ATOM     30  N21 Q35 B   1     -43.996 -65.820  52.072  0.00  0.00    -0.246 NA
ENDBRANCH   1  26
TORSDOF 4
ENDMDL
MODEL 3
REMARK VINA RESULT:    -9.781      3.333      5.436
REMARK INTER + INTRA:         -12.483
REMARK INTER:                 -11.878
REMARK INTRA:                  -0.605
REMARK UNBOUND:                -0.414
REMARK  4 active torsions:
REMARK  status: ('A' for Active; 'I' for Inactive)
REMARK    1  A    between atoms: C1_1  and  C17_19 
REMARK    2  A    between atoms: C9_10  and  C10_11 
REMARK    3  A    between atoms: C12_13  and  N16_17 
REMARK       I    between atoms: N16_17  and  C22_24 
REMARK    4  A    between atoms: C22_24  and  C24_26 
ROOT
ATOM      1  C1  Q35 B   1     -38.850 -68.648  51.782  0.00  0.00     0.014 A 
ATOM      2  C2  Q35 B   1     -38.350 -69.768  52.451  0.00  0.00     0.018 A 
ATOM      3  C3  Q35 B   1     -38.986 -70.243  53.604  0.00  0.00     0.033 A 
ATOM      4  C4  Q35 B   1     -39.985 -67.993  52.254  0.00  0.00     0.031 A 
ATOM      5  C5  Q35 B   1     -40.614 -68.474  53.393  0.00  0.00     0.024 A 
ATOM      6  C6  Q35 B   1     -40.124 -69.583  54.064  0.00  0.00     0.062 A 
ATOM      7  N7  Q35 B   1     -40.931 -69.802  55.110  0.00  0.00    -0.277 N 
ATOM      8  H7  Q35 B   1     -40.833 -70.546  55.786  0.00  0.00     0.189 HD
ATOM      9  N8  Q35 B   1     -41.928 -68.828  55.105  0.00  0.00    -0.173 NA
ATOM     10  C9  Q35 B   1     -41.736 -68.003  54.067  0.00  0.00     0.099 A 
ENDROOT
BRANCH  10  11
ATOM     11  C10 Q35 B   1     -42.650 -66.870  53.729  0.00  0.00    -0.003 A 
ATOM     12  C11 Q35 B   1     -43.963 -67.005  54.170  0.00  0.00     0.043 A 
ATOM     13  C12 Q35 B   1     -44.925 -66.037  53.903  0.00  0.00     0.035 A 
ATOM     14  C13 Q35 B   1     -44.575 -64.898  53.174  0.00  0.00     0.029 A 
ATOM     15  C14 Q35 B   1     -43.259 -64.760  52.720  0.00  0.00     0.003 A 
ATOM     16  C15 Q35 B   1     -42.298 -65.741  52.987  0.00  0.00     0.014 A 
BRANCH  13  17
ATOM     17  N16 Q35 B   1     -46.170 -66.263  54.407  0.00  0.00    -0.321 N 
ATOM     18  H16 Q35 B   1     -46.285 -66.156  55.406  0.00  0.00     0.169 HD
ATOM     19  C22 Q35 B   1     -47.255 -66.612  53.710  0.00  0.00     0.279 C 
ATOM     20  O23 Q35 B   1     -47.214 -66.770  52.506  0.00  0.00    -0.265 OA
BRANCH  19  21
ATOM     21  C24 Q35 B   1     -48.413 -66.778  54.362  0.00  0.00     0.142 A 
ATOM     22  C25 Q35 B   1     -48.671 -67.671  55.328  0.00  0.00     0.045 A 
ATOM     23  C26 Q35 B   1     -49.875 -67.560  55.724  0.00  0.00     0.027 A 
ATOM     24  C27 Q35 B   1     -50.531 -66.653  55.121  0.00  0.00     0.143 A 
ATOM     25  O28 Q35 B   1     -49.636 -66.041  54.153  0.00  0.00    -0.317 OA
ENDBRANCH  19  21
ENDBRANCH  13  17
ENDBRANCH  10  11
BRANCH   1  26
ATOM     26  C17 Q35 B   1     -38.167 -68.138  50.561  0.00  0.00     0.178 A 
ATOM     27  N18 Q35 B   1     -38.570 -67.098  49.800  0.00  0.00    -0.133 NA
ATOM     28  N19 Q35 B   1     -37.640 -66.953  48.763  0.00  0.00    -0.169 NA
ATOM     29  C20 Q35 B   1     -36.707 -67.913  48.926  0.00  0.00     0.324 A 
ATOM     30  N21 Q35 B   1     -37.036 -68.634  50.020  0.00  0.00    -0.246 NA
ENDBRANCH   1  26
TORSDOF 4
ENDMDL
MODEL 4
REMARK VINA RESULT:    -9.465      2.290      4.122
REMARK INTER + INTRA:         -12.093
REMARK INTER:                 -11.559
REMARK INTRA:                  -0.534
REMARK UNBOUND:                -0.414
REMARK  4 active torsions:
REMARK  status: ('A' for Active; 'I' for Inactive)
REMARK    1  A    between atoms: C1_1  and  C17_19 
REMARK    2  A    between atoms: C9_10  and  C10_11 
REMARK    3  A    between atoms: C12_13  and  N16_17 
REMARK       I    between atoms: N16_17  and  C22_24 
REMARK    4  A    between atoms: C22_24  and  C24_26 
ROOT
ATOM      1  C1  Q35 B   1     -38.404 -66.626  49.000  0.00  0.00     0.014 A 
ATOM      2  C2  Q35 B   1     -37.275 -67.336  48.587  0.00  0.00     0.018 A 
ATOM      3  C3  Q35 B   1     -36.780 -68.389  49.367  0.00  0.00     0.033 A 
ATOM      4  C4  Q35 B   1     -39.050 -66.955  50.190  0.00  0.00     0.031 A 
ATOM      5  C5  Q35 B   1     -38.558 -68.003  50.954  0.00  0.00     0.024 A 
ATOM      6  C6  Q35 B   1     -37.436 -68.713  50.552  0.00  0.00     0.062 A 
ATOM      7  N7  Q35 B   1     -37.207 -69.648  51.482  0.00  0.00    -0.277 N 
ATOM      8  H7  Q35 B   1     -36.458 -70.326  51.467  0.00  0.00     0.189 HD
ATOM      9  N8  Q35 B   1     -38.178 -69.527  52.475  0.00  0.00    -0.173 NA
ATOM     10  C9  Q35 B   1     -39.001 -68.516  52.167  0.00  0.00     0.099 A 
ENDROOT
BRANCH  10  11
ATOM     11  C10 Q35 B   1     -40.189 -68.136  52.990  0.00  0.00    -0.003 A 
ATOM     12  C11 Q35 B   1     -41.137 -67.343  52.348  0.00  0.00     0.043 A 
ATOM     13  C12 Q35 B   1     -42.279 -66.896  53.003  0.00  0.00     0.035 A 
ATOM     14  C13 Q35 B   1     -42.489 -67.245  54.339  0.00  0.00     0.029 A 
ATOM     15  C14 Q35 B   1     -41.537 -68.034  54.993  0.00  0.00     0.003 A 
ATOM     16  C15 Q35 B   1     -40.387 -68.474  54.329  0.00  0.00     0.014 A 
BRANCH  13  17
ATOM     17  N16 Q35 B   1     -43.149 -66.150  52.267  0.00  0.00    -0.321 N 
ATOM     18  H16 Q35 B   1     -43.718 -66.644  51.594  0.00  0.00     0.169 HD
ATOM     19  C22 Q35 B   1     -43.322 -64.827  52.348  0.00  0.00     0.279 C 
ATOM     20  O23 Q35 B   1     -42.679 -64.148  53.123  0.00  0.00    -0.265 OA
BRANCH  19  21
ATOM     21  C24 Q35 B   1     -44.237 -64.249  51.560  0.00  0.00     0.142 A 
ATOM     22  C25 Q35 B   1     -45.544 -64.537  51.498  0.00  0.00     0.045 A 
ATOM     23  C26 Q35 B   1     -46.121 -63.801  50.637  0.00  0.00     0.027 A 
ATOM     24  C27 Q35 B   1     -45.338 -62.988  50.050  0.00  0.00     0.143 A 
ATOM     25  O28 Q35 B   1     -44.007 -63.200  50.595  0.00  0.00    -0.317 OA
ENDBRANCH  19  21
ENDBRANCH  13  17
ENDBRANCH  10  11
BRANCH   1  26
ATOM     26  C17 Q35 B   1     -38.925 -65.501  48.174  0.00  0.00     0.178 A 
ATOM     27  N18 Q35 B   1     -40.224 -65.231  47.927  0.00  0.00    -0.133 NA
ATOM     28  N19 Q35 B   1     -40.268 -64.087  47.120  0.00  0.00    -0.169 NA
ATOM     29  C20 Q35 B   1     -38.994 -63.704  46.900  0.00  0.00     0.324 A 
ATOM     30  N21 Q35 B   1     -38.180 -64.572  47.541  0.00  0.00    -0.246 NA
ENDBRANCH   1  26
TORSDOF 4
ENDMDL
MODEL 5
REMARK VINA RESULT:    -9.316      2.168      5.805
REMARK INTER + INTRA:         -11.908
REMARK INTER:                 -11.974
REMARK INTRA:                   0.066
REMARK UNBOUND:                -0.414
REMARK  4 active torsions:
REMARK  status: ('A' for Active; 'I' for Inactive)
REMARK    1  A    between atoms: C1_1  and  C17_19 
REMARK    2  A    between atoms: C9_10  and  C10_11 
REMARK    3  A    between atoms: C12_13  and  N16_17 
REMARK       I    between atoms: N16_17  and  C22_24 
REMARK    4  A    between atoms: C22_24  and  C24_26 
ROOT
ATOM      1  C1  Q35 B   1     -42.534 -64.948  51.585  0.00  0.00     0.014 A 
ATOM      2  C2  Q35 B   1     -43.755 -64.569  52.148  0.00  0.00     0.018 A 
ATOM      3  C3  Q35 B   1     -44.294 -65.296  53.217  0.00  0.00     0.033 A 
ATOM      4  C4  Q35 B   1     -41.841 -66.052  52.079  0.00  0.00     0.031 A 
ATOM      5  C5  Q35 B   1     -42.379 -66.762  53.142  0.00  0.00     0.024 A 
ATOM      6  C6  Q35 B   1     -43.591 -66.394  53.706  0.00  0.00     0.062 A 
ATOM      7  N7  Q35 B   1     -43.845 -67.258  54.697  0.00  0.00    -0.277 N 
ATOM      8  H7  Q35 B   1     -44.655 -67.246  55.298  0.00  0.00     0.189 HD
ATOM      9  N8  Q35 B   1     -42.798 -68.177  54.756  0.00  0.00    -0.173 NA
ATOM     10  C9  Q35 B   1     -41.903 -67.890  53.801  0.00  0.00     0.099 A 
ENDROOT
BRANCH  10  11
ATOM     11  C10 Q35 B   1     -40.627 -68.644  53.608  0.00  0.00    -0.003 A 
ATOM     12  C11 Q35 B   1     -39.901 -68.317  52.467  0.00  0.00     0.043 A 
ATOM     13  C12 Q35 B   1     -38.709 -68.958  52.150  0.00  0.00     0.035 A 
ATOM     14  C13 Q35 B   1     -38.219 -69.958  52.993  0.00  0.00     0.029 A 
ATOM     15  C14 Q35 B   1     -38.948 -70.299  54.138  0.00  0.00     0.003 A 
ATOM     16  C15 Q35 B   1     -40.150 -69.653  54.446  0.00  0.00     0.014 A 
BRANCH  13  17
ATOM     17  N16 Q35 B   1     -38.072 -68.536  51.023  0.00  0.00    -0.321 N 
ATOM     18  H16 Q35 B   1     -38.649 -68.145  50.292  0.00  0.00     0.169 HD
ATOM     19  C22 Q35 B   1     -36.757 -68.590  50.790  0.00  0.00     0.279 C 
ATOM     20  O23 Q35 B   1     -35.984 -69.048  51.608  0.00  0.00    -0.265 OA
BRANCH  19  21
ATOM     21  C24 Q35 B   1     -36.290 -68.113  49.629  0.00  0.00     0.142 A 
ATOM     22  C25 Q35 B   1     -35.224 -67.319  49.456  0.00  0.00     0.045 A 
ATOM     23  C26 Q35 B   1     -35.066 -67.051  48.223  0.00  0.00     0.027 A 
ATOM     24  C27 Q35 B   1     -35.939 -67.585  47.467  0.00  0.00     0.143 A 
ATOM     25  O28 Q35 B   1     -36.844 -68.342  48.316  0.00  0.00    -0.317 OA
ENDBRANCH  19  21
ENDBRANCH  13  17
ENDBRANCH  10  11
BRANCH   1  26
ATOM     26  C17 Q35 B   1     -41.965 -64.180  50.443  0.00  0.00     0.178 A 
ATOM     27  N18 Q35 B   1     -40.669 -63.837  50.282  0.00  0.00    -0.133 NA
ATOM     28  N19 Q35 B   1     -40.569 -63.134  49.075  0.00  0.00    -0.169 NA
ATOM     29  C20 Q35 B   1     -41.808 -63.069  48.547  0.00  0.00     0.324 A 
ATOM     30  N21 Q35 B   1     -42.654 -63.703  49.387  0.00  0.00    -0.246 NA
ENDBRANCH   1  26
TORSDOF 4
ENDMDL
MODEL 6
REMARK VINA RESULT:    -9.008      3.286      6.767
REMARK INTER + INTRA:         -11.529
REMARK INTER:                 -10.789
REMARK INTRA:                  -0.739
REMARK UNBOUND:                -0.414
REMARK  4 active torsions:
REMARK  status: ('A' for Active; 'I' for Inactive)
REMARK    1  A    between atoms: C1_1  and  C17_19 
REMARK    2  A    between atoms: C9_10  and  C10_11 
REMARK    3  A    between atoms: C12_13  and  N16_17 
REMARK       I    between atoms: N16_17  and  C22_24 
REMARK    4  A    between atoms: C22_24  and  C24_26 
ROOT
ATOM      1  C1  Q35 B   1     -41.923 -67.610  53.542  0.00  0.00     0.014 A 
ATOM      2  C2  Q35 B   1     -41.648 -68.522  54.564  0.00  0.00     0.018 A 
ATOM      3  C3  Q35 B   1     -40.496 -69.316  54.510  0.00  0.00     0.033 A 
ATOM      4  C4  Q35 B   1     -41.056 -67.481  52.459  0.00  0.00     0.031 A 
ATOM      5  C5  Q35 B   1     -39.913 -68.266  52.416  0.00  0.00     0.024 A 
ATOM      6  C6  Q35 B   1     -39.633 -69.175  53.425  0.00  0.00     0.062 A 
ATOM      7  N7  Q35 B   1     -38.480 -69.777  53.107  0.00  0.00    -0.277 N 
ATOM      8  H7  Q35 B   1     -38.015 -70.487  53.652  0.00  0.00     0.189 HD
ATOM      9  N8  Q35 B   1     -38.034 -69.255  51.894  0.00  0.00    -0.173 NA
ATOM     10  C9  Q35 B   1     -38.909 -68.339  51.457  0.00  0.00     0.099 A 
ENDROOT
BRANCH  10  11
ATOM     11  C10 Q35 B   1     -38.719 -67.542  50.207  0.00  0.00    -0.003 A 
ATOM     12  C11 Q35 B   1     -37.409 -67.165  49.928  0.00  0.00     0.043 A 
ATOM     13  C12 Q35 B   1     -37.092 -66.399  48.811  0.00  0.00     0.035 A 
ATOM     14  C13 Q35 B   1     -38.107 -65.993  47.943  0.00  0.00     0.029 A 
ATOM     15  C14 Q35 B   1     -39.428 -66.361  48.222  0.00  0.00     0.003 A 
ATOM     16  C15 Q35 B   1     -39.740 -67.126  49.351  0.00  0.00     0.014 A 
BRANCH  13  17
ATOM     17  N16 Q35 B   1     -35.773 -66.113  48.624  0.00  0.00    -0.321 N 
ATOM     18  H16 Q35 B   1     -35.425 -65.267  49.052  0.00  0.00     0.169 HD
ATOM     19  C22 Q35 B   1     -34.896 -66.844  47.930  0.00  0.00     0.279 C 
ATOM     20  O23 Q35 B   1     -35.224 -67.874  47.376  0.00  0.00    -0.265 OA
BRANCH  19  21
ATOM     21  C24 Q35 B   1     -33.626 -66.427  47.859  0.00  0.00     0.142 A 
ATOM     22  C25 Q35 B   1     -32.890 -65.913  48.854  0.00  0.00     0.045 A 
ATOM     23  C26 Q35 B   1     -31.726 -65.616  48.439  0.00  0.00     0.027 A 
ATOM     24  C27 Q35 B   1     -31.542 -65.868  47.206  0.00  0.00     0.143 A 
ATOM     25  O28 Q35 B   1     -32.781 -66.428  46.689  0.00  0.00    -0.317 OA
ENDBRANCH  19  21
ENDBRANCH  13  17
ENDBRANCH  10  11
BRANCH   1  26
ATOM     26  C17 Q35 B   1     -43.153 -66.772  53.597  0.00  0.00     0.178 A 
ATOM     27  N18 Q35 B   1     -43.829 -66.425  54.713  0.00  0.00    -0.133 NA
ATOM     28  N19 Q35 B   1     -44.911 -65.628  54.316  0.00  0.00    -0.169 NA
ATOM     29  C20 Q35 B   1     -44.857 -65.523  52.972  0.00  0.00     0.324 A 
ATOM     30  N21 Q35 B   1     -43.787 -66.226  52.541  0.00  0.00    -0.246 NA
ENDBRANCH   1  26
TORSDOF 4
ENDMDL
MODEL 7
REMARK VINA RESULT:    -8.824      2.170      5.874
REMARK INTER + INTRA:         -11.302
REMARK INTER:                 -11.165
REMARK INTRA:                  -0.137
REMARK UNBOUND:                -0.414
REMARK  4 active torsions:
REMARK  status: ('A' for Active; 'I' for Inactive)
REMARK    1  A    between atoms: C1_1  and  C17_19 
REMARK    2  A    between atoms: C9_10  and  C10_11 
REMARK    3  A    between atoms: C12_13  and  N16_17 
REMARK       I    between atoms: N16_17  and  C22_24 
REMARK    4  A    between atoms: C22_24  and  C24_26 
ROOT
ATOM      1  C1  Q35 B   1     -38.946 -65.800  48.958  0.00  0.00     0.014 A 
ATOM      2  C2  Q35 B   1     -37.843 -65.865  48.103  0.00  0.00     0.018 A 
ATOM      3  C3  Q35 B   1     -36.842 -66.821  48.314  0.00  0.00     0.033 A 
ATOM      4  C4  Q35 B   1     -39.062 -66.684  50.028  0.00  0.00     0.031 A 
ATOM      5  C5  Q35 B   1     -38.070 -67.632  50.227  0.00  0.00     0.024 A 
ATOM      6  C6  Q35 B   1     -36.971 -67.703  49.384  0.00  0.00     0.062 A 
ATOM      7  N7  Q35 B   1     -36.198 -68.703  49.825  0.00  0.00    -0.277 N 
ATOM      8  H7  Q35 B   1     -35.326 -69.002  49.413  0.00  0.00     0.189 HD
ATOM      9  N8  Q35 B   1     -36.803 -69.261  50.950  0.00  0.00    -0.173 NA
ATOM     10  C9  Q35 B   1     -37.942 -68.606  51.212  0.00  0.00     0.099 A 
ENDROOT
BRANCH  10  11
ATOM     11  C10 Q35 B   1     -38.873 -68.972  52.322  0.00  0.00    -0.003 A 
ATOM     12  C11 Q35 B   1     -40.102 -68.320  52.316  0.00  0.00     0.043 A 
ATOM     13  C12 Q35 B   1     -41.053 -68.546  53.304  0.00  0.00     0.035 A 
ATOM     14  C13 Q35 B   1     -40.777 -69.450  54.334  0.00  0.00     0.029 A 
ATOM     15  C14 Q35 B   1     -39.539 -70.102  54.351  0.00  0.00     0.003 A 
ATOM     16  C15 Q35 B   1     -38.585 -69.864  53.356  0.00  0.00     0.014 A 
BRANCH  13  17
ATOM     17  N16 Q35 B   1     -42.230 -67.873  53.182  0.00  0.00    -0.321 N 
ATOM     18  H16 Q35 B   1     -42.631 -67.818  52.255  0.00  0.00     0.169 HD
ATOM     19  C22 Q35 B   1     -42.907 -67.276  54.167  0.00  0.00     0.279 C 
ATOM     20  O23 Q35 B   1     -42.502 -67.283  55.312  0.00  0.00    -0.265 OA
BRANCH  19  21
ATOM     21  C24 Q35 B   1     -44.064 -66.668  53.877  0.00  0.00     0.142 A 
ATOM     22  C25 Q35 B   1     -45.236 -67.257  53.601  0.00  0.00     0.045 A 
ATOM     23  C26 Q35 B   1     -46.128 -66.383  53.364  0.00  0.00     0.027 A 
ATOM     24  C27 Q35 B   1     -45.705 -65.186  53.440  0.00  0.00     0.143 A 
ATOM     25  O28 Q35 B   1     -44.293 -65.246  53.784  0.00  0.00    -0.317 OA
ENDBRANCH  19  21
ENDBRANCH  13  17
ENDBRANCH  10  11
BRANCH   1  26
ATOM     26  C17 Q35 B   1     -40.006 -64.777  48.737  0.00  0.00     0.178 A 
ATOM     27  N18 Q35 B   1     -40.606 -64.034  49.692  0.00  0.00    -0.133 NA
ATOM     28  N19 Q35 B   1     -41.528 -63.196  49.053  0.00  0.00    -0.169 NA
ATOM     29  C20 Q35 B   1     -41.460 -63.461  47.732  0.00  0.00     0.324 A 
ATOM     30  N21 Q35 B   1     -40.535 -64.428  47.547  0.00  0.00    -0.246 NA
ENDBRANCH   1  26
TORSDOF 4
ENDMDL
MODEL 8
REMARK VINA RESULT:    -8.691      1.814      5.115
REMARK INTER + INTRA:         -11.138
REMARK INTER:                 -10.584
REMARK INTRA:                  -0.554
REMARK UNBOUND:                -0.414
REMARK  4 active torsions:
REMARK  status: ('A' for Active; 'I' for Inactive)
REMARK    1  A    between atoms: C1_1  and  C17_19 
REMARK    2  A    between atoms: C9_10  and  C10_11 
REMARK    3  A    between atoms: C12_13  and  N16_17 
REMARK       I    between atoms: N16_17  and  C22_24 
REMARK    4  A    between atoms: C22_24  and  C24_26 
ROOT
ATOM      1  C1  Q35 B   1     -41.144 -67.688  53.369  0.00  0.00     0.014 A 
ATOM      2  C2  Q35 B   1     -40.904 -68.845  54.113  0.00  0.00     0.018 A 
ATOM      3  C3  Q35 B   1     -39.875 -69.721  53.744  0.00  0.00     0.033 A 
ATOM      4  C4  Q35 B   1     -40.364 -67.391  52.253  0.00  0.00     0.031 A 
ATOM      5  C5  Q35 B   1     -39.343 -68.259  51.898  0.00  0.00     0.024 A 
ATOM      6  C6  Q35 B   1     -39.098 -69.412  52.630  0.00  0.00     0.062 A 
ATOM      7  N7  Q35 B   1     -38.066 -70.037  52.050  0.00  0.00    -0.277 N 
ATOM      8  H7  Q35 B   1     -37.652 -70.904  52.359  0.00  0.00     0.189 HD
ATOM      9  N8  Q35 B   1     -37.661 -69.285  50.948  0.00  0.00    -0.173 NA
ATOM     10  C9  Q35 B   1     -38.443 -68.203  50.839  0.00  0.00     0.099 A 
ENDROOT
BRANCH  10  11
ATOM     11  C10 Q35 B   1     -38.259 -67.150  49.795  0.00  0.00    -0.003 A 
ATOM     12  C11 Q35 B   1     -39.390 -66.396  49.494  0.00  0.00     0.043 A 
ATOM     13  C12 Q35 B   1     -39.368 -65.400  48.524  0.00  0.00     0.035 A 
ATOM     14  C13 Q35 B   1     -38.184 -65.142  47.828  0.00  0.00     0.029 A 
ATOM     15  C14 Q35 B   1     -37.045 -65.902  48.119  0.00  0.00     0.003 A 
ATOM     16  C15 Q35 B   1     -37.078 -66.907  49.091  0.00  0.00     0.014 A 
BRANCH  13  17
ATOM     17  N16 Q35 B   1     -40.526 -64.710  48.335  0.00  0.00    -0.321 N 
ATOM     18  H16 Q35 B   1     -41.269 -65.190  47.846  0.00  0.00     0.169 HD
ATOM     19  C22 Q35 B   1     -40.775 -63.459  48.732  0.00  0.00     0.279 C 
ATOM     20  O23 Q35 B   1     -39.942 -62.800  49.320  0.00  0.00    -0.265 OA
BRANCH  19  21
ATOM     21  C24 Q35 B   1     -41.980 -62.932  48.479  0.00  0.00     0.142 A 
ATOM     22  C25 Q35 B   1     -42.283 -62.032  47.533  0.00  0.00     0.045 A 
ATOM     23  C26 Q35 B   1     -43.521 -61.744  47.574  0.00  0.00     0.027 A 
ATOM     24  C27 Q35 B   1     -44.160 -62.361  48.483  0.00  0.00     0.143 A 
ATOM     25  O28 Q35 B   1     -43.209 -63.210  49.182  0.00  0.00    -0.317 OA
ENDBRANCH  19  21
ENDBRANCH  13  17
ENDBRANCH  10  11
BRANCH   1  26
ATOM     26  C17 Q35 B   1     -42.245 -66.763  53.758  0.00  0.00     0.178 A 
ATOM     27  N18 Q35 B   1     -42.931 -66.788  54.920  0.00  0.00    -0.133 NA
ATOM     28  N19 Q35 B   1     -43.864 -65.743  54.878  0.00  0.00    -0.169 NA
ATOM     29  C20 Q35 B   1     -43.715 -65.123  53.690  0.00  0.00     0.324 A 
ATOM     30  N21 Q35 B   1     -42.731 -65.751  53.011  0.00  0.00    -0.246 NA
ENDBRANCH   1  26
TORSDOF 4
ENDMDL
MODEL 9
REMARK VINA RESULT:    -8.601      3.078      5.605
REMARK INTER + INTRA:         -11.026
REMARK INTER:                 -10.289
REMARK INTRA:                  -0.738
REMARK UNBOUND:                -0.414
REMARK  4 active torsions:
REMARK  status: ('A' for Active; 'I' for Inactive)
REMARK    1  A    between atoms: C1_1  and  C17_19 
REMARK    2  A    between atoms: C9_10  and  C10_11 
REMARK    3  A    between atoms: C12_13  and  N16_17 
REMARK       I    between atoms: N16_17  and  C22_24 
REMARK    4  A    between atoms: C22_24  and  C24_26 
ROOT
ATOM      1  C1  Q35 B   1     -34.010 -66.708  50.027  0.00  0.00     0.014 A 
ATOM      2  C2  Q35 B   1     -33.386 -67.753  50.712  0.00  0.00     0.018 A 
ATOM      3  C3  Q35 B   1     -34.149 -68.788  51.267  0.00  0.00     0.033 A 
ATOM      4  C4  Q35 B   1     -35.397 -66.683  49.888  0.00  0.00     0.031 A 
ATOM      5  C5  Q35 B   1     -36.145 -67.715  50.435  0.00  0.00     0.024 A 
ATOM      6  C6  Q35 B   1     -35.533 -68.756  51.118  0.00  0.00     0.062 A 
ATOM      7  N7  Q35 B   1     -36.502 -69.586  51.524  0.00  0.00    -0.277 N 
ATOM      8  H7  Q35 B   1     -36.368 -70.440  52.045  0.00  0.00     0.189 HD
ATOM      9  N8  Q35 B   1     -37.727 -69.068  51.104  0.00  0.00    -0.173 NA
ATOM     10  C9  Q35 B   1     -37.520 -67.919  50.448  0.00  0.00     0.099 A 
ENDROOT
BRANCH  10  11
ATOM     11  C10 Q35 B   1     -38.612 -67.118  49.816  0.00  0.00    -0.003 A 
ATOM     12  C11 Q35 B   1     -39.784 -67.007  50.559  0.00  0.00     0.043 A 
ATOM     13  C12 Q35 B   1     -40.889 -66.312  50.081  0.00  0.00     0.035 A 
ATOM     14  C13 Q35 B   1     -40.832 -65.706  48.824  0.00  0.00     0.029 A 
ATOM     15  C14 Q35 B   1     -39.660 -65.821  48.067  0.00  0.00     0.003 A 
ATOM     16  C15 Q35 B   1     -38.555 -66.528  48.553  0.00  0.00     0.014 A 
BRANCH  13  17
ATOM     17  N16 Q35 B   1     -41.970 -66.246  50.906  0.00  0.00    -0.321 N 
ATOM     18  H16 Q35 B   1     -42.619 -67.020  50.871  0.00  0.00     0.169 HD
ATOM     19  C22 Q35 B   1     -42.256 -65.258  51.759  0.00  0.00     0.279 C 
ATOM     20  O23 Q35 B   1     -41.539 -64.284  51.867  0.00  0.00    -0.265 OA
BRANCH  19  21
ATOM     21  C24 Q35 B   1     -43.357 -65.359  52.514  0.00  0.00     0.142 A 
ATOM     22  C25 Q35 B   1     -43.499 -66.075  53.638  0.00  0.00     0.045 A 
ATOM     23  C26 Q35 B   1     -44.679 -65.951  54.097  0.00  0.00     0.027 A 
ATOM     24  C27 Q35 B   1     -45.426 -65.198  53.395  0.00  0.00     0.143 A 
ATOM     25  O28 Q35 B   1     -44.633 -64.728  52.271  0.00  0.00    -0.317 OA
ENDBRANCH  19  21
ENDBRANCH  13  17
ENDBRANCH  10  11
BRANCH   1  26
ATOM     26  C17 Q35 B   1     -33.199 -65.603  49.444  0.00  0.00     0.178 A 
ATOM     27  N18 Q35 B   1     -32.060 -65.743  48.733  0.00  0.00    -0.133 NA
ATOM     28  N19 Q35 B   1     -31.632 -64.460  48.369  0.00  0.00    -0.169 NA
ATOM     29  C20 Q35 B   1     -32.524 -63.584  48.876  0.00  0.00     0.324 A 
ATOM     30  N21 Q35 B   1     -33.472 -64.286  49.534  0.00  0.00    -0.246 NA
ENDBRANCH   1  26
TORSDOF 4
ENDMDL
MODEL 10
REMARK VINA RESULT:    -8.064      2.333      7.050
REMARK INTER + INTRA:         -10.363
REMARK INTER:                  -9.949
REMARK INTRA:                  -0.414
REMARK UNBOUND:                -0.414
REMARK  4 active torsions:
REMARK  status: ('A' for Active; 'I' for Inactive)
REMARK    1  A    between atoms: C1_1  and  C17_19 
REMARK    2  A    between atoms: C9_10  and  C10_11 
REMARK    3  A    between atoms: C12_13  and  N16_17 
REMARK       I    between atoms: N16_17  and  C22_24 
REMARK    4  A    between atoms: C22_24  and  C24_26 
ROOT
ATOM      1  C1  Q35 B   1     -39.434 -64.133  48.042  0.00  0.00     0.014 A 
ATOM      2  C2  Q35 B   1     -38.564 -63.526  47.133  0.00  0.00     0.018 A 
ATOM      3  C3  Q35 B   1     -37.289 -64.061  46.912  0.00  0.00     0.033 A 
ATOM      4  C4  Q35 B   1     -39.044 -65.275  48.739  0.00  0.00     0.031 A 
ATOM      5  C5  Q35 B   1     -37.782 -65.803  48.509  0.00  0.00     0.024 A 
ATOM      6  C6  Q35 B   1     -36.911 -65.206  47.610  0.00  0.00     0.062 A 
ATOM      7  N7  Q35 B   1     -35.787 -65.933  47.606  0.00  0.00    -0.277 N 
ATOM      8  H7  Q35 B   1     -34.967 -65.751  47.046  0.00  0.00     0.189 HD
ATOM      9  N8  Q35 B   1     -35.942 -66.986  48.507  0.00  0.00    -0.173 NA
ATOM     10  C9  Q35 B   1     -37.154 -66.908  49.074  0.00  0.00     0.099 A 
ENDROOT
BRANCH  10  11
ATOM     11  C10 Q35 B   1     -37.675 -67.907  50.055  0.00  0.00    -0.003 A 
ATOM     12  C11 Q35 B   1     -38.936 -67.636  50.578  0.00  0.00     0.043 A 
ATOM     13  C12 Q35 B   1     -39.531 -68.468  51.520  0.00  0.00     0.035 A 
ATOM     14  C13 Q35 B   1     -38.853 -69.608  51.958  0.00  0.00     0.029 A 
ATOM     15  C14 Q35 B   1     -37.582 -69.883  51.443  0.00  0.00     0.003 A 
ATOM     16  C15 Q35 B   1     -36.987 -69.037  50.501  0.00  0.00     0.014 A 
BRANCH  13  17
ATOM     17  N16 Q35 B   1     -40.778 -68.117  51.940  0.00  0.00    -0.321 N 
ATOM     18  H16 Q35 B   1     -41.526 -68.197  51.266  0.00  0.00     0.169 HD
ATOM     19  C22 Q35 B   1     -41.107 -67.676  53.158  0.00  0.00     0.279 C 
ATOM     20  O23 Q35 B   1     -40.274 -67.542  54.033  0.00  0.00    -0.265 OA
BRANCH  19  21
ATOM     21  C24 Q35 B   1     -42.390 -67.390  53.413  0.00  0.00     0.142 A 
ATOM     22  C25 Q35 B   1     -43.134 -66.442  52.828  0.00  0.00     0.045 A 
ATOM     23  C26 Q35 B   1     -44.310 -66.438  53.314  0.00  0.00     0.027 A 
ATOM     24  C27 Q35 B   1     -44.493 -67.312  54.219  0.00  0.00     0.143 A 
ATOM     25  O28 Q35 B   1     -43.241 -68.033  54.385  0.00  0.00    -0.317 OA
ENDBRANCH  19  21
ENDBRANCH  13  17
ENDBRANCH  10  11
BRANCH   1  26
ATOM     26  C17 Q35 B   1     -40.787 -63.558  48.283  0.00  0.00     0.178 A 
ATOM     27  N18 Q35 B   1     -41.563 -63.778  49.365  0.00  0.00    -0.133 NA
ATOM     28  N19 Q35 B   1     -42.742 -63.040  49.192  0.00  0.00    -0.169 NA
ATOM     29  C20 Q35 B   1     -42.642 -62.401  48.009  0.00  0.00     0.324 A 
ATOM     30  N21 Q35 B   1     -41.451 -62.724  47.458  0.00  0.00    -0.246 NA
ENDBRANCH   1  26
TORSDOF 4
ENDMDL
