# created with PyMOL 2.5.2
@<TRIPOS>MOLECULE
out/docking_results/vina_output/3e7o_docked_ligand.pdbqt
30 34 1                 
SMALL
USER_CHARGES
@<TRIPOS>ATOM
1	   C	-38.704	-68.752	51.924	C.2	1	UNK0	0.000	
2	   C	-38.221	-69.817	52.689	C.2	1	UNK0	0.000	
3	   C	-38.896	-70.215	53.849	C.2	1	UNK0	0.000	
4	   C	-39.860	-68.076	52.307	C.2	1	UNK0	0.000	
5	   C	-40.527	-68.480	53.454	C.2	1	UNK0	0.000	
6	   C	-40.054	-69.535	54.220	C.2	1	UNK0	0.000	
7	   N	-40.897	-69.686	55.248	N.pl3	1	UNK0	0.000	
8	   H	-40.819	-70.379	55.979	 H	1	UNK0	0.000	
9	   N	-41.900	-68.724	55.139	N.2	1	UNK0	0.000	
10	   C	-41.676	-67.974	54.051	C.2	1	UNK0	0.000	
11	   C	-42.584	-66.876	53.601	C.2	1	UNK0	0.000	
12	   C	-42.314	-66.350	52.341	C.2	1	UNK0	0.000	
13	   C	-43.064	-65.307	51.809	C.2	1	UNK0	0.000	
14	   C	-44.118	-64.768	52.549	C.2	1	UNK0	0.000	
15	   C	-44.390	-65.286	53.821	C.2	1	UNK0	0.000	
16	   C	-43.626	-66.330	54.352	C.2	1	UNK0	0.000	
17	   N	-42.725	-64.892	50.557	N.pl3	1	UNK0	0.000	
18	   H	-43.363	-65.128	49.809	 H	1	UNK0	0.000	
19	   C	-41.631	-64.202	50.221	C.2	1	UNK0	0.000	
20	   O	-40.804	-63.878	51.049	O.2	1	UNK0	0.000	
21	   C	-41.457	-63.856	48.939	C.2	1	UNK0	0.000	
22	   C	-42.359	-63.283	48.131	C.2	1	UNK0	0.000	
23	   C	-41.865	-63.097	46.974	C.2	1	UNK0	0.000	
24	   C	-40.661	-63.492	46.862	C.2	1	UNK0	0.000	
25	   O	-40.263	-64.040	48.149	O.3	1	UNK0	0.000	
26	   C	-37.980	-68.324	50.695	C.2	1	UNK0	0.000	
27	   N	-36.908	-68.936	50.150	N.2	1	UNK0	0.000	
28	   N	-36.552	-68.215	49.003	N.pl3	1	UNK0	0.000	
29	   C	-37.417	-67.187	48.893	C.2	1	UNK0	0.000	
30	   N	-38.282	-67.256	49.929	N.2	1	UNK0	0.000	
@<TRIPOS>BOND
1 1 4 2
2 1 2 1
3 2 3 2
4 3 6 1
5 4 5 1
6 5 10 1
7 5 6 2
8 6 7 1
9 7 8 1
10 7 9 1
11 9 10 2
12 10 11 1
13 11 16 1
14 11 12 2
15 12 13 1
16 13 14 2
17 14 15 1
18 15 16 2
19 13 17 1
20 17 18 1
21 17 19 1
22 19 20 2
23 19 21 1
24 21 22 2
25 22 23 1
26 23 24 2
27 24 25 1
28 21 25 1
29 1 26 1
30 26 27 2
31 27 28 1
32 28 29 1
33 29 30 2
34 26 30 1
@<TRIPOS>SUBSTRUCTURE
1	UNK0	1	GROUP	1 ****	UNK
