out/docking_results/vina_output/3e7o_docked_ligand.pdbqt
 OpenBabel03072216093D

 30 34  0  0  0  0  0  0  0  0999 V2000
  -38.7040  -68.7520   51.9240 C   0  0  0  0  0  0  0  0  0  0  0  0
  -38.2210  -69.8170   52.6890 C   0  0  0  0  0  3  0  0  0  0  0  0
  -38.8960  -70.2150   53.8490 C   0  0  0  0  0  3  0  0  0  0  0  0
  -39.8600  -68.0760   52.3070 C   0  0  0  0  0  3  0  0  0  0  0  0
  -40.5270  -68.4800   53.4540 C   0  0  0  0  0  0  0  0  0  0  0  0
  -40.0540  -69.5350   54.2200 C   0  0  0  0  0  0  0  0  0  0  0  0
  -40.8970  -69.6860   55.2480 N   0  0  0  0  0  0  0  0  0  0  0  0
  -40.8190  -70.3790   55.9790 H   0  0  0  0  0  0  0  0  0  0  0  0
  -41.9000  -68.7240   55.1390 N   0  0  0  0  0  0  0  0  0  0  0  0
  -41.6760  -67.9740   54.0510 C   0  0  0  0  0  0  0  0  0  0  0  0
  -42.5840  -66.8760   53.6010 C   0  0  0  0  0  0  0  0  0  0  0  0
  -42.3140  -66.3500   52.3410 C   0  0  0  0  0  3  0  0  0  0  0  0
  -43.0640  -65.3070   51.8090 C   0  0  0  0  0  0  0  0  0  0  0  0
  -44.1180  -64.7680   52.5490 C   0  0  0  0  0  3  0  0  0  0  0  0
  -44.3900  -65.2860   53.8210 C   0  0  0  0  0  3  0  0  0  0  0  0
  -43.6260  -66.3300   54.3520 C   0  0  0  0  0  3  0  0  0  0  0  0
  -42.7250  -64.8920   50.5570 N   0  0  0  0  0  0  0  0  0  0  0  0
  -43.3630  -65.1280   49.8090 H   0  0  0  0  0  0  0  0  0  0  0  0
  -41.6310  -64.2020   50.2210 C   0  0  0  0  0  0  0  0  0  0  0  0
  -40.8040  -63.8780   51.0490 O   0  0  0  0  0  0  0  0  0  0  0  0
  -41.4570  -63.8560   48.9390 C   0  0  0  0  0  0  0  0  0  0  0  0
  -42.3590  -63.2830   48.1310 C   0  0  0  0  0  3  0  0  0  0  0  0
  -41.8650  -63.0970   46.9740 C   0  0  0  0  0  3  0  0  0  0  0  0
  -40.6610  -63.4920   46.8620 C   0  0  0  0  0  3  0  0  0  0  0  0
  -40.2630  -64.0400   48.1490 O   0  0  0  0  0  0  0  0  0  0  0  0
  -37.9800  -68.3240   50.6950 C   0  0  0  0  0  0  0  0  0  0  0  0
  -36.9080  -68.9360   50.1500 N   0  0  0  0  0  0  0  0  0  0  0  0
  -36.5520  -68.2150   49.0030 N   0  0  0  0  0  2  0  0  0  0  0  0
  -37.4170  -67.1870   48.8930 C   0  0  0  0  0  3  0  0  0  0  0  0
  -38.2820  -67.2560   49.9290 N   0  0  0  0  0  0  0  0  0  0  0  0
  1  4  2  0  0  0  0
  1  2  1  0  0  0  0
  2  3  2  0  0  0  0
  3  6  1  0  0  0  0
  4  5  1  0  0  0  0
  5 10  1  0  0  0  0
  5  6  2  0  0  0  0
  6  7  1  0  0  0  0
  7  8  1  0  0  0  0
  9  7  1  0  0  0  0
 10  9  2  0  0  0  0
 11 10  1  0  0  0  0
 11 16  1  0  0  0  0
 12 11  2  0  0  0  0
 13 12  1  0  0  0  0
 13 14  2  0  0  0  0
 14 15  1  0  0  0  0
 15 16  2  0  0  0  0
 17 13  1  0  0  0  0
 18 17  1  0  0  0  0
 19 17  1  0  0  0  0
 19 20  2  0  0  0  0
 21 19  1  0  0  0  0
 22 21  2  0  0  0  0
 23 22  1  0  0  0  0
 24 23  2  0  0  0  0
 24 25  1  0  0  0  0
 25 21  1  0  0  0  0
 26  1  1  0  0  0  0
 27 26  2  0  0  0  0
 28 27  1  0  0  0  0
 29 28  1  0  0  0  0
 29 30  2  0  0  0  0
 30 26  1  0  0  0  0
M  END
>  <Pose>
1

>  <Score>
-9.868

$$$$
out/docking_results/vina_output/3e7o_docked_ligand.pdbqt
 OpenBabel03072216093D

 30 34  0  0  0  0  0  0  0  0999 V2000
  -42.1930  -66.9610   53.4300 C   0  0  0  0  0  0  0  0  0  0  0  0
  -42.6400  -67.6530   54.5580 C   0  0  0  0  0  3  0  0  0  0  0  0
  -41.9320  -68.7650   55.0300 C   0  0  0  0  0  3  0  0  0  0  0  0
  -41.0400  -67.3680   52.7630 C   0  0  0  0  0  3  0  0  0  0  0  0
  -40.3400  -68.4670   53.2400 C   0  0  0  0  0  0  0  0  0  0  0  0
  -40.7770  -69.1610   54.3580 C   0  0  0  0  0  0  0  0  0  0  0  0
  -39.9080  -70.1560   54.5710 N   0  0  0  0  0  0  0  0  0  0  0  0
  -39.9570  -70.8340   55.3180 H   0  0  0  0  0  0  0  0  0  0  0  0
  -38.9250  -70.0980   53.5840 N   0  0  0  0  0  0  0  0  0  0  0  0
  -39.1870  -69.0760   52.7590 C   0  0  0  0  0  0  0  0  0  0  0  0
  -38.3080  -68.6900   51.6130 C   0  0  0  0  0  0  0  0  0  0  0  0
  -38.8210  -67.7160   50.7620 C   0  0  0  0  0  3  0  0  0  0  0  0
  -38.1210  -67.2810   49.6430 C   0  0  0  0  0  0  0  0  0  0  0  0
  -36.8690  -67.8310   49.3560 C   0  0  0  0  0  3  0  0  0  0  0  0
  -36.3500  -68.8170   50.2020 C   0  0  0  0  0  3  0  0  0  0  0  0
  -37.0640  -69.2540   51.3230 C   0  0  0  0  0  3  0  0  0  0  0  0
  -38.7090  -66.3050   48.8980 N   0  0  0  0  0  0  0  0  0  0  0  0
  -39.4150  -66.5980   48.2370 H   0  0  0  0  0  0  0  0  0  0  0  0
  -38.4430  -64.9960   48.9570 C   0  0  0  0  0  0  0  0  0  0  0  0
  -37.6060  -64.5510   49.7160 O   0  0  0  0  0  0  0  0  0  0  0  0
  -39.1290  -64.1650   48.1620 C   0  0  0  0  0  0  0  0  0  0  0  0
  -39.1050  -62.8250   48.1880 C   0  0  0  0  0  3  0  0  0  0  0  0
  -39.8820  -62.3500   47.3000 C   0  0  0  0  0  3  0  0  0  0  0  0
  -40.4840  -63.2390   46.6180 C   0  0  0  0  0  3  0  0  0  0  0  0
  -40.0540  -64.5350   47.1180 O   0  0  0  0  0  0  0  0  0  0  0  0
  -42.9520  -65.7830   52.9240 C   0  0  0  0  0  0  0  0  0  0  0  0
  -42.7160  -64.4910   53.2370 N   0  0  0  0  0  0  0  0  0  0  0  0
  -43.6490  -63.7140   52.5390 N   0  0  0  0  0  0  0  0  0  0  0  0
  -44.4230  -64.5610   51.8290 C   0  0  0  0  0  3  0  0  0  0  0  0
  -43.9960  -65.8200   52.0720 N   0  0  0  0  0  2  0  0  0  0  0  0
  1  2  1  0  0  0  0
  2  3  2  0  0  0  0
  4  5  1  0  0  0  0
  4  1  2  0  0  0  0
  5  6  2  0  0  0  0
  6  7  1  0  0  0  0
  6  3  1  0  0  0  0
  7  8  1  0  0  0  0
  9  7  1  0  0  0  0
 10  5  1  0  0  0  0
 10  9  2  0  0  0  0
 11 10  1  0  0  0  0
 12 11  2  0  0  0  0
 13 12  1  0  0  0  0
 14 13  2  0  0  0  0
 14 15  1  0  0  0  0
 15 16  2  0  0  0  0
 16 11  1  0  0  0  0
 17 19  1  0  0  0  0
 17 13  1  0  0  0  0
 18 17  1  0  0  0  0
 19 20  2  0  0  0  0
 21 22  2  0  0  0  0
 21 19  1  0  0  0  0
 23 22  1  0  0  0  0
 24 25  1  0  0  0  0
 24 23  2  0  0  0  0
 25 21  1  0  0  0  0
 26 27  2  0  0  0  0
 26  1  1  0  0  0  0
 28 27  1  0  0  0  0
 29 30  1  0  0  0  0
 29 28  2  0  0  0  0
 30 26  1  0  0  0  0
M  END
>  <Pose>
2

>  <Score>
-9.843

$$$$
out/docking_results/vina_output/3e7o_docked_ligand.pdbqt
 OpenBabel03072216093D

 30 34  0  0  0  0  0  0  0  0999 V2000
  -38.8500  -68.6480   51.7820 C   0  0  0  0  0  0  0  0  0  0  0  0
  -38.3500  -69.7680   52.4510 C   0  0  0  0  0  3  0  0  0  0  0  0
  -38.9860  -70.2430   53.6040 C   0  0  0  0  0  3  0  0  0  0  0  0
  -39.9850  -67.9930   52.2540 C   0  0  0  0  0  3  0  0  0  0  0  0
  -40.6140  -68.4740   53.3930 C   0  0  0  0  0  0  0  0  0  0  0  0
  -40.1240  -69.5830   54.0640 C   0  0  0  0  0  0  0  0  0  0  0  0
  -40.9310  -69.8020   55.1100 N   0  0  0  0  0  0  0  0  0  0  0  0
  -40.8330  -70.5460   55.7860 H   0  0  0  0  0  0  0  0  0  0  0  0
  -41.9280  -68.8280   55.1050 N   0  0  0  0  0  0  0  0  0  0  0  0
  -41.7360  -68.0030   54.0670 C   0  0  0  0  0  0  0  0  0  0  0  0
  -42.6500  -66.8700   53.7290 C   0  0  0  0  0  0  0  0  0  0  0  0
  -43.9630  -67.0050   54.1700 C   0  0  0  0  0  3  0  0  0  0  0  0
  -44.9250  -66.0370   53.9030 C   0  0  0  0  0  0  0  0  0  0  0  0
  -44.5750  -64.8980   53.1740 C   0  0  0  0  0  3  0  0  0  0  0  0
  -43.2590  -64.7600   52.7200 C   0  0  0  0  0  3  0  0  0  0  0  0
  -42.2980  -65.7410   52.9870 C   0  0  0  0  0  3  0  0  0  0  0  0
  -46.1700  -66.2630   54.4070 N   0  0  0  0  0  0  0  0  0  0  0  0
  -46.2850  -66.1560   55.4060 H   0  0  0  0  0  0  0  0  0  0  0  0
  -47.2550  -66.6120   53.7100 C   0  0  0  0  0  0  0  0  0  0  0  0
  -47.2140  -66.7700   52.5060 O   0  0  0  0  0  0  0  0  0  0  0  0
  -48.4130  -66.7780   54.3620 C   0  0  0  0  0  0  0  0  0  0  0  0
  -48.6710  -67.6710   55.3280 C   0  0  0  0  0  3  0  0  0  0  0  0
  -49.8750  -67.5600   55.7240 C   0  0  0  0  0  3  0  0  0  0  0  0
  -50.5310  -66.6530   55.1210 C   0  0  0  0  0  3  0  0  0  0  0  0
  -49.6360  -66.0410   54.1530 O   0  0  0  0  0  0  0  0  0  0  0  0
  -38.1670  -68.1380   50.5610 C   0  0  0  0  0  0  0  0  0  0  0  0
  -38.5700  -67.0980   49.8000 N   0  0  0  0  0  0  0  0  0  0  0  0
  -37.6400  -66.9530   48.7630 N   0  0  0  0  0  2  0  0  0  0  0  0
  -36.7070  -67.9130   48.9260 C   0  0  0  0  0  3  0  0  0  0  0  0
  -37.0360  -68.6340   50.0200 N   0  0  0  0  0  0  0  0  0  0  0  0
  1  4  2  0  0  0  0
  1  2  1  0  0  0  0
  2  3  2  0  0  0  0
  3  6  1  0  0  0  0
  4  5  1  0  0  0  0
  5  6  2  0  0  0  0
  5 10  1  0  0  0  0
  6  7  1  0  0  0  0
  7  8  1  0  0  0  0
  9  7  1  0  0  0  0
 10  9  2  0  0  0  0
 11 10  1  0  0  0  0
 11 12  1  0  0  0  0
 13 12  2  0  0  0  0
 13 17  1  0  0  0  0
 14 13  1  0  0  0  0
 15 16  1  0  0  0  0
 15 14  2  0  0  0  0
 16 11  2  0  0  0  0
 17 18  1  0  0  0  0
 19 21  1  0  0  0  0
 19 17  1  0  0  0  0
 20 19  2  0  0  0  0
 21 22  2  0  0  0  0
 22 23  1  0  0  0  0
 24 23  2  0  0  0  0
 25 21  1  0  0  0  0
 25 24  1  0  0  0  0
 26  1  1  0  0  0  0
 27 26  2  0  0  0  0
 28 29  1  0  0  0  0
 28 27  1  0  0  0  0
 29 30  2  0  0  0  0
 30 26  1  0  0  0  0
M  END
>  <Pose>
3

>  <Score>
-9.781

$$$$
out/docking_results/vina_output/3e7o_docked_ligand.pdbqt
 OpenBabel03072216093D

 30 34  0  0  0  0  0  0  0  0999 V2000
  -38.4040  -66.6260   49.0000 C   0  0  0  0  0  0  0  0  0  0  0  0
  -37.2750  -67.3360   48.5870 C   0  0  0  0  0  3  0  0  0  0  0  0
  -36.7800  -68.3890   49.3670 C   0  0  0  0  0  3  0  0  0  0  0  0
  -39.0500  -66.9550   50.1900 C   0  0  0  0  0  3  0  0  0  0  0  0
  -38.5580  -68.0030   50.9540 C   0  0  0  0  0  0  0  0  0  0  0  0
  -37.4360  -68.7130   50.5520 C   0  0  0  0  0  0  0  0  0  0  0  0
  -37.2070  -69.6480   51.4820 N   0  0  0  0  0  0  0  0  0  0  0  0
  -36.4580  -70.3260   51.4670 H   0  0  0  0  0  0  0  0  0  0  0  0
  -38.1780  -69.5270   52.4750 N   0  0  0  0  0  0  0  0  0  0  0  0
  -39.0010  -68.5160   52.1670 C   0  0  0  0  0  0  0  0  0  0  0  0
  -40.1890  -68.1360   52.9900 C   0  0  0  0  0  0  0  0  0  0  0  0
  -41.1370  -67.3430   52.3480 C   0  0  0  0  0  3  0  0  0  0  0  0
  -42.2790  -66.8960   53.0030 C   0  0  0  0  0  0  0  0  0  0  0  0
  -42.4890  -67.2450   54.3390 C   0  0  0  0  0  3  0  0  0  0  0  0
  -41.5370  -68.0340   54.9930 C   0  0  0  0  0  3  0  0  0  0  0  0
  -40.3870  -68.4740   54.3290 C   0  0  0  0  0  3  0  0  0  0  0  0
  -43.1490  -66.1500   52.2670 N   0  0  0  0  0  0  0  0  0  0  0  0
  -43.7180  -66.6440   51.5940 H   0  0  0  0  0  0  0  0  0  0  0  0
  -43.3220  -64.8270   52.3480 C   0  0  0  0  0  0  0  0  0  0  0  0
  -42.6790  -64.1480   53.1230 O   0  0  0  0  0  0  0  0  0  0  0  0
  -44.2370  -64.2490   51.5600 C   0  0  0  0  0  0  0  0  0  0  0  0
  -45.5440  -64.5370   51.4980 C   0  0  0  0  0  3  0  0  0  0  0  0
  -46.1210  -63.8010   50.6370 C   0  0  0  0  0  3  0  0  0  0  0  0
  -45.3380  -62.9880   50.0500 C   0  0  0  0  0  3  0  0  0  0  0  0
  -44.0070  -63.2000   50.5950 O   0  0  0  0  0  0  0  0  0  0  0  0
  -38.9250  -65.5010   48.1740 C   0  0  0  0  0  0  0  0  0  0  0  0
  -40.2240  -65.2310   47.9270 N   0  0  0  0  0  0  0  0  0  0  0  0
  -40.2680  -64.0870   47.1200 N   0  0  0  0  0  2  0  0  0  0  0  0
  -38.9940  -63.7040   46.9000 C   0  0  0  0  0  3  0  0  0  0  0  0
  -38.1800  -64.5720   47.5410 N   0  0  0  0  0  0  0  0  0  0  0  0
  1  4  1  0  0  0  0
  2  1  2  0  0  0  0
  2  3  1  0  0  0  0
  3  6  2  0  0  0  0
  4  5  2  0  0  0  0
  5 10  1  0  0  0  0
  6  5  1  0  0  0  0
  6  7  1  0  0  0  0
  7  9  1  0  0  0  0
  8  7  1  0  0  0  0
 10  9  2  0  0  0  0
 10 11  1  0  0  0  0
 11 16  1  0  0  0  0
 12 11  2  0  0  0  0
 12 13  1  0  0  0  0
 13 14  2  0  0  0  0
 14 15  1  0  0  0  0
 16 15  2  0  0  0  0
 17 19  1  0  0  0  0
 17 13  1  0  0  0  0
 18 17  1  0  0  0  0
 19 20  2  0  0  0  0
 21 19  1  0  0  0  0
 22 21  2  0  0  0  0
 23 22  1  0  0  0  0
 24 25  1  0  0  0  0
 24 23  2  0  0  0  0
 25 21  1  0  0  0  0
 26  1  1  0  0  0  0
 27 26  2  0  0  0  0
 28 27  1  0  0  0  0
 29 28  1  0  0  0  0
 29 30  2  0  0  0  0
 30 26  1  0  0  0  0
M  END
>  <Pose>
4

>  <Score>
-9.465

$$$$
out/docking_results/vina_output/3e7o_docked_ligand.pdbqt
 OpenBabel03072216093D

 30 34  0  0  0  0  0  0  0  0999 V2000
  -42.5340  -64.9480   51.5850 C   0  0  0  0  0  0  0  0  0  0  0  0
  -43.7550  -64.5690   52.1480 C   0  0  0  0  0  3  0  0  0  0  0  0
  -44.2940  -65.2960   53.2170 C   0  0  0  0  0  3  0  0  0  0  0  0
  -41.8410  -66.0520   52.0790 C   0  0  0  0  0  3  0  0  0  0  0  0
  -42.3790  -66.7620   53.1420 C   0  0  0  0  0  0  0  0  0  0  0  0
  -43.5910  -66.3940   53.7060 C   0  0  0  0  0  0  0  0  0  0  0  0
  -43.8450  -67.2580   54.6970 N   0  0  0  0  0  0  0  0  0  0  0  0
  -44.6550  -67.2460   55.2980 H   0  0  0  0  0  0  0  0  0  0  0  0
  -42.7980  -68.1770   54.7560 N   0  0  0  0  0  0  0  0  0  0  0  0
  -41.9030  -67.8900   53.8010 C   0  0  0  0  0  0  0  0  0  0  0  0
  -40.6270  -68.6440   53.6080 C   0  0  0  0  0  0  0  0  0  0  0  0
  -39.9010  -68.3170   52.4670 C   0  0  0  0  0  3  0  0  0  0  0  0
  -38.7090  -68.9580   52.1500 C   0  0  0  0  0  0  0  0  0  0  0  0
  -38.2190  -69.9580   52.9930 C   0  0  0  0  0  3  0  0  0  0  0  0
  -38.9480  -70.2990   54.1380 C   0  0  0  0  0  3  0  0  0  0  0  0
  -40.1500  -69.6530   54.4460 C   0  0  0  0  0  3  0  0  0  0  0  0
  -38.0720  -68.5360   51.0230 N   0  0  0  0  0  0  0  0  0  0  0  0
  -38.6490  -68.1450   50.2920 H   0  0  0  0  0  0  0  0  0  0  0  0
  -36.7570  -68.5900   50.7900 C   0  0  0  0  0  0  0  0  0  0  0  0
  -35.9840  -69.0480   51.6080 O   0  0  0  0  0  0  0  0  0  0  0  0
  -36.2900  -68.1130   49.6290 C   0  0  0  0  0  0  0  0  0  0  0  0
  -35.2240  -67.3190   49.4560 C   0  0  0  0  0  3  0  0  0  0  0  0
  -35.0660  -67.0510   48.2230 C   0  0  0  0  0  3  0  0  0  0  0  0
  -35.9390  -67.5850   47.4670 C   0  0  0  0  0  3  0  0  0  0  0  0
  -36.8440  -68.3420   48.3160 O   0  0  0  0  0  0  0  0  0  0  0  0
  -41.9650  -64.1800   50.4430 C   0  0  0  0  0  0  0  0  0  0  0  0
  -40.6690  -63.8370   50.2820 N   0  0  0  0  0  0  0  0  0  0  0  0
  -40.5690  -63.1340   49.0750 N   0  0  0  0  0  2  0  0  0  0  0  0
  -41.8080  -63.0690   48.5470 C   0  0  0  0  0  3  0  0  0  0  0  0
  -42.6540  -63.7030   49.3870 N   0  0  0  0  0  0  0  0  0  0  0  0
  1  4  2  0  0  0  0
  1  2  1  0  0  0  0
  2  3  2  0  0  0  0
  3  6  1  0  0  0  0
  4  5  1  0  0  0  0
  5  6  2  0  0  0  0
  5 10  1  0  0  0  0
  6  7  1  0  0  0  0
  7  9  1  0  0  0  0
  7  8  1  0  0  0  0
 10  9  2  0  0  0  0
 11 10  1  0  0  0  0
 11 16  1  0  0  0  0
 12 11  2  0  0  0  0
 13 12  1  0  0  0  0
 13 14  2  0  0  0  0
 14 15  1  0  0  0  0
 15 16  2  0  0  0  0
 17 13  1  0  0  0  0
 18 17  1  0  0  0  0
 19 17  1  0  0  0  0
 19 20  2  0  0  0  0
 21 19  1  0  0  0  0
 22 21  2  0  0  0  0
 23 22  1  0  0  0  0
 24 23  2  0  0  0  0
 24 25  1  0  0  0  0
 25 21  1  0  0  0  0
 26  1  1  0  0  0  0
 27 26  2  0  0  0  0
 28 27  1  0  0  0  0
 29 28  1  0  0  0  0
 29 30  2  0  0  0  0
 30 26  1  0  0  0  0
M  END
>  <Pose>
5

>  <Score>
-9.316

$$$$
out/docking_results/vina_output/3e7o_docked_ligand.pdbqt
 OpenBabel03072216093D

 30 34  0  0  0  0  0  0  0  0999 V2000
  -41.9230  -67.6100   53.5420 C   0  0  0  0  0  0  0  0  0  0  0  0
  -41.6480  -68.5220   54.5640 C   0  0  0  0  0  3  0  0  0  0  0  0
  -40.4960  -69.3160   54.5100 C   0  0  0  0  0  3  0  0  0  0  0  0
  -41.0560  -67.4810   52.4590 C   0  0  0  0  0  3  0  0  0  0  0  0
  -39.9130  -68.2660   52.4160 C   0  0  0  0  0  0  0  0  0  0  0  0
  -39.6330  -69.1750   53.4250 C   0  0  0  0  0  0  0  0  0  0  0  0
  -38.4800  -69.7770   53.1070 N   0  0  0  0  0  0  0  0  0  0  0  0
  -38.0150  -70.4870   53.6520 H   0  0  0  0  0  0  0  0  0  0  0  0
  -38.0340  -69.2550   51.8940 N   0  0  0  0  0  0  0  0  0  0  0  0
  -38.9090  -68.3390   51.4570 C   0  0  0  0  0  0  0  0  0  0  0  0
  -38.7190  -67.5420   50.2070 C   0  0  0  0  0  0  0  0  0  0  0  0
  -37.4090  -67.1650   49.9280 C   0  0  0  0  0  3  0  0  0  0  0  0
  -37.0920  -66.3990   48.8110 C   0  0  0  0  0  0  0  0  0  0  0  0
  -38.1070  -65.9930   47.9430 C   0  0  0  0  0  3  0  0  0  0  0  0
  -39.4280  -66.3610   48.2220 C   0  0  0  0  0  3  0  0  0  0  0  0
  -39.7400  -67.1260   49.3510 C   0  0  0  0  0  3  0  0  0  0  0  0
  -35.7730  -66.1130   48.6240 N   0  0  0  0  0  0  0  0  0  0  0  0
  -35.4250  -65.2670   49.0520 H   0  0  0  0  0  0  0  0  0  0  0  0
  -34.8960  -66.8440   47.9300 C   0  0  0  0  0  0  0  0  0  0  0  0
  -35.2240  -67.8740   47.3760 O   0  0  0  0  0  0  0  0  0  0  0  0
  -33.6260  -66.4270   47.8590 C   0  0  0  0  0  0  0  0  0  0  0  0
  -32.8900  -65.9130   48.8540 C   0  0  0  0  0  3  0  0  0  0  0  0
  -31.7260  -65.6160   48.4390 C   0  0  0  0  0  3  0  0  0  0  0  0
  -31.5420  -65.8680   47.2060 C   0  0  0  0  0  3  0  0  0  0  0  0
  -32.7810  -66.4280   46.6890 O   0  0  0  0  0  0  0  0  0  0  0  0
  -43.1530  -66.7720   53.5970 C   0  0  0  0  0  0  0  0  0  0  0  0
  -43.8290  -66.4250   54.7130 N   0  0  0  0  0  0  0  0  0  0  0  0
  -44.9110  -65.6280   54.3160 N   0  0  0  0  0  0  0  0  0  0  0  0
  -44.8570  -65.5230   52.9720 C   0  0  0  0  0  3  0  0  0  0  0  0
  -43.7870  -66.2260   52.5410 N   0  0  0  0  0  2  0  0  0  0  0  0
  1 26  1  0  0  0  0
  1  2  1  0  0  0  0
  3  2  2  0  0  0  0
  4  1  2  0  0  0  0
  5  4  1  0  0  0  0
  5  6  2  0  0  0  0
  6  3  1  0  0  0  0
  7  6  1  0  0  0  0
  7  8  1  0  0  0  0
  9  7  1  0  0  0  0
 10  9  2  0  0  0  0
 10  5  1  0  0  0  0
 11 10  1  0  0  0  0
 12 11  1  0  0  0  0
 13 12  2  0  0  0  0
 14 15  2  0  0  0  0
 14 13  1  0  0  0  0
 15 16  1  0  0  0  0
 16 11  2  0  0  0  0
 17 13  1  0  0  0  0
 17 18  1  0  0  0  0
 19 17  1  0  0  0  0
 20 19  2  0  0  0  0
 21 19  1  0  0  0  0
 21 22  2  0  0  0  0
 23 22  1  0  0  0  0
 24 23  2  0  0  0  0
 25 24  1  0  0  0  0
 25 21  1  0  0  0  0
 26 27  2  0  0  0  0
 28 27  1  0  0  0  0
 29 28  2  0  0  0  0
 30 29  1  0  0  0  0
 30 26  1  0  0  0  0
M  END
>  <Pose>
6

>  <Score>
-9.008

$$$$
out/docking_results/vina_output/3e7o_docked_ligand.pdbqt
 OpenBabel03072216093D

 30 34  0  0  0  0  0  0  0  0999 V2000
  -38.9460  -65.8000   48.9580 C   0  0  0  0  0  0  0  0  0  0  0  0
  -37.8430  -65.8650   48.1030 C   0  0  0  0  0  3  0  0  0  0  0  0
  -36.8420  -66.8210   48.3140 C   0  0  0  0  0  3  0  0  0  0  0  0
  -39.0620  -66.6840   50.0280 C   0  0  0  0  0  3  0  0  0  0  0  0
  -38.0700  -67.6320   50.2270 C   0  0  0  0  0  0  0  0  0  0  0  0
  -36.9710  -67.7030   49.3840 C   0  0  0  0  0  0  0  0  0  0  0  0
  -36.1980  -68.7030   49.8250 N   0  0  0  0  0  0  0  0  0  0  0  0
  -35.3260  -69.0020   49.4130 H   0  0  0  0  0  0  0  0  0  0  0  0
  -36.8030  -69.2610   50.9500 N   0  0  0  0  0  0  0  0  0  0  0  0
  -37.9420  -68.6060   51.2120 C   0  0  0  0  0  0  0  0  0  0  0  0
  -38.8730  -68.9720   52.3220 C   0  0  0  0  0  0  0  0  0  0  0  0
  -40.1020  -68.3200   52.3160 C   0  0  0  0  0  3  0  0  0  0  0  0
  -41.0530  -68.5460   53.3040 C   0  0  0  0  0  0  0  0  0  0  0  0
  -40.7770  -69.4500   54.3340 C   0  0  0  0  0  3  0  0  0  0  0  0
  -39.5390  -70.1020   54.3510 C   0  0  0  0  0  3  0  0  0  0  0  0
  -38.5850  -69.8640   53.3560 C   0  0  0  0  0  3  0  0  0  0  0  0
  -42.2300  -67.8730   53.1820 N   0  0  0  0  0  0  0  0  0  0  0  0
  -42.6310  -67.8180   52.2550 H   0  0  0  0  0  0  0  0  0  0  0  0
  -42.9070  -67.2760   54.1670 C   0  0  0  0  0  0  0  0  0  0  0  0
  -42.5020  -67.2830   55.3120 O   0  0  0  0  0  0  0  0  0  0  0  0
  -44.0640  -66.6680   53.8770 C   0  0  0  0  0  0  0  0  0  0  0  0
  -45.2360  -67.2570   53.6010 C   0  0  0  0  0  3  0  0  0  0  0  0
  -46.1280  -66.3830   53.3640 C   0  0  0  0  0  3  0  0  0  0  0  0
  -45.7050  -65.1860   53.4400 C   0  0  0  0  0  3  0  0  0  0  0  0
  -44.2930  -65.2460   53.7840 O   0  0  0  0  0  0  0  0  0  0  0  0
  -40.0060  -64.7770   48.7370 C   0  0  0  0  0  0  0  0  0  0  0  0
  -40.6060  -64.0340   49.6920 N   0  0  0  0  0  0  0  0  0  0  0  0
  -41.5280  -63.1960   49.0530 N   0  0  0  0  0  0  0  0  0  0  0  0
  -41.4600  -63.4610   47.7320 C   0  0  0  0  0  3  0  0  0  0  0  0
  -40.5350  -64.4280   47.5470 N   0  0  0  0  0  2  0  0  0  0  0  0
  1  4  1  0  0  0  0
  2  3  1  0  0  0  0
  2  1  2  0  0  0  0
  3  6  2  0  0  0  0
  4  5  2  0  0  0  0
  5 10  1  0  0  0  0
  6  7  1  0  0  0  0
  6  5  1  0  0  0  0
  7  9  1  0  0  0  0
  8  7  1  0  0  0  0
  9 10  2  0  0  0  0
 10 11  1  0  0  0  0
 11 16  1  0  0  0  0
 12 11  2  0  0  0  0
 12 13  1  0  0  0  0
 13 14  2  0  0  0  0
 14 15  1  0  0  0  0
 16 15  2  0  0  0  0
 17 13  1  0  0  0  0
 17 19  1  0  0  0  0
 18 17  1  0  0  0  0
 19 20  2  0  0  0  0
 21 19  1  0  0  0  0
 22 21  2  0  0  0  0
 23 24  2  0  0  0  0
 23 22  1  0  0  0  0
 24 25  1  0  0  0  0
 25 21  1  0  0  0  0
 26  1  1  0  0  0  0
 26 27  2  0  0  0  0
 28 27  1  0  0  0  0
 29 28  2  0  0  0  0
 30 29  1  0  0  0  0
 30 26  1  0  0  0  0
M  END
>  <Pose>
7

>  <Score>
-8.824

$$$$
out/docking_results/vina_output/3e7o_docked_ligand.pdbqt
 OpenBabel03072216093D

 30 34  0  0  0  0  0  0  0  0999 V2000
  -41.1440  -67.6880   53.3690 C   0  0  0  0  0  0  0  0  0  0  0  0
  -40.9040  -68.8450   54.1130 C   0  0  0  0  0  3  0  0  0  0  0  0
  -39.8750  -69.7210   53.7440 C   0  0  0  0  0  3  0  0  0  0  0  0
  -40.3640  -67.3910   52.2530 C   0  0  0  0  0  3  0  0  0  0  0  0
  -39.3430  -68.2590   51.8980 C   0  0  0  0  0  0  0  0  0  0  0  0
  -39.0980  -69.4120   52.6300 C   0  0  0  0  0  0  0  0  0  0  0  0
  -38.0660  -70.0370   52.0500 N   0  0  0  0  0  0  0  0  0  0  0  0
  -37.6520  -70.9040   52.3590 H   0  0  0  0  0  0  0  0  0  0  0  0
  -37.6610  -69.2850   50.9480 N   0  0  0  0  0  0  0  0  0  0  0  0
  -38.4430  -68.2030   50.8390 C   0  0  0  0  0  0  0  0  0  0  0  0
  -38.2590  -67.1500   49.7950 C   0  0  0  0  0  0  0  0  0  0  0  0
  -39.3900  -66.3960   49.4940 C   0  0  0  0  0  3  0  0  0  0  0  0
  -39.3680  -65.4000   48.5240 C   0  0  0  0  0  0  0  0  0  0  0  0
  -38.1840  -65.1420   47.8280 C   0  0  0  0  0  3  0  0  0  0  0  0
  -37.0450  -65.9020   48.1190 C   0  0  0  0  0  3  0  0  0  0  0  0
  -37.0780  -66.9070   49.0910 C   0  0  0  0  0  3  0  0  0  0  0  0
  -40.5260  -64.7100   48.3350 N   0  0  0  0  0  0  0  0  0  0  0  0
  -41.2690  -65.1900   47.8460 H   0  0  0  0  0  0  0  0  0  0  0  0
  -40.7750  -63.4590   48.7320 C   0  0  0  0  0  0  0  0  0  0  0  0
  -39.9420  -62.8000   49.3200 O   0  0  0  0  0  0  0  0  0  0  0  0
  -41.9800  -62.9320   48.4790 C   0  0  0  0  0  0  0  0  0  0  0  0
  -42.2830  -62.0320   47.5330 C   0  0  0  0  0  3  0  0  0  0  0  0
  -43.5210  -61.7440   47.5740 C   0  0  0  0  0  3  0  0  0  0  0  0
  -44.1600  -62.3610   48.4830 C   0  0  0  0  0  3  0  0  0  0  0  0
  -43.2090  -63.2100   49.1820 O   0  0  0  0  0  0  0  0  0  0  0  0
  -42.2450  -66.7630   53.7580 C   0  0  0  0  0  0  0  0  0  0  0  0
  -42.9310  -66.7880   54.9200 N   0  0  0  0  0  0  0  0  0  0  0  0
  -43.8640  -65.7430   54.8780 N   0  0  0  0  0  0  0  0  0  0  0  0
  -43.7150  -65.1230   53.6900 C   0  0  0  0  0  3  0  0  0  0  0  0
  -42.7310  -65.7510   53.0110 N   0  0  0  0  0  2  0  0  0  0  0  0
  1 26  1  0  0  0  0
  1  2  1  0  0  0  0
  3  2  2  0  0  0  0
  4  1  2  0  0  0  0
  5  4  1  0  0  0  0
  5  6  2  0  0  0  0
  6  3  1  0  0  0  0
  7  8  1  0  0  0  0
  7  6  1  0  0  0  0
  9  7  1  0  0  0  0
 10  9  2  0  0  0  0
 10  5  1  0  0  0  0
 11 10  1  0  0  0  0
 12 11  1  0  0  0  0
 13 12  2  0  0  0  0
 14 15  2  0  0  0  0
 14 13  1  0  0  0  0
 15 16  1  0  0  0  0
 16 11  2  0  0  0  0
 17 13  1  0  0  0  0
 17 19  1  0  0  0  0
 18 17  1  0  0  0  0
 19 20  2  0  0  0  0
 21 19  1  0  0  0  0
 21 25  1  0  0  0  0
 22 23  1  0  0  0  0
 22 21  2  0  0  0  0
 23 24  2  0  0  0  0
 24 25  1  0  0  0  0
 26 27  2  0  0  0  0
 28 27  1  0  0  0  0
 29 28  2  0  0  0  0
 30 29  1  0  0  0  0
 30 26  1  0  0  0  0
M  END
>  <Pose>
8

>  <Score>
-8.691

$$$$
out/docking_results/vina_output/3e7o_docked_ligand.pdbqt
 OpenBabel03072216093D

 30 34  0  0  0  0  0  0  0  0999 V2000
  -34.0100  -66.7080   50.0270 C   0  0  0  0  0  0  0  0  0  0  0  0
  -33.3860  -67.7530   50.7120 C   0  0  0  0  0  3  0  0  0  0  0  0
  -34.1490  -68.7880   51.2670 C   0  0  0  0  0  3  0  0  0  0  0  0
  -35.3970  -66.6830   49.8880 C   0  0  0  0  0  3  0  0  0  0  0  0
  -36.1450  -67.7150   50.4350 C   0  0  0  0  0  0  0  0  0  0  0  0
  -35.5330  -68.7560   51.1180 C   0  0  0  0  0  0  0  0  0  0  0  0
  -36.5020  -69.5860   51.5240 N   0  0  0  0  0  0  0  0  0  0  0  0
  -36.3680  -70.4400   52.0450 H   0  0  0  0  0  0  0  0  0  0  0  0
  -37.7270  -69.0680   51.1040 N   0  0  0  0  0  0  0  0  0  0  0  0
  -37.5200  -67.9190   50.4480 C   0  0  0  0  0  0  0  0  0  0  0  0
  -38.6120  -67.1180   49.8160 C   0  0  0  0  0  0  0  0  0  0  0  0
  -39.7840  -67.0070   50.5590 C   0  0  0  0  0  3  0  0  0  0  0  0
  -40.8890  -66.3120   50.0810 C   0  0  0  0  0  0  0  0  0  0  0  0
  -40.8320  -65.7060   48.8240 C   0  0  0  0  0  3  0  0  0  0  0  0
  -39.6600  -65.8210   48.0670 C   0  0  0  0  0  3  0  0  0  0  0  0
  -38.5550  -66.5280   48.5530 C   0  0  0  0  0  3  0  0  0  0  0  0
  -41.9700  -66.2460   50.9060 N   0  0  0  0  0  0  0  0  0  0  0  0
  -42.6190  -67.0200   50.8710 H   0  0  0  0  0  0  0  0  0  0  0  0
  -42.2560  -65.2580   51.7590 C   0  0  0  0  0  0  0  0  0  0  0  0
  -41.5390  -64.2840   51.8670 O   0  0  0  0  0  0  0  0  0  0  0  0
  -43.3570  -65.3590   52.5140 C   0  0  0  0  0  0  0  0  0  0  0  0
  -43.4990  -66.0750   53.6380 C   0  0  0  0  0  3  0  0  0  0  0  0
  -44.6790  -65.9510   54.0970 C   0  0  0  0  0  3  0  0  0  0  0  0
  -45.4260  -65.1980   53.3950 C   0  0  0  0  0  3  0  0  0  0  0  0
  -44.6330  -64.7280   52.2710 O   0  0  0  0  0  0  0  0  0  0  0  0
  -33.1990  -65.6030   49.4440 C   0  0  0  0  0  0  0  0  0  0  0  0
  -32.0600  -65.7430   48.7330 N   0  0  0  0  0  0  0  0  0  0  0  0
  -31.6320  -64.4600   48.3690 N   0  0  0  0  0  2  0  0  0  0  0  0
  -32.5240  -63.5840   48.8760 C   0  0  0  0  0  3  0  0  0  0  0  0
  -33.4720  -64.2860   49.5340 N   0  0  0  0  0  0  0  0  0  0  0  0
  1  2  1  0  0  0  0
  2  3  2  0  0  0  0
  4  1  2  0  0  0  0
  4  5  1  0  0  0  0
  5 10  1  0  0  0  0
  5  6  2  0  0  0  0
  6  3  1  0  0  0  0
  6  7  1  0  0  0  0
  7  8  1  0  0  0  0
  9  7  1  0  0  0  0
 10  9  2  0  0  0  0
 11 10  1  0  0  0  0
 11 12  1  0  0  0  0
 13 12  2  0  0  0  0
 13 17  1  0  0  0  0
 14 13  1  0  0  0  0
 15 16  1  0  0  0  0
 15 14  2  0  0  0  0
 16 11  2  0  0  0  0
 17 19  1  0  0  0  0
 18 17  1  0  0  0  0
 19 20  2  0  0  0  0
 19 21  1  0  0  0  0
 21 22  2  0  0  0  0
 22 23  1  0  0  0  0
 24 23  2  0  0  0  0
 25 21  1  0  0  0  0
 25 24  1  0  0  0  0
 26 30  1  0  0  0  0
 26  1  1  0  0  0  0
 27 26  2  0  0  0  0
 28 27  1  0  0  0  0
 28 29  1  0  0  0  0
 29 30  2  0  0  0  0
M  END
>  <Pose>
9

>  <Score>
-8.601

$$$$
out/docking_results/vina_output/3e7o_docked_ligand.pdbqt
 OpenBabel03072216093D

 30 34  0  0  0  0  0  0  0  0999 V2000
  -39.4340  -64.1330   48.0420 C   0  0  0  0  0  0  0  0  0  0  0  0
  -38.5640  -63.5260   47.1330 C   0  0  0  0  0  3  0  0  0  0  0  0
  -37.2890  -64.0610   46.9120 C   0  0  0  0  0  3  0  0  0  0  0  0
  -39.0440  -65.2750   48.7390 C   0  0  0  0  0  3  0  0  0  0  0  0
  -37.7820  -65.8030   48.5090 C   0  0  0  0  0  0  0  0  0  0  0  0
  -36.9110  -65.2060   47.6100 C   0  0  0  0  0  0  0  0  0  0  0  0
  -35.7870  -65.9330   47.6060 N   0  0  0  0  0  0  0  0  0  0  0  0
  -34.9670  -65.7510   47.0460 H   0  0  0  0  0  0  0  0  0  0  0  0
  -35.9420  -66.9860   48.5070 N   0  0  0  0  0  0  0  0  0  0  0  0
  -37.1540  -66.9080   49.0740 C   0  0  0  0  0  0  0  0  0  0  0  0
  -37.6750  -67.9070   50.0550 C   0  0  0  0  0  0  0  0  0  0  0  0
  -38.9360  -67.6360   50.5780 C   0  0  0  0  0  3  0  0  0  0  0  0
  -39.5310  -68.4680   51.5200 C   0  0  0  0  0  0  0  0  0  0  0  0
  -38.8530  -69.6080   51.9580 C   0  0  0  0  0  3  0  0  0  0  0  0
  -37.5820  -69.8830   51.4430 C   0  0  0  0  0  3  0  0  0  0  0  0
  -36.9870  -69.0370   50.5010 C   0  0  0  0  0  3  0  0  0  0  0  0
  -40.7780  -68.1170   51.9400 N   0  0  0  0  0  0  0  0  0  0  0  0
  -41.5260  -68.1970   51.2660 H   0  0  0  0  0  0  0  0  0  0  0  0
  -41.1070  -67.6760   53.1580 C   0  0  0  0  0  0  0  0  0  0  0  0
  -40.2740  -67.5420   54.0330 O   0  0  0  0  0  0  0  0  0  0  0  0
  -42.3900  -67.3900   53.4130 C   0  0  0  0  0  0  0  0  0  0  0  0
  -43.1340  -66.4420   52.8280 C   0  0  0  0  0  3  0  0  0  0  0  0
  -44.3100  -66.4380   53.3140 C   0  0  0  0  0  3  0  0  0  0  0  0
  -44.4930  -67.3120   54.2190 C   0  0  0  0  0  3  0  0  0  0  0  0
  -43.2410  -68.0330   54.3850 O   0  0  0  0  0  0  0  0  0  0  0  0
  -40.7870  -63.5580   48.2830 C   0  0  0  0  0  0  0  0  0  0  0  0
  -41.5630  -63.7780   49.3650 N   0  0  0  0  0  0  0  0  0  0  0  0
  -42.7420  -63.0400   49.1920 N   0  0  0  0  0  0  0  0  0  0  0  0
  -42.6420  -62.4010   48.0090 C   0  0  0  0  0  3  0  0  0  0  0  0
  -41.4510  -62.7240   47.4580 N   0  0  0  0  0  2  0  0  0  0  0  0
  1 26  1  0  0  0  0
  1  4  1  0  0  0  0
  2  1  2  0  0  0  0
  3  2  1  0  0  0  0
  3  6  2  0  0  0  0
  5  4  2  0  0  0  0
  5 10  1  0  0  0  0
  6  5  1  0  0  0  0
  7  6  1  0  0  0  0
  7  9  1  0  0  0  0
  8  7  1  0  0  0  0
  9 10  2  0  0  0  0
 10 11  1  0  0  0  0
 11 16  2  0  0  0  0
 11 12  1  0  0  0  0
 12 13  2  0  0  0  0
 13 17  1  0  0  0  0
 13 14  1  0  0  0  0
 15 14  2  0  0  0  0
 16 15  1  0  0  0  0
 17 19  1  0  0  0  0
 18 17  1  0  0  0  0
 19 21  1  0  0  0  0
 19 20  2  0  0  0  0
 21 25  1  0  0  0  0
 22 23  1  0  0  0  0
 22 21  2  0  0  0  0
 23 24  2  0  0  0  0
 24 25  1  0  0  0  0
 26 27  2  0  0  0  0
 28 27  1  0  0  0  0
 29 28  2  0  0  0  0
 30 29  1  0  0  0  0
 30 26  1  0  0  0  0
M  END
>  <Pose>
10

>  <Score>
-8.064

$$$$
