# created with PyMOL 2.5.2
@<TRIPOS>MOLECULE
out/docking_results/vina_output/3elj_docked_ligand.pdbqt
39 42 1                 
SMALL
USER_CHARGES
@<TRIPOS>ATOM
1	   C	20.665	8.719	32.395	C.3	1	UNK0	0.000	
2	   N	21.311	7.643	31.912	N.2	1	UNK0	0.000	
3	   C	19.406	8.502	32.914	C.2	1	UNK0	0.000	
4	   C	18.919	7.220	32.898	C.2	1	UNK0	0.000	
5	   N	17.671	7.237	33.452	N.pl3	1	UNK0	0.000	
6	   H	17.076	6.429	33.566	 H	1	UNK0	0.000	
7	   C	17.347	8.509	33.829	C.2	1	UNK0	0.000	
8	   C	18.411	9.323	33.505	C.2	1	UNK0	0.000	
9	   N	19.543	6.146	32.428	N.pl3	1	UNK0	0.000	
10	   C	20.754	6.426	31.943	C.2	1	UNK0	0.000	
11	   N	21.459	5.321	31.427	N.pl3	1	UNK0	0.000	
12	   H	20.985	4.429	31.408	 H	1	UNK0	0.000	
13	   C	22.780	5.372	30.937	C.2	1	UNK0	0.000	
14	   C	23.705	4.460	31.397	C.2	1	UNK0	0.000	
15	   C	25.010	4.472	30.935	C.2	1	UNK0	0.000	
16	   C	25.394	5.409	29.997	C.2	1	UNK0	0.000	
17	   C	24.469	6.324	29.539	C.2	1	UNK0	0.000	
18	   C	23.171	6.302	29.997	C.2	1	UNK0	0.000	
19	   O	23.239	3.552	32.339	O.3	1	UNK0	0.000	
20	   C	24.298	2.698	32.752	C.3	1	UNK0	0.000	
21	   C	26.797	5.461	29.484	C.3	1	UNK0	0.000	
22	   S	26.753	5.432	27.706	S.O2	1	UNK0	0.000	
23	   O	27.038	6.763	27.204	O.2	1	UNK0	0.000	
24	   O	25.537	4.742	27.316	O.2	1	UNK0	0.000	
25	   C	28.127	4.392	27.314	C.3	1	UNK0	0.000	
26	   N	21.136	10.037	32.421	N.pl3	1	UNK0	0.000	
27	   H	20.478	10.735	32.734	 H	1	UNK0	0.000	
28	   C	22.405	10.507	32.065	C.2	1	UNK0	0.000	
29	   C	22.534	11.829	31.684	C.2	1	UNK0	0.000	
30	   C	23.761	12.343	31.326	C.2	1	UNK0	0.000	
31	   F	23.889	13.627	30.957	 F	1	UNK0	0.000	
32	   C	24.876	11.538	31.342	C.2	1	UNK0	0.000	
33	   C	24.758	10.220	31.720	C.2	1	UNK0	0.000	
34	   C	23.530	9.710	32.080	C.2	1	UNK0	0.000	
35	   C	21.337	12.691	31.666	C.2	1	UNK0	0.000	
36	   O	20.680	12.868	32.685	O.2	1	UNK0	0.000	
37	   N	21.058	13.246	30.444	N.pl3	1	UNK0	0.000	
38	   H	20.256	13.851	30.336	 H	1	UNK0	0.000	
39	   H	21.653	13.048	29.652	 H	1	UNK0	0.000	
@<TRIPOS>BOND
1 1 26 1
2 1 3 1
3 2 10 2
4 1 2 1
5 3 8 1
6 3 4 2
7 4 5 1
8 5 6 1
9 5 7 1
10 7 8 2
11 4 9 1
12 9 10 1
13 10 11 1
14 11 12 1
15 13 14 1
16 11 13 1
17 14 19 1
18 14 15 2
19 15 16 1
20 16 17 2
21 17 18 1
22 13 18 2
23 19 20 1
24 16 21 1
25 21 22 1
26 22 23 2
27 22 24 2
28 22 25 1
29 26 27 1
30 28 34 1
31 26 28 1
32 28 29 2
33 30 32 2
34 29 30 1
35 30 31 1
36 32 33 1
37 33 34 2
38 29 35 1
39 35 36 2
40 35 37 1
41 37 38 1
42 37 39 1
@<TRIPOS>SUBSTRUCTURE
1	UNK0	1	GROUP	1 ****	UNK
