MODEL 1
REMARK VINA RESULT:    -9.769      0.000      0.000
REMARK INTER + INTRA:         -16.019
REMARK INTER:                 -15.389
REMARK INTRA:                  -0.629
REMARK UNBOUND:                -1.681
REMARK  8 active torsions:
REMARK  status: ('A' for Active; 'I' for Inactive)
REMARK    1  A    between atoms: C11_1  and  N3_38 
REMARK    2  A    between atoms: C10_10  and  N1_11 
REMARK    3  A    between atoms: N1_11  and  C9_13 
REMARK    4  A    between atoms: C2_14  and  O1_15 
REMARK    5  A    between atoms: C4_19  and  C5_21 
REMARK    6  A    between atoms: C5_21  and  S_22 
REMARK       I    between atoms: C18_27  and  N4_28 
REMARK    7  A    between atoms: C18_27  and  C17_31 
REMARK    8  A    between atoms: C12_37  and  N3_38 
ROOT
ATOM      1  C11 GS7 A   1      20.665   8.719  32.395  0.00  0.00     0.161 A 
ATOM      2  N2  GS7 A   1      21.311   7.643  31.912  0.00  0.00    -0.044 NA
ATOM      3  C19 GS7 A   1      19.406   8.502  32.914  0.00  0.00     0.058 A 
ATOM      4  C22 GS7 A   1      18.919   7.220  32.898  0.00  0.00     0.160 A 
ATOM      5  N5  GS7 A   1      17.671   7.237  33.452  0.00  0.00    -0.349 N 
ATOM      6  H5  GS7 A   1      17.076   6.429  33.566  0.00  0.00     0.166 HD
ATOM      7  C21 GS7 A   1      17.347   8.509  33.829  0.00  0.00     0.091 A 
ATOM      8  C20 GS7 A   1      18.411   9.323  33.505  0.00  0.00     0.036 A 
ATOM      9  N6  GS7 A   1      19.543   6.146  32.428  0.00  0.00    -0.044 NA
ATOM     10  C10 GS7 A   1      20.754   6.426  31.943  0.00  0.00     0.731 A 
ENDROOT
BRANCH  10  11
ATOM     11  N1  GS7 A   1      21.459   5.321  31.427  0.00  0.00    -0.185 N 
ATOM     12  H1  GS7 A   1      20.985   4.429  31.408  0.00  0.00     0.184 HD
BRANCH  11  13
ATOM     13  C9  GS7 A   1      22.780   5.372  30.937  0.00  0.00     0.082 A 
ATOM     14  C2  GS7 A   1      23.705   4.460  31.397  0.00  0.00     0.096 A 
ATOM     15  C3  GS7 A   1      25.010   4.472  30.935  0.00  0.00     0.047 A 
ATOM     16  C4  GS7 A   1      25.394   5.409  29.997  0.00  0.00    -0.042 A 
ATOM     17  C7  GS7 A   1      24.469   6.324  29.539  0.00  0.00     0.010 A 
ATOM     18  C8  GS7 A   1      23.171   6.302  29.997  0.00  0.00     0.033 A 
BRANCH  14  19
ATOM     19  O1  GS7 A   1      23.239   3.552  32.339  0.00  0.00    -0.354 OA
ATOM     20  C1  GS7 A   1      24.298   2.698  32.752  0.00  0.00     0.210 C 
ENDBRANCH  14  19
BRANCH  16  21
ATOM     21  C5  GS7 A   1      26.797   5.461  29.484  0.00  0.00     0.178 C 
BRANCH  21  22
ATOM     22  S   GS7 A   1      26.753   5.432  27.706  0.00  0.00     0.144 S 
ATOM     23  O2  GS7 A   1      27.038   6.763  27.204  0.00  0.00    -0.228 OA
ATOM     24  O3  GS7 A   1      25.537   4.742  27.316  0.00  0.00    -0.228 OA
ATOM     25  C6  GS7 A   1      28.127   4.392  27.314  0.00  0.00     0.161 C 
ENDBRANCH  21  22
ENDBRANCH  16  21
ENDBRANCH  11  13
ENDBRANCH  10  11
BRANCH   1  26
ATOM     26  N3  GS7 A   1      21.136  10.037  32.421  0.00  0.00    -0.339 N 
ATOM     27  H3  GS7 A   1      20.478  10.735  32.734  0.00  0.00     0.167 HD
BRANCH  26  28
ATOM     28  C12 GS7 A   1      22.405  10.507  32.065  0.00  0.00     0.052 A 
ATOM     29  C17 GS7 A   1      22.534  11.829  31.684  0.00  0.00     0.097 A 
ATOM     30  C16 GS7 A   1      23.761  12.343  31.326  0.00  0.00     0.134 A 
ATOM     31  F   GS7 A   1      23.889  13.627  30.957  0.00  0.00    -0.205 F 
ATOM     32  C15 GS7 A   1      24.876  11.538  31.342  0.00  0.00     0.043 A 
ATOM     33  C14 GS7 A   1      24.758  10.220  31.720  0.00  0.00     0.005 A 
ATOM     34  C13 GS7 A   1      23.530   9.710  32.080  0.00  0.00     0.030 A 
BRANCH  29  35
ATOM     35  C18 GS7 A   1      21.337  12.691  31.666  0.00  0.00     0.254 C 
ATOM     36  O4  GS7 A   1      20.680  12.868  32.685  0.00  0.00    -0.268 OA
ATOM     37  N4  GS7 A   1      21.058  13.246  30.444  0.00  0.00    -0.366 N 
ATOM     38  H41 GS7 A   1      20.256  13.851  30.336  0.00  0.00     0.159 HD
ATOM     39  H42 GS7 A   1      21.653  13.048  29.652  0.00  0.00     0.159 HD
ENDBRANCH  29  35
ENDBRANCH  26  28
ENDBRANCH   1  26
TORSDOF 8
ENDMDL
MODEL 2
REMARK VINA RESULT:    -9.453      1.326      1.896
REMARK INTER + INTRA:         -15.554
REMARK INTER:                 -14.448
REMARK INTRA:                  -1.107
REMARK UNBOUND:                -1.681
REMARK  8 active torsions:
REMARK  status: ('A' for Active; 'I' for Inactive)
REMARK    1  A    between atoms: C11_1  and  N3_38 
REMARK    2  A    between atoms: C10_10  and  N1_11 
REMARK    3  A    between atoms: N1_11  and  C9_13 
REMARK    4  A    between atoms: C2_14  and  O1_15 
REMARK    5  A    between atoms: C4_19  and  C5_21 
REMARK    6  A    between atoms: C5_21  and  S_22 
REMARK       I    between atoms: C18_27  and  N4_28 
REMARK    7  A    between atoms: C18_27  and  C17_31 
REMARK    8  A    between atoms: C12_37  and  N3_38 
ROOT
ATOM      1  C11 GS7 A   1      20.817   8.628  32.720  0.00  0.00     0.161 A 
ATOM      2  N2  GS7 A   1      21.427   7.583  32.134  0.00  0.00    -0.044 NA
ATOM      3  C19 GS7 A   1      19.476   8.478  33.007  0.00  0.00     0.058 A 
ATOM      4  C22 GS7 A   1      18.878   7.289  32.676  0.00  0.00     0.160 A 
ATOM      5  N5  GS7 A   1      17.565   7.362  33.043  0.00  0.00    -0.349 N 
ATOM      6  H5  GS7 A   1      16.886   6.625  32.915  0.00  0.00     0.166 HD
ATOM      7  C21 GS7 A   1      17.307   8.577  33.609  0.00  0.00     0.091 A 
ATOM      8  C20 GS7 A   1      18.481   9.299  33.600  0.00  0.00     0.036 A 
ATOM      9  N6  GS7 A   1      19.465   6.246  32.100  0.00  0.00    -0.044 NA
ATOM     10  C10 GS7 A   1      20.759   6.457  31.851  0.00  0.00     0.731 A 
ENDROOT
BRANCH  10  11
ATOM     11  N1  GS7 A   1      21.430   5.382  31.235  0.00  0.00    -0.185 N 
ATOM     12  H1  GS7 A   1      20.919   4.520  31.109  0.00  0.00     0.184 HD
BRANCH  11  13
ATOM     13  C9  GS7 A   1      22.764   5.425  30.784  0.00  0.00     0.082 A 
ATOM     14  C2  GS7 A   1      23.681   4.535  31.302  0.00  0.00     0.096 A 
ATOM     15  C3  GS7 A   1      24.999   4.540  30.879  0.00  0.00     0.047 A 
ATOM     16  C4  GS7 A   1      25.406   5.446  29.922  0.00  0.00    -0.042 A 
ATOM     17  C7  GS7 A   1      24.490   6.339  29.405  0.00  0.00     0.010 A 
ATOM     18  C8  GS7 A   1      23.179   6.325  29.824  0.00  0.00     0.033 A 
BRANCH  14  19
ATOM     19  O1  GS7 A   1      23.192   3.658  32.261  0.00  0.00    -0.354 OA
ATOM     20  C1  GS7 A   1      24.196   2.716  32.611  0.00  0.00     0.210 C 
ENDBRANCH  14  19
BRANCH  16  21
ATOM     21  C5  GS7 A   1      26.824   5.490  29.450  0.00  0.00     0.178 C 
BRANCH  21  22
ATOM     22  S   GS7 A   1      26.830   5.496  27.671  0.00  0.00     0.144 S 
ATOM     23  O2  GS7 A   1      27.043   6.853  27.204  0.00  0.00    -0.228 OA
ATOM     24  O3  GS7 A   1      25.672   4.739  27.233  0.00  0.00    -0.228 OA
ATOM     25  C6  GS7 A   1      28.278   4.554  27.297  0.00  0.00     0.161 C 
ENDBRANCH  21  22
ENDBRANCH  16  21
ENDBRANCH  11  13
ENDBRANCH  10  11
BRANCH   1  26
ATOM     26  N3  GS7 A   1      21.400   9.852  33.065  0.00  0.00    -0.339 N 
ATOM     27  H3  GS7 A   1      22.033   9.835  33.851  0.00  0.00     0.167 HD
BRANCH  26  28
ATOM     28  C12 GS7 A   1      21.214  11.098  32.455  0.00  0.00     0.052 A 
ATOM     29  C17 GS7 A   1      21.962  11.399  31.333  0.00  0.00     0.097 A 
ATOM     30  C16 GS7 A   1      21.818  12.612  30.693  0.00  0.00     0.134 A 
ATOM     31  F   GS7 A   1      22.542  12.905  29.603  0.00  0.00    -0.205 F 
ATOM     32  C15 GS7 A   1      20.922  13.540  31.172  0.00  0.00     0.043 A 
ATOM     33  C14 GS7 A   1      20.173  13.249  32.290  0.00  0.00     0.005 A 
ATOM     34  C13 GS7 A   1      20.319  12.035  32.925  0.00  0.00     0.030 A 
BRANCH  29  35
ATOM     35  C18 GS7 A   1      22.923  10.404  30.821  0.00  0.00     0.254 C 
ATOM     36  O4  GS7 A   1      23.998  10.230  31.381  0.00  0.00    -0.268 OA
ATOM     37  N4  GS7 A   1      22.498   9.729  29.706  0.00  0.00    -0.366 N 
ATOM     38  H41 GS7 A   1      23.090   9.027  29.285  0.00  0.00     0.159 HD
ATOM     39  H42 GS7 A   1      21.594   9.934  29.306  0.00  0.00     0.159 HD
ENDBRANCH  29  35
ENDBRANCH  26  28
ENDBRANCH   1  26
TORSDOF 8
ENDMDL
MODEL 3
REMARK VINA RESULT:    -9.383      2.195      3.160
REMARK INTER + INTRA:         -15.452
REMARK INTER:                 -13.836
REMARK INTRA:                  -1.616
REMARK UNBOUND:                -1.681
REMARK  8 active torsions:
REMARK  status: ('A' for Active; 'I' for Inactive)
REMARK    1  A    between atoms: C11_1  and  N3_38 
REMARK    2  A    between atoms: C10_10  and  N1_11 
REMARK    3  A    between atoms: N1_11  and  C9_13 
REMARK    4  A    between atoms: C2_14  and  O1_15 
REMARK    5  A    between atoms: C4_19  and  C5_21 
REMARK    6  A    between atoms: C5_21  and  S_22 
REMARK       I    between atoms: C18_27  and  N4_28 
REMARK    7  A    between atoms: C18_27  and  C17_31 
REMARK    8  A    between atoms: C12_37  and  N3_38 
ROOT
ATOM      1  C11 GS7 A   1      21.000   8.629  32.466  0.00  0.00     0.161 A 
ATOM      2  N2  GS7 A   1      21.569   7.617  31.786  0.00  0.00    -0.044 NA
ATOM      3  C19 GS7 A   1      19.692   8.447  32.864  0.00  0.00     0.058 A 
ATOM      4  C22 GS7 A   1      19.083   7.261  32.540  0.00  0.00     0.160 A 
ATOM      5  N5  GS7 A   1      17.807   7.298  33.025  0.00  0.00    -0.349 N 
ATOM      6  H5  GS7 A   1      17.128   6.557  32.929  0.00  0.00     0.166 HD
ATOM      7  C21 GS7 A   1      17.585   8.487  33.661  0.00  0.00     0.091 A 
ATOM      8  C20 GS7 A   1      18.744   9.227  33.577  0.00  0.00     0.036 A 
ATOM      9  N6  GS7 A   1      19.628   6.252  31.873  0.00  0.00    -0.044 NA
ATOM     10  C10 GS7 A   1      20.893   6.493  31.519  0.00  0.00     0.731 A 
ENDROOT
BRANCH  10  11
ATOM     11  N1  GS7 A   1      21.519   5.454  30.803  0.00  0.00    -0.185 N 
ATOM     12  H1  GS7 A   1      21.038   5.083  29.997  0.00  0.00     0.184 HD
BRANCH  11  13
ATOM     13  C9  GS7 A   1      22.770   4.896  31.134  0.00  0.00     0.082 A 
ATOM     14  C2  GS7 A   1      23.892   5.297  30.441  0.00  0.00     0.096 A 
ATOM     15  C3  GS7 A   1      25.141   4.779  30.741  0.00  0.00     0.047 A 
ATOM     16  C4  GS7 A   1      25.270   3.848  31.751  0.00  0.00    -0.042 A 
ATOM     17  C7  GS7 A   1      24.147   3.444  32.443  0.00  0.00     0.010 A 
ATOM     18  C8  GS7 A   1      22.909   3.968  32.145  0.00  0.00     0.033 A 
BRANCH  14  19
ATOM     19  O1  GS7 A   1      23.678   6.236  29.441  0.00  0.00    -0.354 OA
ATOM     20  C1  GS7 A   1      24.722   7.199  29.449  0.00  0.00     0.210 C 
ENDBRANCH  14  19
BRANCH  16  21
ATOM     21  C5  GS7 A   1      26.598   3.257  32.095  0.00  0.00     0.178 C 
BRANCH  21  22
ATOM     22  S   GS7 A   1      26.754   1.690  31.266  0.00  0.00     0.144 S 
ATOM     23  O2  GS7 A   1      26.398   1.857  29.869  0.00  0.00    -0.228 OA
ATOM     24  O3  GS7 A   1      26.081   0.701  32.086  0.00  0.00    -0.228 OA
ATOM     25  C6  GS7 A   1      28.494   1.390  31.357  0.00  0.00     0.161 C 
ENDBRANCH  21  22
ENDBRANCH  16  21
ENDBRANCH  11  13
ENDBRANCH  10  11
BRANCH   1  26
ATOM     26  N3  GS7 A   1      21.596   9.848  32.806  0.00  0.00    -0.339 N 
ATOM     27  H3  GS7 A   1      22.307   9.808  33.522  0.00  0.00     0.167 HD
BRANCH  26  28
ATOM     28  C12 GS7 A   1      21.329  11.116  32.278  0.00  0.00     0.052 A 
ATOM     29  C17 GS7 A   1      21.981  11.497  31.121  0.00  0.00     0.097 A 
ATOM     30  C16 GS7 A   1      21.754  12.735  30.558  0.00  0.00     0.134 A 
ATOM     31  F   GS7 A   1      22.385  13.106  29.434  0.00  0.00    -0.205 F 
ATOM     32  C15 GS7 A   1      20.870  13.608  31.150  0.00  0.00     0.043 A 
ATOM     33  C14 GS7 A   1      20.217  13.237  32.302  0.00  0.00     0.005 A 
ATOM     34  C13 GS7 A   1      20.445  11.999  32.861  0.00  0.00     0.030 A 
BRANCH  29  35
ATOM     35  C18 GS7 A   1      22.929  10.561  30.488  0.00  0.00     0.254 C 
ATOM     36  O4  GS7 A   1      24.048  10.394  30.958  0.00  0.00    -0.268 OA
ATOM     37  N4  GS7 A   1      22.442   9.930  29.373  0.00  0.00    -0.366 N 
ATOM     38  H41 GS7 A   1      23.021   9.270  28.873  0.00  0.00     0.159 HD
ATOM     39  H42 GS7 A   1      21.505  10.126  29.052  0.00  0.00     0.159 HD
ENDBRANCH  29  35
ENDBRANCH  26  28
ENDBRANCH   1  26
TORSDOF 8
ENDMDL
MODEL 4
REMARK VINA RESULT:    -9.382      3.528      7.917
REMARK INTER + INTRA:         -15.450
REMARK INTER:                 -14.671
REMARK INTRA:                  -0.780
REMARK UNBOUND:                -1.681
REMARK  8 active torsions:
REMARK  status: ('A' for Active; 'I' for Inactive)
REMARK    1  A    between atoms: C11_1  and  N3_38 
REMARK    2  A    between atoms: C10_10  and  N1_11 
REMARK    3  A    between atoms: N1_11  and  C9_13 
REMARK    4  A    between atoms: C2_14  and  O1_15 
REMARK    5  A    between atoms: C4_19  and  C5_21 
REMARK    6  A    between atoms: C5_21  and  S_22 
REMARK       I    between atoms: C18_27  and  N4_28 
REMARK    7  A    between atoms: C18_27  and  C17_31 
REMARK    8  A    between atoms: C12_37  and  N3_38 
ROOT
ATOM      1  C11 GS7 A   1      22.263   6.985  31.356  0.00  0.00     0.161 A 
ATOM      2  N2  GS7 A   1      23.056   8.065  31.460  0.00  0.00    -0.044 NA
ATOM      3  C19 GS7 A   1      20.996   7.095  31.891  0.00  0.00     0.058 A 
ATOM      4  C22 GS7 A   1      20.650   8.285  32.479  0.00  0.00     0.160 A 
ATOM      5  N5  GS7 A   1      19.369   8.170  32.938  0.00  0.00    -0.349 N 
ATOM      6  H5  GS7 A   1      18.858   8.897  33.417  0.00  0.00     0.166 HD
ATOM      7  C21 GS7 A   1      18.882   6.927  32.651  0.00  0.00     0.091 A 
ATOM      8  C20 GS7 A   1      19.875   6.231  31.998  0.00  0.00     0.036 A 
ATOM      9  N6  GS7 A   1      21.419   9.362  32.589  0.00  0.00    -0.044 NA
ATOM     10  C10 GS7 A   1      22.628   9.188  32.050  0.00  0.00     0.731 A 
ENDROOT
BRANCH  10  11
ATOM     11  N1  GS7 A   1      23.486  10.301  32.142  0.00  0.00    -0.185 N 
ATOM     12  H1  GS7 A   1      24.388  10.164  32.577  0.00  0.00     0.184 HD
BRANCH  11  13
ATOM     13  C9  GS7 A   1      23.175  11.592  31.671  0.00  0.00     0.082 A 
ATOM     14  C2  GS7 A   1      24.149  12.329  31.031  0.00  0.00     0.096 A 
ATOM     15  C3  GS7 A   1      23.882  13.598  30.546  0.00  0.00     0.047 A 
ATOM     16  C4  GS7 A   1      22.621  14.137  30.701  0.00  0.00    -0.042 A 
ATOM     17  C7  GS7 A   1      21.647  13.401  31.344  0.00  0.00     0.010 A 
ATOM     18  C8  GS7 A   1      21.917  12.137  31.818  0.00  0.00     0.033 A 
BRANCH  14  19
ATOM     19  O1  GS7 A   1      25.390  11.716  30.917  0.00  0.00    -0.354 OA
ATOM     20  C1  GS7 A   1      25.626  11.354  29.563  0.00  0.00     0.210 C 
ENDBRANCH  14  19
BRANCH  16  21
ATOM     21  C5  GS7 A   1      22.298  15.508  30.203  0.00  0.00     0.178 C 
BRANCH  21  22
ATOM     22  S   GS7 A   1      21.791  16.510  31.583  0.00  0.00     0.144 S 
ATOM     23  O2  GS7 A   1      20.414  16.192  31.916  0.00  0.00    -0.228 OA
ATOM     24  O3  GS7 A   1      22.183  17.876  31.291  0.00  0.00    -0.228 OA
ATOM     25  C6  GS7 A   1      22.823  15.905  32.884  0.00  0.00     0.161 C 
ENDBRANCH  21  22
ENDBRANCH  16  21
ENDBRANCH  11  13
ENDBRANCH  10  11
BRANCH   1  26
ATOM     26  N3  GS7 A   1      22.590   5.759  30.766  0.00  0.00    -0.339 N 
ATOM     27  H3  GS7 A   1      22.100   5.533  29.913  0.00  0.00     0.167 HD
BRANCH  26  28
ATOM     28  C12 GS7 A   1      23.514   4.806  31.212  0.00  0.00     0.052 A 
ATOM     29  C17 GS7 A   1      24.779   4.807  30.656  0.00  0.00     0.097 A 
ATOM     30  C16 GS7 A   1      25.727   3.891  31.059  0.00  0.00     0.134 A 
ATOM     31  F   GS7 A   1      26.956   3.890  30.521  0.00  0.00    -0.205 F 
ATOM     32  C15 GS7 A   1      25.417   2.960  32.024  0.00  0.00     0.043 A 
ATOM     33  C14 GS7 A   1      24.160   2.952  32.583  0.00  0.00     0.005 A 
ATOM     34  C13 GS7 A   1      23.216   3.870  32.179  0.00  0.00     0.030 A 
BRANCH  29  35
ATOM     35  C18 GS7 A   1      25.109   5.804  29.620  0.00  0.00     0.254 C 
ATOM     36  O4  GS7 A   1      24.830   5.598  28.445  0.00  0.00    -0.268 OA
ATOM     37  N4  GS7 A   1      25.730   6.929  30.096  0.00  0.00    -0.366 N 
ATOM     38  H41 GS7 A   1      25.994   7.668  29.459  0.00  0.00     0.159 HD
ATOM     39  H42 GS7 A   1      25.925   7.019  31.083  0.00  0.00     0.159 HD
ENDBRANCH  29  35
ENDBRANCH  26  28
ENDBRANCH   1  26
TORSDOF 8
ENDMDL
MODEL 5
REMARK VINA RESULT:    -8.281      3.829      6.952
REMARK INTER + INTRA:         -13.834
REMARK INTER:                 -12.028
REMARK INTRA:                  -1.806
REMARK UNBOUND:                -1.681
REMARK  8 active torsions:
REMARK  status: ('A' for Active; 'I' for Inactive)
REMARK    1  A    between atoms: C11_1  and  N3_38 
REMARK    2  A    between atoms: C10_10  and  N1_11 
REMARK    3  A    between atoms: N1_11  and  C9_13 
REMARK    4  A    between atoms: C2_14  and  O1_15 
REMARK    5  A    between atoms: C4_19  and  C5_21 
REMARK    6  A    between atoms: C5_21  and  S_22 
REMARK       I    between atoms: C18_27  and  N4_28 
REMARK    7  A    between atoms: C18_27  and  C17_31 
REMARK    8  A    between atoms: C12_37  and  N3_38 
ROOT
ATOM      1  C11 GS7 A   1      22.575   7.679  31.167  0.00  0.00     0.161 A 
ATOM      2  N2  GS7 A   1      23.496   8.652  31.056  0.00  0.00    -0.044 NA
ATOM      3  C19 GS7 A   1      21.430   7.990  31.870  0.00  0.00     0.058 A 
ATOM      4  C22 GS7 A   1      21.322   9.253  32.393  0.00  0.00     0.160 A 
ATOM      5  N5  GS7 A   1      20.125   9.339  33.042  0.00  0.00    -0.349 N 
ATOM      6  H5  GS7 A   1      19.783  10.159  33.524  0.00  0.00     0.166 HD
ATOM      7  C21 GS7 A   1      19.456   8.153  32.943  0.00  0.00     0.091 A 
ATOM      8  C20 GS7 A   1      20.246   7.289  32.217  0.00  0.00     0.036 A 
ATOM      9  N6  GS7 A   1      22.219  10.227  32.291  0.00  0.00    -0.044 NA
ATOM     10  C10 GS7 A   1      23.300   9.860  31.599  0.00  0.00     0.731 A 
ENDROOT
BRANCH  10  11
ATOM     11  N1  GS7 A   1      24.288  10.856  31.464  0.00  0.00    -0.185 N 
ATOM     12  H1  GS7 A   1      24.549  11.373  32.291  0.00  0.00     0.184 HD
BRANCH  11  13
ATOM     13  C9  GS7 A   1      24.936  11.181  30.256  0.00  0.00     0.082 A 
ATOM     14  C2  GS7 A   1      24.353  12.095  29.404  0.00  0.00     0.096 A 
ATOM     15  C3  GS7 A   1      24.961  12.448  28.211  0.00  0.00     0.047 A 
ATOM     16  C4  GS7 A   1      26.171  11.880  27.866  0.00  0.00    -0.042 A 
ATOM     17  C7  GS7 A   1      26.752  10.963  28.717  0.00  0.00     0.010 A 
ATOM     18  C8  GS7 A   1      26.146  10.621  29.905  0.00  0.00     0.033 A 
BRANCH  14  19
ATOM     19  O1  GS7 A   1      23.138  12.620  29.823  0.00  0.00    -0.354 OA
ATOM     20  C1  GS7 A   1      23.252  14.026  29.994  0.00  0.00     0.210 C 
ENDBRANCH  14  19
BRANCH  16  21
ATOM     21  C5  GS7 A   1      26.851  12.226  26.581  0.00  0.00     0.178 C 
BRANCH  21  22
ATOM     22  S   GS7 A   1      27.842  13.681  26.837  0.00  0.00     0.144 S 
ATOM     23  O2  GS7 A   1      28.962  13.345  27.697  0.00  0.00    -0.228 OA
ATOM     24  O3  GS7 A   1      26.939  14.761  27.190  0.00  0.00    -0.228 OA
ATOM     25  C6  GS7 A   1      28.471  13.996  25.216  0.00  0.00     0.161 C 
ENDBRANCH  21  22
ENDBRANCH  16  21
ENDBRANCH  11  13
ENDBRANCH  10  11
BRANCH   1  26
ATOM     26  N3  GS7 A   1      22.660   6.382  30.648  0.00  0.00    -0.339 N 
ATOM     27  H3  GS7 A   1      22.118   6.203  29.815  0.00  0.00     0.167 HD
BRANCH  26  28
ATOM     28  C12 GS7 A   1      23.403   5.303  31.139  0.00  0.00     0.052 A 
ATOM     29  C17 GS7 A   1      24.646   5.055  30.588  0.00  0.00     0.097 A 
ATOM     30  C16 GS7 A   1      25.419   4.006  31.036  0.00  0.00     0.134 A 
ATOM     31  F   GS7 A   1      26.627   3.764  30.503  0.00  0.00    -0.205 F 
ATOM     32  C15 GS7 A   1      24.955   3.189  32.042  0.00  0.00     0.043 A 
ATOM     33  C14 GS7 A   1      23.719   3.428  32.596  0.00  0.00     0.005 A 
ATOM     34  C13 GS7 A   1      22.950   4.479  32.147  0.00  0.00     0.030 A 
BRANCH  29  35
ATOM     35  C18 GS7 A   1      25.142   5.931  29.510  0.00  0.00     0.254 C 
ATOM     36  O4  GS7 A   1      24.834   5.718  28.343  0.00  0.00    -0.268 OA
ATOM     37  N4  GS7 A   1      25.944   6.956  29.937  0.00  0.00    -0.366 N 
ATOM     38  H41 GS7 A   1      26.330   7.607  29.268  0.00  0.00     0.159 HD
ATOM     39  H42 GS7 A   1      26.150   7.060  30.920  0.00  0.00     0.159 HD
ENDBRANCH  29  35
ENDBRANCH  26  28
ENDBRANCH   1  26
TORSDOF 8
ENDMDL
MODEL 6
REMARK VINA RESULT:    -8.179      3.401      6.438
REMARK INTER + INTRA:         -13.685
REMARK INTER:                 -12.710
REMARK INTRA:                  -0.975
REMARK UNBOUND:                -1.681
REMARK  8 active torsions:
REMARK  status: ('A' for Active; 'I' for Inactive)
REMARK    1  A    between atoms: C11_1  and  N3_38 
REMARK    2  A    between atoms: C10_10  and  N1_11 
REMARK    3  A    between atoms: N1_11  and  C9_13 
REMARK    4  A    between atoms: C2_14  and  O1_15 
REMARK    5  A    between atoms: C4_19  and  C5_21 
REMARK    6  A    between atoms: C5_21  and  S_22 
REMARK       I    between atoms: C18_27  and  N4_28 
REMARK    7  A    between atoms: C18_27  and  C17_31 
REMARK    8  A    between atoms: C12_37  and  N3_38 
ROOT
ATOM      1  C11 GS7 A   1      22.152  10.979  31.846  0.00  0.00     0.161 A 
ATOM      2  N2  GS7 A   1      22.920  11.367  30.813  0.00  0.00    -0.044 NA
ATOM      3  C19 GS7 A   1      21.140  11.837  32.220  0.00  0.00     0.058 A 
ATOM      4  C22 GS7 A   1      20.997  13.005  31.515  0.00  0.00     0.160 A 
ATOM      5  N5  GS7 A   1      19.948  13.695  32.051  0.00  0.00    -0.349 N 
ATOM      6  H5  GS7 A   1      19.619  14.594  31.729  0.00  0.00     0.166 HD
ATOM      7  C21 GS7 A   1      19.408  12.988  33.088  0.00  0.00     0.091 A 
ATOM      8  C20 GS7 A   1      20.131  11.822  33.219  0.00  0.00     0.036 A 
ATOM      9  N6  GS7 A   1      21.744  13.404  30.492  0.00  0.00    -0.044 NA
ATOM     10  C10 GS7 A   1      22.702  12.528  30.183  0.00  0.00     0.731 A 
ENDROOT
BRANCH  10  11
ATOM     11  N1  GS7 A   1      23.527  12.904  29.104  0.00  0.00    -0.185 N 
ATOM     12  H1  GS7 A   1      23.216  13.666  28.519  0.00  0.00     0.184 HD
BRANCH  11  13
ATOM     13  C9  GS7 A   1      24.756  12.292  28.786  0.00  0.00     0.082 A 
ATOM     14  C2  GS7 A   1      25.656  12.963  27.986  0.00  0.00     0.096 A 
ATOM     15  C3  GS7 A   1      26.877  12.400  27.657  0.00  0.00     0.047 A 
ATOM     16  C4  GS7 A   1      27.204  11.148  28.137  0.00  0.00    -0.042 A 
ATOM     17  C7  GS7 A   1      26.302  10.475  28.934  0.00  0.00     0.010 A 
ATOM     18  C8  GS7 A   1      25.092  11.043  29.264  0.00  0.00     0.033 A 
BRANCH  14  19
ATOM     19  O1  GS7 A   1      25.252  14.216  27.545  0.00  0.00    -0.354 OA
ATOM     20  C1  GS7 A   1      26.335  14.874  26.902  0.00  0.00     0.210 C 
ENDBRANCH  14  19
BRANCH  16  21
ATOM     21  C5  GS7 A   1      28.507  10.502  27.793  0.00  0.00     0.178 C 
BRANCH  21  22
ATOM     22  S   GS7 A   1      28.219   9.280  26.532  0.00  0.00     0.144 S 
ATOM     23  O2  GS7 A   1      27.427   9.873  25.471  0.00  0.00    -0.228 OA
ATOM     24  O3  GS7 A   1      27.772   8.071  27.199  0.00  0.00    -0.228 OA
ATOM     25  C6  GS7 A   1      29.848   8.994  25.908  0.00  0.00     0.161 C 
ENDBRANCH  21  22
ENDBRANCH  16  21
ENDBRANCH  11  13
ENDBRANCH  10  11
BRANCH   1  26
ATOM     26  N3  GS7 A   1      22.277   9.796  32.584  0.00  0.00    -0.339 N 
ATOM     27  H3  GS7 A   1      22.980   9.799  33.308  0.00  0.00     0.167 HD
BRANCH  26  28
ATOM     28  C12 GS7 A   1      21.549   8.610  32.443  0.00  0.00     0.052 A 
ATOM     29  C17 GS7 A   1      22.034   7.639  31.587  0.00  0.00     0.097 A 
ATOM     30  C16 GS7 A   1      21.356   6.451  31.412  0.00  0.00     0.134 A 
ATOM     31  F   GS7 A   1      21.825   5.507  30.583  0.00  0.00    -0.205 F 
ATOM     32  C15 GS7 A   1      20.181   6.223  32.091  0.00  0.00     0.043 A 
ATOM     33  C14 GS7 A   1      19.691   7.184  32.944  0.00  0.00     0.005 A 
ATOM     34  C13 GS7 A   1      20.372   8.369  33.119  0.00  0.00     0.030 A 
BRANCH  29  35
ATOM     35  C18 GS7 A   1      23.292   7.885  30.859  0.00  0.00     0.254 C 
ATOM     36  O4  GS7 A   1      24.373   7.766  31.424  0.00  0.00    -0.268 OA
ATOM     37  N4  GS7 A   1      23.126   8.244  29.547  0.00  0.00    -0.366 N 
ATOM     38  H41 GS7 A   1      23.933   8.433  28.969  0.00  0.00     0.159 HD
ATOM     39  H42 GS7 A   1      22.197   8.321  29.158  0.00  0.00     0.159 HD
ENDBRANCH  29  35
ENDBRANCH  26  28
ENDBRANCH   1  26
TORSDOF 8
ENDMDL
MODEL 7
REMARK VINA RESULT:    -8.174      2.293      3.301
REMARK INTER + INTRA:         -13.678
REMARK INTER:                 -11.928
REMARK INTRA:                  -1.750
REMARK UNBOUND:                -1.681
REMARK  8 active torsions:
REMARK  status: ('A' for Active; 'I' for Inactive)
REMARK    1  A    between atoms: C11_1  and  N3_38 
REMARK    2  A    between atoms: C10_10  and  N1_11 
REMARK    3  A    between atoms: N1_11  and  C9_13 
REMARK    4  A    between atoms: C2_14  and  O1_15 
REMARK    5  A    between atoms: C4_19  and  C5_21 
REMARK    6  A    between atoms: C5_21  and  S_22 
REMARK       I    between atoms: C18_27  and  N4_28 
REMARK    7  A    between atoms: C18_27  and  C17_31 
REMARK    8  A    between atoms: C12_37  and  N3_38 
ROOT
ATOM      1  C11 GS7 A   1      22.647   9.431  31.605  0.00  0.00     0.161 A 
ATOM      2  N2  GS7 A   1      22.904   8.237  31.044  0.00  0.00    -0.044 NA
ATOM      3  C19 GS7 A   1      21.439   9.559  32.258  0.00  0.00     0.058 A 
ATOM      4  C22 GS7 A   1      20.605   8.471  32.283  0.00  0.00     0.160 A 
ATOM      5  N5  GS7 A   1      19.479   8.819  32.971  0.00  0.00    -0.349 N 
ATOM      6  H5  GS7 A   1      18.691   8.209  33.142  0.00  0.00     0.166 HD
ATOM      7  C21 GS7 A   1      19.574  10.114  33.394  0.00  0.00     0.091 A 
ATOM      8  C20 GS7 A   1      20.787  10.605  32.963  0.00  0.00     0.036 A 
ATOM      9  N6  GS7 A   1      20.843   7.284  31.737  0.00  0.00    -0.044 NA
ATOM     10  C10 GS7 A   1      22.028   7.228  31.124  0.00  0.00     0.731 A 
ENDROOT
BRANCH  10  11
ATOM     11  N1  GS7 A   1      22.329   5.990  30.523  0.00  0.00    -0.185 N 
ATOM     12  H1  GS7 A   1      21.758   5.695  29.744  0.00  0.00     0.184 HD
BRANCH  11  13
ATOM     13  C9  GS7 A   1      23.372   5.135  30.932  0.00  0.00     0.082 A 
ATOM     14  C2  GS7 A   1      24.525   5.070  30.179  0.00  0.00     0.096 A 
ATOM     15  C3  GS7 A   1      25.575   4.248  30.552  0.00  0.00     0.047 A 
ATOM     16  C4  GS7 A   1      25.472   3.483  31.695  0.00  0.00    -0.042 A 
ATOM     17  C7  GS7 A   1      24.318   3.546  32.447  0.00  0.00     0.010 A 
ATOM     18  C8  GS7 A   1      23.279   4.370  32.075  0.00  0.00     0.033 A 
BRANCH  14  19
ATOM     19  O1  GS7 A   1      24.549   5.870  29.045  0.00  0.00    -0.354 OA
ATOM     20  C1  GS7 A   1      25.672   6.739  29.090  0.00  0.00     0.210 C 
ENDBRANCH  14  19
BRANCH  16  21
ATOM     21  C5  GS7 A   1      26.580   2.575  32.122  0.00  0.00     0.178 C 
BRANCH  21  22
ATOM     22  S   GS7 A   1      26.309   0.971  31.401  0.00  0.00     0.144 S 
ATOM     23  O2  GS7 A   1      26.323   1.095  29.955  0.00  0.00    -0.228 OA
ATOM     24  O3  GS7 A   1      25.171   0.381  32.080  0.00  0.00    -0.228 OA
ATOM     25  C6  GS7 A   1      27.761   0.090  31.891  0.00  0.00     0.161 C 
ENDBRANCH  21  22
ENDBRANCH  16  21
ENDBRANCH  11  13
ENDBRANCH  10  11
BRANCH   1  26
ATOM     26  N3  GS7 A   1      23.476  10.558  31.592  0.00  0.00    -0.339 N 
ATOM     27  H3  GS7 A   1      23.575  11.045  32.471  0.00  0.00     0.167 HD
BRANCH  26  28
ATOM     28  C12 GS7 A   1      24.185  11.096  30.512  0.00  0.00     0.052 A 
ATOM     29  C17 GS7 A   1      23.754  12.293  29.972  0.00  0.00     0.097 A 
ATOM     30  C16 GS7 A   1      24.416  12.866  28.908  0.00  0.00     0.134 A 
ATOM     31  F   GS7 A   1      24.000  14.028  28.384  0.00  0.00    -0.205 F 
ATOM     32  C15 GS7 A   1      25.520  12.245  28.370  0.00  0.00     0.043 A 
ATOM     33  C14 GS7 A   1      25.956  11.053  28.900  0.00  0.00     0.005 A 
ATOM     34  C13 GS7 A   1      25.292  10.484  29.965  0.00  0.00     0.030 A 
BRANCH  29  35
ATOM     35  C18 GS7 A   1      22.570  12.957  30.550  0.00  0.00     0.254 C 
ATOM     36  O4  GS7 A   1      22.623  13.468  31.662  0.00  0.00    -0.268 OA
ATOM     37  N4  GS7 A   1      21.461  12.939  29.745  0.00  0.00    -0.366 N 
ATOM     38  H41 GS7 A   1      20.603  13.370  30.057  0.00  0.00     0.159 HD
ATOM     39  H42 GS7 A   1      21.503  12.494  28.839  0.00  0.00     0.159 HD
ENDBRANCH  29  35
ENDBRANCH  26  28
ENDBRANCH   1  26
TORSDOF 8
ENDMDL
MODEL 8
REMARK VINA RESULT:    -8.171      4.747      7.732
REMARK INTER + INTRA:         -13.673
REMARK INTER:                 -12.572
REMARK INTRA:                  -1.102
REMARK UNBOUND:                -1.681
REMARK  8 active torsions:
REMARK  status: ('A' for Active; 'I' for Inactive)
REMARK    1  A    between atoms: C11_1  and  N3_38 
REMARK    2  A    between atoms: C10_10  and  N1_11 
REMARK    3  A    between atoms: N1_11  and  C9_13 
REMARK    4  A    between atoms: C2_14  and  O1_15 
REMARK    5  A    between atoms: C4_19  and  C5_21 
REMARK    6  A    between atoms: C5_21  and  S_22 
REMARK       I    between atoms: C18_27  and  N4_28 
REMARK    7  A    between atoms: C18_27  and  C17_31 
REMARK    8  A    between atoms: C12_37  and  N3_38 
ROOT
ATOM      1  C11 GS7 A   1      22.565  10.746  31.431  0.00  0.00     0.161 A 
ATOM      2  N2  GS7 A   1      23.357  10.687  30.345  0.00  0.00    -0.044 NA
ATOM      3  C19 GS7 A   1      21.854  11.913  31.614  0.00  0.00     0.058 A 
ATOM      4  C22 GS7 A   1      22.008  12.910  30.685  0.00  0.00     0.160 A 
ATOM      5  N5  GS7 A   1      21.223  13.962  31.062  0.00  0.00    -0.349 N 
ATOM      6  H5  GS7 A   1      21.143  14.835  30.560  0.00  0.00     0.166 HD
ATOM      7  C21 GS7 A   1      20.562  13.657  32.217  0.00  0.00     0.091 A 
ATOM      8  C20 GS7 A   1      20.935  12.384  32.588  0.00  0.00     0.036 A 
ATOM      9  N6  GS7 A   1      22.782  12.869  29.607  0.00  0.00    -0.044 NA
ATOM     10  C10 GS7 A   1      23.440  11.713  29.490  0.00  0.00     0.731 A 
ENDROOT
BRANCH  10  11
ATOM     11  N1  GS7 A   1      24.280  11.618  28.363  0.00  0.00    -0.185 N 
ATOM     12  H1  GS7 A   1      24.242  10.768  27.819  0.00  0.00     0.184 HD
BRANCH  11  13
ATOM     13  C9  GS7 A   1      25.170  12.627  27.942  0.00  0.00     0.082 A 
ATOM     14  C2  GS7 A   1      26.430  12.274  27.506  0.00  0.00     0.096 A 
ATOM     15  C3  GS7 A   1      27.331  13.234  27.077  0.00  0.00     0.047 A 
ATOM     16  C4  GS7 A   1      26.967  14.565  27.081  0.00  0.00    -0.042 A 
ATOM     17  C7  GS7 A   1      25.708  14.917  27.521  0.00  0.00     0.010 A 
ATOM     18  C8  GS7 A   1      24.813  13.958  27.940  0.00  0.00     0.033 A 
BRANCH  14  19
ATOM     19  O1  GS7 A   1      26.718  10.917  27.532  0.00  0.00    -0.354 OA
ATOM     20  C1  GS7 A   1      27.811  10.672  28.407  0.00  0.00     0.210 C 
ENDBRANCH  14  19
BRANCH  16  21
ATOM     21  C5  GS7 A   1      27.917  15.629  26.638  0.00  0.00     0.178 C 
BRANCH  21  22
ATOM     22  S   GS7 A   1      27.418  16.201  25.028  0.00  0.00     0.144 S 
ATOM     23  O2  GS7 A   1      26.558  17.359  25.184  0.00  0.00    -0.228 OA
ATOM     24  O3  GS7 A   1      26.966  15.042  24.281  0.00  0.00    -0.228 OA
ATOM     25  C6  GS7 A   1      28.949  16.744  24.332  0.00  0.00     0.161 C 
ENDBRANCH  21  22
ENDBRANCH  16  21
ENDBRANCH  11  13
ENDBRANCH  10  11
BRANCH   1  26
ATOM     26  N3  GS7 A   1      22.392   9.747  32.396  0.00  0.00    -0.339 N 
ATOM     27  H3  GS7 A   1      23.021   9.781  33.185  0.00  0.00     0.167 HD
BRANCH  26  28
ATOM     28  C12 GS7 A   1      21.456   8.707  32.403  0.00  0.00     0.052 A 
ATOM     29  C17 GS7 A   1      21.750   7.553  31.702  0.00  0.00     0.097 A 
ATOM     30  C16 GS7 A   1      20.864   6.498  31.678  0.00  0.00     0.134 A 
ATOM     31  F   GS7 A   1      21.148   5.376  30.999  0.00  0.00    -0.205 F 
ATOM     32  C15 GS7 A   1      19.669   6.587  32.354  0.00  0.00     0.043 A 
ATOM     33  C14 GS7 A   1      19.367   7.733  33.053  0.00  0.00     0.005 A 
ATOM     34  C13 GS7 A   1      20.257   8.784  33.078  0.00  0.00     0.030 A 
BRANCH  29  35
ATOM     35  C18 GS7 A   1      23.031   7.459  30.977  0.00  0.00     0.254 C 
ATOM     36  O4  GS7 A   1      24.077   7.258  31.583  0.00  0.00    -0.268 OA
ATOM     37  N4  GS7 A   1      22.926   7.614  29.620  0.00  0.00    -0.366 N 
ATOM     38  H41 GS7 A   1      23.752   7.565  29.040  0.00  0.00     0.159 HD
ATOM     39  H42 GS7 A   1      22.023   7.778  29.199  0.00  0.00     0.159 HD
ENDBRANCH  29  35
ENDBRANCH  26  28
ENDBRANCH   1  26
TORSDOF 8
ENDMDL
MODEL 9
REMARK VINA RESULT:    -7.956      4.380      7.397
REMARK INTER + INTRA:         -13.358
REMARK INTER:                 -11.677
REMARK INTRA:                  -1.681
REMARK UNBOUND:                -1.681
REMARK  8 active torsions:
REMARK  status: ('A' for Active; 'I' for Inactive)
REMARK    1  A    between atoms: C11_1  and  N3_38 
REMARK    2  A    between atoms: C10_10  and  N1_11 
REMARK    3  A    between atoms: N1_11  and  C9_13 
REMARK    4  A    between atoms: C2_14  and  O1_15 
REMARK    5  A    between atoms: C4_19  and  C5_21 
REMARK    6  A    between atoms: C5_21  and  S_22 
REMARK       I    between atoms: C18_27  and  N4_28 
REMARK    7  A    between atoms: C18_27  and  C17_31 
REMARK    8  A    between atoms: C12_37  and  N3_38 
ROOT
ATOM      1  C11 GS7 A   1      23.272  11.876  31.000  0.00  0.00     0.161 A 
ATOM      2  N2  GS7 A   1      24.036  11.611  29.926  0.00  0.00    -0.044 NA
ATOM      3  C19 GS7 A   1      22.676  13.119  31.043  0.00  0.00     0.058 A 
ATOM      4  C22 GS7 A   1      22.906  13.976  29.998  0.00  0.00     0.160 A 
ATOM      5  N5  GS7 A   1      22.228  15.135  30.247  0.00  0.00    -0.349 N 
ATOM      6  H5  GS7 A   1      22.221  15.945  29.643  0.00  0.00     0.166 HD
ATOM      7  C21 GS7 A   1      21.562  15.038  31.435  0.00  0.00     0.091 A 
ATOM      8  C20 GS7 A   1      21.822  13.789  31.957  0.00  0.00     0.036 A 
ATOM      9  N6  GS7 A   1      23.654  13.732  28.928  0.00  0.00    -0.044 NA
ATOM     10  C10 GS7 A   1      24.199  12.514  28.950  0.00  0.00     0.731 A 
ENDROOT
BRANCH  10  11
ATOM     11  N1  GS7 A   1      25.007  12.203  27.838  0.00  0.00    -0.185 N 
ATOM     12  H1  GS7 A   1      24.568  12.182  26.929  0.00  0.00     0.184 HD
BRANCH  11  13
ATOM     13  C9  GS7 A   1      26.386  11.921  27.907  0.00  0.00     0.082 A 
ATOM     14  C2  GS7 A   1      27.281  12.778  27.303  0.00  0.00     0.096 A 
ATOM     15  C3  GS7 A   1      28.644  12.541  27.354  0.00  0.00     0.047 A 
ATOM     16  C4  GS7 A   1      29.119  11.430  28.021  0.00  0.00    -0.042 A 
ATOM     17  C7  GS7 A   1      28.224  10.570  28.622  0.00  0.00     0.010 A 
ATOM     18  C8  GS7 A   1      26.871  10.815  28.574  0.00  0.00     0.033 A 
BRANCH  14  19
ATOM     19  O1  GS7 A   1      26.722  13.871  26.653  0.00  0.00    -0.354 OA
ATOM     20  C1  GS7 A   1      27.436  15.052  26.993  0.00  0.00     0.210 C 
ENDBRANCH  14  19
BRANCH  16  21
ATOM     21  C5  GS7 A   1      30.583  11.134  28.086  0.00  0.00     0.178 C 
BRANCH  21  22
ATOM     22  S   GS7 A   1      31.123  11.309  29.772  0.00  0.00     0.144 S 
ATOM     23  O2  GS7 A   1      31.121  10.004  30.407  0.00  0.00    -0.228 OA
ATOM     24  O3  GS7 A   1      30.378  12.412  30.351  0.00  0.00    -0.228 OA
ATOM     25  C6  GS7 A   1      32.803  11.822  29.576  0.00  0.00     0.161 C 
ENDBRANCH  21  22
ENDBRANCH  16  21
ENDBRANCH  11  13
ENDBRANCH  10  11
BRANCH   1  26
ATOM     26  N3  GS7 A   1      23.023  11.023  32.081  0.00  0.00    -0.339 N 
ATOM     27  H3  GS7 A   1      23.672  11.086  32.852  0.00  0.00     0.167 HD
BRANCH  26  28
ATOM     28  C12 GS7 A   1      21.988  10.093  32.227  0.00  0.00     0.052 A 
ATOM     29  C17 GS7 A   1      22.173   8.819  31.724  0.00  0.00     0.097 A 
ATOM     30  C16 GS7 A   1      21.186   7.864  31.841  0.00  0.00     0.134 A 
ATOM     31  F   GS7 A   1      21.364   6.627  31.355  0.00  0.00    -0.205 F 
ATOM     32  C15 GS7 A   1      19.998   8.175  32.462  0.00  0.00     0.043 A 
ATOM     33  C14 GS7 A   1      19.805   9.442  32.965  0.00  0.00     0.005 A 
ATOM     34  C13 GS7 A   1      20.795  10.392  32.848  0.00  0.00     0.030 A 
BRANCH  29  35
ATOM     35  C18 GS7 A   1      23.446   8.487  31.058  0.00  0.00     0.254 C 
ATOM     36  O4  GS7 A   1      24.462   8.295  31.714  0.00  0.00    -0.268 OA
ATOM     37  N4  GS7 A   1      23.370   8.421  29.691  0.00  0.00    -0.366 N 
ATOM     38  H41 GS7 A   1      24.193   8.200  29.149  0.00  0.00     0.159 HD
ATOM     39  H42 GS7 A   1      22.490   8.595  29.226  0.00  0.00     0.159 HD
ENDBRANCH  29  35
ENDBRANCH  26  28
ENDBRANCH   1  26
TORSDOF 8
ENDMDL
MODEL 10
REMARK VINA RESULT:    -7.870      2.308      3.481
REMARK INTER + INTRA:         -13.231
REMARK INTER:                 -11.628
REMARK INTRA:                  -1.604
REMARK UNBOUND:                -1.681
REMARK  8 active torsions:
REMARK  status: ('A' for Active; 'I' for Inactive)
REMARK    1  A    between atoms: C11_1  and  N3_38 
REMARK    2  A    between atoms: C10_10  and  N1_11 
REMARK    3  A    between atoms: N1_11  and  C9_13 
REMARK    4  A    between atoms: C2_14  and  O1_15 
REMARK    5  A    between atoms: C4_19  and  C5_21 
REMARK    6  A    between atoms: C5_21  and  S_22 
REMARK       I    between atoms: C18_27  and  N4_28 
REMARK    7  A    between atoms: C18_27  and  C17_31 
REMARK    8  A    between atoms: C12_37  and  N3_38 
ROOT
ATOM      1  C11 GS7 A   1      22.398   8.729  31.871  0.00  0.00     0.161 A 
ATOM      2  N2  GS7 A   1      23.227   8.137  30.993  0.00  0.00    -0.044 NA
ATOM      3  C19 GS7 A   1      21.277   8.015  32.240  0.00  0.00     0.058 A 
ATOM      4  C22 GS7 A   1      21.098   6.772  31.688  0.00  0.00     0.160 A 
ATOM      5  N5  GS7 A   1      19.937   6.254  32.185  0.00  0.00    -0.349 N 
ATOM      6  H5  GS7 A   1      19.557   5.349  31.947  0.00  0.00     0.166 HD
ATOM      7  C21 GS7 A   1      19.366   7.141  33.052  0.00  0.00     0.091 A 
ATOM      8  C20 GS7 A   1      20.179   8.252  33.107  0.00  0.00     0.036 A 
ATOM      9  N6  GS7 A   1      21.906   6.171  30.822  0.00  0.00    -0.044 NA
ATOM     10  C10 GS7 A   1      22.970   6.915  30.510  0.00  0.00     0.731 A 
ENDROOT
BRANCH  10  11
ATOM     11  N1  GS7 A   1      23.859   6.325  29.590  0.00  0.00    -0.185 N 
ATOM     12  H1  GS7 A   1      23.686   6.477  28.607  0.00  0.00     0.184 HD
BRANCH  11  13
ATOM     13  C9  GS7 A   1      24.973   5.538  29.946  0.00  0.00     0.082 A 
ATOM     14  C2  GS7 A   1      26.180   5.754  29.316  0.00  0.00     0.096 A 
ATOM     15  C3  GS7 A   1      27.299   5.008  29.643  0.00  0.00     0.047 A 
ATOM     16  C4  GS7 A   1      27.211   4.033  30.616  0.00  0.00    -0.042 A 
ATOM     17  C7  GS7 A   1      26.002   3.814  31.243  0.00  0.00     0.010 A 
ATOM     18  C8  GS7 A   1      24.894   4.564  30.919  0.00  0.00     0.033 A 
BRANCH  14  19
ATOM     19  O1  GS7 A   1      26.185   6.752  28.351  0.00  0.00    -0.354 OA
ATOM     20  C1  GS7 A   1      27.467   7.361  28.292  0.00  0.00     0.210 C 
ENDBRANCH  14  19
BRANCH  16  21
ATOM     21  C5  GS7 A   1      28.394   3.199  30.986  0.00  0.00     0.178 C 
BRANCH  21  22
ATOM     22  S   GS7 A   1      28.717   2.053  29.664  0.00  0.00     0.144 S 
ATOM     23  O2  GS7 A   1      29.758   2.597  28.811  0.00  0.00    -0.228 OA
ATOM     24  O3  GS7 A   1      27.435   1.665  29.107  0.00  0.00    -0.228 OA
ATOM     25  C6  GS7 A   1      29.386   0.664  30.528  0.00  0.00     0.161 C 
ENDBRANCH  21  22
ENDBRANCH  16  21
ENDBRANCH  11  13
ENDBRANCH  10  11
BRANCH   1  26
ATOM     26  N3  GS7 A   1      22.553   9.995  32.446  0.00  0.00    -0.339 N 
ATOM     27  H3  GS7 A   1      23.181  10.048  33.235  0.00  0.00     0.167 HD
BRANCH  26  28
ATOM     28  C12 GS7 A   1      21.946  11.196  32.064  0.00  0.00     0.052 A 
ATOM     29  C17 GS7 A   1      22.552  11.956  31.081  0.00  0.00     0.097 A 
ATOM     30  C16 GS7 A   1      21.996  13.146  30.666  0.00  0.00     0.134 A 
ATOM     31  F   GS7 A   1      22.582  13.885  29.711  0.00  0.00    -0.205 F 
ATOM     32  C15 GS7 A   1      20.825  13.593  31.234  0.00  0.00     0.043 A 
ATOM     33  C14 GS7 A   1      20.215  12.844  32.214  0.00  0.00     0.005 A 
ATOM     34  C13 GS7 A   1      20.773  11.653  32.624  0.00  0.00     0.030 A 
BRANCH  29  35
ATOM     35  C18 GS7 A   1      23.808  11.476  30.474  0.00  0.00     0.254 C 
ATOM     36  O4  GS7 A   1      24.873  11.599  31.065  0.00  0.00    -0.268 OA
ATOM     37  N4  GS7 A   1      23.657  10.905  29.237  0.00  0.00    -0.366 N 
ATOM     38  H41 GS7 A   1      24.463  10.547  28.744  0.00  0.00     0.159 HD
ATOM     39  H42 GS7 A   1      22.739  10.843  28.818  0.00  0.00     0.159 HD
ENDBRANCH  29  35
ENDBRANCH  26  28
ENDBRANCH   1  26
TORSDOF 8
ENDMDL
