# created with PyMOL 2.5.2
@<TRIPOS>MOLECULE
out/docking_results/vina_output/3npc_docked_ligand.pdbqt
41 45 1                 
SMALL
USER_CHARGES
@<TRIPOS>ATOM
1	   C	55.061	93.230	23.110	C.2	1	UNK0	0.000	
2	   O	53.936	93.659	22.902	O.2	1	UNK0	0.000	
3	   N	55.827	93.731	24.121	N.pl3	1	UNK0	0.000	
4	   H	56.769	93.380	24.224	 H	1	UNK0	0.000	
5	   N	55.595	92.253	22.342	N.pl3	1	UNK0	0.000	
6	   H	56.545	91.973	22.537	 H	1	UNK0	0.000	
7	   C	55.381	94.708	25.027	C.2	1	UNK0	0.000	
8	   C	56.121	95.890	25.306	C.2	1	UNK0	0.000	
9	   C	55.593	96.822	26.255	C.2	1	UNK0	0.000	
10	   C	57.353	96.175	24.671	C.2	1	UNK0	0.000	
11	   C	54.347	96.549	26.905	C.2	1	UNK0	0.000	
12	   C	56.331	98.005	26.527	C.2	1	UNK0	0.000	
13	   C	53.667	95.401	26.606	C.2	1	UNK0	0.000	
14	   C	54.181	94.482	25.691	C.2	1	UNK0	0.000	
15	   C	57.519	98.246	25.895	C.2	1	UNK0	0.000	
16	   C	58.026	97.327	24.962	C.2	1	UNK0	0.000	
17	   O	53.863	97.453	27.814	O.3	1	UNK0	0.000	
18	   C	52.459	97.352	28.065	C.3	1	UNK0	0.000	
19	   C	52.058	98.530	28.966	C.3	1	UNK0	0.000	
20	   N	51.062	99.405	28.297	N.3	1	UNK0	0.000	
21	   C	51.590	99.888	27.000	C.3	1	UNK0	0.000	
22	   C	50.515	100.749	26.340	C.3	1	UNK0	0.000	
23	   O	50.294	101.893	27.169	O.3	1	UNK0	0.000	
24	   C	49.812	101.487	28.452	C.3	1	UNK0	0.000	
25	   C	50.852	100.598	29.137	C.3	1	UNK0	0.000	
26	   C	54.932	91.603	21.299	C.2	1	UNK0	0.000	
27	   N	54.958	90.256	21.104	N.pl3	1	UNK0	0.000	
28	   N	54.202	89.954	19.986	N.2	1	UNK0	0.000	
29	   C	53.712	91.063	19.506	C.2	1	UNK0	0.000	
30	   C	54.147	92.128	20.310	C.2	1	UNK0	0.000	
31	   C	55.639	89.296	21.857	C.2	1	UNK0	0.000	
32	   C	56.268	88.259	21.176	C.2	1	UNK0	0.000	
33	   C	56.940	87.296	21.903	C.2	1	UNK0	0.000	
34	   C	56.988	87.376	23.290	C.2	1	UNK0	0.000	
35	   C	56.357	88.407	23.962	C.2	1	UNK0	0.000	
36	   C	57.730	86.326	24.066	C.3	1	UNK0	0.000	
37	   C	55.675	89.369	23.249	C.2	1	UNK0	0.000	
38	   C	52.833	91.144	18.283	C.3	1	UNK0	0.000	
39	   C	53.639	91.842	17.188	C.3	1	UNK0	0.000	
40	   C	52.439	89.748	17.784	C.3	1	UNK0	0.000	
41	   C	51.551	91.913	18.610	C.3	1	UNK0	0.000	
@<TRIPOS>BOND
1 1 3 1
2 1 2 2
3 3 4 1
4 3 7 1
5 5 6 1
6 1 5 1
7 7 8 2
8 7 14 1
9 8 9 1
10 9 12 1
11 9 11 2
12 10 16 2
13 8 10 1
14 11 17 1
15 11 13 1
16 13 14 2
17 12 15 2
18 15 16 1
19 17 18 1
20 18 19 1
21 19 20 1
22 20 25 1
23 20 21 1
24 21 22 1
25 22 23 1
26 23 24 1
27 24 25 1
28 5 26 1
29 26 27 1
30 27 31 1
31 27 28 1
32 28 29 2
33 29 30 1
34 26 30 2
35 31 37 1
36 31 32 2
37 32 33 1
38 33 34 2
39 34 35 1
40 34 36 1
41 35 37 2
42 38 41 1
43 29 38 1
44 38 39 1
45 38 40 1
@<TRIPOS>SUBSTRUCTURE
1	UNK0	1	GROUP	1 ****	UNK
