MODEL 1
REMARK VINA RESULT:   -13.030      0.000      0.000
REMARK INTER + INTRA:         -21.180
REMARK INTER:                 -20.874
REMARK INTRA:                  -0.306
REMARK UNBOUND:                -2.056
REMARK  8 active torsions:
REMARK  status: ('A' for Active; 'I' for Inactive)
REMARK       I    between atoms: C1_1  and  N2_3 
REMARK       I    between atoms: C1_1  and  N9_11 
REMARK    1  A    between atoms: N2_3  and  C3_5 
REMARK    2  A    between atoms: C6_8  and  O41_33 
REMARK    3  A    between atoms: N9_11  and  C10_13 
REMARK    4  A    between atoms: N11_14  and  C15_18 
REMARK    5  A    between atoms: C13_16  and  C16_19 
REMARK    6  A    between atoms: O41_33  and  C42_34 
REMARK    7  A    between atoms: C42_34  and  C43_35 
REMARK    8  A    between atoms: C43_35  and  N44_36 
ROOT
ATOM      1  C1    B B   1      55.061  93.230  23.110  0.00  0.00     0.326 C 
ATOM      2  O1    B B   1      53.936  93.659  22.902  0.00  0.00    -0.247 OA
ATOM      3  N2    B B   1      55.827  93.731  24.121  0.00  0.00    -0.308 N 
ATOM      4  H2    B B   1      56.769  93.380  24.224  0.00  0.00     0.170 HD
ATOM      5  N9    B B   1      55.595  92.253  22.342  0.00  0.00    -0.293 N 
ATOM      6  H9    B B   1      56.545  91.973  22.537  0.00  0.00     0.172 HD
ENDROOT
BRANCH   3   7
ATOM      7  C3    B B   1      55.381  94.708  25.027  0.00  0.00     0.047 A 
ATOM      8  C4    B B   1      56.121  95.890  25.306  0.00  0.00     0.004 A 
ATOM      9  C5    B B   1      55.593  96.822  26.255  0.00  0.00     0.010 A 
ATOM     10  C31   B B   1      57.353  96.175  24.671  0.00  0.00     0.014 A 
ATOM     11  C6    B B   1      54.347  96.549  26.905  0.00  0.00     0.080 A 
ATOM     12  C34   B B   1      56.331  98.005  26.527  0.00  0.00     0.015 A 
ATOM     13  C7    B B   1      53.667  95.401  26.606  0.00  0.00     0.040 A 
ATOM     14  C8    B B   1      54.181  94.482  25.691  0.00  0.00     0.033 A 
ATOM     15  C33   B B   1      57.519  98.246  25.895  0.00  0.00     0.001 A 
ATOM     16  C32   B B   1      58.026  97.327  24.962  0.00  0.00     0.001 A 
BRANCH  11  17
ATOM     17  O41   B B   1      53.863  97.453  27.814  0.00  0.00    -0.349 OA
BRANCH  17  18
ATOM     18  C42   B B   1      52.459  97.352  28.065  0.00  0.00     0.206 C 
BRANCH  18  19
ATOM     19  C43   B B   1      52.058  98.530  28.966  0.00  0.00     0.299 C 
BRANCH  19  20
ATOM     20  N44   B B   1      51.062  99.405  28.297  0.00  0.00     0.094 N 
ATOM     21  C45   B B   1      51.590  99.888  27.000  0.00  0.00     0.298 C 
ATOM     22  C46   B B   1      50.515 100.749  26.340  0.00  0.00     0.198 C 
ATOM     23  O47   B B   1      50.294 101.893  27.169  0.00  0.00    -0.388 OA
ATOM     24  C48   B B   1      49.812 101.487  28.452  0.00  0.00     0.198 C 
ATOM     25  C49   B B   1      50.852 100.598  29.137  0.00  0.00     0.298 C 
ENDBRANCH  19  20
ENDBRANCH  18  19
ENDBRANCH  17  18
ENDBRANCH  11  17
ENDBRANCH   3   7
BRANCH   5  26
ATOM     26  C10   B B   1      54.932  91.603  21.299  0.00  0.00     0.131 A 
ATOM     27  N11   B B   1      54.958  90.256  21.104  0.00  0.00    -0.222 N 
ATOM     28  N12   B B   1      54.202  89.954  19.986  0.00  0.00    -0.198 NA
ATOM     29  C13   B B   1      53.712  91.063  19.506  0.00  0.00     0.163 A 
ATOM     30  C14   B B   1      54.147  92.128  20.310  0.00  0.00     0.053 A 
BRANCH  27  31
ATOM     31  C15   B B   1      55.639  89.296  21.857  0.00  0.00     0.060 A 
ATOM     32  C20   B B   1      56.268  88.259  21.176  0.00  0.00     0.032 A 
ATOM     33  C21   B B   1      56.940  87.296  21.903  0.00  0.00     0.009 A 
ATOM     34  C22   B B   1      56.988  87.376  23.290  0.00  0.00    -0.062 A 
ATOM     35  C23   B B   1      56.357  88.407  23.962  0.00  0.00     0.009 A 
ATOM     36  C25   B B   1      57.730  86.326  24.066  0.00  0.00     0.048 C 
ATOM     37  C24   B B   1      55.675  89.369  23.249  0.00  0.00     0.032 A 
ENDBRANCH  27  31
BRANCH  29  38
ATOM     38  C16   B B   1      52.833  91.144  18.283  0.00  0.00    -0.024 C 
ATOM     39  C17   B B   1      53.639  91.842  17.188  0.00  0.00     0.017 C 
ATOM     40  C18   B B   1      52.439  89.748  17.784  0.00  0.00     0.017 C 
ATOM     41  C19   B B   1      51.551  91.913  18.610  0.00  0.00     0.017 C 
ENDBRANCH  29  38
ENDBRANCH   5  26
TORSDOF 8
ENDMDL
MODEL 2
REMARK VINA RESULT:   -10.462      1.428      4.123
REMARK INTER + INTRA:         -17.411
REMARK INTER:                 -16.700
REMARK INTRA:                  -0.712
REMARK UNBOUND:                -2.056
REMARK  8 active torsions:
REMARK  status: ('A' for Active; 'I' for Inactive)
REMARK       I    between atoms: C1_1  and  N2_3 
REMARK       I    between atoms: C1_1  and  N9_11 
REMARK    1  A    between atoms: N2_3  and  C3_5 
REMARK    2  A    between atoms: C6_8  and  O41_33 
REMARK    3  A    between atoms: N9_11  and  C10_13 
REMARK    4  A    between atoms: N11_14  and  C15_18 
REMARK    5  A    between atoms: C13_16  and  C16_19 
REMARK    6  A    between atoms: O41_33  and  C42_34 
REMARK    7  A    between atoms: C42_34  and  C43_35 
REMARK    8  A    between atoms: C43_35  and  N44_36 
ROOT
ATOM      1  C1    B B   1      55.123  92.218  23.858  0.00  0.00     0.326 C 
ATOM      2  O1    B B   1      55.572  91.892  24.946  0.00  0.00    -0.247 OA
ATOM      3  N2    B B   1      54.597  93.460  23.659  0.00  0.00    -0.308 N 
ATOM      4  H2    B B   1      54.193  93.668  22.757  0.00  0.00     0.170 HD
ATOM      5  N9    B B   1      55.119  91.359  22.813  0.00  0.00    -0.293 N 
ATOM      6  H9    B B   1      54.694  91.673  21.953  0.00  0.00     0.172 HD
ENDROOT
BRANCH   3   7
ATOM      7  C3    B B   1      54.584  94.468  24.639  0.00  0.00     0.047 A 
ATOM      8  C4    B B   1      55.696  95.324  24.872  0.00  0.00     0.004 A 
ATOM      9  C5    B B   1      55.595  96.313  25.901  0.00  0.00     0.010 A 
ATOM     10  C31   B B   1      56.888  95.234  24.116  0.00  0.00     0.014 A 
ATOM     11  C6    B B   1      54.394  96.419  26.674  0.00  0.00     0.080 A 
ATOM     12  C34   B B   1      56.703  97.172  26.129  0.00  0.00     0.015 A 
ATOM     13  C7    B B   1      53.348  95.576  26.415  0.00  0.00     0.040 A 
ATOM     14  C8    B B   1      53.443  94.601  25.421  0.00  0.00     0.033 A 
ATOM     15  C33   B B   1      57.841  97.054  25.379  0.00  0.00     0.001 A 
ATOM     16  C32   B B   1      57.928  96.083  24.368  0.00  0.00     0.001 A 
BRANCH  11  17
ATOM     17  O41   B B   1      54.322  97.369  27.658  0.00  0.00    -0.349 OA
BRANCH  17  18
ATOM     18  C42   B B   1      53.068  97.423  28.343  0.00  0.00     0.206 C 
BRANCH  18  19
ATOM     19  C43   B B   1      52.801  98.889  28.717  0.00  0.00     0.299 C 
BRANCH  19  20
ATOM     20  N44   B B   1      51.603  99.415  28.014  0.00  0.00     0.094 N 
ATOM     21  C45   B B   1      52.002 100.111  26.770  0.00  0.00     0.298 C 
ATOM     22  C46   B B   1      50.734 100.597  26.069  0.00  0.00     0.198 C 
ATOM     23  O47   B B   1      50.101 101.558  26.918  0.00  0.00    -0.388 OA
ATOM     24  C48   B B   1      49.720 100.949  28.153  0.00  0.00     0.198 C 
ATOM     25  C49   B B   1      50.962 100.425  28.876  0.00  0.00     0.298 C 
ENDBRANCH  19  20
ENDBRANCH  18  19
ENDBRANCH  17  18
ENDBRANCH  11  17
ENDBRANCH   3   7
BRANCH   5  26
ATOM     26  C10   B B   1      55.658  90.070  22.834  0.00  0.00     0.131 A 
ATOM     27  N11   B B   1      55.740  89.263  21.741  0.00  0.00    -0.222 N 
ATOM     28  N12   B B   1      56.319  88.065  22.116  0.00  0.00    -0.198 NA
ATOM     29  C13   B B   1      56.601  88.122  23.389  0.00  0.00     0.163 A 
ATOM     30  C14   B B   1      56.201  89.375  23.879  0.00  0.00     0.053 A 
BRANCH  27  31
ATOM     31  C15   B B   1      55.302  89.535  20.442  0.00  0.00     0.060 A 
ATOM     32  C20   B B   1      54.187  88.850  19.972  0.00  0.00     0.032 A 
ATOM     33  C21   B B   1      53.744  89.099  18.689  0.00  0.00     0.009 A 
ATOM     34  C22   B B   1      54.404  90.027  17.891  0.00  0.00    -0.062 A 
ATOM     35  C23   B B   1      55.515  90.703  18.362  0.00  0.00     0.009 A 
ATOM     36  C25   B B   1      53.905  90.293  16.500  0.00  0.00     0.048 C 
ATOM     37  C24   B B   1      55.973  90.456  19.637  0.00  0.00     0.032 A 
ENDBRANCH  27  31
BRANCH  29  38
ATOM     38  C16   B B   1      57.243  87.002  24.167  0.00  0.00    -0.024 C 
ATOM     39  C17   B B   1      57.961  86.102  23.162  0.00  0.00     0.017 C 
ATOM     40  C18   B B   1      58.277  87.536  25.167  0.00  0.00     0.017 C 
ATOM     41  C19   B B   1      56.179  86.229  24.949  0.00  0.00     0.017 C 
ENDBRANCH  29  38
ENDBRANCH   5  26
TORSDOF 8
ENDMDL
