out/docking_results/vina_output/3npc_docked_ligand.pdbqt
 OpenBabel03072216153D

 41 45  0  0  0  0  0  0  0  0999 V2000
   55.0610   93.2300   23.1100 C   0  0  0  0  0  0  0  0  0  0  0  0
   53.9360   93.6590   22.9020 O   0  0  0  0  0  0  0  0  0  0  0  0
   55.8270   93.7310   24.1210 N   0  0  0  0  0  0  0  0  0  0  0  0
   56.7690   93.3800   24.2240 H   0  0  0  0  0  0  0  0  0  0  0  0
   55.5950   92.2530   22.3420 N   0  0  0  0  0  0  0  0  0  0  0  0
   56.5450   91.9730   22.5370 H   0  0  0  0  0  0  0  0  0  0  0  0
   55.3810   94.7080   25.0270 C   0  0  0  0  0  0  0  0  0  0  0  0
   56.1210   95.8900   25.3060 C   0  0  0  0  0  0  0  0  0  0  0  0
   55.5930   96.8220   26.2550 C   0  0  0  0  0  0  0  0  0  0  0  0
   57.3530   96.1750   24.6710 C   0  0  0  0  0  3  0  0  0  0  0  0
   54.3470   96.5490   26.9050 C   0  0  0  0  0  0  0  0  0  0  0  0
   56.3310   98.0050   26.5270 C   0  0  0  0  0  3  0  0  0  0  0  0
   53.6670   95.4010   26.6060 C   0  0  0  0  0  3  0  0  0  0  0  0
   54.1810   94.4820   25.6910 C   0  0  0  0  0  3  0  0  0  0  0  0
   57.5190   98.2460   25.8950 C   0  0  0  0  0  3  0  0  0  0  0  0
   58.0260   97.3270   24.9620 C   0  0  0  0  0  3  0  0  0  0  0  0
   53.8630   97.4530   27.8140 O   0  0  0  0  0  0  0  0  0  0  0  0
   52.4590   97.3520   28.0650 C   0  0  0  0  0  2  0  0  0  0  0  0
   52.0580   98.5300   28.9660 C   0  0  0  0  0  2  0  0  0  0  0  0
   51.0620   99.4050   28.2970 N   0  0  0  0  0  0  0  0  0  0  0  0
   51.5900   99.8880   27.0000 C   0  0  0  0  0  2  0  0  0  0  0  0
   50.5150  100.7490   26.3400 C   0  0  0  0  0  2  0  0  0  0  0  0
   50.2940  101.8930   27.1690 O   0  0  0  0  0  0  0  0  0  0  0  0
   49.8120  101.4870   28.4520 C   0  0  0  0  0  2  0  0  0  0  0  0
   50.8520  100.5980   29.1370 C   0  0  0  0  0  2  0  0  0  0  0  0
   54.9320   91.6030   21.2990 C   0  0  0  0  0  0  0  0  0  0  0  0
   54.9580   90.2560   21.1040 N   0  0  0  0  0  0  0  0  0  0  0  0
   54.2020   89.9540   19.9860 N   0  0  0  0  0  0  0  0  0  0  0  0
   53.7120   91.0630   19.5060 C   0  0  0  0  0  0  0  0  0  0  0  0
   54.1470   92.1280   20.3100 C   0  0  0  0  0  3  0  0  0  0  0  0
   55.6390   89.2960   21.8570 C   0  0  0  0  0  0  0  0  0  0  0  0
   56.2680   88.2590   21.1760 C   0  0  0  0  0  3  0  0  0  0  0  0
   56.9400   87.2960   21.9030 C   0  0  0  0  0  3  0  0  0  0  0  0
   56.9880   87.3760   23.2900 C   0  0  0  0  0  0  0  0  0  0  0  0
   56.3570   88.4070   23.9620 C   0  0  0  0  0  3  0  0  0  0  0  0
   57.7300   86.3260   24.0660 C   0  0  0  0  0  1  0  0  0  0  0  0
   55.6750   89.3690   23.2490 C   0  0  0  0  0  3  0  0  0  0  0  0
   52.8330   91.1440   18.2830 C   0  0  0  0  0  0  0  0  0  0  0  0
   53.6390   91.8420   17.1880 C   0  0  0  0  0  1  0  0  0  0  0  0
   52.4390   89.7480   17.7840 C   0  0  0  0  0  1  0  0  0  0  0  0
   51.5510   91.9130   18.6100 C   0  0  0  0  0  1  0  0  0  0  0  0
  1  3  1  0  0  0  0
  2  1  2  0  0  0  0
  3  4  1  0  0  0  0
  3  7  1  0  0  0  0
  5  6  1  0  0  0  0
  5  1  1  0  0  0  0
  7  8  2  0  0  0  0
  7 14  1  0  0  0  0
  8  9  1  0  0  0  0
  9 12  1  0  0  0  0
  9 11  2  0  0  0  0
 10 16  2  0  0  0  0
 10  8  1  0  0  0  0
 11 17  1  0  0  0  0
 13 11  1  0  0  0  0
 14 13  2  0  0  0  0
 15 12  2  0  0  0  0
 16 15  1  0  0  0  0
 17 18  1  0  0  0  0
 18 19  1  0  0  0  0
 20 19  1  0  0  0  0
 20 25  1  0  0  0  0
 21 20  1  0  0  0  0
 22 21  1  0  0  0  0
 22 23  1  0  0  0  0
 23 24  1  0  0  0  0
 24 25  1  0  0  0  0
 26  5  1  0  0  0  0
 27 26  1  0  0  0  0
 27 31  1  0  0  0  0
 28 27  1  0  0  0  0
 29 28  2  0  0  0  0
 29 30  1  0  0  0  0
 30 26  2  0  0  0  0
 31 37  1  0  0  0  0
 32 31  2  0  0  0  0
 32 33  1  0  0  0  0
 33 34  2  0  0  0  0
 34 35  1  0  0  0  0
 34 36  1  0  0  0  0
 37 35  2  0  0  0  0
 38 41  1  0  0  0  0
 38 29  1  0  0  0  0
 39 38  1  0  0  0  0
 40 38  1  0  0  0  0
M  END
>  <Pose>
1

>  <Score>
-13.030

$$$$
out/docking_results/vina_output/3npc_docked_ligand.pdbqt
 OpenBabel03072216153D

 41 45  0  0  0  0  0  0  0  0999 V2000
   55.1230   92.2180   23.8580 C   0  0  0  0  0  0  0  0  0  0  0  0
   55.5720   91.8920   24.9460 O   0  0  0  0  0  0  0  0  0  0  0  0
   54.5970   93.4600   23.6590 N   0  0  0  0  0  0  0  0  0  0  0  0
   54.1930   93.6680   22.7570 H   0  0  0  0  0  0  0  0  0  0  0  0
   55.1190   91.3590   22.8130 N   0  0  0  0  0  0  0  0  0  0  0  0
   54.6940   91.6730   21.9530 H   0  0  0  0  0  0  0  0  0  0  0  0
   54.5840   94.4680   24.6390 C   0  0  0  0  0  0  0  0  0  0  0  0
   55.6960   95.3240   24.8720 C   0  0  0  0  0  0  0  0  0  0  0  0
   55.5950   96.3130   25.9010 C   0  0  0  0  0  0  0  0  0  0  0  0
   56.8880   95.2340   24.1160 C   0  0  0  0  0  3  0  0  0  0  0  0
   54.3940   96.4190   26.6740 C   0  0  0  0  0  0  0  0  0  0  0  0
   56.7030   97.1720   26.1290 C   0  0  0  0  0  3  0  0  0  0  0  0
   53.3480   95.5760   26.4150 C   0  0  0  0  0  3  0  0  0  0  0  0
   53.4430   94.6010   25.4210 C   0  0  0  0  0  3  0  0  0  0  0  0
   57.8410   97.0540   25.3790 C   0  0  0  0  0  3  0  0  0  0  0  0
   57.9280   96.0830   24.3680 C   0  0  0  0  0  3  0  0  0  0  0  0
   54.3220   97.3690   27.6580 O   0  0  0  0  0  0  0  0  0  0  0  0
   53.0680   97.4230   28.3430 C   0  0  0  0  0  2  0  0  0  0  0  0
   52.8010   98.8890   28.7170 C   0  0  0  0  0  2  0  0  0  0  0  0
   51.6030   99.4150   28.0140 N   0  0  0  0  0  0  0  0  0  0  0  0
   52.0020  100.1110   26.7700 C   0  0  0  0  0  2  0  0  0  0  0  0
   50.7340  100.5970   26.0690 C   0  0  0  0  0  2  0  0  0  0  0  0
   50.1010  101.5580   26.9180 O   0  0  0  0  0  0  0  0  0  0  0  0
   49.7200  100.9490   28.1530 C   0  0  0  0  0  2  0  0  0  0  0  0
   50.9620  100.4250   28.8760 C   0  0  0  0  0  2  0  0  0  0  0  0
   55.6580   90.0700   22.8340 C   0  0  0  0  0  0  0  0  0  0  0  0
   55.7400   89.2630   21.7410 N   0  0  0  0  0  0  0  0  0  0  0  0
   56.3190   88.0650   22.1160 N   0  0  0  0  0  0  0  0  0  0  0  0
   56.6010   88.1220   23.3890 C   0  0  0  0  0  0  0  0  0  0  0  0
   56.2010   89.3750   23.8790 C   0  0  0  0  0  3  0  0  0  0  0  0
   55.3020   89.5350   20.4420 C   0  0  0  0  0  0  0  0  0  0  0  0
   54.1870   88.8500   19.9720 C   0  0  0  0  0  3  0  0  0  0  0  0
   53.7440   89.0990   18.6890 C   0  0  0  0  0  3  0  0  0  0  0  0
   54.4040   90.0270   17.8910 C   0  0  0  0  0  0  0  0  0  0  0  0
   55.5150   90.7030   18.3620 C   0  0  0  0  0  3  0  0  0  0  0  0
   53.9050   90.2930   16.5000 C   0  0  0  0  0  1  0  0  0  0  0  0
   55.9730   90.4560   19.6370 C   0  0  0  0  0  3  0  0  0  0  0  0
   57.2430   87.0020   24.1670 C   0  0  0  0  0  0  0  0  0  0  0  0
   57.9610   86.1020   23.1620 C   0  0  0  0  0  1  0  0  0  0  0  0
   58.2770   87.5360   25.1670 C   0  0  0  0  0  1  0  0  0  0  0  0
   56.1790   86.2290   24.9490 C   0  0  0  0  0  1  0  0  0  0  0  0
  1  2  2  0  0  0  0
  3  1  1  0  0  0  0
  3  7  1  0  0  0  0
  4  3  1  0  0  0  0
  5 26  1  0  0  0  0
  5  1  1  0  0  0  0
  6  5  1  0  0  0  0
  7  8  2  0  0  0  0
  7 14  1  0  0  0  0
  8  9  1  0  0  0  0
  9 12  1  0  0  0  0
  9 11  2  0  0  0  0
 10 16  2  0  0  0  0
 10  8  1  0  0  0  0
 11 17  1  0  0  0  0
 13 11  1  0  0  0  0
 14 13  2  0  0  0  0
 15 12  2  0  0  0  0
 16 15  1  0  0  0  0
 17 18  1  0  0  0  0
 18 19  1  0  0  0  0
 20 19  1  0  0  0  0
 20 25  1  0  0  0  0
 21 20  1  0  0  0  0
 22 21  1  0  0  0  0
 22 23  1  0  0  0  0
 23 24  1  0  0  0  0
 24 25  1  0  0  0  0
 26 30  2  0  0  0  0
 27 28  1  0  0  0  0
 27 26  1  0  0  0  0
 28 29  2  0  0  0  0
 29 30  1  0  0  0  0
 29 38  1  0  0  0  0
 31 27  1  0  0  0  0
 32 31  1  0  0  0  0
 33 32  2  0  0  0  0
 34 35  2  0  0  0  0
 34 33  1  0  0  0  0
 35 37  1  0  0  0  0
 36 34  1  0  0  0  0
 37 31  2  0  0  0  0
 38 41  1  0  0  0  0
 38 40  1  0  0  0  0
 39 38  1  0  0  0  0
M  END
>  <Pose>
2

>  <Score>
-10.462

$$$$
