out/docking_results/vina_output/3sx0_docked_ligand.pdbqt
 OpenBabel03072216113D

 34 36  0  0  1  0  0  0  0  0999 V2000
   21.6180   63.6160   -8.2280 C   0  0  1  0  0  3  0  0  0  0  0  0
   20.1930   63.3280   -8.4130 O   0  0  0  0  0  0  0  0  0  0  0  0
   22.1880   63.9190   -9.6300 C   0  0  2  0  0  3  0  0  0  0  0  0
   20.9500   63.7200  -10.5450 C   0  0  2  0  0  3  0  0  0  0  0  0
   20.1110   62.7440   -9.7180 C   0  0  2  0  0  3  0  0  0  0  0  0
   18.6730   62.7090  -10.1270 N   0  0  0  0  0  0  0  0  0  0  0  0
   17.9210   61.6080  -10.1140 C   0  0  0  0  0  0  0  0  0  0  0  0
   18.2090   60.3440   -9.7990 N   0  0  0  0  0  0  0  0  0  0  0  0
   16.6400   61.9260  -10.5250 C   0  0  0  0  0  0  0  0  0  0  0  0
   17.2610   59.4150   -9.8720 C   0  0  0  0  0  3  0  0  0  0  0  0
   16.0140   59.6750  -10.2630 N   0  0  0  0  0  0  0  0  0  0  0  0
   15.6640   60.9180  -10.6060 C   0  0  0  0  0  0  0  0  0  0  0  0
   16.6980   63.2830  -10.7680 C   0  0  0  0  0  0  0  0  0  0  0  0
   17.9330   63.7450  -10.5200 C   0  0  0  0  0  3  0  0  0  0  0  0
   15.2450   64.3980  -11.3400 Br  0  0  0  0  0  0  0  0  0  0  0  0
   14.4090   61.1450  -10.9970 N   0  0  0  0  0  0  0  0  0  0  0  0
   13.7410   61.5350  -10.3490 H   0  0  0  0  0  0  0  0  0  0  0  0
   14.1280   60.9250  -11.9420 H   0  0  0  0  0  0  0  0  0  0  0  0
   21.3060   62.9890  -11.6720 O   0  0  0  0  0  0  0  0  0  0  0  0
   21.8110   63.5690  -12.2470 H   0  0  0  0  0  0  0  0  0  0  0  0
   21.6150   64.7900   -7.2790 C   0  0  0  0  0  2  0  0  0  0  0  0
   23.3040   65.2300   -6.7360 S   0  0  0  0  0  0  0  0  0  0  0  0
   23.5510   64.1380   -5.2640 C   0  0  0  0  0  2  0  0  0  0  0  0
   24.5380   62.9960   -5.5040 C   0  0  0  0  0  2  0  0  0  0  0  0
   24.9020   62.2480   -4.2010 C   0  0  2  0  0  3  0  0  0  0  0  0
   23.7740   62.2990   -3.2250 N   0  0  0  0  0  4  0  0  0  0  0  0
   23.4400   63.2490   -3.1470 H   0  0  0  0  0  0  0  0  0  0  0  0
   24.0960   61.9800   -2.3220 H   0  0  0  0  0  0  0  0  0  0  0  0
   23.0250   61.7030   -3.5450 H   0  0  0  0  0  0  0  0  0  0  0  0
   26.1260   62.9040   -3.5510 C   0  0  0  0  0  0  0  0  0  0  0  0
   27.1710   62.9110   -4.2170 O   0  0  0  0  0  0  0  0  0  0  0  0
   26.0020   63.3630   -2.3990 O   0  0  0  0  0  1  0  0  0  0  0  0
   23.1810   62.9220   -9.9600 O   0  0  0  0  0  0  0  0  0  0  0  0
   23.2110   62.8480  -10.9160 H   0  0  0  0  0  0  0  0  0  0  0  0
  1 21  1  1  0  0  0
  2  1  1  0  0  0  0
  3 33  1  6  0  0  0
  3  1  1  0  0  0  0
  4 19  1  6  0  0  0
  4  5  1  0  0  0  0
  4  3  1  0  0  0  0
  5  6  1  6  0  0  0
  5  2  1  0  0  0  0
  6  7  1  0  0  0  0
  7  8  1  0  0  0  0
  9  7  2  0  0  0  0
 10  8  2  0  0  0  0
 11 10  1  0  0  0  0
 12  9  1  0  0  0  0
 12 11  2  0  0  0  0
 13  9  1  0  0  0  0
 13 14  2  0  0  0  0
 14  6  1  0  0  0  0
 15 13  1  0  0  0  0
 16 12  1  0  0  0  0
 16 17  1  0  0  0  0
 18 16  1  0  0  0  0
 20 19  1  0  0  0  0
 21 22  1  0  0  0  0
 22 23  1  0  0  0  0
 24 23  1  0  0  0  0
 25 24  1  6  0  0  0
 25 30  1  0  0  0  0
 25 26  1  0  0  0  0
 26 27  1  0  0  0  0
 26 28  1  0  0  0  0
 29 26  1  0  0  0  0
 30 32  1  0  0  0  0
 31 30  2  0  0  0  0
 34 33  1  0  0  0  0
M  END
>  <Pose>
1

>  <Score>
-10.949

$$$$
out/docking_results/vina_output/3sx0_docked_ligand.pdbqt
 OpenBabel03072216113D

 34 36  0  0  1  0  0  0  0  0999 V2000
   22.4750   63.8250  -10.2190 C   0  0  1  0  0  3  0  0  0  0  0  0
   21.2390   63.1540  -10.6320 O   0  0  0  0  0  0  0  0  0  0  0  0
   22.4860   63.8100   -8.6750 C   0  0  2  0  0  3  0  0  0  0  0  0
   21.1370   63.1200   -8.3380 C   0  0  2  0  0  3  0  0  0  0  0  0
   20.3080   63.4410   -9.5820 C   0  0  2  0  0  3  0  0  0  0  0  0
   19.1220   62.5450   -9.7480 N   0  0  0  0  0  0  0  0  0  0  0  0
   17.9560   62.9400  -10.2610 C   0  0  0  0  0  0  0  0  0  0  0  0
   17.5390   64.1290  -10.6970 N   0  0  0  0  0  0  0  0  0  0  0  0
   17.0870   61.8650  -10.2960 C   0  0  0  0  0  0  0  0  0  0  0  0
   16.3030   64.2600  -11.1690 C   0  0  0  0  0  3  0  0  0  0  0  0
   15.4310   63.2540  -11.2220 N   0  0  0  0  0  0  0  0  0  0  0  0
   15.7820   62.0400  -10.7870 C   0  0  0  0  0  0  0  0  0  0  0  0
   17.8290   60.8220   -9.7780 C   0  0  0  0  0  0  0  0  0  0  0  0
   19.0590   61.2470   -9.4540 C   0  0  0  0  0  3  0  0  0  0  0  0
   17.2450   59.0070   -9.5690 Br  0  0  0  0  0  0  0  0  0  0  0  0
   14.8850   61.0550  -10.8490 N   0  0  0  0  0  0  0  0  0  0  0  0
   14.7250   60.4670  -10.0430 H   0  0  0  0  0  0  0  0  0  0  0  0
   14.3670   60.8960  -11.7010 H   0  0  0  0  0  0  0  0  0  0  0  0
   20.4950   63.8080   -7.3160 O   0  0  0  0  0  0  0  0  0  0  0  0
   19.5590   63.8320   -7.5260 H   0  0  0  0  0  0  0  0  0  0  0  0
   23.5540   62.9910  -10.8670 C   0  0  0  0  0  2  0  0  0  0  0  0
   23.7580   63.3990  -12.6370 S   0  0  0  0  0  0  0  0  0  0  0  0
   25.5960   63.3870  -12.8440 C   0  0  0  0  0  2  0  0  0  0  0  0
   26.0770   64.1020  -14.1070 C   0  0  0  0  0  2  0  0  0  0  0  0
   26.6820   63.1250  -15.1420 C   0  0  2  0  0  3  0  0  0  0  0  0
   27.8620   63.7350  -15.8220 N   0  0  0  0  0  4  0  0  0  0  0  0
   28.6500   63.7380  -15.1910 H   0  0  0  0  0  0  0  0  0  0  0  0
   27.6420   64.6840  -16.0920 H   0  0  0  0  0  0  0  0  0  0  0  0
   28.0910   63.1970  -16.6450 H   0  0  0  0  0  0  0  0  0  0  0  0
   25.6360   62.7890  -16.2120 C   0  0  0  0  0  0  0  0  0  0  0  0
   24.8230   63.6810  -16.4920 O   0  0  0  0  0  1  0  0  0  0  0  0
   25.6540   61.6470  -16.7100 O   0  0  0  0  0  0  0  0  0  0  0  0
   22.4500   65.1710   -8.1930 O   0  0  0  0  0  0  0  0  0  0  0  0
   22.1150   65.1520   -7.2940 H   0  0  0  0  0  0  0  0  0  0  0  0
  1 21  1  6  0  0  0
  1  3  1  0  0  0  0
  2  1  1  0  0  0  0
  2  5  1  0  0  0  0
  3  4  1  0  0  0  0
  3 33  1  1  0  0  0
  4 19  1  1  0  0  0
  5  6  1  6  0  0  0
  5  4  1  0  0  0  0
  6 14  1  0  0  0  0
  7  6  1  0  0  0  0
  8  7  2  0  0  0  0
  9  7  1  0  0  0  0
  9 13  1  0  0  0  0
 10  8  1  0  0  0  0
 11 10  2  0  0  0  0
 11 12  1  0  0  0  0
 12  9  2  0  0  0  0
 13 15  1  0  0  0  0
 13 14  2  0  0  0  0
 16 12  1  0  0  0  0
 16 17  1  0  0  0  0
 18 16  1  0  0  0  0
 20 19  1  0  0  0  0
 22 21  1  0  0  0  0
 23 22  1  0  0  0  0
 24 23  1  0  0  0  0
 25 24  1  1  0  0  0
 26 27  1  0  0  0  0
 26 25  1  0  0  0  0
 28 26  1  0  0  0  0
 29 26  1  0  0  0  0
 30 25  1  0  0  0  0
 31 30  1  0  0  0  0
 32 30  2  0  0  0  0
 33 34  1  0  0  0  0
M  END
>  <Pose>
2

>  <Score>
-9.026

$$$$
out/docking_results/vina_output/3sx0_docked_ligand.pdbqt
 OpenBabel03072216113D

 34 36  0  0  1  0  0  0  0  0999 V2000
   21.9420   63.9130  -10.9110 C   0  0  1  0  0  3  0  0  0  0  0  0
   20.5520   63.7270  -11.3370 O   0  0  0  0  0  0  0  0  0  0  0  0
   22.0190   63.4300   -9.4470 C   0  0  2  0  0  3  0  0  0  0  0  0
   20.5490   63.0260   -9.1500 C   0  0  2  0  0  3  0  0  0  0  0  0
   19.7840   63.9040  -10.1420 C   0  0  2  0  0  3  0  0  0  0  0  0
   18.3910   63.4230  -10.4030 N   0  0  0  0  0  0  0  0  0  0  0  0
   17.9940   62.1620  -10.2280 C   0  0  0  0  0  0  0  0  0  0  0  0
   18.6580   61.0700   -9.8440 N   0  0  0  0  0  0  0  0  0  0  0  0
   16.6500   62.0620  -10.5340 C   0  0  0  0  0  0  0  0  0  0  0  0
   18.0160   59.9100   -9.7490 C   0  0  0  0  0  3  0  0  0  0  0  0
   16.7230   59.7660  -10.0350 N   0  0  0  0  0  0  0  0  0  0  0  0
   16.0040   60.8180  -10.4390 C   0  0  0  0  0  0  0  0  0  0  0  0
   16.2940   63.3480  -10.8890 C   0  0  0  0  0  0  0  0  0  0  0  0
   17.3570   64.1620  -10.8010 C   0  0  0  0  0  3  0  0  0  0  0  0
   14.5440   63.9420  -11.4010 Br  0  0  0  0  0  0  0  0  0  0  0  0
   14.7130   60.6400  -10.7210 N   0  0  0  0  0  0  0  0  0  0  0  0
   14.1300   61.4350  -10.9420 H   0  0  0  0  0  0  0  0  0  0  0  0
   14.3180   59.7100  -10.7130 H   0  0  0  0  0  0  0  0  0  0  0  0
   20.1670   63.5090   -7.9050 O   0  0  0  0  0  0  0  0  0  0  0  0
   20.9660   63.6520   -7.3910 H   0  0  0  0  0  0  0  0  0  0  0  0
   22.7210   63.0740  -11.8960 C   0  0  0  0  0  2  0  0  0  0  0  0
   24.4530   62.8310  -11.3610 S   0  0  0  0  0  0  0  0  0  0  0  0
   25.4080   63.7060  -12.6820 C   0  0  0  0  0  2  0  0  0  0  0  0
   24.8350   63.5110  -14.0850 C   0  0  0  0  0  2  0  0  0  0  0  0
   25.8960   63.0040  -15.0890 C   0  0  2  0  0  3  0  0  0  0  0  0
   27.0440   63.9540  -15.1750 N   0  0  0  0  0  4  0  0  0  0  0  0
   27.5960   63.7430  -15.9940 H   0  0  0  0  0  0  0  0  0  0  0  0
   27.6190   63.8630  -14.3490 H   0  0  0  0  0  0  0  0  0  0  0  0
   26.6950   64.9000  -15.2380 H   0  0  0  0  0  0  0  0  0  0  0  0
   25.2730   62.8820  -16.4860 C   0  0  0  0  0  0  0  0  0  0  0  0
   25.5740   61.8750  -17.1410 O   0  0  0  0  0  0  0  0  0  0  0  0
   24.5310   63.8030  -16.8780 O   0  0  0  0  0  1  0  0  0  0  0  0
   22.3780   64.5450   -8.6030 O   0  0  0  0  0  0  0  0  0  0  0  0
   23.2660   64.3870   -8.2740 H   0  0  0  0  0  0  0  0  0  0  0  0
  1 21  1  6  0  0  0
  1  3  1  0  0  0  0
  2  1  1  0  0  0  0
  2  5  1  0  0  0  0
  3  4  1  0  0  0  0
  3 33  1  1  0  0  0
  4 19  1  1  0  0  0
  5  6  1  6  0  0  0
  5  4  1  0  0  0  0
  6  7  1  0  0  0  0
  7  8  1  0  0  0  0
  8 10  2  0  0  0  0
  9 12  1  0  0  0  0
  9  7  2  0  0  0  0
 11 10  1  0  0  0  0
 12 11  2  0  0  0  0
 13 14  2  0  0  0  0
 13  9  1  0  0  0  0
 14  6  1  0  0  0  0
 15 13  1  0  0  0  0
 16 18  1  0  0  0  0
 16 12  1  0  0  0  0
 17 16  1  0  0  0  0
 19 20  1  0  0  0  0
 21 22  1  0  0  0  0
 23 22  1  0  0  0  0
 24 23  1  0  0  0  0
 25 24  1  1  0  0  0
 26 25  1  0  0  0  0
 26 28  1  0  0  0  0
 27 26  1  0  0  0  0
 29 26  1  0  0  0  0
 30 25  1  0  0  0  0
 31 30  2  0  0  0  0
 32 30  1  0  0  0  0
 33 34  1  0  0  0  0
M  END
>  <Pose>
3

>  <Score>
-8.304

$$$$
out/docking_results/vina_output/3sx0_docked_ligand.pdbqt
 OpenBabel03072216113D

 34 36  0  0  1  0  0  0  0  0999 V2000
   21.8050   63.1910   -8.2110 C   0  0  1  0  0  3  0  0  0  0  0  0
   20.3990   62.8490   -8.4420 O   0  0  0  0  0  0  0  0  0  0  0  0
   22.2650   64.0060   -9.4380 C   0  0  2  0  0  3  0  0  0  0  0  0
   20.9950   64.0130  -10.3300 C   0  0  2  0  0  3  0  0  0  0  0  0
   20.2860   62.7390   -9.8660 C   0  0  2  0  0  3  0  0  0  0  0  0
   18.8330   62.7090  -10.2220 N   0  0  0  0  0  0  0  0  0  0  0  0
   18.0750   61.6140  -10.1600 C   0  0  0  0  0  0  0  0  0  0  0  0
   18.3640   60.3540   -9.8320 N   0  0  0  0  0  0  0  0  0  0  0  0
   16.7820   61.9350  -10.5290 C   0  0  0  0  0  0  0  0  0  0  0  0
   17.4070   59.4320   -9.8520 C   0  0  0  0  0  3  0  0  0  0  0  0
   16.1480   59.6950  -10.2020 N   0  0  0  0  0  0  0  0  0  0  0  0
   15.7950   60.9350  -10.5560 C   0  0  0  0  0  0  0  0  0  0  0  0
   16.8410   63.2880  -10.8000 C   0  0  0  0  0  0  0  0  0  0  0  0
   18.0880   63.7430  -10.6060 C   0  0  0  0  0  3  0  0  0  0  0  0
   15.3770   64.4030  -11.3390 Br  0  0  0  0  0  0  0  0  0  0  0  0
   14.5290   61.1640  -10.9050 N   0  0  0  0  0  0  0  0  0  0  0  0
   14.3180   61.5540  -11.8130 H   0  0  0  0  0  0  0  0  0  0  0  0
   13.7810   60.9490  -10.2610 H   0  0  0  0  0  0  0  0  0  0  0  0
   21.3400   63.7460  -11.6500 O   0  0  0  0  0  0  0  0  0  0  0  0
   21.8060   62.9070  -11.6630 H   0  0  0  0  0  0  0  0  0  0  0  0
   21.7640   63.9660   -6.9160 C   0  0  0  0  0  2  0  0  0  0  0  0
   21.5860   65.7630   -7.2040 S   0  0  0  0  0  0  0  0  0  0  0  0
   23.1230   66.4470   -6.4350 C   0  0  0  0  0  2  0  0  0  0  0  0
   23.3980   67.9050   -6.8050 C   0  0  0  0  0  2  0  0  0  0  0  0
   22.8920   68.8910   -5.7270 C   0  0  2  0  0  3  0  0  0  0  0  0
   21.4890   69.3140   -6.0100 N   0  0  0  0  0  4  0  0  0  0  0  0
   21.4940   70.2090   -6.4780 H   0  0  0  0  0  0  0  0  0  0  0  0
   20.9790   69.3920   -5.1410 H   0  0  0  0  0  0  0  0  0  0  0  0
   21.0430   68.6270   -6.6000 H   0  0  0  0  0  0  0  0  0  0  0  0
   23.7750   70.1460   -5.7160 C   0  0  0  0  0  0  0  0  0  0  0  0
   24.2200   70.5190   -6.8100 O   0  0  0  0  0  0  0  0  0  0  0  0
   24.0040   70.6910   -4.6200 O   0  0  0  0  0  1  0  0  0  0  0  0
   23.3120   63.2800  -10.1190 O   0  0  0  0  0  0  0  0  0  0  0  0
   22.9420   62.9310  -10.9320 H   0  0  0  0  0  0  0  0  0  0  0  0
  1 21  1  1  0  0  0
  2  1  1  0  0  0  0
  3 33  1  6  0  0  0
  3  1  1  0  0  0  0
  4 19  1  6  0  0  0
  4  5  1  0  0  0  0
  4  3  1  0  0  0  0
  5  6  1  1  0  0  0
  5  2  1  0  0  0  0
  6  7  1  0  0  0  0
  7  8  1  0  0  0  0
  9  7  2  0  0  0  0
 10  8  2  0  0  0  0
 11 10  1  0  0  0  0
 12  9  1  0  0  0  0
 12 11  2  0  0  0  0
 13 14  2  0  0  0  0
 13  9  1  0  0  0  0
 14  6  1  0  0  0  0
 15 13  1  0  0  0  0
 16 12  1  0  0  0  0
 16 18  1  0  0  0  0
 17 16  1  0  0  0  0
 20 19  1  0  0  0  0
 22 21  1  0  0  0  0
 22 23  1  0  0  0  0
 24 23  1  0  0  0  0
 25 24  1  6  0  0  0
 25 30  1  0  0  0  0
 26 25  1  0  0  0  0
 26 28  1  0  0  0  0
 27 26  1  0  0  0  0
 29 26  1  0  0  0  0
 30 32  1  0  0  0  0
 31 30  2  0  0  0  0
 34 33  1  0  0  0  0
M  END
>  <Pose>
4

>  <Score>
-8.204

$$$$
