# created with PyMOL 2.5.2
@<TRIPOS>MOLECULE
out/docking_results/vina_output/3sx0_docked_ligand.pdbqt
34 36 1                 
SMALL
USER_CHARGES
@<TRIPOS>ATOM
1	   C	21.618	63.616	-8.228	C.3	1	UNK0	0.000	
2	   O	20.193	63.328	-8.413	O.3	1	UNK0	0.000	
3	   C	22.188	63.919	-9.630	C.3	1	UNK0	0.000	
4	   C	20.950	63.720	-10.545	C.3	1	UNK0	0.000	
5	   C	20.111	62.744	-9.718	C.3	1	UNK0	0.000	
6	   N	18.673	62.709	-10.127	N.pl3	1	UNK0	0.000	
7	   C	17.921	61.608	-10.114	C.2	1	UNK0	0.000	
8	   N	18.209	60.344	-9.799	N.2	1	UNK0	0.000	
9	   C	16.640	61.926	-10.525	C.2	1	UNK0	0.000	
10	   C	17.261	59.415	-9.872	C.2	1	UNK0	0.000	
11	   N	16.014	59.675	-10.263	N.2	1	UNK0	0.000	
12	   C	15.664	60.918	-10.606	C.2	1	UNK0	0.000	
13	   C	16.698	63.283	-10.768	C.2	1	UNK0	0.000	
14	   C	17.933	63.745	-10.520	C.2	1	UNK0	0.000	
15	  Br	15.245	64.398	-11.340	Br	1	UNK0	0.000	
16	   N	14.409	61.145	-10.997	N.pl3	1	UNK0	0.000	
17	   H	13.741	61.535	-10.349	 H	1	UNK0	0.000	
18	   H	14.128	60.925	-11.942	 H	1	UNK0	0.000	
19	   O	21.306	62.989	-11.672	O.3	1	UNK0	0.000	
20	   H	21.811	63.569	-12.247	 H	1	UNK0	0.000	
21	   C	21.615	64.790	-7.279	C.3	1	UNK0	0.000	
22	   S	23.304	65.230	-6.736	S.3	1	UNK0	0.000	
23	   C	23.551	64.138	-5.264	C.3	1	UNK0	0.000	
24	   C	24.538	62.996	-5.504	C.3	1	UNK0	0.000	
25	   C	24.902	62.248	-4.201	C.3	1	UNK0	0.000	
26	   N	23.774	62.299	-3.225	N.3	1	UNK0	0.000	
27	   H	23.440	63.249	-3.147	 H	1	UNK0	0.000	
28	   H	24.096	61.980	-2.322	 H	1	UNK0	0.000	
29	   H	23.025	61.703	-3.545	 H	1	UNK0	0.000	
30	   C	26.126	62.904	-3.551	C.2	1	UNK0	0.000	
31	   O	27.171	62.911	-4.217	O.co2	1	UNK0	0.000	
32	   O	26.002	63.363	-2.399	O.co2	1	UNK0	0.000	
33	   O	23.181	62.922	-9.960	O.3	1	UNK0	0.000	
34	   H	23.211	62.848	-10.916	 H	1	UNK0	0.000	
@<TRIPOS>BOND
1 1 21 1
2 1 2 1
3 3 33 1
4 1 3 1
5 4 19 1
6 4 5 1
7 3 4 1
8 5 6 1
9 2 5 1
10 6 7 1
11 7 8 1
12 7 9 2
13 8 10 2
14 10 11 1
15 9 12 1
16 11 12 2
17 9 13 1
18 13 14 2
19 6 14 1
20 13 15 1
21 12 16 1
22 16 17 1
23 16 18 1
24 19 20 1
25 21 22 1
26 22 23 1
27 23 24 1
28 24 25 1
29 25 30 1
30 25 26 1
31 26 27 1
32 26 28 1
33 26 29 1
34 30 32 1
35 30 31 2
36 33 34 1
@<TRIPOS>SUBSTRUCTURE
1	UNK0	1	GROUP	1 ****	UNK
