MODEL 1
REMARK VINA RESULT:    -4.421      0.000      0.000
REMARK INTER + INTRA:          -5.225
REMARK INTER:                  -4.850
REMARK INTRA:                  -0.375
REMARK UNBOUND:                -0.158
REMARK  3 active torsions:
REMARK  status: ('A' for Active; 'I' for Inactive)
REMARK    1  A    between atoms: C1_1  and  C4_4 
REMARK    2  A    between atoms: C2_2  and  O16_12 
REMARK    3  A    between atoms: C4_4  and  N5_5 
ROOT
ATOM      1  C1    P A   1      91.748  98.997 -42.779  0.00  0.00     0.003 A 
ATOM      2  C2    P A   1      92.051  97.807 -42.107  0.00  0.00     0.090 A 
ATOM      3  C3    P A   1      91.632  96.579 -42.614  0.00  0.00     0.041 A 
ATOM      4  C6    P A   1      90.891  96.506 -43.802  0.00  0.00     0.039 A 
ATOM      5  C8    P A   1      91.004  98.918 -43.976  0.00  0.00     0.029 A 
ATOM      6  C10   P A   1      90.577  97.684 -44.484  0.00  0.00     0.008 A 
ATOM      7  I15   P A   1      92.105  94.837 -41.527  0.00  0.00    -0.042 I 
ATOM      8  I17   P A   1      89.473  97.637 -46.260  0.00  0.00    -0.045 I 
ENDROOT
BRANCH   1   9
ATOM      9  C4    P A   1      92.171 100.352 -42.233  0.00  0.00     0.275 C 
BRANCH   9  10
ATOM     10  N5    P A   1      91.443 100.761 -41.017  0.00  0.00    -0.075 N 
ATOM     11  H5    P A   1      91.179  99.896 -40.566  0.00  0.00     0.279 HD
ATOM     12  C9    P A   1      92.272 101.484 -40.031  0.00  0.00     0.269 C 
ATOM     13  C14   P A   1      90.212 101.502 -41.334  0.00  0.00     0.269 C 
ENDBRANCH   9  10
ENDBRANCH   1   9
BRANCH   2  14
ATOM     14  O16   P A   1      92.797  97.875 -40.963  0.00  0.00    -0.359 OA
ATOM     15  H16   P A   1      93.595  98.405 -41.029  0.00  0.00     0.217 HD
ENDBRANCH   2  14
TORSDOF 3
ENDMDL
MODEL 2
REMARK VINA RESULT:    -4.366      3.805      4.672
REMARK INTER + INTRA:          -5.162
REMARK INTER:                  -4.756
REMARK INTRA:                  -0.406
REMARK UNBOUND:                -0.158
REMARK  3 active torsions:
REMARK  status: ('A' for Active; 'I' for Inactive)
REMARK    1  A    between atoms: C1_1  and  C4_4 
REMARK    2  A    between atoms: C2_2  and  O16_12 
REMARK    3  A    between atoms: C4_4  and  N5_5 
ROOT
ATOM      1  C1    P A   1      90.987  95.673 -45.319  0.00  0.00     0.003 A 
ATOM      2  C2    P A   1      91.384  95.542 -43.983  0.00  0.00     0.090 A 
ATOM      3  C3    P A   1      91.815  94.314 -43.488  0.00  0.00     0.041 A 
ATOM      4  C6    P A   1      91.854  93.180 -44.312  0.00  0.00     0.039 A 
ATOM      5  C8    P A   1      91.029  94.530 -46.144  0.00  0.00     0.029 A 
ATOM      6  C10   P A   1      91.458  93.292 -45.646  0.00  0.00     0.008 A 
ATOM      7  I15   P A   1      92.369  94.194 -41.459  0.00  0.00    -0.042 I 
ATOM      8  I17   P A   1      91.494  91.635 -46.923  0.00  0.00    -0.045 I 
ENDROOT
BRANCH   1   9
ATOM      9  C4    P A   1      90.487  96.998 -45.876  0.00  0.00     0.275 C 
BRANCH   9  10
ATOM     10  N5    P A   1      89.284  97.517 -45.197  0.00  0.00    -0.075 N 
ATOM     11  H5    P A   1      89.280  97.068 -44.292  0.00  0.00     0.279 HD
ATOM     12  C9    P A   1      89.326  98.967 -44.919  0.00  0.00     0.269 C 
ATOM     13  C14   P A   1      88.048  97.136 -45.899  0.00  0.00     0.269 C 
ENDBRANCH   9  10
ENDBRANCH   1   9
BRANCH   2  14
ATOM     14  O16   P A   1      91.372  96.654 -43.185  0.00  0.00    -0.359 OA
ATOM     15  H16   P A   1      90.508  97.054 -43.060  0.00  0.00     0.217 HD
ENDBRANCH   2  14
TORSDOF 3
ENDMDL
MODEL 3
REMARK VINA RESULT:    -4.123      4.264      6.228
REMARK INTER + INTRA:          -4.883
REMARK INTER:                  -4.507
REMARK INTRA:                  -0.376
REMARK UNBOUND:                -0.158
REMARK  3 active torsions:
REMARK  status: ('A' for Active; 'I' for Inactive)
REMARK    1  A    between atoms: C1_1  and  C4_4 
REMARK    2  A    between atoms: C2_2  and  O16_12 
REMARK    3  A    between atoms: C4_4  and  N5_5 
ROOT
ATOM      1  C1    P A   1      91.101  95.923 -45.313  0.00  0.00     0.003 A 
ATOM      2  C2    P A   1      89.953  95.996 -46.110  0.00  0.00     0.090 A 
ATOM      3  C3    P A   1      89.078  97.074 -45.998  0.00  0.00     0.041 A 
ATOM      4  C6    P A   1      89.321  98.105 -45.079  0.00  0.00     0.039 A 
ATOM      5  C8    P A   1      91.343  96.964 -44.392  0.00  0.00     0.029 A 
ATOM      6  C10   P A   1      90.460  98.046 -44.273  0.00  0.00     0.008 A 
ATOM      7  I15   P A   1      87.358  97.094 -47.214  0.00  0.00    -0.042 I 
ATOM      8  I17   P A   1      90.875  99.554 -42.884  0.00  0.00    -0.045 I 
ENDROOT
BRANCH   1   9
ATOM      9  C4    P A   1      92.059  94.744 -45.399  0.00  0.00     0.275 C 
BRANCH   9  10
ATOM     10  N5    P A   1      91.505  93.484 -44.867  0.00  0.00    -0.075 N 
ATOM     11  H5    P A   1      90.510  93.643 -44.800  0.00  0.00     0.279 HD
ATOM     12  C9    P A   1      91.660  92.327 -45.772  0.00  0.00     0.269 C 
ATOM     13  C14   P A   1      92.010  93.186 -43.517  0.00  0.00     0.269 C 
ENDBRANCH   9  10
ENDBRANCH   1   9
BRANCH   2  14
ATOM     14  O16   P A   1      89.729  95.005 -47.026  0.00  0.00    -0.359 OA
ATOM     15  H16   P A   1      90.352  94.978 -47.756  0.00  0.00     0.217 HD
ENDBRANCH   2  14
TORSDOF 3
ENDMDL
MODEL 4
REMARK VINA RESULT:    -3.992      4.118      5.677
REMARK INTER + INTRA:          -4.733
REMARK INTER:                  -4.550
REMARK INTRA:                  -0.183
REMARK UNBOUND:                -0.158
REMARK  3 active torsions:
REMARK  status: ('A' for Active; 'I' for Inactive)
REMARK    1  A    between atoms: C1_1  and  C4_4 
REMARK    2  A    between atoms: C2_2  and  O16_12 
REMARK    3  A    between atoms: C4_4  and  N5_5 
ROOT
ATOM      1  C1    P A   1      90.707  95.993 -45.460  0.00  0.00     0.003 A 
ATOM      2  C2    P A   1      90.692  97.049 -44.540  0.00  0.00     0.090 A 
ATOM      3  C3    P A   1      89.653  97.976 -44.540  0.00  0.00     0.041 A 
ATOM      4  C6    P A   1      88.603  97.879 -45.464  0.00  0.00     0.039 A 
ATOM      5  C8    P A   1      89.646  95.898 -46.386  0.00  0.00     0.029 A 
ATOM      6  C10   P A   1      88.602  96.834 -46.390  0.00  0.00     0.008 A 
ATOM      7  I15   P A   1      89.721  99.551 -43.143  0.00  0.00    -0.042 I 
ATOM      8  I17   P A   1      87.063  96.638 -47.793  0.00  0.00    -0.045 I 
ENDROOT
BRANCH   1   9
ATOM      9  C4    P A   1      91.844  94.983 -45.497  0.00  0.00     0.275 C 
BRANCH   9  10
ATOM     10  N5    P A   1      91.469  93.643 -45.007  0.00  0.00    -0.075 N 
ATOM     11  H5    P A   1      90.500  93.725 -44.734  0.00  0.00     0.279 HD
ATOM     12  C9    P A   1      91.502  92.590 -46.042  0.00  0.00     0.269 C 
ATOM     13  C14   P A   1      92.244  93.255 -43.817  0.00  0.00     0.269 C 
ENDBRANCH   9  10
ENDBRANCH   1   9
BRANCH   2  14
ATOM     14  O16   P A   1      91.703  97.129 -43.622  0.00  0.00    -0.359 OA
ATOM     15  H16   P A   1      91.840  98.001 -43.245  0.00  0.00     0.217 HD
ENDBRANCH   2  14
TORSDOF 3
ENDMDL
MODEL 5
REMARK VINA RESULT:    -3.835      2.130      2.995
REMARK INTER + INTRA:          -4.554
REMARK INTER:                  -4.163
REMARK INTRA:                  -0.390
REMARK UNBOUND:                -0.158
REMARK  3 active torsions:
REMARK  status: ('A' for Active; 'I' for Inactive)
REMARK    1  A    between atoms: C1_1  and  C4_4 
REMARK    2  A    between atoms: C2_2  and  O16_12 
REMARK    3  A    between atoms: C4_4  and  N5_5 
ROOT
ATOM      1  C1    P A   1      90.395  97.431 -44.599  0.00  0.00     0.003 A 
ATOM      2  C2    P A   1      91.081  96.275 -44.208  0.00  0.00     0.090 A 
ATOM      3  C3    P A   1      91.029  95.121 -44.986  0.00  0.00     0.041 A 
ATOM      4  C6    P A   1      90.282  95.087 -46.173  0.00  0.00     0.039 A 
ATOM      5  C8    P A   1      89.647  97.392 -45.795  0.00  0.00     0.029 A 
ATOM      6  C10   P A   1      89.589  96.230 -46.576  0.00  0.00     0.008 A 
ATOM      7  I15   P A   1      92.066  93.416 -44.313  0.00  0.00    -0.042 I 
ATOM      8  I17   P A   1      88.459  96.238 -48.336  0.00  0.00    -0.045 I 
ENDROOT
BRANCH   1   9
ATOM      9  C4    P A   1      90.415  98.696 -43.754  0.00  0.00     0.275 C 
BRANCH   9  10
ATOM     10  N5    P A   1      91.771  99.149 -43.387  0.00  0.00    -0.075 N 
ATOM     11  H5    P A   1      92.241  98.320 -43.050  0.00  0.00     0.279 HD
ATOM     12  C9    P A   1      92.578  99.624 -44.529  0.00  0.00     0.269 C 
ATOM     13  C14   P A   1      91.746 100.134 -42.294  0.00  0.00     0.269 C 
ENDBRANCH   9  10
ENDBRANCH   1   9
BRANCH   2  14
ATOM     14  O16   P A   1      91.831  96.316 -43.065  0.00  0.00    -0.359 OA
ATOM     15  H16   P A   1      91.397  95.966 -42.283  0.00  0.00     0.217 HD
ENDBRANCH   2  14
TORSDOF 3
ENDMDL
MODEL 6
REMARK VINA RESULT:    -3.789      3.190      4.582
REMARK INTER + INTRA:          -4.500
REMARK INTER:                  -4.303
REMARK INTRA:                  -0.197
REMARK UNBOUND:                -0.158
REMARK  3 active torsions:
REMARK  status: ('A' for Active; 'I' for Inactive)
REMARK    1  A    between atoms: C1_1  and  C4_4 
REMARK    2  A    between atoms: C2_2  and  O16_12 
REMARK    3  A    between atoms: C4_4  and  N5_5 
ROOT
ATOM      1  C1    P A   1      90.432  98.503 -43.150  0.00  0.00     0.003 A 
ATOM      2  C2    P A   1      90.994  99.490 -42.331  0.00  0.00     0.090 A 
ATOM      3  C3    P A   1      90.275 100.639 -42.011  0.00  0.00     0.041 A 
ATOM      4  C6    P A   1      88.979 100.839 -42.507  0.00  0.00     0.039 A 
ATOM      5  C8    P A   1      89.127  98.708 -43.646  0.00  0.00     0.029 A 
ATOM      6  C10   P A   1      88.405  99.867 -43.328  0.00  0.00     0.008 A 
ATOM      7  I15   P A   1      91.201 102.089 -40.795  0.00  0.00    -0.042 I 
ATOM      8  I17   P A   1      86.476 100.110 -44.099  0.00  0.00    -0.045 I 
ENDROOT
BRANCH   1   9
ATOM      9  C4    P A   1      91.206  97.251 -43.536  0.00  0.00     0.275 C 
BRANCH   9  10
ATOM     10  N5    P A   1      91.542  97.174 -44.970  0.00  0.00    -0.075 N 
ATOM     11  H5    P A   1      90.713  97.493 -45.451  0.00  0.00     0.279 HD
ATOM     12  C9    P A   1      92.620  98.092 -45.388  0.00  0.00     0.269 C 
ATOM     13  C14   P A   1      91.812  95.792 -45.400  0.00  0.00     0.269 C 
ENDBRANCH   9  10
ENDBRANCH   1   9
BRANCH   2  14
ATOM     14  O16   P A   1      92.247  99.284 -41.825  0.00  0.00    -0.359 OA
ATOM     15  H16   P A   1      92.499  98.362 -41.729  0.00  0.00     0.217 HD
ENDBRANCH   2  14
TORSDOF 3
ENDMDL
MODEL 7
REMARK VINA RESULT:    -3.728     10.111     11.698
REMARK INTER + INTRA:          -4.431
REMARK INTER:                  -4.628
REMARK INTRA:                   0.197
REMARK UNBOUND:                -0.158
REMARK  3 active torsions:
REMARK  status: ('A' for Active; 'I' for Inactive)
REMARK    1  A    between atoms: C1_1  and  C4_4 
REMARK    2  A    between atoms: C2_2  and  O16_12 
REMARK    3  A    between atoms: C4_4  and  N5_5 
ROOT
ATOM      1  C1    P A   1      90.456  89.753 -49.754  0.00  0.00     0.003 A 
ATOM      2  C2    P A   1      90.406  88.394 -49.420  0.00  0.00     0.090 A 
ATOM      3  C3    P A   1      89.192  87.711 -49.409  0.00  0.00     0.041 A 
ATOM      4  C6    P A   1      87.994  88.368 -49.722  0.00  0.00     0.039 A 
ATOM      5  C8    P A   1      89.248  90.409 -50.070  0.00  0.00     0.029 A 
ATOM      6  C10   P A   1      88.025  89.724 -50.054  0.00  0.00     0.008 A 
ATOM      7  I15   P A   1      89.199  85.675 -48.869  0.00  0.00    -0.042 I 
ATOM      8  I17   P A   1      86.269  90.757 -50.530  0.00  0.00    -0.045 I 
ENDROOT
BRANCH   1   9
ATOM      9  C4    P A   1      91.765  90.528 -49.748  0.00  0.00     0.275 C 
BRANCH   9  10
ATOM     10  N5    P A   1      92.212  90.937 -48.402  0.00  0.00    -0.075 N 
ATOM     11  H5    P A   1      92.629  91.849 -48.531  0.00  0.00     0.279 HD
ATOM     12  C9    P A   1      91.113  91.138 -47.436  0.00  0.00     0.269 C 
ATOM     13  C14   P A   1      93.245  90.037 -47.867  0.00  0.00     0.269 C 
ENDBRANCH   9  10
ENDBRANCH   1   9
BRANCH   2  14
ATOM     14  O16   P A   1      91.577  87.746 -49.141  0.00  0.00    -0.359 OA
ATOM     15  H16   P A   1      92.204  87.710 -49.867  0.00  0.00     0.217 HD
ENDBRANCH   2  14
TORSDOF 3
ENDMDL
MODEL 8
REMARK VINA RESULT:    -3.635      3.395      5.242
REMARK INTER + INTRA:          -4.324
REMARK INTER:                  -3.915
REMARK INTRA:                  -0.409
REMARK UNBOUND:                -0.158
REMARK  3 active torsions:
REMARK  status: ('A' for Active; 'I' for Inactive)
REMARK    1  A    between atoms: C1_1  and  C4_4 
REMARK    2  A    between atoms: C2_2  and  O16_12 
REMARK    3  A    between atoms: C4_4  and  N5_5 
ROOT
ATOM      1  C1    P A   1      90.953  98.778 -42.882  0.00  0.00     0.003 A 
ATOM      2  C2    P A   1      89.648  99.175 -43.196  0.00  0.00     0.090 A 
ATOM      3  C3    P A   1      89.137 100.378 -42.716  0.00  0.00     0.041 A 
ATOM      4  C6    P A   1      89.913 101.215 -41.901  0.00  0.00     0.039 A 
ATOM      5  C8    P A   1      91.731  99.625 -42.064  0.00  0.00     0.029 A 
ATOM      6  C10   P A   1      91.216 100.833 -41.575  0.00  0.00     0.008 A 
ATOM      7  I15   P A   1      87.154 100.889 -43.212  0.00  0.00    -0.042 I 
ATOM      8  I17   P A   1      92.420 102.040 -40.362  0.00  0.00    -0.045 I 
ENDROOT
BRANCH   1   9
ATOM      9  C4    P A   1      91.526  97.457 -43.373  0.00  0.00     0.275 C 
BRANCH   9  10
ATOM     10  N5    P A   1      91.617  97.353 -44.842  0.00  0.00    -0.075 N 
ATOM     11  H5    P A   1      90.741  97.721 -45.185  0.00  0.00     0.279 HD
ATOM     12  C9    P A   1      92.665  98.203 -45.443  0.00  0.00     0.269 C 
ATOM     13  C14   P A   1      91.731  95.956 -45.290  0.00  0.00     0.269 C 
ENDBRANCH   9  10
ENDBRANCH   1   9
BRANCH   2  14
ATOM     14  O16   P A   1      88.900  98.373 -44.013  0.00  0.00    -0.359 OA
ATOM     15  H16   P A   1      89.357  97.598 -44.350  0.00  0.00     0.217 HD
ENDBRANCH   2  14
TORSDOF 3
ENDMDL
MODEL 9
REMARK VINA RESULT:    -3.628      2.528      4.010
REMARK INTER + INTRA:          -4.316
REMARK INTER:                  -4.114
REMARK INTRA:                  -0.202
REMARK UNBOUND:                -0.158
REMARK  3 active torsions:
REMARK  status: ('A' for Active; 'I' for Inactive)
REMARK    1  A    between atoms: C1_1  and  C4_4 
REMARK    2  A    between atoms: C2_2  and  O16_12 
REMARK    3  A    between atoms: C4_4  and  N5_5 
ROOT
ATOM      1  C1    P A   1      90.925  97.752 -44.726  0.00  0.00     0.003 A 
ATOM      2  C2    P A   1      89.989  97.752 -45.766  0.00  0.00     0.090 A 
ATOM      3  C3    P A   1      89.616  96.562 -46.386  0.00  0.00     0.041 A 
ATOM      4  C6    P A   1      90.176  95.339 -45.990  0.00  0.00     0.039 A 
ATOM      5  C8    P A   1      91.484  96.518 -44.329  0.00  0.00     0.029 A 
ATOM      6  C10   P A   1      91.114  95.320 -44.956  0.00  0.00     0.008 A 
ATOM      7  I15   P A   1      88.221  96.652 -47.961  0.00  0.00    -0.042 I 
ATOM      8  I17   P A   1      91.984  93.526 -44.323  0.00  0.00    -0.045 I 
ENDROOT
BRANCH   1   9
ATOM      9  C4    P A   1      91.368  99.041 -44.050  0.00  0.00     0.275 C 
BRANCH   9  10
ATOM     10  N5    P A   1      90.956  99.148 -42.637  0.00  0.00    -0.075 N 
ATOM     11  H5    P A   1      91.013  98.206 -42.276  0.00  0.00     0.279 HD
ATOM     12  C9    P A   1      91.872  99.948 -41.800  0.00  0.00     0.269 C 
ATOM     13  C14   P A   1      89.563  99.603 -42.503  0.00  0.00     0.269 C 
ENDBRANCH   9  10
ENDBRANCH   1   9
BRANCH   2  14
ATOM     14  O16   P A   1      89.422  98.941 -46.134  0.00  0.00    -0.359 OA
ATOM     15  H16   P A   1      88.600  99.154 -45.688  0.00  0.00     0.217 HD
ENDBRANCH   2  14
TORSDOF 3
ENDMDL
MODEL 10
REMARK VINA RESULT:    -3.601      3.628      4.785
REMARK INTER + INTRA:          -4.285
REMARK INTER:                  -4.127
REMARK INTRA:                  -0.158
REMARK UNBOUND:                -0.158
REMARK  3 active torsions:
REMARK  status: ('A' for Active; 'I' for Inactive)
REMARK    1  A    between atoms: C1_1  and  C4_4 
REMARK    2  A    between atoms: C2_2  and  O16_12 
REMARK    3  A    between atoms: C4_4  and  N5_5 
ROOT
ATOM      1  C1    P A   1      88.884  98.288 -44.515  0.00  0.00     0.003 A 
ATOM      2  C2    P A   1      87.569  98.440 -44.061  0.00  0.00     0.090 A 
ATOM      3  C3    P A   1      86.503  97.907 -44.781  0.00  0.00     0.041 A 
ATOM      4  C6    P A   1      86.720  97.215 -45.981  0.00  0.00     0.039 A 
ATOM      5  C8    P A   1      89.098  97.588 -45.721  0.00  0.00     0.029 A 
ATOM      6  C10   P A   1      88.026  97.056 -46.450  0.00  0.00     0.008 A 
ATOM      7  I15   P A   1      84.552  98.205 -44.045  0.00  0.00    -0.042 I 
ATOM      8  I17   P A   1      88.412  96.032 -48.234  0.00  0.00    -0.045 I 
ENDROOT
BRANCH   1   9
ATOM      9  C4    P A   1      90.063  98.883 -43.760  0.00  0.00     0.275 C 
BRANCH   9  10
ATOM     10  N5    P A   1      91.297  98.078 -43.846  0.00  0.00    -0.075 N 
ATOM     11  H5    P A   1      91.130  97.423 -44.597  0.00  0.00     0.279 HD
ATOM     12  C9    P A   1      92.492  98.845 -44.250  0.00  0.00     0.269 C 
ATOM     13  C14   P A   1      91.539  97.307 -42.616  0.00  0.00     0.269 C 
ENDBRANCH   9  10
ENDBRANCH   1   9
BRANCH   2  14
ATOM     14  O16   P A   1      87.358  99.093 -42.877  0.00  0.00    -0.359 OA
ATOM     15  H16   P A   1      86.891  98.584 -42.211  0.00  0.00     0.217 HD
ENDBRANCH   2  14
TORSDOF 3
ENDMDL
