# created with PyMOL 2.5.2
@<TRIPOS>MOLECULE
out/docking_results/vina_output/4agl_docked_ligand.pdbqt
15 15 1                 
SMALL
USER_CHARGES
@<TRIPOS>ATOM
1	   C	91.748	98.997	-42.779	C.2	1	UNK0	0.000	
2	   C	92.051	97.807	-42.107	C.2	1	UNK0	0.000	
3	   C	91.632	96.579	-42.614	C.2	1	UNK0	0.000	
4	   C	90.891	96.506	-43.802	C.2	1	UNK0	0.000	
5	   C	91.004	98.918	-43.976	C.2	1	UNK0	0.000	
6	   C	90.577	97.684	-44.484	C.2	1	UNK0	0.000	
7	   I	92.105	94.837	-41.527	 I	1	UNK0	0.000	
8	   I	89.473	97.637	-46.260	 I	1	UNK0	0.000	
9	   C	92.171	100.352	-42.233	C.3	1	UNK0	0.000	
10	   N	91.443	100.761	-41.017	N.3	1	UNK0	0.000	
11	   H	91.179	99.896	-40.566	 H	1	UNK0	0.000	
12	   C	92.272	101.484	-40.031	C.3	1	UNK0	0.000	
13	   C	90.212	101.502	-41.334	C.3	1	UNK0	0.000	
14	   O	92.797	97.875	-40.963	O.3	1	UNK0	0.000	
15	   H	93.595	98.405	-41.029	 H	1	UNK0	0.000	
@<TRIPOS>BOND
1 1 9 1
2 1 2 1
3 2 14 1
4 2 3 2
5 3 7 1
6 3 4 1
7 1 5 2
8 5 6 1
9 4 6 2
10 6 8 1
11 9 10 1
12 10 11 1
13 10 12 1
14 10 13 1
15 14 15 1
@<TRIPOS>SUBSTRUCTURE
1	UNK0	1	GROUP	1 ****	UNK
