# created with PyMOL 2.5.2
@<TRIPOS>MOLECULE
out/docking_results/vina_output/4x21_docked_ligand.pdbqt
31 34 1                 
SMALL
USER_CHARGES
@<TRIPOS>ATOM
1	   C	18.888	32.381	70.730	C.2	1	UNK0	0.000	
2	   N	17.767	32.997	70.413	N.2	1	UNK0	0.000	
3	   C	16.676	32.617	71.059	C.2	1	UNK0	0.000	
4	   C	16.729	31.628	72.026	C.2	1	UNK0	0.000	
5	   C	17.973	31.047	72.293	C.2	1	UNK0	0.000	
6	   N	19.050	31.423	71.639	N.2	1	UNK0	0.000	
7	   I	15.094	30.970	73.145	 I	1	UNK0	0.000	
8	   N	19.998	32.718	70.099	N.pl3	1	UNK0	0.000	
9	   H	20.594	31.953	69.817	 H	1	UNK0	0.000	
10	   C	20.469	34.046	69.761	C.3	1	UNK0	0.000	
11	   C	21.422	34.656	70.744	C.3	1	UNK0	0.000	
12	   C	21.844	36.039	70.345	C.3	1	UNK0	0.000	
13	   N	22.344	36.125	68.975	N.pl3	1	UNK0	0.000	
14	   C	23.497	36.715	68.576	C.2	1	UNK0	0.000	
15	   C	21.451	35.521	68.024	C.3	1	UNK0	0.000	
16	   N	23.785	36.677	67.192	N.pl3	1	UNK0	0.000	
17	   O	24.275	37.253	69.361	O.2	1	UNK0	0.000	
18	   H	23.128	36.235	66.565	 H	1	UNK0	0.000	
19	   C	20.973	34.144	68.371	C.3	1	UNK0	0.000	
20	   C	25.002	37.258	66.648	C.3	1	UNK0	0.000	
21	   C	24.792	38.443	65.680	C.3	1	UNK0	0.000	
22	   C	15.445	33.286	70.701	C.2	1	UNK0	0.000	
23	   C	14.246	32.755	70.437	C.2	1	UNK0	0.000	
24	   N	13.315	33.665	70.122	N.pl3	1	UNK0	0.000	
25	   H	12.345	33.474	69.916	 H	1	UNK0	0.000	
26	   C	13.898	34.874	70.127	C.2	1	UNK0	0.000	
27	   C	15.246	34.700	70.495	C.2	1	UNK0	0.000	
28	   C	13.382	36.115	69.853	C.2	1	UNK0	0.000	
29	   C	16.086	35.801	70.582	C.2	1	UNK0	0.000	
30	   C	15.533	37.038	70.301	C.2	1	UNK0	0.000	
31	   C	14.206	37.211	69.960	C.2	1	UNK0	0.000	
@<TRIPOS>BOND
1 1 6 1
2 1 2 2
3 2 3 1
4 3 4 2
5 4 5 1
6 4 7 1
7 5 6 2
8 1 8 1
9 8 9 1
10 8 10 1
11 10 11 1
12 11 12 1
13 12 13 1
14 13 14 1
15 14 17 2
16 15 19 1
17 13 15 1
18 14 16 1
19 16 18 1
20 10 19 1
21 16 20 1
22 20 21 1
23 3 22 1
24 22 23 2
25 24 26 1
26 23 24 1
27 24 25 1
28 26 27 1
29 27 29 2
30 22 27 1
31 28 31 1
32 26 28 2
33 29 30 1
34 30 31 2
@<TRIPOS>SUBSTRUCTURE
1	UNK0	1	GROUP	1 ****	UNK
