MODEL 1
REMARK VINA RESULT:    -9.188      0.000      0.000
REMARK INTER + INTRA:         -11.068
REMARK INTER:                 -10.915
REMARK INTRA:                  -0.153
REMARK UNBOUND:                 0.268
REMARK  4 active torsions:
REMARK  status: ('A' for Active; 'I' for Inactive)
REMARK    1  A    between atoms: C02_2  and  N03_3 
REMARK       I    between atoms: N03_3  and  C04_5 
REMARK       I    between atoms: C04_5  and  N06_7 
REMARK    2  A    between atoms: C09_10  and  N12_13 
REMARK    3  A    between atoms: N12_13  and  C13_15 
REMARK    4  A    between atoms: C15_17  and  C20_21 
ROOT
ATOM      1  C13 Q3W A   1      18.888  32.381  70.730  0.00  0.00     0.723 A 
ATOM      2  N14 Q3W A   1      17.767  32.997  70.413  0.00  0.00    -0.061 NA
ATOM      3  C15 Q3W A   1      16.676  32.617  71.059  0.00  0.00     0.106 A 
ATOM      4  C16 Q3W A   1      16.729  31.628  72.026  0.00  0.00     0.054 A 
ATOM      5  C18 Q3W A   1      17.973  31.047  72.293  0.00  0.00     0.157 A 
ATOM      6  N19 Q3W A   1      19.050  31.423  71.639  0.00  0.00    -0.074 NA
ATOM      7  I17 Q3W A   1      15.094  30.970  73.145  0.00  0.00    -0.041 I 
ENDROOT
BRANCH   1   8
ATOM      8  N12 Q3W A   1      19.998  32.718  70.099  0.00  0.00    -0.218 N 
ATOM      9  H12 Q3W A   1      20.594  31.953  69.817  0.00  0.00     0.178 HD
BRANCH   8  10
ATOM     10  C09 Q3W A   1      20.469  34.046  69.761  0.00  0.00     0.102 C 
ATOM     11  C08 Q3W A   1      21.422  34.656  70.744  0.00  0.00     0.045 C 
ATOM     12  C07 Q3W A   1      21.844  36.039  70.345  0.00  0.00     0.129 C 
ATOM     13  N06 Q3W A   1      22.344  36.125  68.975  0.00  0.00    -0.334 N 
ATOM     14  C04 Q3W A   1      23.497  36.715  68.576  0.00  0.00     0.318 C 
ATOM     15  C11 Q3W A   1      21.451  35.521  68.024  0.00  0.00     0.129 C 
ATOM     16  N03 Q3W A   1      23.785  36.677  67.192  0.00  0.00    -0.343 N 
ATOM     17  O05 Q3W A   1      24.275  37.253  69.361  0.00  0.00    -0.247 OA
ATOM     18  H03 Q3W A   1      23.128  36.235  66.565  0.00  0.00     0.164 HD
ATOM     19  C10 Q3W A   1      20.973  34.144  68.371  0.00  0.00     0.045 C 
BRANCH  16  20
ATOM     20  C02 Q3W A   1      25.002  37.258  66.648  0.00  0.00     0.120 C 
ATOM     21  C01 Q3W A   1      24.792  38.443  65.680  0.00  0.00     0.026 C 
ENDBRANCH  16  20
ENDBRANCH   8  10
ENDBRANCH   1   8
BRANCH   3  22
ATOM     22  C20 Q3W A   1      15.445  33.286  70.701  0.00  0.00     0.022 A 
ATOM     23  C21 Q3W A   1      14.246  32.755  70.437  0.00  0.00     0.103 A 
ATOM     24  N22 Q3W A   1      13.315  33.665  70.122  0.00  0.00    -0.364 N 
ATOM     25  H22 Q3W A   1      12.345  33.474  69.916  0.00  0.00     0.165 HD
ATOM     26  C23 Q3W A   1      13.898  34.874  70.127  0.00  0.00     0.043 A 
ATOM     27  C24 Q3W A   1      15.246  34.700  70.495  0.00  0.00     0.004 A 
ATOM     28  C28 Q3W A   1      13.382  36.115  69.853  0.00  0.00     0.030 A 
ATOM     29  C25 Q3W A   1      16.086  35.801  70.582  0.00  0.00     0.014 A 
ATOM     30  C26 Q3W A   1      15.533  37.038  70.301  0.00  0.00     0.001 A 
ATOM     31  C27 Q3W A   1      14.206  37.211  69.960  0.00  0.00     0.002 A 
ENDBRANCH   3  22
TORSDOF 4
ENDMDL
MODEL 2
REMARK VINA RESULT:    -9.155      1.902      2.425
REMARK INTER + INTRA:         -11.028
REMARK INTER:                 -11.215
REMARK INTRA:                   0.187
REMARK UNBOUND:                 0.268
REMARK  4 active torsions:
REMARK  status: ('A' for Active; 'I' for Inactive)
REMARK    1  A    between atoms: C02_2  and  N03_3 
REMARK       I    between atoms: N03_3  and  C04_5 
REMARK       I    between atoms: C04_5  and  N06_7 
REMARK    2  A    between atoms: C09_10  and  N12_13 
REMARK    3  A    between atoms: N12_13  and  C13_15 
REMARK    4  A    between atoms: C15_17  and  C20_21 
ROOT
ATOM      1  C13 Q3W A   1      18.668  31.927  72.519  0.00  0.00     0.723 A 
ATOM      2  N14 Q3W A   1      17.907  32.964  72.235  0.00  0.00    -0.061 NA
ATOM      3  C15 Q3W A   1      16.657  32.706  71.882  0.00  0.00     0.106 A 
ATOM      4  C16 Q3W A   1      16.187  31.405  71.828  0.00  0.00     0.054 A 
ATOM      5  C18 Q3W A   1      17.076  30.378  72.159  0.00  0.00     0.157 A 
ATOM      6  N19 Q3W A   1      18.319  30.643  72.500  0.00  0.00    -0.074 NA
ATOM      7  I17 Q3W A   1      14.233  30.867  71.330  0.00  0.00    -0.041 I 
ENDROOT
BRANCH   1   8
ATOM      8  N12 Q3W A   1      19.926  32.138  72.861  0.00  0.00    -0.218 N 
ATOM      9  H12 Q3W A   1      20.166  31.915  73.816  0.00  0.00     0.178 HD
BRANCH   8  10
ATOM     10  C09 Q3W A   1      21.004  32.648  72.039  0.00  0.00     0.102 C 
ATOM     11  C08 Q3W A   1      21.417  31.762  70.902  0.00  0.00     0.045 C 
ATOM     12  C07 Q3W A   1      22.555  32.339  70.113  0.00  0.00     0.129 C 
ATOM     13  N06 Q3W A   1      22.325  33.715  69.677  0.00  0.00    -0.334 N 
ATOM     14  C04 Q3W A   1      22.495  34.198  68.423  0.00  0.00     0.318 C 
ATOM     15  C11 Q3W A   1      21.905  34.570  70.753  0.00  0.00     0.129 C 
ATOM     16  N03 Q3W A   1      22.210  35.570  68.226  0.00  0.00    -0.343 N 
ATOM     17  O05 Q3W A   1      22.868  33.498  67.484  0.00  0.00    -0.247 OA
ATOM     18  H03 Q3W A   1      21.912  36.128  69.013  0.00  0.00     0.164 HD
ATOM     19  C10 Q3W A   1      20.783  34.045  71.596  0.00  0.00     0.045 C 
BRANCH  16  20
ATOM     20  C02 Q3W A   1      22.335  36.198  66.920  0.00  0.00     0.120 C 
ATOM     21  C01 Q3W A   1      21.000  36.509  66.209  0.00  0.00     0.026 C 
ENDBRANCH  16  20
ENDBRANCH   8  10
ENDBRANCH   1   8
BRANCH   3  22
ATOM     22  C20 Q3W A   1      15.827  33.844  71.559  0.00  0.00     0.022 A 
ATOM     23  C21 Q3W A   1      14.502  33.980  71.682  0.00  0.00     0.103 A 
ATOM     24  N22 Q3W A   1      14.044  35.172  71.274  0.00  0.00    -0.364 N 
ATOM     25  H22 Q3W A   1      13.085  35.483  71.309  0.00  0.00     0.165 HD
ATOM     26  C23 Q3W A   1      15.088  35.879  70.811  0.00  0.00     0.043 A 
ATOM     27  C24 Q3W A   1      16.246  35.094  70.973  0.00  0.00     0.004 A 
ATOM     28  C28 Q3W A   1      15.142  37.138  70.269  0.00  0.00     0.030 A 
ATOM     29  C25 Q3W A   1      17.478  35.591  70.574  0.00  0.00     0.014 A 
ATOM     30  C26 Q3W A   1      17.498  36.865  70.033  0.00  0.00     0.001 A 
ATOM     31  C27 Q3W A   1      16.365  37.643  69.893  0.00  0.00     0.002 A 
ENDBRANCH   3  22
TORSDOF 4
ENDMDL
MODEL 3
REMARK VINA RESULT:    -9.119      3.588      6.879
REMARK INTER + INTRA:         -10.983
REMARK INTER:                 -11.182
REMARK INTRA:                   0.200
REMARK UNBOUND:                 0.268
REMARK  4 active torsions:
REMARK  status: ('A' for Active; 'I' for Inactive)
REMARK    1  A    between atoms: C02_2  and  N03_3 
REMARK       I    between atoms: N03_3  and  C04_5 
REMARK       I    between atoms: C04_5  and  N06_7 
REMARK    2  A    between atoms: C09_10  and  N12_13 
REMARK    3  A    between atoms: N12_13  and  C13_15 
REMARK    4  A    between atoms: C15_17  and  C20_21 
ROOT
ATOM      1  C13 Q3W A   1      22.366  34.748  69.599  0.00  0.00     0.723 A 
ATOM      2  N14 Q3W A   1      21.280  35.366  69.183  0.00  0.00    -0.061 NA
ATOM      3  C15 Q3W A   1      21.443  36.293  68.252  0.00  0.00     0.106 A 
ATOM      4  C16 Q3W A   1      22.699  36.578  67.743  0.00  0.00     0.054 A 
ATOM      5  C18 Q3W A   1      23.784  35.855  68.247  0.00  0.00     0.157 A 
ATOM      6  N19 Q3W A   1      23.614  34.943  69.179  0.00  0.00    -0.074 NA
ATOM      7  I17 Q3W A   1      23.084  37.981  66.246  0.00  0.00    -0.041 I 
ENDROOT
BRANCH   1   8
ATOM      8  N12 Q3W A   1      22.252  33.827  70.538  0.00  0.00    -0.218 N 
ATOM      9  H12 Q3W A   1      23.104  33.346  70.791  0.00  0.00     0.178 HD
BRANCH   8  10
ATOM     10  C09 Q3W A   1      21.059  33.419  71.253  0.00  0.00     0.102 C 
ATOM     11  C08 Q3W A   1      20.461  34.463  72.148  0.00  0.00     0.045 C 
ATOM     12  C07 Q3W A   1      19.248  33.962  72.876  0.00  0.00     0.129 C 
ATOM     13  N06 Q3W A   1      18.248  33.358  71.998  0.00  0.00    -0.334 N 
ATOM     14  C04 Q3W A   1      16.921  33.633  71.984  0.00  0.00     0.318 C 
ATOM     15  C11 Q3W A   1      18.813  32.373  71.116  0.00  0.00     0.129 C 
ATOM     16  N03 Q3W A   1      16.135  32.926  71.044  0.00  0.00    -0.343 N 
ATOM     17  O05 Q3W A   1      16.405  34.458  72.735  0.00  0.00    -0.247 OA
ATOM     18  H03 Q3W A   1      16.581  32.248  70.442  0.00  0.00     0.164 HD
ATOM     19  C10 Q3W A   1      20.041  32.800  70.371  0.00  0.00     0.045 C 
BRANCH  16  20
ATOM     20  C02 Q3W A   1      14.704  33.151  70.921  0.00  0.00     0.120 C 
ATOM     21  C01 Q3W A   1      14.288  34.180  69.848  0.00  0.00     0.026 C 
ENDBRANCH  16  20
ENDBRANCH   8  10
ENDBRANCH   1   8
BRANCH   3  22
ATOM     22  C20 Q3W A   1      20.251  36.979  67.805  0.00  0.00     0.022 A 
ATOM     23  C21 Q3W A   1      20.037  37.632  66.657  0.00  0.00     0.103 A 
ATOM     24  N22 Q3W A   1      18.814  38.172  66.567  0.00  0.00    -0.364 N 
ATOM     25  H22 Q3W A   1      18.446  38.680  65.776  0.00  0.00     0.165 HD
ATOM     26  C23 Q3W A   1      18.164  37.918  67.714  0.00  0.00     0.043 A 
ATOM     27  C24 Q3W A   1      19.020  37.158  68.535  0.00  0.00     0.004 A 
ATOM     28  C28 Q3W A   1      16.902  38.269  68.121  0.00  0.00     0.030 A 
ATOM     29  C25 Q3W A   1      18.592  36.752  69.791  0.00  0.00     0.014 A 
ATOM     30  C26 Q3W A   1      17.313  37.122  70.170  0.00  0.00     0.001 A 
ATOM     31  C27 Q3W A   1      16.466  37.850  69.357  0.00  0.00     0.002 A 
ENDBRANCH   3  22
TORSDOF 4
ENDMDL
MODEL 4
REMARK VINA RESULT:    -9.016      2.187      3.188
REMARK INTER + INTRA:         -10.856
REMARK INTER:                 -10.611
REMARK INTRA:                  -0.246
REMARK UNBOUND:                 0.268
REMARK  4 active torsions:
REMARK  status: ('A' for Active; 'I' for Inactive)
REMARK    1  A    between atoms: C02_2  and  N03_3 
REMARK       I    between atoms: N03_3  and  C04_5 
REMARK       I    between atoms: C04_5  and  N06_7 
REMARK    2  A    between atoms: C09_10  and  N12_13 
REMARK    3  A    between atoms: N12_13  and  C13_15 
REMARK    4  A    between atoms: C15_17  and  C20_21 
ROOT
ATOM      1  C13 Q3W A   1      20.722  34.629  70.046  0.00  0.00     0.723 A 
ATOM      2  N14 Q3W A   1      19.609  35.310  69.867  0.00  0.00    -0.061 NA
ATOM      3  C15 Q3W A   1      18.643  35.115  70.751  0.00  0.00     0.106 A 
ATOM      4  C16 Q3W A   1      18.815  34.243  71.813  0.00  0.00     0.054 A 
ATOM      5  C18 Q3W A   1      20.041  33.578  71.915  0.00  0.00     0.157 A 
ATOM      6  N19 Q3W A   1      20.991  33.770  71.026  0.00  0.00    -0.074 NA
ATOM      7  I17 Q3W A   1      17.393  33.881  73.297  0.00  0.00    -0.041 I 
ENDROOT
BRANCH   1   8
ATOM      8  N12 Q3W A   1      21.705  34.781  69.178  0.00  0.00    -0.218 N 
ATOM      9  H12 Q3W A   1      22.516  34.196  69.323  0.00  0.00     0.178 HD
BRANCH   8  10
ATOM     10  C09 Q3W A   1      21.768  35.680  68.043  0.00  0.00     0.102 C 
ATOM     11  C08 Q3W A   1      21.920  37.132  68.385  0.00  0.00     0.045 C 
ATOM     12  C07 Q3W A   1      21.948  38.005  67.165  0.00  0.00     0.129 C 
ATOM     13  N06 Q3W A   1      22.921  37.576  66.163  0.00  0.00    -0.334 N 
ATOM     14  C04 Q3W A   1      23.839  38.361  65.548  0.00  0.00     0.318 C 
ATOM     15  C11 Q3W A   1      22.803  36.179  65.844  0.00  0.00     0.129 C 
ATOM     16  N03 Q3W A   1      24.686  37.730  64.607  0.00  0.00    -0.343 N 
ATOM     17  O05 Q3W A   1      23.955  39.561  65.786  0.00  0.00    -0.247 OA
ATOM     18  H03 Q3W A   1      24.567  36.744  64.422  0.00  0.00     0.164 HD
ATOM     19  C10 Q3W A   1      22.748  35.250  67.019  0.00  0.00     0.045 C 
BRANCH  16  20
ATOM     20  C02 Q3W A   1      25.723  38.464  63.898  0.00  0.00     0.120 C 
ATOM     21  C01 Q3W A   1      26.884  37.604  63.356  0.00  0.00     0.026 C 
ENDBRANCH  16  20
ENDBRANCH   8  10
ENDBRANCH   1   8
BRANCH   3  22
ATOM     22  C20 Q3W A   1      17.418  35.855  70.547  0.00  0.00     0.022 A 
ATOM     23  C21 Q3W A   1      17.212  37.175  70.608  0.00  0.00     0.103 A 
ATOM     24  N22 Q3W A   1      15.941  37.531  70.378  0.00  0.00    -0.364 N 
ATOM     25  H22 Q3W A   1      15.584  38.475  70.353  0.00  0.00     0.165 HD
ATOM     26  C23 Q3W A   1      15.225  36.411  70.189  0.00  0.00     0.043 A 
ATOM     27  C24 Q3W A   1      16.107  35.317  70.275  0.00  0.00     0.004 A 
ATOM     28  C28 Q3W A   1      13.887  36.238  69.940  0.00  0.00     0.030 A 
ATOM     29  C25 Q3W A   1      15.624  34.026  70.112  0.00  0.00     0.014 A 
ATOM     30  C26 Q3W A   1      14.270  33.887  69.861  0.00  0.00     0.001 A 
ATOM     31  C27 Q3W A   1      13.409  34.962  69.756  0.00  0.00     0.002 A 
ENDBRANCH   3  22
TORSDOF 4
ENDMDL
MODEL 5
REMARK VINA RESULT:    -8.930      4.485      8.320
REMARK INTER + INTRA:         -10.750
REMARK INTER:                 -11.052
REMARK INTRA:                   0.302
REMARK UNBOUND:                 0.268
REMARK  4 active torsions:
REMARK  status: ('A' for Active; 'I' for Inactive)
REMARK    1  A    between atoms: C02_2  and  N03_3 
REMARK       I    between atoms: N03_3  and  C04_5 
REMARK       I    between atoms: C04_5  and  N06_7 
REMARK    2  A    between atoms: C09_10  and  N12_13 
REMARK    3  A    between atoms: N12_13  and  C13_15 
REMARK    4  A    between atoms: C15_17  and  C20_21 
ROOT
ATOM      1  C13 Q3W A   1      18.697  33.008  71.902  0.00  0.00     0.723 A 
ATOM      2  N14 Q3W A   1      17.687  33.788  71.576  0.00  0.00    -0.061 NA
ATOM      3  C15 Q3W A   1      17.976  34.878  70.884  0.00  0.00     0.106 A 
ATOM      4  C16 Q3W A   1      19.280  35.166  70.521  0.00  0.00     0.054 A 
ATOM      5  C18 Q3W A   1      20.277  34.265  70.909  0.00  0.00     0.157 A 
ATOM      6  N19 Q3W A   1      19.981  33.189  71.605  0.00  0.00    -0.074 NA
ATOM      7  I17 Q3W A   1      19.863  36.825  69.395  0.00  0.00    -0.041 I 
ENDROOT
BRANCH   1   8
ATOM      8  N12 Q3W A   1      18.456  31.917  72.606  0.00  0.00    -0.218 N 
ATOM      9  H12 Q3W A   1      19.192  31.625  73.233  0.00  0.00     0.178 HD
BRANCH   8  10
ATOM     10  C09 Q3W A   1      17.268  31.087  72.594  0.00  0.00     0.102 C 
ATOM     11  C08 Q3W A   1      17.427  29.733  73.218  0.00  0.00     0.045 C 
ATOM     12  C07 Q3W A   1      16.168  28.920  73.143  0.00  0.00     0.129 C 
ATOM     13  N06 Q3W A   1      14.990  29.620  73.650  0.00  0.00    -0.334 N 
ATOM     14  C04 Q3W A   1      14.089  29.135  74.538  0.00  0.00     0.318 C 
ATOM     15  C11 Q3W A   1      14.839  30.930  73.078  0.00  0.00     0.129 C 
ATOM     16  N03 Q3W A   1      13.020  29.992  74.891  0.00  0.00    -0.343 N 
ATOM     17  O05 Q3W A   1      14.179  28.014  75.034  0.00  0.00    -0.247 OA
ATOM     18  H03 Q3W A   1      12.962  30.906  74.466  0.00  0.00     0.164 HD
ATOM     19  C10 Q3W A   1      16.066  31.790  73.101  0.00  0.00     0.045 C 
BRANCH  16  20
ATOM     20  C02 Q3W A   1      12.003  29.591  75.850  0.00  0.00     0.120 C 
ATOM     21  C01 Q3W A   1      10.743  30.483  75.886  0.00  0.00     0.026 C 
ENDBRANCH  16  20
ENDBRANCH   8  10
ENDBRANCH   1   8
BRANCH   3  22
ATOM     22  C20 Q3W A   1      16.867  35.738  70.537  0.00  0.00     0.022 A 
ATOM     23  C21 Q3W A   1      16.807  37.075  70.537  0.00  0.00     0.103 A 
ATOM     24  N22 Q3W A   1      15.612  37.558  70.172  0.00  0.00    -0.364 N 
ATOM     25  H22 Q3W A   1      15.369  38.534  70.082  0.00  0.00     0.165 HD
ATOM     26  C23 Q3W A   1      14.795  36.517  69.946  0.00  0.00     0.043 A 
ATOM     27  C24 Q3W A   1      15.535  35.337  70.152  0.00  0.00     0.004 A 
ATOM     28  C28 Q3W A   1      13.476  36.482  69.571  0.00  0.00     0.030 A 
ATOM     29  C25 Q3W A   1      14.927  34.101  69.982  0.00  0.00     0.014 A 
ATOM     30  C26 Q3W A   1      13.596  34.102  69.602  0.00  0.00     0.001 A 
ATOM     31  C27 Q3W A   1      12.876  35.259  69.380  0.00  0.00     0.002 A 
ENDBRANCH   3  22
TORSDOF 4
ENDMDL
MODEL 6
REMARK VINA RESULT:    -8.858      5.927     10.135
REMARK INTER + INTRA:         -10.661
REMARK INTER:                 -10.513
REMARK INTRA:                  -0.148
REMARK UNBOUND:                 0.268
REMARK  4 active torsions:
REMARK  status: ('A' for Active; 'I' for Inactive)
REMARK    1  A    between atoms: C02_2  and  N03_3 
REMARK       I    between atoms: N03_3  and  C04_5 
REMARK       I    between atoms: C04_5  and  N06_7 
REMARK    2  A    between atoms: C09_10  and  N12_13 
REMARK    3  A    between atoms: N12_13  and  C13_15 
REMARK    4  A    between atoms: C15_17  and  C20_21 
ROOT
ATOM      1  C13 Q3W A   1      14.358  30.572  72.565  0.00  0.00     0.723 A 
ATOM      2  N14 Q3W A   1      14.404  31.856  72.275  0.00  0.00    -0.061 NA
ATOM      3  C15 Q3W A   1      15.489  32.288  71.653  0.00  0.00     0.106 A 
ATOM      4  C16 Q3W A   1      16.513  31.417  71.320  0.00  0.00     0.054 A 
ATOM      5  C18 Q3W A   1      16.358  30.071  71.664  0.00  0.00     0.157 A 
ATOM      6  N19 Q3W A   1      15.280  29.653  72.291  0.00  0.00    -0.074 NA
ATOM      7  I17 Q3W A   1      18.252  31.960  70.302  0.00  0.00    -0.041 I 
ENDROOT
BRANCH   1   8
ATOM      8  N12 Q3W A   1      13.300  30.101  73.199  0.00  0.00    -0.218 N 
ATOM      9  H12 Q3W A   1      12.412  30.231  72.735  0.00  0.00     0.178 HD
BRANCH   8  10
ATOM     10  C09 Q3W A   1      13.252  29.422  74.478  0.00  0.00     0.102 C 
ATOM     11  C08 Q3W A   1      14.495  29.532  75.309  0.00  0.00     0.045 C 
ATOM     12  C07 Q3W A   1      14.384  28.782  76.603  0.00  0.00     0.129 C 
ATOM     13  N06 Q3W A   1      13.186  29.114  77.370  0.00  0.00    -0.334 N 
ATOM     14  C04 Q3W A   1      13.138  29.441  78.684  0.00  0.00     0.318 C 
ATOM     15  C11 Q3W A   1      11.987  29.037  76.579  0.00  0.00     0.129 C 
ATOM     16  N03 Q3W A   1      11.862  29.729  79.222  0.00  0.00    -0.343 N 
ATOM     17  O05 Q3W A   1      14.141  29.501  79.392  0.00  0.00    -0.247 OA
ATOM     18  H03 Q3W A   1      11.051  29.667  78.623  0.00  0.00     0.164 HD
ATOM     19  C10 Q3W A   1      12.037  29.749  75.261  0.00  0.00     0.045 C 
BRANCH  16  20
ATOM     20  C02 Q3W A   1      11.687  30.112  80.614  0.00  0.00     0.120 C 
ATOM     21  C01 Q3W A   1      10.393  30.895  80.924  0.00  0.00     0.026 C 
ENDBRANCH  16  20
ENDBRANCH   8  10
ENDBRANCH   1   8
BRANCH   3  22
ATOM     22  C20 Q3W A   1      15.542  33.700  71.347  0.00  0.00     0.022 A 
ATOM     23  C21 Q3W A   1      16.413  34.621  71.775  0.00  0.00     0.103 A 
ATOM     24  N22 Q3W A   1      16.166  35.851  71.307  0.00  0.00    -0.364 N 
ATOM     25  H22 Q3W A   1      16.717  36.677  71.488  0.00  0.00     0.165 HD
ATOM     26  C23 Q3W A   1      15.056  35.793  70.554  0.00  0.00     0.043 A 
ATOM     27  C24 Q3W A   1      14.619  34.454  70.534  0.00  0.00     0.004 A 
ATOM     28  C28 Q3W A   1      14.385  36.778  69.874  0.00  0.00     0.030 A 
ATOM     29  C25 Q3W A   1      13.482  34.109  69.819  0.00  0.00     0.014 A 
ATOM     30  C26 Q3W A   1      12.830  35.127  69.144  0.00  0.00     0.001 A 
ATOM     31  C27 Q3W A   1      13.269  36.436  69.147  0.00  0.00     0.002 A 
ENDBRANCH   3  22
TORSDOF 4
ENDMDL
MODEL 7
REMARK VINA RESULT:    -8.791      1.775      2.206
REMARK INTER + INTRA:         -10.579
REMARK INTER:                 -10.930
REMARK INTRA:                   0.351
REMARK UNBOUND:                 0.268
REMARK  4 active torsions:
REMARK  status: ('A' for Active; 'I' for Inactive)
REMARK    1  A    between atoms: C02_2  and  N03_3 
REMARK       I    between atoms: N03_3  and  C04_5 
REMARK       I    between atoms: C04_5  and  N06_7 
REMARK    2  A    between atoms: C09_10  and  N12_13 
REMARK    3  A    between atoms: N12_13  and  C13_15 
REMARK    4  A    between atoms: C15_17  and  C20_21 
ROOT
ATOM      1  C13 Q3W A   1      20.385  33.685  70.377  0.00  0.00     0.723 A 
ATOM      2  N14 Q3W A   1      19.122  34.055  70.329  0.00  0.00    -0.061 NA
ATOM      3  C15 Q3W A   1      18.247  33.265  70.930  0.00  0.00     0.106 A 
ATOM      4  C16 Q3W A   1      18.657  32.114  71.582  0.00  0.00     0.054 A 
ATOM      5  C18 Q3W A   1      20.024  31.820  71.582  0.00  0.00     0.157 A 
ATOM      6  N19 Q3W A   1      20.885  32.606  70.974  0.00  0.00    -0.074 NA
ATOM      7  I17 Q3W A   1      17.387  30.810  72.603  0.00  0.00    -0.041 I 
ENDROOT
BRANCH   1   8
ATOM      8  N12 Q3W A   1      21.290  34.437  69.777  0.00  0.00    -0.218 N 
ATOM      9  H12 Q3W A   1      22.204  34.456  70.208  0.00  0.00     0.178 HD
BRANCH   8  10
ATOM     10  C09 Q3W A   1      21.139  35.237  68.579  0.00  0.00     0.102 C 
ATOM     11  C08 Q3W A   1      20.533  36.592  68.787  0.00  0.00     0.045 C 
ATOM     12  C07 Q3W A   1      20.380  37.351  67.502  0.00  0.00     0.129 C 
ATOM     13  N06 Q3W A   1      21.608  37.418  66.712  0.00  0.00    -0.334 N 
ATOM     14  C04 Q3W A   1      22.153  38.532  66.168  0.00  0.00     0.318 C 
ATOM     15  C11 Q3W A   1      22.213  36.127  66.526  0.00  0.00     0.129 C 
ATOM     16  N03 Q3W A   1      23.355  38.362  65.441  0.00  0.00    -0.343 N 
ATOM     17  O05 Q3W A   1      21.654  39.648  66.296  0.00  0.00    -0.247 OA
ATOM     18  H03 Q3W A   1      23.743  37.435  65.344  0.00  0.00     0.164 HD
ATOM     19  C10 Q3W A   1      22.378  35.305  67.769  0.00  0.00     0.045 C 
BRANCH  16  20
ATOM     20  C02 Q3W A   1      24.044  39.487  64.829  0.00  0.00     0.120 C 
ATOM     21  C01 Q3W A   1      25.133  40.146  65.702  0.00  0.00     0.026 C 
ENDBRANCH  16  20
ENDBRANCH   8  10
ENDBRANCH   1   8
BRANCH   3  22
ATOM     22  C20 Q3W A   1      16.859  33.666  70.865  0.00  0.00     0.022 A 
ATOM     23  C21 Q3W A   1      15.760  32.906  70.918  0.00  0.00     0.103 A 
ATOM     24  N22 Q3W A   1      14.620  33.602  70.815  0.00  0.00    -0.364 N 
ATOM     25  H22 Q3W A   1      13.686  33.221  70.858  0.00  0.00     0.165 HD
ATOM     26  C23 Q3W A   1      14.939  34.895  70.643  0.00  0.00     0.043 A 
ATOM     27  C24 Q3W A   1      16.343  35.000  70.675  0.00  0.00     0.004 A 
ATOM     28  C28 Q3W A   1      14.139  35.996  70.470  0.00  0.00     0.030 A 
ATOM     29  C25 Q3W A   1      16.946  36.240  70.523  0.00  0.00     0.014 A 
ATOM     30  C26 Q3W A   1      16.110  37.330  70.351  0.00  0.00     0.001 A 
ATOM     31  C27 Q3W A   1      14.733  37.230  70.341  0.00  0.00     0.002 A 
ENDBRANCH   3  22
TORSDOF 4
ENDMDL
MODEL 8
REMARK VINA RESULT:    -8.589      4.355      7.947
REMARK INTER + INTRA:         -10.329
REMARK INTER:                 -10.115
REMARK INTRA:                  -0.214
REMARK UNBOUND:                 0.268
REMARK  4 active torsions:
REMARK  status: ('A' for Active; 'I' for Inactive)
REMARK    1  A    between atoms: C02_2  and  N03_3 
REMARK       I    between atoms: N03_3  and  C04_5 
REMARK       I    between atoms: C04_5  and  N06_7 
REMARK    2  A    between atoms: C09_10  and  N12_13 
REMARK    3  A    between atoms: N12_13  and  C13_15 
REMARK    4  A    between atoms: C15_17  and  C20_21 
ROOT
ATOM      1  C13 Q3W A   1      18.901  33.465  72.316  0.00  0.00     0.723 A 
ATOM      2  N14 Q3W A   1      17.831  34.137  71.946  0.00  0.00    -0.061 NA
ATOM      3  C15 Q3W A   1      18.011  35.099  71.055  0.00  0.00     0.106 A 
ATOM      4  C16 Q3W A   1      19.268  35.367  70.541  0.00  0.00     0.054 A 
ATOM      5  C18 Q3W A   1      20.335  34.585  70.994  0.00  0.00     0.157 A 
ATOM      6  N19 Q3W A   1      20.148  33.637  71.886  0.00  0.00    -0.074 NA
ATOM      7  I17 Q3W A   1      19.679  36.823  69.103  0.00  0.00    -0.041 I 
ENDROOT
BRANCH   1   8
ATOM      8  N12 Q3W A   1      18.769  32.506  73.215  0.00  0.00    -0.218 N 
ATOM      9  H12 Q3W A   1      18.785  32.801  74.180  0.00  0.00     0.178 HD
BRANCH   8  10
ATOM     10  C09 Q3W A   1      18.604  31.084  72.989  0.00  0.00     0.102 C 
ATOM     11  C08 Q3W A   1      19.352  30.195  73.937  0.00  0.00     0.045 C 
ATOM     12  C07 Q3W A   1      19.158  28.740  73.627  0.00  0.00     0.129 C 
ATOM     13  N06 Q3W A   1      17.755  28.350  73.506  0.00  0.00    -0.334 N 
ATOM     14  C04 Q3W A   1      17.160  27.296  74.114  0.00  0.00     0.318 C 
ATOM     15  C11 Q3W A   1      17.019  29.210  72.619  0.00  0.00     0.129 C 
ATOM     16  N03 Q3W A   1      15.782  27.107  73.855  0.00  0.00    -0.343 N 
ATOM     17  O05 Q3W A   1      17.763  26.533  74.865  0.00  0.00    -0.247 OA
ATOM     18  H03 Q3W A   1      15.308  27.743  73.228  0.00  0.00     0.164 HD
ATOM     19  C10 Q3W A   1      17.184  30.680  72.860  0.00  0.00     0.045 C 
BRANCH  16  20
ATOM     20  C02 Q3W A   1      15.030  26.023  74.465  0.00  0.00     0.120 C 
ATOM     21  C01 Q3W A   1      15.089  24.675  73.714  0.00  0.00     0.026 C 
ENDBRANCH  16  20
ENDBRANCH   8  10
ENDBRANCH   1   8
BRANCH   3  22
ATOM     22  C20 Q3W A   1      16.837  35.845  70.659  0.00  0.00     0.022 A 
ATOM     23  C21 Q3W A   1      16.649  37.169  70.635  0.00  0.00     0.103 A 
ATOM     24  N22 Q3W A   1      15.427  37.530  70.225  0.00  0.00    -0.364 N 
ATOM     25  H22 Q3W A   1      15.094  38.477  70.111  0.00  0.00     0.165 HD
ATOM     26  C23 Q3W A   1      14.721  36.412  69.991  0.00  0.00     0.043 A 
ATOM     27  C24 Q3W A   1      15.563  35.312  70.240  0.00  0.00     0.004 A 
ATOM     28  C28 Q3W A   1      13.424  36.246  69.575  0.00  0.00     0.030 A 
ATOM     29  C25 Q3W A   1      15.082  34.021  70.071  0.00  0.00     0.014 A 
ATOM     30  C26 Q3W A   1      13.770  33.889  69.650  0.00  0.00     0.001 A 
ATOM     31  C27 Q3W A   1      12.950  34.969  69.386  0.00  0.00     0.002 A 
ENDBRANCH   3  22
TORSDOF 4
ENDMDL
MODEL 9
REMARK VINA RESULT:    -8.469      5.274      9.581
REMARK INTER + INTRA:         -10.181
REMARK INTER:                 -10.450
REMARK INTRA:                   0.268
REMARK UNBOUND:                 0.268
REMARK  4 active torsions:
REMARK  status: ('A' for Active; 'I' for Inactive)
REMARK    1  A    between atoms: C02_2  and  N03_3 
REMARK       I    between atoms: N03_3  and  C04_5 
REMARK       I    between atoms: C04_5  and  N06_7 
REMARK    2  A    between atoms: C09_10  and  N12_13 
REMARK    3  A    between atoms: N12_13  and  C13_15 
REMARK    4  A    between atoms: C15_17  and  C20_21 
ROOT
ATOM      1  C13 Q3W A   1      16.777  31.106  71.859  0.00  0.00     0.723 A 
ATOM      2  N14 Q3W A   1      16.270  32.283  71.555  0.00  0.00    -0.061 NA
ATOM      3  C15 Q3W A   1      17.122  33.211  71.149  0.00  0.00     0.106 A 
ATOM      4  C16 Q3W A   1      18.476  32.938  71.045  0.00  0.00     0.054 A 
ATOM      5  C18 Q3W A   1      18.907  31.651  71.382  0.00  0.00     0.157 A 
ATOM      6  N19 Q3W A   1      18.054  30.739  71.794  0.00  0.00    -0.074 NA
ATOM      7  I17 Q3W A   1      19.915  34.295  70.377  0.00  0.00    -0.041 I 
ENDROOT
BRANCH   1   8
ATOM      8  N12 Q3W A   1      15.964  30.156  72.283  0.00  0.00    -0.218 N 
ATOM      9  H12 Q3W A   1      15.974  29.297  71.752  0.00  0.00     0.178 HD
BRANCH   8  10
ATOM     10  C09 Q3W A   1      15.059  30.190  73.415  0.00  0.00     0.102 C 
ATOM     11  C08 Q3W A   1      13.758  30.896  73.173  0.00  0.00     0.045 C 
ATOM     12  C07 Q3W A   1      12.887  30.917  74.394  0.00  0.00     0.129 C 
ATOM     13  N06 Q3W A   1      12.689  29.600  74.994  0.00  0.00    -0.334 N 
ATOM     14  C04 Q3W A   1      11.504  29.051  75.354  0.00  0.00     0.318 C 
ATOM     15  C11 Q3W A   1      13.928  28.901  75.209  0.00  0.00     0.129 C 
ATOM     16  N03 Q3W A   1      11.549  27.754  75.919  0.00  0.00    -0.343 N 
ATOM     17  O05 Q3W A   1      10.430  29.627  75.199  0.00  0.00    -0.247 OA
ATOM     18  H03 Q3W A   1      12.444  27.303  76.043  0.00  0.00     0.164 HD
ATOM     19  C10 Q3W A   1      14.857  28.859  74.034  0.00  0.00     0.045 C 
BRANCH  16  20
ATOM     20  C02 Q3W A   1      10.341  27.055  76.325  0.00  0.00     0.120 C 
ATOM     21  C01 Q3W A   1      10.278  25.564  75.930  0.00  0.00     0.026 C 
ENDBRANCH  16  20
ENDBRANCH   8  10
ENDBRANCH   1   8
BRANCH   3  22
ATOM     22  C20 Q3W A   1      16.566  34.506  70.827  0.00  0.00     0.022 A 
ATOM     23  C21 Q3W A   1      17.095  35.720  71.019  0.00  0.00     0.103 A 
ATOM     24  N22 Q3W A   1      16.301  36.721  70.615  0.00  0.00    -0.364 N 
ATOM     25  H22 Q3W A   1      16.524  37.705  70.648  0.00  0.00     0.165 HD
ATOM     26  C23 Q3W A   1      15.157  36.184  70.160  0.00  0.00     0.043 A 
ATOM     27  C24 Q3W A   1      15.269  34.784  70.260  0.00  0.00     0.004 A 
ATOM     28  C28 Q3W A   1      14.029  36.782  69.659  0.00  0.00     0.030 A 
ATOM     29  C25 Q3W A   1      14.217  33.977  69.851  0.00  0.00     0.014 A 
ATOM     30  C26 Q3W A   1      13.094  34.612  69.349  0.00  0.00     0.001 A 
ATOM     31  C27 Q3W A   1      12.993  35.984  69.232  0.00  0.00     0.002 A 
ENDBRANCH   3  22
TORSDOF 4
ENDMDL
MODEL 10
REMARK VINA RESULT:    -8.341      4.249      9.413
REMARK INTER + INTRA:         -10.024
REMARK INTER:                  -9.449
REMARK INTRA:                  -0.575
REMARK UNBOUND:                 0.268
REMARK  4 active torsions:
REMARK  status: ('A' for Active; 'I' for Inactive)
REMARK    1  A    between atoms: C02_2  and  N03_3 
REMARK       I    between atoms: N03_3  and  C04_5 
REMARK       I    between atoms: C04_5  and  N06_7 
REMARK    2  A    between atoms: C09_10  and  N12_13 
REMARK    3  A    between atoms: N12_13  and  C13_15 
REMARK    4  A    between atoms: C15_17  and  C20_21 
ROOT
ATOM      1  C13 Q3W A   1      20.242  35.157  70.303  0.00  0.00     0.723 A 
ATOM      2  N14 Q3W A   1      21.301  34.618  69.735  0.00  0.00    -0.061 NA
ATOM      3  C15 Q3W A   1      21.787  35.238  68.673  0.00  0.00     0.106 A 
ATOM      4  C16 Q3W A   1      21.205  36.402  68.199  0.00  0.00     0.054 A 
ATOM      5  C18 Q3W A   1      20.090  36.896  68.883  0.00  0.00     0.157 A 
ATOM      6  N19 Q3W A   1      19.608  36.266  69.933  0.00  0.00    -0.074 NA
ATOM      7  I17 Q3W A   1      21.900  37.499  66.565  0.00  0.00    -0.041 I 
ENDROOT
BRANCH   1   8
ATOM      8  N12 Q3W A   1      19.714  34.562  71.357  0.00  0.00    -0.218 N 
ATOM      9  H12 Q3W A   1      20.180  34.728  72.237  0.00  0.00     0.178 HD
BRANCH   8  10
ATOM     10  C09 Q3W A   1      18.550  33.700  71.410  0.00  0.00     0.102 C 
ATOM     11  C08 Q3W A   1      18.630  32.463  70.566  0.00  0.00     0.045 C 
ATOM     12  C07 Q3W A   1      17.382  31.636  70.647  0.00  0.00     0.129 C 
ATOM     13  N06 Q3W A   1      16.968  31.336  72.016  0.00  0.00    -0.334 N 
ATOM     14  C04 Q3W A   1      16.638  30.116  72.506  0.00  0.00     0.318 C 
ATOM     15  C11 Q3W A   1      16.911  32.510  72.844  0.00  0.00     0.129 C 
ATOM     16  N03 Q3W A   1      16.267  30.058  73.870  0.00  0.00    -0.343 N 
ATOM     17  O05 Q3W A   1      16.661  29.096  71.822  0.00  0.00    -0.247 OA
ATOM     18  H03 Q3W A   1      16.248  30.911  74.411  0.00  0.00     0.164 HD
ATOM     19  C10 Q3W A   1      18.119  33.395  72.795  0.00  0.00     0.045 C 
BRANCH  16  20
ATOM     20  C02 Q3W A   1      15.912  28.804  74.514  0.00  0.00     0.120 C 
ATOM     21  C01 Q3W A   1      14.765  28.893  75.544  0.00  0.00     0.026 C 
ENDBRANCH  16  20
ENDBRANCH   8  10
ENDBRANCH   1   8
BRANCH   3  22
ATOM     22  C20 Q3W A   1      22.943  34.638  68.044  0.00  0.00     0.022 A 
ATOM     23  C21 Q3W A   1      23.026  33.496  67.353  0.00  0.00     0.103 A 
ATOM     24  N22 Q3W A   1      24.262  33.223  66.915  0.00  0.00    -0.364 N 
ATOM     25  H22 Q3W A   1      24.531  32.427  66.355  0.00  0.00     0.165 HD
ATOM     26  C23 Q3W A   1      25.080  34.194  67.351  0.00  0.00     0.043 A 
ATOM     27  C24 Q3W A   1      24.301  35.125  68.065  0.00  0.00     0.004 A 
ATOM     28  C28 Q3W A   1      26.432  34.363  67.188  0.00  0.00     0.030 A 
ATOM     29  C25 Q3W A   1      24.902  36.241  68.628  0.00  0.00     0.014 A 
ATOM     30  C26 Q3W A   1      26.267  36.382  68.444  0.00  0.00     0.001 A 
ATOM     31  C27 Q3W A   1      27.028  35.480  67.726  0.00  0.00     0.002 A 
ENDBRANCH   3  22
TORSDOF 4
ENDMDL
