# created with PyMOL 2.5.2
@<TRIPOS>MOLECULE
out/docking_results/vina_output/6e43_docked_ligand.pdbqt
36 39 1                 
SMALL
USER_CHARGES
@<TRIPOS>ATOM
1	   C	22.130	79.636	12.228	C.2	1	UNK0	0.000	
2	   C	21.681	78.372	12.611	C.2	1	UNK0	0.000	
3	   C	21.676	78.031	13.955	C.2	1	UNK0	0.000	
4	   C	22.205	78.899	14.889	C.2	1	UNK0	0.000	
5	   C	22.631	80.170	14.515	C.2	1	UNK0	0.000	
6	   C	22.602	80.543	13.173	C.2	1	UNK0	0.000	
7	   N	21.294	76.693	14.380	N.pl3	1	UNK0	0.000	
8	   H	21.742	76.294	15.193	 H	1	UNK0	0.000	
9	   C	20.296	75.912	13.680	C.2	1	UNK0	0.000	
10	   N	20.148	74.576	14.230	N.pl3	1	UNK0	0.000	
11	   O	19.649	76.369	12.787	O.2	1	UNK0	0.000	
12	   H	20.712	74.275	15.012	 H	1	UNK0	0.000	
13	   C	19.168	73.678	13.632	C.2	1	UNK0	0.000	
14	   C	19.612	72.409	13.267	C.2	1	UNK0	0.000	
15	   C	18.727	71.519	12.674	C.2	1	UNK0	0.000	
16	   C	17.414	71.947	12.465	C.2	1	UNK0	0.000	
17	   C	16.989	73.220	12.823	C.2	1	UNK0	0.000	
18	   C	16.409	70.980	11.806	C.3	1	UNK0	0.000	
19	   C	17.866	74.106	13.417	C.2	1	UNK0	0.000	
20	   N	22.208	78.535	16.343	N.pl3	1	UNK0	0.000	
21	   C	23.461	78.128	17.079	C.3	1	UNK0	0.000	
22	   C	24.734	78.249	16.172	C.3	1	UNK0	0.000	
23	   C	25.826	79.005	16.998	C.3	1	UNK0	0.000	
24	   C	25.158	76.823	15.805	C.3	1	UNK0	0.000	
25	   C	20.937	78.887	17.099	C.3	1	UNK0	0.000	
26	   C	20.792	78.088	18.390	C.3	1	UNK0	0.000	
27	   C	19.578	78.637	19.177	C.3	1	UNK0	0.000	
28	   C	19.715	80.146	19.429	C.3	1	UNK0	0.000	
29	   C	19.919	80.961	18.145	C.3	1	UNK0	0.000	
30	   C	21.104	80.393	17.341	C.3	1	UNK0	0.000	
31	   C	22.094	80.040	10.728	C.3	1	UNK0	0.000	
32	   C	21.754	79.253	9.458	C.3	1	UNK0	0.000	
33	   C	20.862	80.409	9.899	C.3	1	UNK0	0.000	
34	   C	19.510	80.032	10.529	C.2	1	UNK0	0.000	
35	   O	19.125	78.827	10.607	O.co2	1	UNK0	0.000	
36	   O	18.770	80.947	10.969	O.co2	1	UNK0	0.000	
@<TRIPOS>BOND
1 1 2 2
2 1 6 1
3 2 3 1
4 3 7 1
5 3 4 2
6 4 20 1
7 4 5 1
8 5 6 2
9 7 8 1
10 9 10 1
11 7 9 1
12 10 12 1
13 9 11 2
14 10 13 1
15 13 14 2
16 14 15 1
17 15 16 2
18 16 17 1
19 17 19 2
20 16 18 1
21 13 19 1
22 20 21 1
23 20 25 1
24 22 23 1
25 21 22 1
26 22 24 1
27 25 30 1
28 25 26 1
29 26 27 1
30 27 28 1
31 28 29 1
32 29 30 1
33 1 31 1
34 32 33 1
35 31 32 1
36 33 34 1
37 31 33 1
38 34 35 2
39 34 36 1
@<TRIPOS>SUBSTRUCTURE
1	UNK0	1	GROUP	1 ****	UNK
