/Users/jonathanwahrer/Desktop/Msc/3_Semester/Drug_Design_Praktikum/waehrer_HTS_screening/RMSD_calculations/out/docking_results/vina_output/6e43_docked_ligand.pdbqt
 OpenBabel03112213513D

 36 39  0  0  1  0  0  0  0  0999 V2000
   22.1300   79.6360   12.2280 C   0  0  0  0  0  0  0  0  0  0  0  0
   21.6810   78.3720   12.6110 C   0  0  0  0  0  3  0  0  0  0  0  0
   21.6760   78.0310   13.9550 C   0  0  0  0  0  0  0  0  0  0  0  0
   22.2050   78.8990   14.8890 C   0  0  0  0  0  0  0  0  0  0  0  0
   22.6310   80.1700   14.5150 C   0  0  0  0  0  3  0  0  0  0  0  0
   22.6020   80.5430   13.1730 C   0  0  0  0  0  3  0  0  0  0  0  0
   21.2940   76.6930   14.3800 N   0  0  0  0  0  0  0  0  0  0  0  0
   21.7420   76.2940   15.1930 H   0  0  0  0  0  0  0  0  0  0  0  0
   20.2960   75.9120   13.6800 C   0  0  0  0  0  0  0  0  0  0  0  0
   20.1480   74.5760   14.2300 N   0  0  0  0  0  0  0  0  0  0  0  0
   19.6490   76.3690   12.7870 O   0  0  0  0  0  0  0  0  0  0  0  0
   20.7120   74.2750   15.0120 H   0  0  0  0  0  0  0  0  0  0  0  0
   19.1680   73.6780   13.6320 C   0  0  0  0  0  0  0  0  0  0  0  0
   19.6120   72.4090   13.2670 C   0  0  0  0  0  3  0  0  0  0  0  0
   18.7270   71.5190   12.6740 C   0  0  0  0  0  3  0  0  0  0  0  0
   17.4140   71.9470   12.4650 C   0  0  0  0  0  0  0  0  0  0  0  0
   16.9890   73.2200   12.8230 C   0  0  0  0  0  3  0  0  0  0  0  0
   16.4090   70.9800   11.8060 C   0  0  0  0  0  1  0  0  0  0  0  0
   17.8660   74.1060   13.4170 C   0  0  0  0  0  3  0  0  0  0  0  0
   22.2080   78.5350   16.3430 N   0  0  0  0  0  0  0  0  0  0  0  0
   23.4610   78.1280   17.0790 C   0  0  0  0  0  2  0  0  0  0  0  0
   24.7340   78.2490   16.1720 C   0  0  0  0  0  3  0  0  0  0  0  0
   25.8260   79.0050   16.9980 C   0  0  0  0  0  1  0  0  0  0  0  0
   25.1580   76.8230   15.8050 C   0  0  0  0  0  1  0  0  0  0  0  0
   20.9370   78.8870   17.0990 C   0  0  0  0  0  3  0  0  0  0  0  0
   20.7920   78.0880   18.3900 C   0  0  0  0  0  2  0  0  0  0  0  0
   19.5780   78.6370   19.1770 C   0  0  0  0  0  2  0  0  0  0  0  0
   19.7150   80.1460   19.4290 C   0  0  0  0  0  2  0  0  0  0  0  0
   19.9190   80.9610   18.1450 C   0  0  0  0  0  2  0  0  0  0  0  0
   21.1040   80.3930   17.3410 C   0  0  0  0  0  2  0  0  0  0  0  0
   22.0940   80.0400   10.7280 C   0  0  1  0  0  3  0  0  0  0  0  0
   21.7540   79.2530    9.4580 C   0  0  0  0  0  2  0  0  0  0  0  0
   20.8620   80.4090    9.8990 C   0  0  1  0  0  3  0  0  0  0  0  0
   19.5100   80.0320   10.5290 C   0  0  0  0  0  0  0  0  0  0  0  0
   19.1250   78.8270   10.6070 O   0  0  0  0  0  0  0  0  0  0  0  0
   18.7700   80.9470   10.9690 O   0  0  0  0  0  1  0  0  0  0  0  0
  1  2  2  0  0  0  0
  1  6  1  0  0  0  0
  2  3  1  0  0  0  0
  3  7  1  0  0  0  0
  3  4  2  0  0  0  0
  4 20  1  0  0  0  0
  5  4  1  0  0  0  0
  6  5  2  0  0  0  0
  7  8  1  0  0  0  0
  9 10  1  0  0  0  0
  9  7  1  0  0  0  0
 10 12  1  0  0  0  0
 11  9  2  0  0  0  0
 13 10  1  0  0  0  0
 14 13  2  0  0  0  0
 15 14  1  0  0  0  0
 16 15  2  0  0  0  0
 16 17  1  0  0  0  0
 17 19  2  0  0  0  0
 18 16  1  0  0  0  0
 19 13  1  0  0  0  0
 20 21  1  0  0  0  0
 20 25  1  0  0  0  0
 22 23  1  0  0  0  0
 22 21  1  0  0  0  0
 24 22  1  0  0  0  0
 25 30  1  0  0  0  0
 25 26  1  0  0  0  0
 26 27  1  0  0  0  0
 27 28  1  0  0  0  0
 29 28  1  0  0  0  0
 30 29  1  0  0  0  0
 31  1  1  1  0  0  0
 32 33  1  0  0  0  0
 32 31  1  0  0  0  0
 33 34  1  1  0  0  0
 33 31  1  0  0  0  0
 34 35  2  0  0  0  0
 34 36  1  0  0  0  0
M  END
>  <Pose>
1

>  <Score>
-13.282

$$$$
/Users/jonathanwahrer/Desktop/Msc/3_Semester/Drug_Design_Praktikum/waehrer_HTS_screening/RMSD_calculations/out/docking_results/vina_output/6e43_docked_ligand.pdbqt
 OpenBabel03112213513D

 36 39  0  0  1  0  0  0  0  0999 V2000
   21.7550   79.4700   11.8480 C   0  0  0  0  0  0  0  0  0  0  0  0
   21.3090   78.2340   12.3110 C   0  0  0  0  0  3  0  0  0  0  0  0
   21.3950   77.9420   13.6650 C   0  0  0  0  0  0  0  0  0  0  0  0
   22.0100   78.8320   14.5220 C   0  0  0  0  0  0  0  0  0  0  0  0
   22.4350   80.0770   14.0690 C   0  0  0  0  0  3  0  0  0  0  0  0
   22.3160   80.4000   12.7200 C   0  0  0  0  0  3  0  0  0  0  0  0
   21.0170   76.6320   14.1680 N   0  0  0  0  0  0  0  0  0  0  0  0
   21.4270   76.3050   15.0310 H   0  0  0  0  0  0  0  0  0  0  0  0
   20.0750   75.7770   13.4760 C   0  0  0  0  0  0  0  0  0  0  0  0
   19.9230   74.4820   14.1170 N   0  0  0  0  0  0  0  0  0  0  0  0
   19.4690   76.1510   12.5180 O   0  0  0  0  0  0  0  0  0  0  0  0
   20.4490   74.2530   14.9480 H   0  0  0  0  0  0  0  0  0  0  0  0
   18.9950   73.5200   13.5370 C   0  0  0  0  0  0  0  0  0  0  0  0
   19.5190   72.2870   13.1540 C   0  0  0  0  0  3  0  0  0  0  0  0
   18.6850   71.3390   12.5760 C   0  0  0  0  0  3  0  0  0  0  0  0
   17.3410   71.6740   12.4010 C   0  0  0  0  0  0  0  0  0  0  0  0
   16.8350   72.9110   12.7770 C   0  0  0  0  0  3  0  0  0  0  0  0
   16.3910   70.6400   11.7600 C   0  0  0  0  0  1  0  0  0  0  0  0
   17.6610   73.8550   13.3550 C   0  0  0  0  0  3  0  0  0  0  0  0
   22.1130   78.5220   15.9860 N   0  0  0  0  0  0  0  0  0  0  0  0
   20.9030   78.4040   16.8810 C   0  0  0  0  0  2  0  0  0  0  0  0
   20.9260   79.4670   18.0330 C   0  0  0  0  0  3  0  0  0  0  0  0
   20.7610   80.8760   17.3740 C   0  0  0  0  0  1  0  0  0  0  0  0
   19.7710   79.1230   18.9800 C   0  0  0  0  0  1  0  0  0  0  0  0
   23.4780   78.0410   16.4480 C   0  0  0  0  0  3  0  0  0  0  0  0
   24.2320   77.2980   15.3500 C   0  0  0  0  0  2  0  0  0  0  0  0
   25.6690   77.0080   15.8460 C   0  0  0  0  0  2  0  0  0  0  0  0
   26.3790   78.3000   16.2790 C   0  0  0  0  0  2  0  0  0  0  0  0
   25.6060   79.0910   17.3450 C   0  0  0  0  0  2  0  0  0  0  0  0
   24.1640   79.3480   16.8690 C   0  0  0  0  0  2  0  0  0  0  0  0
   21.6180   79.8190   10.3390 C   0  0  1  0  0  3  0  0  0  0  0  0
   21.0480   79.0390    9.1510 C   0  0  0  0  0  2  0  0  0  0  0  0
   20.3660   80.3200    9.6170 C   0  0  1  0  0  3  0  0  0  0  0  0
   19.0480   80.1540   10.3940 C   0  0  0  0  0  0  0  0  0  0  0  0
   18.5060   81.1270   10.9990 O   0  0  0  0  0  1  0  0  0  0  0  0
   18.5050   79.0220   10.4320 O   0  0  0  0  0  0  0  0  0  0  0  0
  1  2  2  0  0  0  0
  1  6  1  0  0  0  0
  2  3  1  0  0  0  0
  3  7  1  0  0  0  0
  3  4  2  0  0  0  0
  4 20  1  0  0  0  0
  5  4  1  0  0  0  0
  6  5  2  0  0  0  0
  7  8  1  0  0  0  0
  9 10  1  0  0  0  0
  9  7  1  0  0  0  0
 10 12  1  0  0  0  0
 11  9  2  0  0  0  0
 13 10  1  0  0  0  0
 14 13  2  0  0  0  0
 15 14  1  0  0  0  0
 16 15  2  0  0  0  0
 16 17  1  0  0  0  0
 17 19  2  0  0  0  0
 18 16  1  0  0  0  0
 19 13  1  0  0  0  0
 20 25  1  0  0  0  0
 20 21  1  0  0  0  0
 21 22  1  0  0  0  0
 22 24  1  0  0  0  0
 23 22  1  0  0  0  0
 25 30  1  0  0  0  0
 26 27  1  0  0  0  0
 26 25  1  0  0  0  0
 27 28  1  0  0  0  0
 28 29  1  0  0  0  0
 30 29  1  0  0  0  0
 31  1  1  1  0  0  0
 32 33  1  0  0  0  0
 32 31  1  0  0  0  0
 33 31  1  0  0  0  0
 33 34  1  1  0  0  0
 34 36  2  0  0  0  0
 34 35  1  0  0  0  0
M  END
>  <Pose>
2

>  <Score>
-12.835

$$$$
/Users/jonathanwahrer/Desktop/Msc/3_Semester/Drug_Design_Praktikum/waehrer_HTS_screening/RMSD_calculations/out/docking_results/vina_output/6e43_docked_ligand.pdbqt
 OpenBabel03112213513D

 36 39  0  0  1  0  0  0  0  0999 V2000
   21.4400   79.5000   12.1010 C   0  0  0  0  0  0  0  0  0  0  0  0
   21.0130   78.2480   12.5420 C   0  0  0  0  0  3  0  0  0  0  0  0
   21.3110   77.8440   13.8350 C   0  0  0  0  0  0  0  0  0  0  0  0
   22.1080   78.6360   14.6370 C   0  0  0  0  0  0  0  0  0  0  0  0
   22.5160   79.8960   14.2110 C   0  0  0  0  0  3  0  0  0  0  0  0
   22.1880   80.3330   12.9300 C   0  0  0  0  0  3  0  0  0  0  0  0
   20.9540   76.5130   14.2980 N   0  0  0  0  0  0  0  0  0  0  0  0
   21.3410   76.1800   15.1700 H   0  0  0  0  0  0  0  0  0  0  0  0
   20.0660   75.6450   13.5530 C   0  0  0  0  0  0  0  0  0  0  0  0
   19.9290   74.3330   14.1630 N   0  0  0  0  0  0  0  0  0  0  0  0
   19.4860   76.0200   12.5800 O   0  0  0  0  0  0  0  0  0  0  0  0
   20.4300   74.1030   15.0090 H   0  0  0  0  0  0  0  0  0  0  0  0
   19.0540   73.3560   13.5280 C   0  0  0  0  0  0  0  0  0  0  0  0
   17.7150   73.7080   13.3790 C   0  0  0  0  0  3  0  0  0  0  0  0
   16.8310   72.8070   12.7990 C   0  0  0  0  0  3  0  0  0  0  0  0
   17.3350   71.5700   12.3900 C   0  0  0  0  0  0  0  0  0  0  0  0
   18.6710   71.2290   12.5550 C   0  0  0  0  0  3  0  0  0  0  0  0
   16.3760   70.5490   11.7440 C   0  0  0  0  0  1  0  0  0  0  0  0
   19.5530   72.1240   13.1280 C   0  0  0  0  0  3  0  0  0  0  0  0
   22.4390   78.2030   16.0340 N   0  0  0  0  0  0  0  0  0  0  0  0
   23.6630   77.3840   16.3660 C   0  0  0  0  0  2  0  0  0  0  0  0
   24.7960   77.5720   15.2990 C   0  0  0  0  0  3  0  0  0  0  0  0
   25.7560   78.6870   15.8280 C   0  0  0  0  0  1  0  0  0  0  0  0
   25.4960   76.2170   15.1490 C   0  0  0  0  0  1  0  0  0  0  0  0
   21.6370   78.8880   17.1290 C   0  0  0  0  0  3  0  0  0  0  0  0
   21.4590   80.3810   16.8670 C   0  0  0  0  0  2  0  0  0  0  0  0
   20.4860   80.9550   17.9240 C   0  0  0  0  0  2  0  0  0  0  0  0
   19.1520   80.1930   17.9240 C   0  0  0  0  0  2  0  0  0  0  0  0
   19.3160   78.6800   18.1300 C   0  0  0  0  0  2  0  0  0  0  0  0
   20.3130   78.1120   17.1020 C   0  0  0  0  0  2  0  0  0  0  0  0
   21.0690   79.9770   10.6690 C   0  0  1  0  0  3  0  0  0  0  0  0
   21.5760   81.1380    9.8080 C   0  0  0  0  0  2  0  0  0  0  0  0
   21.8380   79.7000    9.3750 C   0  0  1  0  0  3  0  0  0  0  0  0
   23.2720   79.1760    9.5630 C   0  0  0  0  0  0  0  0  0  0  0  0
   23.5410   78.2560   10.3920 O   0  0  0  0  0  1  0  0  0  0  0  0
   24.1970   79.6810    8.8780 O   0  0  0  0  0  0  0  0  0  0  0  0
  1  2  2  0  0  0  0
  1  6  1  0  0  0  0
  2  3  1  0  0  0  0
  3  7  1  0  0  0  0
  3  4  2  0  0  0  0
  4 20  1  0  0  0  0
  5  4  1  0  0  0  0
  6  5  2  0  0  0  0
  7  8  1  0  0  0  0
  9 10  1  0  0  0  0
  9  7  1  0  0  0  0
 10 12  1  0  0  0  0
 11  9  2  0  0  0  0
 13 10  1  0  0  0  0
 14 13  1  0  0  0  0
 15 14  2  0  0  0  0
 16 17  2  0  0  0  0
 16 15  1  0  0  0  0
 17 19  1  0  0  0  0
 18 16  1  0  0  0  0
 19 13  2  0  0  0  0
 20 21  1  0  0  0  0
 20 25  1  0  0  0  0
 22 23  1  0  0  0  0
 22 21  1  0  0  0  0
 24 22  1  0  0  0  0
 26 25  1  0  0  0  0
 26 27  1  0  0  0  0
 28 27  1  0  0  0  0
 28 29  1  0  0  0  0
 30 25  1  0  0  0  0
 30 29  1  0  0  0  0
 31  1  1  1  0  0  0
 32 31  1  0  0  0  0
 33 34  1  1  0  0  0
 33 32  1  0  0  0  0
 33 31  1  0  0  0  0
 34 35  1  0  0  0  0
 36 34  2  0  0  0  0
M  END
>  <Pose>
3

>  <Score>
-12.076

$$$$
/Users/jonathanwahrer/Desktop/Msc/3_Semester/Drug_Design_Praktikum/waehrer_HTS_screening/RMSD_calculations/out/docking_results/vina_output/6e43_docked_ligand.pdbqt
 OpenBabel03112213513D

 36 39  0  0  1  0  0  0  0  0999 V2000
   20.1280   79.4440   17.5360 C   0  0  0  0  0  0  0  0  0  0  0  0
   20.2920   78.2010   16.9270 C   0  0  0  0  0  3  0  0  0  0  0  0
   21.2350   78.0560   15.9190 C   0  0  0  0  0  0  0  0  0  0  0  0
   21.9300   79.1580   15.4630 C   0  0  0  0  0  0  0  0  0  0  0  0
   21.7870   80.3950   16.0840 C   0  0  0  0  0  3  0  0  0  0  0  0
   20.8740   80.5460   17.1250 C   0  0  0  0  0  3  0  0  0  0  0  0
   21.3720   76.7970   15.2060 N   0  0  0  0  0  0  0  0  0  0  0  0
   22.2980   76.4600   14.9850 H   0  0  0  0  0  0  0  0  0  0  0  0
   20.2280   76.0070   14.7990 C   0  0  0  0  0  0  0  0  0  0  0  0
   20.6060   74.8390   14.0220 N   0  0  0  0  0  0  0  0  0  0  0  0
   19.1160   76.2880   15.1300 O   0  0  0  0  0  0  0  0  0  0  0  0
   21.5760   74.6510   13.8110 H   0  0  0  0  0  0  0  0  0  0  0  0
   19.5570   73.9430   13.5530 C   0  0  0  0  0  0  0  0  0  0  0  0
   19.8140   72.5750   13.6250 C   0  0  0  0  0  3  0  0  0  0  0  0
   18.8580   71.6750   13.1730 C   0  0  0  0  0  3  0  0  0  0  0  0
   17.6680   72.1920   12.6570 C   0  0  0  0  0  0  0  0  0  0  0  0
   17.4300   73.5580   12.5820 C   0  0  0  0  0  3  0  0  0  0  0  0
   16.5890   71.2150   12.1470 C   0  0  0  0  0  1  0  0  0  0  0  0
   18.3770   74.4560   13.0340 C   0  0  0  0  0  3  0  0  0  0  0  0
   22.9470   79.0110   14.3710 N   0  0  0  0  0  0  0  0  0  0  0  0
   24.4310   78.9590   14.6410 C   0  0  0  0  0  2  0  0  0  0  0  0
   24.7580   78.1430   15.9390 C   0  0  0  0  0  3  0  0  0  0  0  0
   25.2060   76.7130   15.4930 C   0  0  0  0  0  1  0  0  0  0  0  0
   25.8680   78.9030   16.6740 C   0  0  0  0  0  1  0  0  0  0  0  0
   22.3840   78.6180   13.0150 C   0  0  0  0  0  3  0  0  0  0  0  0
   21.1180   79.3950   12.6670 C   0  0  0  0  0  2  0  0  0  0  0  0
   20.7220   79.0670   11.2070 C   0  0  0  0  0  2  0  0  0  0  0  0
   21.8790   79.3600   10.2390 C   0  0  0  0  0  2  0  0  0  0  0  0
   23.1780   78.6300   10.6060 C   0  0  0  0  0  2  0  0  0  0  0  0
   23.5540   78.9250   12.0710 C   0  0  0  0  0  2  0  0  0  0  0  0
   19.1050   79.6000   18.6960 C   0  0  1  0  0  3  0  0  0  0  0  0
   19.2360   79.4280   20.2130 C   0  0  0  0  0  2  0  0  0  0  0  0
   18.9400   80.8040   19.6270 C   0  0  1  0  0  3  0  0  0  0  0  0
   20.1050   81.8090   19.6130 C   0  0  0  0  0  0  0  0  0  0  0  0
   20.0840   82.8410   18.8770 O   0  0  0  0  0  0  0  0  0  0  0  0
   21.1020   81.5930   20.3470 O   0  0  0  0  0  1  0  0  0  0  0  0
  2  1  2  0  0  0  0
  3  2  1  0  0  0  0
  4  3  2  0  0  0  0
  4  5  1  0  0  0  0
  5  6  2  0  0  0  0
  6  1  1  0  0  0  0
  7  3  1  0  0  0  0
  8  7  1  0  0  0  0
  9 11  2  0  0  0  0
  9  7  1  0  0  0  0
 10  9  1  0  0  0  0
 12 10  1  0  0  0  0
 13 14  1  0  0  0  0
 13 10  1  0  0  0  0
 15 14  2  0  0  0  0
 16 15  1  0  0  0  0
 17 16  2  0  0  0  0
 17 19  1  0  0  0  0
 18 16  1  0  0  0  0
 19 13  2  0  0  0  0
 20 21  1  0  0  0  0
 20  4  1  0  0  0  0
 21 22  1  0  0  0  0
 22 24  1  0  0  0  0
 23 22  1  0  0  0  0
 25 20  1  0  0  0  0
 26 25  1  0  0  0  0
 27 26  1  0  0  0  0
 28 29  1  0  0  0  0
 28 27  1  0  0  0  0
 29 30  1  0  0  0  0
 30 25  1  0  0  0  0
 31  1  1  6  0  0  0
 31 33  1  0  0  0  0
 31 32  1  0  0  0  0
 33 34  1  6  0  0  0
 33 32  1  0  0  0  0
 34 36  1  0  0  0  0
 35 34  2  0  0  0  0
M  END
>  <Pose>
4

>  <Score>
-11.932

$$$$
/Users/jonathanwahrer/Desktop/Msc/3_Semester/Drug_Design_Praktikum/waehrer_HTS_screening/RMSD_calculations/out/docking_results/vina_output/6e43_docked_ligand.pdbqt
 OpenBabel03112213513D

 36 39  0  0  1  0  0  0  0  0999 V2000
   20.0560   79.5270   17.6750 C   0  0  0  0  0  0  0  0  0  0  0  0
   20.2380   78.3180   17.0060 C   0  0  0  0  0  3  0  0  0  0  0  0
   21.1620   78.2440   15.9740 C   0  0  0  0  0  0  0  0  0  0  0  0
   21.8170   79.3840   15.5530 C   0  0  0  0  0  0  0  0  0  0  0  0
   21.6570   80.5870   16.2330 C   0  0  0  0  0  3  0  0  0  0  0  0
   20.7640   80.6660   17.2990 C   0  0  0  0  0  3  0  0  0  0  0  0
   21.3150   77.0220   15.2000 N   0  0  0  0  0  0  0  0  0  0  0  0
   22.2380   76.7570   14.8870 H   0  0  0  0  0  0  0  0  0  0  0  0
   20.1920   76.1710   14.8630 C   0  0  0  0  0  0  0  0  0  0  0  0
   20.5740   75.0590   14.0090 N   0  0  0  0  0  0  0  0  0  0  0  0
   19.0990   76.3650   15.3000 O   0  0  0  0  0  0  0  0  0  0  0  0
   21.5310   74.9450   13.7080 H   0  0  0  0  0  0  0  0  0  0  0  0
   19.5470   74.1110   13.5980 C   0  0  0  0  0  0  0  0  0  0  0  0
   19.8870   72.7600   13.6230 C   0  0  0  0  0  3  0  0  0  0  0  0
   18.9540   71.8130   13.2210 C   0  0  0  0  0  3  0  0  0  0  0  0
   17.7020   72.2670   12.8020 C   0  0  0  0  0  0  0  0  0  0  0  0
   17.3820   73.6180   12.7710 C   0  0  0  0  0  3  0  0  0  0  0  0
   16.6470   71.2370   12.3480 C   0  0  0  0  0  1  0  0  0  0  0  0
   18.3060   74.5630   13.1730 C   0  0  0  0  0  3  0  0  0  0  0  0
   22.8130   79.3130   14.4340 N   0  0  0  0  0  0  0  0  0  0  0  0
   22.5060   79.7950   13.0370 C   0  0  0  0  0  2  0  0  0  0  0  0
   22.2870   78.6010   12.0450 C   0  0  0  0  0  3  0  0  0  0  0  0
   20.7440   78.4230   11.8600 C   0  0  0  0  0  1  0  0  0  0  0  0
   22.9960   78.9730   10.7380 C   0  0  0  0  0  1  0  0  0  0  0  0
   24.2400   79.0070   14.8600 C   0  0  0  0  0  3  0  0  0  0  0  0
   24.5990   79.6600   16.1910 C   0  0  0  0  0  2  0  0  0  0  0  0
   25.9920   79.1500   16.6310 C   0  0  0  0  0  2  0  0  0  0  0  0
   26.0270   77.6160   16.6980 C   0  0  0  0  0  2  0  0  0  0  0  0
   25.6130   76.9400   15.3830 C   0  0  0  0  0  2  0  0  0  0  0  0
   24.2430   77.4730   14.9230 C   0  0  0  0  0  2  0  0  0  0  0  0
   19.0560   79.6040   18.8620 C   0  0  1  0  0  3  0  0  0  0  0  0
   19.2290   79.3840   20.3690 C   0  0  0  0  0  2  0  0  0  0  0  0
   18.8670   80.7670   19.8390 C   0  0  1  0  0  3  0  0  0  0  0  0
   19.9920   81.8170   19.8340 C   0  0  0  0  0  0  0  0  0  0  0  0
   19.9030   82.8850   19.1590 O   0  0  0  0  0  0  0  0  0  0  0  0
   21.0270   81.6000   20.5150 O   0  0  0  0  0  1  0  0  0  0  0  0
  2  1  2  0  0  0  0
  3  2  1  0  0  0  0
  4  3  2  0  0  0  0
  4  5  1  0  0  0  0
  5  6  2  0  0  0  0
  6  1  1  0  0  0  0
  7  3  1  0  0  0  0
  8  7  1  0  0  0  0
  9  7  1  0  0  0  0
  9 11  2  0  0  0  0
 10  9  1  0  0  0  0
 12 10  1  0  0  0  0
 13 14  1  0  0  0  0
 13 10  1  0  0  0  0
 15 14  2  0  0  0  0
 16 15  1  0  0  0  0
 17 16  2  0  0  0  0
 17 19  1  0  0  0  0
 18 16  1  0  0  0  0
 19 13  2  0  0  0  0
 20 25  1  0  0  0  0
 20  4  1  0  0  0  0
 21 20  1  0  0  0  0
 22 21  1  0  0  0  0
 23 22  1  0  0  0  0
 24 22  1  0  0  0  0
 25 30  1  0  0  0  0
 25 26  1  0  0  0  0
 26 27  1  0  0  0  0
 27 28  1  0  0  0  0
 29 28  1  0  0  0  0
 30 29  1  0  0  0  0
 31  1  1  6  0  0  0
 31 33  1  0  0  0  0
 31 32  1  0  0  0  0
 33 34  1  6  0  0  0
 33 32  1  0  0  0  0
 34 36  1  0  0  0  0
 35 34  2  0  0  0  0
M  END
>  <Pose>
5

>  <Score>
-11.537

$$$$
/Users/jonathanwahrer/Desktop/Msc/3_Semester/Drug_Design_Praktikum/waehrer_HTS_screening/RMSD_calculations/out/docking_results/vina_output/6e43_docked_ligand.pdbqt
 OpenBabel03112213513D

 36 39  0  0  1  0  0  0  0  0999 V2000
   20.7470   78.5070   12.7920 C   0  0  0  0  0  0  0  0  0  0  0  0
   21.0990   79.5550   13.6410 C   0  0  0  0  0  3  0  0  0  0  0  0
   21.6040   79.2700   14.9020 C   0  0  0  0  0  0  0  0  0  0  0  0
   21.6600   77.9620   15.3410 C   0  0  0  0  0  0  0  0  0  0  0  0
   21.3330   76.9120   14.4890 C   0  0  0  0  0  3  0  0  0  0  0  0
   20.8640   77.1830   13.2050 C   0  0  0  0  0  3  0  0  0  0  0  0
   21.9020   80.3380   15.8420 N   0  0  0  0  0  0  0  0  0  0  0  0
   22.8430   80.7010   15.8850 H   0  0  0  0  0  0  0  0  0  0  0  0
   20.8970   80.8990   16.7220 C   0  0  0  0  0  0  0  0  0  0  0  0
   21.4460   81.8870   17.6350 N   0  0  0  0  0  0  0  0  0  0  0  0
   19.7460   80.5970   16.6400 O   0  0  0  0  0  0  0  0  0  0  0  0
   22.4310   82.1130   17.6190 H   0  0  0  0  0  0  0  0  0  0  0  0
   20.5470   82.5470   18.5730 C   0  0  0  0  0  0  0  0  0  0  0  0
   20.3820   83.9230   18.4300 C   0  0  0  0  0  3  0  0  0  0  0  0
   19.5530   84.6070   19.3090 C   0  0  0  0  0  3  0  0  0  0  0  0
   18.9180   83.8720   20.3120 C   0  0  0  0  0  0  0  0  0  0  0  0
   19.1010   82.5020   20.4490 C   0  0  0  0  0  3  0  0  0  0  0  0
   17.9920   84.6060   21.3040 C   0  0  0  0  0  1  0  0  0  0  0  0
   19.9220   81.8180   19.5750 C   0  0  0  0  0  3  0  0  0  0  0  0
   22.1990   77.6460   16.7030 N   0  0  0  0  0  0  0  0  0  0  0  0
   21.3260   77.1540   17.8320 C   0  0  0  0  0  2  0  0  0  0  0  0
   20.0060   77.9910   17.9540 C   0  0  0  0  0  3  0  0  0  0  0  0
   18.8900   77.2210   17.1750 C   0  0  0  0  0  1  0  0  0  0  0  0
   19.6960   78.1190   19.4490 C   0  0  0  0  0  1  0  0  0  0  0  0
   23.7140   77.5630   16.7940 C   0  0  0  0  0  3  0  0  0  0  0  0
   24.3590   77.2710   15.4430 C   0  0  0  0  0  2  0  0  0  0  0  0
   25.8950   77.3850   15.5930 C   0  0  0  0  0  2  0  0  0  0  0  0
   26.2980   78.7570   16.1560 C   0  0  0  0  0  2  0  0  0  0  0  0
   25.6150   79.0920   17.4890 C   0  0  0  0  0  2  0  0  0  0  0  0
   24.0880   78.9430   17.3520 C   0  0  0  0  0  2  0  0  0  0  0  0
   20.2240   78.8210   11.3630 C   0  0  1  0  0  3  0  0  0  0  0  0
   19.9960   80.1410   10.6180 C   0  0  0  0  0  2  0  0  0  0  0  0
   21.0600   79.1640   10.1280 C   0  0  1  0  0  3  0  0  0  0  0  0
   22.5240   79.5440   10.4100 C   0  0  0  0  0  0  0  0  0  0  0  0
   23.4500   78.6800   10.3950 O   0  0  0  0  0  0  0  0  0  0  0  0
   22.8000   80.7430   10.6680 O   0  0  0  0  0  1  0  0  0  0  0  0
  1  6  2  0  0  0  0
  1  2  1  0  0  0  0
  2  3  2  0  0  0  0
  3  4  1  0  0  0  0
  3  7  1  0  0  0  0
  4 20  1  0  0  0  0
  5  4  2  0  0  0  0
  6  5  1  0  0  0  0
  7  8  1  0  0  0  0
  7  9  1  0  0  0  0
  9 10  1  0  0  0  0
 10 13  1  0  0  0  0
 11  9  2  0  0  0  0
 12 10  1  0  0  0  0
 13 19  1  0  0  0  0
 14 13  2  0  0  0  0
 14 15  1  0  0  0  0
 15 16  2  0  0  0  0
 16 17  1  0  0  0  0
 16 18  1  0  0  0  0
 19 17  2  0  0  0  0
 20 25  1  0  0  0  0
 20 21  1  0  0  0  0
 21 22  1  0  0  0  0
 22 24  1  0  0  0  0
 23 22  1  0  0  0  0
 25 30  1  0  0  0  0
 26 27  1  0  0  0  0
 26 25  1  0  0  0  0
 27 28  1  0  0  0  0
 28 29  1  0  0  0  0
 30 29  1  0  0  0  0
 31  1  1  1  0  0  0
 32 31  1  0  0  0  0
 33 34  1  1  0  0  0
 33 32  1  0  0  0  0
 33 31  1  0  0  0  0
 34 36  1  0  0  0  0
 35 34  2  0  0  0  0
M  END
>  <Pose>
6

>  <Score>
-10.421

$$$$
/Users/jonathanwahrer/Desktop/Msc/3_Semester/Drug_Design_Praktikum/waehrer_HTS_screening/RMSD_calculations/out/docking_results/vina_output/6e43_docked_ligand.pdbqt
 OpenBabel03112213513D

 36 39  0  0  1  0  0  0  0  0999 V2000
   19.1950   75.6740   13.9150 C   0  0  0  0  0  0  0  0  0  0  0  0
   19.4030   76.2210   15.1800 C   0  0  0  0  0  3  0  0  0  0  0  0
   20.3780   77.1940   15.3480 C   0  0  0  0  0  0  0  0  0  0  0  0
   21.1960   77.5390   14.2910 C   0  0  0  0  0  0  0  0  0  0  0  0
   20.9760   77.0130   13.0220 C   0  0  0  0  0  3  0  0  0  0  0  0
   19.9730   76.0660   12.8290 C   0  0  0  0  0  3  0  0  0  0  0  0
   20.6780   77.7250   16.6680 N   0  0  0  0  0  0  0  0  0  0  0  0
   21.2090   77.1560   17.3130 H   0  0  0  0  0  0  0  0  0  0  0  0
   20.2430   79.0390   17.0940 C   0  0  0  0  0  0  0  0  0  0  0  0
   20.5790   79.3150   18.4800 N   0  0  0  0  0  0  0  0  0  0  0  0
   19.7170   79.8040   16.3430 O   0  0  0  0  0  0  0  0  0  0  0  0
   21.0580   78.6250   19.0420 H   0  0  0  0  0  0  0  0  0  0  0  0
   20.2130   80.6080   19.0430 C   0  0  0  0  0  0  0  0  0  0  0  0
   20.5870   81.7410   18.3240 C   0  0  0  0  0  3  0  0  0  0  0  0
   20.2820   83.0000   18.8240 C   0  0  0  0  0  3  0  0  0  0  0  0
   19.6080   83.0710   20.0440 C   0  0  0  0  0  0  0  0  0  0  0  0
   19.2510   81.9330   20.7560 C   0  0  0  0  0  3  0  0  0  0  0  0
   19.2580   84.4570   20.6240 C   0  0  0  0  0  1  0  0  0  0  0  0
   19.5500   80.6790   20.2600 C   0  0  0  0  0  3  0  0  0  0  0  0
   22.2550   78.5860   14.4660 N   0  0  0  0  0  0  0  0  0  0  0  0
   22.0940   80.0010   13.9670 C   0  0  0  0  0  2  0  0  0  0  0  0
   22.6000   80.1590   12.4910 C   0  0  0  0  0  3  0  0  0  0  0  0
   23.6760   79.0510   12.2450 C   0  0  0  0  0  1  0  0  0  0  0  0
   21.3770   80.0010   11.5810 C   0  0  0  0  0  1  0  0  0  0  0  0
   23.3680   78.2200   15.4340 C   0  0  0  0  0  3  0  0  0  0  0  0
   24.4690   77.4010   14.7680 C   0  0  0  0  0  2  0  0  0  0  0  0
   25.6360   77.2330   15.7700 C   0  0  0  0  0  2  0  0  0  0  0  0
   26.1370   78.5950   16.2730 C   0  0  0  0  0  2  0  0  0  0  0  0
   25.0310   79.4570   16.8970 C   0  0  0  0  0  2  0  0  0  0  0  0
   23.8520   79.5950   15.9150 C   0  0  0  0  0  2  0  0  0  0  0  0
   18.0730   74.6170   13.7120 C   0  0  1  0  0  3  0  0  0  0  0  0
   17.6160   73.8250   12.4830 C   0  0  0  0  0  2  0  0  0  0  0  0
   18.2340   73.0960   13.6700 C   0  0  1  0  0  3  0  0  0  0  0  0
   19.6770   72.5920   13.4930 C   0  0  0  0  0  0  0  0  0  0  0  0
   20.6220   73.0100   14.2260 O   0  0  0  0  0  1  0  0  0  0  0  0
   19.9190   71.7500   12.5910 O   0  0  0  0  0  0  0  0  0  0  0  0
  1  2  1  0  0  0  0
  2  3  2  0  0  0  0
  3  7  1  0  0  0  0
  4 20  1  0  0  0  0
  4  3  1  0  0  0  0
  5  4  2  0  0  0  0
  6  5  1  0  0  0  0
  6  1  2  0  0  0  0
  7  9  1  0  0  0  0
  7  8  1  0  0  0  0
  9 10  1  0  0  0  0
 10 12  1  0  0  0  0
 10 13  1  0  0  0  0
 11  9  2  0  0  0  0
 13 19  1  0  0  0  0
 14 15  1  0  0  0  0
 14 13  2  0  0  0  0
 15 16  2  0  0  0  0
 16 18  1  0  0  0  0
 16 17  1  0  0  0  0
 19 17  2  0  0  0  0
 20 25  1  0  0  0  0
 21 20  1  0  0  0  0
 22 21  1  0  0  0  0
 23 22  1  0  0  0  0
 24 22  1  0  0  0  0
 25 30  1  0  0  0  0
 26 25  1  0  0  0  0
 26 27  1  0  0  0  0
 27 28  1  0  0  0  0
 28 29  1  0  0  0  0
 30 29  1  0  0  0  0
 31  1  1  6  0  0  0
 32 33  1  0  0  0  0
 32 31  1  0  0  0  0
 33 34  1  6  0  0  0
 33 31  1  0  0  0  0
 34 35  1  0  0  0  0
 36 34  2  0  0  0  0
M  END
>  <Pose>
7

>  <Score>
-10.305

$$$$
