MODEL 1
REMARK VINA RESULT:   -13.282      0.000      0.000
REMARK INTER + INTRA:         -18.949
REMARK INTER:                 -18.590
REMARK INTRA:                  -0.359
REMARK UNBOUND:                 0.544
REMARK  8 active torsions:
REMARK  status: ('A' for Active; 'I' for Inactive)
REMARK    1  A    between atoms: C01_1  and  C29_31 
REMARK    2  A    between atoms: C03_3  and  N18_18 
REMARK    3  A    between atoms: C04_4  and  N07_7 
REMARK    4  A    between atoms: N07_7  and  C08_8 
REMARK    5  A    between atoms: N07_7  and  C12_12 
REMARK    6  A    between atoms: C08_8  and  C09_9 
REMARK       I    between atoms: N18_18  and  C19_20 
REMARK       I    between atoms: C19_20  and  N20_21 
REMARK    7  A    between atoms: N20_21  and  C21_23 
REMARK    8  A    between atoms: C31_33  and  C32_34 
ROOT
ATOM      1  C01 HQM C   1      22.130  79.636  12.228  0.00  0.00    -0.051 A 
ATOM      2  C02 HQM C   1      21.681  78.372  12.611  0.00  0.00     0.039 A 
ATOM      3  C03 HQM C   1      21.676  78.031  13.955  0.00  0.00     0.063 A 
ATOM      4  C04 HQM C   1      22.205  78.899  14.889  0.00  0.00     0.057 A 
ATOM      5  C05 HQM C   1      22.631  80.170  14.515  0.00  0.00     0.032 A 
ATOM      6  C06 HQM C   1      22.602  80.543  13.173  0.00  0.00     0.010 A 
ENDROOT
BRANCH   3   7
ATOM      7  N18 HQM C   1      21.294  76.693  14.380  0.00  0.00    -0.307 N 
ATOM      8  H18 HQM C   1      21.742  76.294  15.193  0.00  0.00     0.170 HD
ATOM      9  C19 HQM C   1      20.296  75.912  13.680  0.00  0.00     0.325 C 
ATOM     10  N20 HQM C   1      20.148  74.576  14.230  0.00  0.00    -0.309 N 
ATOM     11  O28 HQM C   1      19.649  76.369  12.787  0.00  0.00    -0.247 OA
ATOM     12  H20 HQM C   1      20.712  74.275  15.012  0.00  0.00     0.170 HD
BRANCH  10  13
ATOM     13  C21 HQM C   1      19.168  73.678  13.632  0.00  0.00     0.036 A 
ATOM     14  C22 HQM C   1      19.612  72.409  13.267  0.00  0.00     0.030 A 
ATOM     15  C23 HQM C   1      18.727  71.519  12.674  0.00  0.00     0.009 A 
ATOM     16  C24 HQM C   1      17.414  71.947  12.465  0.00  0.00    -0.062 A 
ATOM     17  C25 HQM C   1      16.989  73.220  12.823  0.00  0.00     0.009 A 
ATOM     18  C27 HQM C   1      16.409  70.980  11.806  0.00  0.00     0.048 C 
ATOM     19  C26 HQM C   1      17.866  74.106  13.417  0.00  0.00     0.030 A 
ENDBRANCH  10  13
ENDBRANCH   3   7
BRANCH   4  20
ATOM     20  N07 HQM C   1      22.208  78.535  16.343  0.00  0.00    -0.374 N 
BRANCH  20  21
ATOM     21  C08 HQM C   1      23.461  78.128  17.079  0.00  0.00     0.127 C 
BRANCH  21  22
ATOM     22  C09 HQM C   1      24.734  78.249  16.172  0.00  0.00    -0.005 C 
ATOM     23  C10 HQM C   1      25.826  79.005  16.998  0.00  0.00     0.011 C 
ATOM     24  C11 HQM C   1      25.158  76.823  15.805  0.00  0.00     0.011 C 
ENDBRANCH  21  22
ENDBRANCH  20  21
BRANCH  20  25
ATOM     25  C12 HQM C   1      20.937  78.887  17.099  0.00  0.00     0.084 C 
ATOM     26  C13 HQM C   1      20.792  78.088  18.390  0.00  0.00     0.025 C 
ATOM     27  C14 HQM C   1      19.578  78.637  19.177  0.00  0.00     0.002 C 
ATOM     28  C15 HQM C   1      19.715  80.146  19.429  0.00  0.00     0.000 C 
ATOM     29  C16 HQM C   1      19.919  80.961  18.145  0.00  0.00     0.002 C 
ATOM     30  C17 HQM C   1      21.104  80.393  17.341  0.00  0.00     0.025 C 
ENDBRANCH  20  25
ENDBRANCH   4  20
BRANCH   1  31
ATOM     31  C29 HQM C   1      22.094  80.040  10.728  0.00  0.00     0.034 A 
ATOM     32  C30 HQM C   1      21.754  79.253   9.458  0.00  0.00     0.026 A 
ATOM     33  C31 HQM C   1      20.862  80.409   9.899  0.00  0.00     0.096 A 
BRANCH  33  34
ATOM     34  C32 HQM C   1      19.510  80.032  10.529  0.00  0.00     0.177 C 
ATOM     35  O33 HQM C   1      19.125  78.827  10.607  0.00  0.00    -0.648 OA
ATOM     36  O34 HQM C   1      18.770  80.947  10.969  0.00  0.00    -0.648 OA
ENDBRANCH  33  34
ENDBRANCH   1  31
TORSDOF 8
ENDMDL
MODEL 2
REMARK VINA RESULT:   -12.835      0.618      2.966
REMARK INTER + INTRA:         -18.294
REMARK INTER:                 -17.911
REMARK INTRA:                  -0.383
REMARK UNBOUND:                 0.544
REMARK  8 active torsions:
REMARK  status: ('A' for Active; 'I' for Inactive)
REMARK    1  A    between atoms: C01_1  and  C29_31 
REMARK    2  A    between atoms: C03_3  and  N18_18 
REMARK    3  A    between atoms: C04_4  and  N07_7 
REMARK    4  A    between atoms: N07_7  and  C08_8 
REMARK    5  A    between atoms: N07_7  and  C12_12 
REMARK    6  A    between atoms: C08_8  and  C09_9 
REMARK       I    between atoms: N18_18  and  C19_20 
REMARK       I    between atoms: C19_20  and  N20_21 
REMARK    7  A    between atoms: N20_21  and  C21_23 
REMARK    8  A    between atoms: C31_33  and  C32_34 
ROOT
ATOM      1  C01 HQM C   1      21.755  79.470  11.848  0.00  0.00    -0.051 A 
ATOM      2  C02 HQM C   1      21.309  78.234  12.311  0.00  0.00     0.039 A 
ATOM      3  C03 HQM C   1      21.395  77.942  13.665  0.00  0.00     0.063 A 
ATOM      4  C04 HQM C   1      22.010  78.832  14.522  0.00  0.00     0.057 A 
ATOM      5  C05 HQM C   1      22.435  80.077  14.069  0.00  0.00     0.032 A 
ATOM      6  C06 HQM C   1      22.316  80.400  12.720  0.00  0.00     0.010 A 
ENDROOT
BRANCH   3   7
ATOM      7  N18 HQM C   1      21.017  76.632  14.168  0.00  0.00    -0.307 N 
ATOM      8  H18 HQM C   1      21.427  76.305  15.031  0.00  0.00     0.170 HD
ATOM      9  C19 HQM C   1      20.075  75.777  13.476  0.00  0.00     0.325 C 
ATOM     10  N20 HQM C   1      19.923  74.482  14.117  0.00  0.00    -0.309 N 
ATOM     11  O28 HQM C   1      19.469  76.151  12.518  0.00  0.00    -0.247 OA
ATOM     12  H20 HQM C   1      20.449  74.253  14.948  0.00  0.00     0.170 HD
BRANCH  10  13
ATOM     13  C21 HQM C   1      18.995  73.520  13.537  0.00  0.00     0.036 A 
ATOM     14  C22 HQM C   1      19.519  72.287  13.154  0.00  0.00     0.030 A 
ATOM     15  C23 HQM C   1      18.685  71.339  12.576  0.00  0.00     0.009 A 
ATOM     16  C24 HQM C   1      17.341  71.674  12.401  0.00  0.00    -0.062 A 
ATOM     17  C25 HQM C   1      16.835  72.911  12.777  0.00  0.00     0.009 A 
ATOM     18  C27 HQM C   1      16.391  70.640  11.760  0.00  0.00     0.048 C 
ATOM     19  C26 HQM C   1      17.661  73.855  13.355  0.00  0.00     0.030 A 
ENDBRANCH  10  13
ENDBRANCH   3   7
BRANCH   4  20
ATOM     20  N07 HQM C   1      22.113  78.522  15.986  0.00  0.00    -0.374 N 
BRANCH  20  21
ATOM     21  C08 HQM C   1      20.903  78.404  16.881  0.00  0.00     0.127 C 
BRANCH  21  22
ATOM     22  C09 HQM C   1      20.926  79.467  18.033  0.00  0.00    -0.005 C 
ATOM     23  C10 HQM C   1      20.761  80.876  17.374  0.00  0.00     0.011 C 
ATOM     24  C11 HQM C   1      19.771  79.123  18.980  0.00  0.00     0.011 C 
ENDBRANCH  21  22
ENDBRANCH  20  21
BRANCH  20  25
ATOM     25  C12 HQM C   1      23.478  78.041  16.448  0.00  0.00     0.084 C 
ATOM     26  C13 HQM C   1      24.232  77.298  15.350  0.00  0.00     0.025 C 
ATOM     27  C14 HQM C   1      25.669  77.008  15.846  0.00  0.00     0.002 C 
ATOM     28  C15 HQM C   1      26.379  78.300  16.279  0.00  0.00     0.000 C 
ATOM     29  C16 HQM C   1      25.606  79.091  17.345  0.00  0.00     0.002 C 
ATOM     30  C17 HQM C   1      24.164  79.348  16.869  0.00  0.00     0.025 C 
ENDBRANCH  20  25
ENDBRANCH   4  20
BRANCH   1  31
ATOM     31  C29 HQM C   1      21.618  79.819  10.339  0.00  0.00     0.034 A 
ATOM     32  C30 HQM C   1      21.048  79.039   9.151  0.00  0.00     0.026 A 
ATOM     33  C31 HQM C   1      20.366  80.320   9.617  0.00  0.00     0.096 A 
BRANCH  33  34
ATOM     34  C32 HQM C   1      19.048  80.154  10.394  0.00  0.00     0.177 C 
ATOM     35  O33 HQM C   1      18.506  81.127  10.999  0.00  0.00    -0.648 OA
ATOM     36  O34 HQM C   1      18.505  79.022  10.432  0.00  0.00    -0.648 OA
ENDBRANCH  33  34
ENDBRANCH   1  31
TORSDOF 8
ENDMDL
MODEL 3
REMARK VINA RESULT:   -12.076      1.397      2.029
REMARK INTER + INTRA:         -17.180
REMARK INTER:                 -17.586
REMARK INTRA:                   0.406
REMARK UNBOUND:                 0.544
REMARK  8 active torsions:
REMARK  status: ('A' for Active; 'I' for Inactive)
REMARK    1  A    between atoms: C01_1  and  C29_31 
REMARK    2  A    between atoms: C03_3  and  N18_18 
REMARK    3  A    between atoms: C04_4  and  N07_7 
REMARK    4  A    between atoms: N07_7  and  C08_8 
REMARK    5  A    between atoms: N07_7  and  C12_12 
REMARK    6  A    between atoms: C08_8  and  C09_9 
REMARK       I    between atoms: N18_18  and  C19_20 
REMARK       I    between atoms: C19_20  and  N20_21 
REMARK    7  A    between atoms: N20_21  and  C21_23 
REMARK    8  A    between atoms: C31_33  and  C32_34 
ROOT
ATOM      1  C01 HQM C   1      21.440  79.500  12.101  0.00  0.00    -0.051 A 
ATOM      2  C02 HQM C   1      21.013  78.248  12.542  0.00  0.00     0.039 A 
ATOM      3  C03 HQM C   1      21.311  77.844  13.835  0.00  0.00     0.063 A 
ATOM      4  C04 HQM C   1      22.108  78.636  14.637  0.00  0.00     0.057 A 
ATOM      5  C05 HQM C   1      22.516  79.896  14.211  0.00  0.00     0.032 A 
ATOM      6  C06 HQM C   1      22.188  80.333  12.930  0.00  0.00     0.010 A 
ENDROOT
BRANCH   3   7
ATOM      7  N18 HQM C   1      20.954  76.513  14.298  0.00  0.00    -0.307 N 
ATOM      8  H18 HQM C   1      21.341  76.180  15.170  0.00  0.00     0.170 HD
ATOM      9  C19 HQM C   1      20.066  75.645  13.553  0.00  0.00     0.325 C 
ATOM     10  N20 HQM C   1      19.929  74.333  14.163  0.00  0.00    -0.309 N 
ATOM     11  O28 HQM C   1      19.486  76.020  12.580  0.00  0.00    -0.247 OA
ATOM     12  H20 HQM C   1      20.430  74.103  15.009  0.00  0.00     0.170 HD
BRANCH  10  13
ATOM     13  C21 HQM C   1      19.054  73.356  13.528  0.00  0.00     0.036 A 
ATOM     14  C22 HQM C   1      17.715  73.708  13.379  0.00  0.00     0.030 A 
ATOM     15  C23 HQM C   1      16.831  72.807  12.799  0.00  0.00     0.009 A 
ATOM     16  C24 HQM C   1      17.335  71.570  12.390  0.00  0.00    -0.062 A 
ATOM     17  C25 HQM C   1      18.671  71.229  12.555  0.00  0.00     0.009 A 
ATOM     18  C27 HQM C   1      16.376  70.549  11.744  0.00  0.00     0.048 C 
ATOM     19  C26 HQM C   1      19.553  72.124  13.128  0.00  0.00     0.030 A 
ENDBRANCH  10  13
ENDBRANCH   3   7
BRANCH   4  20
ATOM     20  N07 HQM C   1      22.439  78.203  16.034  0.00  0.00    -0.374 N 
BRANCH  20  21
ATOM     21  C08 HQM C   1      23.663  77.384  16.366  0.00  0.00     0.127 C 
BRANCH  21  22
ATOM     22  C09 HQM C   1      24.796  77.572  15.299  0.00  0.00    -0.005 C 
ATOM     23  C10 HQM C   1      25.756  78.687  15.828  0.00  0.00     0.011 C 
ATOM     24  C11 HQM C   1      25.496  76.217  15.149  0.00  0.00     0.011 C 
ENDBRANCH  21  22
ENDBRANCH  20  21
BRANCH  20  25
ATOM     25  C12 HQM C   1      21.637  78.888  17.129  0.00  0.00     0.084 C 
ATOM     26  C13 HQM C   1      21.459  80.381  16.867  0.00  0.00     0.025 C 
ATOM     27  C14 HQM C   1      20.486  80.955  17.924  0.00  0.00     0.002 C 
ATOM     28  C15 HQM C   1      19.152  80.193  17.924  0.00  0.00     0.000 C 
ATOM     29  C16 HQM C   1      19.316  78.680  18.130  0.00  0.00     0.002 C 
ATOM     30  C17 HQM C   1      20.313  78.112  17.102  0.00  0.00     0.025 C 
ENDBRANCH  20  25
ENDBRANCH   4  20
BRANCH   1  31
ATOM     31  C29 HQM C   1      21.069  79.977  10.669  0.00  0.00     0.034 A 
ATOM     32  C30 HQM C   1      21.576  81.138   9.808  0.00  0.00     0.026 A 
ATOM     33  C31 HQM C   1      21.838  79.700   9.375  0.00  0.00     0.096 A 
BRANCH  33  34
ATOM     34  C32 HQM C   1      23.272  79.176   9.563  0.00  0.00     0.177 C 
ATOM     35  O33 HQM C   1      23.541  78.256  10.392  0.00  0.00    -0.648 OA
ATOM     36  O34 HQM C   1      24.197  79.681   8.878  0.00  0.00    -0.648 OA
ENDBRANCH  33  34
ENDBRANCH   1  31
TORSDOF 8
ENDMDL
MODEL 4
REMARK VINA RESULT:   -11.932      2.407      5.397
REMARK INTER + INTRA:         -16.967
REMARK INTER:                 -17.150
REMARK INTRA:                   0.182
REMARK UNBOUND:                 0.544
REMARK  8 active torsions:
REMARK  status: ('A' for Active; 'I' for Inactive)
REMARK    1  A    between atoms: C01_1  and  C29_31 
REMARK    2  A    between atoms: C03_3  and  N18_18 
REMARK    3  A    between atoms: C04_4  and  N07_7 
REMARK    4  A    between atoms: N07_7  and  C08_8 
REMARK    5  A    between atoms: N07_7  and  C12_12 
REMARK    6  A    between atoms: C08_8  and  C09_9 
REMARK       I    between atoms: N18_18  and  C19_20 
REMARK       I    between atoms: C19_20  and  N20_21 
REMARK    7  A    between atoms: N20_21  and  C21_23 
REMARK    8  A    between atoms: C31_33  and  C32_34 
ROOT
ATOM      1  C01 HQM C   1      20.128  79.444  17.536  0.00  0.00    -0.051 A 
ATOM      2  C02 HQM C   1      20.292  78.201  16.927  0.00  0.00     0.039 A 
ATOM      3  C03 HQM C   1      21.235  78.056  15.919  0.00  0.00     0.063 A 
ATOM      4  C04 HQM C   1      21.930  79.158  15.463  0.00  0.00     0.057 A 
ATOM      5  C05 HQM C   1      21.787  80.395  16.084  0.00  0.00     0.032 A 
ATOM      6  C06 HQM C   1      20.874  80.546  17.125  0.00  0.00     0.010 A 
ENDROOT
BRANCH   3   7
ATOM      7  N18 HQM C   1      21.372  76.797  15.206  0.00  0.00    -0.307 N 
ATOM      8  H18 HQM C   1      22.298  76.460  14.985  0.00  0.00     0.170 HD
ATOM      9  C19 HQM C   1      20.228  76.007  14.799  0.00  0.00     0.325 C 
ATOM     10  N20 HQM C   1      20.606  74.839  14.022  0.00  0.00    -0.309 N 
ATOM     11  O28 HQM C   1      19.116  76.288  15.130  0.00  0.00    -0.247 OA
ATOM     12  H20 HQM C   1      21.576  74.651  13.811  0.00  0.00     0.170 HD
BRANCH  10  13
ATOM     13  C21 HQM C   1      19.557  73.943  13.553  0.00  0.00     0.036 A 
ATOM     14  C22 HQM C   1      19.814  72.575  13.625  0.00  0.00     0.030 A 
ATOM     15  C23 HQM C   1      18.858  71.675  13.173  0.00  0.00     0.009 A 
ATOM     16  C24 HQM C   1      17.668  72.192  12.657  0.00  0.00    -0.062 A 
ATOM     17  C25 HQM C   1      17.430  73.558  12.582  0.00  0.00     0.009 A 
ATOM     18  C27 HQM C   1      16.589  71.215  12.147  0.00  0.00     0.048 C 
ATOM     19  C26 HQM C   1      18.377  74.456  13.034  0.00  0.00     0.030 A 
ENDBRANCH  10  13
ENDBRANCH   3   7
BRANCH   4  20
ATOM     20  N07 HQM C   1      22.947  79.011  14.371  0.00  0.00    -0.374 N 
BRANCH  20  21
ATOM     21  C08 HQM C   1      24.431  78.959  14.641  0.00  0.00     0.127 C 
BRANCH  21  22
ATOM     22  C09 HQM C   1      24.758  78.143  15.939  0.00  0.00    -0.005 C 
ATOM     23  C10 HQM C   1      25.206  76.713  15.493  0.00  0.00     0.011 C 
ATOM     24  C11 HQM C   1      25.868  78.903  16.674  0.00  0.00     0.011 C 
ENDBRANCH  21  22
ENDBRANCH  20  21
BRANCH  20  25
ATOM     25  C12 HQM C   1      22.384  78.618  13.015  0.00  0.00     0.084 C 
ATOM     26  C13 HQM C   1      21.118  79.395  12.667  0.00  0.00     0.025 C 
ATOM     27  C14 HQM C   1      20.722  79.067  11.207  0.00  0.00     0.002 C 
ATOM     28  C15 HQM C   1      21.879  79.360  10.239  0.00  0.00     0.000 C 
ATOM     29  C16 HQM C   1      23.178  78.630  10.606  0.00  0.00     0.002 C 
ATOM     30  C17 HQM C   1      23.554  78.925  12.071  0.00  0.00     0.025 C 
ENDBRANCH  20  25
ENDBRANCH   4  20
BRANCH   1  31
ATOM     31  C29 HQM C   1      19.105  79.600  18.696  0.00  0.00     0.034 A 
ATOM     32  C30 HQM C   1      19.236  79.428  20.213  0.00  0.00     0.026 A 
ATOM     33  C31 HQM C   1      18.940  80.804  19.627  0.00  0.00     0.096 A 
BRANCH  33  34
ATOM     34  C32 HQM C   1      20.105  81.809  19.613  0.00  0.00     0.177 C 
ATOM     35  O33 HQM C   1      20.084  82.841  18.877  0.00  0.00    -0.648 OA
ATOM     36  O34 HQM C   1      21.102  81.593  20.347  0.00  0.00    -0.648 OA
ENDBRANCH  33  34
ENDBRANCH   1  31
TORSDOF 8
ENDMDL
MODEL 5
REMARK VINA RESULT:   -11.537      2.457      5.512
REMARK INTER + INTRA:         -16.388
REMARK INTER:                 -17.140
REMARK INTRA:                   0.751
REMARK UNBOUND:                 0.544
REMARK  8 active torsions:
REMARK  status: ('A' for Active; 'I' for Inactive)
REMARK    1  A    between atoms: C01_1  and  C29_31 
REMARK    2  A    between atoms: C03_3  and  N18_18 
REMARK    3  A    between atoms: C04_4  and  N07_7 
REMARK    4  A    between atoms: N07_7  and  C08_8 
REMARK    5  A    between atoms: N07_7  and  C12_12 
REMARK    6  A    between atoms: C08_8  and  C09_9 
REMARK       I    between atoms: N18_18  and  C19_20 
REMARK       I    between atoms: C19_20  and  N20_21 
REMARK    7  A    between atoms: N20_21  and  C21_23 
REMARK    8  A    between atoms: C31_33  and  C32_34 
ROOT
ATOM      1  C01 HQM C   1      20.056  79.527  17.675  0.00  0.00    -0.051 A 
ATOM      2  C02 HQM C   1      20.238  78.318  17.006  0.00  0.00     0.039 A 
ATOM      3  C03 HQM C   1      21.162  78.244  15.974  0.00  0.00     0.063 A 
ATOM      4  C04 HQM C   1      21.817  79.384  15.553  0.00  0.00     0.057 A 
ATOM      5  C05 HQM C   1      21.657  80.587  16.233  0.00  0.00     0.032 A 
ATOM      6  C06 HQM C   1      20.764  80.666  17.299  0.00  0.00     0.010 A 
ENDROOT
BRANCH   3   7
ATOM      7  N18 HQM C   1      21.315  77.022  15.200  0.00  0.00    -0.307 N 
ATOM      8  H18 HQM C   1      22.238  76.757  14.887  0.00  0.00     0.170 HD
ATOM      9  C19 HQM C   1      20.192  76.171  14.863  0.00  0.00     0.325 C 
ATOM     10  N20 HQM C   1      20.574  75.059  14.009  0.00  0.00    -0.309 N 
ATOM     11  O28 HQM C   1      19.099  76.365  15.300  0.00  0.00    -0.247 OA
ATOM     12  H20 HQM C   1      21.531  74.945  13.708  0.00  0.00     0.170 HD
BRANCH  10  13
ATOM     13  C21 HQM C   1      19.547  74.111  13.598  0.00  0.00     0.036 A 
ATOM     14  C22 HQM C   1      19.887  72.760  13.623  0.00  0.00     0.030 A 
ATOM     15  C23 HQM C   1      18.954  71.813  13.221  0.00  0.00     0.009 A 
ATOM     16  C24 HQM C   1      17.702  72.267  12.802  0.00  0.00    -0.062 A 
ATOM     17  C25 HQM C   1      17.382  73.618  12.771  0.00  0.00     0.009 A 
ATOM     18  C27 HQM C   1      16.647  71.237  12.348  0.00  0.00     0.048 C 
ATOM     19  C26 HQM C   1      18.306  74.563  13.173  0.00  0.00     0.030 A 
ENDBRANCH  10  13
ENDBRANCH   3   7
BRANCH   4  20
ATOM     20  N07 HQM C   1      22.813  79.313  14.434  0.00  0.00    -0.374 N 
BRANCH  20  21
ATOM     21  C08 HQM C   1      22.506  79.795  13.037  0.00  0.00     0.127 C 
BRANCH  21  22
ATOM     22  C09 HQM C   1      22.287  78.601  12.045  0.00  0.00    -0.005 C 
ATOM     23  C10 HQM C   1      20.744  78.423  11.860  0.00  0.00     0.011 C 
ATOM     24  C11 HQM C   1      22.996  78.973  10.738  0.00  0.00     0.011 C 
ENDBRANCH  21  22
ENDBRANCH  20  21
BRANCH  20  25
ATOM     25  C12 HQM C   1      24.240  79.007  14.860  0.00  0.00     0.084 C 
ATOM     26  C13 HQM C   1      24.599  79.660  16.191  0.00  0.00     0.025 C 
ATOM     27  C14 HQM C   1      25.992  79.150  16.631  0.00  0.00     0.002 C 
ATOM     28  C15 HQM C   1      26.027  77.616  16.698  0.00  0.00     0.000 C 
ATOM     29  C16 HQM C   1      25.613  76.940  15.383  0.00  0.00     0.002 C 
ATOM     30  C17 HQM C   1      24.243  77.473  14.923  0.00  0.00     0.025 C 
ENDBRANCH  20  25
ENDBRANCH   4  20
BRANCH   1  31
ATOM     31  C29 HQM C   1      19.056  79.604  18.862  0.00  0.00     0.034 A 
ATOM     32  C30 HQM C   1      19.229  79.384  20.369  0.00  0.00     0.026 A 
ATOM     33  C31 HQM C   1      18.867  80.767  19.839  0.00  0.00     0.096 A 
BRANCH  33  34
ATOM     34  C32 HQM C   1      19.992  81.817  19.834  0.00  0.00     0.177 C 
ATOM     35  O33 HQM C   1      19.903  82.885  19.159  0.00  0.00    -0.648 OA
ATOM     36  O34 HQM C   1      21.027  81.600  20.515  0.00  0.00    -0.648 OA
ENDBRANCH  33  34
ENDBRANCH   1  31
TORSDOF 8
ENDMDL
MODEL 6
REMARK VINA RESULT:   -10.421      3.176      7.229
REMARK INTER + INTRA:         -14.751
REMARK INTER:                 -14.146
REMARK INTRA:                  -0.604
REMARK UNBOUND:                 0.544
REMARK  8 active torsions:
REMARK  status: ('A' for Active; 'I' for Inactive)
REMARK    1  A    between atoms: C01_1  and  C29_31 
REMARK    2  A    between atoms: C03_3  and  N18_18 
REMARK    3  A    between atoms: C04_4  and  N07_7 
REMARK    4  A    between atoms: N07_7  and  C08_8 
REMARK    5  A    between atoms: N07_7  and  C12_12 
REMARK    6  A    between atoms: C08_8  and  C09_9 
REMARK       I    between atoms: N18_18  and  C19_20 
REMARK       I    between atoms: C19_20  and  N20_21 
REMARK    7  A    between atoms: N20_21  and  C21_23 
REMARK    8  A    between atoms: C31_33  and  C32_34 
ROOT
ATOM      1  C01 HQM C   1      20.747  78.507  12.792  0.00  0.00    -0.051 A 
ATOM      2  C02 HQM C   1      21.099  79.555  13.641  0.00  0.00     0.039 A 
ATOM      3  C03 HQM C   1      21.604  79.270  14.902  0.00  0.00     0.063 A 
ATOM      4  C04 HQM C   1      21.660  77.962  15.341  0.00  0.00     0.057 A 
ATOM      5  C05 HQM C   1      21.333  76.912  14.489  0.00  0.00     0.032 A 
ATOM      6  C06 HQM C   1      20.864  77.183  13.205  0.00  0.00     0.010 A 
ENDROOT
BRANCH   3   7
ATOM      7  N18 HQM C   1      21.902  80.338  15.842  0.00  0.00    -0.307 N 
ATOM      8  H18 HQM C   1      22.843  80.701  15.885  0.00  0.00     0.170 HD
ATOM      9  C19 HQM C   1      20.897  80.899  16.722  0.00  0.00     0.325 C 
ATOM     10  N20 HQM C   1      21.446  81.887  17.635  0.00  0.00    -0.309 N 
ATOM     11  O28 HQM C   1      19.746  80.597  16.640  0.00  0.00    -0.247 OA
ATOM     12  H20 HQM C   1      22.431  82.113  17.619  0.00  0.00     0.170 HD
BRANCH  10  13
ATOM     13  C21 HQM C   1      20.547  82.547  18.573  0.00  0.00     0.036 A 
ATOM     14  C22 HQM C   1      20.382  83.923  18.430  0.00  0.00     0.030 A 
ATOM     15  C23 HQM C   1      19.553  84.607  19.309  0.00  0.00     0.009 A 
ATOM     16  C24 HQM C   1      18.918  83.872  20.312  0.00  0.00    -0.062 A 
ATOM     17  C25 HQM C   1      19.101  82.502  20.449  0.00  0.00     0.009 A 
ATOM     18  C27 HQM C   1      17.992  84.606  21.304  0.00  0.00     0.048 C 
ATOM     19  C26 HQM C   1      19.922  81.818  19.575  0.00  0.00     0.030 A 
ENDBRANCH  10  13
ENDBRANCH   3   7
BRANCH   4  20
ATOM     20  N07 HQM C   1      22.199  77.646  16.703  0.00  0.00    -0.374 N 
BRANCH  20  21
ATOM     21  C08 HQM C   1      21.326  77.154  17.832  0.00  0.00     0.127 C 
BRANCH  21  22
ATOM     22  C09 HQM C   1      20.006  77.991  17.954  0.00  0.00    -0.005 C 
ATOM     23  C10 HQM C   1      18.890  77.221  17.175  0.00  0.00     0.011 C 
ATOM     24  C11 HQM C   1      19.696  78.119  19.449  0.00  0.00     0.011 C 
ENDBRANCH  21  22
ENDBRANCH  20  21
BRANCH  20  25
ATOM     25  C12 HQM C   1      23.714  77.563  16.794  0.00  0.00     0.084 C 
ATOM     26  C13 HQM C   1      24.359  77.271  15.443  0.00  0.00     0.025 C 
ATOM     27  C14 HQM C   1      25.895  77.385  15.593  0.00  0.00     0.002 C 
ATOM     28  C15 HQM C   1      26.298  78.757  16.156  0.00  0.00     0.000 C 
ATOM     29  C16 HQM C   1      25.615  79.092  17.489  0.00  0.00     0.002 C 
ATOM     30  C17 HQM C   1      24.088  78.943  17.352  0.00  0.00     0.025 C 
ENDBRANCH  20  25
ENDBRANCH   4  20
BRANCH   1  31
ATOM     31  C29 HQM C   1      20.224  78.821  11.363  0.00  0.00     0.034 A 
ATOM     32  C30 HQM C   1      19.996  80.141  10.618  0.00  0.00     0.026 A 
ATOM     33  C31 HQM C   1      21.060  79.164  10.128  0.00  0.00     0.096 A 
BRANCH  33  34
ATOM     34  C32 HQM C   1      22.524  79.544  10.410  0.00  0.00     0.177 C 
ATOM     35  O33 HQM C   1      23.450  78.680  10.395  0.00  0.00    -0.648 OA
ATOM     36  O34 HQM C   1      22.800  80.743  10.668  0.00  0.00    -0.648 OA
ENDBRANCH  33  34
ENDBRANCH   1  31
TORSDOF 8
ENDMDL
MODEL 7
REMARK VINA RESULT:   -10.305      2.184      7.510
REMARK INTER + INTRA:         -14.580
REMARK INTER:                 -14.609
REMARK INTRA:                   0.029
REMARK UNBOUND:                 0.544
REMARK  8 active torsions:
REMARK  status: ('A' for Active; 'I' for Inactive)
REMARK    1  A    between atoms: C01_1  and  C29_31 
REMARK    2  A    between atoms: C03_3  and  N18_18 
REMARK    3  A    between atoms: C04_4  and  N07_7 
REMARK    4  A    between atoms: N07_7  and  C08_8 
REMARK    5  A    between atoms: N07_7  and  C12_12 
REMARK    6  A    between atoms: C08_8  and  C09_9 
REMARK       I    between atoms: N18_18  and  C19_20 
REMARK       I    between atoms: C19_20  and  N20_21 
REMARK    7  A    between atoms: N20_21  and  C21_23 
REMARK    8  A    between atoms: C31_33  and  C32_34 
ROOT
ATOM      1  C01 HQM C   1      19.195  75.674  13.915  0.00  0.00    -0.051 A 
ATOM      2  C02 HQM C   1      19.403  76.221  15.180  0.00  0.00     0.039 A 
ATOM      3  C03 HQM C   1      20.378  77.194  15.348  0.00  0.00     0.063 A 
ATOM      4  C04 HQM C   1      21.196  77.539  14.291  0.00  0.00     0.057 A 
ATOM      5  C05 HQM C   1      20.976  77.013  13.022  0.00  0.00     0.032 A 
ATOM      6  C06 HQM C   1      19.973  76.066  12.829  0.00  0.00     0.010 A 
ENDROOT
BRANCH   3   7
ATOM      7  N18 HQM C   1      20.678  77.725  16.668  0.00  0.00    -0.307 N 
ATOM      8  H18 HQM C   1      21.209  77.156  17.313  0.00  0.00     0.170 HD
ATOM      9  C19 HQM C   1      20.243  79.039  17.094  0.00  0.00     0.325 C 
ATOM     10  N20 HQM C   1      20.579  79.315  18.480  0.00  0.00    -0.309 N 
ATOM     11  O28 HQM C   1      19.717  79.804  16.343  0.00  0.00    -0.247 OA
ATOM     12  H20 HQM C   1      21.058  78.625  19.042  0.00  0.00     0.170 HD
BRANCH  10  13
ATOM     13  C21 HQM C   1      20.213  80.608  19.043  0.00  0.00     0.036 A 
ATOM     14  C22 HQM C   1      20.587  81.741  18.324  0.00  0.00     0.030 A 
ATOM     15  C23 HQM C   1      20.282  83.000  18.824  0.00  0.00     0.009 A 
ATOM     16  C24 HQM C   1      19.608  83.071  20.044  0.00  0.00    -0.062 A 
ATOM     17  C25 HQM C   1      19.251  81.933  20.756  0.00  0.00     0.009 A 
ATOM     18  C27 HQM C   1      19.258  84.457  20.624  0.00  0.00     0.048 C 
ATOM     19  C26 HQM C   1      19.550  80.679  20.260  0.00  0.00     0.030 A 
ENDBRANCH  10  13
ENDBRANCH   3   7
BRANCH   4  20
ATOM     20  N07 HQM C   1      22.255  78.586  14.466  0.00  0.00    -0.374 N 
BRANCH  20  21
ATOM     21  C08 HQM C   1      22.094  80.001  13.967  0.00  0.00     0.127 C 
BRANCH  21  22
ATOM     22  C09 HQM C   1      22.600  80.159  12.491  0.00  0.00    -0.005 C 
ATOM     23  C10 HQM C   1      23.676  79.051  12.245  0.00  0.00     0.011 C 
ATOM     24  C11 HQM C   1      21.377  80.001  11.581  0.00  0.00     0.011 C 
ENDBRANCH  21  22
ENDBRANCH  20  21
BRANCH  20  25
ATOM     25  C12 HQM C   1      23.368  78.220  15.434  0.00  0.00     0.084 C 
ATOM     26  C13 HQM C   1      24.469  77.401  14.768  0.00  0.00     0.025 C 
ATOM     27  C14 HQM C   1      25.636  77.233  15.770  0.00  0.00     0.002 C 
ATOM     28  C15 HQM C   1      26.137  78.595  16.273  0.00  0.00     0.000 C 
ATOM     29  C16 HQM C   1      25.031  79.457  16.897  0.00  0.00     0.002 C 
ATOM     30  C17 HQM C   1      23.852  79.595  15.915  0.00  0.00     0.025 C 
ENDBRANCH  20  25
ENDBRANCH   4  20
BRANCH   1  31
ATOM     31  C29 HQM C   1      18.073  74.617  13.712  0.00  0.00     0.034 A 
ATOM     32  C30 HQM C   1      17.616  73.825  12.483  0.00  0.00     0.026 A 
ATOM     33  C31 HQM C   1      18.234  73.096  13.670  0.00  0.00     0.096 A 
BRANCH  33  34
ATOM     34  C32 HQM C   1      19.677  72.592  13.493  0.00  0.00     0.177 C 
ATOM     35  O33 HQM C   1      20.622  73.010  14.226  0.00  0.00    -0.648 OA
ATOM     36  O34 HQM C   1      19.919  71.750  12.591  0.00  0.00    -0.648 OA
ENDBRANCH  33  34
ENDBRANCH   1  31
TORSDOF 8
ENDMDL
