MODEL 1
REMARK VINA RESULT:   -11.862      0.000      0.000
REMARK INTER + INTRA:         -15.189
REMARK INTER:                 -14.706
REMARK INTRA:                  -0.484
REMARK UNBOUND:                -0.553
REMARK  4 active torsions:
REMARK  status: ('A' for Active; 'I' for Inactive)
REMARK    1  A    between atoms: C3_3  and  O10_11 
REMARK    2  A    between atoms: C9_10  and  C12_13 
REMARK       I    between atoms: C12_13  and  N13_14 
REMARK    3  A    between atoms: N13_14  and  C15_17 
REMARK    4  A    between atoms: N17_19  and  C20_22 
ROOT
ATOM      1  C12 HRQ B   1      -1.449  16.906 -13.426  0.00  0.00     0.254 C 
ATOM      2  N13 HRQ B   1      -0.799  16.269 -12.422  0.00  0.00    -0.351 N 
ATOM      3  H13 HRQ B   1      -1.134  16.358 -11.474  0.00  0.00     0.163 HD
ATOM      4  O14 HRQ B   1      -1.093  16.816 -14.604  0.00  0.00    -0.268 OA
ENDROOT
BRANCH   1   5
ATOM      5  C9  HRQ B   1      -2.590  17.748 -13.045  0.00  0.00     0.059 A 
ATOM      6  C5  HRQ B   1      -2.666  18.587 -11.818  0.00  0.00     0.010 A 
ATOM      7  C4  HRQ B   1      -1.815  18.874 -10.741  0.00  0.00     0.015 A 
ATOM      8  C6  HRQ B   1      -3.912  19.197 -11.934  0.00  0.00     0.077 A 
ATOM      9  C1  HRQ B   1      -2.278  19.793  -9.796  0.00  0.00     0.004 A 
ATOM     10  C2  HRQ B   1      -3.533  20.396  -9.890  0.00  0.00     0.039 A 
ATOM     11  C3  HRQ B   1      -4.382  20.095 -10.970  0.00  0.00     0.095 A 
ATOM     12  N7  HRQ B   1      -4.534  18.786 -13.073  0.00  0.00    -0.362 N 
ATOM     13  H7  HRQ B   1      -5.451  19.078 -13.378  0.00  0.00     0.165 HD
ATOM     14  C8  HRQ B   1      -3.741  17.939 -13.719  0.00  0.00     0.106 A 
BRANCH  11  15
ATOM     15  O10 HRQ B   1      -5.641  20.637 -11.129  0.00  0.00    -0.354 OA
ATOM     16  C11 HRQ B   1      -6.150  21.481 -10.076  0.00  0.00     0.210 C 
ENDBRANCH  11  15
ENDBRANCH   1   5
BRANCH   2  17
ATOM     17  C15 HRQ B   1       0.378  15.455 -12.698  0.00  0.00     0.104 C 
ATOM     18  C16 HRQ B   1       0.134  13.939 -12.714  0.00  0.00     0.148 C 
ATOM     19  N17 HRQ B   1       1.457  13.406 -12.387  0.00  0.00    -0.379 N 
ATOM     20  C18 HRQ B   1       2.348  14.414 -11.813  0.00  0.00     0.125 C 
ATOM     21  C19 HRQ B   1       1.429  15.628 -11.589  0.00  0.00     0.046 C 
BRANCH  19  22
ATOM     22  C20 HRQ B   1       1.910  12.190 -12.827  0.00  0.00     0.030 A 
ATOM     23  C21 HRQ B   1       3.184  11.728 -12.469  0.00  0.00     0.030 A 
ATOM     24  C22 HRQ B   1       3.678  10.510 -12.920  0.00  0.00     0.009 A 
ATOM     25  C23 HRQ B   1       2.912   9.724 -13.774  0.00  0.00    -0.062 A 
ATOM     26  C24 HRQ B   1       1.640  10.164 -14.136  0.00  0.00     0.009 A 
ATOM     27  C26 HRQ B   1       3.451   8.389 -14.283  0.00  0.00     0.048 C 
ATOM     28  C25 HRQ B   1       1.137  11.376 -13.672  0.00  0.00     0.030 A 
ENDBRANCH  19  22
ENDBRANCH   2  17
TORSDOF 4
ENDMDL
MODEL 2
REMARK VINA RESULT:   -11.836      7.338      8.814
REMARK INTER + INTRA:         -15.156
REMARK INTER:                 -14.707
REMARK INTRA:                  -0.449
REMARK UNBOUND:                -0.553
REMARK  4 active torsions:
REMARK  status: ('A' for Active; 'I' for Inactive)
REMARK    1  A    between atoms: C3_3  and  O10_11 
REMARK    2  A    between atoms: C9_10  and  C12_13 
REMARK       I    between atoms: C12_13  and  N13_14 
REMARK    3  A    between atoms: N13_14  and  C15_17 
REMARK    4  A    between atoms: N17_19  and  C20_22 
ROOT
ATOM      1  C12 HRQ B   1      -6.918  10.466 -13.672  0.00  0.00     0.254 C 
ATOM      2  N13 HRQ B   1      -6.241   9.826 -14.656  0.00  0.00    -0.351 N 
ATOM      3  H13 HRQ B   1      -6.396  10.086 -15.620  0.00  0.00     0.163 HD
ATOM      4  O14 HRQ B   1      -6.754  10.201 -12.479  0.00  0.00    -0.268 OA
ENDROOT
BRANCH   1   5
ATOM      5  C9  HRQ B   1      -7.894  11.479 -14.093  0.00  0.00     0.059 A 
ATOM      6  C5  HRQ B   1      -8.711  11.421 -15.336  0.00  0.00     0.010 A 
ATOM      7  C4  HRQ B   1      -8.863  10.519 -16.399  0.00  0.00     0.015 A 
ATOM      8  C6  HRQ B   1      -9.481  12.578 -15.257  0.00  0.00     0.077 A 
ATOM      9  C1  HRQ B   1      -9.815  10.839 -17.369  0.00  0.00     0.004 A 
ATOM     10  C2  HRQ B   1     -10.579  12.005 -17.313  0.00  0.00     0.039 A 
ATOM     11  C3  HRQ B   1     -10.413  12.907 -16.247  0.00  0.00     0.095 A 
ATOM     12  N7  HRQ B   1      -9.178  13.270 -14.125  0.00  0.00    -0.362 N 
ATOM     13  H7  HRQ B   1      -9.594  14.146 -13.845  0.00  0.00     0.165 HD
ATOM     14  C8  HRQ B   1      -8.248  12.608 -13.448  0.00  0.00     0.106 A 
BRANCH  11  15
ATOM     15  O10 HRQ B   1     -11.119  14.087 -16.124  0.00  0.00    -0.354 OA
ATOM     16  C11 HRQ B   1     -12.037  14.436 -17.180  0.00  0.00     0.210 C 
ENDBRANCH  11  15
ENDBRANCH   1   5
BRANCH   2  17
ATOM     17  C15 HRQ B   1      -5.292   8.767 -14.338  0.00  0.00     0.104 C 
ATOM     18  C16 HRQ B   1      -3.829   9.218 -14.210  0.00  0.00     0.148 C 
ATOM     19  N17 HRQ B   1      -3.096   7.990 -14.514  0.00  0.00    -0.379 N 
ATOM     20  C18 HRQ B   1      -3.927   6.981 -15.170  0.00  0.00     0.125 C 
ATOM     21  C19 HRQ B   1      -5.239   7.728 -15.470  0.00  0.00     0.046 C 
BRANCH  19  22
ATOM     22  C20 HRQ B   1      -1.862   7.700 -13.994  0.00  0.00     0.030 A 
ATOM     23  C21 HRQ B   1      -1.287   6.434 -14.176  0.00  0.00     0.030 A 
ATOM     24  C22 HRQ B   1      -0.048   6.106 -13.640  0.00  0.00     0.009 A 
ATOM     25  C23 HRQ B   1       0.646   7.036 -12.873  0.00  0.00    -0.062 A 
ATOM     26  C24 HRQ B   1       0.093   8.302 -12.686  0.00  0.00     0.009 A 
ATOM     27  C26 HRQ B   1       2.003   6.680 -12.271  0.00  0.00     0.048 C 
ATOM     28  C25 HRQ B   1      -1.141   8.639 -13.237  0.00  0.00     0.030 A 
ENDBRANCH  19  22
ENDBRANCH   2  17
TORSDOF 4
ENDMDL
MODEL 3
REMARK VINA RESULT:   -10.405      1.808      9.867
REMARK INTER + INTRA:         -13.391
REMARK INTER:                 -13.660
REMARK INTRA:                   0.269
REMARK UNBOUND:                -0.553
REMARK  4 active torsions:
REMARK  status: ('A' for Active; 'I' for Inactive)
REMARK    1  A    between atoms: C3_3  and  O10_11 
REMARK    2  A    between atoms: C9_10  and  C12_13 
REMARK       I    between atoms: C12_13  and  N13_14 
REMARK    3  A    between atoms: N13_14  and  C15_17 
REMARK    4  A    between atoms: N17_19  and  C20_22 
ROOT
ATOM      1  C12 HRQ B   1      -0.138  15.970 -13.150  0.00  0.00     0.254 C 
ATOM      2  N13 HRQ B   1      -0.572  16.711 -12.101  0.00  0.00    -0.351 N 
ATOM      3  H13 HRQ B   1      -0.239  16.503 -11.171  0.00  0.00     0.163 HD
ATOM      4  O14 HRQ B   1      -0.498  16.193 -14.308  0.00  0.00    -0.268 OA
ENDROOT
BRANCH   1   5
ATOM      5  C9  HRQ B   1       0.765  14.855 -12.842  0.00  0.00     0.059 A 
ATOM      6  C5  HRQ B   1       0.482  13.420 -13.116  0.00  0.00     0.010 A 
ATOM      7  C4  HRQ B   1      -0.567  12.695 -13.699  0.00  0.00     0.015 A 
ATOM      8  C6  HRQ B   1       1.640  12.784 -12.676  0.00  0.00     0.077 A 
ATOM      9  C1  HRQ B   1      -0.396  11.313 -13.811  0.00  0.00     0.004 A 
ATOM     10  C2  HRQ B   1       0.750  10.661 -13.355  0.00  0.00     0.039 A 
ATOM     11  C3  HRQ B   1       1.794  11.397 -12.764  0.00  0.00     0.095 A 
ATOM     12  N7  HRQ B   1       2.521  13.697 -12.183  0.00  0.00    -0.362 N 
ATOM     13  H7  HRQ B   1       3.428  13.485 -11.795  0.00  0.00     0.165 HD
ATOM     14  C8  HRQ B   1       1.994  14.911 -12.294  0.00  0.00     0.106 A 
BRANCH  11  15
ATOM     15  O10 HRQ B   1       2.952  10.827 -12.277  0.00  0.00    -0.354 OA
ATOM     16  C11 HRQ B   1       3.655   9.897 -13.125  0.00  0.00     0.210 C 
ENDBRANCH  11  15
ENDBRANCH   1   5
BRANCH   2  17
ATOM     17  C15 HRQ B   1      -1.514  17.804 -12.303  0.00  0.00     0.104 C 
ATOM     18  C16 HRQ B   1      -2.404  18.131 -11.094  0.00  0.00     0.148 C 
ATOM     19  N17 HRQ B   1      -3.572  18.746 -11.723  0.00  0.00    -0.379 N 
ATOM     20  C18 HRQ B   1      -3.649  18.480 -13.159  0.00  0.00     0.125 C 
ATOM     21  C19 HRQ B   1      -2.532  17.449 -13.399  0.00  0.00     0.046 C 
BRANCH  19  22
ATOM     22  C20 HRQ B   1      -4.347  19.695 -11.109  0.00  0.00     0.030 A 
ATOM     23  C21 HRQ B   1      -3.902  20.344  -9.949  0.00  0.00     0.030 A 
ATOM     24  C22 HRQ B   1      -4.678  21.292  -9.295  0.00  0.00     0.009 A 
ATOM     25  C23 HRQ B   1      -5.947  21.602  -9.772  0.00  0.00    -0.062 A 
ATOM     26  C24 HRQ B   1      -6.405  20.971 -10.928  0.00  0.00     0.009 A 
ATOM     27  C26 HRQ B   1      -6.810  22.635  -9.053  0.00  0.00     0.048 C 
ATOM     28  C25 HRQ B   1      -5.622  20.032 -11.595  0.00  0.00     0.030 A 
ENDBRANCH  19  22
ENDBRANCH   2  17
TORSDOF 4
ENDMDL
MODEL 4
REMARK VINA RESULT:   -10.057      1.944      9.871
REMARK INTER + INTRA:         -12.962
REMARK INTER:                 -12.549
REMARK INTRA:                  -0.413
REMARK UNBOUND:                -0.553
REMARK  4 active torsions:
REMARK  status: ('A' for Active; 'I' for Inactive)
REMARK    1  A    between atoms: C3_3  and  O10_11 
REMARK    2  A    between atoms: C9_10  and  C12_13 
REMARK       I    between atoms: C12_13  and  N13_14 
REMARK    3  A    between atoms: N13_14  and  C15_17 
REMARK    4  A    between atoms: N17_19  and  C20_22 
ROOT
ATOM      1  C12 HRQ B   1      -0.264  15.813 -12.463  0.00  0.00     0.254 C 
ATOM      2  N13 HRQ B   1      -1.519  16.182 -12.817  0.00  0.00    -0.351 N 
ATOM      3  H13 HRQ B   1      -2.147  15.498 -13.215  0.00  0.00     0.163 HD
ATOM      4  O14 HRQ B   1       0.537  16.603 -11.956  0.00  0.00    -0.268 OA
ENDROOT
BRANCH   1   5
ATOM      5  C9  HRQ B   1       0.121  14.424 -12.742  0.00  0.00     0.059 A 
ATOM      6  C5  HRQ B   1       1.436  13.813 -12.407  0.00  0.00     0.010 A 
ATOM      7  C4  HRQ B   1       2.615  14.243 -11.779  0.00  0.00     0.015 A 
ATOM      8  C6  HRQ B   1       1.290  12.499 -12.842  0.00  0.00     0.077 A 
ATOM      9  C1  HRQ B   1       3.627  13.294 -11.617  0.00  0.00     0.004 A 
ATOM     10  C2  HRQ B   1       3.501  11.979 -12.066  0.00  0.00     0.039 A 
ATOM     11  C3  HRQ B   1       2.318  11.561 -12.702  0.00  0.00     0.095 A 
ATOM     12  N7  HRQ B   1       0.055  12.317 -13.385  0.00  0.00    -0.362 N 
ATOM     13  H7  HRQ B   1      -0.290  11.454 -13.779  0.00  0.00     0.165 HD
ATOM     14  C8  HRQ B   1      -0.623  13.457 -13.313  0.00  0.00     0.106 A 
BRANCH  11  15
ATOM     15  O10 HRQ B   1       2.118  10.284 -13.186  0.00  0.00    -0.354 OA
ATOM     16  C11 HRQ B   1       2.754   9.928 -14.431  0.00  0.00     0.210 C 
ENDBRANCH  11  15
ENDBRANCH   1   5
BRANCH   2  17
ATOM     17  C15 HRQ B   1      -1.971  17.554 -12.629  0.00  0.00     0.104 C 
ATOM     18  C16 HRQ B   1      -3.088  17.737 -11.589  0.00  0.00     0.148 C 
ATOM     19  N17 HRQ B   1      -3.734  18.969 -12.037  0.00  0.00    -0.379 N 
ATOM     20  C18 HRQ B   1      -3.383  19.326 -13.413  0.00  0.00     0.125 C 
ATOM     21  C19 HRQ B   1      -2.604  18.099 -13.919  0.00  0.00     0.046 C 
BRANCH  19  22
ATOM     22  C20 HRQ B   1      -4.361  19.844 -11.190  0.00  0.00     0.030 A 
ATOM     23  C21 HRQ B   1      -5.680  20.254 -11.429  0.00  0.00     0.030 A 
ATOM     24  C22 HRQ B   1      -6.330  21.158 -10.599  0.00  0.00     0.009 A 
ATOM     25  C23 HRQ B   1      -5.662  21.706  -9.509  0.00  0.00    -0.062 A 
ATOM     26  C24 HRQ B   1      -4.352  21.306  -9.251  0.00  0.00     0.009 A 
ATOM     27  C26 HRQ B   1      -6.366  22.708  -8.597  0.00  0.00     0.048 C 
ATOM     28  C25 HRQ B   1      -3.703  20.387 -10.072  0.00  0.00     0.030 A 
ENDBRANCH  19  22
ENDBRANCH   2  17
TORSDOF 4
ENDMDL
MODEL 5
REMARK VINA RESULT:    -9.683      6.458      7.851
REMARK INTER + INTRA:         -12.500
REMARK INTER:                 -11.905
REMARK INTRA:                  -0.595
REMARK UNBOUND:                -0.553
REMARK  4 active torsions:
REMARK  status: ('A' for Active; 'I' for Inactive)
REMARK    1  A    between atoms: C3_3  and  O10_11 
REMARK    2  A    between atoms: C9_10  and  C12_13 
REMARK       I    between atoms: C12_13  and  N13_14 
REMARK    3  A    between atoms: N13_14  and  C15_17 
REMARK    4  A    between atoms: N17_19  and  C20_22 
ROOT
ATOM      1  C12 HRQ B   1      -5.587   9.946 -13.811  0.00  0.00     0.254 C 
ATOM      2  N13 HRQ B   1      -4.383  10.177 -14.388  0.00  0.00    -0.351 N 
ATOM      3  H13 HRQ B   1      -4.342  10.555 -15.323  0.00  0.00     0.163 HD
ATOM      4  O14 HRQ B   1      -5.695   9.504 -12.665  0.00  0.00    -0.268 OA
ENDROOT
BRANCH   1   5
ATOM      5  C9  HRQ B   1      -6.775  10.217 -14.630  0.00  0.00     0.059 A 
ATOM      6  C5  HRQ B   1      -7.745  11.323 -14.398  0.00  0.00     0.010 A 
ATOM      7  C4  HRQ B   1      -7.870  12.375 -13.478  0.00  0.00     0.015 A 
ATOM      8  C6  HRQ B   1      -8.652  11.167 -15.442  0.00  0.00     0.077 A 
ATOM      9  C1  HRQ B   1      -8.944  13.249 -13.660  0.00  0.00     0.004 A 
ATOM     10  C2  HRQ B   1      -9.871  13.093 -14.690  0.00  0.00     0.039 A 
ATOM     11  C3  HRQ B   1      -9.741  12.029 -15.602  0.00  0.00     0.095 A 
ATOM     12  N7  HRQ B   1      -8.303  10.102 -16.215  0.00  0.00    -0.362 N 
ATOM     13  H7  HRQ B   1      -8.806   9.778 -17.027  0.00  0.00     0.165 HD
ATOM     14  C8  HRQ B   1      -7.193   9.558 -15.728  0.00  0.00     0.106 A 
BRANCH  11  15
ATOM     15  O10 HRQ B   1     -10.622  11.797 -16.639  0.00  0.00    -0.354 OA
ATOM     16  C11 HRQ B   1     -11.181  12.940 -17.318  0.00  0.00     0.210 C 
ENDBRANCH  11  15
ENDBRANCH   1   5
BRANCH   2  17
ATOM     17  C15 HRQ B   1      -3.148   9.886 -13.671  0.00  0.00     0.104 C 
ATOM     18  C16 HRQ B   1      -1.956  10.785 -14.033  0.00  0.00     0.148 C 
ATOM     19  N17 HRQ B   1      -0.812   9.939 -13.697  0.00  0.00    -0.379 N 
ATOM     20  C18 HRQ B   1      -1.176   8.530 -13.543  0.00  0.00     0.125 C 
ATOM     21  C19 HRQ B   1      -2.639   8.477 -14.016  0.00  0.00     0.046 C 
BRANCH  19  22
ATOM     22  C20 HRQ B   1       0.399  10.433 -13.290  0.00  0.00     0.030 A 
ATOM     23  C21 HRQ B   1       0.666  11.808 -13.341  0.00  0.00     0.030 A 
ATOM     24  C22 HRQ B   1       1.893  12.333 -12.957  0.00  0.00     0.009 A 
ATOM     25  C23 HRQ B   1       2.910  11.484 -12.532  0.00  0.00    -0.062 A 
ATOM     26  C24 HRQ B   1       2.661  10.114 -12.469  0.00  0.00     0.009 A 
ATOM     27  C26 HRQ B   1       4.265  12.052 -12.118  0.00  0.00     0.048 C 
ATOM     28  C25 HRQ B   1       1.426   9.587 -12.838  0.00  0.00     0.030 A 
ENDBRANCH  19  22
ENDBRANCH   2  17
TORSDOF 4
ENDMDL
MODEL 6
REMARK VINA RESULT:    -9.523      6.547     11.021
REMARK INTER + INTRA:         -12.303
REMARK INTER:                 -11.761
REMARK INTRA:                  -0.542
REMARK UNBOUND:                -0.553
REMARK  4 active torsions:
REMARK  status: ('A' for Active; 'I' for Inactive)
REMARK    1  A    between atoms: C3_3  and  O10_11 
REMARK    2  A    between atoms: C9_10  and  C12_13 
REMARK       I    between atoms: C12_13  and  N13_14 
REMARK    3  A    between atoms: N13_14  and  C15_17 
REMARK    4  A    between atoms: N17_19  and  C20_22 
ROOT
ATOM      1  C12 HRQ B   1      -3.284   8.762 -14.140  0.00  0.00     0.254 C 
ATOM      2  N13 HRQ B   1      -4.068   9.643 -13.474  0.00  0.00    -0.351 N 
ATOM      3  H13 HRQ B   1      -3.655  10.266 -12.795  0.00  0.00     0.163 HD
ATOM      4  O14 HRQ B   1      -3.733   7.992 -14.993  0.00  0.00    -0.268 OA
ENDROOT
BRANCH   1   5
ATOM      5  C9  HRQ B   1      -1.862   8.737 -13.776  0.00  0.00     0.059 A 
ATOM      6  C5  HRQ B   1      -0.982   9.933 -13.670  0.00  0.00     0.010 A 
ATOM      7  C4  HRQ B   1      -1.143  11.318 -13.824  0.00  0.00     0.015 A 
ATOM      8  C6  HRQ B   1       0.238   9.390 -13.276  0.00  0.00     0.077 A 
ATOM      9  C1  HRQ B   1      -0.026  12.117 -13.569  0.00  0.00     0.004 A 
ATOM     10  C2  HRQ B   1       1.207  11.584 -13.193  0.00  0.00     0.039 A 
ATOM     11  C3  HRQ B   1       1.360  10.192 -13.049  0.00  0.00     0.095 A 
ATOM     12  N7  HRQ B   1       0.136   8.037 -13.163  0.00  0.00    -0.362 N 
ATOM     13  H7  HRQ B   1       0.885   7.413 -12.900  0.00  0.00     0.165 HD
ATOM     14  C8  HRQ B   1      -1.106   7.670 -13.454  0.00  0.00     0.106 A 
BRANCH  11  15
ATOM     15  O10 HRQ B   1       2.547   9.585 -12.694  0.00  0.00    -0.354 OA
ATOM     16  C11 HRQ B   1       3.489   9.283 -13.743  0.00  0.00     0.210 C 
ENDBRANCH  11  15
ENDBRANCH   1   5
BRANCH   2  17
ATOM     17  C15 HRQ B   1      -5.502   9.702 -13.729  0.00  0.00     0.104 C 
ATOM     18  C16 HRQ B   1      -5.989  10.979 -14.429  0.00  0.00     0.148 C 
ATOM     19  N17 HRQ B   1      -7.387  11.055 -14.005  0.00  0.00    -0.379 N 
ATOM     20  C18 HRQ B   1      -7.676  10.203 -12.851  0.00  0.00     0.125 C 
ATOM     21  C19 HRQ B   1      -6.288   9.707 -12.407  0.00  0.00     0.046 C 
BRANCH  19  22
ATOM     22  C20 HRQ B   1      -8.376  11.624 -14.763  0.00  0.00     0.030 A 
ATOM     23  C21 HRQ B   1      -8.631  11.173 -16.066  0.00  0.00     0.030 A 
ATOM     24  C22 HRQ B   1      -9.611  11.749 -16.864  0.00  0.00     0.009 A 
ATOM     25  C23 HRQ B   1     -10.354  12.823 -16.386  0.00  0.00    -0.062 A 
ATOM     26  C24 HRQ B   1     -10.120  13.282 -15.091  0.00  0.00     0.009 A 
ATOM     27  C26 HRQ B   1     -11.427  13.468 -17.260  0.00  0.00     0.048 C 
ATOM     28  C25 HRQ B   1      -9.149  12.695 -14.282  0.00  0.00     0.030 A 
ENDBRANCH  19  22
ENDBRANCH   2  17
TORSDOF 4
ENDMDL
MODEL 7
REMARK VINA RESULT:    -9.447      2.817      9.635
REMARK INTER + INTRA:         -12.210
REMARK INTER:                 -11.727
REMARK INTRA:                  -0.483
REMARK UNBOUND:                -0.553
REMARK  4 active torsions:
REMARK  status: ('A' for Active; 'I' for Inactive)
REMARK    1  A    between atoms: C3_3  and  O10_11 
REMARK    2  A    between atoms: C9_10  and  C12_13 
REMARK       I    between atoms: C12_13  and  N13_14 
REMARK    3  A    between atoms: N13_14  and  C15_17 
REMARK    4  A    between atoms: N17_19  and  C20_22 
ROOT
ATOM      1  C12 HRQ B   1       0.859  13.366 -12.887  0.00  0.00     0.254 C 
ATOM      2  N13 HRQ B   1      -0.137  14.022 -13.530  0.00  0.00    -0.351 N 
ATOM      3  H13 HRQ B   1      -0.756  13.512 -14.145  0.00  0.00     0.163 HD
ATOM      4  O14 HRQ B   1       1.630  13.936 -12.112  0.00  0.00    -0.268 OA
ENDROOT
BRANCH   1   5
ATOM      5  C9  HRQ B   1       1.006  11.935 -13.181  0.00  0.00     0.059 A 
ATOM      6  C5  HRQ B   1      -0.115  10.961 -13.286  0.00  0.00     0.010 A 
ATOM      7  C4  HRQ B   1      -1.513  11.021 -13.187  0.00  0.00     0.015 A 
ATOM      8  C6  HRQ B   1       0.534   9.771 -13.602  0.00  0.00     0.077 A 
ATOM      9  C1  HRQ B   1      -2.215   9.835 -13.416  0.00  0.00     0.004 A 
ATOM     10  C2  HRQ B   1      -1.575   8.631 -13.713  0.00  0.00     0.039 A 
ATOM     11  C3  HRQ B   1      -0.172   8.580 -13.802  0.00  0.00     0.095 A 
ATOM     12  N7  HRQ B   1       1.879   9.972 -13.674  0.00  0.00    -0.362 N 
ATOM     13  H7  HRQ B   1       2.567   9.263 -13.879  0.00  0.00     0.165 HD
ATOM     14  C8  HRQ B   1       2.139  11.251 -13.430  0.00  0.00     0.106 A 
BRANCH  11  15
ATOM     15  O10 HRQ B   1       0.537   7.429 -14.079  0.00  0.00    -0.354 OA
ATOM     16  C11 HRQ B   1      -0.047   6.169 -13.692  0.00  0.00     0.210 C 
ENDBRANCH  11  15
ENDBRANCH   1   5
BRANCH   2  17
ATOM     17  C15 HRQ B   1      -0.325  15.455 -13.343  0.00  0.00     0.104 C 
ATOM     18  C16 HRQ B   1      -1.512  15.846 -12.449  0.00  0.00     0.148 C 
ATOM     19  N17 HRQ B   1      -1.830  17.192 -12.924  0.00  0.00    -0.379 N 
ATOM     20  C18 HRQ B   1      -1.233  17.490 -14.226  0.00  0.00     0.125 C 
ATOM     21  C19 HRQ B   1      -0.656  16.138 -14.680  0.00  0.00     0.046 C 
BRANCH  19  22
ATOM     22  C20 HRQ B   1      -2.376  18.164 -12.127  0.00  0.00     0.030 A 
ATOM     23  C21 HRQ B   1      -1.779  18.510 -10.907  0.00  0.00     0.030 A 
ATOM     24  C22 HRQ B   1      -2.325  19.474 -10.069  0.00  0.00     0.009 A 
ATOM     25  C23 HRQ B   1      -3.513  20.108 -10.420  0.00  0.00    -0.062 A 
ATOM     26  C24 HRQ B   1      -4.117  19.782 -11.633  0.00  0.00     0.009 A 
ATOM     27  C26 HRQ B   1      -4.125  21.162  -9.501  0.00  0.00     0.048 C 
ATOM     28  C25 HRQ B   1      -3.563  18.827 -12.482  0.00  0.00     0.030 A 
ENDBRANCH  19  22
ENDBRANCH   2  17
TORSDOF 4
ENDMDL
MODEL 8
REMARK VINA RESULT:    -9.385      7.474      8.807
REMARK INTER + INTRA:         -12.133
REMARK INTER:                 -11.702
REMARK INTRA:                  -0.432
REMARK UNBOUND:                -0.553
REMARK  4 active torsions:
REMARK  status: ('A' for Active; 'I' for Inactive)
REMARK    1  A    between atoms: C3_3  and  O10_11 
REMARK    2  A    between atoms: C9_10  and  C12_13 
REMARK       I    between atoms: C12_13  and  N13_14 
REMARK    3  A    between atoms: N13_14  and  C15_17 
REMARK    4  A    between atoms: N17_19  and  C20_22 
ROOT
ATOM      1  C12 HRQ B   1      -7.142  10.072 -14.761  0.00  0.00     0.254 C 
ATOM      2  N13 HRQ B   1      -6.364   9.129 -15.345  0.00  0.00    -0.351 N 
ATOM      3  H13 HRQ B   1      -6.510   8.890 -16.315  0.00  0.00     0.163 HD
ATOM      4  O14 HRQ B   1      -6.994  10.413 -13.586  0.00  0.00    -0.268 OA
ENDROOT
BRANCH   1   5
ATOM      5  C9  HRQ B   1      -8.206  10.655 -15.588  0.00  0.00     0.059 A 
ATOM      6  C5  HRQ B   1      -8.939  11.914 -15.282  0.00  0.00     0.010 A 
ATOM      7  C4  HRQ B   1      -8.891  12.886 -14.271  0.00  0.00     0.015 A 
ATOM      8  C6  HRQ B   1      -9.804  12.043 -16.365  0.00  0.00     0.077 A 
ATOM      9  C1  HRQ B   1      -9.753  13.977 -14.402  0.00  0.00     0.004 A 
ATOM     10  C2  HRQ B   1     -10.639  14.108 -15.472  0.00  0.00     0.039 A 
ATOM     11  C3  HRQ B   1     -10.684  13.124 -16.476  0.00  0.00     0.095 A 
ATOM     12  N7  HRQ B   1      -9.642  11.000 -17.224  0.00  0.00    -0.362 N 
ATOM     13  H7  HRQ B   1     -10.159  10.860 -18.079  0.00  0.00     0.165 HD
ATOM     14  C8  HRQ B   1      -8.694  10.196 -16.756  0.00  0.00     0.106 A 
BRANCH  11  15
ATOM     15  O10 HRQ B   1     -11.540  13.172 -17.558  0.00  0.00    -0.354 OA
ATOM     16  C11 HRQ B   1     -12.365  14.344 -17.713  0.00  0.00     0.210 C 
ENDBRANCH  11  15
ENDBRANCH   1   5
BRANCH   2  17
ATOM     17  C15 HRQ B   1      -5.318   8.455 -14.587  0.00  0.00     0.104 C 
ATOM     18  C16 HRQ B   1      -3.891   8.956 -14.856  0.00  0.00     0.148 C 
ATOM     19  N17 HRQ B   1      -3.079   7.791 -14.505  0.00  0.00    -0.379 N 
ATOM     20  C18 HRQ B   1      -3.861   6.557 -14.428  0.00  0.00     0.125 C 
ATOM     21  C19 HRQ B   1      -5.243   6.967 -14.968  0.00  0.00     0.046 C 
BRANCH  19  22
ATOM     22  C20 HRQ B   1      -1.800   7.880 -14.023  0.00  0.00     0.030 A 
ATOM     23  C21 HRQ B   1      -1.295   9.100 -13.551  0.00  0.00     0.030 A 
ATOM     24  C22 HRQ B   1       0.006   9.223 -13.079  0.00  0.00     0.009 A 
ATOM     25  C23 HRQ B   1       0.857   8.123 -13.092  0.00  0.00    -0.062 A 
ATOM     26  C24 HRQ B   1       0.371   6.900 -13.552  0.00  0.00     0.009 A 
ATOM     27  C26 HRQ B   1       2.291   8.252 -12.585  0.00  0.00     0.048 C 
ATOM     28  C25 HRQ B   1      -0.938   6.770 -14.010  0.00  0.00     0.030 A 
ENDBRANCH  19  22
ENDBRANCH   2  17
TORSDOF 4
ENDMDL
MODEL 9
REMARK VINA RESULT:    -9.029      7.258     11.863
REMARK INTER + INTRA:         -11.693
REMARK INTER:                 -11.134
REMARK INTRA:                  -0.559
REMARK UNBOUND:                -0.553
REMARK  4 active torsions:
REMARK  status: ('A' for Active; 'I' for Inactive)
REMARK    1  A    between atoms: C3_3  and  O10_11 
REMARK    2  A    between atoms: C9_10  and  C12_13 
REMARK       I    between atoms: C12_13  and  N13_14 
REMARK    3  A    between atoms: N13_14  and  C15_17 
REMARK    4  A    between atoms: N17_19  and  C20_22 
ROOT
ATOM      1  C12 HRQ B   1      -3.491   9.035 -14.181  0.00  0.00     0.254 C 
ATOM      2  N13 HRQ B   1      -4.317   9.825 -13.453  0.00  0.00    -0.351 N 
ATOM      3  H13 HRQ B   1      -3.940  10.384 -12.702  0.00  0.00     0.163 HD
ATOM      4  O14 HRQ B   1      -3.896   8.346 -15.121  0.00  0.00    -0.268 OA
ENDROOT
BRANCH   1   5
ATOM      5  C9  HRQ B   1      -2.079   9.007 -13.779  0.00  0.00     0.059 A 
ATOM      6  C5  HRQ B   1      -1.273   7.775 -13.558  0.00  0.00     0.010 A 
ATOM      7  C4  HRQ B   1      -1.499   6.394 -13.655  0.00  0.00     0.015 A 
ATOM      8  C6  HRQ B   1      -0.018   8.278 -13.228  0.00  0.00     0.077 A 
ATOM      9  C1  HRQ B   1      -0.411   5.556 -13.401  0.00  0.00     0.004 A 
ATOM     10  C2  HRQ B   1       0.846   6.047 -13.049  0.00  0.00     0.039 A 
ATOM     11  C3  HRQ B   1       1.060   7.433 -12.947  0.00  0.00     0.095 A 
ATOM     12  N7  HRQ B   1      -0.040   9.639 -13.231  0.00  0.00    -0.362 N 
ATOM     13  H7  HRQ B   1       0.743  10.238 -13.015  0.00  0.00     0.165 HD
ATOM     14  C8  HRQ B   1      -1.258  10.052 -13.563  0.00  0.00     0.106 A 
BRANCH  11  15
ATOM     15  O10 HRQ B   1       2.269   7.998 -12.592  0.00  0.00    -0.354 OA
ATOM     16  C11 HRQ B   1       3.239   8.222 -13.634  0.00  0.00     0.210 C 
ENDBRANCH  11  15
ENDBRANCH   1   5
BRANCH   2  17
ATOM     17  C15 HRQ B   1      -5.744   9.875 -13.743  0.00  0.00     0.104 C 
ATOM     18  C16 HRQ B   1      -6.222  11.152 -14.450  0.00  0.00     0.148 C 
ATOM     19  N17 HRQ B   1      -7.630  11.217 -14.061  0.00  0.00    -0.379 N 
ATOM     20  C18 HRQ B   1      -7.943  10.357 -12.919  0.00  0.00     0.125 C 
ATOM     21  C19 HRQ B   1      -6.563   9.868 -12.442  0.00  0.00     0.046 C 
BRANCH  19  22
ATOM     22  C20 HRQ B   1      -8.604  11.783 -14.841  0.00  0.00     0.030 A 
ATOM     23  C21 HRQ B   1      -8.824  11.336 -16.151  0.00  0.00     0.030 A 
ATOM     24  C22 HRQ B   1      -9.788  11.909 -16.971  0.00  0.00     0.009 A 
ATOM     25  C23 HRQ B   1     -10.549  12.977 -16.507  0.00  0.00    -0.062 A 
ATOM     26  C24 HRQ B   1     -10.349  13.431 -15.205  0.00  0.00     0.009 A 
ATOM     27  C26 HRQ B   1     -11.604  13.619 -17.405  0.00  0.00     0.048 C 
ATOM     28  C25 HRQ B   1      -9.395  12.847 -14.375  0.00  0.00     0.030 A 
ENDBRANCH  19  22
ENDBRANCH   2  17
TORSDOF 4
ENDMDL
