# created with PyMOL 2.5.2
@<TRIPOS>MOLECULE
out/docking_results/vina_output/6q9y_docked_ligand.pdbqt
28 31 1                 
SMALL
USER_CHARGES
@<TRIPOS>ATOM
1	   C	-1.449	16.906	-13.426	C.2	1	UNK0	0.000	
2	   N	-0.799	16.269	-12.422	N.pl3	1	UNK0	0.000	
3	   H	-1.134	16.358	-11.474	 H	1	UNK0	0.000	
4	   O	-1.093	16.816	-14.604	O.2	1	UNK0	0.000	
5	   C	-2.590	17.748	-13.045	C.2	1	UNK0	0.000	
6	   C	-2.666	18.587	-11.818	C.2	1	UNK0	0.000	
7	   C	-1.815	18.874	-10.741	C.2	1	UNK0	0.000	
8	   C	-3.912	19.197	-11.934	C.2	1	UNK0	0.000	
9	   C	-2.278	19.793	-9.796	C.2	1	UNK0	0.000	
10	   C	-3.533	20.396	-9.890	C.2	1	UNK0	0.000	
11	   C	-4.382	20.095	-10.970	C.2	1	UNK0	0.000	
12	   N	-4.534	18.786	-13.073	N.pl3	1	UNK0	0.000	
13	   H	-5.451	19.078	-13.378	 H	1	UNK0	0.000	
14	   C	-3.741	17.939	-13.719	C.2	1	UNK0	0.000	
15	   O	-5.641	20.637	-11.129	O.3	1	UNK0	0.000	
16	   C	-6.150	21.481	-10.076	C.3	1	UNK0	0.000	
17	   C	0.378	15.455	-12.698	C.3	1	UNK0	0.000	
18	   C	0.134	13.939	-12.714	C.3	1	UNK0	0.000	
19	   N	1.457	13.406	-12.387	N.pl3	1	UNK0	0.000	
20	   C	2.348	14.414	-11.813	C.3	1	UNK0	0.000	
21	   C	1.429	15.628	-11.589	C.3	1	UNK0	0.000	
22	   C	1.910	12.190	-12.827	C.2	1	UNK0	0.000	
23	   C	3.184	11.728	-12.469	C.2	1	UNK0	0.000	
24	   C	3.678	10.510	-12.920	C.2	1	UNK0	0.000	
25	   C	2.912	9.724	-13.774	C.2	1	UNK0	0.000	
26	   C	1.640	10.164	-14.136	C.2	1	UNK0	0.000	
27	   C	3.451	8.389	-14.283	C.3	1	UNK0	0.000	
28	   C	1.137	11.376	-13.672	C.2	1	UNK0	0.000	
@<TRIPOS>BOND
1 1 5 1
2 1 2 1
3 2 3 1
4 1 4 2
5 5 6 1
6 6 7 1
7 7 9 2
8 6 8 2
9 8 11 1
10 9 10 1
11 10 11 2
12 8 12 1
13 12 13 1
14 12 14 1
15 5 14 2
16 11 15 1
17 15 16 1
18 2 17 1
19 17 21 1
20 17 18 1
21 18 19 1
22 19 20 1
23 20 21 1
24 22 23 1
25 19 22 1
26 23 24 2
27 24 25 1
28 25 26 2
29 26 28 1
30 25 27 1
31 22 28 2
@<TRIPOS>SUBSTRUCTURE
1	UNK0	1	GROUP	1 ****	UNK
