out/docking_results/vina_output/6q9y_docked_ligand.pdbqt
 OpenBabel03072216143D

 28 31  0  0  1  0  0  0  0  0999 V2000
   -1.4490   16.9060  -13.4260 C   0  0  0  0  0  0  0  0  0  0  0  0
   -0.7990   16.2690  -12.4220 N   0  0  0  0  0  0  0  0  0  0  0  0
   -1.1340   16.3580  -11.4740 H   0  0  0  0  0  0  0  0  0  0  0  0
   -1.0930   16.8160  -14.6040 O   0  0  0  0  0  0  0  0  0  0  0  0
   -2.5900   17.7480  -13.0450 C   0  0  0  0  0  0  0  0  0  0  0  0
   -2.6660   18.5870  -11.8180 C   0  0  0  0  0  0  0  0  0  0  0  0
   -1.8150   18.8740  -10.7410 C   0  0  0  0  0  3  0  0  0  0  0  0
   -3.9120   19.1970  -11.9340 C   0  0  0  0  0  0  0  0  0  0  0  0
   -2.2780   19.7930   -9.7960 C   0  0  0  0  0  3  0  0  0  0  0  0
   -3.5330   20.3960   -9.8900 C   0  0  0  0  0  3  0  0  0  0  0  0
   -4.3820   20.0950  -10.9700 C   0  0  0  0  0  0  0  0  0  0  0  0
   -4.5340   18.7860  -13.0730 N   0  0  0  0  0  0  0  0  0  0  0  0
   -5.4510   19.0780  -13.3780 H   0  0  0  0  0  0  0  0  0  0  0  0
   -3.7410   17.9390  -13.7190 C   0  0  0  0  0  3  0  0  0  0  0  0
   -5.6410   20.6370  -11.1290 O   0  0  0  0  0  0  0  0  0  0  0  0
   -6.1500   21.4810  -10.0760 C   0  0  0  0  0  1  0  0  0  0  0  0
    0.3780   15.4550  -12.6980 C   0  0  2  0  0  3  0  0  0  0  0  0
    0.1340   13.9390  -12.7140 C   0  0  0  0  0  2  0  0  0  0  0  0
    1.4570   13.4060  -12.3870 N   0  0  0  0  0  0  0  0  0  0  0  0
    2.3480   14.4140  -11.8130 C   0  0  0  0  0  2  0  0  0  0  0  0
    1.4290   15.6280  -11.5890 C   0  0  0  0  0  2  0  0  0  0  0  0
    1.9100   12.1900  -12.8270 C   0  0  0  0  0  0  0  0  0  0  0  0
    3.1840   11.7280  -12.4690 C   0  0  0  0  0  3  0  0  0  0  0  0
    3.6780   10.5100  -12.9200 C   0  0  0  0  0  3  0  0  0  0  0  0
    2.9120    9.7240  -13.7740 C   0  0  0  0  0  0  0  0  0  0  0  0
    1.6400   10.1640  -14.1360 C   0  0  0  0  0  3  0  0  0  0  0  0
    3.4510    8.3890  -14.2830 C   0  0  0  0  0  1  0  0  0  0  0  0
    1.1370   11.3760  -13.6720 C   0  0  0  0  0  3  0  0  0  0  0  0
  1  5  1  0  0  0  0
  1  2  1  0  0  0  0
  2  3  1  0  0  0  0
  4  1  2  0  0  0  0
  5  6  1  0  0  0  0
  6  7  1  0  0  0  0
  7  9  2  0  0  0  0
  8  6  2  0  0  0  0
  8 11  1  0  0  0  0
 10  9  1  0  0  0  0
 11 10  2  0  0  0  0
 12  8  1  0  0  0  0
 13 12  1  0  0  0  0
 14 12  1  0  0  0  0
 14  5  2  0  0  0  0
 15 11  1  0  0  0  0
 15 16  1  0  0  0  0
 17  2  1  1  0  0  0
 17 21  1  0  0  0  0
 18 17  1  0  0  0  0
 18 19  1  0  0  0  0
 19 20  1  0  0  0  0
 20 21  1  0  0  0  0
 22 23  1  0  0  0  0
 22 19  1  0  0  0  0
 24 23  2  0  0  0  0
 25 24  1  0  0  0  0
 26 25  2  0  0  0  0
 26 28  1  0  0  0  0
 27 25  1  0  0  0  0
 28 22  2  0  0  0  0
M  END
>  <Pose>
1

>  <Score>
-11.862

$$$$
out/docking_results/vina_output/6q9y_docked_ligand.pdbqt
 OpenBabel03072216143D

 28 31  0  0  1  0  0  0  0  0999 V2000
   -6.9180   10.4660  -13.6720 C   0  0  0  0  0  0  0  0  0  0  0  0
   -6.2410    9.8260  -14.6560 N   0  0  0  0  0  0  0  0  0  0  0  0
   -6.3960   10.0860  -15.6200 H   0  0  0  0  0  0  0  0  0  0  0  0
   -6.7540   10.2010  -12.4790 O   0  0  0  0  0  0  0  0  0  0  0  0
   -7.8940   11.4790  -14.0930 C   0  0  0  0  0  0  0  0  0  0  0  0
   -8.7110   11.4210  -15.3360 C   0  0  0  0  0  0  0  0  0  0  0  0
   -8.8630   10.5190  -16.3990 C   0  0  0  0  0  3  0  0  0  0  0  0
   -9.4810   12.5780  -15.2570 C   0  0  0  0  0  0  0  0  0  0  0  0
   -9.8150   10.8390  -17.3690 C   0  0  0  0  0  3  0  0  0  0  0  0
  -10.5790   12.0050  -17.3130 C   0  0  0  0  0  3  0  0  0  0  0  0
  -10.4130   12.9070  -16.2470 C   0  0  0  0  0  0  0  0  0  0  0  0
   -9.1780   13.2700  -14.1250 N   0  0  0  0  0  0  0  0  0  0  0  0
   -9.5940   14.1460  -13.8450 H   0  0  0  0  0  0  0  0  0  0  0  0
   -8.2480   12.6080  -13.4480 C   0  0  0  0  0  3  0  0  0  0  0  0
  -11.1190   14.0870  -16.1240 O   0  0  0  0  0  0  0  0  0  0  0  0
  -12.0370   14.4360  -17.1800 C   0  0  0  0  0  1  0  0  0  0  0  0
   -5.2920    8.7670  -14.3380 C   0  0  2  0  0  3  0  0  0  0  0  0
   -3.8290    9.2180  -14.2100 C   0  0  0  0  0  2  0  0  0  0  0  0
   -3.0960    7.9900  -14.5140 N   0  0  0  0  0  0  0  0  0  0  0  0
   -3.9270    6.9810  -15.1700 C   0  0  0  0  0  2  0  0  0  0  0  0
   -5.2390    7.7280  -15.4700 C   0  0  0  0  0  2  0  0  0  0  0  0
   -1.8620    7.7000  -13.9940 C   0  0  0  0  0  0  0  0  0  0  0  0
   -1.2870    6.4340  -14.1760 C   0  0  0  0  0  3  0  0  0  0  0  0
   -0.0480    6.1060  -13.6400 C   0  0  0  0  0  3  0  0  0  0  0  0
    0.6460    7.0360  -12.8730 C   0  0  0  0  0  0  0  0  0  0  0  0
    0.0930    8.3020  -12.6860 C   0  0  0  0  0  3  0  0  0  0  0  0
    2.0030    6.6800  -12.2710 C   0  0  0  0  0  1  0  0  0  0  0  0
   -1.1410    8.6390  -13.2370 C   0  0  0  0  0  3  0  0  0  0  0  0
  1  4  2  0  0  0  0
  2  1  1  0  0  0  0
  3  2  1  0  0  0  0
  5  1  1  0  0  0  0
  5 14  2  0  0  0  0
  6  8  1  0  0  0  0
  6  5  1  0  0  0  0
  7  6  2  0  0  0  0
  8 12  1  0  0  0  0
  9 10  2  0  0  0  0
  9  7  1  0  0  0  0
 10 11  1  0  0  0  0
 11 15  1  0  0  0  0
 11  8  2  0  0  0  0
 12 13  1  0  0  0  0
 12 14  1  0  0  0  0
 16 15  1  0  0  0  0
 17  2  1  6  0  0  0
 17 18  1  0  0  0  0
 19 18  1  0  0  0  0
 19 22  1  0  0  0  0
 20 19  1  0  0  0  0
 21 20  1  0  0  0  0
 21 17  1  0  0  0  0
 22 28  1  0  0  0  0
 23 22  2  0  0  0  0
 23 24  1  0  0  0  0
 24 25  2  0  0  0  0
 25 26  1  0  0  0  0
 25 27  1  0  0  0  0
 28 26  2  0  0  0  0
M  END
>  <Pose>
2

>  <Score>
-11.836

$$$$
out/docking_results/vina_output/6q9y_docked_ligand.pdbqt
 OpenBabel03072216143D

 28 31  0  0  1  0  0  0  0  0999 V2000
   -0.1380   15.9700  -13.1500 C   0  0  0  0  0  0  0  0  0  0  0  0
   -0.5720   16.7110  -12.1010 N   0  0  0  0  0  0  0  0  0  0  0  0
   -0.2390   16.5030  -11.1710 H   0  0  0  0  0  0  0  0  0  0  0  0
   -0.4980   16.1930  -14.3080 O   0  0  0  0  0  0  0  0  0  0  0  0
    0.7650   14.8550  -12.8420 C   0  0  0  0  0  0  0  0  0  0  0  0
    0.4820   13.4200  -13.1160 C   0  0  0  0  0  0  0  0  0  0  0  0
   -0.5670   12.6950  -13.6990 C   0  0  0  0  0  3  0  0  0  0  0  0
    1.6400   12.7840  -12.6760 C   0  0  0  0  0  0  0  0  0  0  0  0
   -0.3960   11.3130  -13.8110 C   0  0  0  0  0  3  0  0  0  0  0  0
    0.7500   10.6610  -13.3550 C   0  0  0  0  0  3  0  0  0  0  0  0
    1.7940   11.3970  -12.7640 C   0  0  0  0  0  0  0  0  0  0  0  0
    2.5210   13.6970  -12.1830 N   0  0  0  0  0  0  0  0  0  0  0  0
    3.4280   13.4850  -11.7950 H   0  0  0  0  0  0  0  0  0  0  0  0
    1.9940   14.9110  -12.2940 C   0  0  0  0  0  3  0  0  0  0  0  0
    2.9520   10.8270  -12.2770 O   0  0  0  0  0  0  0  0  0  0  0  0
    3.6550    9.8970  -13.1250 C   0  0  0  0  0  1  0  0  0  0  0  0
   -1.5140   17.8040  -12.3030 C   0  0  2  0  0  3  0  0  0  0  0  0
   -2.4040   18.1310  -11.0940 C   0  0  0  0  0  2  0  0  0  0  0  0
   -3.5720   18.7460  -11.7230 N   0  0  0  0  0  0  0  0  0  0  0  0
   -3.6490   18.4800  -13.1590 C   0  0  0  0  0  2  0  0  0  0  0  0
   -2.5320   17.4490  -13.3990 C   0  0  0  0  0  2  0  0  0  0  0  0
   -4.3470   19.6950  -11.1090 C   0  0  0  0  0  0  0  0  0  0  0  0
   -3.9020   20.3440   -9.9490 C   0  0  0  0  0  3  0  0  0  0  0  0
   -4.6780   21.2920   -9.2950 C   0  0  0  0  0  3  0  0  0  0  0  0
   -5.9470   21.6020   -9.7720 C   0  0  0  0  0  0  0  0  0  0  0  0
   -6.4050   20.9710  -10.9280 C   0  0  0  0  0  3  0  0  0  0  0  0
   -6.8100   22.6350   -9.0530 C   0  0  0  0  0  1  0  0  0  0  0  0
   -5.6220   20.0320  -11.5950 C   0  0  0  0  0  3  0  0  0  0  0  0
  1  5  1  0  0  0  0
  1  2  1  0  0  0  0
  2  3  1  0  0  0  0
  4  1  2  0  0  0  0
  5 14  2  0  0  0  0
  6  5  1  0  0  0  0
  6  8  1  0  0  0  0
  7  6  2  0  0  0  0
  8 12  1  0  0  0  0
  9  7  1  0  0  0  0
  9 10  2  0  0  0  0
 10 11  1  0  0  0  0
 11  8  2  0  0  0  0
 11 15  1  0  0  0  0
 12 13  1  0  0  0  0
 14 12  1  0  0  0  0
 16 15  1  0  0  0  0
 17  2  1  1  0  0  0
 17 18  1  0  0  0  0
 19 22  1  0  0  0  0
 19 18  1  0  0  0  0
 20 19  1  0  0  0  0
 21 20  1  0  0  0  0
 21 17  1  0  0  0  0
 22 23  1  0  0  0  0
 23 24  2  0  0  0  0
 25 24  1  0  0  0  0
 25 27  1  0  0  0  0
 26 25  2  0  0  0  0
 28 22  2  0  0  0  0
 28 26  1  0  0  0  0
M  END
>  <Pose>
3

>  <Score>
-10.405

$$$$
out/docking_results/vina_output/6q9y_docked_ligand.pdbqt
 OpenBabel03072216143D

 28 31  0  0  1  0  0  0  0  0999 V2000
   -0.2640   15.8130  -12.4630 C   0  0  0  0  0  0  0  0  0  0  0  0
   -1.5190   16.1820  -12.8170 N   0  0  0  0  0  0  0  0  0  0  0  0
   -2.1470   15.4980  -13.2150 H   0  0  0  0  0  0  0  0  0  0  0  0
    0.5370   16.6030  -11.9560 O   0  0  0  0  0  0  0  0  0  0  0  0
    0.1210   14.4240  -12.7420 C   0  0  0  0  0  0  0  0  0  0  0  0
    1.4360   13.8130  -12.4070 C   0  0  0  0  0  0  0  0  0  0  0  0
    2.6150   14.2430  -11.7790 C   0  0  0  0  0  3  0  0  0  0  0  0
    1.2900   12.4990  -12.8420 C   0  0  0  0  0  0  0  0  0  0  0  0
    3.6270   13.2940  -11.6170 C   0  0  0  0  0  3  0  0  0  0  0  0
    3.5010   11.9790  -12.0660 C   0  0  0  0  0  3  0  0  0  0  0  0
    2.3180   11.5610  -12.7020 C   0  0  0  0  0  0  0  0  0  0  0  0
    0.0550   12.3170  -13.3850 N   0  0  0  0  0  0  0  0  0  0  0  0
   -0.2900   11.4540  -13.7790 H   0  0  0  0  0  0  0  0  0  0  0  0
   -0.6230   13.4570  -13.3130 C   0  0  0  0  0  3  0  0  0  0  0  0
    2.1180   10.2840  -13.1860 O   0  0  0  0  0  0  0  0  0  0  0  0
    2.7540    9.9280  -14.4310 C   0  0  0  0  0  1  0  0  0  0  0  0
   -1.9710   17.5540  -12.6290 C   0  0  2  0  0  3  0  0  0  0  0  0
   -3.0880   17.7370  -11.5890 C   0  0  0  0  0  2  0  0  0  0  0  0
   -3.7340   18.9690  -12.0370 N   0  0  0  0  0  0  0  0  0  0  0  0
   -3.3830   19.3260  -13.4130 C   0  0  0  0  0  2  0  0  0  0  0  0
   -2.6040   18.0990  -13.9190 C   0  0  0  0  0  2  0  0  0  0  0  0
   -4.3610   19.8440  -11.1900 C   0  0  0  0  0  0  0  0  0  0  0  0
   -5.6800   20.2540  -11.4290 C   0  0  0  0  0  3  0  0  0  0  0  0
   -6.3300   21.1580  -10.5990 C   0  0  0  0  0  3  0  0  0  0  0  0
   -5.6620   21.7060   -9.5090 C   0  0  0  0  0  0  0  0  0  0  0  0
   -4.3520   21.3060   -9.2510 C   0  0  0  0  0  3  0  0  0  0  0  0
   -6.3660   22.7080   -8.5970 C   0  0  0  0  0  1  0  0  0  0  0  0
   -3.7030   20.3870  -10.0720 C   0  0  0  0  0  3  0  0  0  0  0  0
  1  4  2  0  0  0  0
  2  1  1  0  0  0  0
  3  2  1  0  0  0  0
  5  1  1  0  0  0  0
  5  6  1  0  0  0  0
  6  7  1  0  0  0  0
  7  9  2  0  0  0  0
  8 11  1  0  0  0  0
  8  6  2  0  0  0  0
 10  9  1  0  0  0  0
 11 10  2  0  0  0  0
 12 14  1  0  0  0  0
 12  8  1  0  0  0  0
 13 12  1  0  0  0  0
 14  5  2  0  0  0  0
 15 11  1  0  0  0  0
 16 15  1  0  0  0  0
 17  2  1  6  0  0  0
 17 18  1  0  0  0  0
 19 18  1  0  0  0  0
 19 22  1  0  0  0  0
 20 19  1  0  0  0  0
 21 20  1  0  0  0  0
 21 17  1  0  0  0  0
 22 28  1  0  0  0  0
 23 22  2  0  0  0  0
 23 24  1  0  0  0  0
 24 25  2  0  0  0  0
 25 26  1  0  0  0  0
 25 27  1  0  0  0  0
 28 26  2  0  0  0  0
M  END
>  <Pose>
4

>  <Score>
-10.057

$$$$
out/docking_results/vina_output/6q9y_docked_ligand.pdbqt
 OpenBabel03072216143D

 28 31  0  0  1  0  0  0  0  0999 V2000
   -5.5870    9.9460  -13.8110 C   0  0  0  0  0  0  0  0  0  0  0  0
   -4.3830   10.1770  -14.3880 N   0  0  0  0  0  0  0  0  0  0  0  0
   -4.3420   10.5550  -15.3230 H   0  0  0  0  0  0  0  0  0  0  0  0
   -5.6950    9.5040  -12.6650 O   0  0  0  0  0  0  0  0  0  0  0  0
   -6.7750   10.2170  -14.6300 C   0  0  0  0  0  0  0  0  0  0  0  0
   -7.7450   11.3230  -14.3980 C   0  0  0  0  0  0  0  0  0  0  0  0
   -7.8700   12.3750  -13.4780 C   0  0  0  0  0  3  0  0  0  0  0  0
   -8.6520   11.1670  -15.4420 C   0  0  0  0  0  0  0  0  0  0  0  0
   -8.9440   13.2490  -13.6600 C   0  0  0  0  0  3  0  0  0  0  0  0
   -9.8710   13.0930  -14.6900 C   0  0  0  0  0  3  0  0  0  0  0  0
   -9.7410   12.0290  -15.6020 C   0  0  0  0  0  0  0  0  0  0  0  0
   -8.3030   10.1020  -16.2150 N   0  0  0  0  0  0  0  0  0  0  0  0
   -8.8060    9.7780  -17.0270 H   0  0  0  0  0  0  0  0  0  0  0  0
   -7.1930    9.5580  -15.7280 C   0  0  0  0  0  3  0  0  0  0  0  0
  -10.6220   11.7970  -16.6390 O   0  0  0  0  0  0  0  0  0  0  0  0
  -11.1810   12.9400  -17.3180 C   0  0  0  0  0  1  0  0  0  0  0  0
   -3.1480    9.8860  -13.6710 C   0  0  2  0  0  3  0  0  0  0  0  0
   -1.9560   10.7850  -14.0330 C   0  0  0  0  0  2  0  0  0  0  0  0
   -0.8120    9.9390  -13.6970 N   0  0  0  0  0  0  0  0  0  0  0  0
   -1.1760    8.5300  -13.5430 C   0  0  0  0  0  2  0  0  0  0  0  0
   -2.6390    8.4770  -14.0160 C   0  0  0  0  0  2  0  0  0  0  0  0
    0.3990   10.4330  -13.2900 C   0  0  0  0  0  0  0  0  0  0  0  0
    0.6660   11.8080  -13.3410 C   0  0  0  0  0  3  0  0  0  0  0  0
    1.8930   12.3330  -12.9570 C   0  0  0  0  0  3  0  0  0  0  0  0
    2.9100   11.4840  -12.5320 C   0  0  0  0  0  0  0  0  0  0  0  0
    2.6610   10.1140  -12.4690 C   0  0  0  0  0  3  0  0  0  0  0  0
    4.2650   12.0520  -12.1180 C   0  0  0  0  0  1  0  0  0  0  0  0
    1.4260    9.5870  -12.8380 C   0  0  0  0  0  3  0  0  0  0  0  0
  1  4  2  0  0  0  0
  2  1  1  0  0  0  0
  3  2  1  0  0  0  0
  5  6  1  0  0  0  0
  5  1  1  0  0  0  0
  6  7  1  0  0  0  0
  8  6  2  0  0  0  0
  9  7  2  0  0  0  0
 10  9  1  0  0  0  0
 11  8  1  0  0  0  0
 11 10  2  0  0  0  0
 12 14  1  0  0  0  0
 12  8  1  0  0  0  0
 13 12  1  0  0  0  0
 14  5  2  0  0  0  0
 15 11  1  0  0  0  0
 16 15  1  0  0  0  0
 17  2  1  6  0  0  0
 18 19  1  0  0  0  0
 18 17  1  0  0  0  0
 19 20  1  0  0  0  0
 19 22  1  0  0  0  0
 21 17  1  0  0  0  0
 21 20  1  0  0  0  0
 22 28  1  0  0  0  0
 23 22  2  0  0  0  0
 23 24  1  0  0  0  0
 24 25  2  0  0  0  0
 25 26  1  0  0  0  0
 25 27  1  0  0  0  0
 28 26  2  0  0  0  0
M  END
>  <Pose>
5

>  <Score>
-9.683

$$$$
out/docking_results/vina_output/6q9y_docked_ligand.pdbqt
 OpenBabel03072216143D

 28 31  0  0  1  0  0  0  0  0999 V2000
   -3.2840    8.7620  -14.1400 C   0  0  0  0  0  0  0  0  0  0  0  0
   -4.0680    9.6430  -13.4740 N   0  0  0  0  0  0  0  0  0  0  0  0
   -3.6550   10.2660  -12.7950 H   0  0  0  0  0  0  0  0  0  0  0  0
   -3.7330    7.9920  -14.9930 O   0  0  0  0  0  0  0  0  0  0  0  0
   -1.8620    8.7370  -13.7760 C   0  0  0  0  0  0  0  0  0  0  0  0
   -0.9820    9.9330  -13.6700 C   0  0  0  0  0  0  0  0  0  0  0  0
   -1.1430   11.3180  -13.8240 C   0  0  0  0  0  3  0  0  0  0  0  0
    0.2380    9.3900  -13.2760 C   0  0  0  0  0  0  0  0  0  0  0  0
   -0.0260   12.1170  -13.5690 C   0  0  0  0  0  3  0  0  0  0  0  0
    1.2070   11.5840  -13.1930 C   0  0  0  0  0  3  0  0  0  0  0  0
    1.3600   10.1920  -13.0490 C   0  0  0  0  0  0  0  0  0  0  0  0
    0.1360    8.0370  -13.1630 N   0  0  0  0  0  0  0  0  0  0  0  0
    0.8850    7.4130  -12.9000 H   0  0  0  0  0  0  0  0  0  0  0  0
   -1.1060    7.6700  -13.4540 C   0  0  0  0  0  3  0  0  0  0  0  0
    2.5470    9.5850  -12.6940 O   0  0  0  0  0  0  0  0  0  0  0  0
    3.4890    9.2830  -13.7430 C   0  0  0  0  0  1  0  0  0  0  0  0
   -5.5020    9.7020  -13.7290 C   0  0  2  0  0  3  0  0  0  0  0  0
   -5.9890   10.9790  -14.4290 C   0  0  0  0  0  2  0  0  0  0  0  0
   -7.3870   11.0550  -14.0050 N   0  0  0  0  0  0  0  0  0  0  0  0
   -7.6760   10.2030  -12.8510 C   0  0  0  0  0  2  0  0  0  0  0  0
   -6.2880    9.7070  -12.4070 C   0  0  0  0  0  2  0  0  0  0  0  0
   -8.3760   11.6240  -14.7630 C   0  0  0  0  0  0  0  0  0  0  0  0
   -8.6310   11.1730  -16.0660 C   0  0  0  0  0  3  0  0  0  0  0  0
   -9.6110   11.7490  -16.8640 C   0  0  0  0  0  3  0  0  0  0  0  0
  -10.3540   12.8230  -16.3860 C   0  0  0  0  0  0  0  0  0  0  0  0
  -10.1200   13.2820  -15.0910 C   0  0  0  0  0  3  0  0  0  0  0  0
  -11.4270   13.4680  -17.2600 C   0  0  0  0  0  1  0  0  0  0  0  0
   -9.1490   12.6950  -14.2820 C   0  0  0  0  0  3  0  0  0  0  0  0
  1  5  1  0  0  0  0
  1  2  1  0  0  0  0
  2  3  1  0  0  0  0
  4  1  2  0  0  0  0
  5  6  1  0  0  0  0
  5 14  2  0  0  0  0
  6  8  1  0  0  0  0
  7  6  2  0  0  0  0
  7  9  1  0  0  0  0
  8 12  1  0  0  0  0
  8 11  2  0  0  0  0
  9 10  2  0  0  0  0
 10 11  1  0  0  0  0
 11 15  1  0  0  0  0
 12 13  1  0  0  0  0
 14 12  1  0  0  0  0
 16 15  1  0  0  0  0
 17  2  1  1  0  0  0
 17 21  1  0  0  0  0
 18 19  1  0  0  0  0
 18 17  1  0  0  0  0
 19 20  1  0  0  0  0
 20 21  1  0  0  0  0
 22 28  1  0  0  0  0
 22 19  1  0  0  0  0
 23 22  2  0  0  0  0
 24 25  2  0  0  0  0
 24 23  1  0  0  0  0
 25 26  1  0  0  0  0
 26 28  2  0  0  0  0
 27 25  1  0  0  0  0
M  END
>  <Pose>
6

>  <Score>
-9.523

$$$$
out/docking_results/vina_output/6q9y_docked_ligand.pdbqt
 OpenBabel03072216143D

 28 31  0  0  1  0  0  0  0  0999 V2000
    0.8590   13.3660  -12.8870 C   0  0  0  0  0  0  0  0  0  0  0  0
   -0.1370   14.0220  -13.5300 N   0  0  0  0  0  0  0  0  0  0  0  0
   -0.7560   13.5120  -14.1450 H   0  0  0  0  0  0  0  0  0  0  0  0
    1.6300   13.9360  -12.1120 O   0  0  0  0  0  0  0  0  0  0  0  0
    1.0060   11.9350  -13.1810 C   0  0  0  0  0  0  0  0  0  0  0  0
   -0.1150   10.9610  -13.2860 C   0  0  0  0  0  0  0  0  0  0  0  0
   -1.5130   11.0210  -13.1870 C   0  0  0  0  0  3  0  0  0  0  0  0
    0.5340    9.7710  -13.6020 C   0  0  0  0  0  0  0  0  0  0  0  0
   -2.2150    9.8350  -13.4160 C   0  0  0  0  0  3  0  0  0  0  0  0
   -1.5750    8.6310  -13.7130 C   0  0  0  0  0  3  0  0  0  0  0  0
   -0.1720    8.5800  -13.8020 C   0  0  0  0  0  0  0  0  0  0  0  0
    1.8790    9.9720  -13.6740 N   0  0  0  0  0  0  0  0  0  0  0  0
    2.5670    9.2630  -13.8790 H   0  0  0  0  0  0  0  0  0  0  0  0
    2.1390   11.2510  -13.4300 C   0  0  0  0  0  3  0  0  0  0  0  0
    0.5370    7.4290  -14.0790 O   0  0  0  0  0  0  0  0  0  0  0  0
   -0.0470    6.1690  -13.6920 C   0  0  0  0  0  1  0  0  0  0  0  0
   -0.3250   15.4550  -13.3430 C   0  0  2  0  0  3  0  0  0  0  0  0
   -1.5120   15.8460  -12.4490 C   0  0  0  0  0  2  0  0  0  0  0  0
   -1.8300   17.1920  -12.9240 N   0  0  0  0  0  0  0  0  0  0  0  0
   -1.2330   17.4900  -14.2260 C   0  0  0  0  0  2  0  0  0  0  0  0
   -0.6560   16.1380  -14.6800 C   0  0  0  0  0  2  0  0  0  0  0  0
   -2.3760   18.1640  -12.1270 C   0  0  0  0  0  0  0  0  0  0  0  0
   -1.7790   18.5100  -10.9070 C   0  0  0  0  0  3  0  0  0  0  0  0
   -2.3250   19.4740  -10.0690 C   0  0  0  0  0  3  0  0  0  0  0  0
   -3.5130   20.1080  -10.4200 C   0  0  0  0  0  0  0  0  0  0  0  0
   -4.1170   19.7820  -11.6330 C   0  0  0  0  0  3  0  0  0  0  0  0
   -4.1250   21.1620   -9.5010 C   0  0  0  0  0  1  0  0  0  0  0  0
   -3.5630   18.8270  -12.4820 C   0  0  0  0  0  3  0  0  0  0  0  0
  1  4  2  0  0  0  0
  2  1  1  0  0  0  0
  3  2  1  0  0  0  0
  5  1  1  0  0  0  0
  6  7  1  0  0  0  0
  6  5  1  0  0  0  0
  8  6  2  0  0  0  0
  9  7  2  0  0  0  0
 10  9  1  0  0  0  0
 11 10  2  0  0  0  0
 11  8  1  0  0  0  0
 12  8  1  0  0  0  0
 12 14  1  0  0  0  0
 13 12  1  0  0  0  0
 14  5  2  0  0  0  0
 15 11  1  0  0  0  0
 15 16  1  0  0  0  0
 17  2  1  6  0  0  0
 17 18  1  0  0  0  0
 19 18  1  0  0  0  0
 19 22  1  0  0  0  0
 20 19  1  0  0  0  0
 21 20  1  0  0  0  0
 21 17  1  0  0  0  0
 22 23  1  0  0  0  0
 23 24  2  0  0  0  0
 25 24  1  0  0  0  0
 25 27  1  0  0  0  0
 26 25  2  0  0  0  0
 28 22  2  0  0  0  0
 28 26  1  0  0  0  0
M  END
>  <Pose>
7

>  <Score>
-9.447

$$$$
out/docking_results/vina_output/6q9y_docked_ligand.pdbqt
 OpenBabel03072216143D

 28 31  0  0  1  0  0  0  0  0999 V2000
   -7.1420   10.0720  -14.7610 C   0  0  0  0  0  0  0  0  0  0  0  0
   -6.3640    9.1290  -15.3450 N   0  0  0  0  0  0  0  0  0  0  0  0
   -6.5100    8.8900  -16.3150 H   0  0  0  0  0  0  0  0  0  0  0  0
   -6.9940   10.4130  -13.5860 O   0  0  0  0  0  0  0  0  0  0  0  0
   -8.2060   10.6550  -15.5880 C   0  0  0  0  0  0  0  0  0  0  0  0
   -8.9390   11.9140  -15.2820 C   0  0  0  0  0  0  0  0  0  0  0  0
   -8.8910   12.8860  -14.2710 C   0  0  0  0  0  3  0  0  0  0  0  0
   -9.8040   12.0430  -16.3650 C   0  0  0  0  0  0  0  0  0  0  0  0
   -9.7530   13.9770  -14.4020 C   0  0  0  0  0  3  0  0  0  0  0  0
  -10.6390   14.1080  -15.4720 C   0  0  0  0  0  3  0  0  0  0  0  0
  -10.6840   13.1240  -16.4760 C   0  0  0  0  0  0  0  0  0  0  0  0
   -9.6420   11.0000  -17.2240 N   0  0  0  0  0  0  0  0  0  0  0  0
  -10.1590   10.8600  -18.0790 H   0  0  0  0  0  0  0  0  0  0  0  0
   -8.6940   10.1960  -16.7560 C   0  0  0  0  0  3  0  0  0  0  0  0
  -11.5400   13.1720  -17.5580 O   0  0  0  0  0  0  0  0  0  0  0  0
  -12.3650   14.3440  -17.7130 C   0  0  0  0  0  1  0  0  0  0  0  0
   -5.3180    8.4550  -14.5870 C   0  0  2  0  0  3  0  0  0  0  0  0
   -3.8910    8.9560  -14.8560 C   0  0  0  0  0  2  0  0  0  0  0  0
   -3.0790    7.7910  -14.5050 N   0  0  0  0  0  0  0  0  0  0  0  0
   -3.8610    6.5570  -14.4280 C   0  0  0  0  0  2  0  0  0  0  0  0
   -5.2430    6.9670  -14.9680 C   0  0  0  0  0  2  0  0  0  0  0  0
   -1.8000    7.8800  -14.0230 C   0  0  0  0  0  0  0  0  0  0  0  0
   -1.2950    9.1000  -13.5510 C   0  0  0  0  0  3  0  0  0  0  0  0
    0.0060    9.2230  -13.0790 C   0  0  0  0  0  3  0  0  0  0  0  0
    0.8570    8.1230  -13.0920 C   0  0  0  0  0  0  0  0  0  0  0  0
    0.3710    6.9000  -13.5520 C   0  0  0  0  0  3  0  0  0  0  0  0
    2.2910    8.2520  -12.5850 C   0  0  0  0  0  1  0  0  0  0  0  0
   -0.9380    6.7700  -14.0100 C   0  0  0  0  0  3  0  0  0  0  0  0
  1  4  2  0  0  0  0
  2  1  1  0  0  0  0
  3  2  1  0  0  0  0
  5  6  1  0  0  0  0
  5  1  1  0  0  0  0
  6  7  1  0  0  0  0
  8  6  2  0  0  0  0
  9  7  2  0  0  0  0
 10  9  1  0  0  0  0
 11  8  1  0  0  0  0
 11 10  2  0  0  0  0
 12 14  1  0  0  0  0
 12  8  1  0  0  0  0
 13 12  1  0  0  0  0
 14  5  2  0  0  0  0
 15 11  1  0  0  0  0
 16 15  1  0  0  0  0
 17  2  1  6  0  0  0
 18 17  1  0  0  0  0
 18 19  1  0  0  0  0
 19 20  1  0  0  0  0
 19 22  1  0  0  0  0
 21 17  1  0  0  0  0
 21 20  1  0  0  0  0
 22 28  2  0  0  0  0
 22 23  1  0  0  0  0
 23 24  2  0  0  0  0
 25 24  1  0  0  0  0
 25 27  1  0  0  0  0
 26 25  2  0  0  0  0
 28 26  1  0  0  0  0
M  END
>  <Pose>
8

>  <Score>
-9.385

$$$$
out/docking_results/vina_output/6q9y_docked_ligand.pdbqt
 OpenBabel03072216143D

 28 31  0  0  1  0  0  0  0  0999 V2000
   -3.4910    9.0350  -14.1810 C   0  0  0  0  0  0  0  0  0  0  0  0
   -4.3170    9.8250  -13.4530 N   0  0  0  0  0  0  0  0  0  0  0  0
   -3.9400   10.3840  -12.7020 H   0  0  0  0  0  0  0  0  0  0  0  0
   -3.8960    8.3460  -15.1210 O   0  0  0  0  0  0  0  0  0  0  0  0
   -2.0790    9.0070  -13.7790 C   0  0  0  0  0  0  0  0  0  0  0  0
   -1.2730    7.7750  -13.5580 C   0  0  0  0  0  0  0  0  0  0  0  0
   -1.4990    6.3940  -13.6550 C   0  0  0  0  0  3  0  0  0  0  0  0
   -0.0180    8.2780  -13.2280 C   0  0  0  0  0  0  0  0  0  0  0  0
   -0.4110    5.5560  -13.4010 C   0  0  0  0  0  3  0  0  0  0  0  0
    0.8460    6.0470  -13.0490 C   0  0  0  0  0  3  0  0  0  0  0  0
    1.0600    7.4330  -12.9470 C   0  0  0  0  0  0  0  0  0  0  0  0
   -0.0400    9.6390  -13.2310 N   0  0  0  0  0  0  0  0  0  0  0  0
    0.7430   10.2380  -13.0150 H   0  0  0  0  0  0  0  0  0  0  0  0
   -1.2580   10.0520  -13.5630 C   0  0  0  0  0  3  0  0  0  0  0  0
    2.2690    7.9980  -12.5920 O   0  0  0  0  0  0  0  0  0  0  0  0
    3.2390    8.2220  -13.6340 C   0  0  0  0  0  1  0  0  0  0  0  0
   -5.7440    9.8750  -13.7430 C   0  0  2  0  0  3  0  0  0  0  0  0
   -6.2220   11.1520  -14.4500 C   0  0  0  0  0  2  0  0  0  0  0  0
   -7.6300   11.2170  -14.0610 N   0  0  0  0  0  0  0  0  0  0  0  0
   -7.9430   10.3570  -12.9190 C   0  0  0  0  0  2  0  0  0  0  0  0
   -6.5630    9.8680  -12.4420 C   0  0  0  0  0  2  0  0  0  0  0  0
   -8.6040   11.7830  -14.8410 C   0  0  0  0  0  0  0  0  0  0  0  0
   -8.8240   11.3360  -16.1510 C   0  0  0  0  0  3  0  0  0  0  0  0
   -9.7880   11.9090  -16.9710 C   0  0  0  0  0  3  0  0  0  0  0  0
  -10.5490   12.9770  -16.5070 C   0  0  0  0  0  0  0  0  0  0  0  0
  -10.3490   13.4310  -15.2050 C   0  0  0  0  0  3  0  0  0  0  0  0
  -11.6040   13.6190  -17.4050 C   0  0  0  0  0  1  0  0  0  0  0  0
   -9.3950   12.8470  -14.3750 C   0  0  0  0  0  3  0  0  0  0  0  0
  1  5  1  0  0  0  0
  1  2  1  0  0  0  0
  2  3  1  0  0  0  0
  4  1  2  0  0  0  0
  5 14  2  0  0  0  0
  5  6  1  0  0  0  0
  6  8  1  0  0  0  0
  7  6  2  0  0  0  0
  7  9  1  0  0  0  0
  8 11  2  0  0  0  0
  9 10  2  0  0  0  0
 10 11  1  0  0  0  0
 11 15  1  0  0  0  0
 12  8  1  0  0  0  0
 12 13  1  0  0  0  0
 14 12  1  0  0  0  0
 16 15  1  0  0  0  0
 17  2  1  1  0  0  0
 17 21  1  0  0  0  0
 18 19  1  0  0  0  0
 18 17  1  0  0  0  0
 19 20  1  0  0  0  0
 20 21  1  0  0  0  0
 22 28  1  0  0  0  0
 22 19  1  0  0  0  0
 23 22  2  0  0  0  0
 24 25  2  0  0  0  0
 24 23  1  0  0  0  0
 25 26  1  0  0  0  0
 26 28  2  0  0  0  0
 27 25  1  0  0  0  0
M  END
>  <Pose>
9

>  <Score>
-9.029

$$$$
