MODEL 1
REMARK VINA RESULT:    -9.783      0.000      0.000
REMARK INTER + INTRA:         -10.618
REMARK INTER:                 -10.541
REMARK INTRA:                  -0.077
REMARK UNBOUND:                -0.263
REMARK  1 active torsions:
REMARK  status: ('A' for Active; 'I' for Inactive)
REMARK    1  A    between atoms: C7_14  and  C8_15 
ROOT
ATOM      1  N   KRK A   1      15.343 -56.049  37.873  0.00  0.00    -0.211 N 
ATOM      2  C   KRK A   1      14.060 -57.980  38.008  0.00  0.00     0.059 C 
ATOM      3  C1  KRK A   1      14.309 -56.639  38.698  0.00  0.00     0.144 C 
ATOM      4  N1  KRK A   1      15.408 -54.152  39.142  0.00  0.00    -0.075 NA
ATOM      5  C2  KRK A   1      15.822 -56.961  36.841  0.00  0.00     0.178 C 
ATOM      6  C3  KRK A   1      15.289 -58.257  37.222  0.00  0.00     0.190 C 
ATOM      7  C4  KRK A   1      15.906 -54.847  38.113  0.00  0.00     0.725 A 
ATOM      8  C5  KRK A   1      15.991 -52.960  39.352  0.00  0.00     0.139 A 
ATOM      9  N5  KRK A   1      16.904 -54.475  37.294  0.00  0.00    -0.062 NA
ATOM     10  C6  KRK A   1      17.023 -52.470  38.591  0.00  0.00     0.053 A 
ATOM     11  C7  KRK A   1      17.454 -53.268  37.547  0.00  0.00     0.091 A 
ATOM     12  F   KRK A   1      16.266 -58.805  38.093  0.00  0.00    -0.248 F 
ENDROOT
BRANCH  11  13
ATOM     13  C8  KRK A   1      18.484 -52.871  36.635  0.00  0.00     0.043 A 
ATOM     14  C9  KRK A   1      19.369 -51.797  36.796  0.00  0.00     0.157 A 
ATOM     15  N2  KRK A   1      20.226 -51.685  35.807  0.00  0.00    -0.161 NA
ATOM     16  N3  KRK A   1      19.892 -52.689  35.002  0.00  0.00    -0.151 N 
ATOM     17  N4  KRK A   1      20.606 -52.872  33.875  0.00  0.00    -0.162 NA
ATOM     18  C10 KRK A   1      18.871 -53.457  35.437  0.00  0.00     0.093 A 
ATOM     19  C13 KRK A   1      20.211 -53.922  33.157  0.00  0.00     0.141 A 
ATOM     20  C12 KRK A   1      19.147 -54.786  33.465  0.00  0.00     0.023 A 
ATOM     21  C11 KRK A   1      18.469 -54.543  34.618  0.00  0.00     0.036 A 
ENDBRANCH  11  13
TORSDOF 1
ENDMDL
MODEL 2
REMARK VINA RESULT:    -9.672      1.993      5.854
REMARK INTER + INTRA:         -10.500
REMARK INTER:                 -10.392
REMARK INTRA:                  -0.108
REMARK UNBOUND:                -0.263
REMARK  1 active torsions:
REMARK  status: ('A' for Active; 'I' for Inactive)
REMARK    1  A    between atoms: C7_14  and  C8_15 
ROOT
ATOM      1  N   KRK A   1      19.205 -54.184  34.091  0.00  0.00    -0.211 N 
ATOM      2  C   KRK A   1      19.924 -54.978  32.030  0.00  0.00     0.059 C 
ATOM      3  C1  KRK A   1      20.180 -53.882  33.063  0.00  0.00     0.144 C 
ATOM      4  N1  KRK A   1      19.893 -52.441  35.394  0.00  0.00    -0.075 NA
ATOM      5  C2  KRK A   1      18.311 -55.271  33.708  0.00  0.00     0.178 C 
ATOM      6  C3  KRK A   1      18.540 -55.450  32.286  0.00  0.00     0.190 C 
ATOM      7  C4  KRK A   1      19.041 -53.456  35.214  0.00  0.00     0.725 A 
ATOM      8  C5  KRK A   1      19.702 -51.738  36.523  0.00  0.00     0.139 A 
ATOM      9  N5  KRK A   1      18.042 -53.828  36.032  0.00  0.00    -0.062 NA
ATOM     10  C6  KRK A   1      18.713 -52.013  37.435  0.00  0.00     0.053 A 
ATOM     11  C7  KRK A   1      17.894 -53.090  37.153  0.00  0.00     0.091 A 
ATOM     12  F   KRK A   1      17.636 -54.551  31.661  0.00  0.00    -0.248 F 
ENDROOT
BRANCH  11  13
ATOM     13  C8  KRK A   1      16.854 -53.531  38.034  0.00  0.00     0.043 A 
ATOM     14  C9  KRK A   1      16.214 -52.764  39.016  0.00  0.00     0.157 A 
ATOM     15  N2  KRK A   1      15.280 -53.427  39.657  0.00  0.00    -0.161 NA
ATOM     16  N3  KRK A   1      15.317 -54.628  39.089  0.00  0.00    -0.151 N 
ATOM     17  N4  KRK A   1      14.448 -55.565  39.515  0.00  0.00    -0.162 NA
ATOM     18  C10 KRK A   1      16.219 -54.765  38.095  0.00  0.00     0.093 A 
ATOM     19  C13 KRK A   1      14.546 -56.721  38.859  0.00  0.00     0.141 A 
ATOM     20  C12 KRK A   1      15.457 -57.018  37.832  0.00  0.00     0.023 A 
ATOM     21  C11 KRK A   1      16.305 -56.026  37.453  0.00  0.00     0.036 A 
ENDBRANCH  11  13
TORSDOF 1
ENDMDL
MODEL 3
REMARK VINA RESULT:    -9.411      1.669      3.564
REMARK INTER + INTRA:         -10.224
REMARK INTER:                 -10.160
REMARK INTRA:                  -0.064
REMARK UNBOUND:                -0.263
REMARK  1 active torsions:
REMARK  status: ('A' for Active; 'I' for Inactive)
REMARK    1  A    between atoms: C7_14  and  C8_15 
ROOT
ATOM      1  N   KRK A   1      16.065 -56.789  37.308  0.00  0.00    -0.211 N 
ATOM      2  C   KRK A   1      14.489 -57.410  38.896  0.00  0.00     0.059 C 
ATOM      3  C1  KRK A   1      15.192 -57.899  37.631  0.00  0.00     0.144 C 
ATOM      4  N1  KRK A   1      16.917 -57.863  35.483  0.00  0.00    -0.075 NA
ATOM      5  C2  KRK A   1      15.854 -55.641  38.182  0.00  0.00     0.178 C 
ATOM      6  C3  KRK A   1      14.609 -55.930  38.872  0.00  0.00     0.190 C 
ATOM      7  C4  KRK A   1      16.882 -56.759  36.236  0.00  0.00     0.725 A 
ATOM      8  C5  KRK A   1      17.742 -57.799  34.425  0.00  0.00     0.139 A 
ATOM      9  N5  KRK A   1      17.574 -55.624  36.039  0.00  0.00    -0.062 NA
ATOM     10  C6  KRK A   1      18.496 -56.695  34.110  0.00  0.00     0.053 A 
ATOM     11  C7  KRK A   1      18.389 -55.611  34.962  0.00  0.00     0.091 A 
ATOM     12  F   KRK A   1      13.598 -55.411  38.023  0.00  0.00    -0.248 F 
ENDROOT
BRANCH  11  13
ATOM     13  C8  KRK A   1      19.152 -54.411  34.796  0.00  0.00     0.043 A 
ATOM     14  C9  KRK A   1      20.072 -54.144  33.773  0.00  0.00     0.157 A 
ATOM     15  N2  KRK A   1      20.605 -52.948  33.862  0.00  0.00    -0.161 NA
ATOM     16  N3  KRK A   1      20.031 -52.440  34.947  0.00  0.00    -0.151 N 
ATOM     17  N4  KRK A   1      20.353 -51.185  35.316  0.00  0.00    -0.162 NA
ATOM     18  C10 KRK A   1      19.133 -53.246  35.552  0.00  0.00     0.093 A 
ATOM     19  C13 KRK A   1      19.698 -50.760  36.395  0.00  0.00     0.141 A 
ATOM     20  C12 KRK A   1      18.767 -51.498  37.145  0.00  0.00     0.023 A 
ATOM     21  C11 KRK A   1      18.489 -52.757  36.717  0.00  0.00     0.036 A 
ENDBRANCH  11  13
TORSDOF 1
ENDMDL
MODEL 4
REMARK VINA RESULT:    -8.820      2.600      6.856
REMARK INTER + INTRA:          -9.599
REMARK INTER:                  -9.273
REMARK INTRA:                  -0.326
REMARK UNBOUND:                -0.263
REMARK  1 active torsions:
REMARK  status: ('A' for Active; 'I' for Inactive)
REMARK    1  A    between atoms: C7_14  and  C8_15 
ROOT
ATOM      1  N   KRK A   1      18.726 -53.558  35.280  0.00  0.00    -0.211 N 
ATOM      2  C   KRK A   1      19.852 -51.752  36.207  0.00  0.00     0.059 C 
ATOM      3  C1  KRK A   1      19.930 -52.778  35.078  0.00  0.00     0.144 C 
ATOM      4  N1  KRK A   1      19.170 -54.887  33.477  0.00  0.00    -0.075 NA
ATOM      5  C2  KRK A   1      18.012 -53.178  36.493  0.00  0.00     0.178 C 
ATOM      6  C3  KRK A   1      18.951 -52.347  37.226  0.00  0.00     0.190 C 
ATOM      7  C4  KRK A   1      18.375 -54.613  34.517  0.00  0.00     0.725 A 
ATOM      8  C5  KRK A   1      18.788 -55.943  32.739  0.00  0.00     0.139 A 
ATOM      9  N5  KRK A   1      17.263 -55.275  34.882  0.00  0.00    -0.062 NA
ATOM     10  C6  KRK A   1      17.679 -56.705  33.011  0.00  0.00     0.053 A 
ATOM     11  C7  KRK A   1      16.924 -56.328  34.106  0.00  0.00     0.091 A 
ATOM     12  F   KRK A   1      19.702 -53.260  38.011  0.00  0.00    -0.248 F 
ENDROOT
BRANCH  11  13
ATOM     13  C8  KRK A   1      15.712 -56.991  34.484  0.00  0.00     0.043 A 
ATOM     14  C9  KRK A   1      14.611 -57.246  33.658  0.00  0.00     0.157 A 
ATOM     15  N2  KRK A   1      13.648 -57.894  34.271  0.00  0.00    -0.161 NA
ATOM     16  N3  KRK A   1      14.127 -58.057  35.500  0.00  0.00    -0.151 N 
ATOM     17  N4  KRK A   1      13.374 -58.719  36.399  0.00  0.00    -0.162 NA
ATOM     18  C10 KRK A   1      15.366 -57.562  35.702  0.00  0.00     0.093 A 
ATOM     19  C13 KRK A   1      13.960 -58.855  37.588  0.00  0.00     0.141 A 
ATOM     20  C12 KRK A   1      15.224 -58.363  37.953  0.00  0.00     0.023 A 
ATOM     21  C11 KRK A   1      15.929 -57.704  36.996  0.00  0.00     0.036 A 
ENDBRANCH  11  13
TORSDOF 1
ENDMDL
MODEL 5
REMARK VINA RESULT:    -8.493      2.457      3.654
REMARK INTER + INTRA:          -9.253
REMARK INTER:                  -9.077
REMARK INTRA:                  -0.176
REMARK UNBOUND:                -0.263
REMARK  1 active torsions:
REMARK  status: ('A' for Active; 'I' for Inactive)
REMARK    1  A    between atoms: C7_14  and  C8_15 
ROOT
ATOM      1  N   KRK A   1      15.424 -58.290  34.684  0.00  0.00    -0.211 N 
ATOM      2  C   KRK A   1      14.399 -60.049  33.567  0.00  0.00     0.059 C 
ATOM      3  C1  KRK A   1      14.407 -59.298  34.898  0.00  0.00     0.144 C 
ATOM      4  N1  KRK A   1      15.127 -57.408  36.768  0.00  0.00    -0.075 NA
ATOM      5  C2  KRK A   1      16.110 -58.452  33.407  0.00  0.00     0.178 C 
ATOM      6  C3  KRK A   1      15.719 -59.772  32.946  0.00  0.00     0.190 C 
ATOM      7  C4  KRK A   1      15.801 -57.389  35.614  0.00  0.00     0.725 A 
ATOM      8  C5  KRK A   1      15.527 -56.496  37.670  0.00  0.00     0.139 A 
ATOM      9  N5  KRK A   1      16.811 -56.567  35.281  0.00  0.00    -0.062 NA
ATOM     10  C6  KRK A   1      16.551 -55.607  37.454  0.00  0.00     0.053 A 
ATOM     11  C7  KRK A   1      17.174 -55.670  36.222  0.00  0.00     0.091 A 
ATOM     12  F   KRK A   1      16.677 -60.650  33.518  0.00  0.00    -0.248 F 
ENDROOT
BRANCH  11  13
ATOM     13  C8  KRK A   1      18.221 -54.774  35.831  0.00  0.00     0.043 A 
ATOM     14  C9  KRK A   1      19.211 -55.020  34.871  0.00  0.00     0.157 A 
ATOM     15  N2  KRK A   1      20.026 -54.005  34.702  0.00  0.00    -0.161 NA
ATOM     16  N3  KRK A   1      19.563 -53.100  35.557  0.00  0.00    -0.151 N 
ATOM     17  N4  KRK A   1      20.180 -51.903  35.621  0.00  0.00    -0.162 NA
ATOM     18  C10 KRK A   1      18.472 -53.476  36.256  0.00  0.00     0.093 A 
ATOM     19  C13 KRK A   1      19.618 -51.058  36.484  0.00  0.00     0.141 A 
ATOM     20  C12 KRK A   1      18.507 -51.323  37.302  0.00  0.00     0.023 A 
ATOM     21  C11 KRK A   1      17.934 -52.550  37.186  0.00  0.00     0.036 A 
ENDBRANCH  11  13
TORSDOF 1
ENDMDL
MODEL 6
REMARK VINA RESULT:    -8.450      2.872      6.361
REMARK INTER + INTRA:          -9.207
REMARK INTER:                  -9.077
REMARK INTRA:                  -0.130
REMARK UNBOUND:                -0.263
REMARK  1 active torsions:
REMARK  status: ('A' for Active; 'I' for Inactive)
REMARK    1  A    between atoms: C7_14  and  C8_15 
ROOT
ATOM      1  N   KRK A   1      19.302 -56.202  31.846  0.00  0.00    -0.211 N 
ATOM      2  C   KRK A   1      19.611 -57.394  29.877  0.00  0.00     0.059 C 
ATOM      3  C1  KRK A   1      20.056 -56.130  30.611  0.00  0.00     0.144 C 
ATOM      4  N1  KRK A   1      20.218 -54.265  32.632  0.00  0.00    -0.075 NA
ATOM      5  C2  KRK A   1      18.359 -57.315  31.859  0.00  0.00     0.178 C 
ATOM      6  C3  KRK A   1      18.307 -57.767  30.480  0.00  0.00     0.190 C 
ATOM      7  C4  KRK A   1      19.355 -55.270  32.818  0.00  0.00     0.725 A 
ATOM      8  C5  KRK A   1      20.247 -53.356  33.621  0.00  0.00     0.139 A 
ATOM      9  N5  KRK A   1      18.538 -55.449  33.870  0.00  0.00    -0.062 NA
ATOM     10  C6  KRK A   1      19.457 -53.422  34.742  0.00  0.00     0.053 A 
ATOM     11  C7  KRK A   1      18.606 -54.508  34.835  0.00  0.00     0.091 A 
ATOM     12  F   KRK A   1      17.293 -56.976  29.881  0.00  0.00    -0.248 F 
ENDROOT
BRANCH  11  13
ATOM     13  C8  KRK A   1      17.761 -54.742  35.968  0.00  0.00     0.043 A 
ATOM     14  C9  KRK A   1      17.127 -55.947  36.297  0.00  0.00     0.157 A 
ATOM     15  N2  KRK A   1      16.432 -55.874  37.409  0.00  0.00    -0.161 NA
ATOM     16  N3  KRK A   1      16.615 -54.617  37.798  0.00  0.00    -0.151 N 
ATOM     17  N4  KRK A   1      16.037 -54.210  38.945  0.00  0.00    -0.162 NA
ATOM     18  C10 KRK A   1      17.415 -53.880  37.000  0.00  0.00     0.093 A 
ATOM     19  C13 KRK A   1      16.310 -52.945  39.262  0.00  0.00     0.141 A 
ATOM     20  C12 KRK A   1      17.093 -52.052  38.511  0.00  0.00     0.023 A 
ATOM     21  C11 KRK A   1      17.645 -52.529  37.365  0.00  0.00     0.036 A 
ENDBRANCH  11  13
TORSDOF 1
ENDMDL
MODEL 7
REMARK VINA RESULT:    -8.449      3.092      5.852
REMARK INTER + INTRA:          -9.206
REMARK INTER:                  -8.899
REMARK INTRA:                  -0.308
REMARK UNBOUND:                -0.263
REMARK  1 active torsions:
REMARK  status: ('A' for Active; 'I' for Inactive)
REMARK    1  A    between atoms: C7_14  and  C8_15 
ROOT
ATOM      1  N   KRK A   1      17.614 -53.357  36.861  0.00  0.00    -0.211 N 
ATOM      2  C   KRK A   1      17.120 -51.826  38.535  0.00  0.00     0.059 C 
ATOM      3  C1  KRK A   1      18.025 -52.048  37.324  0.00  0.00     0.144 C 
ATOM      4  N1  KRK A   1      19.092 -53.313  35.121  0.00  0.00    -0.075 NA
ATOM      5  C2  KRK A   1      16.647 -53.987  37.753  0.00  0.00     0.178 C 
ATOM      6  C3  KRK A   1      16.684 -53.180  38.960  0.00  0.00     0.190 C 
ATOM      7  C4  KRK A   1      18.163 -53.990  35.804  0.00  0.00     0.725 A 
ATOM      8  C5  KRK A   1      19.616 -53.972  34.075  0.00  0.00     0.139 A 
ATOM      9  N5  KRK A   1      17.717 -55.232  35.549  0.00  0.00    -0.062 NA
ATOM     10  C6  KRK A   1      19.251 -55.246  33.715  0.00  0.00     0.053 A 
ATOM     11  C7  KRK A   1      18.276 -55.850  34.486  0.00  0.00     0.091 A 
ATOM     12  F   KRK A   1      17.715 -53.758  39.746  0.00  0.00    -0.248 F 
ENDROOT
BRANCH  11  13
ATOM     13  C8  KRK A   1      17.754 -57.154  34.203  0.00  0.00     0.043 A 
ATOM     14  C9  KRK A   1      18.496 -58.333  34.057  0.00  0.00     0.157 A 
ATOM     15  N2  KRK A   1      17.747 -59.386  33.824  0.00  0.00    -0.161 NA
ATOM     16  N3  KRK A   1      16.516 -58.886  33.818  0.00  0.00    -0.151 N 
ATOM     17  N4  KRK A   1      15.483 -59.727  33.621  0.00  0.00    -0.162 NA
ATOM     18  C10 KRK A   1      16.434 -57.560  34.058  0.00  0.00     0.093 A 
ATOM     19  C13 KRK A   1      14.292 -59.131  33.666  0.00  0.00     0.141 A 
ATOM     20  C12 KRK A   1      14.056 -57.761  33.869  0.00  0.00     0.023 A 
ATOM     21  C11 KRK A   1      15.144 -56.970  34.062  0.00  0.00     0.036 A 
ENDBRANCH  11  13
TORSDOF 1
ENDMDL
MODEL 8
REMARK VINA RESULT:    -8.234      3.164      5.097
REMARK INTER + INTRA:          -8.979
REMARK INTER:                  -8.871
REMARK INTRA:                  -0.107
REMARK UNBOUND:                -0.263
REMARK  1 active torsions:
REMARK  status: ('A' for Active; 'I' for Inactive)
REMARK    1  A    between atoms: C7_14  and  C8_15 
ROOT
ATOM      1  N   KRK A   1      17.349 -53.256  37.044  0.00  0.00    -0.211 N 
ATOM      2  C   KRK A   1      16.611 -52.432  39.086  0.00  0.00     0.059 C 
ATOM      3  C1  KRK A   1      17.783 -52.374  38.108  0.00  0.00     0.144 C 
ATOM      4  N1  KRK A   1      19.251 -52.894  35.835  0.00  0.00    -0.075 NA
ATOM      5  C2  KRK A   1      16.094 -53.930  37.356  0.00  0.00     0.178 C 
ATOM      6  C3  KRK A   1      15.895 -53.695  38.776  0.00  0.00     0.190 C 
ATOM      7  C4  KRK A   1      18.084 -53.537  35.950  0.00  0.00     0.725 A 
ATOM      8  C5  KRK A   1      19.956 -53.197  34.733  0.00  0.00     0.139 A 
ATOM      9  N5  KRK A   1      17.566 -54.432  35.091  0.00  0.00    -0.062 NA
ATOM     10  C6  KRK A   1      19.541 -54.099  33.785  0.00  0.00     0.053 A 
ATOM     11  C7  KRK A   1      18.315 -54.700  33.999  0.00  0.00     0.091 A 
ATOM     12  F   KRK A   1      16.574 -54.765  39.415  0.00  0.00    -0.248 F 
ENDROOT
BRANCH  11  13
ATOM     13  C8  KRK A   1      17.724 -55.621  33.074  0.00  0.00     0.043 A 
ATOM     14  C9  KRK A   1      16.444 -56.182  33.161  0.00  0.00     0.157 A 
ATOM     15  N2  KRK A   1      16.162 -56.976  32.155  0.00  0.00    -0.161 NA
ATOM     16  N3  KRK A   1      17.265 -56.931  31.415  0.00  0.00    -0.151 N 
ATOM     17  N4  KRK A   1      17.298 -57.640  30.270  0.00  0.00    -0.162 NA
ATOM     18  C10 KRK A   1      18.239 -56.126  31.887  0.00  0.00     0.093 A 
ATOM     19  C13 KRK A   1      18.435 -57.500  29.589  0.00  0.00     0.141 A 
ATOM     20  C12 KRK A   1      19.544 -56.729  29.973  0.00  0.00     0.023 A 
ATOM     21  C11 KRK A   1      19.441 -56.040  31.140  0.00  0.00     0.036 A 
ENDBRANCH  11  13
TORSDOF 1
ENDMDL
MODEL 9
REMARK VINA RESULT:    -8.227      2.230      4.100
REMARK INTER + INTRA:          -8.970
REMARK INTER:                  -8.708
REMARK INTRA:                  -0.263
REMARK UNBOUND:                -0.263
REMARK  1 active torsions:
REMARK  status: ('A' for Active; 'I' for Inactive)
REMARK    1  A    between atoms: C7_14  and  C8_15 
ROOT
ATOM      1  N   KRK A   1      15.481 -57.989  35.134  0.00  0.00    -0.211 N 
ATOM      2  C   KRK A   1      14.130 -59.655  36.023  0.00  0.00     0.059 C 
ATOM      3  C1  KRK A   1      14.583 -59.039  34.700  0.00  0.00     0.144 C 
ATOM      4  N1  KRK A   1      15.945 -57.364  32.988  0.00  0.00    -0.075 NA
ATOM      5  C2  KRK A   1      15.503 -57.838  36.585  0.00  0.00     0.178 C 
ATOM      6  C3  KRK A   1      14.364 -58.609  37.050  0.00  0.00     0.190 C 
ATOM      7  C4  KRK A   1      16.118 -57.146  34.296  0.00  0.00     0.725 A 
ATOM      8  C5  KRK A   1      16.595 -56.508  32.182  0.00  0.00     0.139 A 
ATOM      9  N5  KRK A   1      16.860 -56.180  34.863  0.00  0.00    -0.062 NA
ATOM     10  C6  KRK A   1      17.377 -55.475  32.638  0.00  0.00     0.053 A 
ATOM     11  C7  KRK A   1      17.493 -55.347  34.009  0.00  0.00     0.091 A 
ATOM     12  F   KRK A   1      13.277 -57.698  37.019  0.00  0.00    -0.248 F 
ENDROOT
BRANCH  11  13
ATOM     13  C8  KRK A   1      18.315 -54.353  34.633  0.00  0.00     0.043 A 
ATOM     14  C9  KRK A   1      19.592 -53.950  34.220  0.00  0.00     0.157 A 
ATOM     15  N2  KRK A   1      20.098 -53.000  34.971  0.00  0.00    -0.161 NA
ATOM     16  N3  KRK A   1      19.147 -52.789  35.875  0.00  0.00    -0.151 N 
ATOM     17  N4  KRK A   1      19.348 -51.838  36.807  0.00  0.00    -0.162 NA
ATOM     18  C10 KRK A   1      18.039 -53.546  35.729  0.00  0.00     0.093 A 
ATOM     19  C13 KRK A   1      18.322 -51.684  37.643  0.00  0.00     0.141 A 
ATOM     20  C12 KRK A   1      17.126 -52.421  37.634  0.00  0.00     0.023 A 
ATOM     21  C11 KRK A   1      16.991 -53.365  36.666  0.00  0.00     0.036 A 
ENDBRANCH  11  13
TORSDOF 1
ENDMDL
MODEL 10
REMARK VINA RESULT:    -8.190      2.856      5.153
REMARK INTER + INTRA:          -8.931
REMARK INTER:                  -8.766
REMARK INTRA:                  -0.165
REMARK UNBOUND:                -0.263
REMARK  1 active torsions:
REMARK  status: ('A' for Active; 'I' for Inactive)
REMARK    1  A    between atoms: C7_14  and  C8_15 
ROOT
ATOM      1  N   KRK A   1      16.835 -57.560  33.703  0.00  0.00    -0.211 N 
ATOM      2  C   KRK A   1      17.387 -58.142  31.524  0.00  0.00     0.059 C 
ATOM      3  C1  KRK A   1      16.914 -58.730  32.853  0.00  0.00     0.144 C 
ATOM      4  N1  KRK A   1      16.104 -58.784  35.486  0.00  0.00    -0.075 NA
ATOM      5  C2  KRK A   1      17.339 -56.359  33.047  0.00  0.00     0.178 C 
ATOM      6  C3  KRK A   1      18.029 -56.848  31.867  0.00  0.00     0.190 C 
ATOM      7  C4  KRK A   1      16.474 -57.594  35.002  0.00  0.00     0.725 A 
ATOM      8  C5  KRK A   1      15.749 -58.781  36.781  0.00  0.00     0.139 A 
ATOM      9  N5  KRK A   1      16.522 -56.429  35.670  0.00  0.00    -0.062 NA
ATOM     10  C6  KRK A   1      15.762 -57.660  37.574  0.00  0.00     0.053 A 
ATOM     11  C7  KRK A   1      16.154 -56.480  36.969  0.00  0.00     0.091 A 
ATOM     12  F   KRK A   1      19.353 -57.106  32.307  0.00  0.00    -0.248 F 
ENDROOT
BRANCH  11  13
ATOM     13  C8  KRK A   1      16.168 -55.221  37.651  0.00  0.00     0.043 A 
ATOM     14  C9  KRK A   1      15.364 -54.855  38.739  0.00  0.00     0.157 A 
ATOM     15  N2  KRK A   1      15.613 -53.641  39.174  0.00  0.00    -0.161 NA
ATOM     16  N3  KRK A   1      16.578 -53.220  38.365  0.00  0.00    -0.151 N 
ATOM     17  N4  KRK A   1      17.086 -51.988  38.559  0.00  0.00    -0.162 NA
ATOM     18  C10 KRK A   1      16.980 -54.115  37.438  0.00  0.00     0.093 A 
ATOM     19  C13 KRK A   1      18.070 -51.676  37.716  0.00  0.00     0.141 A 
ATOM     20  C12 KRK A   1      18.566 -52.489  36.683  0.00  0.00     0.023 A 
ATOM     21  C11 KRK A   1      18.007 -53.719  36.543  0.00  0.00     0.036 A 
ENDBRANCH  11  13
TORSDOF 1
ENDMDL
