# created with PyMOL 2.5.2
@<TRIPOS>MOLECULE
out/docking_results/vina_output/6s1j_docked_ligand.pdbqt
21 24 1                 
SMALL
USER_CHARGES
@<TRIPOS>ATOM
1	   N	15.343	-56.049	37.873	N.pl3	1	UNK0	0.000	
2	   C	14.060	-57.980	38.008	C.3	1	UNK0	0.000	
3	   C	14.309	-56.639	38.698	C.3	1	UNK0	0.000	
4	   N	15.408	-54.152	39.142	N.2	1	UNK0	0.000	
5	   C	15.822	-56.961	36.841	C.3	1	UNK0	0.000	
6	   C	15.289	-58.257	37.222	C.3	1	UNK0	0.000	
7	   C	15.906	-54.847	38.113	C.2	1	UNK0	0.000	
8	   C	15.991	-52.960	39.352	C.2	1	UNK0	0.000	
9	   N	16.904	-54.475	37.294	N.2	1	UNK0	0.000	
10	   C	17.023	-52.470	38.591	C.2	1	UNK0	0.000	
11	   C	17.454	-53.268	37.547	C.2	1	UNK0	0.000	
12	   F	16.266	-58.805	38.093	 F	1	UNK0	0.000	
13	   C	18.484	-52.871	36.635	C.2	1	UNK0	0.000	
14	   C	19.369	-51.797	36.796	C.2	1	UNK0	0.000	
15	   N	20.226	-51.685	35.807	N.2	1	UNK0	0.000	
16	   N	19.892	-52.689	35.002	N.pl3	1	UNK0	0.000	
17	   N	20.606	-52.872	33.875	N.2	1	UNK0	0.000	
18	   C	18.871	-53.457	35.437	C.2	1	UNK0	0.000	
19	   C	20.211	-53.922	33.157	C.2	1	UNK0	0.000	
20	   C	19.147	-54.786	33.465	C.2	1	UNK0	0.000	
21	   C	18.469	-54.543	34.618	C.2	1	UNK0	0.000	
@<TRIPOS>BOND
1 1 7 1
2 1 3 1
3 2 3 1
4 4 8 1
5 5 6 1
6 1 5 1
7 2 6 1
8 6 12 1
9 4 7 2
10 9 11 2
11 7 9 1
12 8 10 2
13 10 11 1
14 13 14 1
15 11 13 1
16 14 15 2
17 16 18 1
18 15 16 1
19 16 17 1
20 13 18 2
21 19 20 1
22 17 19 2
23 20 21 2
24 18 21 1
@<TRIPOS>SUBSTRUCTURE
1	UNK0	1	GROUP	1 ****	UNK
