out/docking_results/vina_output/6y4q_docked_ligand.pdbqt
 OpenBabel03112211143D

 42 46  0  0  0  0  0  0  0  0999 V2000
    4.0910  -19.4120  -38.4910 C   0  0  0  0  0  0  0  0  0  0  0  0
    4.8890  -20.2130  -39.2180 C   0  0  0  0  0  0  0  0  0  0  0  0
    6.2720  -20.3050  -38.6220 C   0  0  0  0  0  2  0  0  0  0  0  0
    6.2670  -19.2470  -37.5220 C   0  0  0  0  0  2  0  0  0  0  0  0
    4.8130  -18.8580  -37.2880 C   0  0  0  0  0  2  0  0  0  0  0  0
    2.6990  -19.0400  -38.7920 C   0  0  0  0  0  0  0  0  0  0  0  0
    1.6260  -19.3930  -37.9090 C   0  0  0  0  0  3  0  0  0  0  0  0
    0.4480  -18.7820  -38.2270 C   0  0  0  0  0  0  0  0  0  0  0  0
    0.6180  -17.7910  -39.6280 S   0  0  0  0  0  0  0  0  0  0  0  0
    2.2970  -18.1870  -39.7920 C   0  0  0  0  0  0  0  0  0  0  0  0
    3.0810  -17.5720  -40.9110 C   0  0  0  0  0  1  0  0  0  0  0  0
   -0.9340  -18.7720  -37.6840 C   0  0  0  0  0  0  0  0  0  0  0  0
   -1.2550  -18.0170  -36.4990 N   0  0  0  0  0  0  0  0  0  0  0  0
   -2.6320  -17.9390  -36.0230 C   0  0  0  0  0  1  0  0  0  0  0  0
   -1.8060  -19.3770  -38.3130 O   0  0  0  0  0  0  0  0  0  0  0  0
   -0.2540  -17.3040  -35.7160 C   0  0  0  0  0  2  0  0  0  0  0  0
    0.0790  -15.9640  -36.2970 C   0  0  0  0  0  0  0  0  0  0  0  0
    1.2790  -15.4500  -36.6930 C   0  0  0  0  0  3  0  0  0  0  0  0
    1.0210  -14.1750  -37.0160 N   0  0  0  0  0  0  0  0  0  0  0  0
   -0.2840  -13.8950  -36.8550 N   0  0  0  0  0  0  0  0  0  0  0  0
   -0.8570  -14.9890  -36.4180 N   0  0  0  0  0  0  0  0  0  0  0  0
    1.9610  -13.1470  -37.4620 C   0  0  0  0  0  2  0  0  0  0  0  0
    2.4140  -13.4170  -38.8900 C   0  0  0  0  0  2  0  0  0  0  0  0
    3.4990  -12.4750  -39.2990 C   0  0  0  0  0  1  0  0  0  0  0  0
    4.5520  -20.9220  -40.4600 C   0  0  0  0  0  0  0  0  0  0  0  0
    5.0780  -20.6510  -41.7030 C   0  0  0  0  0  0  0  0  0  0  0  0
    6.0490  -19.5900  -42.1330 C   0  0  0  0  0  1  0  0  0  0  0  0
    4.4650  -21.7610  -42.8900 S   0  0  0  0  0  0  0  0  0  0  0  0
    3.5090  -22.5910  -41.7170 C   0  0  0  0  0  0  0  0  0  0  0  0
    3.6550  -22.0350  -40.4740 C   0  0  0  0  0  3  0  0  0  0  0  0
    2.7940  -23.7640  -42.2670 C   0  0  0  0  0  0  0  0  0  0  0  0
    3.3980  -24.8330  -42.3290 O   0  0  0  0  0  0  0  0  0  0  0  0
    1.4300  -23.6580  -42.6870 N   0  0  0  0  0  0  0  0  0  0  0  0
    0.6580  -22.4230  -42.7690 C   0  0  0  0  0  1  0  0  0  0  0  0
    0.7820  -24.8680  -43.1700 C   0  0  0  0  0  2  0  0  0  0  0  0
    0.0090  -25.4120  -42.0090 C   0  0  0  0  0  0  0  0  0  0  0  0
    0.5080  -26.4070  -41.2320 N   0  0  0  0  0  0  0  0  0  0  0  0
   -0.3480  -26.6770  -40.2800 N   0  0  0  0  0  0  0  0  0  0  0  0
   -1.3910  -25.8480  -40.4420 N   0  0  0  0  0  0  0  0  0  0  0  0
   -1.1990  -25.0420  -41.4980 C   0  0  0  0  0  3  0  0  0  0  0  0
   -2.5710  -25.9020  -39.5750 C   0  0  0  0  0  2  0  0  0  0  0  0
   -2.2470  -25.5370  -38.1460 C   0  0  0  0  0  1  0  0  0  0  0  0
  1  5  1  0  0  0  0
  2  3  1  0  0  0  0
  2  1  2  0  0  0  0
  3  4  1  0  0  0  0
  4  5  1  0  0  0  0
  6  1  1  0  0  0  0
  6  7  1  0  0  0  0
  8  7  2  0  0  0  0
  8 12  1  0  0  0  0
  9  8  1  0  0  0  0
 10  9  1  0  0  0  0
 10  6  2  0  0  0  0
 11 10  1  0  0  0  0
 12 13  1  0  0  0  0
 13 14  1  0  0  0  0
 13 16  1  0  0  0  0
 15 12  2  0  0  0  0
 17 16  1  0  0  0  0
 18 17  2  0  0  0  0
 19 20  1  0  0  0  0
 19 18  1  0  0  0  0
 20 21  2  0  0  0  0
 21 17  1  0  0  0  0
 22 19  1  0  0  0  0
 23 22  1  0  0  0  0
 24 23  1  0  0  0  0
 25  2  1  0  0  0  0
 26 25  2  0  0  0  0
 27 26  1  0  0  0  0
 28 29  1  0  0  0  0
 28 26  1  0  0  0  0
 29 30  2  0  0  0  0
 30 25  1  0  0  0  0
 31 29  1  0  0  0  0
 32 31  2  0  0  0  0
 33 31  1  0  0  0  0
 34 33  1  0  0  0  0
 35 33  1  0  0  0  0
 35 36  1  0  0  0  0
 36 40  2  0  0  0  0
 36 37  1  0  0  0  0
 37 38  2  0  0  0  0
 39 38  1  0  0  0  0
 39 41  1  0  0  0  0
 40 39  1  0  0  0  0
 41 42  1  0  0  0  0
M  END
>  <Pose>
1

>  <Score>
-6.187

$$$$
out/docking_results/vina_output/6y4q_docked_ligand.pdbqt
 OpenBabel03112211143D

 42 46  0  0  0  0  0  0  0  0999 V2000
    2.7080  -12.8090  -39.4550 C   0  0  0  0  0  0  0  0  0  0  0  0
    2.3750  -12.6450  -38.1630 C   0  0  0  0  0  0  0  0  0  0  0  0
    3.3390  -11.7250  -37.4560 C   0  0  0  0  0  2  0  0  0  0  0  0
    4.4600  -11.5190  -38.4710 C   0  0  0  0  0  2  0  0  0  0  0  0
    3.9370  -12.0100  -39.8150 C   0  0  0  0  0  2  0  0  0  0  0  0
    2.0380  -13.6740  -40.4400 C   0  0  0  0  0  0  0  0  0  0  0  0
    2.3720  -15.0620  -40.5610 C   0  0  0  0  0  3  0  0  0  0  0  0
    1.5060  -15.7530  -41.3590 C   0  0  0  0  0  0  0  0  0  0  0  0
    0.2880  -14.7160  -42.0020 S   0  0  0  0  0  0  0  0  0  0  0  0
    0.9340  -13.3310  -41.1850 C   0  0  0  0  0  0  0  0  0  0  0  0
    0.2460  -12.0100  -41.3430 C   0  0  0  0  0  1  0  0  0  0  0  0
    1.3650  -17.1570  -41.8210 C   0  0  0  0  0  0  0  0  0  0  0  0
    1.0370  -18.2090  -40.8920 N   0  0  0  0  0  0  0  0  0  0  0  0
    0.8100  -19.5700  -41.3670 C   0  0  0  0  0  1  0  0  0  0  0  0
    1.4740  -17.3820  -43.0290 O   0  0  0  0  0  0  0  0  0  0  0  0
    0.9150  -17.9920  -39.4570 C   0  0  0  0  0  2  0  0  0  0  0  0
    2.1850  -18.2950  -38.7220 C   0  0  0  0  0  0  0  0  0  0  0  0
    3.3900  -18.7330  -39.1880 C   0  0  0  0  0  3  0  0  0  0  0  0
    4.1280  -18.9550  -38.0920 N   0  0  0  0  0  0  0  0  0  0  0  0
    3.4350  -18.6530  -36.9800 N   0  0  0  0  0  0  0  0  0  0  0  0
    2.2510  -18.2490  -37.3670 N   0  0  0  0  0  0  0  0  0  0  0  0
    5.4910  -19.4780  -38.0100 C   0  0  0  0  0  2  0  0  0  0  0  0
    5.7780  -20.4130  -39.1750 C   0  0  0  0  0  2  0  0  0  0  0  0
    6.2570  -21.7440  -38.6940 C   0  0  0  0  0  1  0  0  0  0  0  0
    1.2550  -13.2670  -37.4430 C   0  0  0  0  0  0  0  0  0  0  0  0
    0.1030  -12.6250  -37.0490 C   0  0  0  0  0  0  0  0  0  0  0  0
   -0.3000  -11.1860  -37.1890 C   0  0  0  0  0  1  0  0  0  0  0  0
   -0.9930  -13.7350  -36.2840 S   0  0  0  0  0  0  0  0  0  0  0  0
    0.0930  -15.0590  -36.4990 C   0  0  0  0  0  0  0  0  0  0  0  0
    1.2440  -14.6600  -37.1260 C   0  0  0  0  0  3  0  0  0  0  0  0
   -0.4600  -16.3520  -36.0360 C   0  0  0  0  0  0  0  0  0  0  0  0
    0.0750  -16.8970  -35.0740 O   0  0  0  0  0  0  0  0  0  0  0  0
   -1.6000  -16.9310  -36.6790 N   0  0  0  0  0  0  0  0  0  0  0  0
   -2.2370  -16.4340  -37.8940 C   0  0  0  0  0  1  0  0  0  0  0  0
   -2.1130  -18.1780  -36.1340 C   0  0  0  0  0  2  0  0  0  0  0  0
   -1.9090  -19.2090  -37.2010 C   0  0  0  0  0  0  0  0  0  0  0  0
   -0.7890  -19.9750  -37.2390 N   0  0  0  0  0  0  0  0  0  0  0  0
   -0.8720  -20.8050  -38.2460 N   0  0  0  0  0  0  0  0  0  0  0  0
   -2.0490  -20.5770  -38.8480 N   0  0  0  0  0  0  0  0  0  0  0  0
   -2.7240  -19.6020  -38.2190 C   0  0  0  0  0  3  0  0  0  0  0  0
   -2.4610  -21.3020  -40.0530 C   0  0  0  0  0  2  0  0  0  0  0  0
   -1.7140  -22.6020  -40.2220 C   0  0  0  0  0  1  0  0  0  0  0  0
  1  2  2  0  0  0  0
  2  3  1  0  0  0  0
  2 25  1  0  0  0  0
  4  3  1  0  0  0  0
  5  1  1  0  0  0  0
  5  4  1  0  0  0  0
  6  1  1  0  0  0  0
  7  6  1  0  0  0  0
  8  7  2  0  0  0  0
  9  8  1  0  0  0  0
  9 10  1  0  0  0  0
 10  6  2  0  0  0  0
 11 10  1  0  0  0  0
 12  8  1  0  0  0  0
 12 13  1  0  0  0  0
 13 16  1  0  0  0  0
 14 13  1  0  0  0  0
 15 12  2  0  0  0  0
 16 17  1  0  0  0  0
 17 21  1  0  0  0  0
 18 17  2  0  0  0  0
 18 19  1  0  0  0  0
 19 22  1  0  0  0  0
 19 20  1  0  0  0  0
 21 20  2  0  0  0  0
 23 24  1  0  0  0  0
 23 22  1  0  0  0  0
 25 30  1  0  0  0  0
 25 26  2  0  0  0  0
 26 28  1  0  0  0  0
 27 26  1  0  0  0  0
 29 28  1  0  0  0  0
 29 31  1  0  0  0  0
 30 29  2  0  0  0  0
 31 32  2  0  0  0  0
 33 35  1  0  0  0  0
 33 31  1  0  0  0  0
 34 33  1  0  0  0  0
 36 35  1  0  0  0  0
 37 36  1  0  0  0  0
 38 37  2  0  0  0  0
 39 38  1  0  0  0  0
 39 40  1  0  0  0  0
 40 36  2  0  0  0  0
 41 39  1  0  0  0  0
 42 41  1  0  0  0  0
M  END
>  <Pose>
2

>  <Score>
-5.919

$$$$
out/docking_results/vina_output/6y4q_docked_ligand.pdbqt
 OpenBabel03112211143D

 42 46  0  0  0  0  0  0  0  0999 V2000
    0.9300  -14.9800  -38.2760 C   0  0  0  0  0  0  0  0  0  0  0  0
    1.0260  -16.0030  -37.4090 C   0  0  0  0  0  0  0  0  0  0  0  0
    0.8440  -15.5400  -35.9850 C   0  0  0  0  0  2  0  0  0  0  0  0
    0.8390  -14.0180  -36.0930 C   0  0  0  0  0  2  0  0  0  0  0  0
    0.6520  -13.6780  -37.5660 C   0  0  0  0  0  2  0  0  0  0  0  0
    1.1070  -15.0370  -39.7360 C   0  0  0  0  0  0  0  0  0  0  0  0
    2.4120  -15.1020  -40.3260 C   0  0  0  0  0  3  0  0  0  0  0  0
    2.3810  -15.3710  -41.6640 C   0  0  0  0  0  0  0  0  0  0  0  0
    0.7600  -15.5180  -42.2330 S   0  0  0  0  0  0  0  0  0  0  0  0
    0.1040  -15.2260  -40.6560 C   0  0  0  0  0  0  0  0  0  0  0  0
   -1.3840  -15.2430  -40.4760 C   0  0  0  0  0  1  0  0  0  0  0  0
    3.3850  -15.5500  -42.7430 C   0  0  0  0  0  0  0  0  0  0  0  0
    3.9290  -14.4110  -43.4400 N   0  0  0  0  0  0  0  0  0  0  0  0
    4.9810  -14.5870  -44.4350 C   0  0  0  0  0  1  0  0  0  0  0  0
    3.7830  -16.6940  -42.9800 O   0  0  0  0  0  0  0  0  0  0  0  0
    3.4770  -13.0460  -43.2050 C   0  0  0  0  0  2  0  0  0  0  0  0
    4.2650  -12.3560  -42.1350 C   0  0  0  0  0  0  0  0  0  0  0  0
    3.9200  -12.0380  -40.8540 C   0  0  0  0  0  3  0  0  0  0  0  0
    4.9510  -11.3230  -40.3830 N   0  0  0  0  0  0  0  0  0  0  0  0
    5.9180  -11.2100  -41.3110 N   0  0  0  0  0  0  0  0  0  0  0  0
    5.4970  -11.8430  -42.3780 N   0  0  0  0  0  0  0  0  0  0  0  0
    5.0890  -10.6900  -39.0730 C   0  0  0  0  0  2  0  0  0  0  0  0
    3.7930  -10.8030  -38.2830 C   0  0  0  0  0  2  0  0  0  0  0  0
    4.0180  -11.4870  -36.9730 C   0  0  0  0  0  1  0  0  0  0  0  0
    1.3030  -17.4130  -37.7170 C   0  0  0  0  0  0  0  0  0  0  0  0
    0.3620  -18.3550  -38.0660 C   0  0  0  0  0  0  0  0  0  0  0  0
   -1.1300  -18.2370  -38.1790 C   0  0  0  0  0  1  0  0  0  0  0  0
    1.1140  -19.8820  -38.4100 S   0  0  0  0  0  0  0  0  0  0  0  0
    2.6900  -19.2540  -38.0920 C   0  0  0  0  0  0  0  0  0  0  0  0
    2.6340  -17.9330  -37.7340 C   0  0  0  0  0  3  0  0  0  0  0  0
    3.7730  -20.2330  -38.3380 C   0  0  0  0  0  0  0  0  0  0  0  0
    3.9230  -21.1430  -37.5260 O   0  0  0  0  0  0  0  0  0  0  0  0
    4.5980  -20.1320  -39.5020 N   0  0  0  0  0  0  0  0  0  0  0  0
    4.5860  -19.0340  -40.4630 C   0  0  0  0  0  1  0  0  0  0  0  0
    5.6080  -21.1610  -39.6980 C   0  0  0  0  0  2  0  0  0  0  0  0
    5.1940  -21.9180  -40.9220 C   0  0  0  0  0  0  0  0  0  0  0  0
    6.0410  -22.0880  -41.9680 N   0  0  0  0  0  0  0  0  0  0  0  0
    5.4470  -22.8010  -42.8900 N   0  0  0  0  0  0  0  0  0  0  0  0
    4.2210  -23.0950  -42.4290 N   0  0  0  0  0  0  0  0  0  0  0  0
    4.0340  -22.5730  -41.2070 C   0  0  0  0  0  3  0  0  0  0  0  0
    3.2500  -23.8500  -43.2260 C   0  0  0  0  0  2  0  0  0  0  0  0
    2.3680  -24.7270  -42.3710 C   0  0  0  0  0  1  0  0  0  0  0  0
  1  5  1  0  0  0  0
  1  2  2  0  0  0  0
  2  3  1  0  0  0  0
  4  3  1  0  0  0  0
  5  4  1  0  0  0  0
  6  1  1  0  0  0  0
  7  6  1  0  0  0  0
  8  7  2  0  0  0  0
  9  8  1  0  0  0  0
  9 10  1  0  0  0  0
 10 11  1  0  0  0  0
 10  6  2  0  0  0  0
 12  8  1  0  0  0  0
 13 16  1  0  0  0  0
 13 12  1  0  0  0  0
 14 13  1  0  0  0  0
 15 12  2  0  0  0  0
 16 17  1  0  0  0  0
 17 18  2  0  0  0  0
 18 19  1  0  0  0  0
 19 22  1  0  0  0  0
 20 19  1  0  0  0  0
 21 17  1  0  0  0  0
 21 20  2  0  0  0  0
 22 23  1  0  0  0  0
 23 24  1  0  0  0  0
 25  2  1  0  0  0  0
 26 25  2  0  0  0  0
 27 26  1  0  0  0  0
 28 29  1  0  0  0  0
 28 26  1  0  0  0  0
 29 30  2  0  0  0  0
 30 25  1  0  0  0  0
 31 29  1  0  0  0  0
 31 32  2  0  0  0  0
 33 31  1  0  0  0  0
 34 33  1  0  0  0  0
 35 33  1  0  0  0  0
 36 35  1  0  0  0  0
 37 36  1  0  0  0  0
 38 39  1  0  0  0  0
 38 37  2  0  0  0  0
 39 40  1  0  0  0  0
 40 36  2  0  0  0  0
 41 39  1  0  0  0  0
 41 42  1  0  0  0  0
M  END
>  <Pose>
3

>  <Score>
-5.729

$$$$
out/docking_results/vina_output/6y4q_docked_ligand.pdbqt
 OpenBabel03112211143D

 42 46  0  0  0  0  0  0  0  0999 V2000
    1.7360  -13.4530  -37.9610 C   0  0  0  0  0  0  0  0  0  0  0  0
    2.4480  -13.2120  -39.0740 C   0  0  0  0  0  0  0  0  0  0  0  0
    3.5900  -12.2630  -38.8060 C   0  0  0  0  0  2  0  0  0  0  0  0
    3.3350  -11.7770  -37.3820 C   0  0  0  0  0  2  0  0  0  0  0  0
    2.3010  -12.7160  -36.7720 C   0  0  0  0  0  2  0  0  0  0  0  0
    0.5230  -14.2800  -37.8470 C   0  0  0  0  0  0  0  0  0  0  0  0
    0.5980  -15.6680  -37.4970 C   0  0  0  0  0  3  0  0  0  0  0  0
   -0.6220  -16.2170  -37.2220 C   0  0  0  0  0  0  0  0  0  0  0  0
   -1.8850  -15.0590  -37.4160 S   0  0  0  0  0  0  0  0  0  0  0  0
   -0.7690  -13.8100  -37.8630 C   0  0  0  0  0  0  0  0  0  0  0  0
   -1.2970  -12.4410  -38.1660 C   0  0  0  0  0  1  0  0  0  0  0  0
   -1.1270  -17.5530  -36.8190 C   0  0  0  0  0  0  0  0  0  0  0  0
   -0.9420  -18.7000  -37.6730 N   0  0  0  0  0  0  0  0  0  0  0  0
   -1.3600  -20.0260  -37.2310 C   0  0  0  0  0  1  0  0  0  0  0  0
   -1.6520  -17.6620  -35.7080 O   0  0  0  0  0  0  0  0  0  0  0  0
   -0.3430  -18.6150  -38.9990 C   0  0  0  0  0  2  0  0  0  0  0  0
    1.1140  -18.9610  -38.9940 C   0  0  0  0  0  0  0  0  0  0  0  0
    1.7960  -19.8900  -38.2640 C   0  0  0  0  0  3  0  0  0  0  0  0
    3.0870  -19.6900  -38.5650 N   0  0  0  0  0  0  0  0  0  0  0  0
    3.2200  -18.6960  -39.4610 N   0  0  0  0  0  0  0  0  0  0  0  0
    2.0150  -18.2550  -39.7230 N   0  0  0  0  0  0  0  0  0  0  0  0
    4.2580  -20.3810  -38.0280 C   0  0  0  0  0  2  0  0  0  0  0  0
    5.5190  -19.5630  -38.2650 C   0  0  0  0  0  2  0  0  0  0  0  0
    6.7450  -20.3970  -38.0780 C   0  0  0  0  0  1  0  0  0  0  0  0
    2.2010  -13.7350  -40.4250 C   0  0  0  0  0  0  0  0  0  0  0  0
    1.6980  -13.0120  -41.4830 C   0  0  0  0  0  0  0  0  0  0  0  0
    1.2390  -11.5840  -41.5480 C   0  0  0  0  0  1  0  0  0  0  0  0
    1.6210  -13.9870  -42.9180 S   0  0  0  0  0  0  0  0  0  0  0  0
    2.2700  -15.3600  -42.1000 C   0  0  0  0  0  0  0  0  0  0  0  0
    2.5270  -15.0790  -40.7850 C   0  0  0  0  0  3  0  0  0  0  0  0
    2.4830  -16.5260  -42.9880 C   0  0  0  0  0  0  0  0  0  0  0  0
    3.5730  -16.6340  -43.5460 O   0  0  0  0  0  0  0  0  0  0  0  0
    1.4570  -17.5070  -43.1650 N   0  0  0  0  0  0  0  0  0  0  0  0
    0.0950  -17.4180  -42.6510 C   0  0  0  0  0  1  0  0  0  0  0  0
    1.7620  -18.6480  -44.0150 C   0  0  0  0  0  2  0  0  0  0  0  0
    2.1870  -19.7470  -43.0910 C   0  0  0  0  0  0  0  0  0  0  0  0
    1.2760  -20.5100  -42.4350 N   0  0  0  0  0  0  0  0  0  0  0  0
    1.9050  -21.4080  -41.7200 N   0  0  0  0  0  0  0  0  0  0  0  0
    3.2180  -21.2250  -41.9260 N   0  0  0  0  0  0  0  0  0  0  0  0
    3.4300  -20.2110  -42.7800 C   0  0  0  0  0  3  0  0  0  0  0  0
    4.2340  -22.0300  -41.2420 C   0  0  0  0  0  2  0  0  0  0  0  0
    5.6370  -21.6290  -41.6300 C   0  0  0  0  0  1  0  0  0  0  0  0
  1  6  1  0  0  0  0
  1  5  1  0  0  0  0
  2  3  1  0  0  0  0
  2  1  2  0  0  0  0
  3  4  1  0  0  0  0
  4  5  1  0  0  0  0
  6  7  1  0  0  0  0
  7  8  2  0  0  0  0
  8 12  1  0  0  0  0
  9  8  1  0  0  0  0
 10  6  2  0  0  0  0
 10  9  1  0  0  0  0
 11 10  1  0  0  0  0
 12 15  2  0  0  0  0
 13 14  1  0  0  0  0
 13 12  1  0  0  0  0
 16 17  1  0  0  0  0
 16 13  1  0  0  0  0
 17 18  2  0  0  0  0
 19 18  1  0  0  0  0
 19 22  1  0  0  0  0
 20 19  1  0  0  0  0
 21 20  2  0  0  0  0
 21 17  1  0  0  0  0
 23 24  1  0  0  0  0
 23 22  1  0  0  0  0
 25  2  1  0  0  0  0
 26 25  2  0  0  0  0
 27 26  1  0  0  0  0
 28 29  1  0  0  0  0
 28 26  1  0  0  0  0
 29 30  2  0  0  0  0
 30 25  1  0  0  0  0
 31 29  1  0  0  0  0
 32 31  2  0  0  0  0
 33 31  1  0  0  0  0
 33 34  1  0  0  0  0
 35 33  1  0  0  0  0
 35 36  1  0  0  0  0
 36 40  2  0  0  0  0
 36 37  1  0  0  0  0
 37 38  2  0  0  0  0
 39 38  1  0  0  0  0
 39 41  1  0  0  0  0
 40 39  1  0  0  0  0
 42 41  1  0  0  0  0
M  END
>  <Pose>
4

>  <Score>
-5.633

$$$$
out/docking_results/vina_output/6y4q_docked_ligand.pdbqt
 OpenBabel03112211143D

 42 46  0  0  0  0  0  0  0  0999 V2000
    2.7500  -18.4660  -39.3480 C   0  0  0  0  0  0  0  0  0  0  0  0
    2.4020  -18.1450  -38.0900 C   0  0  0  0  0  0  0  0  0  0  0  0
    3.1740  -18.9550  -37.0780 C   0  0  0  0  0  2  0  0  0  0  0  0
    3.9030  -19.9960  -37.9230 C   0  0  0  0  0  2  0  0  0  0  0  0
    3.8210  -19.5290  -39.3700 C   0  0  0  0  0  2  0  0  0  0  0  0
    2.1750  -17.9280  -40.5920 C   0  0  0  0  0  0  0  0  0  0  0  0
    2.7160  -16.7570  -41.2170 C   0  0  0  0  0  3  0  0  0  0  0  0
    2.2070  -16.5340  -42.4640 C   0  0  0  0  0  0  0  0  0  0  0  0
    1.0360  -17.7280  -42.8830 S   0  0  0  0  0  0  0  0  0  0  0  0
    1.2310  -18.5530  -41.3710 C   0  0  0  0  0  0  0  0  0  0  0  0
    0.4290  -19.7920  -41.1130 C   0  0  0  0  0  1  0  0  0  0  0  0
    2.3960  -15.5180  -43.5310 C   0  0  0  0  0  0  0  0  0  0  0  0
    1.7380  -14.2380  -43.4550 N   0  0  0  0  0  0  0  0  0  0  0  0
    2.0000  -13.2120  -44.4590 C   0  0  0  0  0  1  0  0  0  0  0  0
    3.1800  -15.7810  -44.4470 O   0  0  0  0  0  0  0  0  0  0  0  0
    0.7920  -13.8920  -42.4020 C   0  0  0  0  0  2  0  0  0  0  0  0
    1.4160  -13.0640  -41.3210 C   0  0  0  0  0  0  0  0  0  0  0  0
    2.2590  -13.4250  -40.3110 C   0  0  0  0  0  3  0  0  0  0  0  0
    2.4040  -12.3200  -39.5670 N   0  0  0  0  0  0  0  0  0  0  0  0
    1.7050  -11.2970  -40.0890 N   0  0  0  0  0  0  0  0  0  0  0  0
    1.1050  -11.7530  -41.1600 N   0  0  0  0  0  0  0  0  0  0  0  0
    3.1680  -12.1560  -38.3310 C   0  0  0  0  0  2  0  0  0  0  0  0
    4.1060  -10.9620  -38.4340 C   0  0  0  0  0  2  0  0  0  0  0  0
    4.2650  -10.2850  -37.1110 C   0  0  0  0  0  1  0  0  0  0  0  0
    1.3890  -17.1680  -37.6640 C   0  0  0  0  0  0  0  0  0  0  0  0
    0.0830  -17.4600  -37.3420 C   0  0  0  0  0  0  0  0  0  0  0  0
   -0.6540  -18.7670  -37.3760 C   0  0  0  0  0  1  0  0  0  0  0  0
   -0.7610  -16.0310  -36.8280 S   0  0  0  0  0  0  0  0  0  0  0  0
    0.6410  -15.0470  -37.0390 C   0  0  0  0  0  0  0  0  0  0  0  0
    1.7030  -15.7850  -37.4880 C   0  0  0  0  0  3  0  0  0  0  0  0
    0.4360  -13.6390  -36.6280 C   0  0  0  0  0  0  0  0  0  0  0  0
    0.9810  -13.2540  -35.5960 O   0  0  0  0  0  0  0  0  0  0  0  0
   -0.3510  -12.7510  -37.4280 N   0  0  0  0  0  0  0  0  0  0  0  0
   -1.1340  -13.1280  -38.5990 C   0  0  0  0  0  1  0  0  0  0  0  0
   -0.4630  -11.3710  -36.9820 C   0  0  0  0  0  2  0  0  0  0  0  0
   -1.4350  -11.3840  -35.8430 C   0  0  0  0  0  0  0  0  0  0  0  0
   -1.1460  -10.7820  -34.6610 N   0  0  0  0  0  0  0  0  0  0  0  0
   -2.1650  -10.9150  -33.8520 N   0  0  0  0  0  0  0  0  0  0  0  0
   -3.1100  -11.5950  -34.5190 N   0  0  0  0  0  0  0  0  0  0  0  0
   -2.6960  -11.8920  -35.7610 C   0  0  0  0  0  3  0  0  0  0  0  0
   -4.3840  -11.9710  -33.9000 C   0  0  0  0  0  2  0  0  0  0  0  0
   -4.3010  -11.9950  -32.3930 C   0  0  0  0  0  1  0  0  0  0  0  0
  1  2  2  0  0  0  0
  2 25  1  0  0  0  0
  2  3  1  0  0  0  0
  4  3  1  0  0  0  0
  5  1  1  0  0  0  0
  5  4  1  0  0  0  0
  6  1  1  0  0  0  0
  7  6  1  0  0  0  0
  8  7  2  0  0  0  0
  9  8  1  0  0  0  0
  9 10  1  0  0  0  0
 10 11  1  0  0  0  0
 10  6  2  0  0  0  0
 12 13  1  0  0  0  0
 12  8  1  0  0  0  0
 13 16  1  0  0  0  0
 14 13  1  0  0  0  0
 15 12  2  0  0  0  0
 16 17  1  0  0  0  0
 17 21  1  0  0  0  0
 17 18  2  0  0  0  0
 18 19  1  0  0  0  0
 19 22  1  0  0  0  0
 20 19  1  0  0  0  0
 21 20  2  0  0  0  0
 23 22  1  0  0  0  0
 23 24  1  0  0  0  0
 25 30  1  0  0  0  0
 25 26  2  0  0  0  0
 26 28  1  0  0  0  0
 27 26  1  0  0  0  0
 29 28  1  0  0  0  0
 29 31  1  0  0  0  0
 30 29  2  0  0  0  0
 31 32  2  0  0  0  0
 33 35  1  0  0  0  0
 33 31  1  0  0  0  0
 34 33  1  0  0  0  0
 35 36  1  0  0  0  0
 36 40  2  0  0  0  0
 36 37  1  0  0  0  0
 37 38  2  0  0  0  0
 39 41  1  0  0  0  0
 39 38  1  0  0  0  0
 40 39  1  0  0  0  0
 41 42  1  0  0  0  0
M  END
>  <Pose>
5

>  <Score>
-5.595

$$$$
out/docking_results/vina_output/6y4q_docked_ligand.pdbqt
 OpenBabel03112211143D

 42 46  0  0  0  0  0  0  0  0999 V2000
    4.4510  -19.5860  -39.2710 C   0  0  0  0  0  0  0  0  0  0  0  0
    3.6080  -19.1620  -38.3140 C   0  0  0  0  0  0  0  0  0  0  0  0
    4.3510  -18.7320  -37.0730 C   0  0  0  0  0  2  0  0  0  0  0  0
    5.7890  -19.1690  -37.3380 C   0  0  0  0  0  2  0  0  0  0  0  0
    5.8890  -19.4880  -38.8250 C   0  0  0  0  0  2  0  0  0  0  0  0
    4.0900  -20.1310  -40.5910 C   0  0  0  0  0  0  0  0  0  0  0  0
    4.0060  -21.5440  -40.8150 C   0  0  0  0  0  3  0  0  0  0  0  0
    3.4490  -21.8620  -42.0200 C   0  0  0  0  0  0  0  0  0  0  0  0
    3.0470  -20.4440  -42.9150 S   0  0  0  0  0  0  0  0  0  0  0  0
    3.6220  -19.4000  -41.6570 C   0  0  0  0  0  0  0  0  0  0  0  0
    3.5220  -17.9160  -41.8440 C   0  0  0  0  0  1  0  0  0  0  0  0
    3.1220  -23.1120  -42.7510 C   0  0  0  0  0  0  0  0  0  0  0  0
    4.0390  -23.6610  -43.7190 N   0  0  0  0  0  0  0  0  0  0  0  0
    3.7530  -24.9360  -44.3670 C   0  0  0  0  0  1  0  0  0  0  0  0
    2.0750  -23.6960  -42.4590 O   0  0  0  0  0  0  0  0  0  0  0  0
    5.2760  -22.9960  -44.1070 C   0  0  0  0  0  2  0  0  0  0  0  0
    6.3830  -23.9650  -44.3880 C   0  0  0  0  0  0  0  0  0  0  0  0
    7.0700  -24.7870  -43.5430 C   0  0  0  0  0  3  0  0  0  0  0  0
    8.0290  -25.3400  -44.2990 N   0  0  0  0  0  0  0  0  0  0  0  0
    7.9440  -24.9100  -45.5700 N   0  0  0  0  0  0  0  0  0  0  0  0
    6.9380  -24.0720  -45.6220 N   0  0  0  0  0  0  0  0  0  0  0  0
    9.0810  -26.2680  -43.8880 C   0  0  0  0  0  2  0  0  0  0  0  0
    9.4420  -26.0570  -42.4250 C   0  0  0  0  0  2  0  0  0  0  0  0
   10.6420  -26.8620  -42.0440 C   0  0  0  0  0  1  0  0  0  0  0  0
    2.1400  -19.1190  -38.3690 C   0  0  0  0  0  0  0  0  0  0  0  0
    1.3780  -17.9820  -38.5060 C   0  0  0  0  0  0  0  0  0  0  0  0
    1.7930  -16.5420  -38.5850 C   0  0  0  0  0  1  0  0  0  0  0  0
   -0.3120  -18.3760  -38.5930 S   0  0  0  0  0  0  0  0  0  0  0  0
    0.0070  -20.0660  -38.4520 C   0  0  0  0  0  0  0  0  0  0  0  0
    1.3500  -20.3100  -38.3400 C   0  0  0  0  0  3  0  0  0  0  0  0
   -1.2100  -20.9030  -38.5550 C   0  0  0  0  0  0  0  0  0  0  0  0
   -1.9900  -20.9070  -37.6050 O   0  0  0  0  0  0  0  0  0  0  0  0
   -1.4770  -21.6610  -39.7380 N   0  0  0  0  0  0  0  0  0  0  0  0
   -0.5710  -21.8230  -40.8690 C   0  0  0  0  0  1  0  0  0  0  0  0
   -2.7180  -22.4200  -39.7810 C   0  0  0  0  0  2  0  0  0  0  0  0
   -2.3660  -23.8110  -39.3520 C   0  0  0  0  0  0  0  0  0  0  0  0
   -2.5110  -24.2110  -38.0630 N   0  0  0  0  0  0  0  0  0  0  0  0
   -2.1610  -25.4680  -37.9630 N   0  0  0  0  0  0  0  0  0  0  0  0
   -1.8010  -25.8740  -39.1900 N   0  0  0  0  0  0  0  0  0  0  0  0
   -1.9270  -24.8760  -40.0790 C   0  0  0  0  0  3  0  0  0  0  0  0
   -1.3030  -27.2280  -39.4470 C   0  0  0  0  0  2  0  0  0  0  0  0
   -0.2000  -27.2450  -40.4780 C   0  0  0  0  0  1  0  0  0  0  0  0
  1  5  1  0  0  0  0
  1  2  2  0  0  0  0
  2  3  1  0  0  0  0
  4  3  1  0  0  0  0
  5  4  1  0  0  0  0
  6  1  1  0  0  0  0
  7  6  1  0  0  0  0
  8  7  2  0  0  0  0
  9  8  1  0  0  0  0
  9 10  1  0  0  0  0
 10  6  2  0  0  0  0
 11 10  1  0  0  0  0
 12 15  2  0  0  0  0
 12  8  1  0  0  0  0
 13 12  1  0  0  0  0
 14 13  1  0  0  0  0
 16 13  1  0  0  0  0
 17 16  1  0  0  0  0
 17 18  2  0  0  0  0
 19 22  1  0  0  0  0
 19 18  1  0  0  0  0
 20 19  1  0  0  0  0
 21 20  2  0  0  0  0
 21 17  1  0  0  0  0
 22 23  1  0  0  0  0
 23 24  1  0  0  0  0
 25 30  1  0  0  0  0
 25  2  1  0  0  0  0
 26 25  2  0  0  0  0
 27 26  1  0  0  0  0
 28 26  1  0  0  0  0
 28 29  1  0  0  0  0
 29 30  2  0  0  0  0
 31 29  1  0  0  0  0
 31 32  2  0  0  0  0
 33 31  1  0  0  0  0
 34 33  1  0  0  0  0
 35 33  1  0  0  0  0
 35 36  1  0  0  0  0
 36 37  1  0  0  0  0
 37 38  2  0  0  0  0
 39 38  1  0  0  0  0
 40 36  2  0  0  0  0
 40 39  1  0  0  0  0
 41 39  1  0  0  0  0
 42 41  1  0  0  0  0
M  END
>  <Pose>
6

>  <Score>
-5.521

$$$$
out/docking_results/vina_output/6y4q_docked_ligand.pdbqt
 OpenBabel03112211143D

 42 46  0  0  0  0  0  0  0  0999 V2000
   -0.6260  -16.6000  -39.1270 C   0  0  0  0  0  0  0  0  0  0  0  0
   -0.2680  -17.7380  -38.5080 C   0  0  0  0  0  0  0  0  0  0  0  0
   -1.4700  -18.5800  -38.1570 C   0  0  0  0  0  2  0  0  0  0  0  0
   -2.6560  -17.6680  -38.4630 C   0  0  0  0  0  2  0  0  0  0  0  0
   -2.1220  -16.5130  -39.3010 C   0  0  0  0  0  2  0  0  0  0  0  0
    0.2640  -15.5130  -39.5660 C   0  0  0  0  0  0  0  0  0  0  0  0
    0.5770  -14.4130  -38.7030 C   0  0  0  0  0  3  0  0  0  0  0  0
    1.5810  -13.6230  -39.1860 C   0  0  0  0  0  0  0  0  0  0  0  0
    2.1390  -14.1900  -40.7160 S   0  0  0  0  0  0  0  0  0  0  0  0
    1.0210  -15.5140  -40.7140 C   0  0  0  0  0  0  0  0  0  0  0  0
    1.0260  -16.4680  -41.8690 C   0  0  0  0  0  1  0  0  0  0  0  0
    2.2920  -12.4000  -38.7350 C   0  0  0  0  0  0  0  0  0  0  0  0
    1.5580  -11.2390  -38.2990 N   0  0  0  0  0  0  0  0  0  0  0  0
    2.2610  -10.0750  -37.7710 C   0  0  0  0  0  1  0  0  0  0  0  0
    3.5250  -12.4330  -38.6850 O   0  0  0  0  0  0  0  0  0  0  0  0
    0.1050  -11.1500  -38.3570 C   0  0  0  0  0  2  0  0  0  0  0  0
   -0.5310  -11.2580  -37.0050 C   0  0  0  0  0  0  0  0  0  0  0  0
   -1.5590  -10.5490  -36.4560 C   0  0  0  0  0  3  0  0  0  0  0  0
   -1.6340  -10.9710  -35.1870 N   0  0  0  0  0  0  0  0  0  0  0  0
   -0.7140  -11.9210  -34.9430 N   0  0  0  0  0  0  0  0  0  0  0  0
   -0.0430  -12.0950  -36.0550 N   0  0  0  0  0  0  0  0  0  0  0  0
   -2.5350  -10.5080  -34.1320 C   0  0  0  0  0  2  0  0  0  0  0  0
   -3.4880  -11.6180  -33.7140 C   0  0  0  0  0  2  0  0  0  0  0  0
   -3.5380  -11.7570  -32.2270 C   0  0  0  0  0  1  0  0  0  0  0  0
    1.0900  -18.1730  -38.1500 C   0  0  0  0  0  0  0  0  0  0  0  0
    1.8100  -17.7330  -37.0630 C   0  0  0  0  0  0  0  0  0  0  0  0
    1.4620  -16.7110  -36.0200 C   0  0  0  0  0  1  0  0  0  0  0  0
    3.3430  -18.5440  -36.9670 S   0  0  0  0  0  0  0  0  0  0  0  0
    3.0130  -19.4760  -38.3810 C   0  0  0  0  0  0  0  0  0  0  0  0
    1.7830  -19.1720  -38.9010 C   0  0  0  0  0  3  0  0  0  0  0  0
    4.0770  -20.4550  -38.6990 C   0  0  0  0  0  0  0  0  0  0  0  0
    4.2400  -21.4010  -37.9320 O   0  0  0  0  0  0  0  0  0  0  0  0
    4.8700  -20.3140  -39.8820 N   0  0  0  0  0  0  0  0  0  0  0  0
    4.8430  -19.1760  -40.7950 C   0  0  0  0  0  1  0  0  0  0  0  0
    5.8620  -21.3440  -40.1500 C   0  0  0  0  0  2  0  0  0  0  0  0
    5.3370  -22.1290  -41.3120 C   0  0  0  0  0  0  0  0  0  0  0  0
    4.0470  -22.5490  -41.3560 N   0  0  0  0  0  0  0  0  0  0  0  0
    3.8420  -23.1850  -42.4810 N   0  0  0  0  0  0  0  0  0  0  0  0
    4.9980  -23.1640  -43.1610 N   0  0  0  0  0  0  0  0  0  0  0  0
    5.9440  -22.5070  -42.4720 C   0  0  0  0  0  3  0  0  0  0  0  0
    5.1520  -23.8290  -44.4580 C   0  0  0  0  0  2  0  0  0  0  0  0
    4.2130  -25.0000  -44.6140 C   0  0  0  0  0  1  0  0  0  0  0  0
  1  2  2  0  0  0  0
  2  3  1  0  0  0  0
  2 25  1  0  0  0  0
  4  3  1  0  0  0  0
  5  1  1  0  0  0  0
  5  4  1  0  0  0  0
  6  1  1  0  0  0  0
  6  7  1  0  0  0  0
  8 12  1  0  0  0  0
  8  7  2  0  0  0  0
  9 10  1  0  0  0  0
  9  8  1  0  0  0  0
 10  6  2  0  0  0  0
 11 10  1  0  0  0  0
 12 15  2  0  0  0  0
 12 13  1  0  0  0  0
 13 14  1  0  0  0  0
 16 13  1  0  0  0  0
 16 17  1  0  0  0  0
 17 18  2  0  0  0  0
 17 21  1  0  0  0  0
 18 19  1  0  0  0  0
 19 20  1  0  0  0  0
 19 22  1  0  0  0  0
 21 20  2  0  0  0  0
 22 23  1  0  0  0  0
 23 24  1  0  0  0  0
 25 26  2  0  0  0  0
 26 28  1  0  0  0  0
 26 27  1  0  0  0  0
 29 28  1  0  0  0  0
 30 29  2  0  0  0  0
 30 25  1  0  0  0  0
 31 29  1  0  0  0  0
 31 32  2  0  0  0  0
 33 31  1  0  0  0  0
 34 33  1  0  0  0  0
 35 33  1  0  0  0  0
 36 35  1  0  0  0  0
 37 36  1  0  0  0  0
 38 37  2  0  0  0  0
 39 38  1  0  0  0  0
 39 40  1  0  0  0  0
 40 36  2  0  0  0  0
 41 39  1  0  0  0  0
 42 41  1  0  0  0  0
M  END
>  <Pose>
7

>  <Score>
-5.315

$$$$
out/docking_results/vina_output/6y4q_docked_ligand.pdbqt
 OpenBabel03112211143D

 42 46  0  0  0  0  0  0  0  0999 V2000
    2.9510  -18.6100  -37.8430 C   0  0  0  0  0  0  0  0  0  0  0  0
    3.4910  -18.8160  -39.0570 C   0  0  0  0  0  0  0  0  0  0  0  0
    4.8950  -19.3580  -38.9530 C   0  0  0  0  0  2  0  0  0  0  0  0
    5.2220  -19.2440  -37.4670 C   0  0  0  0  0  2  0  0  0  0  0  0
    3.9060  -18.9980  -36.7410 C   0  0  0  0  0  2  0  0  0  0  0  0
    1.6260  -18.0410  -37.5480 C   0  0  0  0  0  0  0  0  0  0  0  0
    1.4730  -16.6650  -37.1780 C   0  0  0  0  0  3  0  0  0  0  0  0
    0.1700  -16.2580  -37.1590 C   0  0  0  0  0  0  0  0  0  0  0  0
   -0.8940  -17.5540  -37.5610 S   0  0  0  0  0  0  0  0  0  0  0  0
    0.4210  -18.6630  -37.7700 C   0  0  0  0  0  0  0  0  0  0  0  0
    0.1210  -20.0750  -38.1740 C   0  0  0  0  0  1  0  0  0  0  0  0
   -0.5530  -14.9950  -36.8640 C   0  0  0  0  0  0  0  0  0  0  0  0
    0.1630  -13.8150  -36.4490 N   0  0  0  0  0  0  0  0  0  0  0  0
   -0.5420  -12.5540  -36.2500 C   0  0  0  0  0  1  0  0  0  0  0  0
   -1.7730  -14.9710  -37.0470 O   0  0  0  0  0  0  0  0  0  0  0  0
    1.6000  -13.8030  -36.2050 C   0  0  0  0  0  2  0  0  0  0  0  0
    2.3620  -13.1200  -37.2980 C   0  0  0  0  0  0  0  0  0  0  0  0
    3.1000  -11.9730  -37.2740 C   0  0  0  0  0  3  0  0  0  0  0  0
    3.4550  -11.7600  -38.5490 N   0  0  0  0  0  0  0  0  0  0  0  0
    2.9860  -12.7370  -39.3450 N   0  0  0  0  0  0  0  0  0  0  0  0
    2.3210  -13.5660  -38.5790 N   0  0  0  0  0  0  0  0  0  0  0  0
    4.2180  -10.6420  -39.1010 C   0  0  0  0  0  2  0  0  0  0  0  0
    5.0600  -11.0980  -40.2830 C   0  0  0  0  0  2  0  0  0  0  0  0
    6.3940  -10.4240  -40.2870 C   0  0  0  0  0  1  0  0  0  0  0  0
    2.8790  -18.5460  -40.3650 C   0  0  0  0  0  0  0  0  0  0  0  0
    2.3750  -19.4970  -41.2240 C   0  0  0  0  0  0  0  0  0  0  0  0
    2.3500  -20.9930  -41.1040 C   0  0  0  0  0  1  0  0  0  0  0  0
    1.6830  -18.7540  -42.6330 S   0  0  0  0  0  0  0  0  0  0  0  0
    2.0630  -17.1690  -42.0660 C   0  0  0  0  0  0  0  0  0  0  0  0
    2.6960  -17.2150  -40.8520 C   0  0  0  0  0  3  0  0  0  0  0  0
    1.5710  -16.0940  -42.9550 C   0  0  0  0  0  0  0  0  0  0  0  0
    2.3150  -15.6980  -43.8500 O   0  0  0  0  0  0  0  0  0  0  0  0
    0.2560  -15.5540  -42.7910 N   0  0  0  0  0  0  0  0  0  0  0  0
   -0.6610  -15.8620  -41.6980 C   0  0  0  0  0  1  0  0  0  0  0  0
   -0.1730  -14.5350  -43.7360 C   0  0  0  0  0  2  0  0  0  0  0  0
   -0.1720  -13.2430  -42.9780 C   0  0  0  0  0  0  0  0  0  0  0  0
   -1.3230  -12.5690  -42.7300 N   0  0  0  0  0  0  0  0  0  0  0  0
   -1.0500  -11.4960  -42.0340 N   0  0  0  0  0  0  0  0  0  0  0  0
    0.2770  -11.4880  -41.8290 N   0  0  0  0  0  0  0  0  0  0  0  0
    0.8520  -12.5620  -42.3900 C   0  0  0  0  0  3  0  0  0  0  0  0
    0.9490  -10.3960  -41.1180 C   0  0  0  0  0  2  0  0  0  0  0  0
    0.3990  -10.1980  -39.7260 C   0  0  0  0  0  1  0  0  0  0  0  0
  1  6  1  0  0  0  0
  1  5  1  0  0  0  0
  2  3  1  0  0  0  0
  2  1  2  0  0  0  0
  3  4  1  0  0  0  0
  4  5  1  0  0  0  0
  6  7  1  0  0  0  0
  7  8  2  0  0  0  0
  8 12  1  0  0  0  0
  9  8  1  0  0  0  0
 10  9  1  0  0  0  0
 10  6  2  0  0  0  0
 11 10  1  0  0  0  0
 12 13  1  0  0  0  0
 13 14  1  0  0  0  0
 13 16  1  0  0  0  0
 15 12  2  0  0  0  0
 17 18  2  0  0  0  0
 17 16  1  0  0  0  0
 19 18  1  0  0  0  0
 20 21  2  0  0  0  0
 20 19  1  0  0  0  0
 21 17  1  0  0  0  0
 22 19  1  0  0  0  0
 23 22  1  0  0  0  0
 24 23  1  0  0  0  0
 25  2  1  0  0  0  0
 26 27  1  0  0  0  0
 26 25  2  0  0  0  0
 28 29  1  0  0  0  0
 28 26  1  0  0  0  0
 29 30  2  0  0  0  0
 30 25  1  0  0  0  0
 31 33  1  0  0  0  0
 31 29  1  0  0  0  0
 32 31  2  0  0  0  0
 33 34  1  0  0  0  0
 35 36  1  0  0  0  0
 35 33  1  0  0  0  0
 36 37  1  0  0  0  0
 36 40  2  0  0  0  0
 37 38  2  0  0  0  0
 38 39  1  0  0  0  0
 39 41  1  0  0  0  0
 40 39  1  0  0  0  0
 41 42  1  0  0  0  0
M  END
>  <Pose>
8

>  <Score>
-5.263

$$$$
out/docking_results/vina_output/6y4q_docked_ligand.pdbqt
 OpenBabel03112211143D

 42 46  0  0  0  0  0  0  0  0999 V2000
    3.1950  -11.9780  -39.1070 C   0  0  0  0  0  0  0  0  0  0  0  0
    2.6100  -12.5500  -38.0410 C   0  0  0  0  0  0  0  0  0  0  0  0
    3.1320  -11.9740  -36.7480 C   0  0  0  0  0  2  0  0  0  0  0  0
    4.3060  -11.1020  -37.1830 C   0  0  0  0  0  2  0  0  0  0  0  0
    4.1870  -10.9200  -38.6910 C   0  0  0  0  0  2  0  0  0  0  0  0
    2.9830  -12.3180  -40.5230 C   0  0  0  0  0  0  0  0  0  0  0  0
    3.8560  -13.2230  -41.2110 C   0  0  0  0  0  3  0  0  0  0  0  0
    3.3850  -13.5920  -42.4380 C   0  0  0  0  0  0  0  0  0  0  0  0
    1.8850  -12.8180  -42.7890 S   0  0  0  0  0  0  0  0  0  0  0  0
    1.8740  -11.9900  -41.2670 C   0  0  0  0  0  0  0  0  0  0  0  0
    0.7190  -11.0950  -40.9370 C   0  0  0  0  0  1  0  0  0  0  0  0
    3.8470  -14.4720  -43.5420 C   0  0  0  0  0  0  0  0  0  0  0  0
    4.7270  -13.9690  -44.5670 N   0  0  0  0  0  0  0  0  0  0  0  0
    5.2500  -14.8610  -45.5950 C   0  0  0  0  0  1  0  0  0  0  0  0
    3.5060  -15.6570  -43.5170 O   0  0  0  0  0  0  0  0  0  0  0  0
    5.1400  -12.5730  -44.6440 C   0  0  0  0  0  2  0  0  0  0  0  0
    6.3730  -12.2950  -43.8390 C   0  0  0  0  0  0  0  0  0  0  0  0
    7.6180  -12.8460  -43.9160 C   0  0  0  0  0  3  0  0  0  0  0  0
    8.2950  -12.3210  -42.8860 N   0  0  0  0  0  0  0  0  0  0  0  0
    7.5270  -11.4580  -42.1980 N   0  0  0  0  0  0  0  0  0  0  0  0
    6.3550  -11.4430  -42.7840 N   0  0  0  0  0  0  0  0  0  0  0  0
    9.6680  -12.6020  -42.4690 C   0  0  0  0  0  2  0  0  0  0  0  0
    9.8840  -12.1910  -41.0200 C   0  0  0  0  0  2  0  0  0  0  0  0
   10.4460  -13.3190  -40.2170 C   0  0  0  0  0  1  0  0  0  0  0  0
    1.6070  -13.6250  -38.0410 C   0  0  0  0  0  0  0  0  0  0  0  0
    0.2510  -13.4530  -37.8810 C   0  0  0  0  0  0  0  0  0  0  0  0
   -0.5430  -12.2050  -37.6290 C   0  0  0  0  0  1  0  0  0  0  0  0
   -0.5840  -14.9700  -38.0090 S   0  0  0  0  0  0  0  0  0  0  0  0
    0.8850  -15.8320  -38.2830 C   0  0  0  0  0  0  0  0  0  0  0  0
    1.9650  -14.9890  -38.2710 C   0  0  0  0  0  3  0  0  0  0  0  0
    0.6800  -17.2750  -38.5450 C   0  0  0  0  0  0  0  0  0  0  0  0
   -0.1860  -17.5960  -39.3560 O   0  0  0  0  0  0  0  0  0  0  0  0
    1.4870  -18.2580  -37.8910 N   0  0  0  0  0  0  0  0  0  0  0  0
    2.4550  -17.9980  -36.8300 C   0  0  0  0  0  1  0  0  0  0  0  0
    1.2560  -19.6520  -38.2390 C   0  0  0  0  0  2  0  0  0  0  0  0
    2.4430  -20.0760  -39.0480 C   0  0  0  0  0  0  0  0  0  0  0  0
    2.5710  -19.7250  -40.3530 N   0  0  0  0  0  0  0  0  0  0  0  0
    3.7000  -20.1970  -40.8150 N   0  0  0  0  0  0  0  0  0  0  0  0
    4.2990  -20.8430  -39.8030 N   0  0  0  0  0  0  0  0  0  0  0  0
    3.5540  -20.7790  -38.6880 C   0  0  0  0  0  3  0  0  0  0  0  0
    5.5750  -21.5440  -39.9720 C   0  0  0  0  0  2  0  0  0  0  0  0
    6.2920  -21.7520  -38.6600 C   0  0  0  0  0  1  0  0  0  0  0  0
  1  5  1  0  0  0  0
  1  2  2  0  0  0  0
  2  3  1  0  0  0  0
  4  3  1  0  0  0  0
  5  4  1  0  0  0  0
  6  1  1  0  0  0  0
  7  6  1  0  0  0  0
  8  7  2  0  0  0  0
  9  8  1  0  0  0  0
  9 10  1  0  0  0  0
 10 11  1  0  0  0  0
 10  6  2  0  0  0  0
 12 15  2  0  0  0  0
 12  8  1  0  0  0  0
 13 12  1  0  0  0  0
 14 13  1  0  0  0  0
 16 13  1  0  0  0  0
 16 17  1  0  0  0  0
 17 21  1  0  0  0  0
 18 17  2  0  0  0  0
 18 19  1  0  0  0  0
 19 22  1  0  0  0  0
 19 20  1  0  0  0  0
 21 20  2  0  0  0  0
 22 23  1  0  0  0  0
 23 24  1  0  0  0  0
 25  2  1  0  0  0  0
 25 26  2  0  0  0  0
 26 27  1  0  0  0  0
 28 26  1  0  0  0  0
 29 30  2  0  0  0  0
 29 28  1  0  0  0  0
 30 25  1  0  0  0  0
 31 29  1  0  0  0  0
 31 33  1  0  0  0  0
 32 31  2  0  0  0  0
 33 34  1  0  0  0  0
 35 33  1  0  0  0  0
 36 40  2  0  0  0  0
 36 35  1  0  0  0  0
 37 36  1  0  0  0  0
 38 37  2  0  0  0  0
 38 39  1  0  0  0  0
 39 40  1  0  0  0  0
 41 39  1  0  0  0  0
 41 42  1  0  0  0  0
M  END
>  <Pose>
9

>  <Score>
-5.246

$$$$
out/docking_results/vina_output/6y4q_docked_ligand.pdbqt
 OpenBabel03112211143D

 42 46  0  0  0  0  0  0  0  0999 V2000
    2.5570  -18.8180  -38.0640 C   0  0  0  0  0  0  0  0  0  0  0  0
    3.1720  -19.4670  -39.0670 C   0  0  0  0  0  0  0  0  0  0  0  0
    4.5750  -19.8720  -38.6870 C   0  0  0  0  0  2  0  0  0  0  0  0
    4.8100  -19.1680  -37.3540 C   0  0  0  0  0  2  0  0  0  0  0  0
    3.4490  -18.7030  -36.8520 C   0  0  0  0  0  2  0  0  0  0  0  0
    1.2090  -18.2260  -38.0860 C   0  0  0  0  0  0  0  0  0  0  0  0
    0.0780  -18.9330  -37.5630 C   0  0  0  0  0  3  0  0  0  0  0  0
   -1.0390  -18.1540  -37.4620 C   0  0  0  0  0  0  0  0  0  0  0  0
   -0.7380  -16.5550  -38.0350 S   0  0  0  0  0  0  0  0  0  0  0  0
    0.9140  -16.9230  -38.4080 C   0  0  0  0  0  0  0  0  0  0  0  0
    1.7870  -15.8430  -38.9700 C   0  0  0  0  0  1  0  0  0  0  0  0
   -2.4390  -18.3440  -37.0050 C   0  0  0  0  0  0  0  0  0  0  0  0
   -3.3620  -19.1460  -37.7680 N   0  0  0  0  0  0  0  0  0  0  0  0
   -4.7070  -19.4030  -37.2670 C   0  0  0  0  0  1  0  0  0  0  0  0
   -2.7660  -17.8480  -35.9240 O   0  0  0  0  0  0  0  0  0  0  0  0
   -3.0240  -19.7350  -39.0570 C   0  0  0  0  0  2  0  0  0  0  0  0
   -3.0950  -21.2320  -39.0400 C   0  0  0  0  0  0  0  0  0  0  0  0
   -2.2060  -22.1500  -38.5650 C   0  0  0  0  0  3  0  0  0  0  0  0
   -2.7140  -23.3400  -38.9160 N   0  0  0  0  0  0  0  0  0  0  0  0
   -3.8820  -23.1890  -39.5640 N   0  0  0  0  0  0  0  0  0  0  0  0
   -4.1130  -21.9010  -39.6370 N   0  0  0  0  0  0  0  0  0  0  0  0
   -2.1410  -24.6670  -38.6970 C   0  0  0  0  0  2  0  0  0  0  0  0
   -3.2390  -25.7170  -38.6080 C   0  0  0  0  0  2  0  0  0  0  0  0
   -3.2620  -26.3600  -37.2590 C   0  0  0  0  0  1  0  0  0  0  0  0
    2.6360  -19.7600  -40.4040 C   0  0  0  0  0  0  0  0  0  0  0  0
    2.6450  -18.8970  -41.4760 C   0  0  0  0  0  0  0  0  0  0  0  0
    3.1290  -17.4790  -41.5740 C   0  0  0  0  0  1  0  0  0  0  0  0
    1.9740  -19.6550  -42.8870 S   0  0  0  0  0  0  0  0  0  0  0  0
    1.6890  -21.1310  -42.0390 C   0  0  0  0  0  0  0  0  0  0  0  0
    2.0880  -21.0380  -40.7330 C   0  0  0  0  0  3  0  0  0  0  0  0
    1.1470  -22.2070  -42.9000 C   0  0  0  0  0  0  0  0  0  0  0  0
    1.9290  -22.8100  -43.6310 O   0  0  0  0  0  0  0  0  0  0  0  0
   -0.2420  -22.5470  -42.8570 N   0  0  0  0  0  0  0  0  0  0  0  0
   -1.2740  -21.8250  -42.1210 C   0  0  0  0  0  1  0  0  0  0  0  0
   -0.6870  -23.6490  -43.6970 C   0  0  0  0  0  2  0  0  0  0  0  0
   -0.8210  -24.8320  -42.7880 C   0  0  0  0  0  0  0  0  0  0  0  0
   -2.0200  -25.4340  -42.5840 N   0  0  0  0  0  0  0  0  0  0  0  0
   -1.8570  -26.4500  -41.7750 N   0  0  0  0  0  0  0  0  0  0  0  0
   -0.5510  -26.5020  -41.4690 N   0  0  0  0  0  0  0  0  0  0  0  0
    0.1230  -25.5210  -42.0890 C   0  0  0  0  0  3  0  0  0  0  0  0
   -0.0090  -27.4960  -40.5390 C   0  0  0  0  0  2  0  0  0  0  0  0
   -1.0930  -28.3110  -39.8770 C   0  0  0  0  0  1  0  0  0  0  0  0
  1  5  1  0  0  0  0
  2  3  1  0  0  0  0
  2  1  2  0  0  0  0
  3  4  1  0  0  0  0
  4  5  1  0  0  0  0
  6  1  1  0  0  0  0
  6  7  1  0  0  0  0
  7  8  2  0  0  0  0
  8 12  1  0  0  0  0
  9  8  1  0  0  0  0
 10  6  2  0  0  0  0
 10  9  1  0  0  0  0
 11 10  1  0  0  0  0
 12 15  2  0  0  0  0
 13 14  1  0  0  0  0
 13 12  1  0  0  0  0
 16 17  1  0  0  0  0
 16 13  1  0  0  0  0
 17 18  2  0  0  0  0
 19 22  1  0  0  0  0
 19 18  1  0  0  0  0
 20 19  1  0  0  0  0
 21 20  2  0  0  0  0
 21 17  1  0  0  0  0
 22 23  1  0  0  0  0
 23 24  1  0  0  0  0
 25  2  1  0  0  0  0
 26 25  2  0  0  0  0
 27 26  1  0  0  0  0
 28 29  1  0  0  0  0
 28 26  1  0  0  0  0
 29 30  2  0  0  0  0
 30 25  1  0  0  0  0
 31 33  1  0  0  0  0
 31 29  1  0  0  0  0
 32 31  2  0  0  0  0
 33 34  1  0  0  0  0
 35 33  1  0  0  0  0
 35 36  1  0  0  0  0
 36 37  1  0  0  0  0
 36 40  2  0  0  0  0
 37 38  2  0  0  0  0
 38 39  1  0  0  0  0
 39 41  1  0  0  0  0
 40 39  1  0  0  0  0
 41 42  1  0  0  0  0
M  END
>  <Pose>
10

>  <Score>
-5.149

$$$$
