# created with PyMOL 2.5.2
@<TRIPOS>MOLECULE
out/docking_results/vina_output/6y4q_docked_ligand.pdbqt
42 46 1                 
SMALL
USER_CHARGES
@<TRIPOS>ATOM
1	   C	4.091	-19.412	-38.491	C.2	1	UNK0	0.000	
2	   C	4.889	-20.213	-39.218	C.2	1	UNK0	0.000	
3	   C	6.272	-20.305	-38.622	C.3	1	UNK0	0.000	
4	   C	6.267	-19.247	-37.522	C.3	1	UNK0	0.000	
5	   C	4.813	-18.858	-37.288	C.3	1	UNK0	0.000	
6	   C	2.699	-19.040	-38.792	C.2	1	UNK0	0.000	
7	   C	1.626	-19.393	-37.909	C.2	1	UNK0	0.000	
8	   C	0.448	-18.782	-38.227	C.2	1	UNK0	0.000	
9	   S	0.618	-17.791	-39.628	S.3	1	UNK0	0.000	
10	   C	2.297	-18.187	-39.792	C.2	1	UNK0	0.000	
11	   C	3.081	-17.572	-40.911	C.3	1	UNK0	0.000	
12	   C	-0.934	-18.772	-37.684	C.2	1	UNK0	0.000	
13	   N	-1.255	-18.017	-36.499	N.pl3	1	UNK0	0.000	
14	   C	-2.632	-17.939	-36.023	C.3	1	UNK0	0.000	
15	   O	-1.806	-19.377	-38.313	O.2	1	UNK0	0.000	
16	   C	-0.254	-17.304	-35.716	C.3	1	UNK0	0.000	
17	   C	0.079	-15.964	-36.297	C.2	1	UNK0	0.000	
18	   C	1.279	-15.450	-36.693	C.2	1	UNK0	0.000	
19	   N	1.021	-14.175	-37.016	N.pl3	1	UNK0	0.000	
20	   N	-0.284	-13.895	-36.855	N.2	1	UNK0	0.000	
21	   N	-0.857	-14.989	-36.418	N.2	1	UNK0	0.000	
22	   C	1.961	-13.147	-37.462	C.3	1	UNK0	0.000	
23	   C	2.414	-13.417	-38.890	C.3	1	UNK0	0.000	
24	   C	3.499	-12.475	-39.299	C.3	1	UNK0	0.000	
25	   C	4.552	-20.922	-40.460	C.2	1	UNK0	0.000	
26	   C	5.078	-20.651	-41.703	C.2	1	UNK0	0.000	
27	   C	6.049	-19.590	-42.133	C.3	1	UNK0	0.000	
28	   S	4.465	-21.761	-42.890	S.3	1	UNK0	0.000	
29	   C	3.509	-22.591	-41.717	C.2	1	UNK0	0.000	
30	   C	3.655	-22.035	-40.474	C.2	1	UNK0	0.000	
31	   C	2.794	-23.764	-42.267	C.2	1	UNK0	0.000	
32	   O	3.398	-24.833	-42.329	O.2	1	UNK0	0.000	
33	   N	1.430	-23.658	-42.687	N.pl3	1	UNK0	0.000	
34	   C	0.658	-22.423	-42.769	C.3	1	UNK0	0.000	
35	   C	0.782	-24.868	-43.170	C.3	1	UNK0	0.000	
36	   C	0.009	-25.412	-42.009	C.2	1	UNK0	0.000	
37	   N	0.508	-26.407	-41.232	N.2	1	UNK0	0.000	
38	   N	-0.348	-26.677	-40.280	N.2	1	UNK0	0.000	
39	   N	-1.391	-25.848	-40.442	N.pl3	1	UNK0	0.000	
40	   C	-1.199	-25.042	-41.498	C.2	1	UNK0	0.000	
41	   C	-2.571	-25.902	-39.575	C.3	1	UNK0	0.000	
42	   C	-2.247	-25.537	-38.146	C.3	1	UNK0	0.000	
@<TRIPOS>BOND
1 1 5 1
2 2 3 1
3 1 2 2
4 3 4 1
5 4 5 1
6 1 6 1
7 6 7 1
8 7 8 2
9 8 12 1
10 8 9 1
11 9 10 1
12 6 10 2
13 10 11 1
14 12 13 1
15 13 14 1
16 13 16 1
17 12 15 2
18 16 17 1
19 17 18 2
20 19 20 1
21 18 19 1
22 20 21 2
23 17 21 1
24 19 22 1
25 22 23 1
26 23 24 1
27 2 25 1
28 25 26 2
29 26 27 1
30 28 29 1
31 26 28 1
32 29 30 2
33 25 30 1
34 29 31 1
35 31 32 2
36 31 33 1
37 33 34 1
38 33 35 1
39 35 36 1
40 36 40 2
41 36 37 1
42 37 38 2
43 38 39 1
44 39 41 1
45 39 40 1
46 41 42 1
@<TRIPOS>SUBSTRUCTURE
1	UNK0	1	GROUP	1 ****	UNK
