MODEL 1
REMARK VINA RESULT:    -6.187      0.000      0.000
REMARK INTER + INTRA:         -13.534
REMARK INTER:                 -11.060
REMARK INTRA:                  -2.474
REMARK UNBOUND:                -3.369
REMARK  11 active torsions:
REMARK  status: ('A' for Active; 'I' for Inactive)
REMARK       I    between atoms: N_1  and  C_2 
REMARK    1  A    between atoms: N_1  and  C1_4 
REMARK    2  A    between atoms: C_2  and  C8_20 
REMARK    3  A    between atoms: C1_4  and  C2_8 
REMARK    4  A    between atoms: N1_5  and  C4_12 
REMARK    5  A    between atoms: C4_12  and  C5_14 
REMARK       I    between atoms: N4_13  and  C17_29 
REMARK    6  A    between atoms: N4_13  and  C18_30 
REMARK    7  A    between atoms: N5_15  and  C21_33 
REMARK    8  A    between atoms: C10_22  and  C11_23 
REMARK    9  A    between atoms: C12_24  and  C13_25 
REMARK   10  A    between atoms: C16_28  and  C17_29 
REMARK   11  A    between atoms: C18_30  and  C19_31 
ROOT
ATOM      1  C11 O9E D   1       4.091 -19.412 -38.491  0.00  0.00    -0.018 C 
ATOM      2  C12 O9E D   1       4.889 -20.213 -39.218  0.00  0.00    -0.018 C 
ATOM      3  C25 O9E D   1       6.272 -20.305 -38.622  0.00  0.00    -0.010 C 
ATOM      4  C26 O9E D   1       6.267 -19.247 -37.522  0.00  0.00     0.056 C 
ATOM      5  C27 O9E D   1       4.813 -18.858 -37.288  0.00  0.00    -0.010 C 
ENDROOT
BRANCH   1   6
ATOM      6  C10 O9E D   1       2.699 -19.040 -38.792  0.00  0.00    -0.011 A 
ATOM      7  C9  O9E D   1       1.626 -19.393 -37.909  0.00  0.00     0.038 A 
ATOM      8  C8  O9E D   1       0.448 -18.782 -38.227  0.00  0.00     0.074 A 
ATOM      9  S1  O9E D   1       0.618 -17.791 -39.628  0.00  0.00    -0.089 SA
ATOM     10  C28 O9E D   1       2.297 -18.187 -39.792  0.00  0.00    -0.009 A 
ATOM     11  C29 O9E D   1       3.081 -17.572 -40.911  0.00  0.00     0.057 C 
BRANCH   8  12
ATOM     12  C   O9E D   1      -0.934 -18.772 -37.684  0.00  0.00     0.260 C 
ATOM     13  N   O9E D   1      -1.255 -18.017 -36.499  0.00  0.00    -0.346 N 
ATOM     14  C7  O9E D   1      -2.632 -17.939 -36.023  0.00  0.00     0.153 C 
ATOM     15  O   O9E D   1      -1.806 -19.377 -38.313  0.00  0.00    -0.267 OA
BRANCH  13  16
ATOM     16  C1  O9E D   1      -0.254 -17.304 -35.716  0.00  0.00     0.188 C 
BRANCH  16  17
ATOM     17  C2  O9E D   1       0.079 -15.964 -36.297  0.00  0.00     0.093 A 
ATOM     18  C3  O9E D   1       1.279 -15.450 -36.693  0.00  0.00     0.144 A 
ATOM     19  N1  O9E D   1       1.021 -14.175 -37.016  0.00  0.00    -0.261 N 
ATOM     20  N2  O9E D   1      -0.284 -13.895 -36.855  0.00  0.00    -0.066 NA
ATOM     21  N3  O9E D   1      -0.857 -14.989 -36.418  0.00  0.00    -0.134 NA
BRANCH  19  22
ATOM     22  C4  O9E D   1       1.961 -13.147 -37.462  0.00  0.00     0.152 C 
BRANCH  22  23
ATOM     23  C5  O9E D   1       2.414 -13.417 -38.890  0.00  0.00     0.017 C 
ATOM     24  C6  O9E D   1       3.499 -12.475 -39.299  0.00  0.00     0.007 C 
ENDBRANCH  22  23
ENDBRANCH  19  22
ENDBRANCH  16  17
ENDBRANCH  13  16
ENDBRANCH   8  12
ENDBRANCH   1   6
BRANCH   2  25
ATOM     25  C13 O9E D   1       4.552 -20.922 -40.460  0.00  0.00    -0.011 A 
ATOM     26  C14 O9E D   1       5.078 -20.651 -41.703  0.00  0.00    -0.009 A 
ATOM     27  C15 O9E D   1       6.049 -19.590 -42.133  0.00  0.00     0.057 C 
ATOM     28  S   O9E D   1       4.465 -21.761 -42.890  0.00  0.00    -0.089 SA
ATOM     29  C16 O9E D   1       3.509 -22.591 -41.717  0.00  0.00     0.074 A 
ATOM     30  C24 O9E D   1       3.655 -22.035 -40.474  0.00  0.00     0.038 A 
BRANCH  29  31
ATOM     31  C17 O9E D   1       2.794 -23.764 -42.267  0.00  0.00     0.260 C 
ATOM     32  O1  O9E D   1       3.398 -24.833 -42.329  0.00  0.00    -0.267 OA
ATOM     33  N4  O9E D   1       1.430 -23.658 -42.687  0.00  0.00    -0.346 N 
ATOM     34  C23 O9E D   1       0.658 -22.423 -42.769  0.00  0.00     0.153 C 
BRANCH  33  35
ATOM     35  C18 O9E D   1       0.782 -24.868 -43.170  0.00  0.00     0.188 C 
BRANCH  35  36
ATOM     36  C19 O9E D   1       0.009 -25.412 -42.009  0.00  0.00     0.093 A 
ATOM     37  N7  O9E D   1       0.508 -26.407 -41.232  0.00  0.00    -0.134 NA
ATOM     38  N6  O9E D   1      -0.348 -26.677 -40.280  0.00  0.00    -0.066 NA
ATOM     39  N5  O9E D   1      -1.391 -25.848 -40.442  0.00  0.00    -0.261 N 
ATOM     40  C20 O9E D   1      -1.199 -25.042 -41.498  0.00  0.00     0.144 A 
BRANCH  39  41
ATOM     41  C21 O9E D   1      -2.571 -25.902 -39.575  0.00  0.00     0.147 C 
ATOM     42  C22 O9E D   1      -2.247 -25.537 -38.146  0.00  0.00     0.028 C 
ENDBRANCH  39  41
ENDBRANCH  35  36
ENDBRANCH  33  35
ENDBRANCH  29  31
ENDBRANCH   2  25
TORSDOF 11
ENDMDL
MODEL 2
REMARK VINA RESULT:    -5.919      3.468      7.475
REMARK INTER + INTRA:         -13.095
REMARK INTER:                  -9.996
REMARK INTRA:                  -3.098
REMARK UNBOUND:                -3.369
REMARK  11 active torsions:
REMARK  status: ('A' for Active; 'I' for Inactive)
REMARK       I    between atoms: N_1  and  C_2 
REMARK    1  A    between atoms: N_1  and  C1_4 
REMARK    2  A    between atoms: C_2  and  C8_20 
REMARK    3  A    between atoms: C1_4  and  C2_8 
REMARK    4  A    between atoms: N1_5  and  C4_12 
REMARK    5  A    between atoms: C4_12  and  C5_14 
REMARK       I    between atoms: N4_13  and  C17_29 
REMARK    6  A    between atoms: N4_13  and  C18_30 
REMARK    7  A    between atoms: N5_15  and  C21_33 
REMARK    8  A    between atoms: C10_22  and  C11_23 
REMARK    9  A    between atoms: C12_24  and  C13_25 
REMARK   10  A    between atoms: C16_28  and  C17_29 
REMARK   11  A    between atoms: C18_30  and  C19_31 
ROOT
ATOM      1  C11 O9E D   1       2.708 -12.809 -39.455  0.00  0.00    -0.018 C 
ATOM      2  C12 O9E D   1       2.375 -12.645 -38.163  0.00  0.00    -0.018 C 
ATOM      3  C25 O9E D   1       3.339 -11.725 -37.456  0.00  0.00    -0.010 C 
ATOM      4  C26 O9E D   1       4.460 -11.519 -38.471  0.00  0.00     0.056 C 
ATOM      5  C27 O9E D   1       3.937 -12.010 -39.815  0.00  0.00    -0.010 C 
ENDROOT
BRANCH   1   6
ATOM      6  C10 O9E D   1       2.038 -13.674 -40.440  0.00  0.00    -0.011 A 
ATOM      7  C9  O9E D   1       2.372 -15.062 -40.561  0.00  0.00     0.038 A 
ATOM      8  C8  O9E D   1       1.506 -15.753 -41.359  0.00  0.00     0.074 A 
ATOM      9  S1  O9E D   1       0.288 -14.716 -42.002  0.00  0.00    -0.089 SA
ATOM     10  C28 O9E D   1       0.934 -13.331 -41.185  0.00  0.00    -0.009 A 
ATOM     11  C29 O9E D   1       0.246 -12.010 -41.343  0.00  0.00     0.057 C 
BRANCH   8  12
ATOM     12  C   O9E D   1       1.365 -17.157 -41.821  0.00  0.00     0.260 C 
ATOM     13  N   O9E D   1       1.037 -18.209 -40.892  0.00  0.00    -0.346 N 
ATOM     14  C7  O9E D   1       0.810 -19.570 -41.367  0.00  0.00     0.153 C 
ATOM     15  O   O9E D   1       1.474 -17.382 -43.029  0.00  0.00    -0.267 OA
BRANCH  13  16
ATOM     16  C1  O9E D   1       0.915 -17.992 -39.457  0.00  0.00     0.188 C 
BRANCH  16  17
ATOM     17  C2  O9E D   1       2.185 -18.295 -38.722  0.00  0.00     0.093 A 
ATOM     18  C3  O9E D   1       3.390 -18.733 -39.188  0.00  0.00     0.144 A 
ATOM     19  N1  O9E D   1       4.128 -18.955 -38.092  0.00  0.00    -0.261 N 
ATOM     20  N2  O9E D   1       3.435 -18.653 -36.980  0.00  0.00    -0.066 NA
ATOM     21  N3  O9E D   1       2.251 -18.249 -37.367  0.00  0.00    -0.134 NA
BRANCH  19  22
ATOM     22  C4  O9E D   1       5.491 -19.478 -38.010  0.00  0.00     0.152 C 
BRANCH  22  23
ATOM     23  C5  O9E D   1       5.778 -20.413 -39.175  0.00  0.00     0.017 C 
ATOM     24  C6  O9E D   1       6.257 -21.744 -38.694  0.00  0.00     0.007 C 
ENDBRANCH  22  23
ENDBRANCH  19  22
ENDBRANCH  16  17
ENDBRANCH  13  16
ENDBRANCH   8  12
ENDBRANCH   1   6
BRANCH   2  25
ATOM     25  C13 O9E D   1       1.255 -13.267 -37.443  0.00  0.00    -0.011 A 
ATOM     26  C14 O9E D   1       0.103 -12.625 -37.049  0.00  0.00    -0.009 A 
ATOM     27  C15 O9E D   1      -0.300 -11.186 -37.189  0.00  0.00     0.057 C 
ATOM     28  S   O9E D   1      -0.993 -13.735 -36.284  0.00  0.00    -0.089 SA
ATOM     29  C16 O9E D   1       0.093 -15.059 -36.499  0.00  0.00     0.074 A 
ATOM     30  C24 O9E D   1       1.244 -14.660 -37.126  0.00  0.00     0.038 A 
BRANCH  29  31
ATOM     31  C17 O9E D   1      -0.460 -16.352 -36.036  0.00  0.00     0.260 C 
ATOM     32  O1  O9E D   1       0.075 -16.897 -35.074  0.00  0.00    -0.267 OA
ATOM     33  N4  O9E D   1      -1.600 -16.931 -36.679  0.00  0.00    -0.346 N 
ATOM     34  C23 O9E D   1      -2.237 -16.434 -37.894  0.00  0.00     0.153 C 
BRANCH  33  35
ATOM     35  C18 O9E D   1      -2.113 -18.178 -36.134  0.00  0.00     0.188 C 
BRANCH  35  36
ATOM     36  C19 O9E D   1      -1.909 -19.209 -37.201  0.00  0.00     0.093 A 
ATOM     37  N7  O9E D   1      -0.789 -19.975 -37.239  0.00  0.00    -0.134 NA
ATOM     38  N6  O9E D   1      -0.872 -20.805 -38.246  0.00  0.00    -0.066 NA
ATOM     39  N5  O9E D   1      -2.049 -20.577 -38.848  0.00  0.00    -0.261 N 
ATOM     40  C20 O9E D   1      -2.724 -19.602 -38.219  0.00  0.00     0.144 A 
BRANCH  39  41
ATOM     41  C21 O9E D   1      -2.461 -21.302 -40.053  0.00  0.00     0.147 C 
ATOM     42  C22 O9E D   1      -1.714 -22.602 -40.222  0.00  0.00     0.028 C 
ENDBRANCH  39  41
ENDBRANCH  35  36
ENDBRANCH  33  35
ENDBRANCH  29  31
ENDBRANCH   2  25
TORSDOF 11
ENDMDL
MODEL 3
REMARK VINA RESULT:    -5.729      3.746      6.585
REMARK INTER + INTRA:         -12.782
REMARK INTER:                  -9.772
REMARK INTRA:                  -3.010
REMARK UNBOUND:                -3.369
REMARK  11 active torsions:
REMARK  status: ('A' for Active; 'I' for Inactive)
REMARK       I    between atoms: N_1  and  C_2 
REMARK    1  A    between atoms: N_1  and  C1_4 
REMARK    2  A    between atoms: C_2  and  C8_20 
REMARK    3  A    between atoms: C1_4  and  C2_8 
REMARK    4  A    between atoms: N1_5  and  C4_12 
REMARK    5  A    between atoms: C4_12  and  C5_14 
REMARK       I    between atoms: N4_13  and  C17_29 
REMARK    6  A    between atoms: N4_13  and  C18_30 
REMARK    7  A    between atoms: N5_15  and  C21_33 
REMARK    8  A    between atoms: C10_22  and  C11_23 
REMARK    9  A    between atoms: C12_24  and  C13_25 
REMARK   10  A    between atoms: C16_28  and  C17_29 
REMARK   11  A    between atoms: C18_30  and  C19_31 
ROOT
ATOM      1  C11 O9E D   1       0.930 -14.980 -38.276  0.00  0.00    -0.018 C 
ATOM      2  C12 O9E D   1       1.026 -16.003 -37.409  0.00  0.00    -0.018 C 
ATOM      3  C25 O9E D   1       0.844 -15.540 -35.985  0.00  0.00    -0.010 C 
ATOM      4  C26 O9E D   1       0.839 -14.018 -36.093  0.00  0.00     0.056 C 
ATOM      5  C27 O9E D   1       0.652 -13.678 -37.566  0.00  0.00    -0.010 C 
ENDROOT
BRANCH   1   6
ATOM      6  C10 O9E D   1       1.107 -15.037 -39.736  0.00  0.00    -0.011 A 
ATOM      7  C9  O9E D   1       2.412 -15.102 -40.326  0.00  0.00     0.038 A 
ATOM      8  C8  O9E D   1       2.381 -15.371 -41.664  0.00  0.00     0.074 A 
ATOM      9  S1  O9E D   1       0.760 -15.518 -42.233  0.00  0.00    -0.089 SA
ATOM     10  C28 O9E D   1       0.104 -15.226 -40.656  0.00  0.00    -0.009 A 
ATOM     11  C29 O9E D   1      -1.384 -15.243 -40.476  0.00  0.00     0.057 C 
BRANCH   8  12
ATOM     12  C   O9E D   1       3.385 -15.550 -42.743  0.00  0.00     0.260 C 
ATOM     13  N   O9E D   1       3.929 -14.411 -43.440  0.00  0.00    -0.346 N 
ATOM     14  C7  O9E D   1       4.981 -14.587 -44.435  0.00  0.00     0.153 C 
ATOM     15  O   O9E D   1       3.783 -16.694 -42.980  0.00  0.00    -0.267 OA
BRANCH  13  16
ATOM     16  C1  O9E D   1       3.477 -13.046 -43.205  0.00  0.00     0.188 C 
BRANCH  16  17
ATOM     17  C2  O9E D   1       4.265 -12.356 -42.135  0.00  0.00     0.093 A 
ATOM     18  C3  O9E D   1       3.920 -12.038 -40.854  0.00  0.00     0.144 A 
ATOM     19  N1  O9E D   1       4.951 -11.323 -40.383  0.00  0.00    -0.261 N 
ATOM     20  N2  O9E D   1       5.918 -11.210 -41.311  0.00  0.00    -0.066 NA
ATOM     21  N3  O9E D   1       5.497 -11.843 -42.378  0.00  0.00    -0.134 NA
BRANCH  19  22
ATOM     22  C4  O9E D   1       5.089 -10.690 -39.073  0.00  0.00     0.152 C 
BRANCH  22  23
ATOM     23  C5  O9E D   1       3.793 -10.803 -38.283  0.00  0.00     0.017 C 
ATOM     24  C6  O9E D   1       4.018 -11.487 -36.973  0.00  0.00     0.007 C 
ENDBRANCH  22  23
ENDBRANCH  19  22
ENDBRANCH  16  17
ENDBRANCH  13  16
ENDBRANCH   8  12
ENDBRANCH   1   6
BRANCH   2  25
ATOM     25  C13 O9E D   1       1.303 -17.413 -37.717  0.00  0.00    -0.011 A 
ATOM     26  C14 O9E D   1       0.362 -18.355 -38.066  0.00  0.00    -0.009 A 
ATOM     27  C15 O9E D   1      -1.130 -18.237 -38.179  0.00  0.00     0.057 C 
ATOM     28  S   O9E D   1       1.114 -19.882 -38.410  0.00  0.00    -0.089 SA
ATOM     29  C16 O9E D   1       2.690 -19.254 -38.092  0.00  0.00     0.074 A 
ATOM     30  C24 O9E D   1       2.634 -17.933 -37.734  0.00  0.00     0.038 A 
BRANCH  29  31
ATOM     31  C17 O9E D   1       3.773 -20.233 -38.338  0.00  0.00     0.260 C 
ATOM     32  O1  O9E D   1       3.923 -21.143 -37.526  0.00  0.00    -0.267 OA
ATOM     33  N4  O9E D   1       4.598 -20.132 -39.502  0.00  0.00    -0.346 N 
ATOM     34  C23 O9E D   1       4.586 -19.034 -40.463  0.00  0.00     0.153 C 
BRANCH  33  35
ATOM     35  C18 O9E D   1       5.608 -21.161 -39.698  0.00  0.00     0.188 C 
BRANCH  35  36
ATOM     36  C19 O9E D   1       5.194 -21.918 -40.922  0.00  0.00     0.093 A 
ATOM     37  N7  O9E D   1       6.041 -22.088 -41.968  0.00  0.00    -0.134 NA
ATOM     38  N6  O9E D   1       5.447 -22.801 -42.890  0.00  0.00    -0.066 NA
ATOM     39  N5  O9E D   1       4.221 -23.095 -42.429  0.00  0.00    -0.261 N 
ATOM     40  C20 O9E D   1       4.034 -22.573 -41.207  0.00  0.00     0.144 A 
BRANCH  39  41
ATOM     41  C21 O9E D   1       3.250 -23.850 -43.226  0.00  0.00     0.147 C 
ATOM     42  C22 O9E D   1       2.368 -24.727 -42.371  0.00  0.00     0.028 C 
ENDBRANCH  39  41
ENDBRANCH  35  36
ENDBRANCH  33  35
ENDBRANCH  29  31
ENDBRANCH   2  25
TORSDOF 11
ENDMDL
MODEL 4
REMARK VINA RESULT:    -5.633      3.626      6.479
REMARK INTER + INTRA:         -12.625
REMARK INTER:                  -8.894
REMARK INTRA:                  -3.731
REMARK UNBOUND:                -3.369
REMARK  11 active torsions:
REMARK  status: ('A' for Active; 'I' for Inactive)
REMARK       I    between atoms: N_1  and  C_2 
REMARK    1  A    between atoms: N_1  and  C1_4 
REMARK    2  A    between atoms: C_2  and  C8_20 
REMARK    3  A    between atoms: C1_4  and  C2_8 
REMARK    4  A    between atoms: N1_5  and  C4_12 
REMARK    5  A    between atoms: C4_12  and  C5_14 
REMARK       I    between atoms: N4_13  and  C17_29 
REMARK    6  A    between atoms: N4_13  and  C18_30 
REMARK    7  A    between atoms: N5_15  and  C21_33 
REMARK    8  A    between atoms: C10_22  and  C11_23 
REMARK    9  A    between atoms: C12_24  and  C13_25 
REMARK   10  A    between atoms: C16_28  and  C17_29 
REMARK   11  A    between atoms: C18_30  and  C19_31 
ROOT
ATOM      1  C11 O9E D   1       1.736 -13.453 -37.961  0.00  0.00    -0.018 C 
ATOM      2  C12 O9E D   1       2.448 -13.212 -39.074  0.00  0.00    -0.018 C 
ATOM      3  C25 O9E D   1       3.590 -12.263 -38.806  0.00  0.00    -0.010 C 
ATOM      4  C26 O9E D   1       3.335 -11.777 -37.382  0.00  0.00     0.056 C 
ATOM      5  C27 O9E D   1       2.301 -12.716 -36.772  0.00  0.00    -0.010 C 
ENDROOT
BRANCH   1   6
ATOM      6  C10 O9E D   1       0.523 -14.280 -37.847  0.00  0.00    -0.011 A 
ATOM      7  C9  O9E D   1       0.598 -15.668 -37.497  0.00  0.00     0.038 A 
ATOM      8  C8  O9E D   1      -0.622 -16.217 -37.222  0.00  0.00     0.074 A 
ATOM      9  S1  O9E D   1      -1.885 -15.059 -37.416  0.00  0.00    -0.089 SA
ATOM     10  C28 O9E D   1      -0.769 -13.810 -37.863  0.00  0.00    -0.009 A 
ATOM     11  C29 O9E D   1      -1.297 -12.441 -38.166  0.00  0.00     0.057 C 
BRANCH   8  12
ATOM     12  C   O9E D   1      -1.127 -17.553 -36.819  0.00  0.00     0.260 C 
ATOM     13  N   O9E D   1      -0.942 -18.700 -37.673  0.00  0.00    -0.346 N 
ATOM     14  C7  O9E D   1      -1.360 -20.026 -37.231  0.00  0.00     0.153 C 
ATOM     15  O   O9E D   1      -1.652 -17.662 -35.708  0.00  0.00    -0.267 OA
BRANCH  13  16
ATOM     16  C1  O9E D   1      -0.343 -18.615 -38.999  0.00  0.00     0.188 C 
BRANCH  16  17
ATOM     17  C2  O9E D   1       1.114 -18.961 -38.994  0.00  0.00     0.093 A 
ATOM     18  C3  O9E D   1       1.796 -19.890 -38.264  0.00  0.00     0.144 A 
ATOM     19  N1  O9E D   1       3.087 -19.690 -38.565  0.00  0.00    -0.261 N 
ATOM     20  N2  O9E D   1       3.220 -18.696 -39.461  0.00  0.00    -0.066 NA
ATOM     21  N3  O9E D   1       2.015 -18.255 -39.723  0.00  0.00    -0.134 NA
BRANCH  19  22
ATOM     22  C4  O9E D   1       4.258 -20.381 -38.028  0.00  0.00     0.152 C 
BRANCH  22  23
ATOM     23  C5  O9E D   1       5.519 -19.563 -38.265  0.00  0.00     0.017 C 
ATOM     24  C6  O9E D   1       6.745 -20.397 -38.078  0.00  0.00     0.007 C 
ENDBRANCH  22  23
ENDBRANCH  19  22
ENDBRANCH  16  17
ENDBRANCH  13  16
ENDBRANCH   8  12
ENDBRANCH   1   6
BRANCH   2  25
ATOM     25  C13 O9E D   1       2.201 -13.735 -40.425  0.00  0.00    -0.011 A 
ATOM     26  C14 O9E D   1       1.698 -13.012 -41.483  0.00  0.00    -0.009 A 
ATOM     27  C15 O9E D   1       1.239 -11.584 -41.548  0.00  0.00     0.057 C 
ATOM     28  S   O9E D   1       1.621 -13.987 -42.918  0.00  0.00    -0.089 SA
ATOM     29  C16 O9E D   1       2.270 -15.360 -42.100  0.00  0.00     0.074 A 
ATOM     30  C24 O9E D   1       2.527 -15.079 -40.785  0.00  0.00     0.038 A 
BRANCH  29  31
ATOM     31  C17 O9E D   1       2.483 -16.526 -42.988  0.00  0.00     0.260 C 
ATOM     32  O1  O9E D   1       3.573 -16.634 -43.546  0.00  0.00    -0.267 OA
ATOM     33  N4  O9E D   1       1.457 -17.507 -43.165  0.00  0.00    -0.346 N 
ATOM     34  C23 O9E D   1       0.095 -17.418 -42.651  0.00  0.00     0.153 C 
BRANCH  33  35
ATOM     35  C18 O9E D   1       1.762 -18.648 -44.015  0.00  0.00     0.188 C 
BRANCH  35  36
ATOM     36  C19 O9E D   1       2.187 -19.747 -43.091  0.00  0.00     0.093 A 
ATOM     37  N7  O9E D   1       1.276 -20.510 -42.435  0.00  0.00    -0.134 NA
ATOM     38  N6  O9E D   1       1.905 -21.408 -41.720  0.00  0.00    -0.066 NA
ATOM     39  N5  O9E D   1       3.218 -21.225 -41.926  0.00  0.00    -0.261 N 
ATOM     40  C20 O9E D   1       3.430 -20.211 -42.780  0.00  0.00     0.144 A 
BRANCH  39  41
ATOM     41  C21 O9E D   1       4.234 -22.030 -41.242  0.00  0.00     0.147 C 
ATOM     42  C22 O9E D   1       5.637 -21.629 -41.630  0.00  0.00     0.028 C 
ENDBRANCH  39  41
ENDBRANCH  35  36
ENDBRANCH  33  35
ENDBRANCH  29  31
ENDBRANCH   2  25
TORSDOF 11
ENDMDL
MODEL 5
REMARK VINA RESULT:    -5.595      5.113      9.196
REMARK INTER + INTRA:         -12.561
REMARK INTER:                  -9.420
REMARK INTRA:                  -3.141
REMARK UNBOUND:                -3.369
REMARK  11 active torsions:
REMARK  status: ('A' for Active; 'I' for Inactive)
REMARK       I    between atoms: N_1  and  C_2 
REMARK    1  A    between atoms: N_1  and  C1_4 
REMARK    2  A    between atoms: C_2  and  C8_20 
REMARK    3  A    between atoms: C1_4  and  C2_8 
REMARK    4  A    between atoms: N1_5  and  C4_12 
REMARK    5  A    between atoms: C4_12  and  C5_14 
REMARK       I    between atoms: N4_13  and  C17_29 
REMARK    6  A    between atoms: N4_13  and  C18_30 
REMARK    7  A    between atoms: N5_15  and  C21_33 
REMARK    8  A    between atoms: C10_22  and  C11_23 
REMARK    9  A    between atoms: C12_24  and  C13_25 
REMARK   10  A    between atoms: C16_28  and  C17_29 
REMARK   11  A    between atoms: C18_30  and  C19_31 
ROOT
ATOM      1  C11 O9E D   1       2.750 -18.466 -39.348  0.00  0.00    -0.018 C 
ATOM      2  C12 O9E D   1       2.402 -18.145 -38.090  0.00  0.00    -0.018 C 
ATOM      3  C25 O9E D   1       3.174 -18.955 -37.078  0.00  0.00    -0.010 C 
ATOM      4  C26 O9E D   1       3.903 -19.996 -37.923  0.00  0.00     0.056 C 
ATOM      5  C27 O9E D   1       3.821 -19.529 -39.370  0.00  0.00    -0.010 C 
ENDROOT
BRANCH   1   6
ATOM      6  C10 O9E D   1       2.175 -17.928 -40.592  0.00  0.00    -0.011 A 
ATOM      7  C9  O9E D   1       2.716 -16.757 -41.217  0.00  0.00     0.038 A 
ATOM      8  C8  O9E D   1       2.207 -16.534 -42.464  0.00  0.00     0.074 A 
ATOM      9  S1  O9E D   1       1.036 -17.728 -42.883  0.00  0.00    -0.089 SA
ATOM     10  C28 O9E D   1       1.231 -18.553 -41.371  0.00  0.00    -0.009 A 
ATOM     11  C29 O9E D   1       0.429 -19.792 -41.113  0.00  0.00     0.057 C 
BRANCH   8  12
ATOM     12  C   O9E D   1       2.396 -15.518 -43.531  0.00  0.00     0.260 C 
ATOM     13  N   O9E D   1       1.738 -14.238 -43.455  0.00  0.00    -0.346 N 
ATOM     14  C7  O9E D   1       2.000 -13.212 -44.459  0.00  0.00     0.153 C 
ATOM     15  O   O9E D   1       3.180 -15.781 -44.447  0.00  0.00    -0.267 OA
BRANCH  13  16
ATOM     16  C1  O9E D   1       0.792 -13.892 -42.402  0.00  0.00     0.188 C 
BRANCH  16  17
ATOM     17  C2  O9E D   1       1.416 -13.064 -41.321  0.00  0.00     0.093 A 
ATOM     18  C3  O9E D   1       2.259 -13.425 -40.311  0.00  0.00     0.144 A 
ATOM     19  N1  O9E D   1       2.404 -12.320 -39.567  0.00  0.00    -0.261 N 
ATOM     20  N2  O9E D   1       1.705 -11.297 -40.089  0.00  0.00    -0.066 NA
ATOM     21  N3  O9E D   1       1.105 -11.753 -41.160  0.00  0.00    -0.134 NA
BRANCH  19  22
ATOM     22  C4  O9E D   1       3.168 -12.156 -38.331  0.00  0.00     0.152 C 
BRANCH  22  23
ATOM     23  C5  O9E D   1       4.106 -10.962 -38.434  0.00  0.00     0.017 C 
ATOM     24  C6  O9E D   1       4.265 -10.285 -37.111  0.00  0.00     0.007 C 
ENDBRANCH  22  23
ENDBRANCH  19  22
ENDBRANCH  16  17
ENDBRANCH  13  16
ENDBRANCH   8  12
ENDBRANCH   1   6
BRANCH   2  25
ATOM     25  C13 O9E D   1       1.389 -17.168 -37.664  0.00  0.00    -0.011 A 
ATOM     26  C14 O9E D   1       0.083 -17.460 -37.342  0.00  0.00    -0.009 A 
ATOM     27  C15 O9E D   1      -0.654 -18.767 -37.376  0.00  0.00     0.057 C 
ATOM     28  S   O9E D   1      -0.761 -16.031 -36.828  0.00  0.00    -0.089 SA
ATOM     29  C16 O9E D   1       0.641 -15.047 -37.039  0.00  0.00     0.074 A 
ATOM     30  C24 O9E D   1       1.703 -15.785 -37.488  0.00  0.00     0.038 A 
BRANCH  29  31
ATOM     31  C17 O9E D   1       0.436 -13.639 -36.628  0.00  0.00     0.260 C 
ATOM     32  O1  O9E D   1       0.981 -13.254 -35.596  0.00  0.00    -0.267 OA
ATOM     33  N4  O9E D   1      -0.351 -12.751 -37.428  0.00  0.00    -0.346 N 
ATOM     34  C23 O9E D   1      -1.134 -13.128 -38.599  0.00  0.00     0.153 C 
BRANCH  33  35
ATOM     35  C18 O9E D   1      -0.463 -11.371 -36.982  0.00  0.00     0.188 C 
BRANCH  35  36
ATOM     36  C19 O9E D   1      -1.435 -11.384 -35.843  0.00  0.00     0.093 A 
ATOM     37  N7  O9E D   1      -1.146 -10.782 -34.661  0.00  0.00    -0.134 NA
ATOM     38  N6  O9E D   1      -2.165 -10.915 -33.852  0.00  0.00    -0.066 NA
ATOM     39  N5  O9E D   1      -3.110 -11.595 -34.519  0.00  0.00    -0.261 N 
ATOM     40  C20 O9E D   1      -2.696 -11.892 -35.761  0.00  0.00     0.144 A 
BRANCH  39  41
ATOM     41  C21 O9E D   1      -4.384 -11.971 -33.900  0.00  0.00     0.147 C 
ATOM     42  C22 O9E D   1      -4.301 -11.995 -32.393  0.00  0.00     0.028 C 
ENDBRANCH  39  41
ENDBRANCH  35  36
ENDBRANCH  33  35
ENDBRANCH  29  31
ENDBRANCH   2  25
TORSDOF 11
ENDMDL
MODEL 6
REMARK VINA RESULT:    -5.521      3.357      8.225
REMARK INTER + INTRA:         -12.440
REMARK INTER:                 -10.209
REMARK INTRA:                  -2.230
REMARK UNBOUND:                -3.369
REMARK  11 active torsions:
REMARK  status: ('A' for Active; 'I' for Inactive)
REMARK       I    between atoms: N_1  and  C_2 
REMARK    1  A    between atoms: N_1  and  C1_4 
REMARK    2  A    between atoms: C_2  and  C8_20 
REMARK    3  A    between atoms: C1_4  and  C2_8 
REMARK    4  A    between atoms: N1_5  and  C4_12 
REMARK    5  A    between atoms: C4_12  and  C5_14 
REMARK       I    between atoms: N4_13  and  C17_29 
REMARK    6  A    between atoms: N4_13  and  C18_30 
REMARK    7  A    between atoms: N5_15  and  C21_33 
REMARK    8  A    between atoms: C10_22  and  C11_23 
REMARK    9  A    between atoms: C12_24  and  C13_25 
REMARK   10  A    between atoms: C16_28  and  C17_29 
REMARK   11  A    between atoms: C18_30  and  C19_31 
ROOT
ATOM      1  C11 O9E D   1       4.451 -19.586 -39.271  0.00  0.00    -0.018 C 
ATOM      2  C12 O9E D   1       3.608 -19.162 -38.314  0.00  0.00    -0.018 C 
ATOM      3  C25 O9E D   1       4.351 -18.732 -37.073  0.00  0.00    -0.010 C 
ATOM      4  C26 O9E D   1       5.789 -19.169 -37.338  0.00  0.00     0.056 C 
ATOM      5  C27 O9E D   1       5.889 -19.488 -38.825  0.00  0.00    -0.010 C 
ENDROOT
BRANCH   1   6
ATOM      6  C10 O9E D   1       4.090 -20.131 -40.591  0.00  0.00    -0.011 A 
ATOM      7  C9  O9E D   1       4.006 -21.544 -40.815  0.00  0.00     0.038 A 
ATOM      8  C8  O9E D   1       3.449 -21.862 -42.020  0.00  0.00     0.074 A 
ATOM      9  S1  O9E D   1       3.047 -20.444 -42.915  0.00  0.00    -0.089 SA
ATOM     10  C28 O9E D   1       3.622 -19.400 -41.657  0.00  0.00    -0.009 A 
ATOM     11  C29 O9E D   1       3.522 -17.916 -41.844  0.00  0.00     0.057 C 
BRANCH   8  12
ATOM     12  C   O9E D   1       3.122 -23.112 -42.751  0.00  0.00     0.260 C 
ATOM     13  N   O9E D   1       4.039 -23.661 -43.719  0.00  0.00    -0.346 N 
ATOM     14  C7  O9E D   1       3.753 -24.936 -44.367  0.00  0.00     0.153 C 
ATOM     15  O   O9E D   1       2.075 -23.696 -42.459  0.00  0.00    -0.267 OA
BRANCH  13  16
ATOM     16  C1  O9E D   1       5.276 -22.996 -44.107  0.00  0.00     0.188 C 
BRANCH  16  17
ATOM     17  C2  O9E D   1       6.383 -23.965 -44.388  0.00  0.00     0.093 A 
ATOM     18  C3  O9E D   1       7.070 -24.787 -43.543  0.00  0.00     0.144 A 
ATOM     19  N1  O9E D   1       8.029 -25.340 -44.299  0.00  0.00    -0.261 N 
ATOM     20  N2  O9E D   1       7.944 -24.910 -45.570  0.00  0.00    -0.066 NA
ATOM     21  N3  O9E D   1       6.938 -24.072 -45.622  0.00  0.00    -0.134 NA
BRANCH  19  22
ATOM     22  C4  O9E D   1       9.081 -26.268 -43.888  0.00  0.00     0.152 C 
BRANCH  22  23
ATOM     23  C5  O9E D   1       9.442 -26.057 -42.425  0.00  0.00     0.017 C 
ATOM     24  C6  O9E D   1      10.642 -26.862 -42.044  0.00  0.00     0.007 C 
ENDBRANCH  22  23
ENDBRANCH  19  22
ENDBRANCH  16  17
ENDBRANCH  13  16
ENDBRANCH   8  12
ENDBRANCH   1   6
BRANCH   2  25
ATOM     25  C13 O9E D   1       2.140 -19.119 -38.369  0.00  0.00    -0.011 A 
ATOM     26  C14 O9E D   1       1.378 -17.982 -38.506  0.00  0.00    -0.009 A 
ATOM     27  C15 O9E D   1       1.793 -16.542 -38.585  0.00  0.00     0.057 C 
ATOM     28  S   O9E D   1      -0.312 -18.376 -38.593  0.00  0.00    -0.089 SA
ATOM     29  C16 O9E D   1       0.007 -20.066 -38.452  0.00  0.00     0.074 A 
ATOM     30  C24 O9E D   1       1.350 -20.310 -38.340  0.00  0.00     0.038 A 
BRANCH  29  31
ATOM     31  C17 O9E D   1      -1.210 -20.903 -38.555  0.00  0.00     0.260 C 
ATOM     32  O1  O9E D   1      -1.990 -20.907 -37.605  0.00  0.00    -0.267 OA
ATOM     33  N4  O9E D   1      -1.477 -21.661 -39.738  0.00  0.00    -0.346 N 
ATOM     34  C23 O9E D   1      -0.571 -21.823 -40.869  0.00  0.00     0.153 C 
BRANCH  33  35
ATOM     35  C18 O9E D   1      -2.718 -22.420 -39.781  0.00  0.00     0.188 C 
BRANCH  35  36
ATOM     36  C19 O9E D   1      -2.366 -23.811 -39.352  0.00  0.00     0.093 A 
ATOM     37  N7  O9E D   1      -2.511 -24.211 -38.063  0.00  0.00    -0.134 NA
ATOM     38  N6  O9E D   1      -2.161 -25.468 -37.963  0.00  0.00    -0.066 NA
ATOM     39  N5  O9E D   1      -1.801 -25.874 -39.190  0.00  0.00    -0.261 N 
ATOM     40  C20 O9E D   1      -1.927 -24.876 -40.079  0.00  0.00     0.144 A 
BRANCH  39  41
ATOM     41  C21 O9E D   1      -1.303 -27.228 -39.447  0.00  0.00     0.147 C 
ATOM     42  C22 O9E D   1      -0.200 -27.245 -40.478  0.00  0.00     0.028 C 
ENDBRANCH  39  41
ENDBRANCH  35  36
ENDBRANCH  33  35
ENDBRANCH  29  31
ENDBRANCH   2  25
TORSDOF 11
ENDMDL
MODEL 7
REMARK VINA RESULT:    -5.315      3.687      6.471
REMARK INTER + INTRA:         -12.102
REMARK INTER:                  -9.700
REMARK INTRA:                  -2.403
REMARK UNBOUND:                -3.369
REMARK  11 active torsions:
REMARK  status: ('A' for Active; 'I' for Inactive)
REMARK       I    between atoms: N_1  and  C_2 
REMARK    1  A    between atoms: N_1  and  C1_4 
REMARK    2  A    between atoms: C_2  and  C8_20 
REMARK    3  A    between atoms: C1_4  and  C2_8 
REMARK    4  A    between atoms: N1_5  and  C4_12 
REMARK    5  A    between atoms: C4_12  and  C5_14 
REMARK       I    between atoms: N4_13  and  C17_29 
REMARK    6  A    between atoms: N4_13  and  C18_30 
REMARK    7  A    between atoms: N5_15  and  C21_33 
REMARK    8  A    between atoms: C10_22  and  C11_23 
REMARK    9  A    between atoms: C12_24  and  C13_25 
REMARK   10  A    between atoms: C16_28  and  C17_29 
REMARK   11  A    between atoms: C18_30  and  C19_31 
ROOT
ATOM      1  C11 O9E D   1      -0.626 -16.600 -39.127  0.00  0.00    -0.018 C 
ATOM      2  C12 O9E D   1      -0.268 -17.738 -38.508  0.00  0.00    -0.018 C 
ATOM      3  C25 O9E D   1      -1.470 -18.580 -38.157  0.00  0.00    -0.010 C 
ATOM      4  C26 O9E D   1      -2.656 -17.668 -38.463  0.00  0.00     0.056 C 
ATOM      5  C27 O9E D   1      -2.122 -16.513 -39.301  0.00  0.00    -0.010 C 
ENDROOT
BRANCH   1   6
ATOM      6  C10 O9E D   1       0.264 -15.513 -39.566  0.00  0.00    -0.011 A 
ATOM      7  C9  O9E D   1       0.577 -14.413 -38.703  0.00  0.00     0.038 A 
ATOM      8  C8  O9E D   1       1.581 -13.623 -39.186  0.00  0.00     0.074 A 
ATOM      9  S1  O9E D   1       2.139 -14.190 -40.716  0.00  0.00    -0.089 SA
ATOM     10  C28 O9E D   1       1.021 -15.514 -40.714  0.00  0.00    -0.009 A 
ATOM     11  C29 O9E D   1       1.026 -16.468 -41.869  0.00  0.00     0.057 C 
BRANCH   8  12
ATOM     12  C   O9E D   1       2.292 -12.400 -38.735  0.00  0.00     0.260 C 
ATOM     13  N   O9E D   1       1.558 -11.239 -38.299  0.00  0.00    -0.346 N 
ATOM     14  C7  O9E D   1       2.261 -10.075 -37.771  0.00  0.00     0.153 C 
ATOM     15  O   O9E D   1       3.525 -12.433 -38.685  0.00  0.00    -0.267 OA
BRANCH  13  16
ATOM     16  C1  O9E D   1       0.105 -11.150 -38.357  0.00  0.00     0.188 C 
BRANCH  16  17
ATOM     17  C2  O9E D   1      -0.531 -11.258 -37.005  0.00  0.00     0.093 A 
ATOM     18  C3  O9E D   1      -1.559 -10.549 -36.456  0.00  0.00     0.144 A 
ATOM     19  N1  O9E D   1      -1.634 -10.971 -35.187  0.00  0.00    -0.261 N 
ATOM     20  N2  O9E D   1      -0.714 -11.921 -34.943  0.00  0.00    -0.066 NA
ATOM     21  N3  O9E D   1      -0.043 -12.095 -36.055  0.00  0.00    -0.134 NA
BRANCH  19  22
ATOM     22  C4  O9E D   1      -2.535 -10.508 -34.132  0.00  0.00     0.152 C 
BRANCH  22  23
ATOM     23  C5  O9E D   1      -3.488 -11.618 -33.714  0.00  0.00     0.017 C 
ATOM     24  C6  O9E D   1      -3.538 -11.757 -32.227  0.00  0.00     0.007 C 
ENDBRANCH  22  23
ENDBRANCH  19  22
ENDBRANCH  16  17
ENDBRANCH  13  16
ENDBRANCH   8  12
ENDBRANCH   1   6
BRANCH   2  25
ATOM     25  C13 O9E D   1       1.090 -18.173 -38.150  0.00  0.00    -0.011 A 
ATOM     26  C14 O9E D   1       1.810 -17.733 -37.063  0.00  0.00    -0.009 A 
ATOM     27  C15 O9E D   1       1.462 -16.711 -36.020  0.00  0.00     0.057 C 
ATOM     28  S   O9E D   1       3.343 -18.544 -36.967  0.00  0.00    -0.089 SA
ATOM     29  C16 O9E D   1       3.013 -19.476 -38.381  0.00  0.00     0.074 A 
ATOM     30  C24 O9E D   1       1.783 -19.172 -38.901  0.00  0.00     0.038 A 
BRANCH  29  31
ATOM     31  C17 O9E D   1       4.077 -20.455 -38.699  0.00  0.00     0.260 C 
ATOM     32  O1  O9E D   1       4.240 -21.401 -37.932  0.00  0.00    -0.267 OA
ATOM     33  N4  O9E D   1       4.870 -20.314 -39.882  0.00  0.00    -0.346 N 
ATOM     34  C23 O9E D   1       4.843 -19.176 -40.795  0.00  0.00     0.153 C 
BRANCH  33  35
ATOM     35  C18 O9E D   1       5.862 -21.344 -40.150  0.00  0.00     0.188 C 
BRANCH  35  36
ATOM     36  C19 O9E D   1       5.337 -22.129 -41.312  0.00  0.00     0.093 A 
ATOM     37  N7  O9E D   1       4.047 -22.549 -41.356  0.00  0.00    -0.134 NA
ATOM     38  N6  O9E D   1       3.842 -23.185 -42.481  0.00  0.00    -0.066 NA
ATOM     39  N5  O9E D   1       4.998 -23.164 -43.161  0.00  0.00    -0.261 N 
ATOM     40  C20 O9E D   1       5.944 -22.507 -42.472  0.00  0.00     0.144 A 
BRANCH  39  41
ATOM     41  C21 O9E D   1       5.152 -23.829 -44.458  0.00  0.00     0.147 C 
ATOM     42  C22 O9E D   1       4.213 -25.000 -44.614  0.00  0.00     0.028 C 
ENDBRANCH  39  41
ENDBRANCH  35  36
ENDBRANCH  33  35
ENDBRANCH  29  31
ENDBRANCH   2  25
TORSDOF 11
ENDMDL
MODEL 8
REMARK VINA RESULT:    -5.263      4.439      7.272
REMARK INTER + INTRA:         -12.016
REMARK INTER:                  -8.797
REMARK INTRA:                  -3.219
REMARK UNBOUND:                -3.369
REMARK  11 active torsions:
REMARK  status: ('A' for Active; 'I' for Inactive)
REMARK       I    between atoms: N_1  and  C_2 
REMARK    1  A    between atoms: N_1  and  C1_4 
REMARK    2  A    between atoms: C_2  and  C8_20 
REMARK    3  A    between atoms: C1_4  and  C2_8 
REMARK    4  A    between atoms: N1_5  and  C4_12 
REMARK    5  A    between atoms: C4_12  and  C5_14 
REMARK       I    between atoms: N4_13  and  C17_29 
REMARK    6  A    between atoms: N4_13  and  C18_30 
REMARK    7  A    between atoms: N5_15  and  C21_33 
REMARK    8  A    between atoms: C10_22  and  C11_23 
REMARK    9  A    between atoms: C12_24  and  C13_25 
REMARK   10  A    between atoms: C16_28  and  C17_29 
REMARK   11  A    between atoms: C18_30  and  C19_31 
ROOT
ATOM      1  C11 O9E D   1       2.951 -18.610 -37.843  0.00  0.00    -0.018 C 
ATOM      2  C12 O9E D   1       3.491 -18.816 -39.057  0.00  0.00    -0.018 C 
ATOM      3  C25 O9E D   1       4.895 -19.358 -38.953  0.00  0.00    -0.010 C 
ATOM      4  C26 O9E D   1       5.222 -19.244 -37.467  0.00  0.00     0.056 C 
ATOM      5  C27 O9E D   1       3.906 -18.998 -36.741  0.00  0.00    -0.010 C 
ENDROOT
BRANCH   1   6
ATOM      6  C10 O9E D   1       1.626 -18.041 -37.548  0.00  0.00    -0.011 A 
ATOM      7  C9  O9E D   1       1.473 -16.665 -37.178  0.00  0.00     0.038 A 
ATOM      8  C8  O9E D   1       0.170 -16.258 -37.159  0.00  0.00     0.074 A 
ATOM      9  S1  O9E D   1      -0.894 -17.554 -37.561  0.00  0.00    -0.089 SA
ATOM     10  C28 O9E D   1       0.421 -18.663 -37.770  0.00  0.00    -0.009 A 
ATOM     11  C29 O9E D   1       0.121 -20.075 -38.174  0.00  0.00     0.057 C 
BRANCH   8  12
ATOM     12  C   O9E D   1      -0.553 -14.995 -36.864  0.00  0.00     0.260 C 
ATOM     13  N   O9E D   1       0.163 -13.815 -36.449  0.00  0.00    -0.346 N 
ATOM     14  C7  O9E D   1      -0.542 -12.554 -36.250  0.00  0.00     0.153 C 
ATOM     15  O   O9E D   1      -1.773 -14.971 -37.047  0.00  0.00    -0.267 OA
BRANCH  13  16
ATOM     16  C1  O9E D   1       1.600 -13.803 -36.205  0.00  0.00     0.188 C 
BRANCH  16  17
ATOM     17  C2  O9E D   1       2.362 -13.120 -37.298  0.00  0.00     0.093 A 
ATOM     18  C3  O9E D   1       3.100 -11.973 -37.274  0.00  0.00     0.144 A 
ATOM     19  N1  O9E D   1       3.455 -11.760 -38.549  0.00  0.00    -0.261 N 
ATOM     20  N2  O9E D   1       2.986 -12.737 -39.345  0.00  0.00    -0.066 NA
ATOM     21  N3  O9E D   1       2.321 -13.566 -38.579  0.00  0.00    -0.134 NA
BRANCH  19  22
ATOM     22  C4  O9E D   1       4.218 -10.642 -39.101  0.00  0.00     0.152 C 
BRANCH  22  23
ATOM     23  C5  O9E D   1       5.060 -11.098 -40.283  0.00  0.00     0.017 C 
ATOM     24  C6  O9E D   1       6.394 -10.424 -40.287  0.00  0.00     0.007 C 
ENDBRANCH  22  23
ENDBRANCH  19  22
ENDBRANCH  16  17
ENDBRANCH  13  16
ENDBRANCH   8  12
ENDBRANCH   1   6
BRANCH   2  25
ATOM     25  C13 O9E D   1       2.879 -18.546 -40.365  0.00  0.00    -0.011 A 
ATOM     26  C14 O9E D   1       2.375 -19.497 -41.224  0.00  0.00    -0.009 A 
ATOM     27  C15 O9E D   1       2.350 -20.993 -41.104  0.00  0.00     0.057 C 
ATOM     28  S   O9E D   1       1.683 -18.754 -42.633  0.00  0.00    -0.089 SA
ATOM     29  C16 O9E D   1       2.063 -17.169 -42.066  0.00  0.00     0.074 A 
ATOM     30  C24 O9E D   1       2.696 -17.215 -40.852  0.00  0.00     0.038 A 
BRANCH  29  31
ATOM     31  C17 O9E D   1       1.571 -16.094 -42.955  0.00  0.00     0.260 C 
ATOM     32  O1  O9E D   1       2.315 -15.698 -43.850  0.00  0.00    -0.267 OA
ATOM     33  N4  O9E D   1       0.256 -15.554 -42.791  0.00  0.00    -0.346 N 
ATOM     34  C23 O9E D   1      -0.661 -15.862 -41.698  0.00  0.00     0.153 C 
BRANCH  33  35
ATOM     35  C18 O9E D   1      -0.173 -14.535 -43.736  0.00  0.00     0.188 C 
BRANCH  35  36
ATOM     36  C19 O9E D   1      -0.172 -13.243 -42.978  0.00  0.00     0.093 A 
ATOM     37  N7  O9E D   1      -1.323 -12.569 -42.730  0.00  0.00    -0.134 NA
ATOM     38  N6  O9E D   1      -1.050 -11.496 -42.034  0.00  0.00    -0.066 NA
ATOM     39  N5  O9E D   1       0.277 -11.488 -41.829  0.00  0.00    -0.261 N 
ATOM     40  C20 O9E D   1       0.852 -12.562 -42.390  0.00  0.00     0.144 A 
BRANCH  39  41
ATOM     41  C21 O9E D   1       0.949 -10.396 -41.118  0.00  0.00     0.147 C 
ATOM     42  C22 O9E D   1       0.399 -10.198 -39.726  0.00  0.00     0.028 C 
ENDBRANCH  39  41
ENDBRANCH  35  36
ENDBRANCH  33  35
ENDBRANCH  29  31
ENDBRANCH   2  25
TORSDOF 11
ENDMDL
MODEL 9
REMARK VINA RESULT:    -5.246      4.583      8.583
REMARK INTER + INTRA:         -11.988
REMARK INTER:                  -9.493
REMARK INTRA:                  -2.495
REMARK UNBOUND:                -3.369
REMARK  11 active torsions:
REMARK  status: ('A' for Active; 'I' for Inactive)
REMARK       I    between atoms: N_1  and  C_2 
REMARK    1  A    between atoms: N_1  and  C1_4 
REMARK    2  A    between atoms: C_2  and  C8_20 
REMARK    3  A    between atoms: C1_4  and  C2_8 
REMARK    4  A    between atoms: N1_5  and  C4_12 
REMARK    5  A    between atoms: C4_12  and  C5_14 
REMARK       I    between atoms: N4_13  and  C17_29 
REMARK    6  A    between atoms: N4_13  and  C18_30 
REMARK    7  A    between atoms: N5_15  and  C21_33 
REMARK    8  A    between atoms: C10_22  and  C11_23 
REMARK    9  A    between atoms: C12_24  and  C13_25 
REMARK   10  A    between atoms: C16_28  and  C17_29 
REMARK   11  A    between atoms: C18_30  and  C19_31 
ROOT
ATOM      1  C11 O9E D   1       3.195 -11.978 -39.107  0.00  0.00    -0.018 C 
ATOM      2  C12 O9E D   1       2.610 -12.550 -38.041  0.00  0.00    -0.018 C 
ATOM      3  C25 O9E D   1       3.132 -11.974 -36.748  0.00  0.00    -0.010 C 
ATOM      4  C26 O9E D   1       4.306 -11.102 -37.183  0.00  0.00     0.056 C 
ATOM      5  C27 O9E D   1       4.187 -10.920 -38.691  0.00  0.00    -0.010 C 
ENDROOT
BRANCH   1   6
ATOM      6  C10 O9E D   1       2.983 -12.318 -40.523  0.00  0.00    -0.011 A 
ATOM      7  C9  O9E D   1       3.856 -13.223 -41.211  0.00  0.00     0.038 A 
ATOM      8  C8  O9E D   1       3.385 -13.592 -42.438  0.00  0.00     0.074 A 
ATOM      9  S1  O9E D   1       1.885 -12.818 -42.789  0.00  0.00    -0.089 SA
ATOM     10  C28 O9E D   1       1.874 -11.990 -41.267  0.00  0.00    -0.009 A 
ATOM     11  C29 O9E D   1       0.719 -11.095 -40.937  0.00  0.00     0.057 C 
BRANCH   8  12
ATOM     12  C   O9E D   1       3.847 -14.472 -43.542  0.00  0.00     0.260 C 
ATOM     13  N   O9E D   1       4.727 -13.969 -44.567  0.00  0.00    -0.346 N 
ATOM     14  C7  O9E D   1       5.250 -14.861 -45.595  0.00  0.00     0.153 C 
ATOM     15  O   O9E D   1       3.506 -15.657 -43.517  0.00  0.00    -0.267 OA
BRANCH  13  16
ATOM     16  C1  O9E D   1       5.140 -12.573 -44.644  0.00  0.00     0.188 C 
BRANCH  16  17
ATOM     17  C2  O9E D   1       6.373 -12.295 -43.839  0.00  0.00     0.093 A 
ATOM     18  C3  O9E D   1       7.618 -12.846 -43.916  0.00  0.00     0.144 A 
ATOM     19  N1  O9E D   1       8.295 -12.321 -42.886  0.00  0.00    -0.261 N 
ATOM     20  N2  O9E D   1       7.527 -11.458 -42.198  0.00  0.00    -0.066 NA
ATOM     21  N3  O9E D   1       6.355 -11.443 -42.784  0.00  0.00    -0.134 NA
BRANCH  19  22
ATOM     22  C4  O9E D   1       9.668 -12.602 -42.469  0.00  0.00     0.152 C 
BRANCH  22  23
ATOM     23  C5  O9E D   1       9.884 -12.191 -41.020  0.00  0.00     0.017 C 
ATOM     24  C6  O9E D   1      10.446 -13.319 -40.217  0.00  0.00     0.007 C 
ENDBRANCH  22  23
ENDBRANCH  19  22
ENDBRANCH  16  17
ENDBRANCH  13  16
ENDBRANCH   8  12
ENDBRANCH   1   6
BRANCH   2  25
ATOM     25  C13 O9E D   1       1.607 -13.625 -38.041  0.00  0.00    -0.011 A 
ATOM     26  C14 O9E D   1       0.251 -13.453 -37.881  0.00  0.00    -0.009 A 
ATOM     27  C15 O9E D   1      -0.543 -12.205 -37.629  0.00  0.00     0.057 C 
ATOM     28  S   O9E D   1      -0.584 -14.970 -38.009  0.00  0.00    -0.089 SA
ATOM     29  C16 O9E D   1       0.885 -15.832 -38.283  0.00  0.00     0.074 A 
ATOM     30  C24 O9E D   1       1.965 -14.989 -38.271  0.00  0.00     0.038 A 
BRANCH  29  31
ATOM     31  C17 O9E D   1       0.680 -17.275 -38.545  0.00  0.00     0.260 C 
ATOM     32  O1  O9E D   1      -0.186 -17.596 -39.356  0.00  0.00    -0.267 OA
ATOM     33  N4  O9E D   1       1.487 -18.258 -37.891  0.00  0.00    -0.346 N 
ATOM     34  C23 O9E D   1       2.455 -17.998 -36.830  0.00  0.00     0.153 C 
BRANCH  33  35
ATOM     35  C18 O9E D   1       1.256 -19.652 -38.239  0.00  0.00     0.188 C 
BRANCH  35  36
ATOM     36  C19 O9E D   1       2.443 -20.076 -39.048  0.00  0.00     0.093 A 
ATOM     37  N7  O9E D   1       2.571 -19.725 -40.353  0.00  0.00    -0.134 NA
ATOM     38  N6  O9E D   1       3.700 -20.197 -40.815  0.00  0.00    -0.066 NA
ATOM     39  N5  O9E D   1       4.299 -20.843 -39.803  0.00  0.00    -0.261 N 
ATOM     40  C20 O9E D   1       3.554 -20.779 -38.688  0.00  0.00     0.144 A 
BRANCH  39  41
ATOM     41  C21 O9E D   1       5.575 -21.544 -39.972  0.00  0.00     0.147 C 
ATOM     42  C22 O9E D   1       6.292 -21.752 -38.660  0.00  0.00     0.028 C 
ENDBRANCH  39  41
ENDBRANCH  35  36
ENDBRANCH  33  35
ENDBRANCH  29  31
ENDBRANCH   2  25
TORSDOF 11
ENDMDL
MODEL 10
REMARK VINA RESULT:    -5.149      2.504      5.277
REMARK INTER + INTRA:         -11.830
REMARK INTER:                  -8.461
REMARK INTRA:                  -3.369
REMARK UNBOUND:                -3.369
REMARK  11 active torsions:
REMARK  status: ('A' for Active; 'I' for Inactive)
REMARK       I    between atoms: N_1  and  C_2 
REMARK    1  A    between atoms: N_1  and  C1_4 
REMARK    2  A    between atoms: C_2  and  C8_20 
REMARK    3  A    between atoms: C1_4  and  C2_8 
REMARK    4  A    between atoms: N1_5  and  C4_12 
REMARK    5  A    between atoms: C4_12  and  C5_14 
REMARK       I    between atoms: N4_13  and  C17_29 
REMARK    6  A    between atoms: N4_13  and  C18_30 
REMARK    7  A    between atoms: N5_15  and  C21_33 
REMARK    8  A    between atoms: C10_22  and  C11_23 
REMARK    9  A    between atoms: C12_24  and  C13_25 
REMARK   10  A    between atoms: C16_28  and  C17_29 
REMARK   11  A    between atoms: C18_30  and  C19_31 
ROOT
ATOM      1  C11 O9E D   1       2.557 -18.818 -38.064  0.00  0.00    -0.018 C 
ATOM      2  C12 O9E D   1       3.172 -19.467 -39.067  0.00  0.00    -0.018 C 
ATOM      3  C25 O9E D   1       4.575 -19.872 -38.687  0.00  0.00    -0.010 C 
ATOM      4  C26 O9E D   1       4.810 -19.168 -37.354  0.00  0.00     0.056 C 
ATOM      5  C27 O9E D   1       3.449 -18.703 -36.852  0.00  0.00    -0.010 C 
ENDROOT
BRANCH   1   6
ATOM      6  C10 O9E D   1       1.209 -18.226 -38.086  0.00  0.00    -0.011 A 
ATOM      7  C9  O9E D   1       0.078 -18.933 -37.563  0.00  0.00     0.038 A 
ATOM      8  C8  O9E D   1      -1.039 -18.154 -37.462  0.00  0.00     0.074 A 
ATOM      9  S1  O9E D   1      -0.738 -16.555 -38.035  0.00  0.00    -0.089 SA
ATOM     10  C28 O9E D   1       0.914 -16.923 -38.408  0.00  0.00    -0.009 A 
ATOM     11  C29 O9E D   1       1.787 -15.843 -38.970  0.00  0.00     0.057 C 
BRANCH   8  12
ATOM     12  C   O9E D   1      -2.439 -18.344 -37.005  0.00  0.00     0.260 C 
ATOM     13  N   O9E D   1      -3.362 -19.146 -37.768  0.00  0.00    -0.346 N 
ATOM     14  C7  O9E D   1      -4.707 -19.403 -37.267  0.00  0.00     0.153 C 
ATOM     15  O   O9E D   1      -2.766 -17.848 -35.924  0.00  0.00    -0.267 OA
BRANCH  13  16
ATOM     16  C1  O9E D   1      -3.024 -19.735 -39.057  0.00  0.00     0.188 C 
BRANCH  16  17
ATOM     17  C2  O9E D   1      -3.095 -21.232 -39.040  0.00  0.00     0.093 A 
ATOM     18  C3  O9E D   1      -2.206 -22.150 -38.565  0.00  0.00     0.144 A 
ATOM     19  N1  O9E D   1      -2.714 -23.340 -38.916  0.00  0.00    -0.261 N 
ATOM     20  N2  O9E D   1      -3.882 -23.189 -39.564  0.00  0.00    -0.066 NA
ATOM     21  N3  O9E D   1      -4.113 -21.901 -39.637  0.00  0.00    -0.134 NA
BRANCH  19  22
ATOM     22  C4  O9E D   1      -2.141 -24.667 -38.697  0.00  0.00     0.152 C 
BRANCH  22  23
ATOM     23  C5  O9E D   1      -3.239 -25.717 -38.608  0.00  0.00     0.017 C 
ATOM     24  C6  O9E D   1      -3.262 -26.360 -37.259  0.00  0.00     0.007 C 
ENDBRANCH  22  23
ENDBRANCH  19  22
ENDBRANCH  16  17
ENDBRANCH  13  16
ENDBRANCH   8  12
ENDBRANCH   1   6
BRANCH   2  25
ATOM     25  C13 O9E D   1       2.636 -19.760 -40.404  0.00  0.00    -0.011 A 
ATOM     26  C14 O9E D   1       2.645 -18.897 -41.476  0.00  0.00    -0.009 A 
ATOM     27  C15 O9E D   1       3.129 -17.479 -41.574  0.00  0.00     0.057 C 
ATOM     28  S   O9E D   1       1.974 -19.655 -42.887  0.00  0.00    -0.089 SA
ATOM     29  C16 O9E D   1       1.689 -21.131 -42.039  0.00  0.00     0.074 A 
ATOM     30  C24 O9E D   1       2.088 -21.038 -40.733  0.00  0.00     0.038 A 
BRANCH  29  31
ATOM     31  C17 O9E D   1       1.147 -22.207 -42.900  0.00  0.00     0.260 C 
ATOM     32  O1  O9E D   1       1.929 -22.810 -43.631  0.00  0.00    -0.267 OA
ATOM     33  N4  O9E D   1      -0.242 -22.547 -42.857  0.00  0.00    -0.346 N 
ATOM     34  C23 O9E D   1      -1.274 -21.825 -42.121  0.00  0.00     0.153 C 
BRANCH  33  35
ATOM     35  C18 O9E D   1      -0.687 -23.649 -43.697  0.00  0.00     0.188 C 
BRANCH  35  36
ATOM     36  C19 O9E D   1      -0.821 -24.832 -42.788  0.00  0.00     0.093 A 
ATOM     37  N7  O9E D   1      -2.020 -25.434 -42.584  0.00  0.00    -0.134 NA
ATOM     38  N6  O9E D   1      -1.857 -26.450 -41.775  0.00  0.00    -0.066 NA
ATOM     39  N5  O9E D   1      -0.551 -26.502 -41.469  0.00  0.00    -0.261 N 
ATOM     40  C20 O9E D   1       0.123 -25.521 -42.089  0.00  0.00     0.144 A 
BRANCH  39  41
ATOM     41  C21 O9E D   1      -0.009 -27.496 -40.539  0.00  0.00     0.147 C 
ATOM     42  C22 O9E D   1      -1.093 -28.311 -39.877  0.00  0.00     0.028 C 
ENDBRANCH  39  41
ENDBRANCH  35  36
ENDBRANCH  33  35
ENDBRANCH  29  31
ENDBRANCH   2  25
TORSDOF 11
ENDMDL
