2


 38 41  0  0  0  0  0  0  0  0999 V2000
   22.0410   38.0404   66.5779 C   0  0  0  0  0  0  0  0  0  0  0  0
   22.0071   39.3879   66.2884 N   0  0  0  0  0  0  0  0  0  0  0  0
   23.0700   39.6725   65.6068 N   0  0  0  0  0  0  0  0  0  0  0  0
   23.8125   38.5442   65.4359 N   0  0  0  0  0  0  0  0  0  0  0  0
   23.2023   37.5173   66.0247 C   0  0  0  0  0  0  0  0  0  0  0  0
   25.0455   38.6152   64.7156 C   0  0  0  0  0  0  0  0  0  0  0  0
   25.4467   38.0450   63.5865 N   0  0  0  0  0  0  0  0  0  0  0  0
   26.6453   38.4621   63.3426 O   0  0  0  0  0  0  0  0  0  0  0  0
   27.0644   39.2827   64.2542 N   0  0  0  0  0  0  0  0  0  0  0  0
   26.1028   39.4274   65.1558 C   0  0  0  0  0  0  0  0  0  0  0  0
   26.0827   40.2163   66.3344 N   0  0  0  0  0  0  0  0  0  0  0  0
   26.2531   41.2412   66.2674 H   0  0  0  0  0  0  0  0  0  0  0  0
   25.9005   39.8036   67.2941 H   0  0  0  0  0  0  0  0  0  0  0  0
   20.8420   37.2057   68.7048 N   0  0  0  0  0  0  0  0  0  0  0  0
   20.9976   37.3800   67.3249 C   0  0  0  0  0  0  0  0  0  0  0  0
   20.0514   36.8697   66.5842 O   0  0  0  0  0  0  0  0  0  0  0  0
   21.4721   37.5434   69.4133 H   0  0  0  0  0  0  0  0  0  0  0  0
   18.7254   37.0942   69.7426 C   0  0  0  0  0  0  0  0  0  0  0  0
   19.6716   36.4873   69.1306 N   0  0  0  0  0  0  0  0  0  0  0  0
   16.6190   33.2001   72.7154 Br  0  0  0  0  0  0  0  0  0  0  0  0
   16.4610   34.6803   71.5024 C   0  0  0  0  0  0  0  0  0  0  0  0
   15.1988   35.0582   71.0864 C   0  0  0  0  0  0  0  0  0  0  0  0
   15.1078   36.1230   70.2166 C   0  0  0  0  0  0  0  0  0  0  0  0
   16.2482   36.7789   69.7840 C   0  0  0  0  0  0  0  0  0  0  0  0
   17.5105   36.4047   70.1966 C   0  0  0  0  0  0  0  0  0  0  0  0
   17.5935   35.3380   71.0671 C   0  0  0  0  0  0  0  0  0  0  0  0
   18.8820   34.9590   71.4858 O   0  0  0  0  0  0  0  0  0  0  0  0
   13.3592   36.6431   69.6434 Br  0  0  0  0  0  0  0  0  0  0  0  0
   14.0707   34.3740   71.5432 O   0  0  0  0  0  0  0  0  0  0  0  0
   18.9868   34.1848   72.1231 H   0  0  0  0  0  0  0  0  0  0  0  0
   23.6183   36.1172   66.0987 C   0  0  0  0  0  0  0  0  0  0  0  0
   24.5817   35.7202   67.0550 N   0  0  0  0  0  0  0  0  0  0  0  0
   25.4358   34.6336   66.5985 C   0  0  0  0  0  0  0  0  0  0  0  0
   24.6375   33.5007   66.0905 C   0  0  0  0  0  0  0  0  0  0  0  0
   23.4471   33.2143   66.6211 O   0  0  0  0  0  0  0  0  0  0  0  0
   22.9386   34.0060   67.5991 C   0  0  0  0  0  0  0  0  0  0  0  0
   23.8251   35.0432   68.1582 C   0  0  0  0  0  0  0  0  0  0  0  0
   25.0967   36.4926   67.4514 H   0  0  0  0  0  0  0  0  0  0  0  0
 20 21  1  0  0  0
 21 22  2  0  0  0
 21 26  1  0  0  0
 22 23  1  0  0  0
 22 29  1  0  0  0
 23 24  2  0  0  0
 23 28  1  0  0  0
 24 25  1  0  0  0
 25 26  2  0  0  0
 25 18  1  0  0  0
 26 27  1  0  0  0
 18 19  2  0  0  0
 19 14  1  0  0  0
 14 15  1  0  0  0
 15 16  2  0  0  0
 15  1  1  0  0  0
  1  2  1  0  0  0
  1  5  2  0  0  0
  2  3  2  0  0  0
  3  4  1  0  0  0
  4  5  1  0  0  0
  4  6  1  0  0  0
  5 31  1  0  0  0
 31 32  1  0  0  0
 32 33  1  0  0  0
 32 37  1  0  0  0
 33 34  1  0  0  0
 34 35  1  0  0  0
 35 36  1  0  0  0
 36 37  1  0  0  0
  6  7  2  0  0  0
  6 10  1  0  0  0
  7  8  1  0  0  0
  8  9  1  0  0  0
  9 10  2  0  0  0
 10 11  1  0  0  0
 27 30  1  0  0  0
 14 17  1  0  0  0
 32 38  1  0  0  0
 11 12  1  0  0  0
 11 13  1  0  0  0
M  CHG 1  29  -1
M  CHG 1  32   1
M  END
> <minimizedAffinity>
-8.94190

$$$$
3


 38 41  0  0  0  0  0  0  0  0999 V2000
   21.8785   38.3732   66.5883 C   0  0  0  0  0  0  0  0  0  0  0  0
   21.8717   39.7362   66.4281 N   0  0  0  0  0  0  0  0  0  0  0  0
   22.9313   40.0991   65.7599 N   0  0  0  0  0  0  0  0  0  0  0  0
   23.6815   39.0582   65.4417 N   0  0  0  0  0  0  0  0  0  0  0  0
   23.0557   37.9798   65.9427 C   0  0  0  0  0  0  0  0  0  0  0  0
   24.8781   39.1440   64.6883 C   0  0  0  0  0  0  0  0  0  0  0  0
   25.2511   38.4533   63.5898 N   0  0  0  0  0  0  0  0  0  0  0  0
   26.4337   38.8485   63.1991 O   0  0  0  0  0  0  0  0  0  0  0  0
   26.8861   39.7866   63.9914 N   0  0  0  0  0  0  0  0  0  0  0  0
   25.9456   39.9960   64.9276 C   0  0  0  0  0  0  0  0  0  0  0  0
   26.0602   40.9395   65.9713 N   0  0  0  0  0  0  0  0  0  0  0  0
   26.0091   41.9485   65.7414 H   0  0  0  0  0  0  0  0  0  0  0  0
   26.1936   40.6642   66.9610 H   0  0  0  0  0  0  0  0  0  0  0  0
   20.8195   37.2209   68.6177 N   0  0  0  0  0  0  0  0  0  0  0  0
   20.8623   37.6075   67.2850 C   0  0  0  0  0  0  0  0  0  0  0  0
   19.8701   37.2440   66.5479 O   0  0  0  0  0  0  0  0  0  0  0  0
   21.5319   37.4190   69.3598 H   0  0  0  0  0  0  0  0  0  0  0  0
   18.7213   37.0561   69.6599 C   0  0  0  0  0  0  0  0  0  0  0  0
   19.6781   36.4595   69.0427 N   0  0  0  0  0  0  0  0  0  0  0  0
   16.6246   33.1984   72.6374 Br  0  0  0  0  0  0  0  0  0  0  0  0
   16.4511   34.6635   71.4491 C   0  0  0  0  0  0  0  0  0  0  0  0
   15.2137   35.0714   71.0445 C   0  0  0  0  0  0  0  0  0  0  0  0
   15.1185   36.1506   70.1696 C   0  0  0  0  0  0  0  0  0  0  0  0
   16.2768   36.7838   69.7302 C   0  0  0  0  0  0  0  0  0  0  0  0
   17.5222   36.3805   70.1313 C   0  0  0  0  0  0  0  0  0  0  0  0
   17.6012   35.3120   70.9964 C   0  0  0  0  0  0  0  0  0  0  0  0
   18.8671   34.9125   71.3961 O   0  0  0  0  0  0  0  0  0  0  0  0
   13.4141   36.7429   69.5889 Br  0  0  0  0  0  0  0  0  0  0  0  0
   14.0468   34.4542   71.4710 O   0  0  0  0  0  0  0  0  0  0  0  0
   18.9782   34.1320   72.0311 H   0  0  0  0  0  0  0  0  0  0  0  0
   13.1452   34.7741   71.1569 H   0  0  0  0  0  0  0  0  0  0  0  0
   23.4784   36.5813   65.8221 C   0  0  0  0  0  0  0  0  0  0  0  0
   24.3975   36.1358   66.8728 N   0  0  0  0  0  0  0  0  0  0  0  0
   25.6697   35.7334   66.2416 C   0  0  0  0  0  0  0  0  0  0  0  0
   25.3964   34.8591   65.0680 C   0  0  0  0  0  0  0  0  0  0  0  0
   24.6052   33.8044   65.4520 O   0  0  0  0  0  0  0  0  0  0  0  0
   24.4326   33.6898   66.8064 C   0  0  0  0  0  0  0  0  0  0  0  0
   23.8397   34.9021   67.4761 C   0  0  0  0  0  0  0  0  0  0  0  0
 20 21  1  0  0  0
 21 22  2  0  0  0
 21 26  1  0  0  0
 22 23  1  0  0  0
 22 29  1  0  0  0
 23 24  2  0  0  0
 23 28  1  0  0  0
 24 25  1  0  0  0
 25 26  2  0  0  0
 25 18  1  0  0  0
 26 27  1  0  0  0
 18 19  2  0  0  0
 19 14  1  0  0  0
 14 15  1  0  0  0
 15 16  2  0  0  0
 15  1  1  0  0  0
  1  2  1  0  0  0
  1  5  2  0  0  0
  2  3  2  0  0  0
  3  4  1  0  0  0
  4  5  1  0  0  0
  4  6  1  0  0  0
  5 32  1  0  0  0
 32 33  1  0  0  0
 33 34  1  0  0  0
 33 38  1  0  0  0
 34 35  1  0  0  0
 35 36  1  0  0  0
 36 37  1  0  0  0
 37 38  1  0  0  0
  6  7  2  0  0  0
  6 10  1  0  0  0
  7  8  1  0  0  0
  8  9  1  0  0  0
  9 10  2  0  0  0
 10 11  1  0  0  0
 27 30  1  0  0  0
 14 17  1  0  0  0
 11 12  1  0  0  0
 11 13  1  0  0  0
 29 31  1  0  0  0
M  END
> <minimizedAffinity>
-8.99415

$$$$
4


 34 37  0  0  0  0  0  0  0  0999 V2000
   18.0187   36.5324   69.8175 C   0  0  0  0  0  0  0  0  0  0  0  0
   16.7162   36.3036   69.9691 N   0  0  0  0  0  0  0  0  0  0  0  0
   16.2329   35.2600   70.7027 C   0  0  0  0  0  0  0  0  0  0  0  0
   17.1427   34.4700   71.2681 N   0  0  0  0  0  0  0  0  0  0  0  0
   18.4816   34.6302   71.1664 C   0  0  0  0  0  0  0  0  0  0  0  0
   18.8796   35.6989   70.4135 N   0  0  0  0  0  0  0  0  0  0  0  0
   19.4070   33.7684   71.7828 N   0  0  0  0  0  0  0  0  0  0  0  0
   20.7065   33.5673   71.2219 C   0  0  0  0  0  0  0  0  0  0  0  0
   20.9208   32.0552   71.1102 C   0  0  0  0  0  0  0  0  0  0  0  0
   19.8037   31.3454   71.4942 O   0  0  0  0  0  0  0  0  0  0  0  0
   19.3776   31.6037   72.7733 C   0  0  0  0  0  0  0  0  0  0  0  0
   19.0563   33.0783   72.9859 C   0  0  0  0  0  0  0  0  0  0  0  0
   14.8477   35.0353   70.8510 N   0  0  0  0  0  0  0  0  0  0  0  0
   14.3719   33.9385   71.6470 C   0  0  0  0  0  0  0  0  0  0  0  0
   13.2965   33.2283   70.8401 C   0  0  0  0  0  0  0  0  0  0  0  0
   12.3870   34.1207   70.2863 O   0  0  0  0  0  0  0  0  0  0  0  0
   12.9575   35.0088   69.4031 C   0  0  0  0  0  0  0  0  0  0  0  0
   13.9087   35.9070   70.2039 C   0  0  0  0  0  0  0  0  0  0  0  0
   18.4826   37.6318   69.0445 N   0  0  0  0  0  0  0  0  0  0  0  0
   17.9233   38.4637   68.8290 H   0  0  0  0  0  0  0  0  0  0  0  0
   20.0768   37.1635   67.3681 C   0  0  0  0  0  0  0  0  0  0  0  0
   19.7935   37.6032   68.5298 N   0  0  0  0  0  0  0  0  0  0  0  0
   24.2373   39.7441   65.1458 Br  0  0  0  0  0  0  0  0  0  0  0  0
   23.3440   38.1913   65.8106 C   0  0  0  0  0  0  0  0  0  0  0  0
   24.0214   36.9889   65.7553 C   0  0  0  0  0  0  0  0  0  0  0  0
   23.3818   35.8661   66.2332 C   0  0  0  0  0  0  0  0  0  0  0  0
   22.1023   35.9314   66.7554 C   0  0  0  0  0  0  0  0  0  0  0  0
   21.4203   37.1235   66.8148 C   0  0  0  0  0  0  0  0  0  0  0  0
   22.0621   38.2468   66.3357 C   0  0  0  0  0  0  0  0  0  0  0  0
   21.3996   39.4503   66.3860 O   0  0  0  0  0  0  0  0  0  0  0  0
   24.3096   34.1923   66.1612 Br  0  0  0  0  0  0  0  0  0  0  0  0
   25.3091   36.9419   65.2257 O   0  0  0  0  0  0  0  0  0  0  0  0
   21.8424   40.3066   66.0396 H   0  0  0  0  0  0  0  0  0  0  0  0
   25.7978   36.0630   65.1879 H   0  0  0  0  0  0  0  0  0  0  0  0
 23 24  1  0  0  0
 24 25  2  0  0  0
 24 29  1  0  0  0
 25 26  1  0  0  0
 25 32  1  0  0  0
 26 27  2  0  0  0
 26 31  1  0  0  0
 27 28  1  0  0  0
 28 29  2  0  0  0
 28 21  1  0  0  0
 29 30  1  0  0  0
 21 22  2  0  0  0
 22 19  1  0  0  0
 19  1  1  0  0  0
  1  2  2  0  0  0
  1  6  1  0  0  0
  2  3  1  0  0  0
  3  4  2  0  0  0
  3 13  1  0  0  0
  4  5  1  0  0  0
  5  6  2  0  0  0
  5  7  1  0  0  0
  7  8  1  0  0  0
  7 12  1  0  0  0
  8  9  1  0  0  0
  9 10  1  0  0  0
 10 11  1  0  0  0
 11 12  1  0  0  0
 13 14  1  0  0  0
 13 18  1  0  0  0
 14 15  1  0  0  0
 15 16  1  0  0  0
 16 17  1  0  0  0
 17 18  1  0  0  0
 30 33  1  0  0  0
 19 20  1  0  0  0
 32 34  1  0  0  0
M  END
> <minimizedAffinity>
-9.23104

$$$$
5


 38 41  0  0  0  0  0  0  0  0999 V2000
   22.1531   37.5563   66.9507 N   0  0  0  0  0  0  0  0  0  0  0  0
   22.4591   38.6691   66.2321 C   0  0  0  0  0  0  0  0  0  0  0  0
   23.7879   38.6486   65.9016 C   0  0  0  0  0  0  0  0  0  0  0  0
   24.2578   37.5319   66.4184 N   0  0  0  0  0  0  0  0  0  0  0  0
   23.2841   36.8349   67.0654 C   0  0  0  0  0  0  0  0  0  0  0  0
   24.4156   39.6170   65.1658 N   0  0  0  0  0  0  0  0  0  0  0  0
   23.6569   40.6389   64.7511 C   0  0  0  0  0  0  0  0  0  0  0  0
   24.2394   41.5316   64.0727 O   0  0  0  0  0  0  0  0  0  0  0  0
   22.3442   40.7039   65.0462 N   0  0  0  0  0  0  0  0  0  0  0  0
   21.7158   39.7618   65.7675 C   0  0  0  0  0  0  0  0  0  0  0  0
   20.3721   39.8493   66.0498 O   0  0  0  0  0  0  0  0  0  0  0  0
   25.8390   39.4954   64.8825 C   0  0  0  0  0  0  0  0  0  0  0  0
   23.5167   35.5246   67.6135 N   0  0  0  0  0  0  0  0  0  0  0  0
   23.1692   34.2788   67.0469 C   0  0  0  0  0  0  0  0  0  0  0  0
   23.7193   33.1663   67.9813 C   0  0  0  0  0  0  0  0  0  0  0  0
   23.0176   33.3616   69.2354 N   0  0  0  0  0  0  0  0  0  0  0  0
   23.7592   34.4714   69.8638 C   0  0  0  0  0  0  0  0  0  0  0  0
   24.2382   35.4741   68.8922 C   0  0  0  0  0  0  0  0  0  0  0  0
   22.0414   33.7081   69.1213 H   0  0  0  0  0  0  0  0  0  0  0  0
   23.0932   32.1860   70.0796 C   0  0  0  0  0  0  0  0  0  0  0  0
   21.7360   31.9463   70.7035 C   0  0  0  0  0  0  0  0  0  0  0  0
   21.2265   30.7285   70.2363 O   0  0  0  0  0  0  0  0  0  0  0  0
   20.3658   30.8676   69.7537 H   0  0  0  0  0  0  0  0  0  0  0  0
   20.8727   37.2293   67.4684 C   0  0  0  0  0  0  0  0  0  0  0  0
   20.6032   37.1412   68.8939 C   0  0  0  0  0  0  0  0  0  0  0  0
   21.5209   37.7164   69.7909 O   0  0  0  0  0  0  0  0  0  0  0  0
   21.5615   38.6855   69.7021 H   0  0  0  0  0  0  0  0  0  0  0  0
   20.0258   35.9807   69.5861 C   0  0  0  0  0  0  0  0  0  0  0  0
   19.0371   36.3993   70.5244 O   0  0  0  0  0  0  0  0  0  0  0  0
   16.9595   37.8684   68.9490 Br  0  0  0  0  0  0  0  0  0  0  0  0
   16.7024   36.3531   70.0897 C   0  0  0  0  0  0  0  0  0  0  0  0
   17.8324   35.8243   70.7325 C   0  0  0  0  0  0  0  0  0  0  0  0
   17.6339   34.7500   71.5382 C   0  0  0  0  0  0  0  0  0  0  0  0
   16.3679   34.1824   71.7289 C   0  0  0  0  0  0  0  0  0  0  0  0
   15.2757   34.7188   71.0871 C   0  0  0  0  0  0  0  0  0  0  0  0
   15.4553   35.8106   70.2651 C   0  0  0  0  0  0  0  0  0  0  0  0
   13.5078   34.0334   71.2707 Br  0  0  0  0  0  0  0  0  0  0  0  0
   19.0653   33.9609   72.4729 Br  0  0  0  0  0  0  0  0  0  0  0  0
 30 31  1  0  0  0
 31 32  2  0  0  0
 31 36  1  0  0  0
 32 33  1  0  0  0
 32 29  1  0  0  0
 33 34  2  0  0  0
 33 38  1  0  0  0
 34 35  1  0  0  0
 35 36  2  0  0  0
 35 37  1  0  0  0
 29 28  1  0  0  0
 28 25  1  0  0  0
 25 26  1  0  0  0
 25 24  1  0  0  0
 24  1  1  0  0  0
  1  2  1  0  0  0
  1  5  1  0  0  0
  2  3  2  0  0  0
  2 10  1  0  0  0
  3  4  1  0  0  0
  3  6  1  0  0  0
  4  5  2  0  0  0
  5 13  1  0  0  0
 13 14  1  0  0  0
 13 18  1  0  0  0
 14 15  1  0  0  0
 15 16  1  0  0  0
 16 17  1  0  0  0
 16 20  1  0  0  0
 17 18  1  0  0  0
 20 21  1  0  0  0
 21 22  1  0  0  0
  6  7  1  0  0  0
  6 12  1  0  0  0
  7  8  2  0  0  0
  7  9  1  0  0  0
  9 10  2  0  0  0
 10 11  1  0  0  0
 26 27  1  0  0  0
 16 19  1  0  0  0
 22 23  1  0  0  0
M  CHG 1  11  -1
M  CHG 1  16   1
M  END
> <minimizedAffinity>
-8.48995

$$$$
6


 34 37  0  0  0  0  0  0  0  0999 V2000
   16.5688   35.8573   70.6548 N   0  0  0  0  0  0  0  0  0  0  0  0
   15.2990   35.6503   70.2157 C   0  0  0  0  0  0  0  0  0  0  0  0
   14.9656   34.3312   70.3497 C   0  0  0  0  0  0  0  0  0  0  0  0
   16.0511   33.7429   70.8762 N   0  0  0  0  0  0  0  0  0  0  0  0
   17.0366   34.6763   71.0646 C   0  0  0  0  0  0  0  0  0  0  0  0
   13.7089   33.9212   69.9556 C   0  0  0  0  0  0  0  0  0  0  0  0
   12.7801   34.8046   69.4303 C   0  0  0  0  0  0  0  0  0  0  0  0
   13.1464   36.1334   69.3064 C   0  0  0  0  0  0  0  0  0  0  0  0
   14.4033   36.5462   69.7004 C   0  0  0  0  0  0  0  0  0  0  0  0
   18.3478   34.3700   71.6230 C   0  0  0  0  0  0  0  0  0  0  0  0
   19.5138   34.4671   70.9717 N   0  0  0  0  0  0  0  0  0  0  0  0
   20.4892   34.1106   71.7881 O   0  0  0  0  0  0  0  0  0  0  0  0
   20.0073   33.7844   72.9459 N   0  0  0  0  0  0  0  0  0  0  0  0
   18.6654   33.9319   72.8886 C   0  0  0  0  0  0  0  0  0  0  0  0
   17.7468   33.6835   73.9368 N   0  0  0  0  0  0  0  0  0  0  0  0
   17.6508   34.4802   74.5810 H   0  0  0  0  0  0  0  0  0  0  0  0
   18.1568   32.8903   74.5022 H   0  0  0  0  0  0  0  0  0  0  0  0
   16.8094   33.3539   73.5870 H   0  0  0  0  0  0  0  0  0  0  0  0
   17.2900   37.0912   70.6862 C   0  0  0  0  0  0  0  0  0  0  0  0
   19.6534   37.1928   69.8271 N   0  0  0  0  0  0  0  0  0  0  0  0
   18.2541   37.2957   69.6331 C   0  0  0  0  0  0  0  0  0  0  0  0
   17.8650   37.5798   68.4759 O   0  0  0  0  0  0  0  0  0  0  0  0
   19.9881   36.9577   70.7860 H   0  0  0  0  0  0  0  0  0  0  0  0
   21.2930   36.4408   68.3196 C   0  0  0  0  0  0  0  0  0  0  0  0
   20.6015   37.3836   68.8359 N   0  0  0  0  0  0  0  0  0  0  0  0
   25.1927   34.7503   65.2214 Br  0  0  0  0  0  0  0  0  0  0  0  0
   24.0216   36.1064   65.8453 C   0  0  0  0  0  0  0  0  0  0  0  0
   23.1061   35.7950   66.8284 C   0  0  0  0  0  0  0  0  0  0  0  0
   22.2592   36.7569   67.2862 C   0  0  0  0  0  0  0  0  0  0  0  0
   22.2946   38.0615   66.7810 C   0  0  0  0  0  0  0  0  0  0  0  0
   23.2166   38.3446   65.8029 C   0  0  0  0  0  0  0  0  0  0  0  0
   24.0797   37.3887   65.3274 C   0  0  0  0  0  0  0  0  0  0  0  0
   23.3082   40.1121   65.0768 Br  0  0  0  0  0  0  0  0  0  0  0  0
   23.0576   34.5099   67.3388 O   0  0  0  0  0  0  0  0  0  0  0  0
 26 27  1  0  0  0
 27 28  2  0  0  0
 27 32  1  0  0  0
 28 29  1  0  0  0
 28 34  1  0  0  0
 29 30  2  0  0  0
 29 24  1  0  0  0
 30 31  1  0  0  0
 31 32  2  0  0  0
 31 33  1  0  0  0
 24 25  2  0  0  0
 25 20  1  0  0  0
 20 21  1  0  0  0
 21 22  2  0  0  0
 21 19  1  0  0  0
 19  1  1  0  0  0
  1  2  1  0  0  0
  1  5  1  0  0  0
  2  3  2  0  0  0
  2  9  1  0  0  0
  3  4  1  0  0  0
  3  6  1  0  0  0
  4  5  2  0  0  0
  5 10  1  0  0  0
 10 11  2  0  0  0
 10 14  1  0  0  0
 11 12  1  0  0  0
 12 13  1  0  0  0
 13 14  2  0  0  0
 14 15  1  0  0  0
  6  7  2  0  0  0
  7  8  1  0  0  0
  8  9  2  0  0  0
 20 23  1  0  0  0
 15 16  1  0  0  0
 15 17  1  0  0  0
 15 18  1  0  0  0
M  CHG 1  15   1
M  CHG 1  34  -1
M  END
> <minimizedAffinity>
-9.71649

$$$$
11


 36 39  0  0  0  0  0  0  0  0999 V2000
   21.1907   36.5053   71.0126 C   0  0  0  0  0  0  0  0  0  0  0  0
   20.9434   36.9204   69.6939 N   0  0  0  0  0  0  0  0  0  0  0  0
   19.6481   37.2146   69.2960 C   0  0  0  0  0  0  0  0  0  0  0  0
   19.7015   37.5548   67.9961 C   0  0  0  0  0  0  0  0  0  0  0  0
   20.9689   37.4673   67.6243 N   0  0  0  0  0  0  0  0  0  0  0  0
   21.7644   37.0686   68.6889 C   0  0  0  0  0  0  0  0  0  0  0  0
   18.5767   37.9090   67.2674 C   0  0  0  0  0  0  0  0  0  0  0  0
   17.3809   37.8986   67.9444 C   0  0  0  0  0  0  0  0  0  0  0  0
   17.2695   37.5609   69.2795 C   0  0  0  0  0  0  0  0  0  0  0  0
   18.4329   37.2119   69.9630 C   0  0  0  0  0  0  0  0  0  0  0  0
   23.1809   36.9166   68.4094 C   0  0  0  0  0  0  0  0  0  0  0  0
   24.1628   37.2318   69.3466 N   0  0  0  0  0  0  0  0  0  0  0  0
   25.3200   36.9919   68.8783 O   0  0  0  0  0  0  0  0  0  0  0  0
   25.2353   36.5368   67.6930 N   0  0  0  0  0  0  0  0  0  0  0  0
   23.9007   36.4727   67.3604 C   0  0  0  0  0  0  0  0  0  0  0  0
   23.4669   35.9839   66.1101 N   0  0  0  0  0  0  0  0  0  0  0  0
   24.3193   35.5241   65.6128 H   0  0  0  0  0  0  0  0  0  0  0  0
   23.2257   36.7661   65.4895 H   0  0  0  0  0  0  0  0  0  0  0  0
   22.8252   35.2017   66.2114 H   0  0  0  0  0  0  0  0  0  0  0  0
   19.9916   34.5705   71.7512 N   0  0  0  0  0  0  0  0  0  0  0  0
   21.1443   34.9682   71.1573 C   0  0  0  0  0  0  0  0  0  0  0  0
   22.1499   34.4187   70.7123 O   0  0  0  0  0  0  0  0  0  0  0  0
   20.4306   33.2424   71.6104 H   0  0  0  0  0  0  0  0  0  0  0  0
   17.8994   33.8735   72.7299 C   0  0  0  0  0  0  0  0  0  0  0  0
   18.9443   34.2057   72.2902 N   0  0  0  0  0  0  0  0  0  0  0  0
   13.8977   36.0982   70.0228 Br  0  0  0  0  0  0  0  0  0  0  0  0
   14.6611   34.6661   71.0073 C   0  0  0  0  0  0  0  0  0  0  0  0
   13.9220   33.5348   71.2737 C   0  0  0  0  0  0  0  0  0  0  0  0
   14.5058   32.4887   72.0283 C   0  0  0  0  0  0  0  0  0  0  0  0
   15.7890   32.6629   72.4590 C   0  0  0  0  0  0  0  0  0  0  0  0
   16.5768   33.7967   72.2133 C   0  0  0  0  0  0  0  0  0  0  0  0
   15.9565   34.7791   71.4734 C   0  0  0  0  0  0  0  0  0  0  0  0
   12.6371   33.3575   70.8496 O   0  0  0  0  0  0  0  0  0  0  0  0
   13.7399   31.3664   72.2823 O   0  0  0  0  0  0  0  0  0  0  0  0
   13.9760   30.5164   73.3519 C   0  0  0  0  0  0  0  0  0  0  0  0
   12.9728   30.5623   74.4696 C   0  0  0  0  0  0  0  0  0  0  0  0
 26 27  1  0  0  0
 27 28  2  0  0  0
 27 32  1  0  0  0
 28 29  1  0  0  0
 28 33  1  0  0  0
 29 30  2  0  0  0
 29 34  1  0  0  0
 30 31  1  0  0  0
 31 32  2  0  0  0
 31 24  1  0  0  0
 24 25  2  0  0  0
 25 20  1  0  0  0
 20 21  1  0  0  0
 21 22  2  0  0  0
 21  1  1  0  0  0
  1  2  1  0  0  0
  2  3  1  0  0  0
  2  6  1  0  0  0
  3  4  2  0  0  0
  3 10  1  0  0  0
  4  5  1  0  0  0
  4  7  1  0  0  0
  5  6  2  0  0  0
  6 11  1  0  0  0
 11 12  2  0  0  0
 11 15  1  0  0  0
 12 13  1  0  0  0
 13 14  1  0  0  0
 14 15  2  0  0  0
 15 16  1  0  0  0
  7  8  2  0  0  0
  8  9  1  0  0  0
  9 10  2  0  0  0
 34 35  1  0  0  0
 35 36  1  0  0  0
 20 23  1  0  0  0
 16 17  1  0  0  0
 16 18  1  0  0  0
 16 19  1  0  0  0
M  CHG 1  16   1
M  CHG 1  33  -1
M  END
> <minimizedAffinity>
-9.57224

$$$$
17


 38 41  0  0  0  0  0  0  0  0999 V2000
   17.0430   36.8699   70.0914 C   0  0  0  0  0  0  0  0  0  0  0  0
   16.0245   37.7085   70.3218 N   0  0  0  0  0  0  0  0  0  0  0  0
   14.9741   37.0279   70.7099 N   0  0  0  0  0  0  0  0  0  0  0  0
   15.2510   35.7121   70.7541 N   0  0  0  0  0  0  0  0  0  0  0  0
   16.5265   35.5912   70.3749 C   0  0  0  0  0  0  0  0  0  0  0  0
   14.2860   34.7213   71.1238 C   0  0  0  0  0  0  0  0  0  0  0  0
   14.4082   33.7072   71.9948 N   0  0  0  0  0  0  0  0  0  0  0  0
   13.2793   33.0408   72.0400 O   0  0  0  0  0  0  0  0  0  0  0  0
   12.4000   33.5741   71.2260 N   0  0  0  0  0  0  0  0  0  0  0  0
   13.0030   34.6251   70.6417 C   0  0  0  0  0  0  0  0  0  0  0  0
   12.3640   35.4638   69.6921 N   0  0  0  0  0  0  0  0  0  0  0  0
   12.3321   35.2673   68.6708 H   0  0  0  0  0  0  0  0  0  0  0  0
   11.8796   36.3477   69.9947 H   0  0  0  0  0  0  0  0  0  0  0  0
   18.7114   37.3348   68.2774 N   0  0  0  0  0  0  0  0  0  0  0  0
   18.3960   37.1754   69.6454 C   0  0  0  0  0  0  0  0  0  0  0  0
   19.3001   37.2994   70.4947 O   0  0  0  0  0  0  0  0  0  0  0  0
   17.9306   37.2258   67.5678 H   0  0  0  0  0  0  0  0  0  0  0  0
   20.5267   37.0503   66.7918 C   0  0  0  0  0  0  0  0  0  0  0  0
   19.9624   37.6227   67.7904 N   0  0  0  0  0  0  0  0  0  0  0  0
   25.1786   35.2702   65.1173 Br  0  0  0  0  0  0  0  0  0  0  0  0
   24.0025   36.6970   65.5781 C   0  0  0  0  0  0  0  0  0  0  0  0
   24.4006   38.0263   65.4929 C   0  0  0  0  0  0  0  0  0  0  0  0
   23.5566   39.0614   65.8244 C   0  0  0  0  0  0  0  0  0  0  0  0
   22.2903   38.7372   66.2493 C   0  0  0  0  0  0  0  0  0  0  0  0
   21.8595   37.4234   66.3464 C   0  0  0  0  0  0  0  0  0  0  0  0
   22.7373   36.4187   66.0042 C   0  0  0  0  0  0  0  0  0  0  0  0
   25.6951   38.2938   65.0572 O   0  0  0  0  0  0  0  0  0  0  0  0
   26.0135   39.2527   64.9846 H   0  0  0  0  0  0  0  0  0  0  0  0
   24.0181   40.3515   65.7161 O   0  0  0  0  0  0  0  0  0  0  0  0
   23.2593   41.5159   65.7338 C   0  0  0  0  0  0  0  0  0  0  0  0
   22.8234   42.0080   64.3915 C   0  0  0  0  0  0  0  0  0  0  0  0
   17.3309   34.3785   70.2159 C   0  0  0  0  0  0  0  0  0  0  0  0
   18.2679   34.0730   71.2672 N   0  0  0  0  0  0  0  0  0  0  0  0
   17.7011   32.8945   71.9352 C   0  0  0  0  0  0  0  0  0  0  0  0
   17.5550   31.7010   71.0775 C   0  0  0  0  0  0  0  0  0  0  0  0
   18.5542   31.6394   70.1185 O   0  0  0  0  0  0  0  0  0  0  0  0
   19.7016   32.1850   70.6523 C   0  0  0  0  0  0  0  0  0  0  0  0
   19.5542   33.6937   70.6785 C   0  0  0  0  0  0  0  0  0  0  0  0
 20 21  1  0  0  0
 21 22  2  0  0  0
 21 26  1  0  0  0
 22 23  1  0  0  0
 22 27  1  0  0  0
 23 24  2  0  0  0
 23 29  1  0  0  0
 24 25  1  0  0  0
 25 26  2  0  0  0
 25 18  1  0  0  0
 18 19  2  0  0  0
 19 14  1  0  0  0
 14 15  1  0  0  0
 15 16  2  0  0  0
 15  1  1  0  0  0
  1  2  1  0  0  0
  1  5  2  0  0  0
  2  3  2  0  0  0
  3  4  1  0  0  0
  4  5  1  0  0  0
  4  6  1  0  0  0
  5 32  1  0  0  0
 32 33  1  0  0  0
 33 34  1  0  0  0
 33 38  1  0  0  0
 34 35  1  0  0  0
 35 36  1  0  0  0
 36 37  1  0  0  0
 37 38  1  0  0  0
  6  7  2  0  0  0
  6 10  1  0  0  0
  7  8  1  0  0  0
  8  9  1  0  0  0
  9 10  2  0  0  0
 10 11  1  0  0  0
 29 30  1  0  0  0
 30 31  1  0  0  0
 14 17  1  0  0  0
 11 12  1  0  0  0
 11 13  1  0  0  0
 27 28  1  0  0  0
M  END
> <minimizedAffinity>
-8.90615

$$$$
18


 37 40  0  0  0  0  0  0  0  0999 V2000
   21.8906   37.8367   66.6883 C   0  0  0  0  0  0  0  0  0  0  0  0
   22.4693   38.7227   65.9569 N   0  0  0  0  0  0  0  0  0  0  0  0
   23.5699   38.2201   65.4238 N   0  0  0  0  0  0  0  0  0  0  0  0
   23.7076   36.9675   65.8341 N   0  0  0  0  0  0  0  0  0  0  0  0
   22.7274   36.6043   66.6488 C   0  0  0  0  0  0  0  0  0  0  0  0
   24.5576   36.0516   65.1009 C   0  0  0  0  0  0  0  0  0  0  0  0
   24.4701   35.4713   63.9778 N   0  0  0  0  0  0  0  0  0  0  0  0
   25.5006   34.6582   63.7424 O   0  0  0  0  0  0  0  0  0  0  0  0
   26.2663   34.7402   64.7696 N   0  0  0  0  0  0  0  0  0  0  0  0
   25.7754   35.5807   65.6812 C   0  0  0  0  0  0  0  0  0  0  0  0
   26.3125   35.9168   66.9349 N   0  0  0  0  0  0  0  0  0  0  0  0
   25.8813   35.6228   67.8295 H   0  0  0  0  0  0  0  0  0  0  0  0
   27.2164   36.4909   67.0334 H   0  0  0  0  0  0  0  0  0  0  0  0
   20.2774   37.4969   68.5787 N   0  0  0  0  0  0  0  0  0  0  0  0
   20.5445   37.6035   67.1617 C   0  0  0  0  0  0  0  0  0  0  0  0
   19.6173   37.5755   66.3535 O   0  0  0  0  0  0  0  0  0  0  0  0
   20.6361   37.3119   69.4181 H   0  0  0  0  0  0  0  0  0  0  0  0
   18.3799   36.8531   69.4387 C   0  0  0  0  0  0  0  0  0  0  0  0
   18.7336   37.8931   68.6601 N   0  0  0  0  0  0  0  0  0  0  0  0
   13.2017   36.4995   69.5755 Br  0  0  0  0  0  0  0  0  0  0  0  0
   14.9584   36.0281   70.2222 C   0  0  0  0  0  0  0  0  0  0  0  0
   15.0633   35.1203   71.2546 C   0  0  0  0  0  0  0  0  0  0  0  0
   16.2958   34.7527   71.7187 C   0  0  0  0  0  0  0  0  0  0  0  0
   17.4020   35.3184   71.1276 C   0  0  0  0  0  0  0  0  0  0  0  0
   17.3520   36.2338   70.0918 C   0  0  0  0  0  0  0  0  0  0  0  0
   16.0222   36.5769   69.6465 C   0  0  0  0  0  0  0  0  0  0  0  0
   13.9040   34.5823   71.8206 O   0  0  0  0  0  0  0  0  0  0  0  0
   12.9846   34.9229   71.4672 H   0  0  0  0  0  0  0  0  0  0  0  0
   16.4442   33.8215   72.7535 O   0  0  0  0  0  0  0  0  0  0  0  0
   17.7277   33.7034   73.4000 C   0  0  0  0  0  0  0  0  0  0  0  0
   22.3082   35.3716   67.2510 C   0  0  0  0  0  0  0  0  0  0  0  0
   22.4493   35.2320   68.7019 N   0  0  0  0  0  0  0  0  0  0  0  0
   23.6642   34.5813   69.0708 C   0  0  0  0  0  0  0  0  0  0  0  0
   23.7423   33.1295   68.6945 C   0  0  0  0  0  0  0  0  0  0  0  0
   22.9291   32.3885   69.5353 O   0  0  0  0  0  0  0  0  0  0  0  0
   21.9099   33.1871   70.0665 C   0  0  0  0  0  0  0  0  0  0  0  0
   21.4291   34.1431   69.0270 C   0  0  0  0  0  0  0  0  0  0  0  0
 20 21  1  0  0  0
 21 22  2  0  0  0
 21 26  1  0  0  0
 22 23  1  0  0  0
 22 27  1  0  0  0
 23 24  2  0  0  0
 23 29  1  0  0  0
 24 25  1  0  0  0
 25 26  2  0  0  0
 25 18  1  0  0  0
 18 19  2  0  0  0
 19 14  1  0  0  0
 14 15  1  0  0  0
 15 16  2  0  0  0
 15  1  1  0  0  0
  1  2  1  0  0  0
  1  5  2  0  0  0
  2  3  2  0  0  0
  3  4  1  0  0  0
  4  5  1  0  0  0
  4  6  1  0  0  0
  5 31  1  0  0  0
 31 32  1  0  0  0
 32 33  1  0  0  0
 32 37  1  0  0  0
 33 34  1  0  0  0
 34 35  1  0  0  0
 35 36  1  0  0  0
 36 37  1  0  0  0
  6  7  2  0  0  0
  6 10  1  0  0  0
  7  8  1  0  0  0
  8  9  1  0  0  0
  9 10  2  0  0  0
 10 11  1  0  0  0
 29 30  1  0  0  0
 14 17  1  0  0  0
 11 12  1  0  0  0
 11 13  1  0  0  0
 27 28  1  0  0  0
M  END
> <minimizedAffinity>
-9.24853

$$$$
20


 34 37  0  0  0  0  0  0  0  0999 V2000
   17.1385   33.4956   72.9562 C   0  0  0  0  0  0  0  0  0  0  0  0
   16.4038   34.3351   72.2515 N   0  0  0  0  0  0  0  0  0  0  0  0
   15.1925   33.9581   71.7511 C   0  0  0  0  0  0  0  0  0  0  0  0
   14.8095   32.6890   72.0275 N   0  0  0  0  0  0  0  0  0  0  0  0
   15.5158   31.7894   72.7379 C   0  0  0  0  0  0  0  0  0  0  0  0
   16.7085   32.2277   73.2002 N   0  0  0  0  0  0  0  0  0  0  0  0
   14.9948   30.5614   73.1061 N   0  0  0  0  0  0  0  0  0  0  0  0
   13.8690   30.2544   73.9007 C   0  0  0  0  0  0  0  0  0  0  0  0
   14.3901   29.4862   75.1187 C   0  0  0  0  0  0  0  0  0  0  0  0
   15.1056   28.4045   74.6551 O   0  0  0  0  0  0  0  0  0  0  0  0
   16.2102   28.7036   73.8911 C   0  0  0  0  0  0  0  0  0  0  0  0
   15.7360   29.3796   72.5725 C   0  0  0  0  0  0  0  0  0  0  0  0
   14.3369   34.8527   71.0659 N   0  0  0  0  0  0  0  0  0  0  0  0
   13.0177   34.3878   70.6083 C   0  0  0  0  0  0  0  0  0  0  0  0
   12.9061   34.8885   69.1452 C   0  0  0  0  0  0  0  0  0  0  0  0
   12.8292   36.2475   69.2553 O   0  0  0  0  0  0  0  0  0  0  0  0
   13.9925   36.8391   69.6607 C   0  0  0  0  0  0  0  0  0  0  0  0
   14.7322   36.1774   70.7767 C   0  0  0  0  0  0  0  0  0  0  0  0
   18.3546   33.8797   73.7101 N   0  0  0  0  0  0  0  0  0  0  0  0
   18.2442   33.9345   74.7036 H   0  0  0  0  0  0  0  0  0  0  0  0
   20.2536   34.1990   72.1637 C   0  0  0  0  0  0  0  0  0  0  0  0
   19.3554   34.0562   72.8851 N   0  0  0  0  0  0  0  0  0  0  0  0
   23.7871   36.2967   68.8203 Br  0  0  0  0  0  0  0  0  0  0  0  0
   22.0041   36.1525   69.5142 C   0  0  0  0  0  0  0  0  0  0  0  0
   21.0391   37.0160   69.0747 C   0  0  0  0  0  0  0  0  0  0  0  0
   19.7491   36.9200   69.5925 C   0  0  0  0  0  0  0  0  0  0  0  0
   19.4513   35.9583   70.5477 C   0  0  0  0  0  0  0  0  0  0  0  0
   20.4082   35.0974   71.0011 C   0  0  0  0  0  0  0  0  0  0  0  0
   21.6718   35.2144   70.4669 C   0  0  0  0  0  0  0  0  0  0  0  0
   21.3840   37.9575   68.1284 O   0  0  0  0  0  0  0  0  0  0  0  0
   22.2960   38.0636   67.7543 H   0  0  0  0  0  0  0  0  0  0  0  0
   18.8515   37.8118   69.0945 O   0  0  0  0  0  0  0  0  0  0  0  0
   17.5549   37.6102   68.6561 C   0  0  0  0  0  0  0  0  0  0  0  0
   17.1821   38.5037   67.4822 C   0  0  0  0  0  0  0  0  0  0  0  0
 23 24  1  0  0  0
 24 25  2  0  0  0
 24 29  1  0  0  0
 25 26  1  0  0  0
 25 30  1  0  0  0
 26 27  2  0  0  0
 26 32  1  0  0  0
 27 28  1  0  0  0
 28 29  2  0  0  0
 28 21  1  0  0  0
 21 22  2  0  0  0
 22 19  1  0  0  0
 19  1  1  0  0  0
  1  2  2  0  0  0
  1  6  1  0  0  0
  2  3  1  0  0  0
  3  4  2  0  0  0
  3 13  1  0  0  0
  4  5  1  0  0  0
  5  6  2  0  0  0
  5  7  1  0  0  0
  7  8  1  0  0  0
  7 12  1  0  0  0
  8  9  1  0  0  0
  9 10  1  0  0  0
 10 11  1  0  0  0
 11 12  1  0  0  0
 13 14  1  0  0  0
 13 18  1  0  0  0
 14 15  1  0  0  0
 15 16  1  0  0  0
 16 17  1  0  0  0
 17 18  1  0  0  0
 32 33  1  0  0  0
 33 34  1  0  0  0
 19 20  1  0  0  0
 30 31  1  0  0  0
M  END
> <minimizedAffinity>
-8.81104

$$$$
23


 37 40  0  0  0  0  0  0  0  0999 V2000
   17.8328   33.8971   72.0415 C   0  0  0  0  0  0  0  0  0  0  0  0
   17.3157   32.5692   72.2968 N   0  0  0  0  0  0  0  0  0  0  0  0
   17.9206   31.6139   71.4733 C   0  0  0  0  0  0  0  0  0  0  0  0
   17.5976   30.4207   71.3744 O   0  0  0  0  0  0  0  0  0  0  0  0
   19.0036   32.2776   70.7468 C   0  0  0  0  0  0  0  0  0  0  0  0
   19.7348   31.6751   69.9196 O   0  0  0  0  0  0  0  0  0  0  0  0
   19.0357   33.6639   71.1610 C   0  0  0  0  0  0  0  0  0  0  0  0
   19.9260   34.5425   70.7867 C   0  0  0  0  0  0  0  0  0  0  0  0
   19.8076   35.8586   71.2038 O   0  0  0  0  0  0  0  0  0  0  0  0
   21.0471   34.1892   69.9509 C   0  0  0  0  0  0  0  0  0  0  0  0
   22.1210   33.5986   70.6295 C   0  0  0  0  0  0  0  0  0  0  0  0
   23.2410   33.1785   69.9556 C   0  0  0  0  0  0  0  0  0  0  0  0
   23.3254   33.3349   68.5918 C   0  0  0  0  0  0  0  0  0  0  0  0
   22.2537   33.9210   67.9445 C   0  0  0  0  0  0  0  0  0  0  0  0
   21.1209   34.3472   68.6035 C   0  0  0  0  0  0  0  0  0  0  0  0
   24.5695   32.8226   68.1684 O   0  0  0  0  0  0  0  0  0  0  0  0
   25.4176   32.7040   69.3062 C   0  0  0  0  0  0  0  0  0  0  0  0
   24.4877   32.5382   70.4861 C   0  0  0  0  0  0  0  0  0  0  0  0
   26.2356   33.9601   69.5397 C   0  0  0  0  0  0  0  0  0  0  0  0
   12.8743   34.2999   70.0600 Br  0  0  0  0  0  0  0  0  0  0  0  0
   14.6275   34.9432   70.3878 C   0  0  0  0  0  0  0  0  0  0  0  0
   14.9840   36.2115   69.9078 C   0  0  0  0  0  0  0  0  0  0  0  0
   16.2685   36.6830   70.1470 C   0  0  0  0  0  0  0  0  0  0  0  0
   17.1315   35.8987   70.8365 C   0  0  0  0  0  0  0  0  0  0  0  0
   16.7774   34.6454   71.3099 C   0  0  0  0  0  0  0  0  0  0  0  0
   15.5153   34.1522   71.0892 C   0  0  0  0  0  0  0  0  0  0  0  0
   14.0995   36.9955   69.2112 O   0  0  0  0  0  0  0  0  0  0  0  0
   14.3715   37.8877   68.8792 H   0  0  0  0  0  0  0  0  0  0  0  0
   16.6285   37.9464   69.6710 O   0  0  0  0  0  0  0  0  0  0  0  0
   17.3758   38.1428   68.5015 C   0  0  0  0  0  0  0  0  0  0  0  0
   16.2919   32.3393   73.2953 C   0  0  0  0  0  0  0  0  0  0  0  0
   15.5262   31.0899   73.1789 C   0  0  0  0  0  0  0  0  0  0  0  0
   14.0487   31.1822   73.0794 C   0  0  0  0  0  0  0  0  0  0  0  0
   13.3504   29.9913   73.4966 N   0  0  0  0  0  0  0  0  0  0  0  0
   12.5939   30.2863   74.7222 C   0  0  0  0  0  0  0  0  0  0  0  0
   14.3556   29.0038   73.8458 C   0  0  0  0  0  0  0  0  0  0  0  0
   12.7397   29.5729   72.7896 H   0  0  0  0  0  0  0  0  0  0  0  0
 20 21  1  0  0  0
 21 22  2  0  0  0
 21 26  1  0  0  0
 22 23  1  0  0  0
 22 27  1  0  0  0
 23 24  2  0  0  0
 23 29  1  0  0  0
 24 25  1  0  0  0
 25 26  2  0  0  0
 25  1  1  0  0  0
  1  2  1  0  0  0
  1  7  1  0  0  0
  2  3  1  0  0  0
  2 31  1  0  0  0
  3  4  2  0  0  0
  3  5  1  0  0  0
  5  6  2  0  0  0
  5  7  1  0  0  0
  7  8  2  0  0  0
  8  9  1  0  0  0
  8 10  1  0  0  0
 10 11  2  0  0  0
 10 15  1  0  0  0
 11 12  1  0  0  0
 12 13  2  0  0  0
 12 18  1  0  0  0
 13 14  1  0  0  0
 13 16  1  0  0  0
 14 15  2  0  0  0
 16 17  1  0  0  0
 17 18  1  0  0  0
 17 19  1  0  0  0
 31 32  1  0  0  0
 32 33  1  0  0  0
 33 34  1  0  0  0
 34 35  1  0  0  0
 34 36  1  0  0  0
 29 30  1  0  0  0
 34 37  1  0  0  0
 27 28  1  0  0  0
M  CHG 1   9  -1
M  CHG 1  34   1
M  END
> <minimizedAffinity>
-9.08088

$$$$
26


 29 32  0  0  0  0  0  0  0  0999 V2000
   17.8925   33.3357   73.0313 C   0  0  0  0  0  0  0  0  0  0  0  0
   17.9014   31.9523   73.2694 N   0  0  0  0  0  0  0  0  0  0  0  0
   16.7341   31.1939   73.0250 C   0  0  0  0  0  0  0  0  0  0  0  0
   15.4500   31.9775   72.9843 C   0  0  0  0  0  0  0  0  0  0  0  0
   15.5835   33.2220   72.1906 C   0  0  0  0  0  0  0  0  0  0  0  0
   14.7115   33.9005   71.3827 C   0  0  0  0  0  0  0  0  0  0  0  0
   15.4260   34.9926   70.9222 C   0  0  0  0  0  0  0  0  0  0  0  0
   16.6804   34.9550   71.4457 N   0  0  0  0  0  0  0  0  0  0  0  0
   16.7805   33.8699   72.2249 C   0  0  0  0  0  0  0  0  0  0  0  0
   14.7652   35.8545   70.0732 C   0  0  0  0  0  0  0  0  0  0  0  0
   13.4556   35.6411   69.6989 C   0  0  0  0  0  0  0  0  0  0  0  0
   12.7448   34.5517   70.1587 C   0  0  0  0  0  0  0  0  0  0  0  0
   13.3935   33.6757   71.0134 C   0  0  0  0  0  0  0  0  0  0  0  0
   18.7110   31.4733   72.7798 H   0  0  0  0  0  0  0  0  0  0  0  0
   18.1652   31.8038   74.2962 H   0  0  0  0  0  0  0  0  0  0  0  0
   17.3802   35.6950   71.2201 H   0  0  0  0  0  0  0  0  0  0  0  0
   22.3750   31.5773   70.7502 Br  0  0  0  0  0  0  0  0  0  0  0  0
   21.2011   32.9757   71.2795 C   0  0  0  0  0  0  0  0  0  0  0  0
   21.5244   34.2834   71.0082 C   0  0  0  0  0  0  0  0  0  0  0  0
   20.6537   35.2768   71.4037 C   0  0  0  0  0  0  0  0  0  0  0  0
   19.4668   35.0382   72.0621 C   0  0  0  0  0  0  0  0  0  0  0  0
   19.1489   33.7238   72.3304 C   0  0  0  0  0  0  0  0  0  0  0  0
   20.0009   32.7117   71.9464 C   0  0  0  0  0  0  0  0  0  0  0  0
   21.1235   37.0832   71.0175 Br  0  0  0  0  0  0  0  0  0  0  0  0
   22.7206   34.6110   70.3386 O   0  0  0  0  0  0  0  0  0  0  0  0
   23.3299   33.8520   70.0673 H   0  0  0  0  0  0  0  0  0  0  0  0
   16.8100   30.4084   71.7625 C   0  0  0  0  0  0  0  0  0  0  0  0
   16.1480   29.3196   71.6625 O   0  0  0  0  0  0  0  0  0  0  0  0
   17.5964   30.8633   70.7165 O   0  0  0  0  0  0  0  0  0  0  0  0
 17 18  1  0  0  0
 18 19  2  0  0  0
 18 23  1  0  0  0
 19 20  1  0  0  0
 19 25  1  0  0  0
 20 21  2  0  0  0
 20 24  1  0  0  0
 21 22  1  0  0  0
 22 23  2  0  0  0
 22  1  1  0  0  0
  1  2  1  0  0  0
  1  9  1  0  0  0
  2  3  1  0  0  0
  3  4  1  0  0  0
  3 27  1  0  0  0
  4  5  1  0  0  0
  5  6  1  0  0  0
  5  9  2  0  0  0
  6  7  2  0  0  0
  6 13  1  0  0  0
  7  8  1  0  0  0
  7 10  1  0  0  0
  8  9  1  0  0  0
 10 11  2  0  0  0
 11 12  1  0  0  0
 12 13  2  0  0  0
 27 28  2  0  0  0
 27 29  1  0  0  0
  2 14  1  0  0  0
  2 15  1  0  0  0
  8 16  1  0  0  0
 25 26  1  0  0  0
M  CHG 1   2   1
M  END
> <minimizedAffinity>
-9.38080

$$$$
31


 24 27  0  0  0  0  0  0  0  0999 V2000
   13.6225   36.8601   69.6825 Br  0  0  0  0  0  0  0  0  0  0  0  0
   15.5203   36.6333   69.8730 C   0  0  0  0  0  0  0  0  0  0  0  0
   16.0353   35.6650   70.6592 C   0  0  0  0  0  0  0  0  0  0  0  0
   17.4441   35.5474   70.8422 C   0  0  0  0  0  0  0  0  0  0  0  0
   18.2365   36.4417   70.2097 C   0  0  0  0  0  0  0  0  0  0  0  0
   17.6888   37.4326   69.4187 C   0  0  0  0  0  0  0  0  0  0  0  0
   16.3436   37.5394   69.2398 C   0  0  0  0  0  0  0  0  0  0  0  0
   17.8092   34.7291   72.0150 C   0  0  0  0  0  0  0  0  0  0  0  0
   18.4173   33.4701   71.8741 N   0  0  0  0  0  0  0  0  0  0  0  0
   18.3103   32.7278   70.7209 C   0  0  0  0  0  0  0  0  0  0  0  0
   19.1358   31.5230   70.7614 N   0  0  0  0  0  0  0  0  0  0  0  0
   18.7082   30.7386   71.9081 C   0  0  0  0  0  0  0  0  0  0  0  0
   18.7708   31.4952   73.1414 N   0  0  0  0  0  0  0  0  0  0  0  0
   18.0376   32.6981   73.1067 C   0  0  0  0  0  0  0  0  0  0  0  0
   20.1637   31.7690   73.4282 C   0  0  0  0  0  0  0  0  0  0  0  0
   20.6905   32.5554   72.2542 C   0  0  0  0  0  0  0  0  0  0  0  0
   19.8671   33.7833   72.1278 C   0  0  0  0  0  0  0  0  0  0  0  0
   20.5408   31.7964   70.9384 C   0  0  0  0  0  0  0  0  0  0  0  0
   15.2389   34.7807   71.2949 O   0  0  0  0  0  0  0  0  0  0  0  0
   14.7350   33.5740   70.6872 C   0  0  0  0  0  0  0  0  0  0  0  0
   13.5034   33.0122   71.2351 C   0  0  0  0  0  0  0  0  0  0  0  0
   12.4337   33.5993   71.3144 O   0  0  0  0  0  0  0  0  0  0  0  0
   13.5445   31.6838   71.6732 O   0  0  0  0  0  0  0  0  0  0  0  0
   14.5654   30.7905   71.3164 C   0  0  0  0  0  0  0  0  0  0  0  0
  1  2  1  0  0  0
  2  3  2  0  0  0
  2  7  1  0  0  0
  3  4  1  0  0  0
  3 19  1  0  0  0
  4  5  2  0  0  0
  4  8  1  0  0  0
  5  6  1  0  0  0
  6  7  2  0  0  0
  8  9  1  0  0  0
  9 10  1  0  0  0
  9 14  1  0  0  0
  9 17  1  0  0  0
 10 11  1  0  0  0
 11 12  1  0  0  0
 11 18  1  0  0  0
 12 13  1  0  0  0
 13 14  1  0  0  0
 13 15  1  0  0  0
 15 16  1  0  0  0
 16 17  1  0  0  0
 16 18  1  0  0  0
 19 20  1  0  0  0
 20 21  1  0  0  0
 21 22  2  0  0  0
 21 23  1  0  0  0
 23 24  1  0  0  0
M  CHG 1   9   1
M  END
> <minimizedAffinity>
-6.87551

$$$$
33


 33 36  0  0  0  0  0  0  0  0999 V2000
   19.5713   37.1019   68.8453 C   0  0  0  0  0  0  0  0  0  0  0  0
   20.2796   37.6615   67.8775 N   0  0  0  0  0  0  0  0  0  0  0  0
   21.5396   37.3142   67.5625 C   0  0  0  0  0  0  0  0  0  0  0  0
   22.0966   36.3260   68.2960 N   0  0  0  0  0  0  0  0  0  0  0  0
   21.4194   35.7118   69.3028 C   0  0  0  0  0  0  0  0  0  0  0  0
   20.1511   36.1160   69.5623 N   0  0  0  0  0  0  0  0  0  0  0  0
   22.0185   34.6930   70.0706 N   0  0  0  0  0  0  0  0  0  0  0  0
   21.3251   34.0796   71.1742 C   0  0  0  0  0  0  0  0  0  0  0  0
   21.3902   32.5692   70.9041 C   0  0  0  0  0  0  0  0  0  0  0  0
   22.7056   32.2072   70.6963 O   0  0  0  0  0  0  0  0  0  0  0  0
   23.1661   32.7151   69.4823 C   0  0  0  0  0  0  0  0  0  0  0  0
   23.3421   34.2263   69.7447 C   0  0  0  0  0  0  0  0  0  0  0  0
   22.2711   37.9549   66.5042 N   0  0  0  0  0  0  0  0  0  0  0  0
   22.0036   39.3136   66.1271 C   0  0  0  0  0  0  0  0  0  0  0  0
   22.9731   39.9524   65.2110 C   0  0  0  0  0  0  0  0  0  0  0  0
   23.8092   39.0666   64.5457 O   0  0  0  0  0  0  0  0  0  0  0  0
   24.3842   38.1427   65.4076 C   0  0  0  0  0  0  0  0  0  0  0  0
   23.2845   37.1989   65.8288 C   0  0  0  0  0  0  0  0  0  0  0  0
   18.2543   37.5585   69.1275 N   0  0  0  0  0  0  0  0  0  0  0  0
   18.0562   38.5659   69.1129 H   0  0  0  0  0  0  0  0  0  0  0  0
   16.8063   36.4255   70.6115 C   0  0  0  0  0  0  0  0  0  0  0  0
   17.2453   36.6569   69.4221 N   0  0  0  0  0  0  0  0  0  0  0  0
   15.1904   31.7086   72.5936 Br  0  0  0  0  0  0  0  0  0  0  0  0
   14.8847   33.3777   71.7361 C   0  0  0  0  0  0  0  0  0  0  0  0
   13.5887   33.6913   71.3577 C   0  0  0  0  0  0  0  0  0  0  0  0
   13.3927   34.9073   70.7314 C   0  0  0  0  0  0  0  0  0  0  0  0
   14.4387   35.7616   70.4962 C   0  0  0  0  0  0  0  0  0  0  0  0
   15.7500   35.4687   70.8696 C   0  0  0  0  0  0  0  0  0  0  0  0
   15.9265   34.2523   71.4921 C   0  0  0  0  0  0  0  0  0  0  0  0
   14.2332   36.9904   69.8601 O   0  0  0  0  0  0  0  0  0  0  0  0
   12.5185   32.8304   71.5910 O   0  0  0  0  0  0  0  0  0  0  0  0
   13.2888   37.2318   69.5749 H   0  0  0  0  0  0  0  0  0  0  0  0
   12.6082   31.9359   72.0488 H   0  0  0  0  0  0  0  0  0  0  0  0
 23 24  1  0  0  0
 24 25  2  0  0  0
 24 29  1  0  0  0
 25 26  1  0  0  0
 25 31  1  0  0  0
 26 27  2  0  0  0
 27 28  1  0  0  0
 27 30  1  0  0  0
 28 29  2  0  0  0
 28 21  1  0  0  0
 21 22  2  0  0  0
 22 19  1  0  0  0
 19  1  1  0  0  0
  1  2  2  0  0  0
  1  6  1  0  0  0
  2  3  1  0  0  0
  3  4  2  0  0  0
  3 13  1  0  0  0
  4  5  1  0  0  0
  5  6  2  0  0  0
  5  7  1  0  0  0
  7  8  1  0  0  0
  7 12  1  0  0  0
  8  9  1  0  0  0
  9 10  1  0  0  0
 10 11  1  0  0  0
 11 12  1  0  0  0
 13 14  1  0  0  0
 13 18  1  0  0  0
 14 15  1  0  0  0
 15 16  1  0  0  0
 16 17  1  0  0  0
 17 18  1  0  0  0
 19 20  1  0  0  0
 30 32  1  0  0  0
 31 33  1  0  0  0
M  END
> <minimizedAffinity>
-9.07134

$$$$
35


 33 36  0  0  0  0  0  0  0  0999 V2000
   19.3305   36.8750   69.3452 C   0  0  0  0  0  0  0  0  0  0  0  0
   19.9105   35.9104   70.0654 N   0  0  0  0  0  0  0  0  0  0  0  0
   21.1286   35.3986   69.7442 C   0  0  0  0  0  0  0  0  0  0  0  0
   21.7678   35.8798   68.6663 N   0  0  0  0  0  0  0  0  0  0  0  0
   21.2126   36.8484   67.9227 C   0  0  0  0  0  0  0  0  0  0  0  0
   19.9870   37.3374   68.2769 N   0  0  0  0  0  0  0  0  0  0  0  0
   21.8847   37.3642   66.7739 N   0  0  0  0  0  0  0  0  0  0  0  0
   22.7926   36.5865   65.9652 C   0  0  0  0  0  0  0  0  0  0  0  0
   24.0484   37.3739   65.6581 C   0  0  0  0  0  0  0  0  0  0  0  0
   24.0409   38.6338   66.2374 O   0  0  0  0  0  0  0  0  0  0  0  0
   22.9077   39.3372   65.7851 C   0  0  0  0  0  0  0  0  0  0  0  0
   21.6531   38.7433   66.3944 C   0  0  0  0  0  0  0  0  0  0  0  0
   21.6479   34.3804   70.5692 N   0  0  0  0  0  0  0  0  0  0  0  0
   20.8917   33.9449   71.7123 C   0  0  0  0  0  0  0  0  0  0  0  0
   20.7107   32.4307   71.5225 C   0  0  0  0  0  0  0  0  0  0  0  0
   22.0002   31.8982   71.5405 O   0  0  0  0  0  0  0  0  0  0  0  0
   22.7306   32.2578   70.4128 C   0  0  0  0  0  0  0  0  0  0  0  0
   22.9228   33.7574   70.3085 C   0  0  0  0  0  0  0  0  0  0  0  0
   18.0690   37.3680   69.7374 N   0  0  0  0  0  0  0  0  0  0  0  0
   17.9988   38.3702   70.0107 H   0  0  0  0  0  0  0  0  0  0  0  0
   16.6021   35.8802   70.8311 C   0  0  0  0  0  0  0  0  0  0  0  0
   16.9136   36.5387   69.7637 N   0  0  0  0  0  0  0  0  0  0  0  0
   17.1168   33.4132   72.5666 Br  0  0  0  0  0  0  0  0  0  0  0  0
   15.4827   33.8553   71.6898 C   0  0  0  0  0  0  0  0  0  0  0  0
   14.3811   33.0262   71.7994 C   0  0  0  0  0  0  0  0  0  0  0  0
   13.2044   33.3707   71.1518 C   0  0  0  0  0  0  0  0  0  0  0  0
   13.1498   34.5286   70.4089 C   0  0  0  0  0  0  0  0  0  0  0  0
   14.2756   35.3334   70.3230 C   0  0  0  0  0  0  0  0  0  0  0  0
   15.4537   35.0167   70.9547 C   0  0  0  0  0  0  0  0  0  0  0  0
   11.9545   34.8342   69.7770 O   0  0  0  0  0  0  0  0  0  0  0  0
   14.4411   31.8642   72.5463 O   0  0  0  0  0  0  0  0  0  0  0  0
   11.2148   35.3827   70.1938 H   0  0  0  0  0  0  0  0  0  0  0  0
   15.3114   31.6370   73.0093 H   0  0  0  0  0  0  0  0  0  0  0  0
 23 24  1  0  0  0
 24 25  2  0  0  0
 24 29  1  0  0  0
 25 26  1  0  0  0
 25 31  1  0  0  0
 26 27  2  0  0  0
 27 28  1  0  0  0
 27 30  1  0  0  0
 28 29  2  0  0  0
 29 21  1  0  0  0
 21 22  2  0  0  0
 22 19  1  0  0  0
 19  1  1  0  0  0
  1  2  2  0  0  0
  1  6  1  0  0  0
  2  3  1  0  0  0
  3  4  2  0  0  0
  3 13  1  0  0  0
  4  5  1  0  0  0
  5  6  2  0  0  0
  5  7  1  0  0  0
  7  8  1  0  0  0
  7 12  1  0  0  0
  8  9  1  0  0  0
  9 10  1  0  0  0
 10 11  1  0  0  0
 11 12  1  0  0  0
 13 14  1  0  0  0
 13 18  1  0  0  0
 14 15  1  0  0  0
 15 16  1  0  0  0
 16 17  1  0  0  0
 17 18  1  0  0  0
 19 20  1  0  0  0
 30 32  1  0  0  0
 31 33  1  0  0  0
M  END
> <minimizedAffinity>
-9.02768

$$$$
37


 27 30  0  0  0  0  0  0  0  0999 V2000
   14.8266   33.0732   71.8037 N   0  0  0  0  0  0  0  0  0  0  0  0
   15.9363   33.9901   71.6917 C   0  0  0  0  0  0  0  0  0  0  0  0
   15.5469   34.8016   70.4754 C   0  0  0  0  0  0  0  0  0  0  0  0
   14.0841   35.0854   70.7680 C   0  0  0  0  0  0  0  0  0  0  0  0
   13.6871   33.7654   71.3263 C   0  0  0  0  0  0  0  0  0  0  0  0
   12.5128   33.3405   71.3626 O   0  0  0  0  0  0  0  0  0  0  0  0
   15.3532   27.3545   73.9361 Br  0  0  0  0  0  0  0  0  0  0  0  0
   15.1974   29.1307   73.2628 C   0  0  0  0  0  0  0  0  0  0  0  0
   14.3222   30.0059   73.8951 C   0  0  0  0  0  0  0  0  0  0  0  0
   14.2296   31.2757   73.3945 C   0  0  0  0  0  0  0  0  0  0  0  0
   14.9372   31.7504   72.3115 C   0  0  0  0  0  0  0  0  0  0  0  0
   15.8056   30.8393   71.7047 C   0  0  0  0  0  0  0  0  0  0  0  0
   15.9346   29.5465   72.1728 C   0  0  0  0  0  0  0  0  0  0  0  0
   13.5405   29.5264   75.0672 C   0  0  0  0  0  0  0  0  0  0  0  0
   16.3372   36.0448   70.3583 C   0  0  0  0  0  0  0  0  0  0  0  0
   15.7799   37.1665   70.2905 O   0  0  0  0  0  0  0  0  0  0  0  0
   17.7446   35.9594   70.3235 N   0  0  0  0  0  0  0  0  0  0  0  0
   18.2131   35.0376   70.3774 H   0  0  0  0  0  0  0  0  0  0  0  0
   18.5554   37.1473   70.2131 C   0  0  0  0  0  0  0  0  0  0  0  0
   19.0264   37.3501   68.8142 C   0  0  0  0  0  0  0  0  0  0  0  0
   20.0641   36.7387   68.1897 N   0  0  0  0  0  0  0  0  0  0  0  0
   20.1592   37.1964   66.9300 C   0  0  0  0  0  0  0  0  0  0  0  0
   19.1549   38.1004   66.8012 N   0  0  0  0  0  0  0  0  0  0  0  0
   18.4766   38.1944   67.9268 N   0  0  0  0  0  0  0  0  0  0  0  0
   21.2989   36.5406   66.2087 C   0  0  0  0  0  0  0  0  0  0  0  0
   22.0808   35.9208   67.3453 C   0  0  0  0  0  0  0  0  0  0  0  0
   21.0894   35.7520   68.4774 C   0  0  0  0  0  0  0  0  0  0  0  0
  7  8  1  0  0  0
  8  9  2  0  0  0
  8 13  1  0  0  0
  9 10  1  0  0  0
  9 14  1  0  0  0
 10 11  2  0  0  0
 11 12  1  0  0  0
 11  1  1  0  0  0
 12 13  2  0  0  0
  1  2  1  0  0  0
  1  5  1  0  0  0
  2  3  1  0  0  0
  3  4  1  0  0  0
  3 15  1  0  0  0
  4  5  1  0  0  0
  5  6  2  0  0  0
 15 16  2  0  0  0
 15 17  1  0  0  0
 17 19  1  0  0  0
 19 20  1  0  0  0
 20 21  1  0  0  0
 20 24  2  0  0  0
 21 22  1  0  0  0
 21 27  1  0  0  0
 22 23  2  0  0  0
 22 25  1  0  0  0
 23 24  1  0  0  0
 25 26  1  0  0  0
 26 27  1  0  0  0
 17 18  1  0  0  0
M  END
> <minimizedAffinity>
-8.80048

$$$$
39


 21 23  0  0  0  0  0  0  0  0999 V2000
   18.8106   35.3942   71.0589 N   0  0  0  0  0  0  0  0  0  0  0  0
   19.8568   34.6428   70.5212 C   0  0  0  0  0  0  0  0  0  0  0  0
   19.6655   33.5147   70.0452 O   0  0  0  0  0  0  0  0  0  0  0  0
   19.0752   36.3502   71.4427 H   0  0  0  0  0  0  0  0  0  0  0  0
   17.1087   37.3567   69.5462 Br  0  0  0  0  0  0  0  0  0  0  0  0
   16.4652   35.8351   70.5287 C   0  0  0  0  0  0  0  0  0  0  0  0
   17.4423   35.0526   71.1612 C   0  0  0  0  0  0  0  0  0  0  0  0
   16.9532   33.9689   71.8590 C   0  0  0  0  0  0  0  0  0  0  0  0
   15.5861   33.6882   71.9184 C   0  0  0  0  0  0  0  0  0  0  0  0
   14.6473   34.4698   71.2905 C   0  0  0  0  0  0  0  0  0  0  0  0
   15.1223   35.5538   70.5922 C   0  0  0  0  0  0  0  0  0  0  0  0
   13.1885   34.1539   71.3664 C   0  0  0  0  0  0  0  0  0  0  0  0
   21.2189   35.2112   70.5230 C   0  0  0  0  0  0  0  0  0  0  0  0
   21.6780   35.7365   69.2784 N   0  0  0  0  0  0  0  0  0  0  0  0
   22.6501   36.7994   69.5780 C   0  0  0  0  0  0  0  0  0  0  0  0
   23.5451   36.9362   68.3713 C   0  0  0  0  0  0  0  0  0  0  0  0
   22.6754   36.7798   67.2059 N   0  0  0  0  0  0  0  0  0  0  0  0
   22.4959   35.3401   67.0438 C   0  0  0  0  0  0  0  0  0  0  0  0
   22.3120   34.7330   68.4274 C   0  0  0  0  0  0  0  0  0  0  0  0
   21.3655   37.3332   67.5115 C   0  0  0  0  0  0  0  0  0  0  0  0
   20.6518   36.3769   68.4812 C   0  0  0  0  0  0  0  0  0  0  0  0
  5  6  1  0  0  0
  6  7  2  0  0  0
  6 11  1  0  0  0
  7  8  1  0  0  0
  7  1  1  0  0  0
  8  9  2  0  0  0
  9 10  1  0  0  0
 10 11  2  0  0  0
 10 12  1  0  0  0
  1  2  1  0  0  0
  2  3  2  0  0  0
  2 13  1  0  0  0
 13 14  1  0  0  0
 14 15  1  0  0  0
 14 19  1  0  0  0
 14 21  1  0  0  0
 15 16  1  0  0  0
 16 17  1  0  0  0
 17 18  1  0  0  0
 17 20  1  0  0  0
 18 19  1  0  0  0
 20 21  1  0  0  0
  1  4  1  0  0  0
M  CHG 1  14   1
M  END
> <minimizedAffinity>
-6.79937

$$$$
56


 24 27  0  0  0  0  0  0  0  0999 V2000
   23.5486   35.4197   66.4607 C   0  0  0  0  0  0  0  0  0  0  0  0
   24.3171   36.2578   65.6510 C   0  0  0  0  0  0  0  0  0  0  0  0
   25.1591   37.4739   65.8165 C   0  0  0  0  0  0  0  0  0  0  0  0
   26.4305   36.7161   65.9316 N   0  0  0  0  0  0  0  0  0  0  0  0
   26.1982   35.6587   66.6444 C   0  0  0  0  0  0  0  0  0  0  0  0
   24.8182   35.6921   67.0153 C   0  0  0  0  0  0  0  0  0  0  0  0
   27.1683   34.6446   66.9895 N   0  0  0  0  0  0  0  0  0  0  0  0
   25.1540   38.1742   64.6051 O   0  0  0  0  0  0  0  0  0  0  0  0
   24.8443   39.4880   64.8988 C   0  0  0  0  0  0  0  0  0  0  0  0
   25.2921   39.6106   66.3455 C   0  0  0  0  0  0  0  0  0  0  0  0
   24.9037   38.3297   66.8109 O   0  0  0  0  0  0  0  0  0  0  0  0
   28.1565   34.8927   67.1865 H   0  0  0  0  0  0  0  0  0  0  0  0
   26.8933   33.6465   67.0468 H   0  0  0  0  0  0  0  0  0  0  0  0
   22.3623   33.8899   68.9946 Br  0  0  0  0  0  0  0  0  0  0  0  0
   21.6642   35.4286   68.1066 C   0  0  0  0  0  0  0  0  0  0  0  0
   22.2939   35.9845   67.0218 C   0  0  0  0  0  0  0  0  0  0  0  0
   21.7654   37.0972   66.4117 C   0  0  0  0  0  0  0  0  0  0  0  0
   20.5929   37.6856   66.8659 C   0  0  0  0  0  0  0  0  0  0  0  0
   19.9459   37.1455   67.9512 C   0  0  0  0  0  0  0  0  0  0  0  0
   20.4914   36.0128   68.5657 C   0  0  0  0  0  0  0  0  0  0  0  0
   24.6974   36.5805   68.2102 C   0  0  0  0  0  0  0  0  0  0  0  0
   24.6061   37.2629   69.1727 N   0  0  0  0  0  0  0  0  0  0  0  0
   24.8535   35.5448   64.4369 C   0  0  0  0  0  0  0  0  0  0  0  0
   25.2547   34.9886   63.4750 N   0  0  0  0  0  0  0  0  0  0  0  0
 14 15  1  0  0  0
 15 16  2  0  0  0
 15 20  1  0  0  0
 16 17  1  0  0  0
 16  1  1  0  0  0
 17 18  2  0  0  0
 18 19  1  0  0  0
 19 20  2  0  0  0
  1  2  1  0  0  0
  1  6  1  0  0  0
  2  3  1  0  0  0
  2  6  1  0  0  0
  2 23  1  0  0  0
  3  4  1  0  0  0
  3  8  1  0  0  0
  3 11  1  0  0  0
  4  5  2  0  0  0
  5  6  1  0  0  0
  5  7  1  0  0  0
  6 21  1  0  0  0
 21 22  3  0  0  0
  8  9  1  0  0  0
  9 10  1  0  0  0
 10 11  1  0  0  0
 23 24  3  0  0  0
  7 12  1  0  0  0
  7 13  1  0  0  0
M  END
> <minimizedAffinity>
-6.29005

$$$$
64


 22 25  0  0  0  0  0  0  0  0999 V2000
   18.9352   33.6934   71.1840 N   0  0  0  0  0  0  0  0  0  0  0  0
   18.3394   32.4788   70.7574 C   0  0  0  0  0  0  0  0  0  0  0  0
   18.2052   32.1441   69.5671 O   0  0  0  0  0  0  0  0  0  0  0  0
   17.9006   31.6649   71.9142 C   0  0  0  0  0  0  0  0  0  0  0  0
   16.4240   31.4849   71.9813 C   0  0  0  0  0  0  0  0  0  0  0  0
   16.0562   31.8874   73.2926 O   0  0  0  0  0  0  0  0  0  0  0  0
   16.6977   33.1526   73.2520 C   0  0  0  0  0  0  0  0  0  0  0  0
   18.1298   32.6281   73.0927 C   0  0  0  0  0  0  0  0  0  0  0  0
   19.0415   33.6765   72.6108 C   0  0  0  0  0  0  0  0  0  0  0  0
   19.7825   34.4265   73.2828 O   0  0  0  0  0  0  0  0  0  0  0  0
   16.1624   33.6873   71.9822 C   0  0  0  0  0  0  0  0  0  0  0  0
   15.8125   32.6338   71.2447 C   0  0  0  0  0  0  0  0  0  0  0  0
   21.7738   33.3469   70.0211 Br  0  0  0  0  0  0  0  0  0  0  0  0
   20.6050   34.8620   69.7941 C   0  0  0  0  0  0  0  0  0  0  0  0
   19.3746   34.7986   70.4076 C   0  0  0  0  0  0  0  0  0  0  0  0
   18.5527   35.9062   70.2294 C   0  0  0  0  0  0  0  0  0  0  0  0
   18.9411   37.0029   69.4843 C   0  0  0  0  0  0  0  0  0  0  0  0
   20.1917   37.0325   68.8780 C   0  0  0  0  0  0  0  0  0  0  0  0
   21.0084   35.9465   69.0475 C   0  0  0  0  0  0  0  0  0  0  0  0
   15.8794   30.1704   71.6101 C   0  0  0  0  0  0  0  0  0  0  0  0
   16.8652   29.2000   71.8697 O   0  0  0  0  0  0  0  0  0  0  0  0
   17.5725   29.2499   71.1621 H   0  0  0  0  0  0  0  0  0  0  0  0
 13 14  1  0  0  0
 14 15  2  0  0  0
 14 19  1  0  0  0
 15 16  1  0  0  0
 15  1  1  0  0  0
 16 17  2  0  0  0
 17 18  1  0  0  0
 18 19  2  0  0  0
  1  2  1  0  0  0
  1  9  1  0  0  0
  2  3  2  0  0  0
  2  4  1  0  0  0
  4  5  1  0  0  0
  4  8  1  0  0  0
  5  6  1  0  0  0
  5 12  1  0  0  0
  5 20  1  0  0  0
  6  7  1  0  0  0
  7  8  1  0  0  0
  7 11  1  0  0  0
  8  9  1  0  0  0
  9 10  2  0  0  0
 11 12  2  0  0  0
 20 21  1  0  0  0
 21 22  1  0  0  0
M  END
> <minimizedAffinity>
-7.30485

$$$$
67


 22 25  0  0  0  0  0  0  0  0999 V2000
   17.0289   34.9559   70.9575 N   0  0  0  0  0  0  0  0  0  0  0  0
   18.2675   35.5774   70.4507 C   0  0  0  0  0  0  0  0  0  0  0  0
   19.2765   34.6241   70.8943 C   0  0  0  0  0  0  0  0  0  0  0  0
   19.5012   33.5250   70.0481 O   0  0  0  0  0  0  0  0  0  0  0  0
   20.3514   32.8243   70.9445 C   0  0  0  0  0  0  0  0  0  0  0  0
   19.3211   32.6003   72.0599 C   0  0  0  0  0  0  0  0  0  0  0  0
   18.7905   33.9919   72.2100 C   0  0  0  0  0  0  0  0  0  0  0  0
   17.3515   34.1615   72.0927 C   0  0  0  0  0  0  0  0  0  0  0  0
   16.4970   33.6864   72.8689 O   0  0  0  0  0  0  0  0  0  0  0  0
   21.3247   33.9004   71.2941 C   0  0  0  0  0  0  0  0  0  0  0  0
   20.6489   35.0601   71.1325 C   0  0  0  0  0  0  0  0  0  0  0  0
   16.0387   37.9404   70.5959 Br  0  0  0  0  0  0  0  0  0  0  0  0
   15.1351   36.3321   70.2084 C   0  0  0  0  0  0  0  0  0  0  0  0
   15.7196   35.0968   70.4286 C   0  0  0  0  0  0  0  0  0  0  0  0
   14.9377   33.9977   70.0956 C   0  0  0  0  0  0  0  0  0  0  0  0
   13.6687   34.0972   69.5831 C   0  0  0  0  0  0  0  0  0  0  0  0
   13.1131   35.3193   69.3735 C   0  0  0  0  0  0  0  0  0  0  0  0
   13.8437   36.4344   69.6862 C   0  0  0  0  0  0  0  0  0  0  0  0
   18.2826   31.7116   71.4483 C   0  0  0  0  0  0  0  0  0  0  0  0
   18.0121   31.7254   70.2389 O   0  0  0  0  0  0  0  0  0  0  0  0
   17.5927   30.8349   72.2762 O   0  0  0  0  0  0  0  0  0  0  0  0
   16.4497   30.1515   71.7480 C   0  0  0  0  0  0  0  0  0  0  0  0
 12 13  1  0  0  0
 13 14  2  0  0  0
 13 18  1  0  0  0
 14 15  1  0  0  0
 14  1  1  0  0  0
 15 16  2  0  0  0
 16 17  1  0  0  0
 17 18  2  0  0  0
  1  2  1  0  0  0
  1  8  1  0  0  0
  2  3  1  0  0  0
  3  4  1  0  0  0
  3  7  1  0  0  0
  3 11  1  0  0  0
  4  5  1  0  0  0
  5  6  1  0  0  0
  5 10  1  0  0  0
  6  7  1  0  0  0
  6 19  1  0  0  0
  7  8  1  0  0  0
  8  9  2  0  0  0
 19 20  2  0  0  0
 19 21  1  0  0  0
 21 22  1  0  0  0
 10 11  2  0  0  0
M  END
> <minimizedAffinity>
-7.81839

$$$$
81


 22 25  0  0  0  0  0  0  0  0999 V2000
   15.8755   36.3834   70.6316 C   0  0  0  0  0  0  0  0  0  0  0  0
   14.6342   35.9846   70.3000 N   0  0  0  0  0  0  0  0  0  0  0  0
   14.4045   34.7751   70.8150 N   0  0  0  0  0  0  0  0  0  0  0  0
   15.5003   34.3735   71.4907 C   0  0  0  0  0  0  0  0  0  0  0  0
   16.3874   35.3775   71.3624 N   0  0  0  0  0  0  0  0  0  0  0  0
   15.4938   33.1403   72.1132 C   0  0  0  0  0  0  0  0  0  0  0  0
   14.4013   32.2978   72.0708 C   0  0  0  0  0  0  0  0  0  0  0  0
   14.6612   31.1669   72.7570 N   0  0  0  0  0  0  0  0  0  0  0  0
   15.8873   31.2721   73.2316 N   0  0  0  0  0  0  0  0  0  0  0  0
   16.4371   32.4663   72.8616 C   0  0  0  0  0  0  0  0  0  0  0  0
   13.7892   30.0220   72.9631 C   0  0  0  0  0  0  0  0  0  0  0  0
   13.3293   32.7359   71.3862 N   0  0  0  0  0  0  0  0  0  0  0  0
   13.3425   33.9509   70.7760 C   0  0  0  0  0  0  0  0  0  0  0  0
   16.5452   37.6786   70.2625 C   0  0  0  0  0  0  0  0  0  0  0  0
   20.3864   37.5328   66.5246 Br  0  0  0  0  0  0  0  0  0  0  0  0
   19.4055   37.3734   68.1427 C   0  0  0  0  0  0  0  0  0  0  0  0
   18.1003   37.7382   68.3492 C   0  0  0  0  0  0  0  0  0  0  0  0
   17.8228   37.4497   69.6283 N   0  0  0  0  0  0  0  0  0  0  0  0
   18.8905   36.9303   70.2020 N   0  0  0  0  0  0  0  0  0  0  0  0
   19.9063   36.8630   69.3115 C   0  0  0  0  0  0  0  0  0  0  0  0
   21.2930   36.3330   69.5738 C   0  0  0  0  0  0  0  0  0  0  0  0
   17.1981   38.3396   67.3156 C   0  0  0  0  0  0  0  0  0  0  0  0
 15 16  1  0  0  0
 16 17  2  0  0  0
 16 20  1  0  0  0
 17 18  1  0  0  0
 17 22  1  0  0  0
 18 19  1  0  0  0
 18 14  1  0  0  0
 19 20  2  0  0  0
 20 21  1  0  0  0
 14  1  1  0  0  0
  1  2  2  0  0  0
  1  5  1  0  0  0
  2  3  1  0  0  0
  3  4  1  0  0  0
  3 13  1  0  0  0
  4  5  2  0  0  0
  4  6  1  0  0  0
  6  7  2  0  0  0
  6 10  1  0  0  0
  7  8  1  0  0  0
  7 12  1  0  0  0
  8  9  1  0  0  0
  8 11  1  0  0  0
  9 10  2  0  0  0
 12 13  2  0  0  0
M  END
> <minimizedAffinity>
-8.07269

$$$$
85


 26 29  0  0  0  0  0  0  0  0999 V2000
   20.2227   36.9430   68.6303 C   0  0  0  0  0  0  0  0  0  0  0  0
   19.0779   37.6301   68.1781 C   0  0  0  0  0  0  0  0  0  0  0  0
   18.9240   38.5270   67.1667 N   0  0  0  0  0  0  0  0  0  0  0  0
   17.6725   38.8726   67.1505 O   0  0  0  0  0  0  0  0  0  0  0  0
   17.0165   38.2567   68.0841 N   0  0  0  0  0  0  0  0  0  0  0  0
   17.8512   37.4600   68.7638 C   0  0  0  0  0  0  0  0  0  0  0  0
   17.6538   36.6081   69.8316 C   0  0  0  0  0  0  0  0  0  0  0  0
   18.7785   35.9366   70.2723 C   0  0  0  0  0  0  0  0  0  0  0  0
   20.0309   36.1019   69.6840 C   0  0  0  0  0  0  0  0  0  0  0  0
   16.4010   36.4235   70.4440 N   0  0  0  0  0  0  0  0  0  0  0  0
   16.0978   35.1185   71.0254 C   0  0  0  0  0  0  0  0  0  0  0  0
   14.6671   35.0323   71.4806 C   0  0  0  0  0  0  0  0  0  0  0  0
   13.7491   35.6226   70.6764 O   0  0  0  0  0  0  0  0  0  0  0  0
   14.1235   36.7157   69.9510 C   0  0  0  0  0  0  0  0  0  0  0  0
   15.3332   37.3660   70.5892 C   0  0  0  0  0  0  0  0  0  0  0  0
   21.7580   36.7450   66.6705 C   0  0  0  0  0  0  0  0  0  0  0  0
   20.9103   36.0348   66.0116 O   0  0  0  0  0  0  0  0  0  0  0  0
   21.4383   37.1987   67.9472 N   0  0  0  0  0  0  0  0  0  0  0  0
   22.1846   37.7940   68.4176 H   0  0  0  0  0  0  0  0  0  0  0  0
   24.2393   34.3251   66.1117 Br  0  0  0  0  0  0  0  0  0  0  0  0
   24.0765   36.1905   65.7373 C   0  0  0  0  0  0  0  0  0  0  0  0
   23.0406   37.0284   65.9932 C   0  0  0  0  0  0  0  0  0  0  0  0
   23.3716   38.2806   65.5251 N   0  0  0  0  0  0  0  0  0  0  0  0
   24.5684   38.1838   65.0093 N   0  0  0  0  0  0  0  0  0  0  0  0
   25.0692   36.9567   65.0943 C   0  0  0  0  0  0  0  0  0  0  0  0
   22.5549   39.4639   65.5948 C   0  0  0  0  0  0  0  0  0  0  0  0
 20 21  1  0  0  0
 21 22  2  0  0  0
 21 25  1  0  0  0
 22 23  1  0  0  0
 22 16  1  0  0  0
 23 24  1  0  0  0
 23 26  1  0  0  0
 24 25  2  0  0  0
 16 17  2  0  0  0
 16 18  1  0  0  0
 18  1  1  0  0  0
  1  2  1  0  0  0
  1  9  2  0  0  0
  2  3  2  0  0  0
  2  6  1  0  0  0
  3  4  1  0  0  0
  4  5  1  0  0  0
  5  6  2  0  0  0
  6  7  1  0  0  0
  7  8  2  0  0  0
  7 10  1  0  0  0
  8  9  1  0  0  0
 10 11  1  0  0  0
 10 15  1  0  0  0
 11 12  1  0  0  0
 12 13  1  0  0  0
 13 14  1  0  0  0
 14 15  1  0  0  0
 18 19  1  0  0  0
M  END
> <minimizedAffinity>
-8.20520

$$$$
95


 26 29  0  0  0  0  0  0  0  0999 V2000
   17.2906   34.2016   72.2630 C   0  0  0  0  0  0  0  0  0  0  0  0
   17.1533   34.0349   73.5180 O   0  0  0  0  0  0  0  0  0  0  0  0
   18.4743   34.4159   71.5985 N   0  0  0  0  0  0  0  0  0  0  0  0
   19.1589   34.3638   72.7743 H   0  0  0  0  0  0  0  0  0  0  0  0
   13.4495   36.7479   69.5153 Br  0  0  0  0  0  0  0  0  0  0  0  0
   14.2522   35.1879   70.2264 C   0  0  0  0  0  0  0  0  0  0  0  0
   15.4446   35.2944   70.9523 C   0  0  0  0  0  0  0  0  0  0  0  0
   16.0108   34.1534   71.4607 C   0  0  0  0  0  0  0  0  0  0  0  0
   15.4299   32.9282   71.2668 C   0  0  0  0  0  0  0  0  0  0  0  0
   14.2323   32.8163   70.5400 C   0  0  0  0  0  0  0  0  0  0  0  0
   13.6616   33.9639   70.0278 C   0  0  0  0  0  0  0  0  0  0  0  0
   16.0746   31.7924   71.8143 N   0  0  0  0  0  0  0  0  0  0  0  0
   17.0522   31.1434   71.2115 N   0  0  0  0  0  0  0  0  0  0  0  0
   17.4639   30.1313   71.9449 N   0  0  0  0  0  0  0  0  0  0  0  0
   16.7452   30.1090   73.0556 N   0  0  0  0  0  0  0  0  0  0  0  0
   15.8914   31.1341   72.9684 C   0  0  0  0  0  0  0  0  0  0  0  0
   19.6515   34.6290   70.9386 C   0  0  0  0  0  0  0  0  0  0  0  0
   19.5993   35.7680   69.9337 C   0  0  0  0  0  0  0  0  0  0  0  0
   20.3891   35.8759   68.8430 N   0  0  0  0  0  0  0  0  0  0  0  0
   20.0917   36.9920   68.1652 C   0  0  0  0  0  0  0  0  0  0  0  0
   19.0995   37.5811   68.8508 N   0  0  0  0  0  0  0  0  0  0  0  0
   18.7986   36.8391   69.9265 N   0  0  0  0  0  0  0  0  0  0  0  0
   20.7818   37.3191   66.9904 C   0  0  0  0  0  0  0  0  0  0  0  0
   21.7703   36.4991   66.5216 C   0  0  0  0  0  0  0  0  0  0  0  0
   22.0765   35.3484   67.2207 C   0  0  0  0  0  0  0  0  0  0  0  0
   21.3742   35.0549   68.3806 C   0  0  0  0  0  0  0  0  0  0  0  0
  5  6  1  0  0  0
  6  7  2  0  0  0
  6 11  1  0  0  0
  7  8  1  0  0  0
  8  9  2  0  0  0
  8  1  1  0  0  0
  9 10  1  0  0  0
  9 12  1  0  0  0
 10 11  2  0  0  0
 12 13  1  0  0  0
 12 16  1  0  0  0
 13 14  2  0  0  0
 14 15  1  0  0  0
 15 16  2  0  0  0
  1  2  2  0  0  0
  1  3  1  0  0  0
  3 17  1  0  0  0
 17 18  1  0  0  0
 18 19  1  0  0  0
 18 22  2  0  0  0
 19 20  1  0  0  0
 19 26  1  0  0  0
 20 21  2  0  0  0
 20 23  1  0  0  0
 21 22  1  0  0  0
 23 24  2  0  0  0
 24 25  1  0  0  0
 25 26  2  0  0  0
  3  4  1  0  0  0
M  END
> <minimizedAffinity>
-8.49808

$$$$
106


 29 32  0  0  0  0  0  0  0  0999 V2000
   13.2104   31.9535   72.3386 C   0  0  0  0  0  0  0  0  0  0  0  0
   13.8317   32.9784   71.8240 C   0  0  0  0  0  0  0  0  0  0  0  0
   15.1939   33.2086   71.9372 O   0  0  0  0  0  0  0  0  0  0  0  0
   15.5747   34.3719   71.2947 C   0  0  0  0  0  0  0  0  0  0  0  0
   14.4855   34.9842   70.7175 C   0  0  0  0  0  0  0  0  0  0  0  0
   14.6421   36.1654   70.0235 C   0  0  0  0  0  0  0  0  0  0  0  0
   15.8969   36.7263   69.9152 C   0  0  0  0  0  0  0  0  0  0  0  0
   16.9952   36.0799   70.5158 C   0  0  0  0  0  0  0  0  0  0  0  0
   16.8650   34.9130   71.2041 C   0  0  0  0  0  0  0  0  0  0  0  0
   18.2054   36.7654   70.3247 O   0  0  0  0  0  0  0  0  0  0  0  0
   13.3471   34.1161   71.0366 C   0  0  0  0  0  0  0  0  0  0  0  0
   12.1565   34.3017   70.7010 O   0  0  0  0  0  0  0  0  0  0  0  0
   17.0023   28.1525   72.8251 Br  0  0  0  0  0  0  0  0  0  0  0  0
   15.4826   29.1528   73.3894 C   0  0  0  0  0  0  0  0  0  0  0  0
   14.9115   30.1726   72.6841 C   0  0  0  0  0  0  0  0  0  0  0  0
   13.8111   30.8813   73.1139 C   0  0  0  0  0  0  0  0  0  0  0  0
   13.2651   30.5145   74.3478 C   0  0  0  0  0  0  0  0  0  0  0  0
   13.7958   29.5015   75.0981 C   0  0  0  0  0  0  0  0  0  0  0  0
   14.9070   28.8221   74.6128 C   0  0  0  0  0  0  0  0  0  0  0  0
   12.1581   31.2061   74.7995 O   0  0  0  0  0  0  0  0  0  0  0  0
   11.1665   30.5495   75.5446 C   0  0  0  0  0  0  0  0  0  0  0  0
   17.9507   34.2003   71.8195 C   0  0  0  0  0  0  0  0  0  0  0  0
   18.4469   32.9844   71.3189 N   0  0  0  0  0  0  0  0  0  0  0  0
   19.7659   33.0327   70.7492 C   0  0  0  0  0  0  0  0  0  0  0  0
   20.8791   32.9542   71.7646 C   0  0  0  0  0  0  0  0  0  0  0  0
   20.4338   32.9731   73.0792 O   0  0  0  0  0  0  0  0  0  0  0  0
   19.5869   31.8792   73.2211 C   0  0  0  0  0  0  0  0  0  0  0  0
   18.3968   31.9027   72.3193 C   0  0  0  0  0  0  0  0  0  0  0  0
   17.8033   32.6314   70.5811 H   0  0  0  0  0  0  0  0  0  0  0  0
 13 14  1  0  0  0
 14 15  2  0  0  0
 14 19  1  0  0  0
 15 16  1  0  0  0
 16 17  2  0  0  0
 16  1  1  0  0  0
 17 18  1  0  0  0
 17 20  1  0  0  0
 18 19  2  0  0  0
 20 21  1  0  0  0
  1  2  2  0  0  0
  2  3  1  0  0  0
  2 11  1  0  0  0
  3  4  1  0  0  0
  4  5  2  0  0  0
  4  9  1  0  0  0
  5  6  1  0  0  0
  5 11  1  0  0  0
  6  7  2  0  0  0
  7  8  1  0  0  0
  8  9  2  0  0  0
  8 10  1  0  0  0
  9 22  1  0  0  0
 22 23  1  0  0  0
 23 24  1  0  0  0
 23 28  1  0  0  0
 24 25  1  0  0  0
 25 26  1  0  0  0
 26 27  1  0  0  0
 27 28  1  0  0  0
 11 12  2  0  0  0
 23 29  1  0  0  0
M  CHG 1  10  -1
M  CHG 1  23   1
M  END
> <minimizedAffinity>
-8.79464

$$$$
107


 31 34  0  0  0  0  0  0  0  0999 V2000
   18.0691   36.4582   69.9514 C   0  0  0  0  0  0  0  0  0  0  0  0
   18.7938   35.6220   70.7257 N   0  0  0  0  0  0  0  0  0  0  0  0
   18.2102   34.7109   71.5127 C   0  0  0  0  0  0  0  0  0  0  0  0
   16.8700   34.6388   71.5222 N   0  0  0  0  0  0  0  0  0  0  0  0
   16.0785   35.4480   70.7684 C   0  0  0  0  0  0  0  0  0  0  0  0
   16.7408   36.3502   69.9931 N   0  0  0  0  0  0  0  0  0  0  0  0
   18.9726   33.8319   72.3282 N   0  0  0  0  0  0  0  0  0  0  0  0
   20.4163   33.7739   72.2661 C   0  0  0  0  0  0  0  0  0  0  0  0
   20.9127   32.3368   72.3166 C   0  0  0  0  0  0  0  0  0  0  0  0
   20.2407   31.6207   73.3136 O   0  0  0  0  0  0  0  0  0  0  0  0
   18.8885   31.5631   73.0753 C   0  0  0  0  0  0  0  0  0  0  0  0
   18.3129   32.9499   73.2649 C   0  0  0  0  0  0  0  0  0  0  0  0
   14.6744   35.3674   70.7829 N   0  0  0  0  0  0  0  0  0  0  0  0
   13.9787   34.6546   71.8125 C   0  0  0  0  0  0  0  0  0  0  0  0
   13.0447   33.6660   71.1176 C   0  0  0  0  0  0  0  0  0  0  0  0
   12.2395   34.4007   70.2647 O   0  0  0  0  0  0  0  0  0  0  0  0
   12.9331   34.9570   69.2159 C   0  0  0  0  0  0  0  0  0  0  0  0
   13.9094   36.0047   69.7515 C   0  0  0  0  0  0  0  0  0  0  0  0
   18.6568   37.4373   69.1033 N   0  0  0  0  0  0  0  0  0  0  0  0
   18.1281   38.3110   68.8344 H   0  0  0  0  0  0  0  0  0  0  0  0
   20.2003   37.1489   67.3384 C   0  0  0  0  0  0  0  0  0  0  0  0
   19.9451   37.3086   68.5819 N   0  0  0  0  0  0  0  0  0  0  0  0
   24.3903   34.0170   66.2883 Br  0  0  0  0  0  0  0  0  0  0  0  0
   23.4848   35.6941   66.3009 C   0  0  0  0  0  0  0  0  0  0  0  0
   22.2066   35.8074   66.8010 C   0  0  0  0  0  0  0  0  0  0  0  0
   21.5538   37.0161   66.8111 C   0  0  0  0  0  0  0  0  0  0  0  0
   22.2148   38.1146   66.3061 C   0  0  0  0  0  0  0  0  0  0  0  0
   23.5112   38.0135   65.7951 C   0  0  0  0  0  0  0  0  0  0  0  0
   24.1645   36.7918   65.7882 C   0  0  0  0  0  0  0  0  0  0  0  0
   21.5312   39.3247   66.3278 O   0  0  0  0  0  0  0  0  0  0  0  0
   22.0312   40.5177   65.7702 C   0  0  0  0  0  0  0  0  0  0  0  0
 23 24  1  0  0  0
 24 25  2  0  0  0
 24 29  1  0  0  0
 25 26  1  0  0  0
 26 27  2  0  0  0
 26 21  1  0  0  0
 27 28  1  0  0  0
 27 30  1  0  0  0
 28 29  2  0  0  0
 30 31  1  0  0  0
 21 22  2  0  0  0
 22 19  1  0  0  0
 19  1  1  0  0  0
  1  2  2  0  0  0
  1  6  1  0  0  0
  2  3  1  0  0  0
  3  4  2  0  0  0
  3  7  1  0  0  0
  4  5  1  0  0  0
  5  6  2  0  0  0
  5 13  1  0  0  0
 13 14  1  0  0  0
 13 18  1  0  0  0
 14 15  1  0  0  0
 15 16  1  0  0  0
 16 17  1  0  0  0
 17 18  1  0  0  0
  7  8  1  0  0  0
  7 12  1  0  0  0
  8  9  1  0  0  0
  9 10  1  0  0  0
 10 11  1  0  0  0
 11 12  1  0  0  0
 19 20  1  0  0  0
M  END
> <minimizedAffinity>
-8.74963

$$$$
111


 29 32  0  0  0  0  0  0  0  0999 V2000
   18.1338   32.5660   70.8118 C   0  0  0  0  0  0  0  0  0  0  0  0
   16.8359   32.7395   70.9367 N   0  0  0  0  0  0  0  0  0  0  0  0
   16.2046   31.5347   71.1059 C   0  0  0  0  0  0  0  0  0  0  0  0
   17.1720   30.5901   71.0736 N   0  0  0  0  0  0  0  0  0  0  0  0
   18.3067   31.1779   70.9010 N   0  0  0  0  0  0  0  0  0  0  0  0
   14.8898   31.7289   71.2303 N   0  0  0  0  0  0  0  0  0  0  0  0
   14.6775   33.0515   71.1365 C   0  0  0  0  0  0  0  0  0  0  0  0
   15.8871   33.7103   70.9472 C   0  0  0  0  0  0  0  0  0  0  0  0
   15.9715   35.0185   70.7991 N   0  0  0  0  0  0  0  0  0  0  0  0
   14.7967   35.7215   70.8477 C   0  0  0  0  0  0  0  0  0  0  0  0
   14.7611   36.9717   70.7208 O   0  0  0  0  0  0  0  0  0  0  0  0
   13.6047   35.1165   71.0342 N   0  0  0  0  0  0  0  0  0  0  0  0
   13.5165   33.7997   71.1788 C   0  0  0  0  0  0  0  0  0  0  0  0
   12.4379   33.1781   71.3547 O   0  0  0  0  0  0  0  0  0  0  0  0
   17.1234   35.8218   70.5208 C   0  0  0  0  0  0  0  0  0  0  0  0
   12.7203   35.6656   71.0701 H   0  0  0  0  0  0  0  0  0  0  0  0
   21.7580   34.8680   67.6136 Br  0  0  0  0  0  0  0  0  0  0  0  0
   21.0723   34.4557   69.3450 C   0  0  0  0  0  0  0  0  0  0  0  0
   19.9289   33.7202   69.4620 C   0  0  0  0  0  0  0  0  0  0  0  0
   19.3222   33.3483   70.6231 C   0  0  0  0  0  0  0  0  0  0  0  0
   20.0053   33.8083   71.7725 C   0  0  0  0  0  0  0  0  0  0  0  0
   21.1596   34.5510   71.7025 C   0  0  0  0  0  0  0  0  0  0  0  0
   21.7074   34.8833   70.4733 C   0  0  0  0  0  0  0  0  0  0  0  0
   19.4921   33.4976   73.0198 O   0  0  0  0  0  0  0  0  0  0  0  0
   18.4094   34.1460   73.6110 C   0  0  0  0  0  0  0  0  0  0  0  0
   13.8754   30.7355   71.4278 C   0  0  0  0  0  0  0  0  0  0  0  0
   14.0322   30.1214   72.8033 C   0  0  0  0  0  0  0  0  0  0  0  0
   13.4375   30.9624   73.7230 O   0  0  0  0  0  0  0  0  0  0  0  0
   12.7751   30.2415   74.7317 C   0  0  0  0  0  0  0  0  0  0  0  0
 17 18  1  0  0  0
 18 19  2  0  0  0
 18 23  1  0  0  0
 19 20  1  0  0  0
 20 21  2  0  0  0
 20  1  1  0  0  0
 21 22  1  0  0  0
 21 24  1  0  0  0
 22 23  2  0  0  0
 24 25  1  0  0  0
  1  2  1  0  0  0
  1  5  2  0  0  0
  2  3  1  0  0  0
  2  8  1  0  0  0
  3  4  2  0  0  0
  3  6  1  0  0  0
  4  5  1  0  0  0
  6  7  1  0  0  0
  6 26  1  0  0  0
  7  8  2  0  0  0
  7 13  1  0  0  0
  8  9  1  0  0  0
  9 10  1  0  0  0
  9 15  1  0  0  0
 10 11  2  0  0  0
 10 12  1  0  0  0
 12 13  1  0  0  0
 13 14  2  0  0  0
 26 27  1  0  0  0
 27 28  1  0  0  0
 28 29  1  0  0  0
 12 16  1  0  0  0
M  END
> <minimizedAffinity>
-7.87135

$$$$
127


 29 32  0  0  0  0  0  0  0  0999 V2000
   18.5405   33.0231   72.7416 N   0  0  0  0  0  0  0  0  0  0  0  0
   19.3552   34.1805   72.7706 C   0  0  0  0  0  0  0  0  0  0  0  0
   20.6018   34.1197   71.9744 C   0  0  0  0  0  0  0  0  0  0  0  0
   20.3376   33.7169   70.6303 N   0  0  0  0  0  0  0  0  0  0  0  0
   19.1241   33.0025   70.3557 C   0  0  0  0  0  0  0  0  0  0  0  0
   18.5697   32.2548   71.5462 C   0  0  0  0  0  0  0  0  0  0  0  0
   21.2439   33.9749   69.5680 C   0  0  0  0  0  0  0  0  0  0  0  0
   21.1153   35.1203   68.9013 C   0  0  0  0  0  0  0  0  0  0  0  0
   20.2445   36.2349   68.9781 N   0  0  0  0  0  0  0  0  0  0  0  0
   20.6740   37.1112   67.9555 N   0  0  0  0  0  0  0  0  0  0  0  0
   21.7754   36.5298   67.2847 C   0  0  0  0  0  0  0  0  0  0  0  0
   22.0802   35.3503   67.8037 C   0  0  0  0  0  0  0  0  0  0  0  0
   23.0730   34.3724   67.5135 N   0  0  0  0  0  0  0  0  0  0  0  0
   23.1548   33.2804   68.1897 C   0  0  0  0  0  0  0  0  0  0  0  0
   22.2641   33.0071   69.2454 N   0  0  0  0  0  0  0  0  0  0  0  0
   22.5321   37.1141   66.1455 C   0  0  0  0  0  0  0  0  0  0  0  0
   19.1546   36.4285   69.9035 C   0  0  0  0  0  0  0  0  0  0  0  0
   20.2038   38.0240   67.7821 H   0  0  0  0  0  0  0  0  0  0  0  0
   22.2899   32.1449   69.8164 H   0  0  0  0  0  0  0  0  0  0  0  0
   17.2998   33.1035   73.4075 C   0  0  0  0  0  0  0  0  0  0  0  0
   16.1864   32.4941   72.6780 C   0  0  0  0  0  0  0  0  0  0  0  0
   15.9430   31.2712   72.8441 O   0  0  0  0  0  0  0  0  0  0  0  0
   15.4764   37.2583   70.3721 Br  0  0  0  0  0  0  0  0  0  0  0  0
   14.9978   35.4455   70.6952 C   0  0  0  0  0  0  0  0  0  0  0  0
   15.7331   34.6288   71.5448 C   0  0  0  0  0  0  0  0  0  0  0  0
   15.3907   33.3226   71.7782 C   0  0  0  0  0  0  0  0  0  0  0  0
   14.2825   32.8016   71.1514 C   0  0  0  0  0  0  0  0  0  0  0  0
   13.5521   33.6031   70.3111 C   0  0  0  0  0  0  0  0  0  0  0  0
   13.8868   34.9285   70.0654 C   0  0  0  0  0  0  0  0  0  0  0  0
 23 24  1  0  0  0
 24 25  2  0  0  0
 24 29  1  0  0  0
 25 26  1  0  0  0
 26 27  2  0  0  0
 26 21  1  0  0  0
 27 28  1  0  0  0
 28 29  2  0  0  0
 21 22  2  0  0  0
 21 20  1  0  0  0
 20  1  1  0  0  0
  1  2  1  0  0  0
  1  6  1  0  0  0
  2  3  1  0  0  0
  3  4  1  0  0  0
  4  5  1  0  0  0
  4  7  1  0  0  0
  5  6  1  0  0  0
  7  8  2  0  0  0
  7 15  1  0  0  0
  8  9  1  0  0  0
  8 12  1  0  0  0
  9 10  1  0  0  0
  9 17  1  0  0  0
 10 11  1  0  0  0
 11 12  2  0  0  0
 11 16  1  0  0  0
 12 13  1  0  0  0
 13 14  2  0  0  0
 14 15  1  0  0  0
 10 18  1  0  0  0
 15 19  1  0  0  0
M  END
> <minimizedAffinity>
-8.68063

$$$$
129


 31 34  0  0  0  0  0  0  0  0999 V2000
   18.0192   31.5315   72.4055 C   0  0  0  0  0  0  0  0  0  0  0  0
   18.3410   30.9550   73.4912 O   0  0  0  0  0  0  0  0  0  0  0  0
   18.9975   32.2277   71.6389 N   0  0  0  0  0  0  0  0  0  0  0  0
   18.6573   33.0337   70.4941 C   0  0  0  0  0  0  0  0  0  0  0  0
   19.0284   34.4629   70.9571 C   0  0  0  0  0  0  0  0  0  0  0  0
   20.5328   34.4941   70.9255 C   0  0  0  0  0  0  0  0  0  0  0  0
   20.9378   35.6696   71.6946 N   0  0  0  0  0  0  0  0  0  0  0  0
   20.3794   36.8763   71.2102 C   0  0  0  0  0  0  0  0  0  0  0  0
   20.8403   37.2263   69.8070 C   0  0  0  0  0  0  0  0  0  0  0  0
   21.0578   36.0214   68.9847 C   0  0  0  0  0  0  0  0  0  0  0  0
   21.3999   35.9270   67.6890 N   0  0  0  0  0  0  0  0  0  0  0  0
   21.4877   34.6120   67.3910 C   0  0  0  0  0  0  0  0  0  0  0  0
   21.1957   33.9054   68.5124 N   0  0  0  0  0  0  0  0  0  0  0  0
   20.9210   34.7555   69.5208 C   0  0  0  0  0  0  0  0  0  0  0  0
   21.2087   33.3039   71.5091 C   0  0  0  0  0  0  0  0  0  0  0  0
   20.3715   32.1673   71.9884 C   0  0  0  0  0  0  0  0  0  0  0  0
   21.9813   35.7216   71.8166 H   0  0  0  0  0  0  0  0  0  0  0  0
   21.2166   32.8667   68.4726 H   0  0  0  0  0  0  0  0  0  0  0  0
   16.6197   31.4518   72.0131 C   0  0  0  0  0  0  0  0  0  0  0  0
   16.3953   30.2129   71.1608 C   0  0  0  0  0  0  0  0  0  0  0  0
   14.7420   32.9570   71.3612 C   0  0  0  0  0  0  0  0  0  0  0  0
   13.7571   32.3331   71.7162 O   0  0  0  0  0  0  0  0  0  0  0  0
   16.0953   32.6518   71.4714 N   0  0  0  0  0  0  0  0  0  0  0  0
   16.8175   33.3776   71.1808 H   0  0  0  0  0  0  0  0  0  0  0  0
   16.6829   37.7660   70.1781 Br  0  0  0  0  0  0  0  0  0  0  0  0
   15.2775   36.4488   70.1373 C   0  0  0  0  0  0  0  0  0  0  0  0
   15.4840   35.2184   70.7147 C   0  0  0  0  0  0  0  0  0  0  0  0
   14.4789   34.2763   70.6736 C   0  0  0  0  0  0  0  0  0  0  0  0
   13.2924   34.5544   70.0741 C   0  0  0  0  0  0  0  0  0  0  0  0
   13.1056   35.7855   69.5080 C   0  0  0  0  0  0  0  0  0  0  0  0
   14.0897   36.7763   69.5170 C   0  0  0  0  0  0  0  0  0  0  0  0
 25 26  1  0  0  0
 26 27  2  0  0  0
 26 31  1  0  0  0
 27 28  1  0  0  0
 28 29  2  0  0  0
 28 21  1  0  0  0
 29 30  1  0  0  0
 30 31  2  0  0  0
 21 22  2  0  0  0
 21 23  1  0  0  0
 23 19  1  0  0  0
 19 20  1  0  0  0
 19  1  1  0  0  0
  1  2  2  0  0  0
  1  3  1  0  0  0
  3  4  1  0  0  0
  3 16  1  0  0  0
  4  5  1  0  0  0
  5  6  1  0  0  0
  6  7  1  0  0  0
  6 14  1  0  0  0
  6 15  1  0  0  0
  7  8  1  0  0  0
  8  9  1  0  0  0
  9 10  1  0  0  0
 10 11  1  0  0  0
 10 14  2  0  0  0
 11 12  2  0  0  0
 12 13  1  0  0  0
 13 14  1  0  0  0
 15 16  1  0  0  0
 23 24  1  0  0  0
  7 17  1  0  0  0
 13 18  1  0  0  0
M  END
> <minimizedAffinity>
-9.30943

$$$$
130


 30 33  0  0  0  0  0  0  0  0999 V2000
   20.5961   35.5037   70.7607 C   0  0  0  0  0  0  0  0  0  0  0  0
   20.8545   36.2979   71.7325 O   0  0  0  0  0  0  0  0  0  0  0  0
   21.5297   35.2669   69.7429 N   0  0  0  0  0  0  0  0  0  0  0  0
   21.2750   34.3924   68.6431 C   0  0  0  0  0  0  0  0  0  0  0  0
   21.8908   34.8771   67.3612 C   0  0  0  0  0  0  0  0  0  0  0  0
   22.1918   36.3593   67.3214 C   0  0  0  0  0  0  0  0  0  0  0  0
   23.0292   36.5107   66.1392 N   0  0  0  0  0  0  0  0  0  0  0  0
   23.2956   37.8366   65.7304 C   0  0  0  0  0  0  0  0  0  0  0  0
   22.4154   38.9145   66.2476 C   0  0  0  0  0  0  0  0  0  0  0  0
   21.0469   38.4042   66.5720 C   0  0  0  0  0  0  0  0  0  0  0  0
   19.8401   38.9548   66.4471 N   0  0  0  0  0  0  0  0  0  0  0  0
   18.9661   38.0313   66.8993 C   0  0  0  0  0  0  0  0  0  0  0  0
   19.6234   36.9214   67.3010 N   0  0  0  0  0  0  0  0  0  0  0  0
   20.9550   37.1415   67.1000 C   0  0  0  0  0  0  0  0  0  0  0  0
   22.9110   36.8696   68.5435 C   0  0  0  0  0  0  0  0  0  0  0  0
   22.8308   35.9257   69.7295 C   0  0  0  0  0  0  0  0  0  0  0  0
   23.9189   35.9916   66.3915 H   0  0  0  0  0  0  0  0  0  0  0  0
   19.1867   36.0685   67.6888 H   0  0  0  0  0  0  0  0  0  0  0  0
   19.2300   34.8692   70.8185 C   0  0  0  0  0  0  0  0  0  0  0  0
   17.2781   36.6555   70.2380 C   0  0  0  0  0  0  0  0  0  0  0  0
   17.3883   37.9084   69.9933 O   0  0  0  0  0  0  0  0  0  0  0  0
   18.2312   35.7831   70.5217 N   0  0  0  0  0  0  0  0  0  0  0  0
   19.1873   36.7794   70.4361 H   0  0  0  0  0  0  0  0  0  0  0  0
   13.8089   32.6705   71.0026 Br  0  0  0  0  0  0  0  0  0  0  0  0
   14.2190   34.4342   70.4717 C   0  0  0  0  0  0  0  0  0  0  0  0
   15.5268   34.8869   70.5570 C   0  0  0  0  0  0  0  0  0  0  0  0
   15.8562   36.1629   70.1841 C   0  0  0  0  0  0  0  0  0  0  0  0
   14.9307   37.0462   69.7150 C   0  0  0  0  0  0  0  0  0  0  0  0
   13.6095   36.5973   69.6250 C   0  0  0  0  0  0  0  0  0  0  0  0
   13.2730   35.3100   69.9996 C   0  0  0  0  0  0  0  0  0  0  0  0
 24 25  1  0  0  0
 25 26  2  0  0  0
 25 30  1  0  0  0
 26 27  1  0  0  0
 27 28  2  0  0  0
 27 20  1  0  0  0
 28 29  1  0  0  0
 29 30  2  0  0  0
 20 21  2  0  0  0
 20 22  1  0  0  0
 22 19  1  0  0  0
 19  1  1  0  0  0
  1  2  2  0  0  0
  1  3  1  0  0  0
  3  4  1  0  0  0
  3 16  1  0  0  0
  4  5  1  0  0  0
  5  6  1  0  0  0
  6  7  1  0  0  0
  6 14  1  0  0  0
  6 15  1  0  0  0
  7  8  1  0  0  0
  8  9  1  0  0  0
  9 10  1  0  0  0
 10 11  1  0  0  0
 10 14  2  0  0  0
 11 12  2  0  0  0
 12 13  1  0  0  0
 13 14  1  0  0  0
 15 16  1  0  0  0
 22 23  1  0  0  0
  7 17  1  0  0  0
 13 18  1  0  0  0
M  END
> <minimizedAffinity>
-9.08897

$$$$
131


 30 33  0  0  0  0  0  0  0  0999 V2000
   19.9095   36.8093   69.9031 C   0  0  0  0  0  0  0  0  0  0  0  0
   19.9289   36.2850   71.0438 O   0  0  0  0  0  0  0  0  0  0  0  0
   21.0873   36.8387   69.1402 N   0  0  0  0  0  0  0  0  0  0  0  0
   21.1429   37.4233   67.8233 C   0  0  0  0  0  0  0  0  0  0  0  0
   21.4570   36.3009   66.8581 C   0  0  0  0  0  0  0  0  0  0  0  0
   22.6604   35.5309   67.3473 C   0  0  0  0  0  0  0  0  0  0  0  0
   22.2404   34.1737   67.6246 N   0  0  0  0  0  0  0  0  0  0  0  0
   23.2895   33.2822   67.9773 C   0  0  0  0  0  0  0  0  0  0  0  0
   24.5710   33.4188   67.2401 C   0  0  0  0  0  0  0  0  0  0  0  0
   24.5526   34.4163   66.1498 C   0  0  0  0  0  0  0  0  0  0  0  0
   25.3067   34.5606   65.0171 N   0  0  0  0  0  0  0  0  0  0  0  0
   24.8524   35.6529   64.3910 C   0  0  0  0  0  0  0  0  0  0  0  0
   23.8438   36.1825   65.1023 N   0  0  0  0  0  0  0  0  0  0  0  0
   23.6275   35.4339   66.2129 C   0  0  0  0  0  0  0  0  0  0  0  0
   23.3342   36.1295   68.5397 C   0  0  0  0  0  0  0  0  0  0  0  0
   22.3036   36.2726   69.6640 C   0  0  0  0  0  0  0  0  0  0  0  0
   21.5514   34.1988   68.4217 H   0  0  0  0  0  0  0  0  0  0  0  0
   26.0921   33.9044   64.7342 H   0  0  0  0  0  0  0  0  0  0  0  0
   18.6122   37.3693   69.4405 C   0  0  0  0  0  0  0  0  0  0  0  0
   16.3026   36.7473   70.1737 C   0  0  0  0  0  0  0  0  0  0  0  0
   16.1636   37.9258   70.5905 O   0  0  0  0  0  0  0  0  0  0  0  0
   17.5378   36.4092   69.5755 N   0  0  0  0  0  0  0  0  0  0  0  0
   17.6763   35.4415   69.2237 H   0  0  0  0  0  0  0  0  0  0  0  0
   14.5418   32.0636   72.0006 Br  0  0  0  0  0  0  0  0  0  0  0  0
   14.2759   33.7061   71.0962 C   0  0  0  0  0  0  0  0  0  0  0  0
   15.3355   34.5863   70.9697 C   0  0  0  0  0  0  0  0  0  0  0  0
   15.2066   35.8008   70.3222 C   0  0  0  0  0  0  0  0  0  0  0  0
   13.9663   36.1228   69.7900 C   0  0  0  0  0  0  0  0  0  0  0  0
   12.9175   35.2434   69.9195 C   0  0  0  0  0  0  0  0  0  0  0  0
   13.0280   34.0300   70.5614 C   0  0  0  0  0  0  0  0  0  0  0  0
 24 25  1  0  0  0
 25 26  2  0  0  0
 25 30  1  0  0  0
 26 27  1  0  0  0
 27 28  2  0  0  0
 27 20  1  0  0  0
 28 29  1  0  0  0
 29 30  2  0  0  0
 20 21  2  0  0  0
 20 22  1  0  0  0
 22 19  1  0  0  0
 19  1  1  0  0  0
  1  2  2  0  0  0
  1  3  1  0  0  0
  3  4  1  0  0  0
  3 16  1  0  0  0
  4  5  1  0  0  0
  5  6  1  0  0  0
  6  7  1  0  0  0
  6 14  1  0  0  0
  6 15  1  0  0  0
  7  8  1  0  0  0
  8  9  1  0  0  0
  9 10  1  0  0  0
 10 11  1  0  0  0
 10 14  2  0  0  0
 11 12  1  0  0  0
 12 13  2  0  0  0
 13 14  1  0  0  0
 15 16  1  0  0  0
 22 23  1  0  0  0
  7 17  1  0  0  0
 11 18  1  0  0  0
M  END
> <minimizedAffinity>
-9.45963

$$$$
136


 30 33  0  0  0  0  0  0  0  0999 V2000
   21.0294   37.2268   68.0910 C   0  0  0  0  0  0  0  0  0  0  0  0
   21.4356   36.2792   66.9789 C   0  0  0  0  0  0  0  0  0  0  0  0
   22.8048   36.6700   66.7050 N   0  0  0  0  0  0  0  0  0  0  0  0
   23.2834   37.6133   67.6949 C   0  0  0  0  0  0  0  0  0  0  0  0
   22.3139   37.3641   68.8581 C   0  0  0  0  0  0  0  0  0  0  0  0
   24.6572   37.2605   68.0492 C   0  0  0  0  0  0  0  0  0  0  0  0
   24.9999   37.0910   69.2285 O   0  0  0  0  0  0  0  0  0  0  0  0
   25.5972   37.1168   66.9964 N   0  0  0  0  0  0  0  0  0  0  0  0
   25.1377   36.7398   65.6788 C   0  0  0  0  0  0  0  0  0  0  0  0
   23.7245   36.2997   65.6677 C   0  0  0  0  0  0  0  0  0  0  0  0
   23.3035   35.5779   64.7258 O   0  0  0  0  0  0  0  0  0  0  0  0
   26.6216   37.2718   67.1324 H   0  0  0  0  0  0  0  0  0  0  0  0
   18.6986   37.3175   68.8269 C   0  0  0  0  0  0  0  0  0  0  0  0
   18.5560   38.3507   68.0748 O   0  0  0  0  0  0  0  0  0  0  0  0
   19.9516   36.6753   68.8924 N   0  0  0  0  0  0  0  0  0  0  0  0
   20.0736   35.8512   69.4966 H   0  0  0  0  0  0  0  0  0  0  0  0
   16.7642   33.8345   72.3462 Br  0  0  0  0  0  0  0  0  0  0  0  0
   16.5896   35.3295   71.1646 C   0  0  0  0  0  0  0  0  0  0  0  0
   17.6669   35.7677   70.4456 C   0  0  0  0  0  0  0  0  0  0  0  0
   17.5494   36.8524   69.5850 C   0  0  0  0  0  0  0  0  0  0  0  0
   16.3374   37.4605   69.4834 C   0  0  0  0  0  0  0  0  0  0  0  0
   15.2515   37.0089   70.2169 C   0  0  0  0  0  0  0  0  0  0  0  0
   15.3701   35.9361   71.0658 C   0  0  0  0  0  0  0  0  0  0  0  0
   25.4087   37.8086   64.6415 C   0  0  0  0  0  0  0  0  0  0  0  0
   24.9776   39.1512   65.0642 C   0  0  0  0  0  0  0  0  0  0  0  0
   25.8691   39.9881   65.7108 C   0  0  0  0  0  0  0  0  0  0  0  0
   25.4738   41.2443   66.1091 C   0  0  0  0  0  0  0  0  0  0  0  0
   24.1976   41.7283   65.8921 C   0  0  0  0  0  0  0  0  0  0  0  0
   23.3067   40.8967   65.2480 C   0  0  0  0  0  0  0  0  0  0  0  0
   23.6858   39.6322   64.8408 C   0  0  0  0  0  0  0  0  0  0  0  0
 17 18  1  0  0  0
 18 19  2  0  0  0
 18 23  1  0  0  0
 19 20  1  0  0  0
 20 21  2  0  0  0
 20 13  1  0  0  0
 21 22  1  0  0  0
 22 23  2  0  0  0
 13 14  2  0  0  0
 13 15  1  0  0  0
 15  1  1  0  0  0
  1  2  1  0  0  0
  1  5  1  0  0  0
  2  3  1  0  0  0
  3  4  1  0  0  0
  3 10  1  0  0  0
  4  5  1  0  0  0
  4  6  1  0  0  0
  6  7  2  0  0  0
  6  8  1  0  0  0
  8  9  1  0  0  0
  9 10  1  0  0  0
  9 24  1  0  0  0
 10 11  2  0  0  0
 24 25  1  0  0  0
 25 26  2  0  0  0
 25 30  1  0  0  0
 26 27  1  0  0  0
 27 28  2  0  0  0
 28 29  1  0  0  0
 29 30  2  0  0  0
 15 16  1  0  0  0
  8 12  1  0  0  0
M  END
> <minimizedAffinity>
-8.88411

$$$$
137


 25 28  0  0  0  0  0  0  0  0999 V2000
   17.8763   37.4550   69.7590 C   0  0  0  0  0  0  0  0  0  0  0  0
   18.0188   37.5907   68.1981 C   0  0  0  0  0  0  0  0  0  0  0  0
   19.4126   37.4099   67.9735 N   0  0  0  0  0  0  0  0  0  0  0  0
   19.9941   36.7168   69.1138 C   0  0  0  0  0  0  0  0  0  0  0  0
   18.8376   36.2338   69.8889 C   0  0  0  0  0  0  0  0  0  0  0  0
   20.9702   35.7148   68.6569 C   0  0  0  0  0  0  0  0  0  0  0  0
   21.0220   34.6091   69.2236 O   0  0  0  0  0  0  0  0  0  0  0  0
   21.8425   36.0054   67.5840 N   0  0  0  0  0  0  0  0  0  0  0  0
   21.4016   36.8809   66.5208 C   0  0  0  0  0  0  0  0  0  0  0  0
   22.6436   37.6137   66.0554 C   0  0  0  0  0  0  0  0  0  0  0  0
   23.7608   37.0069   66.8297 C   0  0  0  0  0  0  0  0  0  0  0  0
   23.2059   35.6298   67.2239 C   0  0  0  0  0  0  0  0  0  0  0  0
   20.2982   37.7512   66.9132 C   0  0  0  0  0  0  0  0  0  0  0  0
   20.1072   38.8575   66.2970 O   0  0  0  0  0  0  0  0  0  0  0  0
   15.3216   37.1321   70.5738 C   0  0  0  0  0  0  0  0  0  0  0  0
   14.4959   37.9878   71.0189 O   0  0  0  0  0  0  0  0  0  0  0  0
   16.6201   37.2933   70.1583 N   0  0  0  0  0  0  0  0  0  0  0  0
   16.5243   38.6366   70.4473 H   0  0  0  0  0  0  0  0  0  0  0  0
   15.3141   32.0497   72.3535 Br  0  0  0  0  0  0  0  0  0  0  0  0
   14.6489   33.4654   71.2739 C   0  0  0  0  0  0  0  0  0  0  0  0
   15.1936   34.7258   71.2920 C   0  0  0  0  0  0  0  0  0  0  0  0
   14.6990   35.7539   70.5271 C   0  0  0  0  0  0  0  0  0  0  0  0
   13.6213   35.5199   69.7122 C   0  0  0  0  0  0  0  0  0  0  0  0
   13.0391   34.2593   69.6634 C   0  0  0  0  0  0  0  0  0  0  0  0
   13.5563   33.2581   70.4367 C   0  0  0  0  0  0  0  0  0  0  0  0
 19 20  1  0  0  0
 20 21  2  0  0  0
 20 25  1  0  0  0
 21 22  1  0  0  0
 22 23  2  0  0  0
 22 15  1  0  0  0
 23 24  1  0  0  0
 24 25  2  0  0  0
 15 16  2  0  0  0
 15 17  1  0  0  0
 17  1  1  0  0  0
  1  2  1  0  0  0
  1  5  1  0  0  0
  2  3  1  0  0  0
  3  4  1  0  0  0
  3 13  1  0  0  0
  4  5  1  0  0  0
  4  6  1  0  0  0
  6  7  2  0  0  0
  6  8  1  0  0  0
  8  9  1  0  0  0
  8 12  1  0  0  0
  9 10  1  0  0  0
  9 13  1  0  0  0
 10 11  1  0  0  0
 11 12  1  0  0  0
 13 14  2  0  0  0
 17 18  1  0  0  0
M  END
> <minimizedAffinity>
-9.17011

$$$$
138


 25 28  0  0  0  0  0  0  0  0999 V2000
   21.1731   37.2509   67.8333 C   0  0  0  0  0  0  0  0  0  0  0  0
   21.3824   38.1170   66.6360 C   0  0  0  0  0  0  0  0  0  0  0  0
   22.7796   37.8316   66.2658 N   0  0  0  0  0  0  0  0  0  0  0  0
   23.2320   36.6482   66.9824 C   0  0  0  0  0  0  0  0  0  0  0  0
   21.9560   35.9960   67.4190 C   0  0  0  0  0  0  0  0  0  0  0  0
   24.0362   35.8464   66.0645 C   0  0  0  0  0  0  0  0  0  0  0  0
   24.0077   34.6105   66.1023 O   0  0  0  0  0  0  0  0  0  0  0  0
   24.8745   36.4999   65.1012 N   0  0  0  0  0  0  0  0  0  0  0  0
   25.0597   37.9194   65.2801 C   0  0  0  0  0  0  0  0  0  0  0  0
   25.8545   38.4782   64.1727 C   0  0  0  0  0  0  0  0  0  0  0  0
   26.4880   37.2396   63.5703 C   0  0  0  0  0  0  0  0  0  0  0  0
   25.6151   36.0912   63.9477 C   0  0  0  0  0  0  0  0  0  0  0  0
   23.6739   38.4955   65.3774 C   0  0  0  0  0  0  0  0  0  0  0  0
   23.3293   39.4999   64.7152 O   0  0  0  0  0  0  0  0  0  0  0  0
   19.3847   37.0083   69.4944 C   0  0  0  0  0  0  0  0  0  0  0  0
   20.2228   37.2940   70.4197 O   0  0  0  0  0  0  0  0  0  0  0  0
   19.8220   36.9729   68.1523 N   0  0  0  0  0  0  0  0  0  0  0  0
   19.1412   36.7421   67.4063 H   0  0  0  0  0  0  0  0  0  0  0  0
   15.9335   33.7233   71.9325 Br  0  0  0  0  0  0  0  0  0  0  0  0
   16.3933   35.3295   71.0256 C   0  0  0  0  0  0  0  0  0  0  0  0
   17.6694   35.5930   70.5984 C   0  0  0  0  0  0  0  0  0  0  0  0
   18.0284   36.7433   69.9418 C   0  0  0  0  0  0  0  0  0  0  0  0
   17.0344   37.6643   69.7135 C   0  0  0  0  0  0  0  0  0  0  0  0
   15.7159   37.4344   70.1342 C   0  0  0  0  0  0  0  0  0  0  0  0
   15.4010   36.2568   70.7933 C   0  0  0  0  0  0  0  0  0  0  0  0
 19 20  1  0  0  0
 20 21  2  0  0  0
 20 25  1  0  0  0
 21 22  1  0  0  0
 22 23  2  0  0  0
 22 15  1  0  0  0
 23 24  1  0  0  0
 24 25  2  0  0  0
 15 16  2  0  0  0
 15 17  1  0  0  0
 17  1  1  0  0  0
  1  2  1  0  0  0
  1  5  1  0  0  0
  2  3  1  0  0  0
  3  4  1  0  0  0
  3 13  1  0  0  0
  4  5  1  0  0  0
  4  6  1  0  0  0
  6  7  2  0  0  0
  6  8  1  0  0  0
  8  9  1  0  0  0
  8 12  1  0  0  0
  9 10  1  0  0  0
  9 13  1  0  0  0
 10 11  1  0  0  0
 11 12  1  0  0  0
 13 14  2  0  0  0
 17 18  1  0  0  0
M  END
> <minimizedAffinity>
-8.55290

$$$$
141


 23 26  0  0  0  0  0  0  0  0999 V2000
   15.2517   32.3779   71.1581 N   0  0  0  0  0  0  0  0  0  0  0  0
   13.9329   32.3910   71.7377 C   0  0  0  0  0  0  0  0  0  0  0  0
   13.1084   33.3580   71.7831 O   0  0  0  0  0  0  0  0  0  0  0  0
   13.6642   31.0774   72.2907 C   0  0  0  0  0  0  0  0  0  0  0  0
   14.6640   30.1145   71.6205 C   0  0  0  0  0  0  0  0  0  0  0  0
   15.1070   29.1748   72.6942 C   0  0  0  0  0  0  0  0  0  0  0  0
   13.9971   29.3515   73.7497 C   0  0  0  0  0  0  0  0  0  0  0  0
   14.1118   30.8910   73.7334 C   0  0  0  0  0  0  0  0  0  0  0  0
   15.5935   31.0151   73.8443 C   0  0  0  0  0  0  0  0  0  0  0  0
   16.1955   29.8803   73.4639 C   0  0  0  0  0  0  0  0  0  0  0  0
   15.7859   31.0974   71.3503 C   0  0  0  0  0  0  0  0  0  0  0  0
   16.9965   30.7821   71.3128 O   0  0  0  0  0  0  0  0  0  0  0  0
   16.4725   34.5626   71.1992 C   0  0  0  0  0  0  0  0  0  0  0  0
   16.6650   34.5293   72.4271 O   0  0  0  0  0  0  0  0  0  0  0  0
   15.7853   33.5273   70.5425 N   0  0  0  0  0  0  0  0  0  0  0  0
   15.6733   33.6548   69.4867 H   0  0  0  0  0  0  0  0  0  0  0  0
   20.7726   37.0228   69.4142 Br  0  0  0  0  0  0  0  0  0  0  0  0
   18.8828   36.9059   69.6127 C   0  0  0  0  0  0  0  0  0  0  0  0
   18.3571   35.8385   70.2975 C   0  0  0  0  0  0  0  0  0  0  0  0
   16.9816   35.7095   70.4735 C   0  0  0  0  0  0  0  0  0  0  0  0
   16.1738   36.6693   69.9475 C   0  0  0  0  0  0  0  0  0  0  0  0
   16.7070   37.7379   69.2613 C   0  0  0  0  0  0  0  0  0  0  0  0
   18.0594   37.8875   69.0743 C   0  0  0  0  0  0  0  0  0  0  0  0
 17 18  1  0  0  0
 18 19  2  0  0  0
 18 23  1  0  0  0
 19 20  1  0  0  0
 20 21  2  0  0  0
 20 13  1  0  0  0
 21 22  1  0  0  0
 22 23  2  0  0  0
 13 14  2  0  0  0
 13 15  1  0  0  0
 15  1  1  0  0  0
  1  2  1  0  0  0
  1 11  1  0  0  0
  2  3  2  0  0  0
  2  4  1  0  0  0
  4  5  1  0  0  0
  4  8  1  0  0  0
  5  6  1  0  0  0
  5 11  1  0  0  0
  6  7  1  0  0  0
  6 10  1  0  0  0
  7  8  1  0  0  0
  8  9  1  0  0  0
  9 10  2  0  0  0
 11 12  2  0  0  0
 15 16  1  0  0  0
M  END
> <minimizedAffinity>
-7.96851

$$$$
152


 27 30  0  0  0  0  0  0  0  0999 V2000
   16.8570   37.4868   69.6516 C   0  0  0  0  0  0  0  0  0  0  0  0
   16.2092   36.3844   70.0452 C   0  0  0  0  0  0  0  0  0  0  0  0
   16.7597   35.2052   70.3317 O   0  0  0  0  0  0  0  0  0  0  0  0
   15.7566   34.2913   70.7427 C   0  0  0  0  0  0  0  0  0  0  0  0
   14.5351   34.8754   70.7297 C   0  0  0  0  0  0  0  0  0  0  0  0
   13.4482   34.1306   71.1810 C   0  0  0  0  0  0  0  0  0  0  0  0
   13.6151   32.8472   71.5978 C   0  0  0  0  0  0  0  0  0  0  0  0
   14.8689   32.2698   71.5695 C   0  0  0  0  0  0  0  0  0  0  0  0
   15.9867   32.9463   71.1436 C   0  0  0  0  0  0  0  0  0  0  0  0
   14.9885   30.9454   71.9971 O   0  0  0  0  0  0  0  0  0  0  0  0
   14.7617   36.2643   70.2649 C   0  0  0  0  0  0  0  0  0  0  0  0
   13.8979   37.1437   70.0924 O   0  0  0  0  0  0  0  0  0  0  0  0
   20.8763   36.6031   66.3036 Br  0  0  0  0  0  0  0  0  0  0  0  0
   20.2359   36.8761   68.0805 C   0  0  0  0  0  0  0  0  0  0  0  0
   18.8986   37.2633   68.2404 C   0  0  0  0  0  0  0  0  0  0  0  0
   18.3382   37.4682   69.5102 C   0  0  0  0  0  0  0  0  0  0  0  0
   19.1575   37.2833   70.5866 C   0  0  0  0  0  0  0  0  0  0  0  0
   20.5076   36.8929   70.4536 C   0  0  0  0  0  0  0  0  0  0  0  0
   21.0332   36.6920   69.1502 C   0  0  0  0  0  0  0  0  0  0  0  0
   17.2216   32.3954   70.6229 C   0  0  0  0  0  0  0  0  0  0  0  0
   18.5444   32.3353   70.8730 N   0  0  0  0  0  0  0  0  0  0  0  0
   19.4347   33.4053   70.9911 C   0  0  0  0  0  0  0  0  0  0  0  0
   19.6820   33.8567   72.4474 C   0  0  0  0  0  0  0  0  0  0  0  0
   20.3223   32.9102   73.2111 O   0  0  0  0  0  0  0  0  0  0  0  0
   19.8346   31.6391   72.8872 C   0  0  0  0  0  0  0  0  0  0  0  0
   18.5335   31.6663   72.2773 C   0  0  0  0  0  0  0  0  0  0  0  0
   18.9962   31.5651   70.2497 H   0  0  0  0  0  0  0  0  0  0  0  0
 13 14  1  0  0  0
 14 15  2  0  0  0
 14 19  1  0  0  0
 15 16  1  0  0  0
 16 17  2  0  0  0
 16  1  1  0  0  0
 17 18  1  0  0  0
 18 19  2  0  0  0
  1  2  2  0  0  0
  2  3  1  0  0  0
  2 11  1  0  0  0
  3  4  1  0  0  0
  4  5  2  0  0  0
  4  9  1  0  0  0
  5  6  1  0  0  0
  5 11  1  0  0  0
  6  7  2  0  0  0
  7  8  1  0  0  0
  8  9  2  0  0  0
  8 10  1  0  0  0
  9 20  1  0  0  0
 20 21  1  0  0  0
 21 22  1  0  0  0
 21 26  1  0  0  0
 22 23  1  0  0  0
 23 24  1  0  0  0
 24 25  1  0  0  0
 25 26  1  0  0  0
 11 12  2  0  0  0
 21 27  1  0  0  0
M  CHG 1  10  -1
M  CHG 1  21   1
M  END
> <minimizedAffinity>
-9.22899

$$$$
153


 34 37  0  0  0  0  0  0  0  0999 V2000
   19.0119   32.0066   71.6234 C   0  0  0  0  0  0  0  0  0  0  0  0
   19.2564   30.9106   72.2563 N   0  0  0  0  0  0  0  0  0  0  0  0
   18.1495   30.1796   72.3430 N   0  0  0  0  0  0  0  0  0  0  0  0
   17.1359   30.8529   71.7380 N   0  0  0  0  0  0  0  0  0  0  0  0
   17.6095   31.9553   71.2588 C   0  0  0  0  0  0  0  0  0  0  0  0
   15.7825   30.4798   72.1219 C   0  0  0  0  0  0  0  0  0  0  0  0
   14.8445   30.5126   71.0255 N   0  0  0  0  0  0  0  0  0  0  0  0
   13.7001   30.1919   71.4049 O   0  0  0  0  0  0  0  0  0  0  0  0
   13.7291   29.9373   72.6772 N   0  0  0  0  0  0  0  0  0  0  0  0
   15.0416   30.1198   73.1115 C   0  0  0  0  0  0  0  0  0  0  0  0
   15.3561   29.9005   74.4679 N   0  0  0  0  0  0  0  0  0  0  0  0
   15.0775   28.9127   74.8044 H   0  0  0  0  0  0  0  0  0  0  0  0
   15.7815   30.4811   75.1642 H   0  0  0  0  0  0  0  0  0  0  0  0
   20.4566   33.3500   70.1942 N   0  0  0  0  0  0  0  0  0  0  0  0
   19.8507   33.2591   71.4139 C   0  0  0  0  0  0  0  0  0  0  0  0
   19.8878   34.0760   72.3599 O   0  0  0  0  0  0  0  0  0  0  0  0
   19.9960   32.3924   69.5878 H   0  0  0  0  0  0  0  0  0  0  0  0
   21.2222   35.1622   68.9017 C   0  0  0  0  0  0  0  0  0  0  0  0
   21.2161   33.9154   69.2821 N   0  0  0  0  0  0  0  0  0  0  0  0
   25.2626   34.5522   65.3190 Br  0  0  0  0  0  0  0  0  0  0  0  0
   23.8408   35.5011   66.1878 C   0  0  0  0  0  0  0  0  0  0  0  0
   23.1570   34.9582   67.2748 C   0  0  0  0  0  0  0  0  0  0  0  0
   22.1178   35.6685   67.8438 C   0  0  0  0  0  0  0  0  0  0  0  0
   21.8048   36.9046   67.3073 C   0  0  0  0  0  0  0  0  0  0  0  0
   22.5032   37.3989   66.2446 C   0  0  0  0  0  0  0  0  0  0  0  0
   23.5339   36.7373   65.6302 C   0  0  0  0  0  0  0  0  0  0  0  0
   17.0852   33.0631   70.4668 C   0  0  0  0  0  0  0  0  0  0  0  0
   16.7306   34.2940   71.0096 N   0  0  0  0  0  0  0  0  0  0  0  0
   16.6543   35.5600   70.5694 C   0  0  0  0  0  0  0  0  0  0  0  0
   15.1553   35.9498   70.4543 C   0  0  0  0  0  0  0  0  0  0  0  0
   14.4200   34.7489   70.2778 N   0  0  0  0  0  0  0  0  0  0  0  0
   14.4012   33.9753   71.4825 C   0  0  0  0  0  0  0  0  0  0  0  0
   15.7776   34.1144   72.1453 C   0  0  0  0  0  0  0  0  0  0  0  0
   13.2425   34.7597   69.5175 C   0  0  0  0  0  0  0  0  0  0  0  0
 20 21  1  0  0  0
 21 22  2  0  0  0
 21 26  1  0  0  0
 22 23  1  0  0  0
 23 24  2  0  0  0
 23 18  1  0  0  0
 24 25  1  0  0  0
 25 26  2  0  0  0
 18 19  2  0  0  0
 19 14  1  0  0  0
 14 15  1  0  0  0
 15 16  2  0  0  0
 15  1  1  0  0  0
  1  2  1  0  0  0
  1  5  2  0  0  0
  2  3  2  0  0  0
  3  4  1  0  0  0
  4  5  1  0  0  0
  4  6  1  0  0  0
  5 27  1  0  0  0
 27 28  1  0  0  0
 28 29  1  0  0  0
 28 33  1  0  0  0
 29 30  1  0  0  0
 30 31  1  0  0  0
 31 32  1  0  0  0
 31 34  1  0  0  0
 32 33  1  0  0  0
  6  7  2  0  0  0
  6 10  1  0  0  0
  7  8  1  0  0  0
  8  9  1  0  0  0
  9 10  2  0  0  0
 10 11  1  0  0  0
 14 17  1  0  0  0
 11 12  1  0  0  0
 11 13  1  0  0  0
M  END
> <minimizedAffinity>
-8.70632

$$$$
156


 29 32  0  0  0  0  0  0  0  0999 V2000
   18.0203   36.5074   69.9406 C   0  0  0  0  0  0  0  0  0  0  0  0
   16.6943   36.3641   70.0307 N   0  0  0  0  0  0  0  0  0  0  0  0
   16.1015   35.3702   70.7495 C   0  0  0  0  0  0  0  0  0  0  0  0
   16.9449   34.5224   71.3770 N   0  0  0  0  0  0  0  0  0  0  0  0
   18.2846   34.6143   71.3247 C   0  0  0  0  0  0  0  0  0  0  0  0
   18.7896   35.6338   70.5871 N   0  0  0  0  0  0  0  0  0  0  0  0
   19.1401   33.7184   71.9874 N   0  0  0  0  0  0  0  0  0  0  0  0
   18.6886   32.8944   73.0764 C   0  0  0  0  0  0  0  0  0  0  0  0
   19.4021   31.5465   72.9052 C   0  0  0  0  0  0  0  0  0  0  0  0
   19.7180   31.3338   71.5655 O   0  0  0  0  0  0  0  0  0  0  0  0
   20.6949   32.1654   71.0797 C   0  0  0  0  0  0  0  0  0  0  0  0
   20.5127   33.6037   71.5843 C   0  0  0  0  0  0  0  0  0  0  0  0
   14.6981   35.2388   70.8294 N   0  0  0  0  0  0  0  0  0  0  0  0
   13.8417   35.9335   69.9087 C   0  0  0  0  0  0  0  0  0  0  0  0
   12.9324   34.8869   69.2743 C   0  0  0  0  0  0  0  0  0  0  0  0
   12.2182   34.3064   70.3194 O   0  0  0  0  0  0  0  0  0  0  0  0
   13.0246   33.5512   71.1516 C   0  0  0  0  0  0  0  0  0  0  0  0
   14.0867   34.4093   71.8313 C   0  0  0  0  0  0  0  0  0  0  0  0
   18.5733   37.5697   69.1726 N   0  0  0  0  0  0  0  0  0  0  0  0
   18.0273   38.4405   69.0072 H   0  0  0  0  0  0  0  0  0  0  0  0
   20.1076   37.0920   67.4315 C   0  0  0  0  0  0  0  0  0  0  0  0
   19.8532   37.4798   68.6187 N   0  0  0  0  0  0  0  0  0  0  0  0
   24.3383   34.0186   66.2877 Br  0  0  0  0  0  0  0  0  0  0  0  0
   23.4244   35.7013   66.3229 C   0  0  0  0  0  0  0  0  0  0  0  0
   22.1544   35.8136   66.8347 C   0  0  0  0  0  0  0  0  0  0  0  0
   21.4540   37.0064   66.8809 C   0  0  0  0  0  0  0  0  0  0  0  0
   22.0985   38.1165   66.3792 C   0  0  0  0  0  0  0  0  0  0  0  0
   23.3857   38.0438   65.8521 C   0  0  0  0  0  0  0  0  0  0  0  0
   24.0418   36.8312   65.8275 C   0  0  0  0  0  0  0  0  0  0  0  0
 23 24  1  0  0  0
 24 25  2  0  0  0
 24 29  1  0  0  0
 25 26  1  0  0  0
 26 27  2  0  0  0
 26 21  1  0  0  0
 27 28  1  0  0  0
 28 29  2  0  0  0
 21 22  2  0  0  0
 22 19  1  0  0  0
 19  1  1  0  0  0
  1  2  2  0  0  0
  1  6  1  0  0  0
  2  3  1  0  0  0
  3  4  2  0  0  0
  3 13  1  0  0  0
  4  5  1  0  0  0
  5  6  2  0  0  0
  5  7  1  0  0  0
  7  8  1  0  0  0
  7 12  1  0  0  0
  8  9  1  0  0  0
  9 10  1  0  0  0
 10 11  1  0  0  0
 11 12  1  0  0  0
 13 14  1  0  0  0
 13 18  1  0  0  0
 14 15  1  0  0  0
 15 16  1  0  0  0
 16 17  1  0  0  0
 17 18  1  0  0  0
 19 20  1  0  0  0
M  END
> <minimizedAffinity>
-8.54375

$$$$
167


 35 38  0  0  0  0  0  0  0  0999 V2000
   17.0079   33.3211   72.2046 C   0  0  0  0  0  0  0  0  0  0  0  0
   16.2474   32.1628   71.9180 N   0  0  0  0  0  0  0  0  0  0  0  0
   17.0036   31.2840   71.1013 C   0  0  0  0  0  0  0  0  0  0  0  0
   16.5677   30.2031   70.5961 O   0  0  0  0  0  0  0  0  0  0  0  0
   18.3375   31.8253   70.9553 C   0  0  0  0  0  0  0  0  0  0  0  0
   19.2188   31.2393   70.2702 O   0  0  0  0  0  0  0  0  0  0  0  0
   18.3840   33.0665   71.7039 C   0  0  0  0  0  0  0  0  0  0  0  0
   19.4537   33.8172   71.8378 C   0  0  0  0  0  0  0  0  0  0  0  0
   19.3549   35.0093   72.5177 O   0  0  0  0  0  0  0  0  0  0  0  0
   17.9409   37.4894   69.0275 Br  0  0  0  0  0  0  0  0  0  0  0  0
   16.7980   36.4270   70.1275 C   0  0  0  0  0  0  0  0  0  0  0  0
   17.2046   35.3059   70.7843 C   0  0  0  0  0  0  0  0  0  0  0  0
   16.4081   34.5094   71.5890 C   0  0  0  0  0  0  0  0  0  0  0  0
   15.0768   34.8875   71.7405 C   0  0  0  0  0  0  0  0  0  0  0  0
   14.6305   36.0212   71.0888 C   0  0  0  0  0  0  0  0  0  0  0  0
   15.4528   36.7963   70.2898 C   0  0  0  0  0  0  0  0  0  0  0  0
   20.7255   33.4111   71.2935 C   0  0  0  0  0  0  0  0  0  0  0  0
   21.3183   33.9975   70.1614 C   0  0  0  0  0  0  0  0  0  0  0  0
   22.5063   33.4213   69.9410 N   0  0  0  0  0  0  0  0  0  0  0  0
   22.6743   32.5093   70.8807 N   0  0  0  0  0  0  0  0  0  0  0  0
   21.6255   32.4727   71.7162 C   0  0  0  0  0  0  0  0  0  0  0  0
   20.6864   35.0892   69.3648 C   0  0  0  0  0  0  0  0  0  0  0  0
   23.4326   33.7273   68.9084 C   0  0  0  0  0  0  0  0  0  0  0  0
   24.5640   34.4678   69.2236 C   0  0  0  0  0  0  0  0  0  0  0  0
   25.5112   34.7925   68.2729 C   0  0  0  0  0  0  0  0  0  0  0  0
   25.3663   34.3844   66.9463 C   0  0  0  0  0  0  0  0  0  0  0  0
   24.2389   33.6466   66.6322 C   0  0  0  0  0  0  0  0  0  0  0  0
   23.3128   33.3374   67.5946 C   0  0  0  0  0  0  0  0  0  0  0  0
   14.8708   31.8556   72.3985 C   0  0  0  0  0  0  0  0  0  0  0  0
   14.9457   30.9614   73.6091 C   0  0  0  0  0  0  0  0  0  0  0  0
   14.4237   29.5810   73.3646 C   0  0  0  0  0  0  0  0  0  0  0  0
   13.5493   29.0517   74.3582 N   0  0  0  0  0  0  0  0  0  0  0  0
   14.1656   28.3686   75.4477 C   0  0  0  0  0  0  0  0  0  0  0  0
   12.7143   30.1249   74.9216 C   0  0  0  0  0  0  0  0  0  0  0  0
   12.8497   28.3918   73.9011 H   0  0  0  0  0  0  0  0  0  0  0  0
 10 11  1  0  0  0
 11 12  2  0  0  0
 11 16  1  0  0  0
 12 13  1  0  0  0
 13 14  2  0  0  0
 13  1  1  0  0  0
 14 15  1  0  0  0
 15 16  2  0  0  0
  1  2  1  0  0  0
  1  7  1  0  0  0
  2  3  1  0  0  0
  2 29  1  0  0  0
  3  4  2  0  0  0
  3  5  1  0  0  0
  5  6  2  0  0  0
  5  7  1  0  0  0
  7  8  2  0  0  0
  8  9  1  0  0  0
  8 17  1  0  0  0
 17 18  2  0  0  0
 17 21  1  0  0  0
 18 19  1  0  0  0
 18 22  1  0  0  0
 19 20  1  0  0  0
 19 23  1  0  0  0
 20 21  2  0  0  0
 23 24  2  0  0  0
 23 28  1  0  0  0
 24 25  1  0  0  0
 25 26  2  0  0  0
 26 27  1  0  0  0
 27 28  2  0  0  0
 29 30  1  0  0  0
 30 31  1  0  0  0
 31 32  1  0  0  0
 32 33  1  0  0  0
 32 34  1  0  0  0
 32 35  1  0  0  0
M  CHG 1   9  -1
M  CHG 1  32   1
M  END
> <minimizedAffinity>
-8.74731

$$$$
169


 37 40  0  0  0  0  0  0  0  0999 V2000
   19.6630   34.9006   70.1861 C   0  0  0  0  0  0  0  0  0  0  0  0
   20.1337   34.8477   71.5567 N   0  0  0  0  0  0  0  0  0  0  0  0
   20.7208   36.1129   71.8240 C   0  0  0  0  0  0  0  0  0  0  0  0
   20.8554   36.6693   72.9363 O   0  0  0  0  0  0  0  0  0  0  0  0
   21.1516   36.6681   70.5218 C   0  0  0  0  0  0  0  0  0  0  0  0
   21.7197   37.7625   70.3140 O   0  0  0  0  0  0  0  0  0  0  0  0
   20.7794   35.6681   69.5302 C   0  0  0  0  0  0  0  0  0  0  0  0
   21.3479   35.4918   68.3770 C   0  0  0  0  0  0  0  0  0  0  0  0
   20.8940   34.4280   67.5695 O   0  0  0  0  0  0  0  0  0  0  0  0
   22.4240   36.3036   67.8269 C   0  0  0  0  0  0  0  0  0  0  0  0
   23.7709   36.2861   67.9652 C   0  0  0  0  0  0  0  0  0  0  0  0
   24.2886   37.2478   67.1729 N   0  0  0  0  0  0  0  0  0  0  0  0
   23.3258   37.9049   66.5145 C   0  0  0  0  0  0  0  0  0  0  0  0
   22.1445   37.3332   66.9058 C   0  0  0  0  0  0  0  0  0  0  0  0
   20.7883   37.7407   66.4297 C   0  0  0  0  0  0  0  0  0  0  0  0
   24.5941   35.4106   68.8655 C   0  0  0  0  0  0  0  0  0  0  0  0
   25.3270   37.4511   67.0906 H   0  0  0  0  0  0  0  0  0  0  0  0
   23.5003   39.0188   65.5608 C   0  0  0  0  0  0  0  0  0  0  0  0
   24.1446   38.8278   64.5188 O   0  0  0  0  0  0  0  0  0  0  0  0
   22.9548   40.2616   65.8202 O   0  0  0  0  0  0  0  0  0  0  0  0
   22.3463   41.0701   64.8395 C   0  0  0  0  0  0  0  0  0  0  0  0
   14.4623   35.1896   71.4115 Br  0  0  0  0  0  0  0  0  0  0  0  0
   16.0521   35.9233   70.6551 C   0  0  0  0  0  0  0  0  0  0  0  0
   17.2246   35.1989   70.6901 C   0  0  0  0  0  0  0  0  0  0  0  0
   18.4079   35.6891   70.1533 C   0  0  0  0  0  0  0  0  0  0  0  0
   18.3304   36.9504   69.5821 C   0  0  0  0  0  0  0  0  0  0  0  0
   17.1628   37.6823   69.5418 C   0  0  0  0  0  0  0  0  0  0  0  0
   16.0015   37.1749   70.0817 C   0  0  0  0  0  0  0  0  0  0  0  0
   20.0337   33.7214   72.4885 C   0  0  0  0  0  0  0  0  0  0  0  0
   19.7920   32.4230   71.7507 C   0  0  0  0  0  0  0  0  0  0  0  0
   18.5238   31.8294   72.0225 N   0  0  0  0  0  0  0  0  0  0  0  0
   17.6942   31.6423   70.8380 C   0  0  0  0  0  0  0  0  0  0  0  0
   16.6366   30.6286   71.1815 C   0  0  0  0  0  0  0  0  0  0  0  0
   16.4499   30.6079   72.5411 O   0  0  0  0  0  0  0  0  0  0  0  0
   16.4132   31.8586   73.1323 C   0  0  0  0  0  0  0  0  0  0  0  0
   17.7165   32.6309   72.9339 C   0  0  0  0  0  0  0  0  0  0  0  0
   18.6650   30.9223   72.5025 H   0  0  0  0  0  0  0  0  0  0  0  0
 22 23  1  0  0  0
 23 24  2  0  0  0
 23 28  1  0  0  0
 24 25  1  0  0  0
 25 26  2  0  0  0
 25  1  1  0  0  0
 26 27  1  0  0  0
 27 28  2  0  0  0
  1  2  1  0  0  0
  1  7  1  0  0  0
  2  3  1  0  0  0
  2 29  1  0  0  0
  3  4  2  0  0  0
  3  5  1  0  0  0
  5  6  2  0  0  0
  5  7  1  0  0  0
  7  8  2  0  0  0
  8  9  1  0  0  0
  8 10  1  0  0  0
 10 11  2  0  0  0
 10 14  1  0  0  0
 11 12  1  0  0  0
 11 16  1  0  0  0
 12 13  1  0  0  0
 13 14  2  0  0  0
 13 18  1  0  0  0
 14 15  1  0  0  0
 18 19  2  0  0  0
 18 20  1  0  0  0
 20 21  1  0  0  0
 29 30  1  0  0  0
 30 31  1  0  0  0
 31 32  1  0  0  0
 31 36  1  0  0  0
 32 33  1  0  0  0
 33 34  1  0  0  0
 34 35  1  0  0  0
 35 36  1  0  0  0
 12 17  1  0  0  0
 31 37  1  0  0  0
M  CHG 1   9  -1
M  CHG 1  31   1
M  END
> <minimizedAffinity>
-8.52300

$$$$
170


 35 38  0  0  0  0  0  0  0  0999 V2000
   19.8039   35.8517   70.8664 C   0  0  0  0  0  0  0  0  0  0  0  0
   19.8232   34.5113   71.4183 N   0  0  0  0  0  0  0  0  0  0  0  0
   20.1392   33.5642   70.4213 C   0  0  0  0  0  0  0  0  0  0  0  0
   19.9704   32.3184   70.3809 O   0  0  0  0  0  0  0  0  0  0  0  0
   20.7621   34.3370   69.3173 C   0  0  0  0  0  0  0  0  0  0  0  0
   21.1749   33.8193   68.2603 O   0  0  0  0  0  0  0  0  0  0  0  0
   20.7783   35.7294   69.7272 C   0  0  0  0  0  0  0  0  0  0  0  0
   21.5401   36.6676   69.2263 C   0  0  0  0  0  0  0  0  0  0  0  0
   21.4913   37.9589   69.7798 O   0  0  0  0  0  0  0  0  0  0  0  0
   14.5030   35.0715   70.8507 Br  0  0  0  0  0  0  0  0  0  0  0  0
   16.0743   36.0112   70.3240 C   0  0  0  0  0  0  0  0  0  0  0  0
   17.3242   35.6014   70.7740 C   0  0  0  0  0  0  0  0  0  0  0  0
   18.4692   36.2685   70.4013 C   0  0  0  0  0  0  0  0  0  0  0  0
   18.3596   37.3601   69.5691 C   0  0  0  0  0  0  0  0  0  0  0  0
   17.1209   37.7713   69.1188 C   0  0  0  0  0  0  0  0  0  0  0  0
   15.9687   37.1096   69.4858 C   0  0  0  0  0  0  0  0  0  0  0  0
   22.4272   36.4307   68.1193 C   0  0  0  0  0  0  0  0  0  0  0  0
   23.7411   36.0529   68.4330 C   0  0  0  0  0  0  0  0  0  0  0  0
   24.6635   35.8469   67.4452 C   0  0  0  0  0  0  0  0  0  0  0  0
   24.3474   36.0002   66.1010 C   0  0  0  0  0  0  0  0  0  0  0  0
   23.0683   36.3677   65.8201 C   0  0  0  0  0  0  0  0  0  0  0  0
   22.1248   36.5806   66.8045 C   0  0  0  0  0  0  0  0  0  0  0  0
   26.0626   35.4443   67.7981 C   0  0  0  0  0  0  0  0  0  0  0  0
   25.3353   35.7729   65.1648 O   0  0  0  0  0  0  0  0  0  0  0  0
   25.7085   36.7831   64.2397 C   0  0  0  0  0  0  0  0  0  0  0  0
   19.5629   34.1527   72.8216 C   0  0  0  0  0  0  0  0  0  0  0  0
   18.8093   32.8531   72.8851 C   0  0  0  0  0  0  0  0  0  0  0  0
   17.3855   32.9684   73.3115 C   0  0  0  0  0  0  0  0  0  0  0  0
   16.6825   31.7043   73.3390 N   0  0  0  0  0  0  0  0  0  0  0  0
   15.3783   31.7997   72.7137 C   0  0  0  0  0  0  0  0  0  0  0  0
   15.3119   30.9402   71.4803 C   0  0  0  0  0  0  0  0  0  0  0  0
   15.5211   29.6039   71.8781 O   0  0  0  0  0  0  0  0  0  0  0  0
   16.8054   29.4431   72.3932 C   0  0  0  0  0  0  0  0  0  0  0  0
   17.5251   30.7304   72.6385 C   0  0  0  0  0  0  0  0  0  0  0  0
   16.5638   31.3172   74.2987 H   0  0  0  0  0  0  0  0  0  0  0  0
 10 11  1  0  0  0
 11 12  2  0  0  0
 11 16  1  0  0  0
 12 13  1  0  0  0
 13 14  2  0  0  0
 13  1  1  0  0  0
 14 15  1  0  0  0
 15 16  2  0  0  0
  1  2  1  0  0  0
  1  7  1  0  0  0
  2  3  1  0  0  0
  2 26  1  0  0  0
  3  4  2  0  0  0
  3  5  1  0  0  0
  5  6  2  0  0  0
  5  7  1  0  0  0
  7  8  2  0  0  0
  8  9  1  0  0  0
  8 17  1  0  0  0
 17 18  2  0  0  0
 17 22  1  0  0  0
 18 19  1  0  0  0
 19 20  2  0  0  0
 19 23  1  0  0  0
 20 21  1  0  0  0
 20 24  1  0  0  0
 21 22  2  0  0  0
 24 25  1  0  0  0
 26 27  1  0  0  0
 27 28  1  0  0  0
 28 29  1  0  0  0
 29 30  1  0  0  0
 29 34  1  0  0  0
 30 31  1  0  0  0
 31 32  1  0  0  0
 32 33  1  0  0  0
 33 34  1  0  0  0
 29 35  1  0  0  0
M  CHG 1   9  -1
M  CHG 1  29   1
M  END
> <minimizedAffinity>
-8.98914

$$$$
175


 32 35  0  0  0  0  0  0  0  0999 V2000
   18.6479   34.9712   71.5318 C   0  0  0  0  0  0  0  0  0  0  0  0
   19.8421   35.0843   70.7489 N   0  0  0  0  0  0  0  0  0  0  0  0
   19.9063   33.9140   69.9482 C   0  0  0  0  0  0  0  0  0  0  0  0
   20.5931   33.7733   68.9059 O   0  0  0  0  0  0  0  0  0  0  0  0
   19.0322   32.8720   70.5369 C   0  0  0  0  0  0  0  0  0  0  0  0
   18.8337   31.7190   70.1185 O   0  0  0  0  0  0  0  0  0  0  0  0
   18.4526   33.4886   71.7151 C   0  0  0  0  0  0  0  0  0  0  0  0
   17.9143   32.8950   72.7576 C   0  0  0  0  0  0  0  0  0  0  0  0
   17.4722   33.6487   73.8240 O   0  0  0  0  0  0  0  0  0  0  0  0
   13.5247   34.4537   69.9347 Br  0  0  0  0  0  0  0  0  0  0  0  0
   15.1545   35.4357   70.1002 C   0  0  0  0  0  0  0  0  0  0  0  0
   16.2671   34.8831   70.7262 C   0  0  0  0  0  0  0  0  0  0  0  0
   17.4578   35.5661   70.8612 C   0  0  0  0  0  0  0  0  0  0  0  0
   17.4950   36.8506   70.3370 C   0  0  0  0  0  0  0  0  0  0  0  0
   16.4039   37.4173   69.7136 C   0  0  0  0  0  0  0  0  0  0  0  0
   15.2411   36.6981   69.6029 C   0  0  0  0  0  0  0  0  0  0  0  0
   17.7634   31.4637   72.8199 C   0  0  0  0  0  0  0  0  0  0  0  0
   18.6769   30.5692   73.2972 C   0  0  0  0  0  0  0  0  0  0  0  0
   18.3810   29.2193   73.3350 C   0  0  0  0  0  0  0  0  0  0  0  0
   17.1839   28.6913   72.9078 C   0  0  0  0  0  0  0  0  0  0  0  0
   16.2621   29.5962   72.4249 C   0  0  0  0  0  0  0  0  0  0  0  0
   16.5364   30.9408   72.3785 C   0  0  0  0  0  0  0  0  0  0  0  0
   16.8904   27.2317   72.9588 C   0  0  0  0  0  0  0  0  0  0  0  0
   20.8305   36.1811   70.7424 C   0  0  0  0  0  0  0  0  0  0  0  0
   20.7374   36.8580   69.4037 C   0  0  0  0  0  0  0  0  0  0  0  0
   21.9672   37.3250   68.8742 N   0  0  0  0  0  0  0  0  0  0  0  0
   23.1081   36.4848   69.0940 C   0  0  0  0  0  0  0  0  0  0  0  0
   23.3624   35.4864   67.9981 C   0  0  0  0  0  0  0  0  0  0  0  0
   23.1878   35.9960   66.7306 O   0  0  0  0  0  0  0  0  0  0  0  0
   21.9332   36.5296   66.5502 C   0  0  0  0  0  0  0  0  0  0  0  0
   21.7880   37.6943   67.4928 C   0  0  0  0  0  0  0  0  0  0  0  0
   22.1764   38.2450   69.3666 H   0  0  0  0  0  0  0  0  0  0  0  0
 10 11  1  0  0  0
 11 12  2  0  0  0
 11 16  1  0  0  0
 12 13  1  0  0  0
 13 14  2  0  0  0
 13  1  1  0  0  0
 14 15  1  0  0  0
 15 16  2  0  0  0
  1  2  1  0  0  0
  1  7  1  0  0  0
  2  3  1  0  0  0
  2 24  1  0  0  0
  3  4  2  0  0  0
  3  5  1  0  0  0
  5  6  2  0  0  0
  5  7  1  0  0  0
  7  8  2  0  0  0
  8  9  1  0  0  0
  8 17  1  0  0  0
 17 18  2  0  0  0
 17 22  1  0  0  0
 18 19  1  0  0  0
 19 20  2  0  0  0
 20 21  1  0  0  0
 20 23  1  0  0  0
 21 22  2  0  0  0
 24 25  1  0  0  0
 25 26  1  0  0  0
 26 27  1  0  0  0
 26 31  1  0  0  0
 27 28  1  0  0  0
 28 29  1  0  0  0
 29 30  1  0  0  0
 30 31  1  0  0  0
 26 32  1  0  0  0
M  CHG 1   9  -1
M  CHG 1  26   1
M  END
> <minimizedAffinity>
-8.50192

$$$$
176


 33 36  0  0  0  0  0  0  0  0999 V2000
   20.0077   35.8730   70.7927 C   0  0  0  0  0  0  0  0  0  0  0  0
   19.9387   34.5562   71.4051 N   0  0  0  0  0  0  0  0  0  0  0  0
   20.1977   33.5945   70.3613 C   0  0  0  0  0  0  0  0  0  0  0  0
   19.9055   32.3749   70.4238 O   0  0  0  0  0  0  0  0  0  0  0  0
   20.8385   34.3083   69.2772 C   0  0  0  0  0  0  0  0  0  0  0  0
   21.2354   33.8492   68.1606 O   0  0  0  0  0  0  0  0  0  0  0  0
   20.9626   35.7021   69.6818 C   0  0  0  0  0  0  0  0  0  0  0  0
   21.7540   36.5989   69.1116 C   0  0  0  0  0  0  0  0  0  0  0  0
   21.6444   37.8944   69.6594 O   0  0  0  0  0  0  0  0  0  0  0  0
   14.6938   35.1644   71.0304 Br  0  0  0  0  0  0  0  0  0  0  0  0
   16.2580   36.0427   70.4042 C   0  0  0  0  0  0  0  0  0  0  0  0
   17.5356   35.6694   70.7981 C   0  0  0  0  0  0  0  0  0  0  0  0
   18.6633   36.3136   70.3426 C   0  0  0  0  0  0  0  0  0  0  0  0
   18.5003   37.3527   69.4761 C   0  0  0  0  0  0  0  0  0  0  0  0
   17.2153   37.7383   69.0700 C   0  0  0  0  0  0  0  0  0  0  0  0
   16.0888   37.0930   69.5270 C   0  0  0  0  0  0  0  0  0  0  0  0
   22.6730   36.3217   68.0201 C   0  0  0  0  0  0  0  0  0  0  0  0
   23.9393   35.8047   68.1575 C   0  0  0  0  0  0  0  0  0  0  0  0
   24.7561   35.5298   67.0791 C   0  0  0  0  0  0  0  0  0  0  0  0
   24.3239   35.7704   65.7945 C   0  0  0  0  0  0  0  0  0  0  0  0
   23.0546   36.2903   65.6372 C   0  0  0  0  0  0  0  0  0  0  0  0
   22.2447   36.5615   66.7225 C   0  0  0  0  0  0  0  0  0  0  0  0
   25.3501   35.4265   64.3981 Cl  0  0  0  0  0  0  0  0  0  0  0  0
   19.5745   34.2847   72.7581 C   0  0  0  0  0  0  0  0  0  0  0  0
   18.8958   33.0177   73.0828 C   0  0  0  0  0  0  0  0  0  0  0  0
   17.4363   32.9993   73.3457 C   0  0  0  0  0  0  0  0  0  0  0  0
   16.7807   31.7381   73.4301 N   0  0  0  0  0  0  0  0  0  0  0  0
   15.5212   31.7656   72.7307 C   0  0  0  0  0  0  0  0  0  0  0  0
   15.6239   31.3006   71.2931 C   0  0  0  0  0  0  0  0  0  0  0  0
   15.9717   29.9485   71.2507 O   0  0  0  0  0  0  0  0  0  0  0  0
   16.6586   29.5752   72.4073 C   0  0  0  0  0  0  0  0  0  0  0  0
   17.6035   30.6958   72.7418 C   0  0  0  0  0  0  0  0  0  0  0  0
   16.7117   31.3870   74.3820 H   0  0  0  0  0  0  0  0  0  0  0  0
 10 11  1  0  0  0
 11 12  2  0  0  0
 11 16  1  0  0  0
 12 13  1  0  0  0
 13 14  2  0  0  0
 13  1  1  0  0  0
 14 15  1  0  0  0
 15 16  2  0  0  0
  1  2  1  0  0  0
  1  7  1  0  0  0
  2  3  1  0  0  0
  2 24  1  0  0  0
  3  4  2  0  0  0
  3  5  1  0  0  0
  5  6  2  0  0  0
  5  7  1  0  0  0
  7  8  2  0  0  0
  8  9  1  0  0  0
  8 17  1  0  0  0
 17 18  2  0  0  0
 17 22  1  0  0  0
 18 19  1  0  0  0
 19 20  2  0  0  0
 20 21  1  0  0  0
 20 23  1  0  0  0
 21 22  2  0  0  0
 24 25  1  0  0  0
 25 26  1  0  0  0
 26 27  1  0  0  0
 27 28  1  0  0  0
 27 32  1  0  0  0
 28 29  1  0  0  0
 29 30  1  0  0  0
 30 31  1  0  0  0
 31 32  1  0  0  0
 27 33  1  0  0  0
M  CHG 1   9  -1
M  CHG 1  27   1
M  END
> <minimizedAffinity>
-9.32496

$$$$
182


 36 40  0  0  0  0  0  0  0  0999 V2000
   17.9106   34.5723   70.5916 C   0  0  0  0  0  0  0  0  0  0  0  0
   18.2528   33.9491   71.8222 N   0  0  0  0  0  0  0  0  0  0  0  0
   19.5284   33.2910   71.5242 C   0  0  0  0  0  0  0  0  0  0  0  0
   19.9770   32.2753   72.0793 O   0  0  0  0  0  0  0  0  0  0  0  0
   20.1537   34.0763   70.4473 C   0  0  0  0  0  0  0  0  0  0  0  0
   21.2555   33.8790   69.8861 O   0  0  0  0  0  0  0  0  0  0  0  0
   19.2141   35.1574   70.1598 C   0  0  0  0  0  0  0  0  0  0  0  0
   19.5004   36.3426   69.6862 C   0  0  0  0  0  0  0  0  0  0  0  0
   18.4313   37.2543   69.5484 O   0  0  0  0  0  0  0  0  0  0  0  0
   20.8462   36.7388   69.2990 C   0  0  0  0  0  0  0  0  0  0  0  0
   21.5216   36.6056   68.1484 N   0  0  0  0  0  0  0  0  0  0  0  0
   22.7571   37.0922   68.2935 C   0  0  0  0  0  0  0  0  0  0  0  0
   22.8647   37.5459   69.5700 N   0  0  0  0  0  0  0  0  0  0  0  0
   21.7112   37.3485   70.2215 C   0  0  0  0  0  0  0  0  0  0  0  0
   21.4075   37.7015   71.6371 C   0  0  0  0  0  0  0  0  0  0  0  0
   23.6719   37.0928   67.2428 C   0  0  0  0  0  0  0  0  0  0  0  0
   23.2469   36.5702   66.0369 C   0  0  0  0  0  0  0  0  0  0  0  0
   21.9610   36.0761   65.9200 C   0  0  0  0  0  0  0  0  0  0  0  0
   21.0767   36.0847   66.9711 C   0  0  0  0  0  0  0  0  0  0  0  0
   25.0315   37.6446   67.4620 C   0  0  0  0  0  0  0  0  0  0  0  0
   12.7826   34.7829   69.2391 Br  0  0  0  0  0  0  0  0  0  0  0  0
   14.3950   35.5974   69.8773 C   0  0  0  0  0  0  0  0  0  0  0  0
   15.5439   34.8645   70.0207 C   0  0  0  0  0  0  0  0  0  0  0  0
   16.7560   35.4128   70.4863 C   0  0  0  0  0  0  0  0  0  0  0  0
   16.6687   36.7558   70.7796 C   0  0  0  0  0  0  0  0  0  0  0  0
   15.5244   37.5120   70.6437 C   0  0  0  0  0  0  0  0  0  0  0  0
   14.3642   36.9308   70.1850 C   0  0  0  0  0  0  0  0  0  0  0  0
   17.6107   33.8323   73.1198 C   0  0  0  0  0  0  0  0  0  0  0  0
   16.8384   32.5769   73.3358 C   0  0  0  0  0  0  0  0  0  0  0  0
   16.2153   32.0813   72.1244 N   0  0  0  0  0  0  0  0  0  0  0  0
   16.7286   30.7799   71.7590 C   0  0  0  0  0  0  0  0  0  0  0  0
   16.1817   29.7222   72.7230 C   0  0  0  0  0  0  0  0  0  0  0  0
   14.8016   29.6800   72.4965 O   0  0  0  0  0  0  0  0  0  0  0  0
   14.2936   30.8843   73.0255 C   0  0  0  0  0  0  0  0  0  0  0  0
   14.7697   32.0784   72.2322 C   0  0  0  0  0  0  0  0  0  0  0  0
   16.4529   32.7270   71.3319 H   0  0  0  0  0  0  0  0  0  0  0  0
 21 22  1  0  0  0
 22 23  2  0  0  0
 22 27  1  0  0  0
 23 24  1  0  0  0
 24 25  2  0  0  0
 24  1  1  0  0  0
 25 26  1  0  0  0
 26 27  2  0  0  0
  1  2  1  0  0  0
  1  7  1  0  0  0
  2  3  1  0  0  0
  2 28  1  0  0  0
  3  4  2  0  0  0
  3  5  1  0  0  0
  5  6  2  0  0  0
  5  7  1  0  0  0
  7  8  2  0  0  0
  8  9  1  0  0  0
  8 10  1  0  0  0
 10 11  1  0  0  0
 10 14  2  0  0  0
 11 12  1  0  0  0
 11 19  1  0  0  0
 12 13  2  0  0  0
 12 16  1  0  0  0
 13 14  1  0  0  0
 14 15  1  0  0  0
 16 17  2  0  0  0
 16 20  1  0  0  0
 17 18  1  0  0  0
 18 19  2  0  0  0
 28 29  1  0  0  0
 29 30  1  0  0  0
 30 31  1  0  0  0
 30 35  1  0  0  0
 31 32  1  0  0  0
 32 33  1  0  0  0
 33 34  1  0  0  0
 34 35  1  0  0  0
 30 36  1  0  0  0
M  CHG 1   9  -1
M  CHG 1  30   1
M  END
> <minimizedAffinity>
-9.21799

$$$$
184


 33 36  0  0  0  0  0  0  0  0999 V2000
   18.1269   32.8582   70.5147 C   0  0  0  0  0  0  0  0  0  0  0  0
   18.6707   32.0437   71.5839 N   0  0  0  0  0  0  0  0  0  0  0  0
   20.0517   31.8570   71.2459 C   0  0  0  0  0  0  0  0  0  0  0  0
   20.7989   30.9250   71.5922 O   0  0  0  0  0  0  0  0  0  0  0  0
   20.4376   32.9823   70.4030 C   0  0  0  0  0  0  0  0  0  0  0  0
   21.5470   33.2592   69.8567 O   0  0  0  0  0  0  0  0  0  0  0  0
   19.2513   33.8141   70.2685 C   0  0  0  0  0  0  0  0  0  0  0  0
   19.2350   35.0944   69.9543 C   0  0  0  0  0  0  0  0  0  0  0  0
   17.9674   35.6776   69.8171 O   0  0  0  0  0  0  0  0  0  0  0  0
   20.4133   35.9242   69.7521 C   0  0  0  0  0  0  0  0  0  0  0  0
   21.0200   36.2152   68.5920 N   0  0  0  0  0  0  0  0  0  0  0  0
   22.0668   37.0567   68.7916 C   0  0  0  0  0  0  0  0  0  0  0  0
   22.0882   37.2785   70.1352 N   0  0  0  0  0  0  0  0  0  0  0  0
   21.1177   36.6208   70.7459 C   0  0  0  0  0  0  0  0  0  0  0  0
   20.7369   36.5435   72.1737 C   0  0  0  0  0  0  0  0  0  0  0  0
   22.8767   37.5086   67.7616 C   0  0  0  0  0  0  0  0  0  0  0  0
   22.6310   37.0998   66.4672 C   0  0  0  0  0  0  0  0  0  0  0  0
   21.5587   36.2370   66.2719 C   0  0  0  0  0  0  0  0  0  0  0  0
   20.7845   35.8138   67.3075 C   0  0  0  0  0  0  0  0  0  0  0  0
   13.1790   34.4366   69.2474 Br  0  0  0  0  0  0  0  0  0  0  0  0
   14.6671   34.3453   70.4248 C   0  0  0  0  0  0  0  0  0  0  0  0
   15.8087   33.6462   70.0312 C   0  0  0  0  0  0  0  0  0  0  0  0
   16.8846   33.5646   70.8498 C   0  0  0  0  0  0  0  0  0  0  0  0
   16.8142   34.1988   72.0949 C   0  0  0  0  0  0  0  0  0  0  0  0
   15.6972   34.8810   72.4755 C   0  0  0  0  0  0  0  0  0  0  0  0
   14.5922   34.9768   71.6580 C   0  0  0  0  0  0  0  0  0  0  0  0
   17.9812   31.5008   72.7568 C   0  0  0  0  0  0  0  0  0  0  0  0
   17.3949   30.1556   72.5320 C   0  0  0  0  0  0  0  0  0  0  0  0
   16.1890   30.0438   71.6937 C   0  0  0  0  0  0  0  0  0  0  0  0
   14.9913   30.5985   72.2205 N   0  0  0  0  0  0  0  0  0  0  0  0
   14.4322   29.7166   73.2167 C   0  0  0  0  0  0  0  0  0  0  0  0
   13.9819   30.6815   71.1481 C   0  0  0  0  0  0  0  0  0  0  0  0
   15.0807   31.5828   72.5548 H   0  0  0  0  0  0  0  0  0  0  0  0
 20 21  1  0  0  0
 21 22  2  0  0  0
 21 26  1  0  0  0
 22 23  1  0  0  0
 23 24  2  0  0  0
 23  1  1  0  0  0
 24 25  1  0  0  0
 25 26  2  0  0  0
  1  2  1  0  0  0
  1  7  1  0  0  0
  2  3  1  0  0  0
  2 27  1  0  0  0
  3  4  2  0  0  0
  3  5  1  0  0  0
  5  6  2  0  0  0
  5  7  1  0  0  0
  7  8  2  0  0  0
  8  9  1  0  0  0
  8 10  1  0  0  0
 10 11  1  0  0  0
 10 14  2  0  0  0
 11 12  1  0  0  0
 11 19  1  0  0  0
 12 13  2  0  0  0
 12 16  1  0  0  0
 13 14  1  0  0  0
 14 15  1  0  0  0
 16 17  2  0  0  0
 17 18  1  0  0  0
 18 19  2  0  0  0
 27 28  1  0  0  0
 28 29  1  0  0  0
 29 30  1  0  0  0
 30 31  1  0  0  0
 30 32  1  0  0  0
 30 33  1  0  0  0
M  CHG 1   9  -1
M  CHG 1  30   1
M  END
> <minimizedAffinity>
-7.45760

$$$$
188


 31 34  0  0  0  0  0  0  0  0999 V2000
   20.2479   36.1337   70.6553 C   0  0  0  0  0  0  0  0  0  0  0  0
   21.1921   36.0155   69.5542 N   0  0  0  0  0  0  0  0  0  0  0  0
   20.8274   34.7550   68.9436 C   0  0  0  0  0  0  0  0  0  0  0  0
   21.0337   34.4143   67.7591 O   0  0  0  0  0  0  0  0  0  0  0  0
   20.1665   33.9255   69.9422 C   0  0  0  0  0  0  0  0  0  0  0  0
   19.6816   32.7673   69.8665 O   0  0  0  0  0  0  0  0  0  0  0  0
   20.1449   34.7197   71.1699 C   0  0  0  0  0  0  0  0  0  0  0  0
   20.0379   34.3299   72.4076 C   0  0  0  0  0  0  0  0  0  0  0  0
   20.0067   35.3189   73.4138 O   0  0  0  0  0  0  0  0  0  0  0  0
   14.9568   35.2768   71.0230 Br  0  0  0  0  0  0  0  0  0  0  0  0
   16.4805   36.1611   70.2649 C   0  0  0  0  0  0  0  0  0  0  0  0
   17.7692   35.8703   70.6855 C   0  0  0  0  0  0  0  0  0  0  0  0
   18.8838   36.4883   70.1631 C   0  0  0  0  0  0  0  0  0  0  0  0
   18.6829   37.4361   69.1781 C   0  0  0  0  0  0  0  0  0  0  0  0
   17.3912   37.7417   68.7429 C   0  0  0  0  0  0  0  0  0  0  0  0
   16.2863   37.1090   69.2811 C   0  0  0  0  0  0  0  0  0  0  0  0
   19.9566   32.9185   72.7362 C   0  0  0  0  0  0  0  0  0  0  0  0
   20.9985   32.1330   72.7969 O   0  0  0  0  0  0  0  0  0  0  0  0
   20.6542   30.9135   73.1078 C   0  0  0  0  0  0  0  0  0  0  0  0
   19.3018   30.8818   73.2646 C   0  0  0  0  0  0  0  0  0  0  0  0
   18.8411   32.1812   73.0230 C   0  0  0  0  0  0  0  0  0  0  0  0
   22.2411   36.8888   69.0990 C   0  0  0  0  0  0  0  0  0  0  0  0
   23.6248   36.2904   69.2052 C   0  0  0  0  0  0  0  0  0  0  0  0
   24.2783   36.3128   67.8806 C   0  0  0  0  0  0  0  0  0  0  0  0
   23.7112   35.4143   66.9006 N   0  0  0  0  0  0  0  0  0  0  0  0
   23.5364   36.0403   65.6111 C   0  0  0  0  0  0  0  0  0  0  0  0
   24.6410   35.8024   64.6443 C   0  0  0  0  0  0  0  0  0  0  0  0
   25.1445   34.5189   64.6203 O   0  0  0  0  0  0  0  0  0  0  0  0
   25.4618   34.0203   65.8766 C   0  0  0  0  0  0  0  0  0  0  0  0
   24.3039   34.1217   66.8357 C   0  0  0  0  0  0  0  0  0  0  0  0
   22.7131   35.2548   67.2499 H   0  0  0  0  0  0  0  0  0  0  0  0
 10 11  1  0  0  0
 11 12  2  0  0  0
 11 16  1  0  0  0
 12 13  1  0  0  0
 13 14  2  0  0  0
 13  1  1  0  0  0
 14 15  1  0  0  0
 15 16  2  0  0  0
  1  2  1  0  0  0
  1  7  1  0  0  0
  2  3  1  0  0  0
  2 22  1  0  0  0
  3  4  2  0  0  0
  3  5  1  0  0  0
  5  6  2  0  0  0
  5  7  1  0  0  0
  7  8  2  0  0  0
  8  9  1  0  0  0
  8 17  1  0  0  0
 17 18  1  0  0  0
 17 21  2  0  0  0
 18 19  1  0  0  0
 19 20  2  0  0  0
 20 21  1  0  0  0
 22 23  1  0  0  0
 23 24  1  0  0  0
 24 25  1  0  0  0
 25 26  1  0  0  0
 25 30  1  0  0  0
 26 27  1  0  0  0
 27 28  1  0  0  0
 28 29  1  0  0  0
 29 30  1  0  0  0
 25 31  1  0  0  0
M  CHG 1   9  -1
M  CHG 1  25   1
M  END
> <minimizedAffinity>
-7.81620

$$$$
191


 34 37  0  0  0  0  0  0  0  0999 V2000
   24.3783   35.9335   68.2637 C   0  0  0  0  0  0  0  0  0  0  0  0
   24.6577   34.5370   67.9974 N   0  0  0  0  0  0  0  0  0  0  0  0
   23.4594   34.0081   67.3891 C   0  0  0  0  0  0  0  0  0  0  0  0
   23.4019   32.9887   66.6597 O   0  0  0  0  0  0  0  0  0  0  0  0
   22.3593   34.8884   67.7944 C   0  0  0  0  0  0  0  0  0  0  0  0
   21.1402   34.8046   67.4964 O   0  0  0  0  0  0  0  0  0  0  0  0
   22.9159   35.9366   68.6419 C   0  0  0  0  0  0  0  0  0  0  0  0
   22.2757   36.7004   69.5106 C   0  0  0  0  0  0  0  0  0  0  0  0
   22.9728   37.6544   70.2081 O   0  0  0  0  0  0  0  0  0  0  0  0
   20.8281   36.5467   69.7478 C   0  0  0  0  0  0  0  0  0  0  0  0
   19.8950   37.3274   69.2744 O   0  0  0  0  0  0  0  0  0  0  0  0
   18.7020   36.9813   69.6264 C   0  0  0  0  0  0  0  0  0  0  0  0
   18.8301   35.8617   70.4125 C   0  0  0  0  0  0  0  0  0  0  0  0
   20.1795   35.5877   70.4887 C   0  0  0  0  0  0  0  0  0  0  0  0
   17.6855   35.2897   70.9231 C   0  0  0  0  0  0  0  0  0  0  0  0
   16.4344   35.8120   70.6641 C   0  0  0  0  0  0  0  0  0  0  0  0
   16.3513   36.9520   69.8582 C   0  0  0  0  0  0  0  0  0  0  0  0
   17.4691   37.5489   69.3324 C   0  0  0  0  0  0  0  0  0  0  0  0
   17.3435   38.6648   68.5452 O   0  0  0  0  0  0  0  0  0  0  0  0
   17.4661   38.7282   67.1604 C   0  0  0  0  0  0  0  0  0  0  0  0
   22.7331   40.1779   65.4244 Br  0  0  0  0  0  0  0  0  0  0  0  0
   23.9536   38.7231   65.7412 C   0  0  0  0  0  0  0  0  0  0  0  0
   23.7723   37.8894   66.8063 C   0  0  0  0  0  0  0  0  0  0  0  0
   24.6191   36.8170   67.0946 C   0  0  0  0  0  0  0  0  0  0  0  0
   25.6708   36.6501   66.2210 C   0  0  0  0  0  0  0  0  0  0  0  0
   25.8663   37.4945   65.1310 C   0  0  0  0  0  0  0  0  0  0  0  0
   25.0059   38.5288   64.8964 C   0  0  0  0  0  0  0  0  0  0  0  0
   25.8710   33.7983   68.2486 C   0  0  0  0  0  0  0  0  0  0  0  0
   25.6644   32.7323   69.2972 C   0  0  0  0  0  0  0  0  0  0  0  0
   25.1898   33.2262   70.6158 C   0  0  0  0  0  0  0  0  0  0  0  0
   24.1666   32.4358   71.2259 N   0  0  0  0  0  0  0  0  0  0  0  0
   24.3691   31.0135   70.9361 C   0  0  0  0  0  0  0  0  0  0  0  0
   22.8497   32.8221   70.8223 C   0  0  0  0  0  0  0  0  0  0  0  0
   24.1949   32.4866   72.2846 H   0  0  0  0  0  0  0  0  0  0  0  0
 21 22  1  0  0  0
 22 23  2  0  0  0
 22 27  1  0  0  0
 23 24  1  0  0  0
 24 25  2  0  0  0
 24  1  1  0  0  0
 25 26  1  0  0  0
 26 27  2  0  0  0
  1  2  1  0  0  0
  1  7  1  0  0  0
  2  3  1  0  0  0
  2 28  1  0  0  0
  3  4  2  0  0  0
  3  5  1  0  0  0
  5  6  2  0  0  0
  5  7  1  0  0  0
  7  8  2  0  0  0
  8  9  1  0  0  0
  8 10  1  0  0  0
 10 11  1  0  0  0
 10 14  2  0  0  0
 11 12  1  0  0  0
 12 13  2  0  0  0
 12 18  1  0  0  0
 13 14  1  0  0  0
 13 15  1  0  0  0
 15 16  2  0  0  0
 16 17  1  0  0  0
 17 18  2  0  0  0
 18 19  1  0  0  0
 19 20  1  0  0  0
 28 29  1  0  0  0
 29 30  1  0  0  0
 30 31  1  0  0  0
 31 32  1  0  0  0
 31 33  1  0  0  0
 31 34  1  0  0  0
M  CHG 1   9  -1
M  CHG 1  31   1
M  END
> <minimizedAffinity>
-8.12965

$$$$
199


 25 28  0  0  0  0  0  0  0  0999 V2000
   13.3109   32.2640   71.2191 C   0  0  0  0  0  0  0  0  0  0  0  0
   13.8724   31.8642   72.5587 C   0  0  0  0  0  0  0  0  0  0  0  0
   14.7468   30.8651   71.9265 N   0  0  0  0  0  0  0  0  0  0  0  0
   13.8747   30.9479   70.7695 C   0  0  0  0  0  0  0  0  0  0  0  0
   15.9165   30.1750   72.3478 C   0  0  0  0  0  0  0  0  0  0  0  0
   15.9529   28.8225   72.4691 N   0  0  0  0  0  0  0  0  0  0  0  0
   17.0892   28.1837   72.8750 C   0  0  0  0  0  0  0  0  0  0  0  0
   18.2010   28.8662   73.1660 N   0  0  0  0  0  0  0  0  0  0  0  0
   18.2358   30.1963   73.0689 C   0  0  0  0  0  0  0  0  0  0  0  0
   19.2119   31.0965   73.3009 N   0  0  0  0  0  0  0  0  0  0  0  0
   18.6951   32.2785   73.0442 N   0  0  0  0  0  0  0  0  0  0  0  0
   17.4203   32.1584   72.6564 N   0  0  0  0  0  0  0  0  0  0  0  0
   17.0860   30.8400   72.6586 C   0  0  0  0  0  0  0  0  0  0  0  0
   20.5802   30.8470   73.7472 C   0  0  0  0  0  0  0  0  0  0  0  0
   14.9663   34.1431   71.3477 N   0  0  0  0  0  0  0  0  0  0  0  0
   13.9783   33.4688   70.6136 C   0  0  0  0  0  0  0  0  0  0  0  0
   13.5833   33.7742   69.4790 O   0  0  0  0  0  0  0  0  0  0  0  0
   15.2220   33.7732   72.3356 H   0  0  0  0  0  0  0  0  0  0  0  0
   19.7099   36.0942   70.0709 Br  0  0  0  0  0  0  0  0  0  0  0  0
   17.8257   36.2558   70.3043 C   0  0  0  0  0  0  0  0  0  0  0  0
   17.0605   35.1946   70.7282 C   0  0  0  0  0  0  0  0  0  0  0  0
   15.6720   35.2807   70.9102 C   0  0  0  0  0  0  0  0  0  0  0  0
   15.1030   36.4936   70.6404 C   0  0  0  0  0  0  0  0  0  0  0  0
   15.8888   37.5658   70.2110 C   0  0  0  0  0  0  0  0  0  0  0  0
   17.2321   37.4548   70.0430 C   0  0  0  0  0  0  0  0  0  0  0  0
 19 20  1  0  0  0
 20 21  2  0  0  0
 20 25  1  0  0  0
 21 22  1  0  0  0
 22 23  2  0  0  0
 22 15  1  0  0  0
 23 24  1  0  0  0
 24 25  2  0  0  0
 15 16  1  0  0  0
 16 17  2  0  0  0
 16  1  1  0  0  0
  1  2  1  0  0  0
  1  4  1  0  0  0
  2  3  1  0  0  0
  3  4  1  0  0  0
  3  5  1  0  0  0
  5  6  2  0  0  0
  5 13  1  0  0  0
  6  7  1  0  0  0
  7  8  2  0  0  0
  8  9  1  0  0  0
  9 10  1  0  0  0
  9 13  2  0  0  0
 10 11  1  0  0  0
 10 14  1  0  0  0
 11 12  2  0  0  0
 12 13  1  0  0  0
 15 18  1  0  0  0
M  END
> <minimizedAffinity>
-8.30469

$$$$
200


 21 24  0  0  0  0  0  0  0  0999 V2000
   17.0789   37.2580   69.7417 C   0  0  0  0  0  0  0  0  0  0  0  0
   16.9846   38.1420   68.7544 N   0  0  0  0  0  0  0  0  0  0  0  0
   17.9501   38.4103   67.8594 C   0  0  0  0  0  0  0  0  0  0  0  0
   18.0976   39.2286   66.8029 N   0  0  0  0  0  0  0  0  0  0  0  0
   19.2676   39.0939   66.2626 O   0  0  0  0  0  0  0  0  0  0  0  0
   19.9044   38.2025   66.9357 N   0  0  0  0  0  0  0  0  0  0  0  0
   19.1554   37.7278   67.9446 C   0  0  0  0  0  0  0  0  0  0  0  0
   19.2986   36.8252   68.9263 N   0  0  0  0  0  0  0  0  0  0  0  0
   20.3456   36.0549   69.2112 N   0  0  0  0  0  0  0  0  0  0  0  0
   20.0141   35.3178   70.2823 N   0  0  0  0  0  0  0  0  0  0  0  0
   18.7703   35.6449   70.6384 N   0  0  0  0  0  0  0  0  0  0  0  0
   18.3129   36.5816   69.8038 C   0  0  0  0  0  0  0  0  0  0  0  0
   16.0920   36.9432   70.7052 N   0  0  0  0  0  0  0  0  0  0  0  0
   16.1046   37.4310   71.6461 H   0  0  0  0  0  0  0  0  0  0  0  0
   13.9021   32.1485   71.6970 Br  0  0  0  0  0  0  0  0  0  0  0  0
   13.9313   33.8640   70.8653 C   0  0  0  0  0  0  0  0  0  0  0  0
   14.9676   34.7584   71.0777 C   0  0  0  0  0  0  0  0  0  0  0  0
   15.0569   36.0035   70.5165 C   0  0  0  0  0  0  0  0  0  0  0  0
   13.9778   36.3342   69.6694 C   0  0  0  0  0  0  0  0  0  0  0  0
   12.9344   35.4726   69.4364 C   0  0  0  0  0  0  0  0  0  0  0  0
   12.9061   34.2319   70.0330 C   0  0  0  0  0  0  0  0  0  0  0  0
 15 16  1  0  0  0
 16 17  2  0  0  0
 16 21  1  0  0  0
 17 18  1  0  0  0
 18 19  2  0  0  0
 18 13  1  0  0  0
 19 20  1  0  0  0
 20 21  2  0  0  0
 13  1  1  0  0  0
  1  2  2  0  0  0
  1 12  1  0  0  0
  2  3  1  0  0  0
  3  4  2  0  0  0
  3  7  1  0  0  0
  4  5  1  0  0  0
  5  6  1  0  0  0
  6  7  2  0  0  0
  7  8  1  0  0  0
  8  9  1  0  0  0
  8 12  1  0  0  0
  9 10  2  0  0  0
 10 11  1  0  0  0
 11 12  2  0  0  0
 13 14  1  0  0  0
M  END
> <minimizedAffinity>
-8.28675

$$$$
201


 25 28  0  0  0  0  0  0  0  0999 V2000
   17.8693   37.2538   69.4050 C   0  0  0  0  0  0  0  0  0  0  0  0
   18.2293   36.4153   70.2681 O   0  0  0  0  0  0  0  0  0  0  0  0
   16.6110   37.8745   69.5415 N   0  0  0  0  0  0  0  0  0  0  0  0
   16.3289   38.5691   68.8140 H   0  0  0  0  0  0  0  0  0  0  0  0
   20.5656   37.5636   67.0033 N   0  0  0  0  0  0  0  0  0  0  0  0
   19.6395   38.3125   66.4658 N   0  0  0  0  0  0  0  0  0  0  0  0
   18.5519   38.3235   67.2192 N   0  0  0  0  0  0  0  0  0  0  0  0
   18.7787   37.5420   68.3029 C   0  0  0  0  0  0  0  0  0  0  0  0
   20.0618   37.0694   68.1462 C   0  0  0  0  0  0  0  0  0  0  0  0
   24.4483   34.0121   66.0457 Br  0  0  0  0  0  0  0  0  0  0  0  0
   23.7121   35.7705   66.0541 C   0  0  0  0  0  0  0  0  0  0  0  0
   22.4162   36.0039   66.5259 C   0  0  0  0  0  0  0  0  0  0  0  0
   21.8881   37.2719   66.5312 C   0  0  0  0  0  0  0  0  0  0  0  0
   22.6729   38.3012   66.0587 C   0  0  0  0  0  0  0  0  0  0  0  0
   23.9708   38.0809   65.5844 C   0  0  0  0  0  0  0  0  0  0  0  0
   24.4897   36.8063   65.5843 C   0  0  0  0  0  0  0  0  0  0  0  0
   15.6832   37.6149   70.6189 C   0  0  0  0  0  0  0  0  0  0  0  0
   14.6852   36.5579   70.2315 C   0  0  0  0  0  0  0  0  0  0  0  0
   14.6129   35.2754   70.6619 N   0  0  0  0  0  0  0  0  0  0  0  0
   13.5761   34.6663   70.0773 C   0  0  0  0  0  0  0  0  0  0  0  0
   13.0046   35.5947   69.2731 N   0  0  0  0  0  0  0  0  0  0  0  0
   13.6696   36.7289   69.3662 N   0  0  0  0  0  0  0  0  0  0  0  0
   13.4628   33.2327   70.5316 C   0  0  0  0  0  0  0  0  0  0  0  0
   14.8460   33.0046   71.1039 C   0  0  0  0  0  0  0  0  0  0  0  0
   15.3195   34.3733   71.5551 C   0  0  0  0  0  0  0  0  0  0  0  0
 10 11  1  0  0  0
 11 12  2  0  0  0
 11 16  1  0  0  0
 12 13  1  0  0  0
 13 14  2  0  0  0
 13  5  1  0  0  0
 14 15  1  0  0  0
 15 16  2  0  0  0
  5  6  1  0  0  0
  5  9  1  0  0  0
  6  7  2  0  0  0
  7  8  1  0  0  0
  8  9  2  0  0  0
  8  1  1  0  0  0
  1  2  2  0  0  0
  1  3  1  0  0  0
  3 17  1  0  0  0
 17 18  1  0  0  0
 18 19  1  0  0  0
 18 22  2  0  0  0
 19 20  1  0  0  0
 19 25  1  0  0  0
 20 21  2  0  0  0
 20 23  1  0  0  0
 21 22  1  0  0  0
 23 24  1  0  0  0
 24 25  1  0  0  0
  3  4  1  0  0  0
M  END
> <minimizedAffinity>
-8.39934

$$$$
205


 25 28  0  0  0  0  0  0  0  0999 V2000
   16.3907   33.7907   71.0216 N   0  0  0  0  0  0  0  0  0  0  0  0
   15.5237   34.7635   70.4045 C   0  0  0  0  0  0  0  0  0  0  0  0
   14.4562   34.4650   69.7980 O   0  0  0  0  0  0  0  0  0  0  0  0
   16.0824   36.0994   70.6033 C   0  0  0  0  0  0  0  0  0  0  0  0
   15.9380   37.0135   69.5971 O   0  0  0  0  0  0  0  0  0  0  0  0
   17.1214   37.7423   69.6910 N   0  0  0  0  0  0  0  0  0  0  0  0
   18.1667   36.8442   69.9775 C   0  0  0  0  0  0  0  0  0  0  0  0
   17.5605   35.7925   70.5459 C   0  0  0  0  0  0  0  0  0  0  0  0
   17.6664   34.4499   71.1052 C   0  0  0  0  0  0  0  0  0  0  0  0
   18.7063   33.9487   71.5821 O   0  0  0  0  0  0  0  0  0  0  0  0
   17.2146   38.7587   69.5706 H   0  0  0  0  0  0  0  0  0  0  0  0
   13.3780   30.6192   74.0728 Br  0  0  0  0  0  0  0  0  0  0  0  0
   14.7709   30.9483   72.8126 C   0  0  0  0  0  0  0  0  0  0  0  0
   15.0868   32.2077   72.3692 C   0  0  0  0  0  0  0  0  0  0  0  0
   16.1002   32.4766   71.4518 C   0  0  0  0  0  0  0  0  0  0  0  0
   16.7968   31.3688   70.9945 C   0  0  0  0  0  0  0  0  0  0  0  0
   16.4885   30.1029   71.4313 C   0  0  0  0  0  0  0  0  0  0  0  0
   15.4724   29.8541   72.3493 C   0  0  0  0  0  0  0  0  0  0  0  0
   19.5985   37.0017   69.7743 C   0  0  0  0  0  0  0  0  0  0  0  0
   20.2034   37.2399   68.5366 C   0  0  0  0  0  0  0  0  0  0  0  0
   21.5031   37.3552   68.7242 N   0  0  0  0  0  0  0  0  0  0  0  0
   21.7562   37.2011   70.0216 N   0  0  0  0  0  0  0  0  0  0  0  0
   20.6268   36.9856   70.6745 C   0  0  0  0  0  0  0  0  0  0  0  0
   22.5177   37.6025   67.7011 C   0  0  0  0  0  0  0  0  0  0  0  0
   19.5130   37.3212   67.2280 C   0  0  0  0  0  0  0  0  0  0  0  0
 12 13  1  0  0  0
 13 14  2  0  0  0
 13 18  1  0  0  0
 14 15  1  0  0  0
 15 16  2  0  0  0
 15  1  1  0  0  0
 16 17  1  0  0  0
 17 18  2  0  0  0
  1  2  1  0  0  0
  1  9  1  0  0  0
  2  3  2  0  0  0
  2  4  1  0  0  0
  4  5  1  0  0  0
  4  8  1  0  0  0
  5  6  1  0  0  0
  6  7  1  0  0  0
  7  8  2  0  0  0
  7 19  1  0  0  0
  8  9  1  0  0  0
  9 10  2  0  0  0
 19 20  2  0  0  0
 19 23  1  0  0  0
 20 21  1  0  0  0
 20 25  1  0  0  0
 21 22  1  0  0  0
 21 24  1  0  0  0
 22 23  2  0  0  0
  6 11  1  0  0  0
M  END
> <minimizedAffinity>
-8.41616

$$$$
211


 22 25  0  0  0  0  0  0  0  0999 V2000
   16.5198   35.3747   71.2128 N   0  0  0  0  0  0  0  0  0  0  0  0
   15.1162   35.5930   71.2241 C   0  0  0  0  0  0  0  0  0  0  0  0
   14.5421   36.6839   70.8569 O   0  0  0  0  0  0  0  0  0  0  0  0
   14.4477   34.3802   71.7171 C   0  0  0  0  0  0  0  0  0  0  0  0
   14.0769   33.5343   70.5383 C   0  0  0  0  0  0  0  0  0  0  0  0
   15.3683   33.1062   70.1368 O   0  0  0  0  0  0  0  0  0  0  0  0
   15.6908   32.4328   71.3449 C   0  0  0  0  0  0  0  0  0  0  0  0
   15.5590   33.5769   72.3330 C   0  0  0  0  0  0  0  0  0  0  0  0
   16.7838   34.3908   72.1984 C   0  0  0  0  0  0  0  0  0  0  0  0
   17.8517   34.2268   72.8446 O   0  0  0  0  0  0  0  0  0  0  0  0
   14.5301   31.5185   71.4429 C   0  0  0  0  0  0  0  0  0  0  0  0
   13.5058   32.2112   70.9102 C   0  0  0  0  0  0  0  0  0  0  0  0
   17.3175   38.9041   67.3406 Br  0  0  0  0  0  0  0  0  0  0  0  0
   17.9792   37.6255   68.5950 C   0  0  0  0  0  0  0  0  0  0  0  0
   17.1165   36.9762   69.4188 C   0  0  0  0  0  0  0  0  0  0  0  0
   17.4885   36.0313   70.3629 C   0  0  0  0  0  0  0  0  0  0  0  0
   18.8339   35.7546   70.4474 C   0  0  0  0  0  0  0  0  0  0  0  0
   19.7481   36.4055   69.6151 C   0  0  0  0  0  0  0  0  0  0  0  0
   19.3269   37.3381   68.6904 C   0  0  0  0  0  0  0  0  0  0  0  0
   13.3304   34.2304   69.4647 C   0  0  0  0  0  0  0  0  0  0  0  0
   12.1212   34.6922   69.9873 O   0  0  0  0  0  0  0  0  0  0  0  0
   11.3736   34.4550   69.3835 H   0  0  0  0  0  0  0  0  0  0  0  0
 13 14  1  0  0  0
 14 15  2  0  0  0
 14 19  1  0  0  0
 15 16  1  0  0  0
 16 17  2  0  0  0
 16  1  1  0  0  0
 17 18  1  0  0  0
 18 19  2  0  0  0
  1  2  1  0  0  0
  1  9  1  0  0  0
  2  3  2  0  0  0
  2  4  1  0  0  0
  4  5  1  0  0  0
  4  8  1  0  0  0
  5  6  1  0  0  0
  5 12  1  0  0  0
  5 20  1  0  0  0
  6  7  1  0  0  0
  7  8  1  0  0  0
  7 11  1  0  0  0
  8  9  1  0  0  0
  9 10  2  0  0  0
 11 12  2  0  0  0
 20 21  1  0  0  0
 21 22  1  0  0  0
M  END
> <minimizedAffinity>
-8.55140

$$$$
213


 25 28  0  0  0  0  0  0  0  0999 V2000
   19.2788   36.3484   69.6902 N   0  0  0  0  0  0  0  0  0  0  0  0
   18.3529   37.3487   69.2122 C   0  0  0  0  0  0  0  0  0  0  0  0
   18.4467   38.0539   68.2015 O   0  0  0  0  0  0  0  0  0  0  0  0
   17.2123   37.3991   70.1723 C   0  0  0  0  0  0  0  0  0  0  0  0
   15.9835   37.6376   69.5847 O   0  0  0  0  0  0  0  0  0  0  0  0
   15.1371   36.9590   70.4293 N   0  0  0  0  0  0  0  0  0  0  0  0
   15.7987   35.7028   70.6631 C   0  0  0  0  0  0  0  0  0  0  0  0
   17.0816   35.9283   70.5139 C   0  0  0  0  0  0  0  0  0  0  0  0
   18.4745   35.4654   70.5037 C   0  0  0  0  0  0  0  0  0  0  0  0
   18.8470   34.4605   71.1187 O   0  0  0  0  0  0  0  0  0  0  0  0
   14.2353   37.2534   70.8192 H   0  0  0  0  0  0  0  0  0  0  0  0
   23.2415   33.5990   67.5255 Br  0  0  0  0  0  0  0  0  0  0  0  0
   22.5473   35.1150   68.4424 C   0  0  0  0  0  0  0  0  0  0  0  0
   21.1828   35.2015   68.7366 C   0  0  0  0  0  0  0  0  0  0  0  0
   20.6609   36.2889   69.3998 C   0  0  0  0  0  0  0  0  0  0  0  0
   21.5294   37.2882   69.7625 C   0  0  0  0  0  0  0  0  0  0  0  0
   22.8982   37.2054   69.4693 C   0  0  0  0  0  0  0  0  0  0  0  0
   23.4186   36.1155   68.8050 C   0  0  0  0  0  0  0  0  0  0  0  0
   15.2161   34.4285   70.9865 C   0  0  0  0  0  0  0  0  0  0  0  0
   15.6870   33.6331   72.0289 C   0  0  0  0  0  0  0  0  0  0  0  0
   14.9473   32.5123   72.1083 N   0  0  0  0  0  0  0  0  0  0  0  0
   14.0457   32.6080   71.1462 N   0  0  0  0  0  0  0  0  0  0  0  0
   14.1595   33.7336   70.4444 C   0  0  0  0  0  0  0  0  0  0  0  0
   13.3180   34.1966   69.2896 C   0  0  0  0  0  0  0  0  0  0  0  0
   15.1199   31.4131   73.0721 C   0  0  0  0  0  0  0  0  0  0  0  0
 12 13  1  0  0  0
 13 14  2  0  0  0
 13 18  1  0  0  0
 14 15  1  0  0  0
 15 16  2  0  0  0
 15  1  1  0  0  0
 16 17  1  0  0  0
 17 18  2  0  0  0
  1  2  1  0  0  0
  1  9  1  0  0  0
  2  3  2  0  0  0
  2  4  1  0  0  0
  4  5  1  0  0  0
  4  8  1  0  0  0
  5  6  1  0  0  0
  6  7  1  0  0  0
  7  8  2  0  0  0
  7 19  1  0  0  0
  8  9  1  0  0  0
  9 10  2  0  0  0
 19 20  2  0  0  0
 19 23  1  0  0  0
 20 21  1  0  0  0
 21 22  1  0  0  0
 21 25  1  0  0  0
 22 23  2  0  0  0
 23 24  1  0  0  0
  6 11  1  0  0  0
M  END
> <minimizedAffinity>
-8.90332

$$$$
216


 28 31  0  0  0  0  0  0  0  0999 V2000
   20.7663   33.7657   70.6198 C   0  0  0  0  0  0  0  0  0  0  0  0
   21.0525   32.5783   70.3254 O   0  0  0  0  0  0  0  0  0  0  0  0
   21.6326   34.8370   70.3154 N   0  0  0  0  0  0  0  0  0  0  0  0
   21.3331   36.2249   70.6394 C   0  0  0  0  0  0  0  0  0  0  0  0
   22.0389   37.1268   69.6349 C   0  0  0  0  0  0  0  0  0  0  0  0
   22.2530   36.4817   68.3545 N   0  0  0  0  0  0  0  0  0  0  0  0
   23.2079   35.4411   68.5087 C   0  0  0  0  0  0  0  0  0  0  0  0
   22.8940   34.5166   69.6355 C   0  0  0  0  0  0  0  0  0  0  0  0
   17.4077   33.4682   71.8561 N   0  0  0  0  0  0  0  0  0  0  0  0
   18.4580   32.9256   71.0073 C   0  0  0  0  0  0  0  0  0  0  0  0
   19.5062   34.0223   71.2886 C   0  0  0  0  0  0  0  0  0  0  0  0
   19.5594   33.8455   72.8103 C   0  0  0  0  0  0  0  0  0  0  0  0
   18.0939   33.7722   73.0653 C   0  0  0  0  0  0  0  0  0  0  0  0
   17.5459   33.9510   74.1772 O   0  0  0  0  0  0  0  0  0  0  0  0
   13.8553   36.6678   69.6973 Br  0  0  0  0  0  0  0  0  0  0  0  0
   14.3239   35.0170   70.4864 C   0  0  0  0  0  0  0  0  0  0  0  0
   15.6390   34.8026   70.8834 C   0  0  0  0  0  0  0  0  0  0  0  0
   16.0574   33.6215   71.4677 C   0  0  0  0  0  0  0  0  0  0  0  0
   15.0863   32.6592   71.6367 C   0  0  0  0  0  0  0  0  0  0  0  0
   13.7650   32.8047   71.2674 C   0  0  0  0  0  0  0  0  0  0  0  0
   13.3934   33.9987   70.6884 C   0  0  0  0  0  0  0  0  0  0  0  0
   21.0364   36.1572   67.6990 C   0  0  0  0  0  0  0  0  0  0  0  0
   20.3747   37.3265   67.0153 C   0  0  0  0  0  0  0  0  0  0  0  0
   19.0840   37.6606   67.5452 N   0  0  0  0  0  0  0  0  0  0  0  0
   18.5359   37.2790   68.7003 C   0  0  0  0  0  0  0  0  0  0  0  0
   17.3002   37.8123   68.8111 N   0  0  0  0  0  0  0  0  0  0  0  0
   17.0603   38.5408   67.7147 C   0  0  0  0  0  0  0  0  0  0  0  0
   18.1840   38.4386   66.9282 C   0  0  0  0  0  0  0  0  0  0  0  0
 15 16  1  0  0  0
 16 17  2  0  0  0
 16 21  1  0  0  0
 17 18  1  0  0  0
 18 19  2  0  0  0
 18  9  1  0  0  0
 19 20  1  0  0  0
 20 21  2  0  0  0
  9 10  1  0  0  0
  9 13  1  0  0  0
 10 11  1  0  0  0
 11 12  1  0  0  0
 11  1  1  0  0  0
 12 13  1  0  0  0
 13 14  2  0  0  0
  1  2  2  0  0  0
  1  3  1  0  0  0
  3  4  1  0  0  0
  3  8  1  0  0  0
  4  5  1  0  0  0
  5  6  1  0  0  0
  6  7  1  0  0  0
  6 22  1  0  0  0
  7  8  1  0  0  0
 22 23  1  0  0  0
 23 24  1  0  0  0
 24 25  1  0  0  0
 24 28  1  0  0  0
 25 26  2  0  0  0
 26 27  1  0  0  0
 27 28  2  0  0  0
M  END
> <minimizedAffinity>
-8.17695

$$$$
219


 27 30  0  0  0  0  0  0  0  0999 V2000
   21.3871   33.7750   68.9985 N   0  0  0  0  0  0  0  0  0  0  0  0
   21.6996   33.0902   70.2050 C   0  0  0  0  0  0  0  0  0  0  0  0
   22.8829   33.2921   70.6503 O   0  0  0  0  0  0  0  0  0  0  0  0
   20.4356   33.6512   68.5931 H   0  0  0  0  0  0  0  0  0  0  0  0
   20.7770   32.1992   70.9381 C   0  0  0  0  0  0  0  0  0  0  0  0
   19.4674   32.7464   71.1660 N   0  0  0  0  0  0  0  0  0  0  0  0
   19.2285   33.7685   72.1482 C   0  0  0  0  0  0  0  0  0  0  0  0
   19.9709   34.1065   73.1039 O   0  0  0  0  0  0  0  0  0  0  0  0
   17.9322   34.3763   71.8485 C   0  0  0  0  0  0  0  0  0  0  0  0
   17.3800   33.6614   70.5990 C   0  0  0  0  0  0  0  0  0  0  0  0
   15.9862   33.2611   70.9322 C   0  0  0  0  0  0  0  0  0  0  0  0
   15.6097   34.3520   71.9569 C   0  0  0  0  0  0  0  0  0  0  0  0
   16.8424   34.0674   72.8381 C   0  0  0  0  0  0  0  0  0  0  0  0
   16.7071   32.5746   72.9356 C   0  0  0  0  0  0  0  0  0  0  0  0
   16.0647   32.1119   71.8682 C   0  0  0  0  0  0  0  0  0  0  0  0
   18.2256   32.4419   70.5171 C   0  0  0  0  0  0  0  0  0  0  0  0
   17.9412   31.3500   69.9952 O   0  0  0  0  0  0  0  0  0  0  0  0
   22.3232   34.6224   68.3241 C   0  0  0  0  0  0  0  0  0  0  0  0
   22.2085   36.0658   68.8389 C   0  0  0  0  0  0  0  0  0  0  0  0
   21.0306   36.5591   68.6354 O   0  0  0  0  0  0  0  0  0  0  0  0
   16.2743   37.6873   70.4176 Br  0  0  0  0  0  0  0  0  0  0  0  0
   17.6412   37.6655   69.0844 C   0  0  0  0  0  0  0  0  0  0  0  0
   18.8728   37.1177   69.3175 C   0  0  0  0  0  0  0  0  0  0  0  0
   19.8975   37.0882   68.3542 C   0  0  0  0  0  0  0  0  0  0  0  0
   19.5587   37.6702   67.1159 C   0  0  0  0  0  0  0  0  0  0  0  0
   18.3231   38.2205   66.8789 C   0  0  0  0  0  0  0  0  0  0  0  0
   17.3575   38.2199   67.8657 C   0  0  0  0  0  0  0  0  0  0  0  0
 21 22  1  0  0  0
 22 23  2  0  0  0
 22 27  1  0  0  0
 23 24  1  0  0  0
 24 25  2  0  0  0
 24 20  1  0  0  0
 25 26  1  0  0  0
 26 27  2  0  0  0
 20 19  1  0  0  0
 19 18  1  0  0  0
 18  1  1  0  0  0
  1  2  1  0  0  0
  2  3  2  0  0  0
  2  5  1  0  0  0
  5  6  1  0  0  0
  6  7  1  0  0  0
  6 16  1  0  0  0
  7  8  2  0  0  0
  7  9  1  0  0  0
  9 10  1  0  0  0
  9 13  1  0  0  0
 10 11  1  0  0  0
 10 16  1  0  0  0
 11 12  1  0  0  0
 11 15  1  0  0  0
 12 13  1  0  0  0
 13 14  1  0  0  0
 14 15  2  0  0  0
 16 17  2  0  0  0
  1  4  1  0  0  0
M  END
> <minimizedAffinity>
-8.30215

$$$$
226


 30 33  0  0  0  0  0  0  0  0999 V2000
   22.2478   37.5842   66.7980 N   0  0  0  0  0  0  0  0  0  0  0  0
   22.3140   38.8043   66.2398 C   0  0  0  0  0  0  0  0  0  0  0  0
   23.6276   39.1080   65.9372 C   0  0  0  0  0  0  0  0  0  0  0  0
   24.3297   38.0378   66.3292 N   0  0  0  0  0  0  0  0  0  0  0  0
   23.5209   37.0999   66.8538 C   0  0  0  0  0  0  0  0  0  0  0  0
   23.9343   40.2864   65.3649 N   0  0  0  0  0  0  0  0  0  0  0  0
   22.9726   41.1823   65.0814 C   0  0  0  0  0  0  0  0  0  0  0  0
   23.2149   42.2933   64.5479 O   0  0  0  0  0  0  0  0  0  0  0  0
   21.6741   40.8957   65.3737 N   0  0  0  0  0  0  0  0  0  0  0  0
   21.3174   39.7319   65.9458 C   0  0  0  0  0  0  0  0  0  0  0  0
   20.0917   39.5019   66.2059 O   0  0  0  0  0  0  0  0  0  0  0  0
   25.3014   40.6348   65.0365 C   0  0  0  0  0  0  0  0  0  0  0  0
   20.9566   41.6196   65.1359 H   0  0  0  0  0  0  0  0  0  0  0  0
   23.8569   35.8279   67.3764 N   0  0  0  0  0  0  0  0  0  0  0  0
   24.2854   35.7276   68.7340 C   0  0  0  0  0  0  0  0  0  0  0  0
   24.2867   34.3766   69.3462 C   0  0  0  0  0  0  0  0  0  0  0  0
   24.4040   33.2779   68.4336 N   0  0  0  0  0  0  0  0  0  0  0  0
   23.4012   33.4452   67.3998 C   0  0  0  0  0  0  0  0  0  0  0  0
   23.7600   34.6648   66.5490 C   0  0  0  0  0  0  0  0  0  0  0  0
   25.7271   33.1057   67.9053 C   0  0  0  0  0  0  0  0  0  0  0  0
   21.0712   36.8958   67.2483 C   0  0  0  0  0  0  0  0  0  0  0  0
   20.7073   37.2178   68.6634 C   0  0  0  0  0  0  0  0  0  0  0  0
   21.5300   37.7534   69.4239 O   0  0  0  0  0  0  0  0  0  0  0  0
   15.0599   35.9348   70.8537 Br  0  0  0  0  0  0  0  0  0  0  0  0
   16.8068   36.3048   70.1997 C   0  0  0  0  0  0  0  0  0  0  0  0
   17.0056   37.3169   69.2719 C   0  0  0  0  0  0  0  0  0  0  0  0
   18.2656   37.6096   68.7770 C   0  0  0  0  0  0  0  0  0  0  0  0
   19.3760   36.9099   69.1813 C   0  0  0  0  0  0  0  0  0  0  0  0
   19.1647   35.9033   70.1066 C   0  0  0  0  0  0  0  0  0  0  0  0
   17.9188   35.6019   70.6074 C   0  0  0  0  0  0  0  0  0  0  0  0
 24 25  1  0  0  0
 25 26  2  0  0  0
 25 30  1  0  0  0
 26 27  1  0  0  0
 27 28  2  0  0  0
 28 29  1  0  0  0
 28 22  1  0  0  0
 29 30  2  0  0  0
 22 23  2  0  0  0
 22 21  1  0  0  0
 21  1  1  0  0  0
  1  2  1  0  0  0
  1  5  1  0  0  0
  2  3  2  0  0  0
  2 10  1  0  0  0
  3  4  1  0  0  0
  3  6  1  0  0  0
  4  5  2  0  0  0
  5 14  1  0  0  0
 14 15  1  0  0  0
 14 19  1  0  0  0
 15 16  1  0  0  0
 16 17  1  0  0  0
 17 18  1  0  0  0
 17 20  1  0  0  0
 18 19  1  0  0  0
  6  7  1  0  0  0
  6 12  1  0  0  0
  7  8  2  0  0  0
  7  9  1  0  0  0
  9 10  1  0  0  0
 10 11  2  0  0  0
  9 13  1  0  0  0
M  END
> <minimizedAffinity>
-8.69664

$$$$
231


 34 37  0  0  0  0  0  0  0  0999 V2000
   19.7331   35.2915   70.5716 C   0  0  0  0  0  0  0  0  0  0  0  0
   20.4363   34.2978   69.6795 C   0  0  0  0  0  0  0  0  0  0  0  0
   21.2092   35.1592   68.8145 N   0  0  0  0  0  0  0  0  0  0  0  0
   21.5994   36.2760   69.6071 C   0  0  0  0  0  0  0  0  0  0  0  0
   22.4089   37.1892   69.2561 O   0  0  0  0  0  0  0  0  0  0  0  0
   20.9023   36.1859   70.9045 C   0  0  0  0  0  0  0  0  0  0  0  0
   21.2265   36.7246   71.9748 O   0  0  0  0  0  0  0  0  0  0  0  0
   21.2207   33.2996   70.3898 C   0  0  0  0  0  0  0  0  0  0  0  0
   20.6311   32.1733   70.9815 C   0  0  0  0  0  0  0  0  0  0  0  0
   21.3821   31.2286   71.6499 C   0  0  0  0  0  0  0  0  0  0  0  0
   22.7543   31.3565   71.7607 C   0  0  0  0  0  0  0  0  0  0  0  0
   23.3548   32.4559   71.1853 C   0  0  0  0  0  0  0  0  0  0  0  0
   22.5866   33.3968   70.5178 C   0  0  0  0  0  0  0  0  0  0  0  0
   23.5338   30.4202   72.4285 O   0  0  0  0  0  0  0  0  0  0  0  0
   20.8065   30.1153   72.2365 O   0  0  0  0  0  0  0  0  0  0  0  0
   20.0882   30.1550   73.4431 C   0  0  0  0  0  0  0  0  0  0  0  0
   19.1167   34.7283   71.7586 C   0  0  0  0  0  0  0  0  0  0  0  0
   19.7543   34.6109   72.8253 O   0  0  0  0  0  0  0  0  0  0  0  0
   13.2485   32.9565   71.5388 Br  0  0  0  0  0  0  0  0  0  0  0  0
   15.0686   33.4867   71.6230 C   0  0  0  0  0  0  0  0  0  0  0  0
   15.5117   34.4749   70.7770 C   0  0  0  0  0  0  0  0  0  0  0  0
   16.8240   34.8674   70.8271 C   0  0  0  0  0  0  0  0  0  0  0  0
   17.7335   34.2900   71.7207 C   0  0  0  0  0  0  0  0  0  0  0  0
   17.2253   33.3044   72.5422 C   0  0  0  0  0  0  0  0  0  0  0  0
   15.9088   32.8823   72.5199 C   0  0  0  0  0  0  0  0  0  0  0  0
   21.5611   35.0014   67.4254 C   0  0  0  0  0  0  0  0  0  0  0  0
   22.8818   34.3253   67.2149 C   0  0  0  0  0  0  0  0  0  0  0  0
   24.0198   35.1432   67.3855 N   0  0  0  0  0  0  0  0  0  0  0  0
   24.0126   36.1589   66.3275 C   0  0  0  0  0  0  0  0  0  0  0  0
   24.3080   35.5857   64.9810 C   0  0  0  0  0  0  0  0  0  0  0  0
   24.8295   34.3152   64.9972 O   0  0  0  0  0  0  0  0  0  0  0  0
   25.7892   34.1819   65.9700 C   0  0  0  0  0  0  0  0  0  0  0  0
   25.2834   34.4970   67.3518 C   0  0  0  0  0  0  0  0  0  0  0  0
   23.9597   35.6970   68.2850 H   0  0  0  0  0  0  0  0  0  0  0  0
 19 20  1  0  0  0
 20 21  2  0  0  0
 20 25  1  0  0  0
 21 22  1  0  0  0
 22 23  2  0  0  0
 23 24  1  0  0  0
 23 17  1  0  0  0
 24 25  2  0  0  0
 17 18  2  0  0  0
 17  1  1  0  0  0
  1  2  1  0  0  0
  1  6  1  0  0  0
  2  3  1  0  0  0
  2  8  1  0  0  0
  3  4  1  0  0  0
  3 26  1  0  0  0
  4  5  2  0  0  0
  4  6  1  0  0  0
  6  7  2  0  0  0
 26 27  1  0  0  0
 27 28  1  0  0  0
 28 29  1  0  0  0
 28 33  1  0  0  0
 29 30  1  0  0  0
 30 31  1  0  0  0
 31 32  1  0  0  0
 32 33  1  0  0  0
  8  9  2  0  0  0
  8 13  1  0  0  0
  9 10  1  0  0  0
 10 11  2  0  0  0
 10 15  1  0  0  0
 11 12  1  0  0  0
 11 14  1  0  0  0
 12 13  2  0  0  0
 15 16  1  0  0  0
 28 34  1  0  0  0
M  CHG 1  14  -1
M  CHG 1  28   1
M  END
> <minimizedAffinity>
-8.15106

$$$$
235


 25 28  0  0  0  0  0  0  0  0999 V2000
   21.3122   35.7070   68.2920 C   0  0  0  0  0  0  0  0  0  0  0  0
   22.7080   36.0954   68.1635 N   0  0  0  0  0  0  0  0  0  0  0  0
   23.5648   36.9988   68.7582 N   0  0  0  0  0  0  0  0  0  0  0  0
   24.8265   37.0515   68.5130 C   0  0  0  0  0  0  0  0  0  0  0  0
   25.4080   36.1355   67.5590 C   0  0  0  0  0  0  0  0  0  0  0  0
   24.6528   35.2645   66.9310 C   0  0  0  0  0  0  0  0  0  0  0  0
   23.2201   35.1820   67.1452 C   0  0  0  0  0  0  0  0  0  0  0  0
   22.7001   33.8784   67.6386 C   0  0  0  0  0  0  0  0  0  0  0  0
   21.4588   34.2122   68.4739 C   0  0  0  0  0  0  0  0  0  0  0  0
   21.8369   33.8355   69.8342 C   0  0  0  0  0  0  0  0  0  0  0  0
   21.2272   34.1754   70.8857 O   0  0  0  0  0  0  0  0  0  0  0  0
   22.9980   33.0297   69.7806 N   0  0  0  0  0  0  0  0  0  0  0  0
   23.6327   33.1591   68.5149 C   0  0  0  0  0  0  0  0  0  0  0  0
   24.7727   32.7415   68.1976 O   0  0  0  0  0  0  0  0  0  0  0  0
   20.6762   36.3637   69.4423 C   0  0  0  0  0  0  0  0  0  0  0  0
   21.4592   36.8578   70.3174 O   0  0  0  0  0  0  0  0  0  0  0  0
   14.5935   36.9950   70.2907 Br  0  0  0  0  0  0  0  0  0  0  0  0
   16.4739   36.8126   70.0154 C   0  0  0  0  0  0  0  0  0  0  0  0
   17.2006   35.8429   70.6711 C   0  0  0  0  0  0  0  0  0  0  0  0
   18.5564   35.6729   70.5055 C   0  0  0  0  0  0  0  0  0  0  0  0
   19.2519   36.4912   69.6533 C   0  0  0  0  0  0  0  0  0  0  0  0
   18.5316   37.4704   68.9879 C   0  0  0  0  0  0  0  0  0  0  0  0
   17.1762   37.6328   69.1598 C   0  0  0  0  0  0  0  0  0  0  0  0
   23.4897   32.1859   70.8445 C   0  0  0  0  0  0  0  0  0  0  0  0
   22.6734   30.9466   71.0522 C   0  0  0  0  0  0  0  0  0  0  0  0
 17 18  1  0  0  0
 18 19  2  0  0  0
 18 23  1  0  0  0
 19 20  1  0  0  0
 20 21  2  0  0  0
 21 22  1  0  0  0
 21 15  1  0  0  0
 22 23  2  0  0  0
 15 16  2  0  0  0
 15  1  1  0  0  0
  1  2  1  0  0  0
  1  9  1  0  0  0
  2  3  1  0  0  0
  2  7  1  0  0  0
  3  4  2  0  0  0
  4  5  1  0  0  0
  5  6  2  0  0  0
  6  7  1  0  0  0
  7  8  1  0  0  0
  8  9  1  0  0  0
  8 13  1  0  0  0
  9 10  1  0  0  0
 10 11  2  0  0  0
 10 12  1  0  0  0
 12 13  1  0  0  0
 12 24  1  0  0  0
 13 14  2  0  0  0
 24 25  1  0  0  0
M  END
> <minimizedAffinity>
-7.88331

$$$$
243


 30 33  0  0  0  0  0  0  0  0999 V2000
   18.8213   37.1374   69.9491 C   0  0  0  0  0  0  0  0  0  0  0  0
   19.0470   37.2000   68.4583 C   0  0  0  0  0  0  0  0  0  0  0  0
   20.3991   36.7150   68.2814 N   0  0  0  0  0  0  0  0  0  0  0  0
   21.1218   36.7887   69.5402 C   0  0  0  0  0  0  0  0  0  0  0  0
   20.1735   37.2278   70.6003 C   0  0  0  0  0  0  0  0  0  0  0  0
   21.6816   35.4375   69.7699 C   0  0  0  0  0  0  0  0  0  0  0  0
   21.5296   34.8911   70.8850 O   0  0  0  0  0  0  0  0  0  0  0  0
   22.3740   34.8120   68.7048 N   0  0  0  0  0  0  0  0  0  0  0  0
   22.2498   35.2124   67.3223 C   0  0  0  0  0  0  0  0  0  0  0  0
   21.1435   36.2023   67.1841 C   0  0  0  0  0  0  0  0  0  0  0  0
   20.8203   36.6334   66.0194 O   0  0  0  0  0  0  0  0  0  0  0  0
   23.0071   34.0121   68.9700 H   0  0  0  0  0  0  0  0  0  0  0  0
   16.8642   35.8517   70.7322 C   0  0  0  0  0  0  0  0  0  0  0  0
   16.1431   36.9060   70.7141 O   0  0  0  0  0  0  0  0  0  0  0  0
   18.2105   35.8997   70.3613 N   0  0  0  0  0  0  0  0  0  0  0  0
   18.7912   35.0448   70.3768 H   0  0  0  0  0  0  0  0  0  0  0  0
   14.0272   30.6526   72.5781 Br  0  0  0  0  0  0  0  0  0  0  0  0
   14.8734   32.2487   71.9889 C   0  0  0  0  0  0  0  0  0  0  0  0
   14.4265   32.9903   70.9143 C   0  0  0  0  0  0  0  0  0  0  0  0
   15.0645   34.1458   70.5119 C   0  0  0  0  0  0  0  0  0  0  0  0
   16.1847   34.6211   71.1617 C   0  0  0  0  0  0  0  0  0  0  0  0
   16.6303   33.8816   72.2328 C   0  0  0  0  0  0  0  0  0  0  0  0
   16.0025   32.7296   72.6423 C   0  0  0  0  0  0  0  0  0  0  0  0
   23.5599   35.7338   66.7829 C   0  0  0  0  0  0  0  0  0  0  0  0
   24.7138   34.9435   67.2973 C   0  0  0  0  0  0  0  0  0  0  0  0
   24.9853   33.6729   66.7885 C   0  0  0  0  0  0  0  0  0  0  0  0
   26.0650   32.9882   67.3009 C   0  0  0  0  0  0  0  0  0  0  0  0
   26.8850   33.5033   68.2897 C   0  0  0  0  0  0  0  0  0  0  0  0
   26.5775   34.7589   68.7593 C   0  0  0  0  0  0  0  0  0  0  0  0
   25.5109   35.4908   68.2862 C   0  0  0  0  0  0  0  0  0  0  0  0
 17 18  1  0  0  0
 18 19  2  0  0  0
 18 23  1  0  0  0
 19 20  1  0  0  0
 20 21  2  0  0  0
 21 22  1  0  0  0
 21 13  1  0  0  0
 22 23  2  0  0  0
 13 14  2  0  0  0
 13 15  1  0  0  0
 15  1  1  0  0  0
  1  2  1  0  0  0
  1  5  1  0  0  0
  2  3  1  0  0  0
  3  4  1  0  0  0
  3 10  1  0  0  0
  4  5  1  0  0  0
  4  6  1  0  0  0
  6  7  2  0  0  0
  6  8  1  0  0  0
  8  9  1  0  0  0
  9 10  1  0  0  0
  9 24  1  0  0  0
 10 11  2  0  0  0
 24 25  1  0  0  0
 25 26  2  0  0  0
 25 30  1  0  0  0
 26 27  1  0  0  0
 27 28  2  0  0  0
 28 29  1  0  0  0
 29 30  2  0  0  0
 15 16  1  0  0  0
  8 12  1  0  0  0
M  END
> <minimizedAffinity>
-8.49238

$$$$
244


 25 28  0  0  0  0  0  0  0  0999 V2000
   18.9660   37.1447   69.9549 C   0  0  0  0  0  0  0  0  0  0  0  0
   19.2814   37.2202   68.4791 C   0  0  0  0  0  0  0  0  0  0  0  0
   20.5347   36.4939   68.3762 N   0  0  0  0  0  0  0  0  0  0  0  0
   21.2278   36.5635   69.6476 C   0  0  0  0  0  0  0  0  0  0  0  0
   20.3070   37.1799   70.6462 C   0  0  0  0  0  0  0  0  0  0  0  0
   21.6172   35.1730   69.9941 C   0  0  0  0  0  0  0  0  0  0  0  0
   21.4560   34.6702   71.1306 O   0  0  0  0  0  0  0  0  0  0  0  0
   22.2050   34.3453   69.0076 N   0  0  0  0  0  0  0  0  0  0  0  0
   21.9585   34.5283   67.5923 C   0  0  0  0  0  0  0  0  0  0  0  0
   23.3569   34.5460   67.0621 C   0  0  0  0  0  0  0  0  0  0  0  0
   24.0089   33.4279   67.8843 C   0  0  0  0  0  0  0  0  0  0  0  0
   23.1050   33.2303   69.1052 C   0  0  0  0  0  0  0  0  0  0  0  0
   21.1855   35.7703   67.3393 C   0  0  0  0  0  0  0  0  0  0  0  0
   21.0873   36.2253   66.1485 O   0  0  0  0  0  0  0  0  0  0  0  0
   16.9222   35.9667   70.6495 C   0  0  0  0  0  0  0  0  0  0  0  0
   16.2971   37.0464   70.5983 O   0  0  0  0  0  0  0  0  0  0  0  0
   18.3037   35.9390   70.3305 N   0  0  0  0  0  0  0  0  0  0  0  0
   18.8679   35.0528   70.3611 H   0  0  0  0  0  0  0  0  0  0  0  0
   14.0397   30.7996   72.4526 Br  0  0  0  0  0  0  0  0  0  0  0  0
   14.8823   32.3921   71.8553 C   0  0  0  0  0  0  0  0  0  0  0  0
   16.0167   32.8525   72.5013 C   0  0  0  0  0  0  0  0  0  0  0  0
   16.6664   34.0020   72.1090 C   0  0  0  0  0  0  0  0  0  0  0  0
   16.2014   34.7402   71.0432 C   0  0  0  0  0  0  0  0  0  0  0  0
   15.0855   34.2925   70.4029 C   0  0  0  0  0  0  0  0  0  0  0  0
   14.4152   33.1330   70.7860 C   0  0  0  0  0  0  0  0  0  0  0  0
 19 20  1  0  0  0
 20 21  2  0  0  0
 20 25  1  0  0  0
 21 22  1  0  0  0
 22 23  2  0  0  0
 23 24  1  0  0  0
 23 15  1  0  0  0
 24 25  2  0  0  0
 15 16  2  0  0  0
 15 17  1  0  0  0
 17  1  1  0  0  0
  1  2  1  0  0  0
  1  5  1  0  0  0
  2  3  1  0  0  0
  3  4  1  0  0  0
  3 13  1  0  0  0
  4  5  1  0  0  0
  4  6  1  0  0  0
  6  7  2  0  0  0
  6  8  1  0  0  0
  8  9  1  0  0  0
  8 12  1  0  0  0
  9 10  1  0  0  0
  9 13  1  0  0  0
 10 11  1  0  0  0
 11 12  1  0  0  0
 13 14  2  0  0  0
 17 18  1  0  0  0
M  END
> <minimizedAffinity>
-8.67687

$$$$
247


 23 26  0  0  0  0  0  0  0  0999 V2000
   16.2494   35.4930   70.6364 N   0  0  0  0  0  0  0  0  0  0  0  0
   14.9111   35.9635   70.5247 C   0  0  0  0  0  0  0  0  0  0  0  0
   14.5797   36.8322   69.6477 O   0  0  0  0  0  0  0  0  0  0  0  0
   14.0408   35.3093   71.5361 C   0  0  0  0  0  0  0  0  0  0  0  0
   14.9800   34.2840   72.1420 C   0  0  0  0  0  0  0  0  0  0  0  0
   14.5592   33.0389   71.3912 C   0  0  0  0  0  0  0  0  0  0  0  0
   13.0415   33.1648   71.6400 C   0  0  0  0  0  0  0  0  0  0  0  0
   12.9543   34.5029   70.8822 C   0  0  0  0  0  0  0  0  0  0  0  0
   13.5247   34.0283   69.5717 C   0  0  0  0  0  0  0  0  0  0  0  0
   14.5586   33.2720   69.9202 C   0  0  0  0  0  0  0  0  0  0  0  0
   16.3513   34.7058   71.8059 C   0  0  0  0  0  0  0  0  0  0  0  0
   17.3831   34.4109   72.4468 O   0  0  0  0  0  0  0  0  0  0  0  0
   17.9543   36.9948   69.6716 C   0  0  0  0  0  0  0  0  0  0  0  0
   17.5371   37.9893   70.3495 O   0  0  0  0  0  0  0  0  0  0  0  0
   17.3526   35.7226   69.7737 N   0  0  0  0  0  0  0  0  0  0  0  0
   17.7188   34.9295   69.2169 H   0  0  0  0  0  0  0  0  0  0  0  0
   22.8546   37.8977   66.0773 Br  0  0  0  0  0  0  0  0  0  0  0  0
   21.3119   37.6179   67.1722 C   0  0  0  0  0  0  0  0  0  0  0  0
   21.4648   37.2071   68.4643 C   0  0  0  0  0  0  0  0  0  0  0  0
   20.3632   37.0031   69.2695 C   0  0  0  0  0  0  0  0  0  0  0  0
   19.0744   37.2095   68.7873 C   0  0  0  0  0  0  0  0  0  0  0  0
   18.9397   37.6238   67.4822 C   0  0  0  0  0  0  0  0  0  0  0  0
   20.0271   37.8292   66.6732 C   0  0  0  0  0  0  0  0  0  0  0  0
 17 18  1  0  0  0
 18 19  2  0  0  0
 18 23  1  0  0  0
 19 20  1  0  0  0
 20 21  2  0  0  0
 21 22  1  0  0  0
 21 13  1  0  0  0
 22 23  2  0  0  0
 13 14  2  0  0  0
 13 15  1  0  0  0
 15  1  1  0  0  0
  1  2  1  0  0  0
  1 11  1  0  0  0
  2  3  2  0  0  0
  2  4  1  0  0  0
  4  5  1  0  0  0
  4  8  1  0  0  0
  5  6  1  0  0  0
  5 11  1  0  0  0
  6  7  1  0  0  0
  6 10  1  0  0  0
  7  8  1  0  0  0
  8  9  1  0  0  0
  9 10  2  0  0  0
 11 12  2  0  0  0
 15 16  1  0  0  0
M  END
> <minimizedAffinity>
-8.32524

$$$$
257


 31 34  0  0  0  0  0  0  0  0999 V2000
   18.3562   35.3293   70.8258 C   0  0  0  0  0  0  0  0  0  0  0  0
   18.1738   34.4321   71.7601 C   0  0  0  0  0  0  0  0  0  0  0  0
   16.8869   33.9716   72.3731 C   0  0  0  0  0  0  0  0  0  0  0  0
   17.1483   32.5443   72.5171 N   0  0  0  0  0  0  0  0  0  0  0  0
   18.5238   32.4752   72.9428 C   0  0  0  0  0  0  0  0  0  0  0  0
   19.0102   31.5386   73.5972 O   0  0  0  0  0  0  0  0  0  0  0  0
   19.2063   33.6878   72.4652 C   0  0  0  0  0  0  0  0  0  0  0  0
   20.4110   34.0144   72.6295 O   0  0  0  0  0  0  0  0  0  0  0  0
   17.2298   35.9845   70.2905 O   0  0  0  0  0  0  0  0  0  0  0  0
   24.0322   36.7731   68.8188 Br  0  0  0  0  0  0  0  0  0  0  0  0
   22.2887   36.3411   69.4545 C   0  0  0  0  0  0  0  0  0  0  0  0
   21.5798   37.1478   70.3186 C   0  0  0  0  0  0  0  0  0  0  0  0
   20.3196   36.8192   70.7683 C   0  0  0  0  0  0  0  0  0  0  0  0
   19.6978   35.6326   70.3588 C   0  0  0  0  0  0  0  0  0  0  0  0
   20.4202   34.8374   69.4949 C   0  0  0  0  0  0  0  0  0  0  0  0
   21.6949   35.1681   69.0396 C   0  0  0  0  0  0  0  0  0  0  0  0
   15.7421   34.2635   71.4756 C   0  0  0  0  0  0  0  0  0  0  0  0
   14.9113   35.2602   71.8205 N   0  0  0  0  0  0  0  0  0  0  0  0
   13.8557   35.6207   71.0867 C   0  0  0  0  0  0  0  0  0  0  0  0
   13.6123   34.9320   69.9213 C   0  0  0  0  0  0  0  0  0  0  0  0
   14.4370   33.9041   69.5291 C   0  0  0  0  0  0  0  0  0  0  0  0
   15.5083   33.5737   70.3185 C   0  0  0  0  0  0  0  0  0  0  0  0
   16.2286   31.4669   72.2941 C   0  0  0  0  0  0  0  0  0  0  0  0
   15.5217   31.0449   73.5728 C   0  0  0  0  0  0  0  0  0  0  0  0
   14.0260   30.9621   73.2686 C   0  0  0  0  0  0  0  0  0  0  0  0
   13.2896   30.3661   74.3664 N   0  0  0  0  0  0  0  0  0  0  0  0
   12.1110   30.7803   74.8873 C   0  0  0  0  0  0  0  0  0  0  0  0
   11.7657   29.9572   75.8917 N   0  0  0  0  0  0  0  0  0  0  0  0
   12.7022   29.0081   76.0374 C   0  0  0  0  0  0  0  0  0  0  0  0
   13.6490   29.2827   75.0712 C   0  0  0  0  0  0  0  0  0  0  0  0
   10.8944   30.0272   76.4890 H   0  0  0  0  0  0  0  0  0  0  0  0
 10 11  1  0  0  0
 11 12  2  0  0  0
 11 16  1  0  0  0
 12 13  1  0  0  0
 13 14  2  0  0  0
 14 15  1  0  0  0
 14  1  1  0  0  0
 15 16  2  0  0  0
  1  2  2  0  0  0
  1  9  1  0  0  0
  2  3  1  0  0  0
  2  7  1  0  0  0
  3  4  1  0  0  0
  3 17  1  0  0  0
  4  5  1  0  0  0
  4 23  1  0  0  0
  5  6  2  0  0  0
  5  7  1  0  0  0
  7  8  2  0  0  0
 23 24  1  0  0  0
 24 25  1  0  0  0
 25 26  1  0  0  0
 26 27  1  0  0  0
 26 30  1  0  0  0
 27 28  2  0  0  0
 28 29  1  0  0  0
 29 30  2  0  0  0
 17 18  2  0  0  0
 17 22  1  0  0  0
 18 19  1  0  0  0
 19 20  2  0  0  0
 20 21  1  0  0  0
 21 22  2  0  0  0
 28 31  1  0  0  0
M  CHG 1   9  -1
M  END
> <minimizedAffinity>
-7.75870

$$$$
263


 34 37  0  0  0  0  0  0  0  0999 V2000
   20.3603   34.3746   70.6232 C   0  0  0  0  0  0  0  0  0  0  0  0
   20.2390   35.5101   69.9876 C   0  0  0  0  0  0  0  0  0  0  0  0
   21.3137   36.2523   69.2364 C   0  0  0  0  0  0  0  0  0  0  0  0
   20.5980   36.8923   68.1870 N   0  0  0  0  0  0  0  0  0  0  0  0
   19.2607   37.1494   68.6797 C   0  0  0  0  0  0  0  0  0  0  0  0
   18.4273   37.9718   68.2294 O   0  0  0  0  0  0  0  0  0  0  0  0
   19.0237   36.2745   69.8227 C   0  0  0  0  0  0  0  0  0  0  0  0
   17.9449   36.2275   70.5048 O   0  0  0  0  0  0  0  0  0  0  0  0
   21.6232   33.7416   70.6201 O   0  0  0  0  0  0  0  0  0  0  0  0
   15.6090   31.5159   73.1995 Br  0  0  0  0  0  0  0  0  0  0  0  0
   17.1065   32.4580   72.4453 C   0  0  0  0  0  0  0  0  0  0  0  0
   17.4029   32.2323   71.1202 C   0  0  0  0  0  0  0  0  0  0  0  0
   18.4619   32.8900   70.5612 C   0  0  0  0  0  0  0  0  0  0  0  0
   19.2313   33.7750   71.3149 C   0  0  0  0  0  0  0  0  0  0  0  0
   18.9301   33.9888   72.6197 C   0  0  0  0  0  0  0  0  0  0  0  0
   17.8638   33.3316   73.1965 C   0  0  0  0  0  0  0  0  0  0  0  0
   22.4172   35.3715   68.8753 C   0  0  0  0  0  0  0  0  0  0  0  0
   23.6943   35.4418   69.3632 C   0  0  0  0  0  0  0  0  0  0  0  0
   24.6763   34.5664   68.9787 C   0  0  0  0  0  0  0  0  0  0  0  0
   24.3847   33.5822   68.0738 C   0  0  0  0  0  0  0  0  0  0  0  0
   23.1046   33.4601   67.5419 C   0  0  0  0  0  0  0  0  0  0  0  0
   22.1461   34.3522   67.9483 C   0  0  0  0  0  0  0  0  0  0  0  0
   25.9696   34.6969   69.5224 N   0  0  0  0  0  0  0  0  0  0  0  0
   26.6819   35.7145   69.3247 O   0  0  0  0  0  0  0  0  0  0  0  0
   26.4629   33.6708   70.2953 O   0  0  0  0  0  0  0  0  0  0  0  0
   20.9609   37.3348   66.8535 C   0  0  0  0  0  0  0  0  0  0  0  0
   21.8953   38.4997   66.7935 C   0  0  0  0  0  0  0  0  0  0  0  0
   23.2000   38.1505   66.2553 N   0  0  0  0  0  0  0  0  0  0  0  0
   23.5807   39.0708   65.1789 C   0  0  0  0  0  0  0  0  0  0  0  0
   25.0235   38.6864   64.8237 C   0  0  0  0  0  0  0  0  0  0  0  0
   25.1270   37.3854   64.3961 O   0  0  0  0  0  0  0  0  0  0  0  0
   24.5656   36.4570   65.2589 C   0  0  0  0  0  0  0  0  0  0  0  0
   23.1630   36.8356   65.6663 C   0  0  0  0  0  0  0  0  0  0  0  0
   23.9624   38.1903   66.9365 H   0  0  0  0  0  0  0  0  0  0  0  0
 10 11  1  0  0  0
 11 12  2  0  0  0
 11 16  1  0  0  0
 12 13  1  0  0  0
 13 14  2  0  0  0
 14 15  1  0  0  0
 14  1  1  0  0  0
 15 16  2  0  0  0
  1  2  2  0  0  0
  1  9  1  0  0  0
  2  3  1  0  0  0
  2  7  1  0  0  0
  3  4  1  0  0  0
  3 17  1  0  0  0
  4  5  1  0  0  0
  4 26  1  0  0  0
  5  6  2  0  0  0
  5  7  1  0  0  0
  7  8  2  0  0  0
 26 27  1  0  0  0
 27 28  1  0  0  0
 28 29  1  0  0  0
 28 33  1  0  0  0
 29 30  1  0  0  0
 30 31  1  0  0  0
 31 32  1  0  0  0
 32 33  1  0  0  0
 17 18  2  0  0  0
 17 22  1  0  0  0
 18 19  1  0  0  0
 19 20  2  0  0  0
 19 23  1  0  0  0
 20 21  1  0  0  0
 21 22  2  0  0  0
 23 24  2  0  0  0
 23 25  1  0  0  0
 28 34  1  0  0  0
M  CHG 1   9  -1
M  CHG 1  25  -1
M  CHG 1  28   1
M  END
> <minimizedAffinity>
-8.32587

$$$$
265


 35 38  0  0  0  0  0  0  0  0999 V2000
   19.4555   35.8413   70.4876 C   0  0  0  0  0  0  0  0  0  0  0  0
   19.4749   34.5830   70.8681 C   0  0  0  0  0  0  0  0  0  0  0  0
   18.6566   33.9845   71.9838 C   0  0  0  0  0  0  0  0  0  0  0  0
   19.0651   32.6267   72.0876 N   0  0  0  0  0  0  0  0  0  0  0  0
   19.9836   32.2771   71.0312 C   0  0  0  0  0  0  0  0  0  0  0  0
   20.4868   31.1743   70.7756 O   0  0  0  0  0  0  0  0  0  0  0  0
   20.2379   33.5166   70.2621 C   0  0  0  0  0  0  0  0  0  0  0  0
   21.0000   33.5983   69.2454 O   0  0  0  0  0  0  0  0  0  0  0  0
   18.5735   36.6835   71.2038 O   0  0  0  0  0  0  0  0  0  0  0  0
   23.1441   38.0089   65.9925 Br  0  0  0  0  0  0  0  0  0  0  0  0
   21.9725   37.3474   67.3524 C   0  0  0  0  0  0  0  0  0  0  0  0
   22.4492   37.1563   68.6315 C   0  0  0  0  0  0  0  0  0  0  0  0
   21.6192   36.6829   69.6250 C   0  0  0  0  0  0  0  0  0  0  0  0
   20.2707   36.3729   69.4055 C   0  0  0  0  0  0  0  0  0  0  0  0
   19.8134   36.5691   68.1239 C   0  0  0  0  0  0  0  0  0  0  0  0
   20.6526   37.0503   67.1107 C   0  0  0  0  0  0  0  0  0  0  0  0
   17.2423   34.0989   71.5118 C   0  0  0  0  0  0  0  0  0  0  0  0
   16.3090   34.5627   72.3843 C   0  0  0  0  0  0  0  0  0  0  0  0
   14.9884   34.6836   72.0037 C   0  0  0  0  0  0  0  0  0  0  0  0
   14.6087   34.3349   70.7359 C   0  0  0  0  0  0  0  0  0  0  0  0
   15.5519   33.8685   69.8573 C   0  0  0  0  0  0  0  0  0  0  0  0
   16.8795   33.7449   70.2336 C   0  0  0  0  0  0  0  0  0  0  0  0
   13.2091   34.4554   70.3207 C   0  0  0  0  0  0  0  0  0  0  0  0
   12.3322   33.7594   70.8931 O   0  0  0  0  0  0  0  0  0  0  0  0
   12.7946   35.2975   69.3255 O   0  0  0  0  0  0  0  0  0  0  0  0
   13.1750   36.6537   69.2579 C   0  0  0  0  0  0  0  0  0  0  0  0
   18.6652   31.6540   73.0687 C   0  0  0  0  0  0  0  0  0  0  0  0
   17.8648   30.5118   72.5444 C   0  0  0  0  0  0  0  0  0  0  0  0
   16.4439   30.6896   72.5788 N   0  0  0  0  0  0  0  0  0  0  0  0
   15.7700   29.8651   73.5606 C   0  0  0  0  0  0  0  0  0  0  0  0
   14.3236   30.3132   73.6018 C   0  0  0  0  0  0  0  0  0  0  0  0
   13.7713   29.9409   72.3528 O   0  0  0  0  0  0  0  0  0  0  0  0
   14.3768   30.7747   71.4086 C   0  0  0  0  0  0  0  0  0  0  0  0
   15.8295   30.3455   71.2812 C   0  0  0  0  0  0  0  0  0  0  0  0
   16.1758   31.7022   72.7017 H   0  0  0  0  0  0  0  0  0  0  0  0
 10 11  1  0  0  0
 11 12  2  0  0  0
 11 16  1  0  0  0
 12 13  1  0  0  0
 13 14  2  0  0  0
 14 15  1  0  0  0
 14  1  1  0  0  0
 15 16  2  0  0  0
  1  2  2  0  0  0
  1  9  1  0  0  0
  2  3  1  0  0  0
  2  7  1  0  0  0
  3  4  1  0  0  0
  3 17  1  0  0  0
  4  5  1  0  0  0
  4 27  1  0  0  0
  5  6  2  0  0  0
  5  7  1  0  0  0
  7  8  2  0  0  0
 27 28  1  0  0  0
 28 29  1  0  0  0
 29 30  1  0  0  0
 29 34  1  0  0  0
 30 31  1  0  0  0
 31 32  1  0  0  0
 32 33  1  0  0  0
 33 34  1  0  0  0
 17 18  2  0  0  0
 17 22  1  0  0  0
 18 19  1  0  0  0
 19 20  2  0  0  0
 20 21  1  0  0  0
 20 23  1  0  0  0
 21 22  2  0  0  0
 23 24  2  0  0  0
 23 25  1  0  0  0
 25 26  1  0  0  0
 29 35  1  0  0  0
M  CHG 1   9  -1
M  CHG 1  29   1
M  END
> <minimizedAffinity>
-8.50681

$$$$
274


 31 34  0  0  0  0  0  0  0  0999 V2000
   18.1141   32.9514   72.6636 C   0  0  0  0  0  0  0  0  0  0  0  0
   18.7358   33.5086   71.6425 C   0  0  0  0  0  0  0  0  0  0  0  0
   19.1511   34.9249   71.4310 C   0  0  0  0  0  0  0  0  0  0  0  0
   20.4000   34.7890   70.6630 N   0  0  0  0  0  0  0  0  0  0  0  0
   20.1925   33.6648   69.8303 C   0  0  0  0  0  0  0  0  0  0  0  0
   20.8072   33.4400   68.7798 O   0  0  0  0  0  0  0  0  0  0  0  0
   19.1468   32.8326   70.4145 C   0  0  0  0  0  0  0  0  0  0  0  0
   18.6436   31.7527   70.0149 O   0  0  0  0  0  0  0  0  0  0  0  0
   17.7646   33.7866   73.7430 O   0  0  0  0  0  0  0  0  0  0  0  0
   16.5941   26.9734   73.1512 Br  0  0  0  0  0  0  0  0  0  0  0  0
   17.0656   28.8253   72.9909 C   0  0  0  0  0  0  0  0  0  0  0  0
   16.1792   29.7454   72.4802 C   0  0  0  0  0  0  0  0  0  0  0  0
   16.5276   31.0826   72.3664 C   0  0  0  0  0  0  0  0  0  0  0  0
   17.7649   31.5443   72.7567 C   0  0  0  0  0  0  0  0  0  0  0  0
   18.6490   30.6226   73.2683 C   0  0  0  0  0  0  0  0  0  0  0  0
   18.3041   29.2728   73.3854 C   0  0  0  0  0  0  0  0  0  0  0  0
   18.1494   35.7500   70.7523 C   0  0  0  0  0  0  0  0  0  0  0  0
   16.7832   35.4732   70.8823 C   0  0  0  0  0  0  0  0  0  0  0  0
   15.8039   36.2009   70.2794 C   0  0  0  0  0  0  0  0  0  0  0  0
   16.1400   37.2816   69.4853 C   0  0  0  0  0  0  0  0  0  0  0  0
   17.4653   37.5764   69.3389 C   0  0  0  0  0  0  0  0  0  0  0  0
   18.4702   36.8280   69.9590 C   0  0  0  0  0  0  0  0  0  0  0  0
   21.4958   35.6738   70.8220 C   0  0  0  0  0  0  0  0  0  0  0  0
   22.0309   36.3622   69.6345 C   0  0  0  0  0  0  0  0  0  0  0  0
   22.8266   35.5730   68.7452 N   0  0  0  0  0  0  0  0  0  0  0  0
   23.9133   34.8742   69.3361 C   0  0  0  0  0  0  0  0  0  0  0  0
   25.2048   35.5640   68.9542 C   0  0  0  0  0  0  0  0  0  0  0  0
   25.0887   36.9512   68.9725 O   0  0  0  0  0  0  0  0  0  0  0  0
   24.2475   37.4252   67.9833 C   0  0  0  0  0  0  0  0  0  0  0  0
   23.2982   36.3136   67.5955 C   0  0  0  0  0  0  0  0  0  0  0  0
   22.1564   34.8407   68.3554 H   0  0  0  0  0  0  0  0  0  0  0  0
 10 11  1  0  0  0
 11 12  2  0  0  0
 11 16  1  0  0  0
 12 13  1  0  0  0
 13 14  2  0  0  0
 14 15  1  0  0  0
 14  1  1  0  0  0
 15 16  2  0  0  0
  1  2  2  0  0  0
  1  9  1  0  0  0
  2  3  1  0  0  0
  2  7  1  0  0  0
  3  4  1  0  0  0
  3 17  1  0  0  0
  4  5  1  0  0  0
  4 23  1  0  0  0
  5  6  2  0  0  0
  5  7  1  0  0  0
  7  8  2  0  0  0
 23 24  1  0  0  0
 24 25  1  0  0  0
 25 26  1  0  0  0
 25 30  1  0  0  0
 26 27  1  0  0  0
 27 28  1  0  0  0
 28 29  1  0  0  0
 29 30  1  0  0  0
 17 18  2  0  0  0
 17 22  1  0  0  0
 18 19  1  0  0  0
 19 20  2  0  0  0
 20 21  1  0  0  0
 21 22  2  0  0  0
 25 31  1  0  0  0
M  CHG 1   9  -1
M  CHG 1  25   1
M  END
> <minimizedAffinity>
-8.05633

$$$$
278


 30 33  0  0  0  0  0  0  0  0999 V2000
   16.2030   33.8598   70.9902 N   0  0  0  0  0  0  0  0  0  0  0  0
   15.0736   34.3896   70.4631 C   0  0  0  0  0  0  0  0  0  0  0  0
   15.3439   35.7300   70.2384 C   0  0  0  0  0  0  0  0  0  0  0  0
   14.3492   36.5271   69.7036 C   0  0  0  0  0  0  0  0  0  0  0  0
   13.0845   36.0175   69.3846 C   0  0  0  0  0  0  0  0  0  0  0  0
   12.8617   34.6690   69.6281 C   0  0  0  0  0  0  0  0  0  0  0  0
   13.8314   33.8547   70.1586 C   0  0  0  0  0  0  0  0  0  0  0  0
   16.6243   36.0174   70.6204 N   0  0  0  0  0  0  0  0  0  0  0  0
   17.1227   34.8389   71.0808 C   0  0  0  0  0  0  0  0  0  0  0  0
   18.3230   34.7101   71.5380 N   0  0  0  0  0  0  0  0  0  0  0  0
   18.6419   33.7542   71.8800 H   0  0  0  0  0  0  0  0  0  0  0  0
   19.0280   35.4462   71.6183 H   0  0  0  0  0  0  0  0  0  0  0  0
   16.2968   32.4752   71.3515 C   0  0  0  0  0  0  0  0  0  0  0  0
   16.1059   32.2271   72.8171 C   0  0  0  0  0  0  0  0  0  0  0  0
   17.1616   32.6427   73.6052 O   0  0  0  0  0  0  0  0  0  0  0  0
   18.0122   32.2196   73.3773 H   0  0  0  0  0  0  0  0  0  0  0  0
   15.2807   26.2331   73.9394 Br  0  0  0  0  0  0  0  0  0  0  0  0
   15.5366   28.0978   73.5887 C   0  0  0  0  0  0  0  0  0  0  0  0
   16.5733   28.4934   72.7742 C   0  0  0  0  0  0  0  0  0  0  0  0
   16.7508   29.8288   72.5276 C   0  0  0  0  0  0  0  0  0  0  0  0
   15.9054   30.7541   73.0872 C   0  0  0  0  0  0  0  0  0  0  0  0
   14.8818   30.3219   73.8958 C   0  0  0  0  0  0  0  0  0  0  0  0
   14.6618   28.9821   74.1750 C   0  0  0  0  0  0  0  0  0  0  0  0
   17.2243   37.3127   70.5057 C   0  0  0  0  0  0  0  0  0  0  0  0
   17.9121   37.5431   69.1888 C   0  0  0  0  0  0  0  0  0  0  0  0
   19.1956   37.0566   69.0086 C   0  0  0  0  0  0  0  0  0  0  0  0
   19.8926   37.2261   67.8281 C   0  0  0  0  0  0  0  0  0  0  0  0
   19.2640   37.9051   66.8140 C   0  0  0  0  0  0  0  0  0  0  0  0
   17.9948   38.3977   66.9659 C   0  0  0  0  0  0  0  0  0  0  0  0
   17.3308   38.2126   68.1488 C   0  0  0  0  0  0  0  0  0  0  0  0
 17 18  1  0  0  0
 18 19  2  0  0  0
 18 23  1  0  0  0
 19 20  1  0  0  0
 20 21  2  0  0  0
 21 22  1  0  0  0
 21 14  1  0  0  0
 22 23  2  0  0  0
 14 15  1  0  0  0
 14 13  1  0  0  0
 13  1  1  0  0  0
  1  2  1  0  0  0
  1  9  1  0  0  0
  2  3  1  0  0  0
  2  7  2  0  0  0
  3  4  2  0  0  0
  3  8  1  0  0  0
  4  5  1  0  0  0
  5  6  2  0  0  0
  6  7  1  0  0  0
  8  9  1  0  0  0
  8 24  1  0  0  0
  9 10  2  0  0  0
 24 25  1  0  0  0
 25 26  2  0  0  0
 25 30  1  0  0  0
 26 27  1  0  0  0
 27 28  2  0  0  0
 28 29  1  0  0  0
 29 30  2  0  0  0
 15 16  1  0  0  0
 10 11  1  0  0  0
 10 12  1  0  0  0
M  END
> <minimizedAffinity>
-9.47320

$$$$
289


 31 34  0  0  0  0  0  0  0  0999 V2000
   17.3466   33.2033   71.7299 C   0  0  0  0  0  0  0  0  0  0  0  0
   16.4719   32.2823   72.1669 N   0  0  0  0  0  0  0  0  0  0  0  0
   15.2130   32.6965   71.8902 C   0  0  0  0  0  0  0  0  0  0  0  0
   15.2816   33.9192   71.2589 C   0  0  0  0  0  0  0  0  0  0  0  0
   16.5814   34.2031   71.1756 N   0  0  0  0  0  0  0  0  0  0  0  0
   14.1460   34.5353   70.8816 N   0  0  0  0  0  0  0  0  0  0  0  0
   12.9406   33.9936   71.1017 C   0  0  0  0  0  0  0  0  0  0  0  0
   11.8891   34.6057   70.7282 O   0  0  0  0  0  0  0  0  0  0  0  0
   12.8519   32.8013   71.7156 N   0  0  0  0  0  0  0  0  0  0  0  0
   13.9629   32.1610   72.1049 C   0  0  0  0  0  0  0  0  0  0  0  0
   13.8771   31.0469   72.6775 O   0  0  0  0  0  0  0  0  0  0  0  0
   14.2585   35.8333   70.2073 C   0  0  0  0  0  0  0  0  0  0  0  0
   11.9002   32.3666   71.8936 H   0  0  0  0  0  0  0  0  0  0  0  0
   20.2941   34.7996   70.7212 N   0  0  0  0  0  0  0  0  0  0  0  0
   20.4060   34.8217   72.1182 C   0  0  0  0  0  0  0  0  0  0  0  0
   19.5281   33.7724   72.7926 C   0  0  0  0  0  0  0  0  0  0  0  0
   18.7511   33.1581   71.7731 N   0  0  0  0  0  0  0  0  0  0  0  0
   19.4814   32.4766   70.7318 C   0  0  0  0  0  0  0  0  0  0  0  0
   20.2548   33.5876   70.0118 C   0  0  0  0  0  0  0  0  0  0  0  0
   19.6980   35.9455   70.1188 C   0  0  0  0  0  0  0  0  0  0  0  0
   23.2455   38.5229   65.7663 Br  0  0  0  0  0  0  0  0  0  0  0  0
   22.1257   37.7301   67.1119 C   0  0  0  0  0  0  0  0  0  0  0  0
   22.6646   37.2788   68.2993 C   0  0  0  0  0  0  0  0  0  0  0  0
   21.8601   36.7046   69.2707 C   0  0  0  0  0  0  0  0  0  0  0  0
   20.5101   36.5761   69.0610 C   0  0  0  0  0  0  0  0  0  0  0  0
   19.9549   37.0232   67.8805 C   0  0  0  0  0  0  0  0  0  0  0  0
   20.7692   37.5930   66.9227 C   0  0  0  0  0  0  0  0  0  0  0  0
   16.7395   31.0552   72.8678 C   0  0  0  0  0  0  0  0  0  0  0  0
   16.9838   29.9004   71.9228 C   0  0  0  0  0  0  0  0  0  0  0  0
   16.2346   28.7762   72.2053 O   0  0  0  0  0  0  0  0  0  0  0  0
   17.0626   27.9531   73.0034 C   0  0  0  0  0  0  0  0  0  0  0  0
 21 22  1  0  0  0
 22 23  2  0  0  0
 22 27  1  0  0  0
 23 24  1  0  0  0
 24 25  2  0  0  0
 25 26  1  0  0  0
 25 20  1  0  0  0
 26 27  2  0  0  0
 20 14  1  0  0  0
 14 15  1  0  0  0
 14 19  1  0  0  0
 15 16  1  0  0  0
 16 17  1  0  0  0
 17 18  1  0  0  0
 17  1  1  0  0  0
 18 19  1  0  0  0
  1  2  1  0  0  0
  1  5  2  0  0  0
  2  3  1  0  0  0
  2 28  1  0  0  0
  3  4  2  0  0  0
  3 10  1  0  0  0
  4  5  1  0  0  0
  4  6  1  0  0  0
  6  7  1  0  0  0
  6 12  1  0  0  0
  7  8  2  0  0  0
  7  9  1  0  0  0
  9 10  1  0  0  0
 10 11  2  0  0  0
 28 29  1  0  0  0
 29 30  1  0  0  0
 30 31  1  0  0  0
  9 13  1  0  0  0
M  END
> <minimizedAffinity>
-8.38329

$$$$
293


 27 30  0  0  0  0  0  0  0  0999 V2000
   16.6725   37.5235   69.4460 C   0  0  0  0  0  0  0  0  0  0  0  0
   15.9538   36.5032   69.9290 C   0  0  0  0  0  0  0  0  0  0  0  0
   16.5033   35.2820   70.2839 O   0  0  0  0  0  0  0  0  0  0  0  0
   15.5352   34.4017   70.7563 C   0  0  0  0  0  0  0  0  0  0  0  0
   14.3315   35.0379   70.7158 C   0  0  0  0  0  0  0  0  0  0  0  0
   13.1907   34.3843   71.1332 C   0  0  0  0  0  0  0  0  0  0  0  0
   13.3261   33.0954   71.5787 C   0  0  0  0  0  0  0  0  0  0  0  0
   14.5631   32.4389   71.6216 C   0  0  0  0  0  0  0  0  0  0  0  0
   15.7090   33.0717   71.2095 C   0  0  0  0  0  0  0  0  0  0  0  0
   14.6145   31.1250   72.0894 O   0  0  0  0  0  0  0  0  0  0  0  0
   14.5440   36.3937   70.1901 C   0  0  0  0  0  0  0  0  0  0  0  0
   13.6958   37.3014   69.9958 O   0  0  0  0  0  0  0  0  0  0  0  0
   22.7849   36.8811   68.5901 Br  0  0  0  0  0  0  0  0  0  0  0  0
   20.8928   37.0774   68.8682 C   0  0  0  0  0  0  0  0  0  0  0  0
   20.0393   37.2986   67.8116 C   0  0  0  0  0  0  0  0  0  0  0  0
   18.6794   37.4427   68.0110 C   0  0  0  0  0  0  0  0  0  0  0  0
   18.1136   37.3710   69.2729 C   0  0  0  0  0  0  0  0  0  0  0  0
   18.9711   37.1486   70.3269 C   0  0  0  0  0  0  0  0  0  0  0  0
   20.3472   37.0027   70.1324 C   0  0  0  0  0  0  0  0  0  0  0  0
   17.0680   32.5170   71.1940 C   0  0  0  0  0  0  0  0  0  0  0  0
   18.1332   33.3345   71.6288 N   0  0  0  0  0  0  0  0  0  0  0  0
   18.3489   33.2490   73.0582 C   0  0  0  0  0  0  0  0  0  0  0  0
   19.2687   32.0808   73.3623 C   0  0  0  0  0  0  0  0  0  0  0  0
   20.5672   32.4739   73.0773 O   0  0  0  0  0  0  0  0  0  0  0  0
   20.5238   33.3255   71.9681 C   0  0  0  0  0  0  0  0  0  0  0  0
   19.4067   32.8997   71.0289 C   0  0  0  0  0  0  0  0  0  0  0  0
   18.0259   34.3207   71.3155 H   0  0  0  0  0  0  0  0  0  0  0  0
 13 14  1  0  0  0
 14 15  2  0  0  0
 14 19  1  0  0  0
 15 16  1  0  0  0
 16 17  2  0  0  0
 17 18  1  0  0  0
 17  1  1  0  0  0
 18 19  2  0  0  0
  1  2  2  0  0  0
  2  3  1  0  0  0
  2 11  1  0  0  0
  3  4  1  0  0  0
  4  5  2  0  0  0
  4  9  1  0  0  0
  5  6  1  0  0  0
  5 11  1  0  0  0
  6  7  2  0  0  0
  7  8  1  0  0  0
  8  9  2  0  0  0
  8 10  1  0  0  0
  9 20  1  0  0  0
 20 21  1  0  0  0
 21 22  1  0  0  0
 21 26  1  0  0  0
 22 23  1  0  0  0
 23 24  1  0  0  0
 24 25  1  0  0  0
 25 26  1  0  0  0
 11 12  2  0  0  0
 21 27  1  0  0  0
M  CHG 1  10  -1
M  CHG 1  21   1
M  END
> <minimizedAffinity>
-9.28516

$$$$
294


 35 38  0  0  0  0  0  0  0  0999 V2000
   21.6527   35.2260   68.6328 N   0  0  0  0  0  0  0  0  0  0  0  0
   20.6010   36.0738   68.8477 N   0  0  0  0  0  0  0  0  0  0  0  0
   20.3590   36.7558   67.7198 C   0  0  0  0  0  0  0  0  0  0  0  0
   21.2572   36.3212   66.8375 N   0  0  0  0  0  0  0  0  0  0  0  0
   22.0768   35.3576   67.4039 C   0  0  0  0  0  0  0  0  0  0  0  0
   19.3304   37.7645   67.4955 C   0  0  0  0  0  0  0  0  0  0  0  0
   19.3529   38.7558   66.5995 N   0  0  0  0  0  0  0  0  0  0  0  0
   18.2387   39.4592   66.7025 O   0  0  0  0  0  0  0  0  0  0  0  0
   17.4768   38.9671   67.6376 N   0  0  0  0  0  0  0  0  0  0  0  0
   18.1381   37.8905   68.1624 C   0  0  0  0  0  0  0  0  0  0  0  0
   17.6253   37.0864   69.2125 N   0  0  0  0  0  0  0  0  0  0  0  0
   16.5810   37.0436   69.3786 H   0  0  0  0  0  0  0  0  0  0  0  0
   18.2175   36.5197   69.8492 H   0  0  0  0  0  0  0  0  0  0  0  0
   23.1436   34.7161   66.6634 C   0  0  0  0  0  0  0  0  0  0  0  0
   23.5157   33.3966   66.9048 N   0  0  0  0  0  0  0  0  0  0  0  0
   24.4611   33.0658   66.1156 O   0  0  0  0  0  0  0  0  0  0  0  0
   24.7629   34.0460   65.3588 N   0  0  0  0  0  0  0  0  0  0  0  0
   23.9543   35.1026   65.6752 C   0  0  0  0  0  0  0  0  0  0  0  0
   24.0645   36.3145   64.9831 N   0  0  0  0  0  0  0  0  0  0  0  0
   24.7414   37.0370   65.3218 H   0  0  0  0  0  0  0  0  0  0  0  0
   23.5189   36.5567   64.1300 H   0  0  0  0  0  0  0  0  0  0  0  0
   22.1020   34.3559   69.7018 C   0  0  0  0  0  0  0  0  0  0  0  0
   19.9068   33.1316   69.9501 N   0  0  0  0  0  0  0  0  0  0  0  0
   20.9612   33.8799   70.5272 C   0  0  0  0  0  0  0  0  0  0  0  0
   20.9267   34.1408   71.7507 O   0  0  0  0  0  0  0  0  0  0  0  0
   19.9084   32.8930   68.9119 H   0  0  0  0  0  0  0  0  0  0  0  0
   17.9248   31.9230   70.3810 C   0  0  0  0  0  0  0  0  0  0  0  0
   18.8647   32.7045   70.7437 N   0  0  0  0  0  0  0  0  0  0  0  0
   13.3516   30.1034   74.1282 Br  0  0  0  0  0  0  0  0  0  0  0  0
   14.7661   30.6540   72.9708 C   0  0  0  0  0  0  0  0  0  0  0  0
   14.9712   31.9950   72.6824 C   0  0  0  0  0  0  0  0  0  0  0  0
   15.9894   32.4164   71.8459 C   0  0  0  0  0  0  0  0  0  0  0  0
   16.8441   31.5026   71.2660 C   0  0  0  0  0  0  0  0  0  0  0  0
   16.6324   30.1724   71.5591 C   0  0  0  0  0  0  0  0  0  0  0  0
   15.6208   29.7396   72.3918 C   0  0  0  0  0  0  0  0  0  0  0  0
 29 30  1  0  0  0
 30 31  2  0  0  0
 30 35  1  0  0  0
 31 32  1  0  0  0
 32 33  2  0  0  0
 33 34  1  0  0  0
 33 27  1  0  0  0
 34 35  2  0  0  0
 27 28  2  0  0  0
 28 23  1  0  0  0
 23 24  1  0  0  0
 24 25  2  0  0  0
 24 22  1  0  0  0
 22  1  1  0  0  0
  1  2  1  0  0  0
  1  5  1  0  0  0
  2  3  2  0  0  0
  3  4  1  0  0  0
  3  6  1  0  0  0
  4  5  2  0  0  0
  5 14  1  0  0  0
 14 15  2  0  0  0
 14 18  1  0  0  0
 15 16  1  0  0  0
 16 17  1  0  0  0
 17 18  2  0  0  0
 18 19  1  0  0  0
  6  7  2  0  0  0
  6 10  1  0  0  0
  7  8  1  0  0  0
  8  9  1  0  0  0
  9 10  2  0  0  0
 10 11  1  0  0  0
 23 26  1  0  0  0
 19 20  1  0  0  0
 19 21  1  0  0  0
 11 12  1  0  0  0
 11 13  1  0  0  0
M  END
> <minimizedAffinity>
-8.99712

$$$$
302


 29 33  0  0  0  0  0  0  0  0999 V2000
   16.3471   31.9907   72.2008 C   0  0  0  0  0  0  0  0  0  0  0  0
   17.5630   32.4111   71.7949 N   0  0  0  0  0  0  0  0  0  0  0  0
   17.4825   33.6793   71.3210 C   0  0  0  0  0  0  0  0  0  0  0  0
   16.2053   34.0859   71.4213 N   0  0  0  0  0  0  0  0  0  0  0  0
   15.5077   33.0581   71.9573 C   0  0  0  0  0  0  0  0  0  0  0  0
   16.1775   35.3442   70.9416 C   0  0  0  0  0  0  0  0  0  0  0  0
   17.4392   35.7277   70.5403 C   0  0  0  0  0  0  0  0  0  0  0  0
   17.6951   36.9843   70.0036 C   0  0  0  0  0  0  0  0  0  0  0  0
   16.6650   37.8857   69.8631 C   0  0  0  0  0  0  0  0  0  0  0  0
   15.4072   37.4937   70.2671 C   0  0  0  0  0  0  0  0  0  0  0  0
   15.1253   36.2548   70.8018 C   0  0  0  0  0  0  0  0  0  0  0  0
   18.2369   34.6562   70.7925 N   0  0  0  0  0  0  0  0  0  0  0  0
   18.4460   31.8625   71.8281 H   0  0  0  0  0  0  0  0  0  0  0  0
   14.9427   26.4914   74.6217 Br  0  0  0  0  0  0  0  0  0  0  0  0
   15.3719   28.1846   73.8796 C   0  0  0  0  0  0  0  0  0  0  0  0
   16.3742   28.2994   72.9360 C   0  0  0  0  0  0  0  0  0  0  0  0
   16.6865   29.5432   72.3927 C   0  0  0  0  0  0  0  0  0  0  0  0
   16.0196   30.6869   72.7691 C   0  0  0  0  0  0  0  0  0  0  0  0
   15.0218   30.5634   73.7096 C   0  0  0  0  0  0  0  0  0  0  0  0
   14.6954   29.3238   74.2657 C   0  0  0  0  0  0  0  0  0  0  0  0
   19.6566   34.6599   70.5061 C   0  0  0  0  0  0  0  0  0  0  0  0
   20.4824   34.5527   71.7694 C   0  0  0  0  0  0  0  0  0  0  0  0
   21.5712   33.6377   71.5779 N   0  0  0  0  0  0  0  0  0  0  0  0
   22.3941   34.0588   70.4635 C   0  0  0  0  0  0  0  0  0  0  0  0
   22.7587   32.9182   69.5447 C   0  0  0  0  0  0  0  0  0  0  0  0
   23.2897   31.8765   70.3084 O   0  0  0  0  0  0  0  0  0  0  0  0
   22.4049   31.4261   71.2648 C   0  0  0  0  0  0  0  0  0  0  0  0
   21.1688   32.2832   71.3433 C   0  0  0  0  0  0  0  0  0  0  0  0
   22.1988   33.6328   72.4212 H   0  0  0  0  0  0  0  0  0  0  0  0
 14 15  1  0  0  0
 15 16  2  0  0  0
 15 20  1  0  0  0
 16 17  1  0  0  0
 17 18  2  0  0  0
 18 19  1  0  0  0
 18  1  1  0  0  0
 19 20  2  0  0  0
  1  2  1  0  0  0
  1  5  2  0  0  0
  2  3  2  0  0  0
  3  4  1  0  0  0
  3 12  1  0  0  0
  4  5  1  0  0  0
  4  6  1  0  0  0
  6  7  2  0  0  0
  6 11  1  0  0  0
  7  8  1  0  0  0
  7 12  1  0  0  0
  8  9  2  0  0  0
  9 10  1  0  0  0
 10 11  2  0  0  0
 12 21  1  0  0  0
 21 22  1  0  0  0
 22 23  1  0  0  0
 23 24  1  0  0  0
 23 28  1  0  0  0
 24 25  1  0  0  0
 25 26  1  0  0  0
 26 27  1  0  0  0
 27 28  1  0  0  0
  2 13  1  0  0  0
 23 29  1  0  0  0
M  CHG 1  23   1
M  END
> <minimizedAffinity>
-8.20874

$$$$
305


 27 30  0  0  0  0  0  0  0  0999 V2000
   18.4725   32.7933   70.9257 C   0  0  0  0  0  0  0  0  0  0  0  0
   17.1501   32.8933   70.9623 N   0  0  0  0  0  0  0  0  0  0  0  0
   16.5859   31.6905   71.2330 C   0  0  0  0  0  0  0  0  0  0  0  0
   17.6041   30.8217   71.3760 N   0  0  0  0  0  0  0  0  0  0  0  0
   18.7226   31.4468   71.2029 N   0  0  0  0  0  0  0  0  0  0  0  0
   15.2503   31.7628   71.2808 N   0  0  0  0  0  0  0  0  0  0  0  0
   14.9588   33.0459   71.0422 C   0  0  0  0  0  0  0  0  0  0  0  0
   16.1306   33.7886   70.8425 C   0  0  0  0  0  0  0  0  0  0  0  0
   16.0855   35.0934   70.6276 N   0  0  0  0  0  0  0  0  0  0  0  0
   14.8520   35.6856   70.5953 C   0  0  0  0  0  0  0  0  0  0  0  0
   14.7647   36.9193   70.3900 O   0  0  0  0  0  0  0  0  0  0  0  0
   13.7144   35.0029   70.7735 N   0  0  0  0  0  0  0  0  0  0  0  0
   13.7390   33.6791   71.0012 C   0  0  0  0  0  0  0  0  0  0  0  0
   12.6910   33.0041   71.1750 O   0  0  0  0  0  0  0  0  0  0  0  0
   17.2037   35.9956   70.5313 C   0  0  0  0  0  0  0  0  0  0  0  0
   12.7767   35.4527   70.7471 H   0  0  0  0  0  0  0  0  0  0  0  0
   22.8722   36.7871   69.4294 Br  0  0  0  0  0  0  0  0  0  0  0  0
   21.5473   35.5366   69.9466 C   0  0  0  0  0  0  0  0  0  0  0  0
   21.0845   34.6136   69.0322 C   0  0  0  0  0  0  0  0  0  0  0  0
   20.1332   33.7146   69.4014 C   0  0  0  0  0  0  0  0  0  0  0  0
   19.5935   33.6825   70.6891 C   0  0  0  0  0  0  0  0  0  0  0  0
   20.0950   34.6271   71.5472 C   0  0  0  0  0  0  0  0  0  0  0  0
   21.0530   35.5575   71.2318 C   0  0  0  0  0  0  0  0  0  0  0  0
   14.3191   30.6860   71.5312 C   0  0  0  0  0  0  0  0  0  0  0  0
   14.3208   30.2380   72.9768 C   0  0  0  0  0  0  0  0  0  0  0  0
   13.4439   30.9860   73.7529 O   0  0  0  0  0  0  0  0  0  0  0  0
   12.8669   30.1196   74.6811 C   0  0  0  0  0  0  0  0  0  0  0  0
 17 18  1  0  0  0
 18 19  2  0  0  0
 18 23  1  0  0  0
 19 20  1  0  0  0
 20 21  2  0  0  0
 21 22  1  0  0  0
 21  1  1  0  0  0
 22 23  2  0  0  0
  1  2  1  0  0  0
  1  5  2  0  0  0
  2  3  1  0  0  0
  2  8  1  0  0  0
  3  4  2  0  0  0
  3  6  1  0  0  0
  4  5  1  0  0  0
  6  7  1  0  0  0
  6 24  1  0  0  0
  7  8  2  0  0  0
  7 13  1  0  0  0
  8  9  1  0  0  0
  9 10  1  0  0  0
  9 15  1  0  0  0
 10 11  2  0  0  0
 10 12  1  0  0  0
 12 13  1  0  0  0
 13 14  2  0  0  0
 24 25  1  0  0  0
 25 26  1  0  0  0
 26 27  1  0  0  0
 12 16  1  0  0  0
M  END
> <minimizedAffinity>
-8.02690

$$$$
309


 33 36  0  0  0  0  0  0  0  0999 V2000
   19.6245   36.1999   69.5826 C   0  0  0  0  0  0  0  0  0  0  0  0
   19.4499   35.0851   70.3668 C   0  0  0  0  0  0  0  0  0  0  0  0
   18.2845   34.7503   70.8863 O   0  0  0  0  0  0  0  0  0  0  0  0
   17.2103   35.4687   70.6811 C   0  0  0  0  0  0  0  0  0  0  0  0
   17.3170   36.5773   69.9191 C   0  0  0  0  0  0  0  0  0  0  0  0
   16.2032   37.3524   69.6826 C   0  0  0  0  0  0  0  0  0  0  0  0
   15.0089   36.9670   70.2353 C   0  0  0  0  0  0  0  0  0  0  0  0
   14.9088   35.8081   71.0288 C   0  0  0  0  0  0  0  0  0  0  0  0
   15.9970   35.0263   71.2773 C   0  0  0  0  0  0  0  0  0  0  0  0
   13.6269   35.5774   71.4991 O   0  0  0  0  0  0  0  0  0  0  0  0
   18.5013   36.9933   69.3425 C   0  0  0  0  0  0  0  0  0  0  0  0
   18.5964   38.0087   68.6453 O   0  0  0  0  0  0  0  0  0  0  0  0
   25.1455   37.4605   67.1625 Br  0  0  0  0  0  0  0  0  0  0  0  0
   23.4213   37.0704   67.8923 C   0  0  0  0  0  0  0  0  0  0  0  0
   23.2251   37.2414   69.2313 C   0  0  0  0  0  0  0  0  0  0  0  0
   21.9884   36.9611   69.7703 C   0  0  0  0  0  0  0  0  0  0  0  0
   20.9105   36.5057   69.0154 C   0  0  0  0  0  0  0  0  0  0  0  0
   21.1338   36.3432   67.6733 C   0  0  0  0  0  0  0  0  0  0  0  0
   22.3853   36.6223   67.1003 C   0  0  0  0  0  0  0  0  0  0  0  0
   20.6212   34.2359   70.6346 C   0  0  0  0  0  0  0  0  0  0  0  0
   21.1140   34.2610   71.7903 O   0  0  0  0  0  0  0  0  0  0  0  0
   21.1972   33.4282   69.7037 O   0  0  0  0  0  0  0  0  0  0  0  0
   22.5746   33.1451   69.7542 C   0  0  0  0  0  0  0  0  0  0  0  0
   23.1564   33.2869   68.3748 C   0  0  0  0  0  0  0  0  0  0  0  0
   16.0565   33.8302   72.0819 C   0  0  0  0  0  0  0  0  0  0  0  0
   15.9098   32.5346   71.5566 N   0  0  0  0  0  0  0  0  0  0  0  0
   14.5520   32.1256   71.4882 C   0  0  0  0  0  0  0  0  0  0  0  0
   14.2283   30.6859   71.5637 C   0  0  0  0  0  0  0  0  0  0  0  0
   15.2515   29.9045   72.1107 N   0  0  0  0  0  0  0  0  0  0  0  0
   16.5660   30.1343   71.6956 C   0  0  0  0  0  0  0  0  0  0  0  0
   16.9263   31.5811   71.8195 C   0  0  0  0  0  0  0  0  0  0  0  0
   14.9626   28.9168   73.0631 C   0  0  0  0  0  0  0  0  0  0  0  0
   16.1125   32.7383   70.4557 H   0  0  0  0  0  0  0  0  0  0  0  0
 13 14  1  0  0  0
 14 15  2  0  0  0
 14 19  1  0  0  0
 15 16  1  0  0  0
 16 17  2  0  0  0
 17 18  1  0  0  0
 17  1  1  0  0  0
 18 19  2  0  0  0
  1  2  2  0  0  0
  1 11  1  0  0  0
  2  3  1  0  0  0
  2 20  1  0  0  0
  3  4  1  0  0  0
  4  5  2  0  0  0
  4  9  1  0  0  0
  5  6  1  0  0  0
  5 11  1  0  0  0
  6  7  2  0  0  0
  7  8  1  0  0  0
  8  9  2  0  0  0
  8 10  1  0  0  0
  9 25  1  0  0  0
 25 26  1  0  0  0
 26 27  1  0  0  0
 26 31  1  0  0  0
 27 28  1  0  0  0
 28 29  1  0  0  0
 29 30  1  0  0  0
 29 32  1  0  0  0
 30 31  1  0  0  0
 11 12  2  0  0  0
 20 21  2  0  0  0
 20 22  1  0  0  0
 22 23  1  0  0  0
 23 24  1  0  0  0
 26 33  1  0  0  0
M  CHG 1  10  -1
M  CHG 1  26   1
M  END
> <minimizedAffinity>
-8.82142

$$$$
320


 32 36  0  0  0  0  0  0  0  0999 V2000
   19.7095   34.1846   70.2088 C   0  0  0  0  0  0  0  0  0  0  0  0
   20.7223   33.4805   69.5367 C   0  0  0  0  0  0  0  0  0  0  0  0
   21.4501   34.3831   68.8913 N   0  0  0  0  0  0  0  0  0  0  0  0
   22.5395   34.4367   68.0652 C   0  0  0  0  0  0  0  0  0  0  0  0
   22.7101   35.7675   67.7776 C   0  0  0  0  0  0  0  0  0  0  0  0
   21.7587   36.4343   68.4131 N   0  0  0  0  0  0  0  0  0  0  0  0
   20.9614   35.5797   69.1160 C   0  0  0  0  0  0  0  0  0  0  0  0
   19.8740   35.4839   69.9371 N   0  0  0  0  0  0  0  0  0  0  0  0
   23.7445   36.2060   66.9459 C   0  0  0  0  0  0  0  0  0  0  0  0
   24.6166   35.2885   66.4008 C   0  0  0  0  0  0  0  0  0  0  0  0
   24.4242   33.9600   66.7051 C   0  0  0  0  0  0  0  0  0  0  0  0
   23.3976   33.5158   67.5303 C   0  0  0  0  0  0  0  0  0  0  0  0
   21.6566   37.4651   68.3521 H   0  0  0  0  0  0  0  0  0  0  0  0
   15.3554   31.2109   73.4284 Br  0  0  0  0  0  0  0  0  0  0  0  0
   16.7151   32.1505   72.4397 C   0  0  0  0  0  0  0  0  0  0  0  0
   16.9413   31.8989   71.1213 C   0  0  0  0  0  0  0  0  0  0  0  0
   17.9063   32.5680   70.4248 C   0  0  0  0  0  0  0  0  0  0  0  0
   18.7019   33.5297   71.0143 C   0  0  0  0  0  0  0  0  0  0  0  0
   18.4785   33.7811   72.3252 C   0  0  0  0  0  0  0  0  0  0  0  0
   17.4816   33.0958   73.0615 C   0  0  0  0  0  0  0  0  0  0  0  0
   19.1358   36.6443   70.3323 C   0  0  0  0  0  0  0  0  0  0  0  0
   18.2287   37.2447   69.3357 C   0  0  0  0  0  0  0  0  0  0  0  0
   16.7903   37.3987   69.6758 C   0  0  0  0  0  0  0  0  0  0  0  0
   16.3863   36.5066   70.7400 N   0  0  0  0  0  0  0  0  0  0  0  0
   17.1201   35.9451   71.1648 H   0  0  0  0  0  0  0  0  0  0  0  0
   16.0681   37.1584   71.5466 H   0  0  0  0  0  0  0  0  0  0  0  0
   15.2242   35.7320   70.4191 C   0  0  0  0  0  0  0  0  0  0  0  0
   14.6511   34.9416   71.5612 C   0  0  0  0  0  0  0  0  0  0  0  0
   13.7747   33.8511   70.9272 C   0  0  0  0  0  0  0  0  0  0  0  0
   12.6713   34.5089   70.1736 C   0  0  0  0  0  0  0  0  0  0  0  0
   13.1439   35.5457   69.1811 C   0  0  0  0  0  0  0  0  0  0  0  0
   14.0721   36.5582   69.8617 C   0  0  0  0  0  0  0  0  0  0  0  0
 14 15  1  0  0  0
 15 16  2  0  0  0
 15 20  1  0  0  0
 16 17  1  0  0  0
 17 18  2  0  0  0
 18 19  1  0  0  0
 18  1  1  0  0  0
 19 20  2  0  0  0
  1  2  2  0  0  0
  1  8  1  0  0  0
  2  3  1  0  0  0
  3  4  1  0  0  0
  3  7  1  0  0  0
  4  5  2  0  0  0
  4 12  1  0  0  0
  5  6  1  0  0  0
  5  9  1  0  0  0
  6  7  2  0  0  0
  7  8  1  0  0  0
  8 21  1  0  0  0
 21 22  1  0  0  0
 22 23  1  0  0  0
 23 24  1  0  0  0
 24 27  1  0  0  0
 27 28  1  0  0  0
 27 32  1  0  0  0
 28 29  1  0  0  0
 29 30  1  0  0  0
 30 31  1  0  0  0
 31 32  1  0  0  0
  9 10  2  0  0  0
 10 11  1  0  0  0
 11 12  2  0  0  0
  6 13  1  0  0  0
 24 25  1  0  0  0
 24 26  1  0  0  0
M  CHG 1  24   1
M  END
> <minimizedAffinity>
-8.79304

$$$$
324


 34 38  0  0  0  0  0  0  0  0999 V2000
   15.7954   31.8209   72.4742 C   0  0  0  0  0  0  0  0  0  0  0  0
   14.7493   32.2906   71.6577 C   0  0  0  0  0  0  0  0  0  0  0  0
   14.9492   33.5682   71.3165 N   0  0  0  0  0  0  0  0  0  0  0  0
   14.4344   34.6122   70.6215 C   0  0  0  0  0  0  0  0  0  0  0  0
   15.3148   35.6533   70.7870 C   0  0  0  0  0  0  0  0  0  0  0  0
   16.3373   35.2177   71.5742 N   0  0  0  0  0  0  0  0  0  0  0  0
   16.0933   33.9318   71.8888 C   0  0  0  0  0  0  0  0  0  0  0  0
   16.6143   32.8674   72.5980 N   0  0  0  0  0  0  0  0  0  0  0  0
   15.0226   36.8533   70.1732 C   0  0  0  0  0  0  0  0  0  0  0  0
   13.8764   37.0231   69.4072 C   0  0  0  0  0  0  0  0  0  0  0  0
   12.9976   35.9822   69.2435 C   0  0  0  0  0  0  0  0  0  0  0  0
   13.2956   34.7646   69.8669 C   0  0  0  0  0  0  0  0  0  0  0  0
   17.1513   35.8032   71.8634 H   0  0  0  0  0  0  0  0  0  0  0  0
   16.0763   25.9609   74.5506 Br  0  0  0  0  0  0  0  0  0  0  0  0
   15.9900   27.7740   73.9312 C   0  0  0  0  0  0  0  0  0  0  0  0
   15.1685   28.6881   74.5395 C   0  0  0  0  0  0  0  0  0  0  0  0
   15.1063   30.0156   74.0842 C   0  0  0  0  0  0  0  0  0  0  0  0
   15.8381   30.4710   73.0350 C   0  0  0  0  0  0  0  0  0  0  0  0
   16.6679   29.5248   72.4320 C   0  0  0  0  0  0  0  0  0  0  0  0
   16.7364   28.2131   72.8740 C   0  0  0  0  0  0  0  0  0  0  0  0
   17.8472   32.9594   73.3514 C   0  0  0  0  0  0  0  0  0  0  0  0
   19.0924   32.7760   72.5165 C   0  0  0  0  0  0  0  0  0  0  0  0
   19.7315   34.1024   72.1899 C   0  0  0  0  0  0  0  0  0  0  0  0
   19.4882   34.5791   70.8563 N   0  0  0  0  0  0  0  0  0  0  0  0
   20.2476   33.7048   69.9768 C   0  0  0  0  0  0  0  0  0  0  0  0
   21.0231   34.4038   68.9243 C   0  0  0  0  0  0  0  0  0  0  0  0
   21.7619   35.5618   69.3477 N   0  0  0  0  0  0  0  0  0  0  0  0
   21.2647   36.1488   70.5742 C   0  0  0  0  0  0  0  0  0  0  0  0
   19.7626   35.9573   70.6192 C   0  0  0  0  0  0  0  0  0  0  0  0
   21.5770   36.3074   68.6053 H   0  0  0  0  0  0  0  0  0  0  0  0
   23.1726   35.3409   69.3171 C   0  0  0  0  0  0  0  0  0  0  0  0
   23.9651   36.2819   68.4753 C   0  0  0  0  0  0  0  0  0  0  0  0
   24.7585   37.1608   69.2106 O   0  0  0  0  0  0  0  0  0  0  0  0
   25.2328   36.6741   69.9064 H   0  0  0  0  0  0  0  0  0  0  0  0
 14 15  1  0  0  0
 15 16  2  0  0  0
 15 20  1  0  0  0
 16 17  1  0  0  0
 17 18  2  0  0  0
 18 19  1  0  0  0
 18  1  1  0  0  0
 19 20  2  0  0  0
  1  2  2  0  0  0
  1  8  1  0  0  0
  2  3  1  0  0  0
  3  4  1  0  0  0
  3  7  1  0  0  0
  4  5  2  0  0  0
  4 12  1  0  0  0
  5  6  1  0  0  0
  5  9  1  0  0  0
  6  7  2  0  0  0
  7  8  1  0  0  0
  8 21  1  0  0  0
 21 22  1  0  0  0
 22 23  1  0  0  0
 23 24  1  0  0  0
 24 25  1  0  0  0
 24 29  1  0  0  0
 25 26  1  0  0  0
 26 27  1  0  0  0
 27 28  1  0  0  0
 27 31  1  0  0  0
 28 29  1  0  0  0
 31 32  1  0  0  0
 32 33  1  0  0  0
  9 10  2  0  0  0
 10 11  1  0  0  0
 11 12  2  0  0  0
  6 13  1  0  0  0
 27 30  1  0  0  0
 33 34  1  0  0  0
M  CHG 1  27   1
M  END
> <minimizedAffinity>
-8.19560

$$$$
346


 35 38  0  0  0  0  0  0  0  0999 V2000
   19.7410   36.9451   69.9545 C   0  0  0  0  0  0  0  0  0  0  0  0
   18.4177   37.2757   69.5007 N   0  0  0  0  0  0  0  0  0  0  0  0
   18.4170   37.6022   68.1243 C   0  0  0  0  0  0  0  0  0  0  0  0
   17.4364   37.9620   67.4021 O   0  0  0  0  0  0  0  0  0  0  0  0
   19.7925   37.4611   67.5963 C   0  0  0  0  0  0  0  0  0  0  0  0
   20.1365   37.6779   66.4127 O   0  0  0  0  0  0  0  0  0  0  0  0
   20.5948   37.0371   68.7244 C   0  0  0  0  0  0  0  0  0  0  0  0
   21.8896   36.8261   68.6399 C   0  0  0  0  0  0  0  0  0  0  0  0
   22.5749   36.4800   69.8235 O   0  0  0  0  0  0  0  0  0  0  0  0
   20.1123   31.3887   72.6755 Br  0  0  0  0  0  0  0  0  0  0  0  0
   19.9900   33.0984   71.8080 C   0  0  0  0  0  0  0  0  0  0  0  0
   20.1647   34.2485   72.5448 C   0  0  0  0  0  0  0  0  0  0  0  0
   20.0827   35.5054   71.9371 C   0  0  0  0  0  0  0  0  0  0  0  0
   19.8246   35.6269   70.5886 C   0  0  0  0  0  0  0  0  0  0  0  0
   19.6566   34.4541   69.8881 C   0  0  0  0  0  0  0  0  0  0  0  0
   19.7338   33.2107   70.4696 C   0  0  0  0  0  0  0  0  0  0  0  0
   22.6885   36.9054   67.4434 C   0  0  0  0  0  0  0  0  0  0  0  0
   23.1718   38.0266   66.8655 C   0  0  0  0  0  0  0  0  0  0  0  0
   23.9570   37.9579   65.7339 C   0  0  0  0  0  0  0  0  0  0  0  0
   24.2997   36.7701   65.1241 C   0  0  0  0  0  0  0  0  0  0  0  0
   23.7928   35.6393   65.7334 C   0  0  0  0  0  0  0  0  0  0  0  0
   23.0110   35.6727   66.8549 C   0  0  0  0  0  0  0  0  0  0  0  0
   24.4708   39.2315   65.1301 C   0  0  0  0  0  0  0  0  0  0  0  0
   25.0913   36.7081   63.9838 O   0  0  0  0  0  0  0  0  0  0  0  0
   26.4899   36.4904   64.1004 C   0  0  0  0  0  0  0  0  0  0  0  0
   17.2512   37.2756   70.3650 C   0  0  0  0  0  0  0  0  0  0  0  0
   16.2735   36.1776   70.0479 C   0  0  0  0  0  0  0  0  0  0  0  0
   16.1043   35.2347   71.1996 C   0  0  0  0  0  0  0  0  0  0  0  0
   14.8049   34.6304   71.2515 N   0  0  0  0  0  0  0  0  0  0  0  0
   14.8411   33.1839   71.1848 C   0  0  0  0  0  0  0  0  0  0  0  0
   13.4241   32.6925   71.4988 C   0  0  0  0  0  0  0  0  0  0  0  0
   12.5261   33.7494   71.4949 O   0  0  0  0  0  0  0  0  0  0  0  0
   12.6267   34.4715   70.2852 C   0  0  0  0  0  0  0  0  0  0  0  0
   13.9654   35.1994   70.2358 C   0  0  0  0  0  0  0  0  0  0  0  0
   14.3622   34.8677   72.1890 H   0  0  0  0  0  0  0  0  0  0  0  0
 10 11  1  0  0  0
 11 12  2  0  0  0
 11 16  1  0  0  0
 12 13  1  0  0  0
 13 14  2  0  0  0
 14 15  1  0  0  0
 14  1  1  0  0  0
 15 16  2  0  0  0
  1  2  1  0  0  0
  1  7  1  0  0  0
  2  3  1  0  0  0
  2 26  1  0  0  0
  3  4  2  0  0  0
  3  5  1  0  0  0
  5  6  2  0  0  0
  5  7  1  0  0  0
  7  8  2  0  0  0
  8  9  1  0  0  0
  8 17  1  0  0  0
 17 18  2  0  0  0
 17 22  1  0  0  0
 18 19  1  0  0  0
 19 20  2  0  0  0
 19 23  1  0  0  0
 20 21  1  0  0  0
 20 24  1  0  0  0
 21 22  2  0  0  0
 24 25  1  0  0  0
 26 27  1  0  0  0
 27 28  1  0  0  0
 28 29  1  0  0  0
 29 30  1  0  0  0
 29 34  1  0  0  0
 30 31  1  0  0  0
 31 32  1  0  0  0
 32 33  1  0  0  0
 33 34  1  0  0  0
 29 35  1  0  0  0
M  CHG 1   9  -1
M  CHG 1  29   1
M  END
> <minimizedAffinity>
-8.87930

$$$$
347


 34 37  0  0  0  0  0  0  0  0999 V2000
   19.8015   32.2834   71.5579 C   0  0  0  0  0  0  0  0  0  0  0  0
   20.4332   33.5791   71.7020 N   0  0  0  0  0  0  0  0  0  0  0  0
   19.6329   34.3153   72.6294 C   0  0  0  0  0  0  0  0  0  0  0  0
   20.0102   35.2596   73.3665 O   0  0  0  0  0  0  0  0  0  0  0  0
   18.2936   33.7438   72.5402 C   0  0  0  0  0  0  0  0  0  0  0  0
   17.2490   34.0582   73.1637 O   0  0  0  0  0  0  0  0  0  0  0  0
   18.3431   32.6726   71.5503 C   0  0  0  0  0  0  0  0  0  0  0  0
   17.3381   32.1735   70.8734 C   0  0  0  0  0  0  0  0  0  0  0  0
   17.6426   31.1022   70.0149 O   0  0  0  0  0  0  0  0  0  0  0  0
   21.0900   28.6024   76.3336 Br  0  0  0  0  0  0  0  0  0  0  0  0
   20.7049   29.7430   74.8536 C   0  0  0  0  0  0  0  0  0  0  0  0
   19.4867   29.6626   74.2210 C   0  0  0  0  0  0  0  0  0  0  0  0
   19.2010   30.4977   73.1375 C   0  0  0  0  0  0  0  0  0  0  0  0
   20.1188   31.4108   72.6798 C   0  0  0  0  0  0  0  0  0  0  0  0
   21.3295   31.4682   73.3328 C   0  0  0  0  0  0  0  0  0  0  0  0
   21.6292   30.6499   74.4070 C   0  0  0  0  0  0  0  0  0  0  0  0
   15.9721   32.6773   70.9725 C   0  0  0  0  0  0  0  0  0  0  0  0
   15.5382   33.8514   70.4002 C   0  0  0  0  0  0  0  0  0  0  0  0
   14.2507   34.3459   70.5073 C   0  0  0  0  0  0  0  0  0  0  0  0
   13.3376   33.6295   71.2267 C   0  0  0  0  0  0  0  0  0  0  0  0
   13.7318   32.4349   71.8225 C   0  0  0  0  0  0  0  0  0  0  0  0
   15.0246   31.9733   71.6944 C   0  0  0  0  0  0  0  0  0  0  0  0
   13.9915   35.5377   69.8690 O   0  0  0  0  0  0  0  0  0  0  0  0
   14.6630   36.7420   70.0106 C   0  0  0  0  0  0  0  0  0  0  0  0
   21.6550   34.0636   71.0373 C   0  0  0  0  0  0  0  0  0  0  0  0
   21.4892   34.0061   69.5112 C   0  0  0  0  0  0  0  0  0  0  0  0
   20.3511   34.8981   69.1050 C   0  0  0  0  0  0  0  0  0  0  0  0
   20.6741   36.2610   69.4522 N   0  0  0  0  0  0  0  0  0  0  0  0
   19.5915   36.9874   70.0376 C   0  0  0  0  0  0  0  0  0  0  0  0
   18.5259   37.3454   69.0585 C   0  0  0  0  0  0  0  0  0  0  0  0
   19.0514   38.0553   67.9929 O   0  0  0  0  0  0  0  0  0  0  0  0
   19.9799   37.2333   67.3532 C   0  0  0  0  0  0  0  0  0  0  0  0
   21.1405   37.0205   68.3059 C   0  0  0  0  0  0  0  0  0  0  0  0
   21.4695   36.2440   70.1319 H   0  0  0  0  0  0  0  0  0  0  0  0
 10 11  1  0  0  0
 11 12  2  0  0  0
 11 16  1  0  0  0
 12 13  1  0  0  0
 13 14  2  0  0  0
 14 15  1  0  0  0
 14  1  1  0  0  0
 15 16  2  0  0  0
  1  2  1  0  0  0
  1  7  1  0  0  0
  2  3  1  0  0  0
  2 25  1  0  0  0
  3  4  2  0  0  0
  3  5  1  0  0  0
  5  6  2  0  0  0
  5  7  1  0  0  0
  7  8  2  0  0  0
  8  9  1  0  0  0
  8 17  1  0  0  0
 17 18  2  0  0  0
 17 22  1  0  0  0
 18 19  1  0  0  0
 19 20  2  0  0  0
 19 23  1  0  0  0
 20 21  1  0  0  0
 21 22  2  0  0  0
 23 24  1  0  0  0
 25 26  1  0  0  0
 26 27  1  0  0  0
 27 28  1  0  0  0
 28 29  1  0  0  0
 28 33  1  0  0  0
 29 30  1  0  0  0
 30 31  1  0  0  0
 31 32  1  0  0  0
 32 33  1  0  0  0
 28 34  1  0  0  0
M  CHG 1   9  -1
M  CHG 1  28   1
M  END
> <minimizedAffinity>
-7.79564

$$$$
349


 32 35  0  0  0  0  0  0  0  0999 V2000
   15.8391   31.7384   72.9981 C   0  0  0  0  0  0  0  0  0  0  0  0
   14.5216   31.5724   72.5578 N   0  0  0  0  0  0  0  0  0  0  0  0
   13.9019   30.7594   73.6248 C   0  0  0  0  0  0  0  0  0  0  0  0
   12.6931   30.7721   73.9870 O   0  0  0  0  0  0  0  0  0  0  0  0
   15.0048   29.9490   74.1512 C   0  0  0  0  0  0  0  0  0  0  0  0
   14.9703   29.0815   75.0765 O   0  0  0  0  0  0  0  0  0  0  0  0
   16.1951   30.3411   73.3722 C   0  0  0  0  0  0  0  0  0  0  0  0
   17.2382   29.6014   73.0711 C   0  0  0  0  0  0  0  0  0  0  0  0
   18.2494   30.1063   72.2623 O   0  0  0  0  0  0  0  0  0  0  0  0
   20.2521   35.5548   71.0720 Br  0  0  0  0  0  0  0  0  0  0  0  0
   18.8750   34.3598   71.6583 C   0  0  0  0  0  0  0  0  0  0  0  0
   18.6139   34.1554   72.9958 C   0  0  0  0  0  0  0  0  0  0  0  0
   17.6275   33.2979   73.3911 C   0  0  0  0  0  0  0  0  0  0  0  0
   16.8375   32.5884   72.4738 C   0  0  0  0  0  0  0  0  0  0  0  0
   17.0970   32.7931   71.1649 C   0  0  0  0  0  0  0  0  0  0  0  0
   18.1042   33.6681   70.7555 C   0  0  0  0  0  0  0  0  0  0  0  0
   17.4134   28.2414   73.5561 C   0  0  0  0  0  0  0  0  0  0  0  0
   18.0373   27.8748   74.7072 C   0  0  0  0  0  0  0  0  0  0  0  0
   18.0971   26.5389   75.0788 C   0  0  0  0  0  0  0  0  0  0  0  0
   17.5266   25.5681   74.2876 C   0  0  0  0  0  0  0  0  0  0  0  0
   16.8868   25.8974   73.1158 C   0  0  0  0  0  0  0  0  0  0  0  0
   16.8396   27.2395   72.7650 C   0  0  0  0  0  0  0  0  0  0  0  0
   17.5708   24.1211   74.6547 C   0  0  0  0  0  0  0  0  0  0  0  0
   13.6839   31.9909   71.4438 C   0  0  0  0  0  0  0  0  0  0  0  0
   13.1269   33.3834   71.5839 C   0  0  0  0  0  0  0  0  0  0  0  0
   13.7598   34.3462   70.7436 N   0  0  0  0  0  0  0  0  0  0  0  0
   14.5275   35.2825   71.5430 C   0  0  0  0  0  0  0  0  0  0  0  0
   15.2135   36.2545   70.6198 C   0  0  0  0  0  0  0  0  0  0  0  0
   14.2007   37.0551   70.0672 O   0  0  0  0  0  0  0  0  0  0  0  0
   13.3974   36.2443   69.2997 C   0  0  0  0  0  0  0  0  0  0  0  0
   12.7137   35.1667   70.1009 C   0  0  0  0  0  0  0  0  0  0  0  0
   14.3409   33.9246   70.0047 H   0  0  0  0  0  0  0  0  0  0  0  0
 10 11  1  0  0  0
 11 12  2  0  0  0
 11 16  1  0  0  0
 12 13  1  0  0  0
 13 14  2  0  0  0
 14 15  1  0  0  0
 14  1  1  0  0  0
 15 16  2  0  0  0
  1  2  1  0  0  0
  1  7  1  0  0  0
  2  3  1  0  0  0
  2 24  1  0  0  0
  3  4  2  0  0  0
  3  5  1  0  0  0
  5  6  2  0  0  0
  5  7  1  0  0  0
  7  8  2  0  0  0
  8  9  1  0  0  0
  8 17  1  0  0  0
 17 18  2  0  0  0
 17 22  1  0  0  0
 18 19  1  0  0  0
 19 20  2  0  0  0
 20 21  1  0  0  0
 20 23  1  0  0  0
 21 22  2  0  0  0
 24 25  1  0  0  0
 25 26  1  0  0  0
 26 27  1  0  0  0
 26 31  1  0  0  0
 27 28  1  0  0  0
 28 29  1  0  0  0
 29 30  1  0  0  0
 30 31  1  0  0  0
 26 32  1  0  0  0
M  CHG 1   9  -1
M  CHG 1  26   1
M  END
> <minimizedAffinity>
-8.32761

$$$$
351


 32 35  0  0  0  0  0  0  0  0999 V2000
   15.8078   31.5018   73.1436 C   0  0  0  0  0  0  0  0  0  0  0  0
   14.4533   31.5064   72.7268 N   0  0  0  0  0  0  0  0  0  0  0  0
   13.7663   30.8066   73.8079 C   0  0  0  0  0  0  0  0  0  0  0  0
   12.5672   30.9777   74.1598 O   0  0  0  0  0  0  0  0  0  0  0  0
   14.7507   29.8868   74.3752 C   0  0  0  0  0  0  0  0  0  0  0  0
   14.6036   29.0746   75.3251 O   0  0  0  0  0  0  0  0  0  0  0  0
   15.9787   30.0916   73.6039 C   0  0  0  0  0  0  0  0  0  0  0  0
   16.9371   29.2151   73.3631 C   0  0  0  0  0  0  0  0  0  0  0  0
   18.0096   29.5555   72.5537 O   0  0  0  0  0  0  0  0  0  0  0  0
   20.3912   34.0468   69.9540 Br  0  0  0  0  0  0  0  0  0  0  0  0
   18.9597   33.2256   70.8992 C   0  0  0  0  0  0  0  0  0  0  0  0
   18.1176   32.2968   70.3317 C   0  0  0  0  0  0  0  0  0  0  0  0
   17.0722   31.7118   71.0614 C   0  0  0  0  0  0  0  0  0  0  0  0
   16.8545   32.0480   72.3674 C   0  0  0  0  0  0  0  0  0  0  0  0
   17.7143   32.9809   72.9094 C   0  0  0  0  0  0  0  0  0  0  0  0
   18.7451   33.5639   72.2086 C   0  0  0  0  0  0  0  0  0  0  0  0
   16.9538   27.8671   73.9138 C   0  0  0  0  0  0  0  0  0  0  0  0
   16.3505   26.8978   73.1012 C   0  0  0  0  0  0  0  0  0  0  0  0
   16.3162   25.5689   73.4549 C   0  0  0  0  0  0  0  0  0  0  0  0
   16.9031   25.1936   74.6584 C   0  0  0  0  0  0  0  0  0  0  0  0
   17.4946   26.1519   75.4516 C   0  0  0  0  0  0  0  0  0  0  0  0
   17.5241   27.4817   75.0873 C   0  0  0  0  0  0  0  0  0  0  0  0
   16.8526   23.5015   75.0983 Cl  0  0  0  0  0  0  0  0  0  0  0  0
   13.7464   32.0735   71.5750 C   0  0  0  0  0  0  0  0  0  0  0  0
   13.8940   33.5565   71.4276 C   0  0  0  0  0  0  0  0  0  0  0  0
   14.5550   33.9344   70.1986 N   0  0  0  0  0  0  0  0  0  0  0  0
   15.4225   35.0680   70.3552 C   0  0  0  0  0  0  0  0  0  0  0  0
   14.6985   36.3617   70.5876 C   0  0  0  0  0  0  0  0  0  0  0  0
   13.7165   36.5955   69.6235 O   0  0  0  0  0  0  0  0  0  0  0  0
   12.8096   35.5296   69.7231 C   0  0  0  0  0  0  0  0  0  0  0  0
   13.5314   34.2925   69.2335 C   0  0  0  0  0  0  0  0  0  0  0  0
   15.1051   33.1568   69.7851 H   0  0  0  0  0  0  0  0  0  0  0  0
 10 11  1  0  0  0
 11 12  2  0  0  0
 11 16  1  0  0  0
 12 13  1  0  0  0
 13 14  2  0  0  0
 14 15  1  0  0  0
 14  1  1  0  0  0
 15 16  2  0  0  0
  1  2  1  0  0  0
  1  7  1  0  0  0
  2  3  1  0  0  0
  2 24  1  0  0  0
  3  4  2  0  0  0
  3  5  1  0  0  0
  5  6  2  0  0  0
  5  7  1  0  0  0
  7  8  2  0  0  0
  8  9  1  0  0  0
  8 17  1  0  0  0
 17 18  2  0  0  0
 17 22  1  0  0  0
 18 19  1  0  0  0
 19 20  2  0  0  0
 20 21  1  0  0  0
 20 23  1  0  0  0
 21 22  2  0  0  0
 24 25  1  0  0  0
 25 26  1  0  0  0
 26 27  1  0  0  0
 26 31  1  0  0  0
 27 28  1  0  0  0
 28 29  1  0  0  0
 29 30  1  0  0  0
 30 31  1  0  0  0
 26 32  1  0  0  0
M  CHG 1   9  -1
M  CHG 1  26   1
M  END
> <minimizedAffinity>
-7.99756

$$$$
354


 32 35  0  0  0  0  0  0  0  0999 V2000
   18.7032   35.9840   70.5760 C   0  0  0  0  0  0  0  0  0  0  0  0
   19.0195   36.7210   69.3947 N   0  0  0  0  0  0  0  0  0  0  0  0
   17.8481   37.5306   69.1158 C   0  0  0  0  0  0  0  0  0  0  0  0
   17.8493   38.5640   68.3974 O   0  0  0  0  0  0  0  0  0  0  0  0
   16.7196   36.9329   69.8034 C   0  0  0  0  0  0  0  0  0  0  0  0
   15.5156   37.3323   69.8121 O   0  0  0  0  0  0  0  0  0  0  0  0
   17.2344   35.7675   70.4932 C   0  0  0  0  0  0  0  0  0  0  0  0
   16.5217   34.7376   70.9137 C   0  0  0  0  0  0  0  0  0  0  0  0
   17.2476   33.6854   71.5230 O   0  0  0  0  0  0  0  0  0  0  0  0
   21.9739   31.0008   72.2114 Br  0  0  0  0  0  0  0  0  0  0  0  0
   20.9573   32.5216   71.6651 C   0  0  0  0  0  0  0  0  0  0  0  0
   20.5758   32.7188   70.3558 C   0  0  0  0  0  0  0  0  0  0  0  0
   19.8399   33.8252   69.9765 C   0  0  0  0  0  0  0  0  0  0  0  0
   19.4526   34.7758   70.8588 C   0  0  0  0  0  0  0  0  0  0  0  0
   19.8471   34.5637   72.1904 C   0  0  0  0  0  0  0  0  0  0  0  0
   20.5789   33.4697   72.5907 C   0  0  0  0  0  0  0  0  0  0  0  0
   15.0812   34.6328   70.7955 C   0  0  0  0  0  0  0  0  0  0  0  0
   14.5939   34.2226   69.5482 C   0  0  0  0  0  0  0  0  0  0  0  0
   13.2483   34.0395   69.3079 C   0  0  0  0  0  0  0  0  0  0  0  0
   12.3621   34.2594   70.2959 N   0  0  0  0  0  0  0  0  0  0  0  0
   12.8033   34.6550   71.5078 C   0  0  0  0  0  0  0  0  0  0  0  0
   14.1603   34.8430   71.7631 C   0  0  0  0  0  0  0  0  0  0  0  0
   20.2395   36.8082   68.5898 C   0  0  0  0  0  0  0  0  0  0  0  0
   21.4762   37.1518   69.3483 C   0  0  0  0  0  0  0  0  0  0  0  0
   22.6192   36.1990   69.0347 C   0  0  0  0  0  0  0  0  0  0  0  0
   22.5843   35.7741   67.6546 N   0  0  0  0  0  0  0  0  0  0  0  0
   23.5386   36.4817   66.8314 C   0  0  0  0  0  0  0  0  0  0  0  0
   23.7007   35.6644   65.5474 C   0  0  0  0  0  0  0  0  0  0  0  0
   24.4878   34.5492   65.8321 O   0  0  0  0  0  0  0  0  0  0  0  0
   24.1656   33.9960   67.0707 C   0  0  0  0  0  0  0  0  0  0  0  0
   22.7582   34.3632   67.4937 C   0  0  0  0  0  0  0  0  0  0  0  0
   21.6316   36.0199   67.2930 H   0  0  0  0  0  0  0  0  0  0  0  0
 10 11  1  0  0  0
 11 12  2  0  0  0
 11 16  1  0  0  0
 12 13  1  0  0  0
 13 14  2  0  0  0
 14 15  1  0  0  0
 14  1  1  0  0  0
 15 16  2  0  0  0
  1  2  1  0  0  0
  1  7  1  0  0  0
  2  3  1  0  0  0
  2 23  1  0  0  0
  3  4  2  0  0  0
  3  5  1  0  0  0
  5  6  2  0  0  0
  5  7  1  0  0  0
  7  8  2  0  0  0
  8  9  1  0  0  0
  8 17  1  0  0  0
 17 18  2  0  0  0
 17 22  1  0  0  0
 18 19  1  0  0  0
 19 20  2  0  0  0
 20 21  1  0  0  0
 21 22  2  0  0  0
 23 24  1  0  0  0
 24 25  1  0  0  0
 25 26  1  0  0  0
 26 27  1  0  0  0
 26 31  1  0  0  0
 27 28  1  0  0  0
 28 29  1  0  0  0
 29 30  1  0  0  0
 30 31  1  0  0  0
 26 32  1  0  0  0
M  CHG 1   9  -1
M  CHG 1  26   1
M  END
> <minimizedAffinity>
-8.50620

$$$$
361


 33 36  0  0  0  0  0  0  0  0999 V2000
   16.7448   32.8101   72.8010 C   0  0  0  0  0  0  0  0  0  0  0  0
   16.1967   31.4420   72.7498 N   0  0  0  0  0  0  0  0  0  0  0  0
   16.5747   30.9556   71.4668 C   0  0  0  0  0  0  0  0  0  0  0  0
   15.9602   30.0433   70.8425 O   0  0  0  0  0  0  0  0  0  0  0  0
   17.7620   31.6773   71.0209 C   0  0  0  0  0  0  0  0  0  0  0  0
   18.3800   31.5163   69.9485 O   0  0  0  0  0  0  0  0  0  0  0  0
   18.0619   32.6091   72.0922 C   0  0  0  0  0  0  0  0  0  0  0  0
   19.2179   33.1337   72.4095 C   0  0  0  0  0  0  0  0  0  0  0  0
   19.3445   33.9763   73.5048 O   0  0  0  0  0  0  0  0  0  0  0  0
   20.4160   32.8674   71.6361 C   0  0  0  0  0  0  0  0  0  0  0  0
   20.9006   33.4345   70.5125 N   0  0  0  0  0  0  0  0  0  0  0  0
   22.0367   32.8353   70.1274 C   0  0  0  0  0  0  0  0  0  0  0  0
   22.2725   31.8635   71.0352 N   0  0  0  0  0  0  0  0  0  0  0  0
   21.3315   31.8424   71.9590 C   0  0  0  0  0  0  0  0  0  0  0  0
   21.1832   30.9464   73.1506 C   0  0  0  0  0  0  0  0  0  0  0  0
   22.7635   33.2316   69.0043 C   0  0  0  0  0  0  0  0  0  0  0  0
   22.3219   34.2838   68.2357 C   0  0  0  0  0  0  0  0  0  0  0  0
   21.1563   34.8882   68.6470 C   0  0  0  0  0  0  0  0  0  0  0  0
   20.4610   34.4747   69.7583 C   0  0  0  0  0  0  0  0  0  0  0  0
   13.3516   36.6855   69.3125 Br  0  0  0  0  0  0  0  0  0  0  0  0
   14.4022   35.4875   70.3863 C   0  0  0  0  0  0  0  0  0  0  0  0
   13.8314   34.3634   70.9550 C   0  0  0  0  0  0  0  0  0  0  0  0
   14.6063   33.5037   71.7314 C   0  0  0  0  0  0  0  0  0  0  0  0
   15.9427   33.7281   71.9619 C   0  0  0  0  0  0  0  0  0  0  0  0
   16.4917   34.8532   71.3859 C   0  0  0  0  0  0  0  0  0  0  0  0
   15.7366   35.7085   70.6184 C   0  0  0  0  0  0  0  0  0  0  0  0
   15.4378   30.7872   73.7826 C   0  0  0  0  0  0  0  0  0  0  0  0
   14.0744   30.3008   73.4844 C   0  0  0  0  0  0  0  0  0  0  0  0
   12.9255   30.7223   74.3118 C   0  0  0  0  0  0  0  0  0  0  0  0
   11.9933   29.7198   74.7309 N   0  0  0  0  0  0  0  0  0  0  0  0
   12.7067   28.8632   75.7206 C   0  0  0  0  0  0  0  0  0  0  0  0
   10.9251   30.3286   75.4967 C   0  0  0  0  0  0  0  0  0  0  0  0
   11.6054   29.1168   74.0057 H   0  0  0  0  0  0  0  0  0  0  0  0
 20 21  1  0  0  0
 21 22  2  0  0  0
 21 26  1  0  0  0
 22 23  1  0  0  0
 23 24  2  0  0  0
 24 25  1  0  0  0
 24  1  1  0  0  0
 25 26  2  0  0  0
  1  2  1  0  0  0
  1  7  1  0  0  0
  2  3  1  0  0  0
  2 27  1  0  0  0
  3  4  2  0  0  0
  3  5  1  0  0  0
  5  6  2  0  0  0
  5  7  1  0  0  0
  7  8  2  0  0  0
  8  9  1  0  0  0
  8 10  1  0  0  0
 10 11  1  0  0  0
 10 14  2  0  0  0
 11 12  1  0  0  0
 11 19  1  0  0  0
 12 13  2  0  0  0
 12 16  1  0  0  0
 13 14  1  0  0  0
 14 15  1  0  0  0
 16 17  2  0  0  0
 17 18  1  0  0  0
 18 19  2  0  0  0
 27 28  1  0  0  0
 28 29  1  0  0  0
 29 30  1  0  0  0
 30 31  1  0  0  0
 30 32  1  0  0  0
 30 33  1  0  0  0
M  CHG 1   9  -1
M  CHG 1  30   1
M  END
> <minimizedAffinity>
-9.11208

$$$$
362


 36 40  0  0  0  0  0  0  0  0999 V2000
   20.4638   34.8732   70.9984 C   0  0  0  0  0  0  0  0  0  0  0  0
   20.8145   33.5650   71.3626 N   0  0  0  0  0  0  0  0  0  0  0  0
   19.9753   33.3199   72.5232 C   0  0  0  0  0  0  0  0  0  0  0  0
   20.1899   32.5172   73.4944 O   0  0  0  0  0  0  0  0  0  0  0  0
   18.7962   34.1699   72.4012 C   0  0  0  0  0  0  0  0  0  0  0  0
   17.7878   34.3092   73.1653 O   0  0  0  0  0  0  0  0  0  0  0  0
   18.9861   34.8983   71.1484 C   0  0  0  0  0  0  0  0  0  0  0  0
   18.0734   35.4655   70.3823 C   0  0  0  0  0  0  0  0  0  0  0  0
   18.4580   36.1661   69.2474 O   0  0  0  0  0  0  0  0  0  0  0  0
   16.6491   35.3908   70.6693 C   0  0  0  0  0  0  0  0  0  0  0  0
   15.9016   34.2907   70.8600 N   0  0  0  0  0  0  0  0  0  0  0  0
   14.6247   34.6402   71.1414 C   0  0  0  0  0  0  0  0  0  0  0  0
   14.5878   35.9822   71.1229 N   0  0  0  0  0  0  0  0  0  0  0  0
   15.7903   36.4779   70.8406 C   0  0  0  0  0  0  0  0  0  0  0  0
   16.2307   37.8926   70.7124 C   0  0  0  0  0  0  0  0  0  0  0  0
   13.6361   33.7075   71.3726 C   0  0  0  0  0  0  0  0  0  0  0  0
   13.9097   32.3611   71.3244 C   0  0  0  0  0  0  0  0  0  0  0  0
   15.2037   31.9878   71.0372 C   0  0  0  0  0  0  0  0  0  0  0  0
   16.1425   32.9477   70.8180 C   0  0  0  0  0  0  0  0  0  0  0  0
   22.7611   37.8291   66.1339 Br  0  0  0  0  0  0  0  0  0  0  0  0
   22.0379   36.8955   67.6322 C   0  0  0  0  0  0  0  0  0  0  0  0
   21.5444   35.6083   67.5276 C   0  0  0  0  0  0  0  0  0  0  0  0
   21.0217   34.9329   68.6101 C   0  0  0  0  0  0  0  0  0  0  0  0
   20.9783   35.5303   69.8372 C   0  0  0  0  0  0  0  0  0  0  0  0
   21.4648   36.8021   69.9456 C   0  0  0  0  0  0  0  0  0  0  0  0
   21.9900   37.4923   68.8774 C   0  0  0  0  0  0  0  0  0  0  0  0
   21.7064   32.5253   70.9625 C   0  0  0  0  0  0  0  0  0  0  0  0
   23.1290   32.7197   70.7868 C   0  0  0  0  0  0  0  0  0  0  0  0
   23.6788   32.6859   69.3801 C   0  0  0  0  0  0  0  0  0  0  0  0
   24.7291   33.6827   69.1956 N   0  0  0  0  0  0  0  0  0  0  0  0
   24.8997   34.1059   67.8372 C   0  0  0  0  0  0  0  0  0  0  0  0
   25.8436   33.2636   67.0307 C   0  0  0  0  0  0  0  0  0  0  0  0
   26.1500   32.0639   67.6158 O   0  0  0  0  0  0  0  0  0  0  0  0
   26.5972   32.1366   68.9093 C   0  0  0  0  0  0  0  0  0  0  0  0
   25.9906   33.2418   69.7090 C   0  0  0  0  0  0  0  0  0  0  0  0
   24.4263   34.5278   69.7414 H   0  0  0  0  0  0  0  0  0  0  0  0
 20 21  1  0  0  0
 21 22  2  0  0  0
 21 26  1  0  0  0
 22 23  1  0  0  0
 23 24  2  0  0  0
 24 25  1  0  0  0
 24  1  1  0  0  0
 25 26  2  0  0  0
  1  2  1  0  0  0
  1  7  1  0  0  0
  2  3  1  0  0  0
  2 27  1  0  0  0
  3  4  2  0  0  0
  3  5  1  0  0  0
  5  6  2  0  0  0
  5  7  1  0  0  0
  7  8  2  0  0  0
  8  9  1  0  0  0
  8 10  1  0  0  0
 10 11  1  0  0  0
 10 14  2  0  0  0
 11 12  1  0  0  0
 11 19  1  0  0  0
 12 13  2  0  0  0
 12 16  1  0  0  0
 13 14  1  0  0  0
 14 15  1  0  0  0
 16 17  2  0  0  0
 17 18  1  0  0  0
 18 19  2  0  0  0
 27 28  1  0  0  0
 28 29  1  0  0  0
 29 30  1  0  0  0
 30 31  1  0  0  0
 30 35  1  0  0  0
 31 32  1  0  0  0
 32 33  1  0  0  0
 33 34  1  0  0  0
 34 35  1  0  0  0
 30 36  1  0  0  0
M  CHG 1   9  -1
M  CHG 1  30   1
M  END
> <minimizedAffinity>
-8.67286

$$$$
364


 32 35  0  0  0  0  0  0  0  0999 V2000
   19.0050   35.0097   71.2377 C   0  0  0  0  0  0  0  0  0  0  0  0
   19.4636   33.7176   71.6677 N   0  0  0  0  0  0  0  0  0  0  0  0
   20.2507   33.1759   70.6213 C   0  0  0  0  0  0  0  0  0  0  0  0
   20.6579   31.9813   70.5493 O   0  0  0  0  0  0  0  0  0  0  0  0
   20.5192   34.2218   69.6312 C   0  0  0  0  0  0  0  0  0  0  0  0
   21.1851   34.1211   68.5712 O   0  0  0  0  0  0  0  0  0  0  0  0
   19.8644   35.4264   70.1089 C   0  0  0  0  0  0  0  0  0  0  0  0
   20.0625   36.6493   69.6437 C   0  0  0  0  0  0  0  0  0  0  0  0
   19.3872   37.7011   70.2935 O   0  0  0  0  0  0  0  0  0  0  0  0
   20.8980   37.0140   68.5268 C   0  0  0  0  0  0  0  0  0  0  0  0
   22.2245   37.0564   68.3515 N   0  0  0  0  0  0  0  0  0  0  0  0
   22.5323   37.5106   67.1243 C   0  0  0  0  0  0  0  0  0  0  0  0
   21.3710   37.7642   66.4977 N   0  0  0  0  0  0  0  0  0  0  0  0
   20.3595   37.4747   67.3178 C   0  0  0  0  0  0  0  0  0  0  0  0
   18.9148   37.6220   66.9845 C   0  0  0  0  0  0  0  0  0  0  0  0
   23.8359   37.6439   66.6585 C   0  0  0  0  0  0  0  0  0  0  0  0
   24.8605   37.2931   67.4937 C   0  0  0  0  0  0  0  0  0  0  0  0
   24.5472   36.8240   68.7562 C   0  0  0  0  0  0  0  0  0  0  0  0
   23.2406   36.7111   69.1711 C   0  0  0  0  0  0  0  0  0  0  0  0
   12.9902   34.8669   69.6648 Br  0  0  0  0  0  0  0  0  0  0  0  0
   14.8359   34.9522   70.1523 C   0  0  0  0  0  0  0  0  0  0  0  0
   15.5577   33.7941   70.2032 C   0  0  0  0  0  0  0  0  0  0  0  0
   16.8869   33.8409   70.5534 C   0  0  0  0  0  0  0  0  0  0  0  0
   17.5650   34.9981   70.8633 C   0  0  0  0  0  0  0  0  0  0  0  0
   16.7988   36.1631   70.8011 C   0  0  0  0  0  0  0  0  0  0  0  0
   15.4688   36.1346   70.4535 C   0  0  0  0  0  0  0  0  0  0  0  0
   19.1755   33.0637   72.9631 C   0  0  0  0  0  0  0  0  0  0  0  0
   18.4154   31.7751   72.7328 C   0  0  0  0  0  0  0  0  0  0  0  0
   18.7441   30.7508   73.6609 N   0  0  0  0  0  0  0  0  0  0  0  0
   17.9465   29.5718   73.3225 C   0  0  0  0  0  0  0  0  0  0  0  0
   20.1239   30.3760   73.6936 C   0  0  0  0  0  0  0  0  0  0  0  0
   18.4682   31.0088   74.6502 H   0  0  0  0  0  0  0  0  0  0  0  0
 20 21  1  0  0  0
 21 22  2  0  0  0
 21 26  1  0  0  0
 22 23  1  0  0  0
 23 24  2  0  0  0
 24 25  1  0  0  0
 24  1  1  0  0  0
 25 26  2  0  0  0
  1  2  1  0  0  0
  1  7  1  0  0  0
  2  3  1  0  0  0
  2 27  1  0  0  0
  3  4  2  0  0  0
  3  5  1  0  0  0
  5  6  2  0  0  0
  5  7  1  0  0  0
  7  8  2  0  0  0
  8  9  1  0  0  0
  8 10  1  0  0  0
 10 11  1  0  0  0
 10 14  2  0  0  0
 11 12  1  0  0  0
 11 19  1  0  0  0
 12 13  2  0  0  0
 12 16  1  0  0  0
 13 14  1  0  0  0
 14 15  1  0  0  0
 16 17  2  0  0  0
 17 18  1  0  0  0
 18 19  2  0  0  0
 27 28  1  0  0  0
 28 29  1  0  0  0
 29 30  1  0  0  0
 29 31  1  0  0  0
 29 32  1  0  0  0
M  CHG 1   9  -1
M  CHG 1  29   1
M  END
> <minimizedAffinity>
-8.78636

$$$$
381


 29 32  0  0  0  0  0  0  0  0999 V2000
   21.8524   33.4865   70.0670 N   0  0  0  0  0  0  0  0  0  0  0  0
   21.1157   34.5430   69.7366 N   0  0  0  0  0  0  0  0  0  0  0  0
   21.6035   35.5366   68.9398 C   0  0  0  0  0  0  0  0  0  0  0  0
   22.8601   35.4492   68.4771 N   0  0  0  0  0  0  0  0  0  0  0  0
   23.1868   36.6092   67.6771 C   0  0  0  0  0  0  0  0  0  0  0  0
   21.9684   37.4834   67.6583 C   0  0  0  0  0  0  0  0  0  0  0  0
   21.0036   36.7207   68.4280 N   0  0  0  0  0  0  0  0  0  0  0  0
   23.6503   34.4093   68.7756 C   0  0  0  0  0  0  0  0  0  0  0  0
   24.8243   34.3299   68.3420 O   0  0  0  0  0  0  0  0  0  0  0  0
   23.1062   33.4316   69.5840 C   0  0  0  0  0  0  0  0  0  0  0  0
   23.8098   32.4368   69.8929 O   0  0  0  0  0  0  0  0  0  0  0  0
   19.6656   37.1423   68.6109 C   0  0  0  0  0  0  0  0  0  0  0  0
   19.0093   37.0959   69.8116 C   0  0  0  0  0  0  0  0  0  0  0  0
   17.6941   37.5013   69.9546 C   0  0  0  0  0  0  0  0  0  0  0  0
   17.0024   37.9738   68.8556 C   0  0  0  0  0  0  0  0  0  0  0  0
   17.6361   38.0289   67.6543 C   0  0  0  0  0  0  0  0  0  0  0  0
   18.9464   37.6220   67.5203 C   0  0  0  0  0  0  0  0  0  0  0  0
   21.3289   32.3901   70.8985 C   0  0  0  0  0  0  0  0  0  0  0  0
   19.0578   33.4008   71.5590 N   0  0  0  0  0  0  0  0  0  0  0  0
   19.8684   32.4334   70.9530 C   0  0  0  0  0  0  0  0  0  0  0  0
   19.3069   31.4326   70.3529 O   0  0  0  0  0  0  0  0  0  0  0  0
   19.5595   34.1962   72.0466 H   0  0  0  0  0  0  0  0  0  0  0  0
   12.9035   33.7256   71.3956 Br  0  0  0  0  0  0  0  0  0  0  0  0
   14.8080   33.5913   71.4701 C   0  0  0  0  0  0  0  0  0  0  0  0
   15.4427   32.8069   72.3966 C   0  0  0  0  0  0  0  0  0  0  0  0
   16.8410   32.7194   72.4429 C   0  0  0  0  0  0  0  0  0  0  0  0
   17.6605   33.4003   71.5778 C   0  0  0  0  0  0  0  0  0  0  0  0
   16.9752   34.1953   70.6382 C   0  0  0  0  0  0  0  0  0  0  0  0
   15.6118   34.2864   70.5880 C   0  0  0  0  0  0  0  0  0  0  0  0
 23 24  1  0  0  0
 24 25  2  0  0  0
 24 29  1  0  0  0
 25 26  1  0  0  0
 26 27  2  0  0  0
 27 28  1  0  0  0
 27 19  1  0  0  0
 28 29  2  0  0  0
 19 20  1  0  0  0
 20 21  2  0  0  0
 20 18  1  0  0  0
 18  1  1  0  0  0
  1  2  1  0  0  0
  1 10  1  0  0  0
  2  3  2  0  0  0
  3  4  1  0  0  0
  3  7  1  0  0  0
  4  5  1  0  0  0
  4  8  1  0  0  0
  5  6  1  0  0  0
  6  7  1  0  0  0
  7 12  1  0  0  0
 12 13  2  0  0  0
 12 17  1  0  0  0
 13 14  1  0  0  0
 14 15  2  0  0  0
 15 16  1  0  0  0
 16 17  2  0  0  0
  8  9  2  0  0  0
  8 10  1  0  0  0
 10 11  2  0  0  0
 19 22  1  0  0  0
M  END
> <minimizedAffinity>
-8.77444

$$$$
382


 31 34  0  0  0  0  0  0  0  0999 V2000
   21.9717   34.5608   69.2393 N   0  0  0  0  0  0  0  0  0  0  0  0
   22.2993   33.4186   68.6346 N   0  0  0  0  0  0  0  0  0  0  0  0
   22.7490   33.6763   67.4283 N   0  0  0  0  0  0  0  0  0  0  0  0
   22.7179   35.0169   67.2367 C   0  0  0  0  0  0  0  0  0  0  0  0
   22.2348   35.5485   68.3661 C   0  0  0  0  0  0  0  0  0  0  0  0
   22.2182   36.9074   68.1315 C   0  0  0  0  0  0  0  0  0  0  0  0
   21.8155   37.7434   68.9942 O   0  0  0  0  0  0  0  0  0  0  0  0
   22.6728   37.2128   66.9064 N   0  0  0  0  0  0  0  0  0  0  0  0
   22.9906   36.0172   66.3334 C   0  0  0  0  0  0  0  0  0  0  0  0
   23.4540   35.9215   65.1643 O   0  0  0  0  0  0  0  0  0  0  0  0
   22.1983   32.4867   69.0878 H   0  0  0  0  0  0  0  0  0  0  0  0
   23.0879   33.0020   66.6977 H   0  0  0  0  0  0  0  0  0  0  0  0
   22.8120   38.5025   66.2925 C   0  0  0  0  0  0  0  0  0  0  0  0
   21.7072   39.2793   66.0166 C   0  0  0  0  0  0  0  0  0  0  0  0
   21.8335   40.5256   65.4363 C   0  0  0  0  0  0  0  0  0  0  0  0
   23.0657   41.0570   65.1013 C   0  0  0  0  0  0  0  0  0  0  0  0
   24.1727   40.2821   65.3763 C   0  0  0  0  0  0  0  0  0  0  0  0
   24.0403   39.0325   65.9594 C   0  0  0  0  0  0  0  0  0  0  0  0
   23.1666   42.4058   64.4812 C   0  0  0  0  0  0  0  0  0  0  0  0
   21.4376   34.6533   70.5836 C   0  0  0  0  0  0  0  0  0  0  0  0
   19.0217   35.1270   71.1639 N   0  0  0  0  0  0  0  0  0  0  0  0
   19.9616   34.2940   70.5427 C   0  0  0  0  0  0  0  0  0  0  0  0
   19.6088   33.2513   69.9531 O   0  0  0  0  0  0  0  0  0  0  0  0
   19.3719   36.0056   71.6620 H   0  0  0  0  0  0  0  0  0  0  0  0
   12.9901   33.9730   71.4623 Br  0  0  0  0  0  0  0  0  0  0  0  0
   14.8428   34.3766   71.3342 C   0  0  0  0  0  0  0  0  0  0  0  0
   15.3373   35.3138   70.4631 C   0  0  0  0  0  0  0  0  0  0  0  0
   16.7004   35.5706   70.4073 C   0  0  0  0  0  0  0  0  0  0  0  0
   17.6235   34.9220   71.1988 C   0  0  0  0  0  0  0  0  0  0  0  0
   17.0798   33.9682   72.0803 C   0  0  0  0  0  0  0  0  0  0  0  0
   15.7466   33.7151   72.1360 C   0  0  0  0  0  0  0  0  0  0  0  0
 25 26  1  0  0  0
 26 27  2  0  0  0
 26 31  1  0  0  0
 27 28  1  0  0  0
 28 29  2  0  0  0
 29 30  1  0  0  0
 29 21  1  0  0  0
 30 31  2  0  0  0
 21 22  1  0  0  0
 22 23  2  0  0  0
 22 20  1  0  0  0
 20  1  1  0  0  0
  1  2  1  0  0  0
  1  5  1  0  0  0
  2  3  1  0  0  0
  3  4  1  0  0  0
  4  5  2  0  0  0
  4  9  1  0  0  0
  5  6  1  0  0  0
  6  7  2  0  0  0
  6  8  1  0  0  0
  8  9  1  0  0  0
  8 13  1  0  0  0
  9 10  2  0  0  0
 13 14  2  0  0  0
 13 18  1  0  0  0
 14 15  1  0  0  0
 15 16  2  0  0  0
 16 17  1  0  0  0
 16 19  1  0  0  0
 17 18  2  0  0  0
 21 24  1  0  0  0
  2 11  1  0  0  0
  3 12  1  0  0  0
M  END
> <minimizedAffinity>
-9.33628

$$$$
385


 32 35  0  0  0  0  0  0  0  0999 V2000
   15.7623   33.1268   70.5749 C   0  0  0  0  0  0  0  0  0  0  0  0
   14.3811   33.6275   70.2730 C   0  0  0  0  0  0  0  0  0  0  0  0
   13.3447   33.1575   71.2009 C   0  0  0  0  0  0  0  0  0  0  0  0
   12.3574   33.9124   71.4148 O   0  0  0  0  0  0  0  0  0  0  0  0
   13.4689   31.8938   71.8286 N   0  0  0  0  0  0  0  0  0  0  0  0
   14.7138   31.2281   71.8361 C   0  0  0  0  0  0  0  0  0  0  0  0
   14.8072   30.0011   72.4370 N   0  0  0  0  0  0  0  0  0  0  0  0
   15.9487   29.3104   72.4691 C   0  0  0  0  0  0  0  0  0  0  0  0
   17.0235   29.8585   71.8881 N   0  0  0  0  0  0  0  0  0  0  0  0
   16.9853   31.0788   71.2774 C   0  0  0  0  0  0  0  0  0  0  0  0
   15.8169   31.8130   71.2296 C   0  0  0  0  0  0  0  0  0  0  0  0
   18.1591   31.6246   70.6844 N   0  0  0  0  0  0  0  0  0  0  0  0
   12.6441   31.4223   72.3011 H   0  0  0  0  0  0  0  0  0  0  0  0
   18.1430   32.4064   70.0227 H   0  0  0  0  0  0  0  0  0  0  0  0
   19.0889   31.2000   70.9329 H   0  0  0  0  0  0  0  0  0  0  0  0
   16.0233   28.0173   73.1124 N   0  0  0  0  0  0  0  0  0  0  0  0
   15.0008   27.6990   74.0467 C   0  0  0  0  0  0  0  0  0  0  0  0
   14.8633   26.2323   74.3369 C   0  0  0  0  0  0  0  0  0  0  0  0
   15.7125   25.4539   73.5580 O   0  0  0  0  0  0  0  0  0  0  0  0
   17.0245   25.9046   73.6141 C   0  0  0  0  0  0  0  0  0  0  0  0
   17.1219   27.1420   72.7595 C   0  0  0  0  0  0  0  0  0  0  0  0
   17.5305   34.8050   71.0406 N   0  0  0  0  0  0  0  0  0  0  0  0
   16.4106   34.2276   71.4420 C   0  0  0  0  0  0  0  0  0  0  0  0
   15.6953   34.4175   72.5044 O   0  0  0  0  0  0  0  0  0  0  0  0
   17.6312   35.4496   72.2364 H   0  0  0  0  0  0  0  0  0  0  0  0
   22.9252   36.9538   69.1685 Br  0  0  0  0  0  0  0  0  0  0  0  0
   21.2143   36.3217   69.7669 C   0  0  0  0  0  0  0  0  0  0  0  0
   21.1034   35.1641   70.4960 C   0  0  0  0  0  0  0  0  0  0  0  0
   19.9077   34.7077   70.9180 C   0  0  0  0  0  0  0  0  0  0  0  0
   18.6927   35.4053   70.6258 C   0  0  0  0  0  0  0  0  0  0  0  0
   18.8490   36.5612   69.8928 C   0  0  0  0  0  0  0  0  0  0  0  0
   20.0685   37.0251   69.4656 C   0  0  0  0  0  0  0  0  0  0  0  0
 26 27  1  0  0  0
 27 28  2  0  0  0
 27 32  1  0  0  0
 28 29  1  0  0  0
 29 30  2  0  0  0
 30 31  1  0  0  0
 30 22  1  0  0  0
 31 32  2  0  0  0
 22 23  1  0  0  0
 23 24  2  0  0  0
 23  1  1  0  0  0
  1  2  1  0  0  0
  1 11  1  0  0  0
  2  3  1  0  0  0
  3  4  2  0  0  0
  3  5  1  0  0  0
  5  6  1  0  0  0
  6  7  2  0  0  0
  6 11  1  0  0  0
  7  8  1  0  0  0
  8  9  2  0  0  0
  8 16  1  0  0  0
  9 10  1  0  0  0
 10 11  2  0  0  0
 10 12  1  0  0  0
 16 17  1  0  0  0
 16 21  1  0  0  0
 17 18  1  0  0  0
 18 19  1  0  0  0
 19 20  1  0  0  0
 20 21  1  0  0  0
 22 25  1  0  0  0
  5 13  1  0  0  0
 12 14  1  0  0  0
 12 15  1  0  0  0
M  END
> <minimizedAffinity>
-9.14571

$$$$
386


 36 39  0  0  0  0  0  0  0  0999 V2000
   20.5050   33.6693   70.9962 C   0  0  0  0  0  0  0  0  0  0  0  0
   21.1671   32.4952   71.6928 C   0  0  0  0  0  0  0  0  0  0  0  0
   21.8124   31.6472   70.6453 C   0  0  0  0  0  0  0  0  0  0  0  0
   21.6364   30.4423   70.6222 O   0  0  0  0  0  0  0  0  0  0  0  0
   22.6192   32.3135   69.7117 N   0  0  0  0  0  0  0  0  0  0  0  0
   22.4597   33.6979   69.4740 C   0  0  0  0  0  0  0  0  0  0  0  0
   23.2920   34.3698   68.6530 N   0  0  0  0  0  0  0  0  0  0  0  0
   23.2723   35.6863   68.4427 C   0  0  0  0  0  0  0  0  0  0  0  0
   22.3197   36.3644   69.1340 N   0  0  0  0  0  0  0  0  0  0  0  0
   21.4462   35.7542   69.9755 C   0  0  0  0  0  0  0  0  0  0  0  0
   21.4646   34.4092   70.1857 C   0  0  0  0  0  0  0  0  0  0  0  0
   20.5025   36.5259   70.6483 O   0  0  0  0  0  0  0  0  0  0  0  0
   23.3727   31.8270   69.1553 H   0  0  0  0  0  0  0  0  0  0  0  0
   20.7459   37.1128   71.4434 H   0  0  0  0  0  0  0  0  0  0  0  0
   24.1243   36.3602   67.5367 N   0  0  0  0  0  0  0  0  0  0  0  0
   25.5351   36.5977   67.6992 C   0  0  0  0  0  0  0  0  0  0  0  0
   26.2079   36.4314   66.3400 C   0  0  0  0  0  0  0  0  0  0  0  0
   25.4814   35.4545   65.4629 C   0  0  0  0  0  0  0  0  0  0  0  0
   24.0800   35.8851   65.2073 C   0  0  0  0  0  0  0  0  0  0  0  0
   23.5614   36.8694   66.2809 C   0  0  0  0  0  0  0  0  0  0  0  0
   25.5765   34.0682   65.9786 C   0  0  0  0  0  0  0  0  0  0  0  0
   26.7111   33.6306   66.2592 O   0  0  0  0  0  0  0  0  0  0  0  0
   24.4626   33.2194   66.1637 N   0  0  0  0  0  0  0  0  0  0  0  0
   23.5392   33.5682   66.4797 H   0  0  0  0  0  0  0  0  0  0  0  0
   24.5740   32.2015   65.9739 H   0  0  0  0  0  0  0  0  0  0  0  0
   18.2604   34.6317   71.4552 N   0  0  0  0  0  0  0  0  0  0  0  0
   19.5307   34.4080   71.8437 C   0  0  0  0  0  0  0  0  0  0  0  0
   20.1051   34.7651   72.9607 O   0  0  0  0  0  0  0  0  0  0  0  0
   17.9734   35.1542   72.6634 H   0  0  0  0  0  0  0  0  0  0  0  0
   12.5641   35.1157   69.5073 Br  0  0  0  0  0  0  0  0  0  0  0  0
   14.3481   35.0366   70.1348 C   0  0  0  0  0  0  0  0  0  0  0  0
   14.9141   33.8128   70.4465 C   0  0  0  0  0  0  0  0  0  0  0  0
   16.1828   33.6726   70.9008 C   0  0  0  0  0  0  0  0  0  0  0  0
   16.9659   34.8609   71.0601 C   0  0  0  0  0  0  0  0  0  0  0  0
   16.3744   36.0600   70.7416 C   0  0  0  0  0  0  0  0  0  0  0  0
   15.0821   36.1787   70.2811 C   0  0  0  0  0  0  0  0  0  0  0  0
 30 31  1  0  0  0
 31 32  2  0  0  0
 31 36  1  0  0  0
 32 33  1  0  0  0
 33 34  2  0  0  0
 34 35  1  0  0  0
 34 26  1  0  0  0
 35 36  2  0  0  0
 26 27  1  0  0  0
 27 28  2  0  0  0
 27  1  1  0  0  0
  1  2  1  0  0  0
  1 11  1  0  0  0
  2  3  1  0  0  0
  3  4  2  0  0  0
  3  5  1  0  0  0
  5  6  1  0  0  0
  6  7  2  0  0  0
  6 11  1  0  0  0
  7  8  1  0  0  0
  8  9  2  0  0  0
  8 15  1  0  0  0
  9 10  1  0  0  0
 10 11  2  0  0  0
 10 12  1  0  0  0
 15 16  1  0  0  0
 15 20  1  0  0  0
 16 17  1  0  0  0
 17 18  1  0  0  0
 18 19  1  0  0  0
 18 21  1  0  0  0
 19 20  1  0  0  0
 21 22  2  0  0  0
 21 23  1  0  0  0
 26 29  1  0  0  0
  5 13  1  0  0  0
 12 14  1  0  0  0
 23 24  1  0  0  0
 23 25  1  0  0  0
M  END
> <minimizedAffinity>
-9.30951

$$$$
393


 27 30  0  0  0  0  0  0  0  0999 V2000
   18.9573   36.1461   70.0492 N   0  0  0  0  0  0  0  0  0  0  0  0
   17.9279   36.9469   69.9276 N   0  0  0  0  0  0  0  0  0  0  0  0
   16.8119   36.4406   70.4889 C   0  0  0  0  0  0  0  0  0  0  0  0
   17.1708   35.2251   71.0036 C   0  0  0  0  0  0  0  0  0  0  0  0
   18.5100   35.0630   70.7181 C   0  0  0  0  0  0  0  0  0  0  0  0
   16.2782   34.3131   71.7082 C   0  0  0  0  0  0  0  0  0  0  0  0
   16.5080   34.1365   72.9288 O   0  0  0  0  0  0  0  0  0  0  0  0
   15.2006   33.6436   71.0889 N   0  0  0  0  0  0  0  0  0  0  0  0
   14.3765   32.7608   71.8788 C   0  0  0  0  0  0  0  0  0  0  0  0
   13.0089   33.3682   71.9765 C   0  0  0  0  0  0  0  0  0  0  0  0
   12.7545   34.3281   70.9085 N   0  0  0  0  0  0  0  0  0  0  0  0
   13.4556   34.3000   69.6700 C   0  0  0  0  0  0  0  0  0  0  0  0
   12.8972   34.7190   68.6267 O   0  0  0  0  0  0  0  0  0  0  0  0
   14.8367   33.7642   69.6955 C   0  0  0  0  0  0  0  0  0  0  0  0
   12.0121   35.0698   71.0835 H   0  0  0  0  0  0  0  0  0  0  0  0
   24.6319   37.2415   67.9150 Br  0  0  0  0  0  0  0  0  0  0  0  0
   22.8711   36.9027   68.5798 C   0  0  0  0  0  0  0  0  0  0  0  0
   21.9217   36.3087   67.7751 C   0  0  0  0  0  0  0  0  0  0  0  0
   20.6559   36.0712   68.2715 C   0  0  0  0  0  0  0  0  0  0  0  0
   20.2757   36.4028   69.5584 C   0  0  0  0  0  0  0  0  0  0  0  0
   21.2388   36.9965   70.3536 C   0  0  0  0  0  0  0  0  0  0  0  0
   22.5092   37.2398   69.8712 C   0  0  0  0  0  0  0  0  0  0  0  0
   19.3242   33.9217   71.0702 N   0  0  0  0  0  0  0  0  0  0  0  0
   19.5015   32.7976   70.3922 C   0  0  0  0  0  0  0  0  0  0  0  0
   20.3550   31.9562   71.0676 C   0  0  0  0  0  0  0  0  0  0  0  0
   20.6985   32.6310   72.2148 C   0  0  0  0  0  0  0  0  0  0  0  0
   20.0505   33.8459   72.1972 C   0  0  0  0  0  0  0  0  0  0  0  0
 16 17  1  0  0  0
 17 18  2  0  0  0
 17 22  1  0  0  0
 18 19  1  0  0  0
 19 20  2  0  0  0
 20 21  1  0  0  0
 20  1  1  0  0  0
 21 22  2  0  0  0
  1  2  1  0  0  0
  1  5  1  0  0  0
  2  3  2  0  0  0
  3  4  1  0  0  0
  4  5  2  0  0  0
  4  6  1  0  0  0
  5 23  1  0  0  0
 23 24  1  0  0  0
 23 27  1  0  0  0
 24 25  2  0  0  0
 25 26  1  0  0  0
 26 27  2  0  0  0
  6  7  2  0  0  0
  6  8  1  0  0  0
  8  9  1  0  0  0
  8 14  1  0  0  0
  9 10  1  0  0  0
 10 11  1  0  0  0
 11 12  1  0  0  0
 12 13  2  0  0  0
 12 14  1  0  0  0
 11 15  1  0  0  0
M  END
> <minimizedAffinity>
-7.90088

$$$$
395


 28 31  0  0  0  0  0  0  0  0999 V2000
   14.0292   32.8364   71.3768 N   0  0  0  0  0  0  0  0  0  0  0  0
   12.8098   33.1560   70.9790 N   0  0  0  0  0  0  0  0  0  0  0  0
   12.7529   34.4062   70.5521 N   0  0  0  0  0  0  0  0  0  0  0  0
   13.9896   34.9606   70.6659 C   0  0  0  0  0  0  0  0  0  0  0  0
   14.7683   33.9440   71.1891 C   0  0  0  0  0  0  0  0  0  0  0  0
   16.0591   34.2193   71.4083 N   0  0  0  0  0  0  0  0  0  0  0  0
   16.5625   35.4338   71.1278 C   0  0  0  0  0  0  0  0  0  0  0  0
   15.8077   36.4331   70.6165 N   0  0  0  0  0  0  0  0  0  0  0  0
   14.5106   36.2004   70.3821 C   0  0  0  0  0  0  0  0  0  0  0  0
   13.8098   37.1224   69.9097 O   0  0  0  0  0  0  0  0  0  0  0  0
   15.9588   27.4548   73.6809 Br  0  0  0  0  0  0  0  0  0  0  0  0
   15.3707   29.1266   72.9548 C   0  0  0  0  0  0  0  0  0  0  0  0
   14.2715   29.7818   73.4687 C   0  0  0  0  0  0  0  0  0  0  0  0
   13.8309   30.9930   72.9559 C   0  0  0  0  0  0  0  0  0  0  0  0
   14.4892   31.5881   71.9004 C   0  0  0  0  0  0  0  0  0  0  0  0
   15.5889   30.9264   71.3914 C   0  0  0  0  0  0  0  0  0  0  0  0
   16.0289   29.7218   71.8993 C   0  0  0  0  0  0  0  0  0  0  0  0
   16.4413   37.7106   70.3480 C   0  0  0  0  0  0  0  0  0  0  0  0
   17.1270   37.6782   69.0059 C   0  0  0  0  0  0  0  0  0  0  0  0
   16.4664   37.8323   67.9441 O   0  0  0  0  0  0  0  0  0  0  0  0
   18.5238   37.4742   68.9101 N   0  0  0  0  0  0  0  0  0  0  0  0
   19.1912   37.4402   67.6306 C   0  0  0  0  0  0  0  0  0  0  0  0
   20.1450   36.2583   67.6621 C   0  0  0  0  0  0  0  0  0  0  0  0
   21.0219   36.2885   68.7154 O   0  0  0  0  0  0  0  0  0  0  0  0
   20.7630   37.2540   69.6569 C   0  0  0  0  0  0  0  0  0  0  0  0
   19.3159   37.2918   70.1041 C   0  0  0  0  0  0  0  0  0  0  0  0
   21.6600   37.1757   70.8570 C   0  0  0  0  0  0  0  0  0  0  0  0
   20.9792   36.3517   66.3801 C   0  0  0  0  0  0  0  0  0  0  0  0
 11 12  1  0  0  0
 12 13  2  0  0  0
 12 17  1  0  0  0
 13 14  1  0  0  0
 14 15  2  0  0  0
 15 16  1  0  0  0
 15  1  1  0  0  0
 16 17  2  0  0  0
  1  2  1  0  0  0
  1  5  1  0  0  0
  2  3  2  0  0  0
  3  4  1  0  0  0
  4  5  2  0  0  0
  4  9  1  0  0  0
  5  6  1  0  0  0
  6  7  2  0  0  0
  7  8  1  0  0  0
  8  9  1  0  0  0
  8 18  1  0  0  0
  9 10  2  0  0  0
 18 19  1  0  0  0
 19 20  2  0  0  0
 19 21  1  0  0  0
 21 22  1  0  0  0
 21 26  1  0  0  0
 22 23  1  0  0  0
 23 24  1  0  0  0
 23 28  1  0  0  0
 24 25  1  0  0  0
 25 26  1  0  0  0
 25 27  1  0  0  0
M  END
> <minimizedAffinity>
-9.11935

$$$$
399


 28 31  0  0  0  0  0  0  0  0999 V2000
   19.2334   31.4177   72.2247 N   0  0  0  0  0  0  0  0  0  0  0  0
   19.6774   31.9766   70.9933 C   0  0  0  0  0  0  0  0  0  0  0  0
   18.9449   32.2160   70.0096 O   0  0  0  0  0  0  0  0  0  0  0  0
   21.1237   32.2412   71.0181 C   0  0  0  0  0  0  0  0  0  0  0  0
   21.6061   31.2706   72.0900 C   0  0  0  0  0  0  0  0  0  0  0  0
   20.4230   31.1855   73.0037 C   0  0  0  0  0  0  0  0  0  0  0  0
   20.5642   30.9480   74.2177 O   0  0  0  0  0  0  0  0  0  0  0  0
   13.4766   30.2076   74.0776 Br  0  0  0  0  0  0  0  0  0  0  0  0
   15.2657   30.5764   73.5029 C   0  0  0  0  0  0  0  0  0  0  0  0
   16.1901   29.5800   73.3472 C   0  0  0  0  0  0  0  0  0  0  0  0
   17.4956   29.8563   72.9277 C   0  0  0  0  0  0  0  0  0  0  0  0
   17.9010   31.1307   72.6550 C   0  0  0  0  0  0  0  0  0  0  0  0
   16.9823   32.1285   72.8095 C   0  0  0  0  0  0  0  0  0  0  0  0
   15.6703   31.8630   73.2308 C   0  0  0  0  0  0  0  0  0  0  0  0
   21.4968   33.5945   71.3621 N   0  0  0  0  0  0  0  0  0  0  0  0
   22.3514   34.1998   70.3690 C   0  0  0  0  0  0  0  0  0  0  0  0
   21.6288   35.0899   69.3826 C   0  0  0  0  0  0  0  0  0  0  0  0
   20.6240   35.8901   70.0350 N   0  0  0  0  0  0  0  0  0  0  0  0
   20.6814   35.8611   71.4776 C   0  0  0  0  0  0  0  0  0  0  0  0
   20.4174   34.3855   71.8320 C   0  0  0  0  0  0  0  0  0  0  0  0
   22.1500   33.4651   72.2075 H   0  0  0  0  0  0  0  0  0  0  0  0
   19.6495   36.6275   69.3546 C   0  0  0  0  0  0  0  0  0  0  0  0
   18.3999   36.9478   69.8457 C   0  0  0  0  0  0  0  0  0  0  0  0
   17.4614   37.6618   69.1183 C   0  0  0  0  0  0  0  0  0  0  0  0
   17.7533   38.0846   67.8493 C   0  0  0  0  0  0  0  0  0  0  0  0
   18.9887   37.7911   67.3080 C   0  0  0  0  0  0  0  0  0  0  0  0
   19.9091   37.0771   68.0543 C   0  0  0  0  0  0  0  0  0  0  0  0
   16.8543   38.8069   67.0639 O   0  0  0  0  0  0  0  0  0  0  0  0
  8  9  1  0  0  0
  9 10  2  0  0  0
  9 14  1  0  0  0
 10 11  1  0  0  0
 11 12  2  0  0  0
 12 13  1  0  0  0
 12  1  1  0  0  0
 13 14  2  0  0  0
  1  2  1  0  0  0
  1  6  1  0  0  0
  2  3  2  0  0  0
  2  4  1  0  0  0
  4  5  1  0  0  0
  4 15  1  0  0  0
  5  6  1  0  0  0
  6  7  2  0  0  0
 15 16  1  0  0  0
 15 20  1  0  0  0
 16 17  1  0  0  0
 17 18  1  0  0  0
 18 19  1  0  0  0
 18 22  1  0  0  0
 19 20  1  0  0  0
 22 23  2  0  0  0
 22 27  1  0  0  0
 23 24  1  0  0  0
 24 25  2  0  0  0
 25 26  1  0  0  0
 25 28  1  0  0  0
 26 27  2  0  0  0
 15 21  1  0  0  0
M  CHG 1  15   1
M  CHG 1  28  -1
M  END
> <minimizedAffinity>
-8.42092

$$$$
400


 31 34  0  0  0  0  0  0  0  0999 V2000
   21.4973   36.3240   69.1630 N   0  0  0  0  0  0  0  0  0  0  0  0
   22.8179   36.7840   69.3198 C   0  0  0  0  0  0  0  0  0  0  0  0
   23.6970   36.1216   68.2506 C   0  0  0  0  0  0  0  0  0  0  0  0
   23.3311   36.6058   66.8652 C   0  0  0  0  0  0  0  0  0  0  0  0
   21.8637   36.7040   66.7468 C   0  0  0  0  0  0  0  0  0  0  0  0
   21.1544   35.9499   67.8433 C   0  0  0  0  0  0  0  0  0  0  0  0
   18.7496   35.4571   70.6977 N   0  0  0  0  0  0  0  0  0  0  0  0
   20.0733   35.9076   71.0048 C   0  0  0  0  0  0  0  0  0  0  0  0
   20.7935   35.5670   71.9745 O   0  0  0  0  0  0  0  0  0  0  0  0
   20.4742   36.8779   69.9534 C   0  0  0  0  0  0  0  0  0  0  0  0
   19.2190   37.2290   69.1863 C   0  0  0  0  0  0  0  0  0  0  0  0
   18.1616   36.5134   69.9491 C   0  0  0  0  0  0  0  0  0  0  0  0
   16.9099   36.7881   69.9462 O   0  0  0  0  0  0  0  0  0  0  0  0
   16.2478   30.0459   72.2794 Br  0  0  0  0  0  0  0  0  0  0  0  0
   17.0252   31.7219   71.7858 C   0  0  0  0  0  0  0  0  0  0  0  0
   17.9326   31.8332   70.7580 C   0  0  0  0  0  0  0  0  0  0  0  0
   18.4977   33.0642   70.4029 C   0  0  0  0  0  0  0  0  0  0  0  0
   18.1612   34.2093   71.0743 C   0  0  0  0  0  0  0  0  0  0  0  0
   17.2528   34.0866   72.1019 C   0  0  0  0  0  0  0  0  0  0  0  0
   16.6867   32.8739   72.4617 C   0  0  0  0  0  0  0  0  0  0  0  0
   24.0692   37.7686   66.5915 N   0  0  0  0  0  0  0  0  0  0  0  0
   23.4014   38.8881   66.0742 C   0  0  0  0  0  0  0  0  0  0  0  0
   24.1247   39.2741   64.7720 C   0  0  0  0  0  0  0  0  0  0  0  0
   25.5123   39.7170   65.1896 C   0  0  0  0  0  0  0  0  0  0  0  0
   25.8840   39.2865   66.5694 C   0  0  0  0  0  0  0  0  0  0  0  0
   25.4136   37.8613   66.8967 C   0  0  0  0  0  0  0  0  0  0  0  0
   23.8095   35.5286   65.9275 C   0  0  0  0  0  0  0  0  0  0  0  0
   23.7933   35.7290   64.6757 O   0  0  0  0  0  0  0  0  0  0  0  0
   24.2878   34.2752   66.3775 N   0  0  0  0  0  0  0  0  0  0  0  0
   23.7912   33.4161   66.1124 H   0  0  0  0  0  0  0  0  0  0  0  0
   25.1364   34.2095   66.9716 H   0  0  0  0  0  0  0  0  0  0  0  0
 14 15  1  0  0  0
 15 16  2  0  0  0
 15 20  1  0  0  0
 16 17  1  0  0  0
 17 18  2  0  0  0
 18 19  1  0  0  0
 18  7  1  0  0  0
 19 20  2  0  0  0
  7  8  1  0  0  0
  7 12  1  0  0  0
  8  9  2  0  0  0
  8 10  1  0  0  0
 10 11  1  0  0  0
 10  1  1  0  0  0
 11 12  1  0  0  0
 12 13  2  0  0  0
  1  2  1  0  0  0
  1  6  1  0  0  0
  2  3  1  0  0  0
  3  4  1  0  0  0
  4  5  1  0  0  0
  4 21  1  0  0  0
  4 27  1  0  0  0
  5  6  1  0  0  0
 21 22  1  0  0  0
 21 26  1  0  0  0
 22 23  1  0  0  0
 23 24  1  0  0  0
 24 25  1  0  0  0
 25 26  1  0  0  0
 27 28  2  0  0  0
 27 29  1  0  0  0
 29 30  1  0  0  0
 29 31  1  0  0  0
M  END
> <minimizedAffinity>
-8.43240

$$$$
408


 31 34  0  0  0  0  0  0  0  0999 V2000
   22.8665   36.8533   66.9775 N   0  0  0  0  0  0  0  0  0  0  0  0
   22.3948   36.5308   68.1937 C   0  0  0  0  0  0  0  0  0  0  0  0
   21.9545   37.3815   69.0267 O   0  0  0  0  0  0  0  0  0  0  0  0
   22.4574   35.1534   68.4057 C   0  0  0  0  0  0  0  0  0  0  0  0
   22.9767   34.6475   67.2909 C   0  0  0  0  0  0  0  0  0  0  0  0
   23.0279   33.3225   67.5170 N   0  0  0  0  0  0  0  0  0  0  0  0
   22.5565   33.0429   68.7210 N   0  0  0  0  0  0  0  0  0  0  0  0
   22.1994   34.1732   69.2807 N   0  0  0  0  0  0  0  0  0  0  0  0
   23.2307   35.6805   66.4111 C   0  0  0  0  0  0  0  0  0  0  0  0
   23.7189   35.5920   65.2631 O   0  0  0  0  0  0  0  0  0  0  0  0
   23.4024   32.6589   66.7921 H   0  0  0  0  0  0  0  0  0  0  0  0
   22.5044   32.0701   69.1019 H   0  0  0  0  0  0  0  0  0  0  0  0
   23.2011   42.4873   64.4986 Br  0  0  0  0  0  0  0  0  0  0  0  0
   23.1067   40.7314   65.2695 C   0  0  0  0  0  0  0  0  0  0  0  0
   21.9018   40.1930   65.6674 C   0  0  0  0  0  0  0  0  0  0  0  0
   21.8313   38.9295   66.2227 C   0  0  0  0  0  0  0  0  0  0  0  0
   22.9638   38.1537   66.4029 C   0  0  0  0  0  0  0  0  0  0  0  0
   24.1596   38.7116   65.9980 C   0  0  0  0  0  0  0  0  0  0  0  0
   24.2395   39.9686   65.4439 C   0  0  0  0  0  0  0  0  0  0  0  0
   21.6324   34.3577   70.5924 C   0  0  0  0  0  0  0  0  0  0  0  0
   20.1350   34.2555   70.5738 C   0  0  0  0  0  0  0  0  0  0  0  0
   19.6934   33.2140   70.0326 O   0  0  0  0  0  0  0  0  0  0  0  0
   19.3068   35.2417   71.1156 N   0  0  0  0  0  0  0  0  0  0  0  0
   19.8328   36.0754   71.5445 H   0  0  0  0  0  0  0  0  0  0  0  0
   17.9074   35.2481   71.1519 C   0  0  0  0  0  0  0  0  0  0  0  0
   17.2494   36.2008   70.3570 C   0  0  0  0  0  0  0  0  0  0  0  0
   15.8782   36.2428   70.3618 C   0  0  0  0  0  0  0  0  0  0  0  0
   15.1052   35.3856   71.1161 C   0  0  0  0  0  0  0  0  0  0  0  0
   15.7369   34.4585   71.8908 C   0  0  0  0  0  0  0  0  0  0  0  0
   17.1152   34.4073   71.8945 C   0  0  0  0  0  0  0  0  0  0  0  0
   18.0013   37.1551   69.5192 C   0  0  0  0  0  0  0  0  0  0  0  0
 13 14  1  0  0  0
 14 15  2  0  0  0
 14 19  1  0  0  0
 15 16  1  0  0  0
 16 17  2  0  0  0
 17 18  1  0  0  0
 17  1  1  0  0  0
 18 19  2  0  0  0
  1  2  1  0  0  0
  1  9  1  0  0  0
  2  3  2  0  0  0
  2  4  1  0  0  0
  4  5  2  0  0  0
  4  8  1  0  0  0
  5  6  1  0  0  0
  5  9  1  0  0  0
  6  7  1  0  0  0
  7  8  1  0  0  0
  8 20  1  0  0  0
 20 21  1  0  0  0
 21 22  2  0  0  0
 21 23  1  0  0  0
 23 25  1  0  0  0
 25 26  2  0  0  0
 25 30  1  0  0  0
 26 27  1  0  0  0
 26 31  1  0  0  0
 27 28  2  0  0  0
 28 29  1  0  0  0
 29 30  2  0  0  0
  9 10  2  0  0  0
  6 11  1  0  0  0
  7 12  1  0  0  0
 23 24  1  0  0  0
M  END
> <minimizedAffinity>
-9.42825

$$$$
411


 34 37  0  0  0  0  0  0  0  0999 V2000
   22.9221   36.8766   66.8270 N   0  0  0  0  0  0  0  0  0  0  0  0
   22.5148   36.4923   68.0476 C   0  0  0  0  0  0  0  0  0  0  0  0
   22.1182   37.3111   68.9160 O   0  0  0  0  0  0  0  0  0  0  0  0
   22.5955   35.1173   68.1923 C   0  0  0  0  0  0  0  0  0  0  0  0
   23.0605   34.6588   67.0373 C   0  0  0  0  0  0  0  0  0  0  0  0
   23.1391   33.3266   67.1781 N   0  0  0  0  0  0  0  0  0  0  0  0
   22.7329   32.9813   68.3867 N   0  0  0  0  0  0  0  0  0  0  0  0
   22.3936   34.0686   69.0262 N   0  0  0  0  0  0  0  0  0  0  0  0
   23.2641   35.7318   66.1950 C   0  0  0  0  0  0  0  0  0  0  0  0
   23.7060   35.6589   65.0006 O   0  0  0  0  0  0  0  0  0  0  0  0
   23.4646   32.6399   66.4691 H   0  0  0  0  0  0  0  0  0  0  0  0
   22.6803   32.0000   68.7930 H   0  0  0  0  0  0  0  0  0  0  0  0
   23.1368   42.5264   64.3798 Br  0  0  0  0  0  0  0  0  0  0  0  0
   23.0854   40.7686   65.1381 C   0  0  0  0  0  0  0  0  0  0  0  0
   24.2250   39.9945   65.2330 C   0  0  0  0  0  0  0  0  0  0  0  0
   24.1821   38.7179   65.7855 C   0  0  0  0  0  0  0  0  0  0  0  0
   23.0035   38.1774   66.2562 C   0  0  0  0  0  0  0  0  0  0  0  0
   21.8699   38.9540   66.1586 C   0  0  0  0  0  0  0  0  0  0  0  0
   21.9104   40.2203   65.6121 C   0  0  0  0  0  0  0  0  0  0  0  0
   21.8923   34.1784   70.3754 C   0  0  0  0  0  0  0  0  0  0  0  0
   20.3954   34.3799   70.3322 C   0  0  0  0  0  0  0  0  0  0  0  0
   19.6529   33.3944   70.1260 O   0  0  0  0  0  0  0  0  0  0  0  0
   19.8519   35.6588   70.5219 N   0  0  0  0  0  0  0  0  0  0  0  0
   20.5479   36.4554   70.6942 H   0  0  0  0  0  0  0  0  0  0  0  0
   18.4808   35.9831   70.5123 C   0  0  0  0  0  0  0  0  0  0  0  0
   17.4733   35.2406   71.0745 C   0  0  0  0  0  0  0  0  0  0  0  0
   16.1443   35.6054   71.0153 C   0  0  0  0  0  0  0  0  0  0  0  0
   15.8216   36.7742   70.3583 C   0  0  0  0  0  0  0  0  0  0  0  0
   16.8091   37.5534   69.7777 C   0  0  0  0  0  0  0  0  0  0  0  0
   18.1210   37.1713   69.8476 C   0  0  0  0  0  0  0  0  0  0  0  0
   14.4860   37.1610   70.2874 O   0  0  0  0  0  0  0  0  0  0  0  0
   13.6759   36.6549   69.2451 C   0  0  0  0  0  0  0  0  0  0  0  0
   15.1427   34.8307   71.5962 O   0  0  0  0  0  0  0  0  0  0  0  0
   15.2202   33.4097   71.4236 C   0  0  0  0  0  0  0  0  0  0  0  0
 13 14  1  0  0  0
 14 15  2  0  0  0
 14 19  1  0  0  0
 15 16  1  0  0  0
 16 17  2  0  0  0
 17 18  1  0  0  0
 17  1  1  0  0  0
 18 19  2  0  0  0
  1  2  1  0  0  0
  1  9  1  0  0  0
  2  3  2  0  0  0
  2  4  1  0  0  0
  4  5  2  0  0  0
  4  8  1  0  0  0
  5  6  1  0  0  0
  5  9  1  0  0  0
  6  7  1  0  0  0
  7  8  1  0  0  0
  8 20  1  0  0  0
 20 21  1  0  0  0
 21 22  2  0  0  0
 21 23  1  0  0  0
 23 25  1  0  0  0
 25 26  2  0  0  0
 25 30  1  0  0  0
 26 27  1  0  0  0
 27 28  2  0  0  0
 27 33  1  0  0  0
 28 29  1  0  0  0
 28 31  1  0  0  0
 29 30  2  0  0  0
 31 32  1  0  0  0
 33 34  1  0  0  0
  9 10  2  0  0  0
  6 11  1  0  0  0
  7 12  1  0  0  0
 23 24  1  0  0  0
M  END
> <minimizedAffinity>
-9.18543

$$$$
412


 34 37  0  0  0  0  0  0  0  0999 V2000
   23.1792   36.8246   66.5307 N   0  0  0  0  0  0  0  0  0  0  0  0
   22.7534   36.3805   67.7158 C   0  0  0  0  0  0  0  0  0  0  0  0
   22.2402   37.1257   68.6159 O   0  0  0  0  0  0  0  0  0  0  0  0
   22.9223   35.0260   67.8863 C   0  0  0  0  0  0  0  0  0  0  0  0
   23.4852   34.6192   66.7321 C   0  0  0  0  0  0  0  0  0  0  0  0
   23.6622   33.2833   66.8732 N   0  0  0  0  0  0  0  0  0  0  0  0
   23.2269   32.8902   68.0570 N   0  0  0  0  0  0  0  0  0  0  0  0
   22.7712   33.9562   68.6826 N   0  0  0  0  0  0  0  0  0  0  0  0
   23.6468   35.7027   65.9004 C   0  0  0  0  0  0  0  0  0  0  0  0
   24.1333   35.7339   64.7443 O   0  0  0  0  0  0  0  0  0  0  0  0
   24.0880   32.6747   66.1356 H   0  0  0  0  0  0  0  0  0  0  0  0
   23.2691   31.8870   68.3813 H   0  0  0  0  0  0  0  0  0  0  0  0
   23.1152   42.5309   64.1886 Br  0  0  0  0  0  0  0  0  0  0  0  0
   23.1424   40.7476   64.9214 C   0  0  0  0  0  0  0  0  0  0  0  0
   24.2524   39.9466   64.8002 C   0  0  0  0  0  0  0  0  0  0  0  0
   24.2688   38.6477   65.3320 C   0  0  0  0  0  0  0  0  0  0  0  0
   23.1705   38.1480   65.9880 C   0  0  0  0  0  0  0  0  0  0  0  0
   22.0701   38.9710   66.0976 C   0  0  0  0  0  0  0  0  0  0  0  0
   22.0437   40.2442   65.5791 C   0  0  0  0  0  0  0  0  0  0  0  0
   22.2061   33.9501   70.0010 C   0  0  0  0  0  0  0  0  0  0  0  0
   20.7680   34.2053   70.0279 C   0  0  0  0  0  0  0  0  0  0  0  0
   19.9137   33.3185   69.7359 O   0  0  0  0  0  0  0  0  0  0  0  0
   20.3269   35.4979   70.3897 N   0  0  0  0  0  0  0  0  0  0  0  0
   21.0294   36.2622   70.6336 H   0  0  0  0  0  0  0  0  0  0  0  0
   18.9343   35.7637   70.4212 C   0  0  0  0  0  0  0  0  0  0  0  0
   18.5005   36.8488   69.7005 C   0  0  0  0  0  0  0  0  0  0  0  0
   17.1443   37.1965   69.7043 C   0  0  0  0  0  0  0  0  0  0  0  0
   16.2520   36.4526   70.4302 C   0  0  0  0  0  0  0  0  0  0  0  0
   16.6773   35.3495   71.1671 C   0  0  0  0  0  0  0  0  0  0  0  0
   18.0262   35.0309   71.1409 C   0  0  0  0  0  0  0  0  0  0  0  0
   15.7235   34.6511   71.8770 O   0  0  0  0  0  0  0  0  0  0  0  0
   14.3629   34.5566   71.5904 C   0  0  0  0  0  0  0  0  0  0  0  0
   16.8224   38.2967   68.9462 O   0  0  0  0  0  0  0  0  0  0  0  0
   17.3056   38.5425   67.6766 C   0  0  0  0  0  0  0  0  0  0  0  0
 13 14  1  0  0  0
 14 15  2  0  0  0
 14 19  1  0  0  0
 15 16  1  0  0  0
 16 17  2  0  0  0
 17 18  1  0  0  0
 17  1  1  0  0  0
 18 19  2  0  0  0
  1  2  1  0  0  0
  1  9  1  0  0  0
  2  3  2  0  0  0
  2  4  1  0  0  0
  4  5  2  0  0  0
  4  8  1  0  0  0
  5  6  1  0  0  0
  5  9  1  0  0  0
  6  7  1  0  0  0
  7  8  1  0  0  0
  8 20  1  0  0  0
 20 21  1  0  0  0
 21 22  2  0  0  0
 21 23  1  0  0  0
 23 25  1  0  0  0
 25 26  2  0  0  0
 25 30  1  0  0  0
 26 27  1  0  0  0
 27 28  2  0  0  0
 27 33  1  0  0  0
 28 29  1  0  0  0
 29 30  2  0  0  0
 29 31  1  0  0  0
 31 32  1  0  0  0
 33 34  1  0  0  0
  9 10  2  0  0  0
  6 11  1  0  0  0
  7 12  1  0  0  0
 23 24  1  0  0  0
M  END
> <minimizedAffinity>
-9.20308

$$$$
414


 35 38  0  0  0  0  0  0  0  0999 V2000
   23.2753   36.7436   66.6275 N   0  0  0  0  0  0  0  0  0  0  0  0
   22.8761   36.3833   67.8736 C   0  0  0  0  0  0  0  0  0  0  0  0
   22.4572   37.1667   68.7818 O   0  0  0  0  0  0  0  0  0  0  0  0
   22.9924   35.0118   68.0192 C   0  0  0  0  0  0  0  0  0  0  0  0
   23.4604   34.5671   66.8554 C   0  0  0  0  0  0  0  0  0  0  0  0
   23.5841   33.2230   66.9718 N   0  0  0  0  0  0  0  0  0  0  0  0
   23.1880   32.8917   68.1971 N   0  0  0  0  0  0  0  0  0  0  0  0
   22.8182   33.9646   68.8695 N   0  0  0  0  0  0  0  0  0  0  0  0
   23.6393   35.6212   65.9914 C   0  0  0  0  0  0  0  0  0  0  0  0
   24.0636   35.5706   64.8159 O   0  0  0  0  0  0  0  0  0  0  0  0
   23.9266   32.5805   66.2291 H   0  0  0  0  0  0  0  0  0  0  0  0
   23.1755   31.9246   68.5653 H   0  0  0  0  0  0  0  0  0  0  0  0
   23.1924   42.5348   64.6213 Br  0  0  0  0  0  0  0  0  0  0  0  0
   23.1945   40.7392   65.2474 C   0  0  0  0  0  0  0  0  0  0  0  0
   22.0587   40.0925   65.6871 C   0  0  0  0  0  0  0  0  0  0  0  0
   22.0927   38.8071   66.1299 C   0  0  0  0  0  0  0  0  0  0  0  0
   23.2785   38.0893   66.1570 C   0  0  0  0  0  0  0  0  0  0  0  0
   24.4157   38.7205   65.7223 C   0  0  0  0  0  0  0  0  0  0  0  0
   24.3654   40.0147   65.2800 C   0  0  0  0  0  0  0  0  0  0  0  0
   22.3182   34.0723   70.2350 C   0  0  0  0  0  0  0  0  0  0  0  0
   20.8185   34.2380   70.1988 C   0  0  0  0  0  0  0  0  0  0  0  0
   20.2199   33.1572   69.9723 O   0  0  0  0  0  0  0  0  0  0  0  0
   20.2524   35.4945   70.4055 N   0  0  0  0  0  0  0  0  0  0  0  0
   20.9457   36.2889   70.5832 H   0  0  0  0  0  0  0  0  0  0  0  0
   18.8746   35.8252   70.4050 C   0  0  0  0  0  0  0  0  0  0  0  0
   17.8844   35.0955   71.0186 C   0  0  0  0  0  0  0  0  0  0  0  0
   16.5400   35.4899   70.9719 C   0  0  0  0  0  0  0  0  0  0  0  0
   16.1516   36.6290   70.3080 C   0  0  0  0  0  0  0  0  0  0  0  0
   17.1331   37.3661   69.6917 C   0  0  0  0  0  0  0  0  0  0  0  0
   18.4574   36.9753   69.7387 C   0  0  0  0  0  0  0  0  0  0  0  0
   14.7409   37.0007   70.2860 C   0  0  0  0  0  0  0  0  0  0  0  0
   14.3535   37.9013   71.0720 O   0  0  0  0  0  0  0  0  0  0  0  0
   13.8053   36.4342   69.4662 O   0  0  0  0  0  0  0  0  0  0  0  0
   12.8661   35.4629   69.8278 C   0  0  0  0  0  0  0  0  0  0  0  0
   13.4335   34.1139   69.3641 C   0  0  0  0  0  0  0  0  0  0  0  0
 13 14  1  0  0  0
 14 15  2  0  0  0
 14 19  1  0  0  0
 15 16  1  0  0  0
 16 17  2  0  0  0
 17 18  1  0  0  0
 17  1  1  0  0  0
 18 19  2  0  0  0
  1  2  1  0  0  0
  1  9  1  0  0  0
  2  3  2  0  0  0
  2  4  1  0  0  0
  4  5  2  0  0  0
  4  8  1  0  0  0
  5  6  1  0  0  0
  5  9  1  0  0  0
  6  7  1  0  0  0
  7  8  1  0  0  0
  8 20  1  0  0  0
 20 21  1  0  0  0
 21 22  2  0  0  0
 21 23  1  0  0  0
 23 25  1  0  0  0
 25 26  2  0  0  0
 25 30  1  0  0  0
 26 27  1  0  0  0
 27 28  2  0  0  0
 28 29  1  0  0  0
 28 31  1  0  0  0
 29 30  2  0  0  0
 31 32  2  0  0  0
 31 33  1  0  0  0
 33 34  1  0  0  0
 34 35  1  0  0  0
  9 10  2  0  0  0
  6 11  1  0  0  0
  7 12  1  0  0  0
 23 24  1  0  0  0
M  END
> <minimizedAffinity>
-9.61978

$$$$
416


 33 36  0  0  0  0  0  0  0  0999 V2000
   23.0233   36.8354   66.6041 N   0  0  0  0  0  0  0  0  0  0  0  0
   22.5870   36.4220   67.8268 C   0  0  0  0  0  0  0  0  0  0  0  0
   22.0863   37.1893   68.6835 O   0  0  0  0  0  0  0  0  0  0  0  0
   22.7726   35.0654   67.9829 C   0  0  0  0  0  0  0  0  0  0  0  0
   23.3241   34.6434   66.8544 C   0  0  0  0  0  0  0  0  0  0  0  0
   23.5188   33.3179   66.9783 N   0  0  0  0  0  0  0  0  0  0  0  0
   23.0856   32.9499   68.1754 N   0  0  0  0  0  0  0  0  0  0  0  0
   22.6194   34.0022   68.8211 N   0  0  0  0  0  0  0  0  0  0  0  0
   23.4770   35.7214   66.0122 C   0  0  0  0  0  0  0  0  0  0  0  0
   23.9701   35.7057   64.8405 O   0  0  0  0  0  0  0  0  0  0  0  0
   23.9270   32.6683   66.2841 H   0  0  0  0  0  0  0  0  0  0  0  0
   23.1132   31.9560   68.5473 H   0  0  0  0  0  0  0  0  0  0  0  0
   23.1150   42.5291   64.2329 Br  0  0  0  0  0  0  0  0  0  0  0  0
   23.0610   40.7733   64.9787 C   0  0  0  0  0  0  0  0  0  0  0  0
   21.9322   40.2692   65.5898 C   0  0  0  0  0  0  0  0  0  0  0  0
   21.9090   38.9898   66.1240 C   0  0  0  0  0  0  0  0  0  0  0  0
   23.0078   38.1571   66.0724 C   0  0  0  0  0  0  0  0  0  0  0  0
   24.1422   38.6597   65.4608 C   0  0  0  0  0  0  0  0  0  0  0  0
   24.1663   39.9329   64.9296 C   0  0  0  0  0  0  0  0  0  0  0  0
   22.0683   34.0582   70.1435 C   0  0  0  0  0  0  0  0  0  0  0  0
   20.5665   34.2207   70.1614 C   0  0  0  0  0  0  0  0  0  0  0  0
   19.9073   33.1679   70.0209 O   0  0  0  0  0  0  0  0  0  0  0  0
   19.9622   35.4651   70.3282 N   0  0  0  0  0  0  0  0  0  0  0  0
   20.6439   36.2962   70.4319 H   0  0  0  0  0  0  0  0  0  0  0  0
   18.6013   35.8112   70.3808 C   0  0  0  0  0  0  0  0  0  0  0  0
   18.1537   36.9813   69.7673 C   0  0  0  0  0  0  0  0  0  0  0  0
   16.8404   37.3658   69.8091 C   0  0  0  0  0  0  0  0  0  0  0  0
   15.8986   36.5839   70.4795 C   0  0  0  0  0  0  0  0  0  0  0  0
   16.3703   35.4378   71.0720 C   0  0  0  0  0  0  0  0  0  0  0  0
   17.6881   35.0457   71.0317 C   0  0  0  0  0  0  0  0  0  0  0  0
   14.5907   37.0096   70.5002 O   0  0  0  0  0  0  0  0  0  0  0  0
   13.6248   36.7849   69.5253 C   0  0  0  0  0  0  0  0  0  0  0  0
   13.0784   35.3985   69.5066 C   0  0  0  0  0  0  0  0  0  0  0  0
 13 14  1  0  0  0
 14 15  2  0  0  0
 14 19  1  0  0  0
 15 16  1  0  0  0
 16 17  2  0  0  0
 17 18  1  0  0  0
 17  1  1  0  0  0
 18 19  2  0  0  0
  1  2  1  0  0  0
  1  9  1  0  0  0
  2  3  2  0  0  0
  2  4  1  0  0  0
  4  5  2  0  0  0
  4  8  1  0  0  0
  5  6  1  0  0  0
  5  9  1  0  0  0
  6  7  1  0  0  0
  7  8  1  0  0  0
  8 20  1  0  0  0
 20 21  1  0  0  0
 21 22  2  0  0  0
 21 23  1  0  0  0
 23 25  1  0  0  0
 25 26  2  0  0  0
 25 30  1  0  0  0
 26 27  1  0  0  0
 27 28  2  0  0  0
 28 29  1  0  0  0
 28 31  1  0  0  0
 29 30  2  0  0  0
 31 32  1  0  0  0
 32 33  1  0  0  0
  9 10  2  0  0  0
  6 11  1  0  0  0
  7 12  1  0  0  0
 23 24  1  0  0  0
M  END
> <minimizedAffinity>
-9.42989

$$$$
421


 28 31  0  0  0  0  0  0  0  0999 V2000
   16.0798   34.1652   71.2935 N   0  0  0  0  0  0  0  0  0  0  0  0
   17.2581   34.6253   70.8181 C   0  0  0  0  0  0  0  0  0  0  0  0
   18.3545   33.9875   70.7143 O   0  0  0  0  0  0  0  0  0  0  0  0
   17.1487   35.9479   70.4297 C   0  0  0  0  0  0  0  0  0  0  0  0
   15.8797   36.2785   70.6792 C   0  0  0  0  0  0  0  0  0  0  0  0
   15.7691   37.5742   70.2988 N   0  0  0  0  0  0  0  0  0  0  0  0
   16.9421   37.9801   69.8422 N   0  0  0  0  0  0  0  0  0  0  0  0
   17.8187   36.9921   69.9109 N   0  0  0  0  0  0  0  0  0  0  0  0
   15.2169   35.1920   71.2092 C   0  0  0  0  0  0  0  0  0  0  0  0
   14.0158   35.1153   71.5687 O   0  0  0  0  0  0  0  0  0  0  0  0
   14.8831   38.1397   70.3673 H   0  0  0  0  0  0  0  0  0  0  0  0
   17.1885   38.9345   69.4712 H   0  0  0  0  0  0  0  0  0  0  0  0
   15.0667   28.5049   73.5132 Br  0  0  0  0  0  0  0  0  0  0  0  0
   15.3682   30.2574   72.8035 C   0  0  0  0  0  0  0  0  0  0  0  0
   14.8583   30.6410   71.5802 C   0  0  0  0  0  0  0  0  0  0  0  0
   15.0862   31.9187   71.0765 C   0  0  0  0  0  0  0  0  0  0  0  0
   15.8276   32.8418   71.7837 C   0  0  0  0  0  0  0  0  0  0  0  0
   16.3312   32.4444   73.0052 C   0  0  0  0  0  0  0  0  0  0  0  0
   16.1109   31.1780   73.5132 C   0  0  0  0  0  0  0  0  0  0  0  0
   19.1943   37.0357   69.5124 C   0  0  0  0  0  0  0  0  0  0  0  0
   20.2080   37.0036   70.4479 C   0  0  0  0  0  0  0  0  0  0  0  0
   21.5503   37.0435   70.0923 C   0  0  0  0  0  0  0  0  0  0  0  0
   21.9100   37.1180   68.7635 C   0  0  0  0  0  0  0  0  0  0  0  0
   20.8994   37.1502   67.8267 C   0  0  0  0  0  0  0  0  0  0  0  0
   19.5609   37.1096   68.1849 C   0  0  0  0  0  0  0  0  0  0  0  0
   23.2783   37.1606   68.3675 N   0  0  0  0  0  0  0  0  0  0  0  0
   23.6220   37.1839   67.1708 O   0  0  0  0  0  0  0  0  0  0  0  0
   24.2456   37.1759   69.3216 O   0  0  0  0  0  0  0  0  0  0  0  0
 13 14  1  0  0  0
 14 15  2  0  0  0
 14 19  1  0  0  0
 15 16  1  0  0  0
 16 17  2  0  0  0
 17 18  1  0  0  0
 17  1  1  0  0  0
 18 19  2  0  0  0
  1  2  1  0  0  0
  1  9  1  0  0  0
  2  3  2  0  0  0
  2  4  1  0  0  0
  4  5  2  0  0  0
  4  8  1  0  0  0
  5  6  1  0  0  0
  5  9  1  0  0  0
  6  7  1  0  0  0
  7  8  1  0  0  0
  8 20  1  0  0  0
 20 21  2  0  0  0
 20 25  1  0  0  0
 21 22  1  0  0  0
 22 23  2  0  0  0
 23 24  1  0  0  0
 23 26  1  0  0  0
 24 25  2  0  0  0
 26 27  2  0  0  0
 26 28  1  0  0  0
  9 10  2  0  0  0
  6 11  1  0  0  0
  7 12  1  0  0  0
M  CHG 1  28  -1
M  END
> <minimizedAffinity>
-8.46461

$$$$
425


 24 28  0  0  0  0  0  0  0  0999 V2000
   19.7220   36.5318   70.0270 N   0  0  0  0  0  0  0  0  0  0  0  0
   20.0853   37.2161   68.8382 C   0  0  0  0  0  0  0  0  0  0  0  0
   19.2677   37.7820   68.0733 O   0  0  0  0  0  0  0  0  0  0  0  0
   21.5613   37.1451   68.6678 C   0  0  0  0  0  0  0  0  0  0  0  0
   21.9758   36.0025   67.7929 C   0  0  0  0  0  0  0  0  0  0  0  0
   23.2293   35.6866   68.3624 O   0  0  0  0  0  0  0  0  0  0  0  0
   22.7545   35.3895   69.6647 C   0  0  0  0  0  0  0  0  0  0  0  0
   22.0844   36.6707   70.0244 C   0  0  0  0  0  0  0  0  0  0  0  0
   20.8783   36.4077   70.8545 C   0  0  0  0  0  0  0  0  0  0  0  0
   20.8982   36.1305   72.0567 O   0  0  0  0  0  0  0  0  0  0  0  0
   21.7089   34.3916   69.3189 C   0  0  0  0  0  0  0  0  0  0  0  0
   21.1847   34.8224   68.1754 C   0  0  0  0  0  0  0  0  0  0  0  0
   14.0714   34.5364   71.1271 Br  0  0  0  0  0  0  0  0  0  0  0  0
   15.8268   35.1665   70.7814 C   0  0  0  0  0  0  0  0  0  0  0  0
   16.0168   36.4797   70.4254 C   0  0  0  0  0  0  0  0  0  0  0  0
   17.3022   36.9103   70.1814 C   0  0  0  0  0  0  0  0  0  0  0  0
   18.3892   36.0703   70.2814 C   0  0  0  0  0  0  0  0  0  0  0  0
   18.1988   34.7433   70.6418 C   0  0  0  0  0  0  0  0  0  0  0  0
   16.8944   34.3108   70.8893 C   0  0  0  0  0  0  0  0  0  0  0  0
   22.0575   36.2989   66.3573 C   0  0  0  0  0  0  0  0  0  0  0  0
   23.1313   35.7283   65.7306 O   0  0  0  0  0  0  0  0  0  0  0  0
   24.0126   36.7186   65.3751 C   0  0  0  0  0  0  0  0  0  0  0  0
   23.4043   38.0065   65.8238 C   0  0  0  0  0  0  0  0  0  0  0  0
   22.0893   37.6599   66.1127 O   0  0  0  0  0  0  0  0  0  0  0  0
 13 14  1  0  0  0
 14 15  2  0  0  0
 14 19  1  0  0  0
 15 16  1  0  0  0
 16 17  2  0  0  0
 17 18  1  0  0  0
 17  1  1  0  0  0
 18 19  2  0  0  0
  1  2  1  0  0  0
  1  9  1  0  0  0
  2  3  2  0  0  0
  2  4  1  0  0  0
  4  5  1  0  0  0
  4  8  1  0  0  0
  5  6  1  0  0  0
  5 12  1  0  0  0
  5 20  1  0  0  0
  6  7  1  0  0  0
  7  8  1  0  0  0
  7 11  1  0  0  0
  8  9  1  0  0  0
  9 10  2  0  0  0
 11 12  2  0  0  0
 20 21  1  0  0  0
 20 24  1  0  0  0
 21 22  1  0  0  0
 22 23  1  0  0  0
 23 24  1  0  0  0
M  END
> <minimizedAffinity>
-8.44416

$$$$
426


 29 32  0  0  0  0  0  0  0  0999 V2000
   19.0704   33.2523   71.1624 N   0  0  0  0  0  0  0  0  0  0  0  0
   19.5761   32.6215   72.3549 C   0  0  0  0  0  0  0  0  0  0  0  0
   20.4024   33.1209   73.1703 O   0  0  0  0  0  0  0  0  0  0  0  0
   18.9418   31.2858   72.4353 C   0  0  0  0  0  0  0  0  0  0  0  0
   18.6726   30.8302   73.7850 N   0  0  0  0  0  0  0  0  0  0  0  0
   17.4383   30.1518   73.5413 N   0  0  0  0  0  0  0  0  0  0  0  0
   16.6605   30.9355   72.6362 C   0  0  0  0  0  0  0  0  0  0  0  0
   17.5543   31.6382   71.9493 C   0  0  0  0  0  0  0  0  0  0  0  0
   17.8033   32.6323   70.9126 C   0  0  0  0  0  0  0  0  0  0  0  0
   16.9735   32.8413   69.9848 O   0  0  0  0  0  0  0  0  0  0  0  0
   18.3949   31.7016   74.3184 H   0  0  0  0  0  0  0  0  0  0  0  0
   17.1454   29.2429   73.9492 H   0  0  0  0  0  0  0  0  0  0  0  0
   21.8199   37.5094   67.6967 Br  0  0  0  0  0  0  0  0  0  0  0  0
   20.9428   36.1891   68.7935 C   0  0  0  0  0  0  0  0  0  0  0  0
   21.3788   34.8890   68.7670 C   0  0  0  0  0  0  0  0  0  0  0  0
   20.7482   33.9727   69.5456 C   0  0  0  0  0  0  0  0  0  0  0  0
   19.6673   34.2693   70.3848 C   0  0  0  0  0  0  0  0  0  0  0  0
   19.2514   35.5734   70.3938 C   0  0  0  0  0  0  0  0  0  0  0  0
   19.8787   36.5228   69.6091 C   0  0  0  0  0  0  0  0  0  0  0  0
   15.2103   30.9652   72.4822 C   0  0  0  0  0  0  0  0  0  0  0  0
   14.5302   29.9137   72.4325 O   0  0  0  0  0  0  0  0  0  0  0  0
   14.5026   32.1540   72.3820 O   0  0  0  0  0  0  0  0  0  0  0  0
   13.5687   32.3813   71.3355 C   0  0  0  0  0  0  0  0  0  0  0  0
   13.7162   33.7898   70.8376 C   0  0  0  0  0  0  0  0  0  0  0  0
   14.6049   34.6664   71.4577 C   0  0  0  0  0  0  0  0  0  0  0  0
   14.7733   35.9565   71.0324 C   0  0  0  0  0  0  0  0  0  0  0  0
   14.0314   36.4101   69.9450 C   0  0  0  0  0  0  0  0  0  0  0  0
   13.1539   35.5406   69.3357 C   0  0  0  0  0  0  0  0  0  0  0  0
   12.9911   34.2255   69.7771 C   0  0  0  0  0  0  0  0  0  0  0  0
 13 14  1  0  0  0
 14 15  2  0  0  0
 14 19  1  0  0  0
 15 16  1  0  0  0
 16 17  2  0  0  0
 17 18  1  0  0  0
 17  1  1  0  0  0
 18 19  2  0  0  0
  1  2  1  0  0  0
  1  9  1  0  0  0
  2  3  2  0  0  0
  2  4  1  0  0  0
  4  5  1  0  0  0
  4  8  1  0  0  0
  5  6  1  0  0  0
  6  7  1  0  0  0
  7  8  2  0  0  0
  7 20  1  0  0  0
  8  9  1  0  0  0
  9 10  2  0  0  0
 20 21  2  0  0  0
 20 22  1  0  0  0
 22 23  1  0  0  0
 23 24  1  0  0  0
 24 25  2  0  0  0
 24 29  1  0  0  0
 25 26  1  0  0  0
 26 27  2  0  0  0
 27 28  1  0  0  0
 28 29  2  0  0  0
  5 11  1  0  0  0
  6 12  1  0  0  0
M  END
> <minimizedAffinity>
-8.62019

$$$$
428


 28 31  0  0  0  0  0  0  0  0999 V2000
   20.3323   34.0334   70.5000 N   0  0  0  0  0  0  0  0  0  0  0  0
   21.2504   33.4252   71.4273 C   0  0  0  0  0  0  0  0  0  0  0  0
   22.4837   33.6762   71.3355 O   0  0  0  0  0  0  0  0  0  0  0  0
   20.7041   32.5679   72.4037 N   0  0  0  0  0  0  0  0  0  0  0  0
   19.4692   32.3021   72.5154 C   0  0  0  0  0  0  0  0  0  0  0  0
   18.3815   32.8318   71.6562 C   0  0  0  0  0  0  0  0  0  0  0  0
   17.6248   31.6761   71.0983 C   0  0  0  0  0  0  0  0  0  0  0  0
   16.2581   31.8888   70.7865 N   0  0  0  0  0  0  0  0  0  0  0  0
   15.8220   33.2290   70.8044 C   0  0  0  0  0  0  0  0  0  0  0  0
   16.3831   34.1456   71.7022 C   0  0  0  0  0  0  0  0  0  0  0  0
   15.9473   35.4407   71.7047 C   0  0  0  0  0  0  0  0  0  0  0  0
   14.9691   35.9186   70.8628 C   0  0  0  0  0  0  0  0  0  0  0  0
   14.4199   35.0124   69.9800 C   0  0  0  0  0  0  0  0  0  0  0  0
   14.8411   33.6895   69.9536 C   0  0  0  0  0  0  0  0  0  0  0  0
   14.5238   37.3315   70.8939 C   0  0  0  0  0  0  0  0  0  0  0  0
   17.4351   33.5892   72.5920 C   0  0  0  0  0  0  0  0  0  0  0  0
   15.3626   31.0472   71.5978 C   0  0  0  0  0  0  0  0  0  0  0  0
   18.9468   33.7317   70.6283 C   0  0  0  0  0  0  0  0  0  0  0  0
   18.1887   34.3012   69.7754 O   0  0  0  0  0  0  0  0  0  0  0  0
   19.0596   31.4247   73.5423 O   0  0  0  0  0  0  0  0  0  0  0  0
   16.1003   31.5411   69.7935 H   0  0  0  0  0  0  0  0  0  0  0  0
   22.3258   38.0441   66.3395 Br  0  0  0  0  0  0  0  0  0  0  0  0
   21.7113   36.7600   67.6088 C   0  0  0  0  0  0  0  0  0  0  0  0
   21.3052   37.1863   68.8448 C   0  0  0  0  0  0  0  0  0  0  0  0
   20.8566   36.2562   69.7745 C   0  0  0  0  0  0  0  0  0  0  0  0
   20.8071   34.9104   69.4894 C   0  0  0  0  0  0  0  0  0  0  0  0
   21.2204   34.5032   68.2401 C   0  0  0  0  0  0  0  0  0  0  0  0
   21.6715   35.4107   67.2959 C   0  0  0  0  0  0  0  0  0  0  0  0
 22 23  1  0  0  0
 23 24  2  0  0  0
 23 28  1  0  0  0
 24 25  1  0  0  0
 25 26  2  0  0  0
 26 27  1  0  0  0
 26  1  1  0  0  0
 27 28  2  0  0  0
  1  2  1  0  0  0
  1 18  1  0  0  0
  2  3  2  0  0  0
  2  4  1  0  0  0
  4  5  2  0  0  0
  5  6  1  0  0  0
  5 20  1  0  0  0
  6  7  1  0  0  0
  6 16  1  0  0  0
  6 18  1  0  0  0
  7  8  1  0  0  0
  8  9  1  0  0  0
  8 17  1  0  0  0
  9 10  2  0  0  0
  9 14  1  0  0  0
 10 11  1  0  0  0
 10 16  1  0  0  0
 11 12  2  0  0  0
 12 13  1  0  0  0
 12 15  1  0  0  0
 13 14  2  0  0  0
 18 19  2  0  0  0
  8 21  1  0  0  0
M  CHG 1   8   1
M  CHG 1  20  -1
M  END
> <minimizedAffinity>
-8.03951

$$$$
429


 36 39  0  0  0  0  0  0  0  0999 V2000
   17.4053   32.6712   71.7831 N   0  0  0  0  0  0  0  0  0  0  0  0
   17.0076   31.8292   72.8669 C   0  0  0  0  0  0  0  0  0  0  0  0
   15.8286   31.9773   73.3219 O   0  0  0  0  0  0  0  0  0  0  0  0
   17.9182   30.8785   73.3890 N   0  0  0  0  0  0  0  0  0  0  0  0
   19.2419   30.6958   72.8959 C   0  0  0  0  0  0  0  0  0  0  0  0
   20.0315   29.8386   73.3819 O   0  0  0  0  0  0  0  0  0  0  0  0
   19.6856   31.5471   71.7776 C   0  0  0  0  0  0  0  0  0  0  0  0
   20.9051   31.4264   71.2760 C   0  0  0  0  0  0  0  0  0  0  0  0
   18.7246   32.5157   71.2623 C   0  0  0  0  0  0  0  0  0  0  0  0
   19.0582   33.2645   70.3083 O   0  0  0  0  0  0  0  0  0  0  0  0
   17.5871   30.2814   74.1821 H   0  0  0  0  0  0  0  0  0  0  0  0
   13.3973   36.6904   69.4779 Br  0  0  0  0  0  0  0  0  0  0  0  0
   14.6565   35.4448   70.2043 C   0  0  0  0  0  0  0  0  0  0  0  0
   14.5488   34.0905   69.9362 C   0  0  0  0  0  0  0  0  0  0  0  0
   15.4626   33.1989   70.4641 C   0  0  0  0  0  0  0  0  0  0  0  0
   16.5052   33.6114   71.2695 C   0  0  0  0  0  0  0  0  0  0  0  0
   16.6261   34.9569   71.5460 C   0  0  0  0  0  0  0  0  0  0  0  0
   15.7048   35.8336   71.0096 C   0  0  0  0  0  0  0  0  0  0  0  0
   21.3036   32.2617   70.1983 N   0  0  0  0  0  0  0  0  0  0  0  0
   20.8306   32.0649   69.2749 H   0  0  0  0  0  0  0  0  0  0  0  0
   22.2397   33.2797   70.2778 N   0  0  0  0  0  0  0  0  0  0  0  0
   22.7512   33.3436   71.2059 H   0  0  0  0  0  0  0  0  0  0  0  0
   22.5287   34.1957   69.2286 C   0  0  0  0  0  0  0  0  0  0  0  0
   22.0509   35.4412   69.1403 N   0  0  0  0  0  0  0  0  0  0  0  0
   22.5266   36.0267   68.0290 C   0  0  0  0  0  0  0  0  0  0  0  0
   23.3412   35.0999   67.3926 C   0  0  0  0  0  0  0  0  0  0  0  0
   23.3062   34.0122   68.1607 N   0  0  0  0  0  0  0  0  0  0  0  0
   23.9710   35.3877   66.2395 N   0  0  0  0  0  0  0  0  0  0  0  0
   23.8049   36.5947   65.6984 C   0  0  0  0  0  0  0  0  0  0  0  0
   24.3816   36.9066   64.6115 O   0  0  0  0  0  0  0  0  0  0  0  0
   23.0220   37.5496   66.2686 N   0  0  0  0  0  0  0  0  0  0  0  0
   22.3922   37.2496   67.4285 C   0  0  0  0  0  0  0  0  0  0  0  0
   21.6718   38.1229   67.9546 O   0  0  0  0  0  0  0  0  0  0  0  0
   22.8762   38.8402   65.6453 C   0  0  0  0  0  0  0  0  0  0  0  0
   24.7947   34.3794   65.6409 C   0  0  0  0  0  0  0  0  0  0  0  0
   21.1490   36.1540   70.0522 C   0  0  0  0  0  0  0  0  0  0  0  0
 12 13  1  0  0  0
 13 14  2  0  0  0
 13 18  1  0  0  0
 14 15  1  0  0  0
 15 16  2  0  0  0
 16 17  1  0  0  0
 16  1  1  0  0  0
 17 18  2  0  0  0
  1  2  1  0  0  0
  1  9  1  0  0  0
  2  3  2  0  0  0
  2  4  1  0  0  0
  4  5  1  0  0  0
  5  6  2  0  0  0
  5  7  1  0  0  0
  7  8  2  0  0  0
  7  9  1  0  0  0
  8 19  1  0  0  0
 19 21  1  0  0  0
 21 23  1  0  0  0
 23 24  1  0  0  0
 23 27  2  0  0  0
 24 25  1  0  0  0
 24 36  1  0  0  0
 25 26  2  0  0  0
 25 32  1  0  0  0
 26 27  1  0  0  0
 26 28  1  0  0  0
 28 29  1  0  0  0
 28 35  1  0  0  0
 29 30  2  0  0  0
 29 31  1  0  0  0
 31 32  1  0  0  0
 31 34  1  0  0  0
 32 33  2  0  0  0
  9 10  2  0  0  0
  4 11  1  0  0  0
 19 20  1  0  0  0
 21 22  1  0  0  0
M  END
> <minimizedAffinity>
-9.66770

$$$$
436


 29 32  0  0  0  0  0  0  0  0999 V2000
   16.8425   35.7645   70.6191 N   0  0  0  0  0  0  0  0  0  0  0  0
   16.1516   37.0369   70.5529 C   0  0  0  0  0  0  0  0  0  0  0  0
   17.0290   38.1595   70.0502 C   0  0  0  0  0  0  0  0  0  0  0  0
   17.7994   37.6125   68.8385 C   0  0  0  0  0  0  0  0  0  0  0  0
   18.7346   36.6666   69.3893 N   0  0  0  0  0  0  0  0  0  0  0  0
   18.2223   35.7587   70.2746 C   0  0  0  0  0  0  0  0  0  0  0  0
   19.2198   34.9603   70.6890 N   0  0  0  0  0  0  0  0  0  0  0  0
   20.3418   35.3821   70.0535 C   0  0  0  0  0  0  0  0  0  0  0  0
   20.0450   36.4578   69.2308 C   0  0  0  0  0  0  0  0  0  0  0  0
   21.0319   37.0627   68.4778 C   0  0  0  0  0  0  0  0  0  0  0  0
   20.7171   38.0505   67.7327 O   0  0  0  0  0  0  0  0  0  0  0  0
   22.2919   36.5978   68.5468 N   0  0  0  0  0  0  0  0  0  0  0  0
   22.5523   35.5533   69.3522 C   0  0  0  0  0  0  0  0  0  0  0  0
   23.7462   35.1496   69.3869 O   0  0  0  0  0  0  0  0  0  0  0  0
   21.6162   34.9544   70.0880 N   0  0  0  0  0  0  0  0  0  0  0  0
   21.9341   33.8255   70.9499 C   0  0  0  0  0  0  0  0  0  0  0  0
   13.9968   30.7580   72.6032 Br  0  0  0  0  0  0  0  0  0  0  0  0
   14.8379   32.3115   71.9433 C   0  0  0  0  0  0  0  0  0  0  0  0
   14.3921   32.9676   70.8152 C   0  0  0  0  0  0  0  0  0  0  0  0
   15.0319   34.1163   70.3465 C   0  0  0  0  0  0  0  0  0  0  0  0
   16.1278   34.6116   71.0153 C   0  0  0  0  0  0  0  0  0  0  0  0
   16.5441   33.9311   72.1365 C   0  0  0  0  0  0  0  0  0  0  0  0
   15.9368   32.8033   72.6189 C   0  0  0  0  0  0  0  0  0  0  0  0
   23.3370   37.2265   67.7577 C   0  0  0  0  0  0  0  0  0  0  0  0
   23.3800   36.5670   66.4111 C   0  0  0  0  0  0  0  0  0  0  0  0
   22.9895   37.1786   65.3894 O   0  0  0  0  0  0  0  0  0  0  0  0
   23.8588   35.2465   66.2536 N   0  0  0  0  0  0  0  0  0  0  0  0
   24.4100   34.9411   65.4197 H   0  0  0  0  0  0  0  0  0  0  0  0
   23.6771   34.5097   66.9793 H   0  0  0  0  0  0  0  0  0  0  0  0
 17 18  1  0  0  0
 18 19  2  0  0  0
 18 23  1  0  0  0
 19 20  1  0  0  0
 20 21  2  0  0  0
 21 22  1  0  0  0
 21  1  1  0  0  0
 22 23  2  0  0  0
  1  2  1  0  0  0
  1  6  1  0  0  0
  2  3  1  0  0  0
  3  4  1  0  0  0
  4  5  1  0  0  0
  5  6  1  0  0  0
  5  9  1  0  0  0
  6  7  2  0  0  0
  7  8  1  0  0  0
  8  9  2  0  0  0
  8 15  1  0  0  0
  9 10  1  0  0  0
 10 11  2  0  0  0
 10 12  1  0  0  0
 12 13  1  0  0  0
 12 24  1  0  0  0
 13 14  2  0  0  0
 13 15  1  0  0  0
 15 16  1  0  0  0
 24 25  1  0  0  0
 25 26  2  0  0  0
 25 27  1  0  0  0
 27 28  1  0  0  0
 27 29  1  0  0  0
M  END
> <minimizedAffinity>
-8.66355

$$$$
439


 28 32  0  0  0  0  0  0  0  0999 V2000
   18.8995   36.5713   69.7698 N   0  0  0  0  0  0  0  0  0  0  0  0
   17.8973   37.4426   69.7252 N   0  0  0  0  0  0  0  0  0  0  0  0
   16.8002   36.9286   70.3112 C   0  0  0  0  0  0  0  0  0  0  0  0
   15.6244   37.5296   70.4420 C   0  0  0  0  0  0  0  0  0  0  0  0
   17.0982   35.6593   70.7629 C   0  0  0  0  0  0  0  0  0  0  0  0
   16.3055   34.7933   71.4003 C   0  0  0  0  0  0  0  0  0  0  0  0
   18.4246   35.4772   70.4013 C   0  0  0  0  0  0  0  0  0  0  0  0
   19.0750   34.4331   70.6366 O   0  0  0  0  0  0  0  0  0  0  0  0
   17.9530   38.3880   69.2969 H   0  0  0  0  0  0  0  0  0  0  0  0
   24.5760   37.2557   67.5169 Br  0  0  0  0  0  0  0  0  0  0  0  0
   22.7905   37.0378   68.1976 C   0  0  0  0  0  0  0  0  0  0  0  0
   21.7334   36.7884   67.3747 C   0  0  0  0  0  0  0  0  0  0  0  0
   20.4550   36.6364   67.9058 C   0  0  0  0  0  0  0  0  0  0  0  0
   20.2187   36.7323   69.2615 C   0  0  0  0  0  0  0  0  0  0  0  0
   21.3110   36.9856   70.0627 C   0  0  0  0  0  0  0  0  0  0  0  0
   22.5841   37.1396   69.5636 C   0  0  0  0  0  0  0  0  0  0  0  0
   16.8542   33.5323   71.7642 N   0  0  0  0  0  0  0  0  0  0  0  0
   17.8738   33.4711   71.9002 H   0  0  0  0  0  0  0  0  0  0  0  0
   16.0380   32.3663   71.9432 C   0  0  0  0  0  0  0  0  0  0  0  0
   16.1653   31.8361   73.3358 C   0  0  0  0  0  0  0  0  0  0  0  0
   15.2502   30.7160   73.5043 N   0  0  0  0  0  0  0  0  0  0  0  0
   13.8986   31.2091   73.2697 C   0  0  0  0  0  0  0  0  0  0  0  0
   13.7240   31.6645   71.9122 N   0  0  0  0  0  0  0  0  0  0  0  0
   14.1059   30.6011   70.9881 C   0  0  0  0  0  0  0  0  0  0  0  0
   15.4663   30.1644   71.2071 N   0  0  0  0  0  0  0  0  0  0  0  0
   15.5925   29.6810   72.5624 C   0  0  0  0  0  0  0  0  0  0  0  0
   16.3859   31.2538   70.9821 C   0  0  0  0  0  0  0  0  0  0  0  0
   14.5909   32.7877   71.6685 C   0  0  0  0  0  0  0  0  0  0  0  0
 10 11  1  0  0  0
 11 12  2  0  0  0
 11 16  1  0  0  0
 12 13  1  0  0  0
 13 14  2  0  0  0
 14 15  1  0  0  0
 14  1  1  0  0  0
 15 16  2  0  0  0
  1  2  1  0  0  0
  1  7  1  0  0  0
  2  3  1  0  0  0
  3  4  2  0  0  0
  3  5  1  0  0  0
  5  6  2  0  0  0
  5  7  1  0  0  0
  6 17  1  0  0  0
 17 19  1  0  0  0
 19 20  1  0  0  0
 19 27  1  0  0  0
 19 28  1  0  0  0
 20 21  1  0  0  0
 21 22  1  0  0  0
 21 26  1  0  0  0
 22 23  1  0  0  0
 23 24  1  0  0  0
 23 28  1  0  0  0
 24 25  1  0  0  0
 25 26  1  0  0  0
 25 27  1  0  0  0
  7  8  2  0  0  0
  2  9  1  0  0  0
 17 18  1  0  0  0
M  END
> <minimizedAffinity>
-8.40731

$$$$
441


 36 39  0  0  0  0  0  0  0  0999 V2000
   20.0031   38.1677   66.5863 C   0  0  0  0  0  0  0  0  0  0  0  0
   20.7036   37.0217   66.6727 N   0  0  0  0  0  0  0  0  0  0  0  0
   22.0058   37.0318   66.4393 C   0  0  0  0  0  0  0  0  0  0  0  0
   22.9030   36.0375   66.4616 N   0  0  0  0  0  0  0  0  0  0  0  0
   24.0879   36.6080   66.1452 C   0  0  0  0  0  0  0  0  0  0  0  0
   23.9266   37.9176   65.9340 N   0  0  0  0  0  0  0  0  0  0  0  0
   22.6417   38.2338   66.1060 C   0  0  0  0  0  0  0  0  0  0  0  0
   21.9287   39.4147   66.0154 C   0  0  0  0  0  0  0  0  0  0  0  0
   20.6179   39.3433   66.2622 N   0  0  0  0  0  0  0  0  0  0  0  0
   22.6096   40.5761   65.6810 O   0  0  0  0  0  0  0  0  0  0  0  0
   23.5201   40.7035   66.1369 H   0  0  0  0  0  0  0  0  0  0  0  0
   22.7616   34.6600   66.7405 C   0  0  0  0  0  0  0  0  0  0  0  0
   21.8041   34.4236   67.7357 O   0  0  0  0  0  0  0  0  0  0  0  0
   22.5841   34.2682   68.8785 C   0  0  0  0  0  0  0  0  0  0  0  0
   23.5862   33.2355   68.3844 C   0  0  0  0  0  0  0  0  0  0  0  0
   23.9760   33.8980   67.0653 C   0  0  0  0  0  0  0  0  0  0  0  0
   24.2587   32.9089   66.0968 O   0  0  0  0  0  0  0  0  0  0  0  0
   24.6417   33.0461   69.2315 O   0  0  0  0  0  0  0  0  0  0  0  0
   25.1544   32.5594   66.3321 H   0  0  0  0  0  0  0  0  0  0  0  0
   24.4110   33.2169   70.1999 H   0  0  0  0  0  0  0  0  0  0  0  0
   21.7918   33.7724   70.0533 C   0  0  0  0  0  0  0  0  0  0  0  0
   22.5395   33.5699   71.1813 O   0  0  0  0  0  0  0  0  0  0  0  0
   22.5467   34.4102   71.7095 H   0  0  0  0  0  0  0  0  0  0  0  0
   18.0373   37.9565   68.0972 C   0  0  0  0  0  0  0  0  0  0  0  0
   18.7708   37.7044   69.0694 O   0  0  0  0  0  0  0  0  0  0  0  0
   18.5980   38.1962   66.8265 N   0  0  0  0  0  0  0  0  0  0  0  0
   17.9729   38.4110   65.9970 H   0  0  0  0  0  0  0  0  0  0  0  0
   16.5738   38.0036   68.2707 C   0  0  0  0  0  0  0  0  0  0  0  0
   16.1736   37.9089   69.6072 O   0  0  0  0  0  0  0  0  0  0  0  0
   13.2837   32.9146   71.5383 Br  0  0  0  0  0  0  0  0  0  0  0  0
   14.1884   34.4933   70.9254 C   0  0  0  0  0  0  0  0  0  0  0  0
   15.5136   34.6883   71.2467 C   0  0  0  0  0  0  0  0  0  0  0  0
   16.1714   35.8378   70.8003 C   0  0  0  0  0  0  0  0  0  0  0  0
   15.5162   36.7794   70.0429 C   0  0  0  0  0  0  0  0  0  0  0  0
   14.1958   36.5664   69.7328 C   0  0  0  0  0  0  0  0  0  0  0  0
   13.5345   35.4405   70.1650 C   0  0  0  0  0  0  0  0  0  0  0  0
 30 31  1  0  0  0
 31 32  2  0  0  0
 31 36  1  0  0  0
 32 33  1  0  0  0
 33 34  2  0  0  0
 34 35  1  0  0  0
 34 29  1  0  0  0
 35 36  2  0  0  0
 29 28  1  0  0  0
 28 24  1  0  0  0
 24 25  2  0  0  0
 24 26  1  0  0  0
 26  1  1  0  0  0
  1  2  2  0  0  0
  1  9  1  0  0  0
  2  3  1  0  0  0
  3  4  1  0  0  0
  3  7  2  0  0  0
  4  5  1  0  0  0
  4 12  1  0  0  0
  5  6  2  0  0  0
  6  7  1  0  0  0
  7  8  1  0  0  0
  8  9  2  0  0  0
  8 10  1  0  0  0
 12 13  1  0  0  0
 12 16  1  0  0  0
 13 14  1  0  0  0
 14 15  1  0  0  0
 14 21  1  0  0  0
 15 16  1  0  0  0
 15 18  1  0  0  0
 16 17  1  0  0  0
 21 22  1  0  0  0
 26 27  1  0  0  0
 10 11  1  0  0  0
 17 19  1  0  0  0
 18 20  1  0  0  0
 22 23  1  0  0  0
M  END
> <minimizedAffinity>
-9.13693

$$$$
444


 33 36  0  0  0  0  0  0  0  0999 V2000
   20.9626   36.2805   68.5944 N   0  0  0  0  0  0  0  0  0  0  0  0
   21.7949   36.4816   67.5468 C   0  0  0  0  0  0  0  0  0  0  0  0
   22.4993   35.3205   67.3235 C   0  0  0  0  0  0  0  0  0  0  0  0
   22.0725   34.4735   68.2371 N   0  0  0  0  0  0  0  0  0  0  0  0
   21.1197   35.0279   69.0504 C   0  0  0  0  0  0  0  0  0  0  0  0
   23.4315   35.1715   66.3375 N   0  0  0  0  0  0  0  0  0  0  0  0
   23.6645   36.2228   65.5501 C   0  0  0  0  0  0  0  0  0  0  0  0
   24.5215   36.1028   64.6333 O   0  0  0  0  0  0  0  0  0  0  0  0
   22.9951   37.3668   65.7445 N   0  0  0  0  0  0  0  0  0  0  0  0
   22.0659   37.5444   66.7125 C   0  0  0  0  0  0  0  0  0  0  0  0
   21.4627   38.6157   66.8696 O   0  0  0  0  0  0  0  0  0  0  0  0
   24.1224   33.8919   66.1738 C   0  0  0  0  0  0  0  0  0  0  0  0
   23.2044   38.1651   65.1099 H   0  0  0  0  0  0  0  0  0  0  0  0
   20.5353   34.3444   70.1758 N   0  0  0  0  0  0  0  0  0  0  0  0
   20.7815   35.0218   71.4681 C   0  0  0  0  0  0  0  0  0  0  0  0
   19.9574   34.5293   72.5879 C   0  0  0  0  0  0  0  0  0  0  0  0
   19.6862   33.1150   72.5238 N   0  0  0  0  0  0  0  0  0  0  0  0
   18.9159   32.9128   71.3377 C   0  0  0  0  0  0  0  0  0  0  0  0
   19.7449   33.1687   70.0794 C   0  0  0  0  0  0  0  0  0  0  0  0
   20.8658   32.3218   72.6327 C   0  0  0  0  0  0  0  0  0  0  0  0
   20.0061   37.2331   69.1151 C   0  0  0  0  0  0  0  0  0  0  0  0
   18.6657   37.2383   68.4401 C   0  0  0  0  0  0  0  0  0  0  0  0
   18.7553   37.6028   67.0892 O   0  0  0  0  0  0  0  0  0  0  0  0
   17.9541   37.2287   66.5987 H   0  0  0  0  0  0  0  0  0  0  0  0
   17.5992   38.0823   69.0627 C   0  0  0  0  0  0  0  0  0  0  0  0
   16.7688   37.4502   69.8650 O   0  0  0  0  0  0  0  0  0  0  0  0
   13.1358   33.0293   71.6429 Br  0  0  0  0  0  0  0  0  0  0  0  0
   14.2839   34.4328   71.0760 C   0  0  0  0  0  0  0  0  0  0  0  0
   13.7704   35.4349   70.2975 C   0  0  0  0  0  0  0  0  0  0  0  0
   14.5994   36.4548   69.8840 C   0  0  0  0  0  0  0  0  0  0  0  0
   15.9356   36.5051   70.2271 C   0  0  0  0  0  0  0  0  0  0  0  0
   16.4354   35.4553   71.0304 C   0  0  0  0  0  0  0  0  0  0  0  0
   15.6163   34.4546   71.4347 C   0  0  0  0  0  0  0  0  0  0  0  0
 27 28  1  0  0  0
 28 29  2  0  0  0
 28 33  1  0  0  0
 29 30  1  0  0  0
 30 31  2  0  0  0
 31 32  1  0  0  0
 31 26  1  0  0  0
 32 33  2  0  0  0
 26 25  1  0  0  0
 25 22  1  0  0  0
 22 23  1  0  0  0
 22 21  1  0  0  0
 21  1  1  0  0  0
  1  2  1  0  0  0
  1  5  1  0  0  0
  2  3  2  0  0  0
  2 10  1  0  0  0
  3  4  1  0  0  0
  3  6  1  0  0  0
  4  5  2  0  0  0
  5 14  1  0  0  0
 14 15  1  0  0  0
 14 19  1  0  0  0
 15 16  1  0  0  0
 16 17  1  0  0  0
 17 18  1  0  0  0
 17 20  1  0  0  0
 18 19  1  0  0  0
  6  7  1  0  0  0
  6 12  1  0  0  0
  7  8  2  0  0  0
  7  9  1  0  0  0
  9 10  1  0  0  0
 10 11  2  0  0  0
 23 24  1  0  0  0
  9 13  1  0  0  0
M  END
> <minimizedAffinity>
-8.74438

$$$$
454


 21 25  0  0  0  0  0  0  0  0999 V2000
   16.5415   32.7398   72.5929 C   0  0  0  0  0  0  0  0  0  0  0  0
   14.4537   30.7207   71.3760 Br  0  0  0  0  0  0  0  0  0  0  0  0
   14.5033   32.6279   71.2327 C   0  0  0  0  0  0  0  0  0  0  0  0
   13.5771   33.2930   70.4509 C   0  0  0  0  0  0  0  0  0  0  0  0
   13.6035   34.6679   70.3327 C   0  0  0  0  0  0  0  0  0  0  0  0
   14.5262   35.4769   70.9527 C   0  0  0  0  0  0  0  0  0  0  0  0
   15.4405   34.8124   71.7234 C   0  0  0  0  0  0  0  0  0  0  0  0
   15.4614   33.4249   71.8820 C   0  0  0  0  0  0  0  0  0  0  0  0
   14.2010   36.7647   70.5584 O   0  0  0  0  0  0  0  0  0  0  0  0
   13.5540   36.6777   69.2585 C   0  0  0  0  0  0  0  0  0  0  0  0
   12.7354   35.5114   69.5740 O   0  0  0  0  0  0  0  0  0  0  0  0
   17.8739   32.9016   72.1848 N   0  0  0  0  0  0  0  0  0  0  0  0
   18.3181   31.4638   72.1000 C   0  0  0  0  0  0  0  0  0  0  0  0
   19.7043   31.2835   71.9999 N   0  0  0  0  0  0  0  0  0  0  0  0
   20.3103   31.9419   73.1440 C   0  0  0  0  0  0  0  0  0  0  0  0
   20.0473   33.3536   73.0127 N   0  0  0  0  0  0  0  0  0  0  0  0
   18.6584   33.6409   73.1723 C   0  0  0  0  0  0  0  0  0  0  0  0
   20.4910   33.9185   71.7330 C   0  0  0  0  0  0  0  0  0  0  0  0
   19.7128   33.2691   70.6906 N   0  0  0  0  0  0  0  0  0  0  0  0
   18.2613   33.4364   70.9168 C   0  0  0  0  0  0  0  0  0  0  0  0
   20.1008   31.8792   70.7188 C   0  0  0  0  0  0  0  0  0  0  0  0
  2  3  1  0  0  0
  3  4  2  0  0  0
  3  8  1  0  0  0
  4  5  1  0  0  0
  5  6  2  0  0  0
  5 11  1  0  0  0
  6  7  1  0  0  0
  6  9  1  0  0  0
  7  8  2  0  0  0
  8  1  1  0  0  0
  1 12  1  0  0  0
 12 13  1  0  0  0
 12 17  1  0  0  0
 12 20  1  0  0  0
 13 14  1  0  0  0
 14 15  1  0  0  0
 14 21  1  0  0  0
 15 16  1  0  0  0
 16 17  1  0  0  0
 16 18  1  0  0  0
 18 19  1  0  0  0
 19 20  1  0  0  0
 19 21  1  0  0  0
  9 10  1  0  0  0
 10 11  1  0  0  0
M  CHG 1  12   1
M  END
> <minimizedAffinity>
-7.71314

$$$$
455


 26 29  0  0  0  0  0  0  0  0999 V2000
   18.8836   32.2427   71.7652 N   0  0  0  0  0  0  0  0  0  0  0  0
   18.8007   33.0480   73.0117 C   0  0  0  0  0  0  0  0  0  0  0  0
   19.7429   34.2146   72.7339 C   0  0  0  0  0  0  0  0  0  0  0  0
   20.5539   34.0380   71.5857 N   0  0  0  0  0  0  0  0  0  0  0  0
   21.2052   32.7548   71.5469 C   0  0  0  0  0  0  0  0  0  0  0  0
   20.2247   31.6629   71.8606 C   0  0  0  0  0  0  0  0  0  0  0  0
   17.8744   31.2024   71.7981 C   0  0  0  0  0  0  0  0  0  0  0  0
   15.6307   29.5424   73.0611 Br  0  0  0  0  0  0  0  0  0  0  0  0
   15.3847   31.1679   72.0887 C   0  0  0  0  0  0  0  0  0  0  0  0
   14.1246   31.6930   71.9161 C   0  0  0  0  0  0  0  0  0  0  0  0
   13.9316   32.8606   71.2204 C   0  0  0  0  0  0  0  0  0  0  0  0
   15.0301   33.4870   70.7037 C   0  0  0  0  0  0  0  0  0  0  0  0
   16.3051   32.9521   70.8803 C   0  0  0  0  0  0  0  0  0  0  0  0
   16.5258   31.7810   71.5751 C   0  0  0  0  0  0  0  0  0  0  0  0
   14.8567   34.6672   69.9982 O   0  0  0  0  0  0  0  0  0  0  0  0
   13.6083   35.1295   69.5514 C   0  0  0  0  0  0  0  0  0  0  0  0
   12.5068   34.7009   70.4672 C   0  0  0  0  0  0  0  0  0  0  0  0
   12.6770   33.4230   71.0255 O   0  0  0  0  0  0  0  0  0  0  0  0
   20.0726   34.5252   70.3490 C   0  0  0  0  0  0  0  0  0  0  0  0
   19.5763   35.8888   70.3404 C   0  0  0  0  0  0  0  0  0  0  0  0
   20.3410   36.8550   70.5450 O   0  0  0  0  0  0  0  0  0  0  0  0
   18.2108   36.1646   70.0981 N   0  0  0  0  0  0  0  0  0  0  0  0
   17.4996   35.3996   69.9135 H   0  0  0  0  0  0  0  0  0  0  0  0
   17.6766   37.5210   70.0824 C   0  0  0  0  0  0  0  0  0  0  0  0
   16.2691   37.7752   70.4285 C   0  0  0  0  0  0  0  0  0  0  0  0
   16.6557   37.7917   68.9806 C   0  0  0  0  0  0  0  0  0  0  0  0
  8  9  1  0  0  0
  9 10  2  0  0  0
  9 14  1  0  0  0
 10 11  1  0  0  0
 11 12  2  0  0  0
 11 18  1  0  0  0
 12 13  1  0  0  0
 12 15  1  0  0  0
 13 14  2  0  0  0
 14  7  1  0  0  0
  7  1  1  0  0  0
  1  2  1  0  0  0
  1  6  1  0  0  0
  2  3  1  0  0  0
  3  4  1  0  0  0
  4  5  1  0  0  0
  4 19  1  0  0  0
  5  6  1  0  0  0
 19 20  1  0  0  0
 20 21  2  0  0  0
 20 22  1  0  0  0
 22 24  1  0  0  0
 24 25  1  0  0  0
 24 26  1  0  0  0
 25 26  1  0  0  0
 15 16  1  0  0  0
 16 17  1  0  0  0
 17 18  1  0  0  0
 22 23  1  0  0  0
M  END
> <minimizedAffinity>
-7.47550

$$$$
459


 29 32  0  0  0  0  0  0  0  0999 V2000
   18.5864   37.2289   69.4624 C   0  0  0  0  0  0  0  0  0  0  0  0
   19.8693   36.9519   69.9540 C   0  0  0  0  0  0  0  0  0  0  0  0
   20.9936   36.9696   69.1605 C   0  0  0  0  0  0  0  0  0  0  0  0
   20.8977   37.2665   67.8186 C   0  0  0  0  0  0  0  0  0  0  0  0
   19.6430   37.5404   67.3173 C   0  0  0  0  0  0  0  0  0  0  0  0
   18.5013   37.5236   68.1201 C   0  0  0  0  0  0  0  0  0  0  0  0
   22.0855   37.2890   66.9613 C   0  0  0  0  0  0  0  0  0  0  0  0
   23.1359   36.4518   66.9569 N   0  0  0  0  0  0  0  0  0  0  0  0
   23.9919   36.8438   66.0076 N   0  0  0  0  0  0  0  0  0  0  0  0
   23.4945   37.9192   65.4144 N   0  0  0  0  0  0  0  0  0  0  0  0
   22.3375   38.1871   65.9957 N   0  0  0  0  0  0  0  0  0  0  0  0
   25.2584   36.2452   65.6408 C   0  0  0  0  0  0  0  0  0  0  0  0
   25.0361   34.9290   65.0034 C   0  0  0  0  0  0  0  0  0  0  0  0
   25.2791   34.7831   63.7947 O   0  0  0  0  0  0  0  0  0  0  0  0
   24.5491   33.8577   65.7828 N   0  0  0  0  0  0  0  0  0  0  0  0
   23.9159   34.0006   66.6180 H   0  0  0  0  0  0  0  0  0  0  0  0
   24.8115   32.8781   65.5429 H   0  0  0  0  0  0  0  0  0  0  0  0
   17.4888   37.1933   70.3044 O   0  0  0  0  0  0  0  0  0  0  0  0
   16.2235   36.7466   69.9187 C   0  0  0  0  0  0  0  0  0  0  0  0
   13.2822   36.1430   69.3840 Br  0  0  0  0  0  0  0  0  0  0  0  0
   14.4422   35.0986   70.4939 C   0  0  0  0  0  0  0  0  0  0  0  0
   14.0032   33.9611   71.1246 C   0  0  0  0  0  0  0  0  0  0  0  0
   14.8534   33.2209   71.9207 C   0  0  0  0  0  0  0  0  0  0  0  0
   16.1582   33.6379   72.0775 C   0  0  0  0  0  0  0  0  0  0  0  0
   16.5958   34.7937   71.4329 C   0  0  0  0  0  0  0  0  0  0  0  0
   15.7627   35.5453   70.6361 C   0  0  0  0  0  0  0  0  0  0  0  0
   16.7742   32.7265   72.9122 O   0  0  0  0  0  0  0  0  0  0  0  0
   15.9738   31.5660   73.0536 C   0  0  0  0  0  0  0  0  0  0  0  0
   14.7055   32.0526   72.6713 O   0  0  0  0  0  0  0  0  0  0  0  0
 20 21  1  0  0  0
 21 22  2  0  0  0
 21 26  1  0  0  0
 22 23  1  0  0  0
 23 24  2  0  0  0
 23 29  1  0  0  0
 24 25  1  0  0  0
 24 27  1  0  0  0
 25 26  2  0  0  0
 26 19  1  0  0  0
 19 18  1  0  0  0
 18  1  1  0  0  0
  1  2  2  0  0  0
  1  6  1  0  0  0
  2  3  1  0  0  0
  3  4  2  0  0  0
  4  5  1  0  0  0
  4  7  1  0  0  0
  5  6  2  0  0  0
  7  8  2  0  0  0
  7 11  1  0  0  0
  8  9  1  0  0  0
  9 10  1  0  0  0
  9 12  1  0  0  0
 10 11  2  0  0  0
 12 13  1  0  0  0
 13 14  2  0  0  0
 13 15  1  0  0  0
 27 28  1  0  0  0
 28 29  1  0  0  0
 15 16  1  0  0  0
 15 17  1  0  0  0
M  END
> <minimizedAffinity>
-8.73612

$$$$
467


 28 31  0  0  0  0  0  0  0  0999 V2000
   17.6353   37.0004   70.0466 N   0  0  0  0  0  0  0  0  0  0  0  0
   17.2058   37.9373   70.2054 H   0  0  0  0  0  0  0  0  0  0  0  0
   18.8779   36.9294   69.3801 C   0  0  0  0  0  0  0  0  0  0  0  0
   19.7412   35.9998   69.8215 N   0  0  0  0  0  0  0  0  0  0  0  0
   20.9609   35.8000   69.2532 C   0  0  0  0  0  0  0  0  0  0  0  0
   21.2571   36.5879   68.2207 N   0  0  0  0  0  0  0  0  0  0  0  0
   20.4476   37.5261   67.7354 C   0  0  0  0  0  0  0  0  0  0  0  0
   19.2343   37.6863   68.3432 N   0  0  0  0  0  0  0  0  0  0  0  0
   21.8025   34.8185   69.7810 N   0  0  0  0  0  0  0  0  0  0  0  0
   21.3679   33.9517   70.8503 C   0  0  0  0  0  0  0  0  0  0  0  0
   22.2685   32.7403   70.9711 C   0  0  0  0  0  0  0  0  0  0  0  0
   22.7858   32.2709   69.8086 O   0  0  0  0  0  0  0  0  0  0  0  0
   23.1708   33.1527   68.8472 C   0  0  0  0  0  0  0  0  0  0  0  0
   23.1335   34.6191   69.2670 C   0  0  0  0  0  0  0  0  0  0  0  0
   20.7853   38.3295   66.6598 O   0  0  0  0  0  0  0  0  0  0  0  0
   22.1284   38.6116   66.3704 C   0  0  0  0  0  0  0  0  0  0  0  0
   15.7229   35.6461   70.4740 C   0  0  0  0  0  0  0  0  0  0  0  0
   16.9653   35.8807   70.4980 N   0  0  0  0  0  0  0  0  0  0  0  0
   12.9379   34.9244   69.3204 Br  0  0  0  0  0  0  0  0  0  0  0  0
   13.9384   33.9404   70.5935 C   0  0  0  0  0  0  0  0  0  0  0  0
   13.4348   32.7621   71.1121 C   0  0  0  0  0  0  0  0  0  0  0  0
   14.1350   32.0045   72.0528 C   0  0  0  0  0  0  0  0  0  0  0  0
   15.3802   32.4737   72.4642 C   0  0  0  0  0  0  0  0  0  0  0  0
   15.8622   33.6520   71.9326 C   0  0  0  0  0  0  0  0  0  0  0  0
   15.1685   34.4129   70.9939 C   0  0  0  0  0  0  0  0  0  0  0  0
   15.8571   31.5635   73.3800 O   0  0  0  0  0  0  0  0  0  0  0  0
   14.8685   30.6074   73.7083 C   0  0  0  0  0  0  0  0  0  0  0  0
   13.8863   30.8210   72.7287 O   0  0  0  0  0  0  0  0  0  0  0  0
 19 20  1  0  0  0
 20 21  2  0  0  0
 20 25  1  0  0  0
 21 22  1  0  0  0
 22 23  2  0  0  0
 22 28  1  0  0  0
 23 24  1  0  0  0
 23 26  1  0  0  0
 24 25  2  0  0  0
 25 17  1  0  0  0
 17 18  2  0  0  0
 18  1  1  0  0  0
  1  3  1  0  0  0
  3  4  2  0  0  0
  3  8  1  0  0  0
  4  5  1  0  0  0
  5  6  2  0  0  0
  5  9  1  0  0  0
  6  7  1  0  0  0
  7  8  2  0  0  0
  7 15  1  0  0  0
 15 16  1  0  0  0
  9 10  1  0  0  0
  9 14  1  0  0  0
 10 11  1  0  0  0
 11 12  1  0  0  0
 12 13  1  0  0  0
 13 14  1  0  0  0
 26 27  1  0  0  0
 27 28  1  0  0  0
  1  2  1  0  0  0
M  END
> <minimizedAffinity>
-8.22394

$$$$
469


 32 36  0  0  0  0  0  0  0  0999 V2000
   20.8711   33.8507   71.5454 C   0  0  0  0  0  0  0  0  0  0  0  0
   19.4298   33.8041   71.6303 N   0  0  0  0  0  0  0  0  0  0  0  0
   18.8805   34.1233   72.8610 C   0  0  0  0  0  0  0  0  0  0  0  0
   17.6000   33.5218   73.2958 C   0  0  0  0  0  0  0  0  0  0  0  0
   16.9136   33.0063   72.1461 N   0  0  0  0  0  0  0  0  0  0  0  0
   17.6914   32.0792   71.3634 C   0  0  0  0  0  0  0  0  0  0  0  0
   18.8247   32.8698   70.7630 C   0  0  0  0  0  0  0  0  0  0  0  0
   15.6059   33.3208   71.7412 C   0  0  0  0  0  0  0  0  0  0  0  0
   14.5306   32.5265   71.9748 N   0  0  0  0  0  0  0  0  0  0  0  0
   13.2891   32.8559   71.5756 C   0  0  0  0  0  0  0  0  0  0  0  0
   13.0533   34.0048   70.9179 N   0  0  0  0  0  0  0  0  0  0  0  0
   14.0619   34.8561   70.6422 C   0  0  0  0  0  0  0  0  0  0  0  0
   14.1180   36.0558   70.0089 N   0  0  0  0  0  0  0  0  0  0  0  0
   15.3850   36.4280   70.0365 N   0  0  0  0  0  0  0  0  0  0  0  0
   16.1534   35.5290   70.6555 C   0  0  0  0  0  0  0  0  0  0  0  0
   15.3226   34.5063   71.0555 C   0  0  0  0  0  0  0  0  0  0  0  0
   12.9814   36.7682   69.4227 C   0  0  0  0  0  0  0  0  0  0  0  0
   21.5014   34.6184   69.2529 N   0  0  0  0  0  0  0  0  0  0  0  0
   21.3369   34.9473   70.6144 C   0  0  0  0  0  0  0  0  0  0  0  0
   21.5418   36.0625   71.1216 O   0  0  0  0  0  0  0  0  0  0  0  0
   21.2847   33.6134   68.9630 H   0  0  0  0  0  0  0  0  0  0  0  0
   23.8906   33.4849   67.8331 Br  0  0  0  0  0  0  0  0  0  0  0  0
   23.0415   35.1428   67.4692 C   0  0  0  0  0  0  0  0  0  0  0  0
   23.4895   35.9827   66.4771 C   0  0  0  0  0  0  0  0  0  0  0  0
   22.8887   37.1721   66.2075 C   0  0  0  0  0  0  0  0  0  0  0  0
   21.7934   37.5605   66.9478 C   0  0  0  0  0  0  0  0  0  0  0  0
   21.3198   36.7221   67.9629 C   0  0  0  0  0  0  0  0  0  0  0  0
   21.9291   35.5105   68.2401 C   0  0  0  0  0  0  0  0  0  0  0  0
   21.2035   38.7643   66.6576 O   0  0  0  0  0  0  0  0  0  0  0  0
   21.8632   39.8386   66.0334 C   0  0  0  0  0  0  0  0  0  0  0  0
   23.1852   39.4602   65.4464 C   0  0  0  0  0  0  0  0  0  0  0  0
   23.3072   38.0502   65.2169 O   0  0  0  0  0  0  0  0  0  0  0  0
 22 23  1  0  0  0
 23 24  2  0  0  0
 23 28  1  0  0  0
 24 25  1  0  0  0
 25 26  2  0  0  0
 25 32  1  0  0  0
 26 27  1  0  0  0
 26 29  1  0  0  0
 27 28  2  0  0  0
 28 18  1  0  0  0
 18 19  1  0  0  0
 19 20  2  0  0  0
 19  1  1  0  0  0
  1  2  1  0  0  0
  2  3  1  0  0  0
  2  7  1  0  0  0
  3  4  1  0  0  0
  4  5  1  0  0  0
  5  6  1  0  0  0
  5  8  1  0  0  0
  6  7  1  0  0  0
  8  9  2  0  0  0
  8 16  1  0  0  0
  9 10  1  0  0  0
 10 11  2  0  0  0
 11 12  1  0  0  0
 12 13  1  0  0  0
 12 16  2  0  0  0
 13 14  1  0  0  0
 13 17  1  0  0  0
 14 15  2  0  0  0
 15 16  1  0  0  0
 29 30  1  0  0  0
 30 31  1  0  0  0
 31 32  1  0  0  0
 18 21  1  0  0  0
M  END
> <minimizedAffinity>
-9.49893

$$$$
471


 27 30  0  0  0  0  0  0  0  0999 V2000
   20.0572   35.0638   71.5131 C   0  0  0  0  0  0  0  0  0  0  0  0
   20.5693   35.6354   72.5188 O   0  0  0  0  0  0  0  0  0  0  0  0
   19.1212   34.0287   71.7091 N   0  0  0  0  0  0  0  0  0  0  0  0
   18.7732   33.6498   73.0548 C   0  0  0  0  0  0  0  0  0  0  0  0
   17.2821   33.6995   73.3127 C   0  0  0  0  0  0  0  0  0  0  0  0
   16.6074   33.4067   72.1035 N   0  0  0  0  0  0  0  0  0  0  0  0
   17.3134   32.5022   71.2841 C   0  0  0  0  0  0  0  0  0  0  0  0
   18.4672   33.3001   70.6492 C   0  0  0  0  0  0  0  0  0  0  0  0
   24.9110   34.4961   65.6198 Br  0  0  0  0  0  0  0  0  0  0  0  0
   23.3904   35.2837   66.4596 C   0  0  0  0  0  0  0  0  0  0  0  0
   22.9891   34.8639   67.7164 C   0  0  0  0  0  0  0  0  0  0  0  0
   21.8874   35.4180   68.3521 C   0  0  0  0  0  0  0  0  0  0  0  0
   21.2198   36.4091   67.6589 C   0  0  0  0  0  0  0  0  0  0  0  0
   21.5949   36.8442   66.4116 C   0  0  0  0  0  0  0  0  0  0  0  0
   22.6900   36.2790   65.8047 C   0  0  0  0  0  0  0  0  0  0  0  0
   20.1203   36.9646   68.2877 C   0  0  0  0  0  0  0  0  0  0  0  0
   19.4584   37.8841   67.7024 O   0  0  0  0  0  0  0  0  0  0  0  0
   19.7662   36.5076   69.5395 C   0  0  0  0  0  0  0  0  0  0  0  0
   20.4735   35.5171   70.1801 C   0  0  0  0  0  0  0  0  0  0  0  0
   21.5051   35.0234   69.5420 O   0  0  0  0  0  0  0  0  0  0  0  0
   15.9210   34.4635   71.4763 C   0  0  0  0  0  0  0  0  0  0  0  0
   14.5005   34.2362   71.2254 C   0  0  0  0  0  0  0  0  0  0  0  0
   13.7929   33.1786   71.6547 N   0  0  0  0  0  0  0  0  0  0  0  0
   12.5868   33.3319   71.2380 O   0  0  0  0  0  0  0  0  0  0  0  0
   12.4554   34.4401   70.5525 N   0  0  0  0  0  0  0  0  0  0  0  0
   13.6597   35.0517   70.5194 C   0  0  0  0  0  0  0  0  0  0  0  0
   13.9916   36.3448   69.8495 C   0  0  0  0  0  0  0  0  0  0  0  0
  9 10  1  0  0  0
 10 11  2  0  0  0
 10 15  1  0  0  0
 11 12  1  0  0  0
 12 13  2  0  0  0
 12 20  1  0  0  0
 13 14  1  0  0  0
 13 16  1  0  0  0
 14 15  2  0  0  0
 16 17  2  0  0  0
 16 18  1  0  0  0
 18 19  2  0  0  0
 19 20  1  0  0  0
 19  1  1  0  0  0
  1  2  2  0  0  0
  1  3  1  0  0  0
  3  4  1  0  0  0
  3  8  1  0  0  0
  4  5  1  0  0  0
  5  6  1  0  0  0
  6  7  1  0  0  0
  6 21  1  0  0  0
  7  8  1  0  0  0
 21 22  1  0  0  0
 22 23  2  0  0  0
 22 26  1  0  0  0
 23 24  1  0  0  0
 24 25  1  0  0  0
 25 26  2  0  0  0
 26 27  1  0  0  0
M  END
> <minimizedAffinity>
-9.34367

$$$$
473


 29 32  0  0  0  0  0  0  0  0999 V2000
   19.5185   37.1423   69.5293 C   0  0  0  0  0  0  0  0  0  0  0  0
   20.4473   36.9907   68.3859 C   0  0  0  0  0  0  0  0  0  0  0  0
   20.7021   37.9128   67.5682 O   0  0  0  0  0  0  0  0  0  0  0  0
   21.1221   35.7386   68.1537 N   0  0  0  0  0  0  0  0  0  0  0  0
   22.0316   35.5811   67.0420 C   0  0  0  0  0  0  0  0  0  0  0  0
   23.2930   34.8689   67.4001 C   0  0  0  0  0  0  0  0  0  0  0  0
   23.3726   34.4578   68.7816 N   0  0  0  0  0  0  0  0  0  0  0  0
   22.2384   34.1342   69.6048 C   0  0  0  0  0  0  0  0  0  0  0  0
   20.9257   34.5863   69.0129 C   0  0  0  0  0  0  0  0  0  0  0  0
   24.6722   34.3648   69.3736 C   0  0  0  0  0  0  0  0  0  0  0  0
   24.9794   33.3874   70.2690 N   0  0  0  0  0  0  0  0  0  0  0  0
   26.1758   33.2661   70.8421 C   0  0  0  0  0  0  0  0  0  0  0  0
   27.1685   34.1785   70.5177 C   0  0  0  0  0  0  0  0  0  0  0  0
   26.8961   35.1645   69.6292 N   0  0  0  0  0  0  0  0  0  0  0  0
   25.6777   35.2545   69.0719 C   0  0  0  0  0  0  0  0  0  0  0  0
   18.0708   37.2484   69.1415 C   0  0  0  0  0  0  0  0  0  0  0  0
   17.2369   37.4341   70.3545 C   0  0  0  0  0  0  0  0  0  0  0  0
   14.0488   30.5856   72.5848 Br  0  0  0  0  0  0  0  0  0  0  0  0
   14.2389   32.3636   71.9196 C   0  0  0  0  0  0  0  0  0  0  0  0
   15.4973   32.9283   71.8711 C   0  0  0  0  0  0  0  0  0  0  0  0
   15.6897   34.2128   71.3967 C   0  0  0  0  0  0  0  0  0  0  0  0
   14.5771   34.9135   70.9738 C   0  0  0  0  0  0  0  0  0  0  0  0
   13.3236   34.3389   71.0270 C   0  0  0  0  0  0  0  0  0  0  0  0
   13.1237   33.0571   71.4982 C   0  0  0  0  0  0  0  0  0  0  0  0
   15.0370   36.2174   70.5289 C   0  0  0  0  0  0  0  0  0  0  0  0
   14.2661   37.1219   70.0729 O   0  0  0  0  0  0  0  0  0  0  0  0
   16.4456   36.2731   70.6979 N   0  0  0  0  0  0  0  0  0  0  0  0
   16.8874   35.0510   71.2341 C   0  0  0  0  0  0  0  0  0  0  0  0
   18.0663   34.7098   71.5262 O   0  0  0  0  0  0  0  0  0  0  0  0
 18 19  1  0  0  0
 19 20  2  0  0  0
 19 24  1  0  0  0
 20 21  1  0  0  0
 21 22  2  0  0  0
 21 28  1  0  0  0
 22 23  1  0  0  0
 22 25  1  0  0  0
 23 24  2  0  0  0
 25 26  2  0  0  0
 25 27  1  0  0  0
 27 28  1  0  0  0
 27 17  1  0  0  0
 28 29  2  0  0  0
 17 16  1  0  0  0
 16  1  1  0  0  0
  1  2  1  0  0  0
  2  3  2  0  0  0
  2  4  1  0  0  0
  4  5  1  0  0  0
  4  9  1  0  0  0
  5  6  1  0  0  0
  6  7  1  0  0  0
  7  8  1  0  0  0
  7 10  1  0  0  0
  8  9  1  0  0  0
 10 11  2  0  0  0
 10 15  1  0  0  0
 11 12  1  0  0  0
 12 13  2  0  0  0
 13 14  1  0  0  0
 14 15  2  0  0  0
M  END
> <minimizedAffinity>
-8.84378

$$$$
483


 31 34  0  0  0  0  0  0  0  0999 V2000
   19.4002   33.5334   70.8249 N   0  0  0  0  0  0  0  0  0  0  0  0
   20.0648   34.2441   71.8546 C   0  0  0  0  0  0  0  0  0  0  0  0
   20.0346   33.7947   73.0229 O   0  0  0  0  0  0  0  0  0  0  0  0
   19.4165   33.9100   69.8558 H   0  0  0  0  0  0  0  0  0  0  0  0
   15.8013   37.4753   70.3139 Br  0  0  0  0  0  0  0  0  0  0  0  0
   15.5588   35.6187   70.6417 C   0  0  0  0  0  0  0  0  0  0  0  0
   16.6444   34.7406   70.7425 C   0  0  0  0  0  0  0  0  0  0  0  0
   16.4743   33.3933   70.9802 C   0  0  0  0  0  0  0  0  0  0  0  0
   15.1776   32.8854   71.1249 C   0  0  0  0  0  0  0  0  0  0  0  0
   14.1101   33.7651   71.0235 C   0  0  0  0  0  0  0  0  0  0  0  0
   14.2999   35.1057   70.7857 C   0  0  0  0  0  0  0  0  0  0  0  0
   15.2165   31.4827   71.3628 N   0  0  0  0  0  0  0  0  0  0  0  0
   16.5839   31.1027   71.3660 C   0  0  0  0  0  0  0  0  0  0  0  0
   17.1070   29.9674   71.5367 O   0  0  0  0  0  0  0  0  0  0  0  0
   17.4214   32.2975   71.1250 C   0  0  0  0  0  0  0  0  0  0  0  0
   18.7077   32.3430   71.0594 N   0  0  0  0  0  0  0  0  0  0  0  0
   14.1273   30.5498   71.5713 C   0  0  0  0  0  0  0  0  0  0  0  0
   13.8028   30.4550   72.9859 C   0  0  0  0  0  0  0  0  0  0  0  0
   13.5374   30.3932   74.1580 C   0  0  0  0  0  0  0  0  0  0  0  0
   20.7720   35.4810   71.5549 C   0  0  0  0  0  0  0  0  0  0  0  0
   21.0986   35.6230   70.1489 N   0  0  0  0  0  0  0  0  0  0  0  0
   20.4094   36.2780   69.2305 N   0  0  0  0  0  0  0  0  0  0  0  0
   21.0111   36.1927   68.0553 N   0  0  0  0  0  0  0  0  0  0  0  0
   22.1260   35.4590   68.2128 C   0  0  0  0  0  0  0  0  0  0  0  0
   22.1487   35.1266   69.5101 N   0  0  0  0  0  0  0  0  0  0  0  0
   23.0771   35.1256   67.1572 C   0  0  0  0  0  0  0  0  0  0  0  0
   23.7114   33.9019   67.1599 C   0  0  0  0  0  0  0  0  0  0  0  0
   24.6220   33.5793   66.1510 C   0  0  0  0  0  0  0  0  0  0  0  0
   24.9138   34.4590   65.1335 C   0  0  0  0  0  0  0  0  0  0  0  0
   24.2776   35.6881   65.1284 C   0  0  0  0  0  0  0  0  0  0  0  0
   23.3742   36.0006   66.1349 C   0  0  0  0  0  0  0  0  0  0  0  0
  5  6  1  0  0  0
  6  7  2  0  0  0
  6 11  1  0  0  0
  7  8  1  0  0  0
  8  9  2  0  0  0
  8 15  1  0  0  0
  9 10  1  0  0  0
  9 12  1  0  0  0
 10 11  2  0  0  0
 12 13  1  0  0  0
 12 17  1  0  0  0
 13 14  2  0  0  0
 13 15  1  0  0  0
 15 16  2  0  0  0
 16  1  1  0  0  0
  1  2  1  0  0  0
  2  3  2  0  0  0
  2 20  1  0  0  0
 20 21  1  0  0  0
 21 22  1  0  0  0
 21 25  1  0  0  0
 22 23  2  0  0  0
 23 24  1  0  0  0
 24 25  2  0  0  0
 24 26  1  0  0  0
 26 27  2  0  0  0
 26 31  1  0  0  0
 27 28  1  0  0  0
 28 29  2  0  0  0
 29 30  1  0  0  0
 30 31  2  0  0  0
 17 18  1  0  0  0
 18 19  3  0  0  0
  1  4  1  0  0  0
M  END
> <minimizedAffinity>
-9.40707

$$$$
484


 35 38  0  0  0  0  0  0  0  0999 V2000
   16.9559   33.1393   73.1966 Br  0  0  0  0  0  0  0  0  0  0  0  0
   17.7743   34.3291   71.9472 C   0  0  0  0  0  0  0  0  0  0  0  0
   17.0150   35.2266   71.1820 C   0  0  0  0  0  0  0  0  0  0  0  0
   17.7074   36.0355   70.3277 C   0  0  0  0  0  0  0  0  0  0  0  0
   19.0786   36.0134   70.1798 C   0  0  0  0  0  0  0  0  0  0  0  0
   19.8204   35.1278   70.9278 C   0  0  0  0  0  0  0  0  0  0  0  0
   19.1456   34.2837   71.8220 C   0  0  0  0  0  0  0  0  0  0  0  0
   19.5250   36.9640   69.2212 N   0  0  0  0  0  0  0  0  0  0  0  0
   18.3312   37.6250   68.7262 C   0  0  0  0  0  0  0  0  0  0  0  0
   18.3163   38.5393   67.8763 O   0  0  0  0  0  0  0  0  0  0  0  0
   17.2139   37.0217   69.4180 C   0  0  0  0  0  0  0  0  0  0  0  0
   15.9656   37.1717   69.1938 N   0  0  0  0  0  0  0  0  0  0  0  0
   14.8772   36.8199   69.4229 N   0  0  0  0  0  0  0  0  0  0  0  0
   13.5537   36.4131   69.7065 C   0  0  0  0  0  0  0  0  0  0  0  0
   12.5758   37.0149   70.0899 O   0  0  0  0  0  0  0  0  0  0  0  0
   14.5063   38.0642   69.9155 H   0  0  0  0  0  0  0  0  0  0  0  0
   13.4283   34.8912   69.4673 C   0  0  0  0  0  0  0  0  0  0  0  0
   12.3779   34.4837   70.3703 O   0  0  0  0  0  0  0  0  0  0  0  0
   12.7563   33.4657   71.2916 N   0  0  0  0  0  0  0  0  0  0  0  0
   13.5587   32.5316   70.9590 C   0  0  0  0  0  0  0  0  0  0  0  0
   13.9147   31.5012   71.9072 C   0  0  0  0  0  0  0  0  0  0  0  0
   13.4618   31.4130   73.1808 C   0  0  0  0  0  0  0  0  0  0  0  0
   13.9960   30.3630   73.9709 C   0  0  0  0  0  0  0  0  0  0  0  0
   14.8850   29.4473   73.5914 C   0  0  0  0  0  0  0  0  0  0  0  0
   15.3031   29.5750   72.3104 C   0  0  0  0  0  0  0  0  0  0  0  0
   14.9255   30.5035   71.4166 C   0  0  0  0  0  0  0  0  0  0  0  0
   15.3218   28.4576   74.4790 O   0  0  0  0  0  0  0  0  0  0  0  0
   16.2715   27.4813   74.0672 C   0  0  0  0  0  0  0  0  0  0  0  0
   20.8537   37.3484   68.7740 C   0  0  0  0  0  0  0  0  0  0  0  0
   21.1252   36.8912   67.5013 N   0  0  0  0  0  0  0  0  0  0  0  0
   21.8334   37.8282   66.7275 C   0  0  0  0  0  0  0  0  0  0  0  0
   22.9684   37.1241   65.9801 C   0  0  0  0  0  0  0  0  0  0  0  0
   23.6465   36.4198   67.0124 O   0  0  0  0  0  0  0  0  0  0  0  0
   22.8991   35.2862   67.3591 C   0  0  0  0  0  0  0  0  0  0  0  0
   21.4208   35.5225   67.3587 C   0  0  0  0  0  0  0  0  0  0  0  0
  1  2  1  0  0  0
  2  3  2  0  0  0
  2  7  1  0  0  0
  3  4  1  0  0  0
  4  5  2  0  0  0
  4 11  1  0  0  0
  5  6  1  0  0  0
  5  8  1  0  0  0
  6  7  2  0  0  0
  8  9  1  0  0  0
  8 29  1  0  0  0
  9 10  2  0  0  0
  9 11  1  0  0  0
 11 12  2  0  0  0
 12 13  1  0  0  0
 13 14  1  0  0  0
 14 15  2  0  0  0
 14 17  1  0  0  0
 17 18  1  0  0  0
 18 19  1  0  0  0
 19 20  2  0  0  0
 20 21  1  0  0  0
 21 22  2  0  0  0
 21 26  1  0  0  0
 22 23  1  0  0  0
 23 24  2  0  0  0
 24 25  1  0  0  0
 24 27  1  0  0  0
 25 26  2  0  0  0
 27 28  1  0  0  0
 29 30  1  0  0  0
 30 31  1  0  0  0
 30 35  1  0  0  0
 31 32  1  0  0  0
 32 33  1  0  0  0
 33 34  1  0  0  0
 34 35  1  0  0  0
 13 16  1  0  0  0
M  END
> <minimizedAffinity>
-8.79989

$$$$
485


 34 37  0  0  0  0  0  0  0  0999 V2000
   13.3664   36.6070   69.4742 Br  0  0  0  0  0  0  0  0  0  0  0  0
   15.1169   36.1002   70.0856 C   0  0  0  0  0  0  0  0  0  0  0  0
   15.3236   34.9348   70.7869 C   0  0  0  0  0  0  0  0  0  0  0  0
   16.5699   34.5267   71.2502 C   0  0  0  0  0  0  0  0  0  0  0  0
   17.6714   35.3464   70.9875 C   0  0  0  0  0  0  0  0  0  0  0  0
   17.4645   36.5152   70.2838 C   0  0  0  0  0  0  0  0  0  0  0  0
   16.2074   36.9041   69.8295 C   0  0  0  0  0  0  0  0  0  0  0  0
   18.8598   34.7611   71.5381 N   0  0  0  0  0  0  0  0  0  0  0  0
   18.4653   33.5442   72.1574 C   0  0  0  0  0  0  0  0  0  0  0  0
   19.2315   32.7512   72.7486 O   0  0  0  0  0  0  0  0  0  0  0  0
   17.0350   33.3700   71.9926 C   0  0  0  0  0  0  0  0  0  0  0  0
   16.3151   32.3928   72.4153 N   0  0  0  0  0  0  0  0  0  0  0  0
   16.8343   31.3154   73.1233 N   0  0  0  0  0  0  0  0  0  0  0  0
   16.8131   30.0257   72.5529 C   0  0  0  0  0  0  0  0  0  0  0  0
   16.3247   29.8163   71.3888 O   0  0  0  0  0  0  0  0  0  0  0  0
   17.2311   31.4672   74.0611 H   0  0  0  0  0  0  0  0  0  0  0  0
   17.3462   28.8212   73.2373 C   0  0  0  0  0  0  0  0  0  0  0  0
   17.1437   27.6653   72.4253 O   0  0  0  0  0  0  0  0  0  0  0  0
   17.1835   26.4049   72.9972 C   0  0  0  0  0  0  0  0  0  0  0  0
   18.3754   25.7159   73.0722 C   0  0  0  0  0  0  0  0  0  0  0  0
   18.4078   24.4497   73.6482 C   0  0  0  0  0  0  0  0  0  0  0  0
   17.2536   23.8756   74.1454 C   0  0  0  0  0  0  0  0  0  0  0  0
   16.0826   24.5692   74.0637 C   0  0  0  0  0  0  0  0  0  0  0  0
   16.0514   25.8295   73.4900 C   0  0  0  0  0  0  0  0  0  0  0  0
   19.5390   26.2574   72.5877 O   0  0  0  0  0  0  0  0  0  0  0  0
   20.5883   26.5940   73.4596 C   0  0  0  0  0  0  0  0  0  0  0  0
   20.1893   35.3411   71.4496 C   0  0  0  0  0  0  0  0  0  0  0  0
   20.6576   35.5646   70.1293 N   0  0  0  0  0  0  0  0  0  0  0  0
   21.3577   36.7846   69.9151 C   0  0  0  0  0  0  0  0  0  0  0  0
   21.7524   36.9693   68.4470 C   0  0  0  0  0  0  0  0  0  0  0  0
   21.0170   35.9942   67.6939 N   0  0  0  0  0  0  0  0  0  0  0  0
   21.4091   34.6498   67.9828 C   0  0  0  0  0  0  0  0  0  0  0  0
   21.2268   34.4232   69.4728 C   0  0  0  0  0  0  0  0  0  0  0  0
   20.9119   36.2970   66.2955 C   0  0  0  0  0  0  0  0  0  0  0  0
  1  2  1  0  0  0
  2  3  2  0  0  0
  2  7  1  0  0  0
  3  4  1  0  0  0
  4  5  2  0  0  0
  4 11  1  0  0  0
  5  6  1  0  0  0
  5  8  1  0  0  0
  6  7  2  0  0  0
  8  9  1  0  0  0
  8 27  1  0  0  0
  9 10  2  0  0  0
  9 11  1  0  0  0
 11 12  2  0  0  0
 12 13  1  0  0  0
 13 14  1  0  0  0
 14 15  2  0  0  0
 14 17  1  0  0  0
 17 18  1  0  0  0
 18 19  1  0  0  0
 19 20  2  0  0  0
 19 24  1  0  0  0
 20 21  1  0  0  0
 20 25  1  0  0  0
 21 22  2  0  0  0
 22 23  1  0  0  0
 23 24  2  0  0  0
 25 26  1  0  0  0
 27 28  1  0  0  0
 28 29  1  0  0  0
 28 33  1  0  0  0
 29 30  1  0  0  0
 30 31  1  0  0  0
 31 32  1  0  0  0
 31 34  1  0  0  0
 32 33  1  0  0  0
 13 16  1  0  0  0
M  END
> <minimizedAffinity>
-8.86295

$$$$
500


 32 35  0  0  0  0  0  0  0  0999 V2000
   17.3950   31.5733   70.5513 Br  0  0  0  0  0  0  0  0  0  0  0  0
   18.5020   33.1315   70.7827 C   0  0  0  0  0  0  0  0  0  0  0  0
   19.3128   33.6307   69.8052 C   0  0  0  0  0  0  0  0  0  0  0  0
   20.1095   34.7257   70.0203 C   0  0  0  0  0  0  0  0  0  0  0  0
   20.0596   35.3032   71.2574 C   0  0  0  0  0  0  0  0  0  0  0  0
   19.2340   34.8127   72.2773 C   0  0  0  0  0  0  0  0  0  0  0  0
   18.4378   33.7091   72.0495 C   0  0  0  0  0  0  0  0  0  0  0  0
   20.9572   36.3920   71.3530 N   0  0  0  0  0  0  0  0  0  0  0  0
   21.6040   36.5069   70.1246 C   0  0  0  0  0  0  0  0  0  0  0  0
   22.4871   37.3696   69.8778 O   0  0  0  0  0  0  0  0  0  0  0  0
   21.0771   35.4537   69.1805 C   0  0  0  0  0  0  0  0  0  0  0  0
   20.5379   36.1997   68.0541 C   0  0  0  0  0  0  0  0  0  0  0  0
   21.1193   36.1020   66.8269 C   0  0  0  0  0  0  0  0  0  0  0  0
   20.4067   36.9113   65.9939 N   0  0  0  0  0  0  0  0  0  0  0  0
   19.4389   37.4799   66.6652 N   0  0  0  0  0  0  0  0  0  0  0  0
   19.4537   37.0869   67.9599 C   0  0  0  0  0  0  0  0  0  0  0  0
   22.2446   35.2915   66.5766 O   0  0  0  0  0  0  0  0  0  0  0  0
   22.7515   34.5847   67.6497 C   0  0  0  0  0  0  0  0  0  0  0  0
   22.2382   34.6418   68.8462 C   0  0  0  0  0  0  0  0  0  0  0  0
   23.9082   33.7519   67.3956 N   0  0  0  0  0  0  0  0  0  0  0  0
   21.1663   37.2506   72.5365 C   0  0  0  0  0  0  0  0  0  0  0  0
   18.7162   38.1614   66.2920 H   0  0  0  0  0  0  0  0  0  0  0  0
   24.1870   33.4331   66.4515 H   0  0  0  0  0  0  0  0  0  0  0  0
   24.4802   33.4669   68.2065 H   0  0  0  0  0  0  0  0  0  0  0  0
   22.8538   33.8580   69.9215 C   0  0  0  0  0  0  0  0  0  0  0  0
   23.3531   33.2527   70.7563 N   0  0  0  0  0  0  0  0  0  0  0  0
   18.4825   37.5239   68.9948 C   0  0  0  0  0  0  0  0  0  0  0  0
   17.1732   37.8676   68.3984 C   0  0  0  0  0  0  0  0  0  0  0  0
   17.0052   38.5092   67.3299 O   0  0  0  0  0  0  0  0  0  0  0  0
   16.0451   37.4499   69.0688 O   0  0  0  0  0  0  0  0  0  0  0  0
   15.9919   36.9643   70.3839 C   0  0  0  0  0  0  0  0  0  0  0  0
   15.6142   35.5017   70.3717 C   0  0  0  0  0  0  0  0  0  0  0  0
  1  2  1  0  0  0
  2  3  2  0  0  0
  2  7  1  0  0  0
  3  4  1  0  0  0
  4  5  2  0  0  0
  4 11  1  0  0  0
  5  6  1  0  0  0
  5  8  1  0  0  0
  6  7  2  0  0  0
  8  9  1  0  0  0
  8 21  1  0  0  0
  9 10  2  0  0  0
  9 11  1  0  0  0
 11 12  1  0  0  0
 11 19  1  0  0  0
 12 13  1  0  0  0
 12 16  2  0  0  0
 13 14  2  0  0  0
 13 17  1  0  0  0
 14 15  1  0  0  0
 15 16  1  0  0  0
 16 27  1  0  0  0
 27 28  1  0  0  0
 28 29  2  0  0  0
 28 30  1  0  0  0
 30 31  1  0  0  0
 31 32  1  0  0  0
 17 18  1  0  0  0
 18 19  2  0  0  0
 18 20  1  0  0  0
 19 25  1  0  0  0
 25 26  3  0  0  0
 15 22  1  0  0  0
 20 23  1  0  0  0
 20 24  1  0  0  0
M  END
> <minimizedAffinity>
-5.46094

$$$$
502


 27 30  0  0  0  0  0  0  0  0999 V2000
   13.4913   30.8230   73.7545 Br  0  0  0  0  0  0  0  0  0  0  0  0
   12.7136   29.7294   75.1377 C   0  0  0  0  0  0  0  0  0  0  0  0
   11.4089   29.8963   75.5207 C   0  0  0  0  0  0  0  0  0  0  0  0
   10.8740   29.1012   76.5124 C   0  0  0  0  0  0  0  0  0  0  0  0
   11.6889   28.1606   77.0818 C   0  0  0  0  0  0  0  0  0  0  0  0
   13.0311   27.9899   76.6863 C   0  0  0  0  0  0  0  0  0  0  0  0
   13.5457   28.7880   75.6996 C   0  0  0  0  0  0  0  0  0  0  0  0
   10.9971   27.4222   78.0843 N   0  0  0  0  0  0  0  0  0  0  0  0
    9.6879   27.9146   78.1552 C   0  0  0  0  0  0  0  0  0  0  0  0
    8.7889   27.4886   78.9431 O   0  0  0  0  0  0  0  0  0  0  0  0
    9.5356   29.0226   77.1476 C   0  0  0  0  0  0  0  0  0  0  0  0
    8.4905   28.5859   76.2289 C   0  0  0  0  0  0  0  0  0  0  0  0
    7.3174   29.2657   76.1198 C   0  0  0  0  0  0  0  0  0  0  0  0
    6.5694   28.6052   75.1874 N   0  0  0  0  0  0  0  0  0  0  0  0
    7.2300   27.5625   74.7296 N   0  0  0  0  0  0  0  0  0  0  0  0
    8.4122   27.5106   75.3393 C   0  0  0  0  0  0  0  0  0  0  0  0
    9.5216   26.5207   75.1699 C   0  0  0  0  0  0  0  0  0  0  0  0
    7.0346   30.4140   76.8675 O   0  0  0  0  0  0  0  0  0  0  0  0
    8.0337   30.8270   77.7430 C   0  0  0  0  0  0  0  0  0  0  0  0
    9.1799   30.2161   77.8922 C   0  0  0  0  0  0  0  0  0  0  0  0
    7.7967   32.0163   78.5482 N   0  0  0  0  0  0  0  0  0  0  0  0
   11.5475   26.3344   78.9071 C   0  0  0  0  0  0  0  0  0  0  0  0
    6.9253   26.8592   74.0081 H   0  0  0  0  0  0  0  0  0  0  0  0
    7.3324   31.8369   79.4608 H   0  0  0  0  0  0  0  0  0  0  0  0
    8.0583   32.9551   78.2541 H   0  0  0  0  0  0  0  0  0  0  0  0
   10.1210   30.7961   78.8662 C   0  0  0  0  0  0  0  0  0  0  0  0
   10.8531   31.2487   79.6557 N   0  0  0  0  0  0  0  0  0  0  0  0
  1  2  1  0  0  0
  2  3  2  0  0  0
  2  7  1  0  0  0
  3  4  1  0  0  0
  4  5  2  0  0  0
  4 11  1  0  0  0
  5  6  1  0  0  0
  5  8  1  0  0  0
  6  7  2  0  0  0
  8  9  1  0  0  0
  8 22  1  0  0  0
  9 10  2  0  0  0
  9 11  1  0  0  0
 11 12  1  0  0  0
 11 20  1  0  0  0
 12 13  1  0  0  0
 12 16  2  0  0  0
 13 14  2  0  0  0
 13 18  1  0  0  0
 14 15  1  0  0  0
 15 16  1  0  0  0
 16 17  1  0  0  0
 18 19  1  0  0  0
 19 20  2  0  0  0
 19 21  1  0  0  0
 20 26  1  0  0  0
 26 27  3  0  0  0
 15 23  1  0  0  0
 21 24  1  0  0  0
 21 25  1  0  0  0
M  END
> <minimizedAffinity>
-4.88902

$$$$
504


 29 32  0  0  0  0  0  0  0  0999 V2000
   12.4072   23.7189   73.8151 Br  0  0  0  0  0  0  0  0  0  0  0  0
   14.1527   24.3195   74.2647 C   0  0  0  0  0  0  0  0  0  0  0  0
   14.4389   25.6277   74.5732 C   0  0  0  0  0  0  0  0  0  0  0  0
   15.7472   25.9888   74.8927 C   0  0  0  0  0  0  0  0  0  0  0  0
   16.7750   25.1073   74.9183 C   0  0  0  0  0  0  0  0  0  0  0  0
   16.4834   23.7767   74.6052 C   0  0  0  0  0  0  0  0  0  0  0  0
   15.1973   23.4020   74.2870 C   0  0  0  0  0  0  0  0  0  0  0  0
   17.9987   25.7227   75.2719 N   0  0  0  0  0  0  0  0  0  0  0  0
   17.7386   27.0901   75.4867 C   0  0  0  0  0  0  0  0  0  0  0  0
   18.5853   27.9652   75.8184 O   0  0  0  0  0  0  0  0  0  0  0  0
   16.2875   27.3381   75.2581 C   0  0  0  0  0  0  0  0  0  0  0  0
   16.0951   28.2765   74.1238 C   0  0  0  0  0  0  0  0  0  0  0  0
   15.3846   29.3414   74.2198 C   0  0  0  0  0  0  0  0  0  0  0  0
   14.7043   29.7251   75.4470 N   0  0  0  0  0  0  0  0  0  0  0  0
   14.8789   28.8403   76.5338 C   0  0  0  0  0  0  0  0  0  0  0  0
   15.5967   27.7535   76.4586 C   0  0  0  0  0  0  0  0  0  0  0  0
   14.2215   29.1732   77.7876 N   0  0  0  0  0  0  0  0  0  0  0  0
   15.4027   30.0512   72.9034 C   0  0  0  0  0  0  0  0  0  0  0  0
   16.1900   29.2741   72.0792 O   0  0  0  0  0  0  0  0  0  0  0  0
   16.6533   28.1750   72.7361 C   0  0  0  0  0  0  0  0  0  0  0  0
   17.3976   27.2331   72.3285 O   0  0  0  0  0  0  0  0  0  0  0  0
   15.9250   31.4636   73.0835 C   0  0  0  0  0  0  0  0  0  0  0  0
   14.0086   30.1083   72.3062 C   0  0  0  0  0  0  0  0  0  0  0  0
   19.3201   25.0894   75.4008 C   0  0  0  0  0  0  0  0  0  0  0  0
   14.1442   30.5944   75.4690 H   0  0  0  0  0  0  0  0  0  0  0  0
   14.8345   29.4597   78.5779 H   0  0  0  0  0  0  0  0  0  0  0  0
   13.1981   29.1256   77.8887 H   0  0  0  0  0  0  0  0  0  0  0  0
   15.6861   26.9377   77.6636 C   0  0  0  0  0  0  0  0  0  0  0  0
   15.7522   26.3069   78.6329 N   0  0  0  0  0  0  0  0  0  0  0  0
  1  2  1  0  0  0
  2  3  2  0  0  0
  2  7  1  0  0  0
  3  4  1  0  0  0
  4  5  2  0  0  0
  4 11  1  0  0  0
  5  6  1  0  0  0
  5  8  1  0  0  0
  6  7  2  0  0  0
  8  9  1  0  0  0
  8 24  1  0  0  0
  9 10  2  0  0  0
  9 11  1  0  0  0
 11 12  1  0  0  0
 11 16  1  0  0  0
 12 13  2  0  0  0
 12 20  1  0  0  0
 13 14  1  0  0  0
 13 18  1  0  0  0
 14 15  1  0  0  0
 15 16  2  0  0  0
 15 17  1  0  0  0
 16 28  1  0  0  0
 28 29  3  0  0  0
 18 19  1  0  0  0
 18 22  1  0  0  0
 18 23  1  0  0  0
 19 20  1  0  0  0
 20 21  2  0  0  0
 14 25  1  0  0  0
 17 26  1  0  0  0
 17 27  1  0  0  0
M  END
> <minimizedAffinity>
-5.71727

$$$$
505


 30 33  0  0  0  0  0  0  0  0999 V2000
   15.6822   28.9790   79.0741 Br  0  0  0  0  0  0  0  0  0  0  0  0
   15.5305   27.8854   77.5238 C   0  0  0  0  0  0  0  0  0  0  0  0
   16.3140   28.1474   76.4211 C   0  0  0  0  0  0  0  0  0  0  0  0
   16.2217   27.3587   75.2699 C   0  0  0  0  0  0  0  0  0  0  0  0
   15.3355   26.3301   75.2799 C   0  0  0  0  0  0  0  0  0  0  0  0
   14.5336   26.0636   76.4092 C   0  0  0  0  0  0  0  0  0  0  0  0
   14.6311   26.8438   77.5379 C   0  0  0  0  0  0  0  0  0  0  0  0
   15.3946   25.6592   74.0277 N   0  0  0  0  0  0  0  0  0  0  0  0
   16.3467   26.2812   73.2001 C   0  0  0  0  0  0  0  0  0  0  0  0
   16.6689   25.9638   72.0278 O   0  0  0  0  0  0  0  0  0  0  0  0
   16.9380   27.4214   73.9613 C   0  0  0  0  0  0  0  0  0  0  0  0
   16.6849   28.6953   73.2791 C   0  0  0  0  0  0  0  0  0  0  0  0
   17.6944   29.5397   72.9490 C   0  0  0  0  0  0  0  0  0  0  0  0
   19.0180   29.2081   73.2548 O   0  0  0  0  0  0  0  0  0  0  0  0
   19.3098   28.0205   73.8957 C   0  0  0  0  0  0  0  0  0  0  0  0
   18.3622   27.1947   74.2226 C   0  0  0  0  0  0  0  0  0  0  0  0
   20.6924   27.7479   74.1775 N   0  0  0  0  0  0  0  0  0  0  0  0
   17.4056   30.7435   72.3002 C   0  0  0  0  0  0  0  0  0  0  0  0
   18.3438   31.5111   72.0013 O   0  0  0  0  0  0  0  0  0  0  0  0
   16.0992   31.0553   72.0056 C   0  0  0  0  0  0  0  0  0  0  0  0
   15.1145   30.1595   72.3655 C   0  0  0  0  0  0  0  0  0  0  0  0
   15.4409   29.0636   72.9627 O   0  0  0  0  0  0  0  0  0  0  0  0
   14.5568   24.4889   73.7014 C   0  0  0  0  0  0  0  0  0  0  0  0
   20.9518   27.4632   75.1202 H   0  0  0  0  0  0  0  0  0  0  0  0
   21.3696   27.8495   73.4228 H   0  0  0  0  0  0  0  0  0  0  0  0
   13.6685   30.4805   72.0516 C   0  0  0  0  0  0  0  0  0  0  0  0
   13.4919   30.4790   70.6680 O   0  0  0  0  0  0  0  0  0  0  0  0
   14.3618   30.7177   70.2271 H   0  0  0  0  0  0  0  0  0  0  0  0
   18.7645   25.9545   74.9015 C   0  0  0  0  0  0  0  0  0  0  0  0
   19.0847   24.9965   75.4278 N   0  0  0  0  0  0  0  0  0  0  0  0
  1  2  1  0  0  0
  2  3  2  0  0  0
  2  7  1  0  0  0
  3  4  1  0  0  0
  4  5  2  0  0  0
  4 11  1  0  0  0
  5  6  1  0  0  0
  5  8  1  0  0  0
  6  7  2  0  0  0
  8  9  1  0  0  0
  8 23  1  0  0  0
  9 10  2  0  0  0
  9 11  1  0  0  0
 11 12  1  0  0  0
 11 16  1  0  0  0
 12 13  2  0  0  0
 12 22  1  0  0  0
 13 14  1  0  0  0
 13 18  1  0  0  0
 14 15  1  0  0  0
 15 16  2  0  0  0
 15 17  1  0  0  0
 16 29  1  0  0  0
 29 30  3  0  0  0
 18 19  2  0  0  0
 18 20  1  0  0  0
 20 21  2  0  0  0
 21 22  1  0  0  0
 21 26  1  0  0  0
 26 27  1  0  0  0
 17 24  1  0  0  0
 17 25  1  0  0  0
 27 28  1  0  0  0
M  END
> <minimizedAffinity>
-5.92795

$$$$
513


 33 36  0  0  0  0  0  0  0  0999 V2000
   20.1124   33.3504   69.5140 N   0  0  0  0  0  0  0  0  0  0  0  0
   21.2668   34.1549   69.3169 C   0  0  0  0  0  0  0  0  0  0  0  0
   21.8584   34.5551   70.3321 O   0  0  0  0  0  0  0  0  0  0  0  0
   19.6090   33.0267   68.6598 H   0  0  0  0  0  0  0  0  0  0  0  0
   19.6324   32.9884   70.7593 N   0  0  0  0  0  0  0  0  0  0  0  0
   19.9485   33.5200   71.6158 H   0  0  0  0  0  0  0  0  0  0  0  0
   16.4682   37.4195   70.3181 Br  0  0  0  0  0  0  0  0  0  0  0  0
   15.9504   35.6045   70.6381 C   0  0  0  0  0  0  0  0  0  0  0  0
   16.9116   34.5975   70.7205 C   0  0  0  0  0  0  0  0  0  0  0  0
   16.5996   33.2743   70.9451 C   0  0  0  0  0  0  0  0  0  0  0  0
   15.2677   32.9664   71.0916 C   0  0  0  0  0  0  0  0  0  0  0  0
   14.2740   33.9531   71.0151 C   0  0  0  0  0  0  0  0  0  0  0  0
   14.6328   35.2570   70.7902 C   0  0  0  0  0  0  0  0  0  0  0  0
   15.1741   31.5653   71.3082 N   0  0  0  0  0  0  0  0  0  0  0  0
   16.4618   30.9771   71.2995 C   0  0  0  0  0  0  0  0  0  0  0  0
   16.7747   29.7723   71.4580 O   0  0  0  0  0  0  0  0  0  0  0  0
   17.4231   32.0663   71.0632 C   0  0  0  0  0  0  0  0  0  0  0  0
   18.7301   31.9402   70.9836 C   0  0  0  0  0  0  0  0  0  0  0  0
   14.2867   31.0300   71.4564 H   0  0  0  0  0  0  0  0  0  0  0  0
   21.7810   34.5217   67.9787 C   0  0  0  0  0  0  0  0  0  0  0  0
   21.5326   35.8494   67.6600 N   0  0  0  0  0  0  0  0  0  0  0  0
   22.1910   36.7245   66.9016 C   0  0  0  0  0  0  0  0  0  0  0  0
   21.5435   37.9511   66.9659 C   0  0  0  0  0  0  0  0  0  0  0  0
   20.4833   37.7858   67.7792 N   0  0  0  0  0  0  0  0  0  0  0  0
   20.4741   36.5388   68.1918 C   0  0  0  0  0  0  0  0  0  0  0  0
   22.0308   39.0277   66.2521 C   0  0  0  0  0  0  0  0  0  0  0  0
   21.4240   40.1268   66.3326 O   0  0  0  0  0  0  0  0  0  0  0  0
   23.1190   38.8353   65.5220 N   0  0  0  0  0  0  0  0  0  0  0  0
   23.7366   37.6421   65.4650 C   0  0  0  0  0  0  0  0  0  0  0  0
   24.7640   37.5029   64.7600 O   0  0  0  0  0  0  0  0  0  0  0  0
   23.2968   36.5487   66.1496 N   0  0  0  0  0  0  0  0  0  0  0  0
   23.9575   35.2796   66.0393 C   0  0  0  0  0  0  0  0  0  0  0  0
   23.6821   39.9511   64.7435 C   0  0  0  0  0  0  0  0  0  0  0  0
  7  8  1  0  0  0
  8  9  2  0  0  0
  8 13  1  0  0  0
  9 10  1  0  0  0
 10 11  2  0  0  0
 10 17  1  0  0  0
 11 12  1  0  0  0
 11 14  1  0  0  0
 12 13  2  0  0  0
 14 15  1  0  0  0
 15 16  2  0  0  0
 15 17  1  0  0  0
 17 18  2  0  0  0
 18  5  1  0  0  0
  5  1  1  0  0  0
  1  2  1  0  0  0
  2  3  2  0  0  0
  2 20  1  0  0  0
 20 21  1  0  0  0
 21 22  1  0  0  0
 21 25  1  0  0  0
 22 23  2  0  0  0
 22 31  1  0  0  0
 23 24  1  0  0  0
 23 26  1  0  0  0
 24 25  2  0  0  0
 26 27  2  0  0  0
 26 28  1  0  0  0
 28 29  1  0  0  0
 28 33  1  0  0  0
 29 30  2  0  0  0
 29 31  1  0  0  0
 31 32  1  0  0  0
 14 19  1  0  0  0
  5  6  1  0  0  0
  1  4  1  0  0  0
M  END
> <minimizedAffinity>
-10.01256

$$$$
526


 31 34  0  0  0  0  0  0  0  0999 V2000
   19.1403   32.0454   70.1876 N   0  0  0  0  0  0  0  0  0  0  0  0
   20.2448   32.7134   70.7482 C   0  0  0  0  0  0  0  0  0  0  0  0
   20.0363   33.8265   71.3495 O   0  0  0  0  0  0  0  0  0  0  0  0
   19.2974   31.1336   69.6781 H   0  0  0  0  0  0  0  0  0  0  0  0
   13.6045   36.5699   69.5433 Br  0  0  0  0  0  0  0  0  0  0  0  0
   14.0228   34.8714   70.2793 C   0  0  0  0  0  0  0  0  0  0  0  0
   15.2725   34.3287   70.1837 C   0  0  0  0  0  0  0  0  0  0  0  0
   15.5629   33.0927   70.7190 C   0  0  0  0  0  0  0  0  0  0  0  0
   14.6330   32.3454   71.3696 C   0  0  0  0  0  0  0  0  0  0  0  0
   13.3504   32.8937   71.4725 C   0  0  0  0  0  0  0  0  0  0  0  0
   13.0560   34.1240   70.9413 C   0  0  0  0  0  0  0  0  0  0  0  0
   15.1678   31.1214   71.8251 N   0  0  0  0  0  0  0  0  0  0  0  0
   16.5454   31.0456   71.4497 C   0  0  0  0  0  0  0  0  0  0  0  0
   17.3869   30.1648   71.6384 O   0  0  0  0  0  0  0  0  0  0  0  0
   16.8143   32.3246   70.7272 C   0  0  0  0  0  0  0  0  0  0  0  0
   17.8994   32.5637   70.2980 N   0  0  0  0  0  0  0  0  0  0  0  0
   14.6710   30.3623   72.3501 H   0  0  0  0  0  0  0  0  0  0  0  0
   21.6458   32.2822   70.7409 C   0  0  0  0  0  0  0  0  0  0  0  0
   22.3523   32.4363   69.5009 N   0  0  0  0  0  0  0  0  0  0  0  0
   23.0262   33.6456   69.1703 C   0  0  0  0  0  0  0  0  0  0  0  0
   22.9536   34.5858   70.0540 O   0  0  0  0  0  0  0  0  0  0  0  0
   22.3868   31.6880   68.7919 H   0  0  0  0  0  0  0  0  0  0  0  0
   23.7593   33.9097   67.9703 C   0  0  0  0  0  0  0  0  0  0  0  0
   23.3309   34.7174   66.9274 C   0  0  0  0  0  0  0  0  0  0  0  0
   24.0788   34.9325   65.8204 C   0  0  0  0  0  0  0  0  0  0  0  0
   25.3217   34.3495   65.6751 C   0  0  0  0  0  0  0  0  0  0  0  0
   25.7807   33.5461   66.6708 C   0  0  0  0  0  0  0  0  0  0  0  0
   25.0211   33.3139   67.8273 C   0  0  0  0  0  0  0  0  0  0  0  0
   25.8626   34.7552   64.4440 O   0  0  0  0  0  0  0  0  0  0  0  0
   25.2941   36.0776   64.2861 C   0  0  0  0  0  0  0  0  0  0  0  0
   23.9075   35.7063   64.6128 O   0  0  0  0  0  0  0  0  0  0  0  0
  5  6  1  0  0  0
  6  7  2  0  0  0
  6 11  1  0  0  0
  7  8  1  0  0  0
  8  9  2  0  0  0
  8 15  1  0  0  0
  9 10  1  0  0  0
  9 12  1  0  0  0
 10 11  2  0  0  0
 12 13  1  0  0  0
 13 14  2  0  0  0
 13 15  1  0  0  0
 15 16  2  0  0  0
 16  1  1  0  0  0
  1  2  1  0  0  0
  2  3  2  0  0  0
  2 18  1  0  0  0
 18 19  1  0  0  0
 19 20  1  0  0  0
 20 21  2  0  0  0
 20 23  1  0  0  0
 23 24  2  0  0  0
 23 28  1  0  0  0
 24 25  1  0  0  0
 25 26  2  0  0  0
 25 31  1  0  0  0
 26 27  1  0  0  0
 26 29  1  0  0  0
 27 28  2  0  0  0
 29 30  1  0  0  0
 30 31  1  0  0  0
 12 17  1  0  0  0
  1  4  1  0  0  0
 19 22  1  0  0  0
M  END
> <minimizedAffinity>
-9.51765

$$$$
550


 30 35  0  0  0  0  0  0  0  0999 V2000
   21.0284   36.5695   67.6323 Br  0  0  0  0  0  0  0  0  0  0  0  0
   20.5246   35.7952   69.3010 C   0  0  0  0  0  0  0  0  0  0  0  0
   19.2141   35.4232   69.5771 C   0  0  0  0  0  0  0  0  0  0  0  0
   18.8593   34.8680   70.7771 C   0  0  0  0  0  0  0  0  0  0  0  0
   19.8644   34.6882   71.7155 C   0  0  0  0  0  0  0  0  0  0  0  0
   21.1667   35.0552   71.4484 C   0  0  0  0  0  0  0  0  0  0  0  0
   21.5110   35.6128   70.2392 C   0  0  0  0  0  0  0  0  0  0  0  0
   19.3294   34.0976   72.9027 N   0  0  0  0  0  0  0  0  0  0  0  0
   17.9446   33.8932   72.7210 C   0  0  0  0  0  0  0  0  0  0  0  0
   17.1949   33.3911   73.5706 O   0  0  0  0  0  0  0  0  0  0  0  0
   17.6132   34.3848   71.3666 C   0  0  0  0  0  0  0  0  0  0  0  0
   16.5681   35.3530   71.5116 N   0  0  0  0  0  0  0  0  0  0  0  0
   15.3729   34.5501   71.7627 C   0  0  0  0  0  0  0  0  0  0  0  0
   15.5541   33.2769   71.0037 C   0  0  0  0  0  0  0  0  0  0  0  0
   16.9592   33.3273   70.5125 C   0  0  0  0  0  0  0  0  0  0  0  0
   17.4865   31.9856   70.7387 C   0  0  0  0  0  0  0  0  0  0  0  0
   18.5880   31.5450   70.3403 O   0  0  0  0  0  0  0  0  0  0  0  0
   16.5594   31.2399   71.4875 N   0  0  0  0  0  0  0  0  0  0  0  0
   15.4556   32.0687   71.8837 C   0  0  0  0  0  0  0  0  0  0  0  0
   14.5865   31.8597   72.7667 O   0  0  0  0  0  0  0  0  0  0  0  0
   14.2248   35.3218   71.1292 C   0  0  0  0  0  0  0  0  0  0  0  0
   14.8346   36.5877   70.5641 C   0  0  0  0  0  0  0  0  0  0  0  0
   16.2712   36.1095   70.3131 C   0  0  0  0  0  0  0  0  0  0  0  0
   19.8996   33.8613   73.7674 H   0  0  0  0  0  0  0  0  0  0  0  0
   16.6682   29.8554   71.8242 C   0  0  0  0  0  0  0  0  0  0  0  0
   17.3861   29.5645   73.0913 C   0  0  0  0  0  0  0  0  0  0  0  0
   18.7665   29.4813   72.9490 O   0  0  0  0  0  0  0  0  0  0  0  0
   19.1919   28.9755   74.1699 C   0  0  0  0  0  0  0  0  0  0  0  0
   18.1743   27.9870   74.6463 C   0  0  0  0  0  0  0  0  0  0  0  0
   16.9395   28.3429   73.8190 C   0  0  0  0  0  0  0  0  0  0  0  0
  1  2  1  0  0  0
  2  3  2  0  0  0
  2  7  1  0  0  0
  3  4  1  0  0  0
  4  5  2  0  0  0
  4 11  1  0  0  0
  5  6  1  0  0  0
  5  8  1  0  0  0
  6  7  2  0  0  0
  8  9  1  0  0  0
  9 10  2  0  0  0
  9 11  1  0  0  0
 11 12  1  0  0  0
 11 15  1  0  0  0
 12 13  1  0  0  0
 12 23  1  0  0  0
 13 14  1  0  0  0
 13 21  1  0  0  0
 14 15  1  0  0  0
 14 19  1  0  0  0
 15 16  1  0  0  0
 16 17  2  0  0  0
 16 18  1  0  0  0
 18 19  1  0  0  0
 18 25  1  0  0  0
 19 20  2  0  0  0
 25 26  1  0  0  0
 26 27  1  0  0  0
 26 30  1  0  0  0
 27 28  1  0  0  0
 28 29  1  0  0  0
 29 30  1  0  0  0
 21 22  1  0  0  0
 22 23  1  0  0  0
  8 24  1  0  0  0
M  END
> <minimizedAffinity>
-9.28945

$$$$
556


 30 33  0  0  0  0  0  0  0  0999 V2000
   17.8428   31.5711   70.3931 Br  0  0  0  0  0  0  0  0  0  0  0  0
   18.8410   33.1257   70.8662 C   0  0  0  0  0  0  0  0  0  0  0  0
   19.2944   33.9162   69.8387 C   0  0  0  0  0  0  0  0  0  0  0  0
   20.0310   35.0681   70.1353 C   0  0  0  0  0  0  0  0  0  0  0  0
   20.2824   35.3785   71.4321 C   0  0  0  0  0  0  0  0  0  0  0  0
   19.8268   34.5821   72.5001 C   0  0  0  0  0  0  0  0  0  0  0  0
   19.1057   33.4566   72.1785 C   0  0  0  0  0  0  0  0  0  0  0  0
   21.0420   36.5695   71.5240 N   0  0  0  0  0  0  0  0  0  0  0  0
   21.2760   37.0214   70.2241 C   0  0  0  0  0  0  0  0  0  0  0  0
   21.9385   38.0728   69.8717 O   0  0  0  0  0  0  0  0  0  0  0  0
   20.6222   36.0764   69.2702 C   0  0  0  0  0  0  0  0  0  0  0  0
   19.7190   36.8706   68.4790 C   0  0  0  0  0  0  0  0  0  0  0  0
   19.9311   37.0751   67.1672 C   0  0  0  0  0  0  0  0  0  0  0  0
   18.9004   37.8631   66.7145 N   0  0  0  0  0  0  0  0  0  0  0  0
   18.0981   38.1216   67.7247 N   0  0  0  0  0  0  0  0  0  0  0  0
   18.5360   37.5447   68.8443 C   0  0  0  0  0  0  0  0  0  0  0  0
   17.9326   37.5818   70.2079 C   0  0  0  0  0  0  0  0  0  0  0  0
   21.0301   36.5426   66.4687 O   0  0  0  0  0  0  0  0  0  0  0  0
   21.9137   35.7727   67.2145 C   0  0  0  0  0  0  0  0  0  0  0  0
   21.7602   35.5422   68.4832 C   0  0  0  0  0  0  0  0  0  0  0  0
   23.0678   35.1909   66.5677 N   0  0  0  0  0  0  0  0  0  0  0  0
   21.3881   37.0580   72.3986 H   0  0  0  0  0  0  0  0  0  0  0  0
   18.7789   38.1999   65.7325 H   0  0  0  0  0  0  0  0  0  0  0  0
   23.9677   35.6655   66.6712 H   0  0  0  0  0  0  0  0  0  0  0  0
   22.9582   34.3301   66.0307 H   0  0  0  0  0  0  0  0  0  0  0  0
   22.7681   34.7008   69.1911 C   0  0  0  0  0  0  0  0  0  0  0  0
   23.8115   35.2520   69.5851 O   0  0  0  0  0  0  0  0  0  0  0  0
   22.5965   33.3640   69.4262 O   0  0  0  0  0  0  0  0  0  0  0  0
   22.8694   32.7216   70.6484 C   0  0  0  0  0  0  0  0  0  0  0  0
   22.0606   31.4202   70.6671 C   0  0  0  0  0  0  0  0  0  0  0  0
  1  2  1  0  0  0
  2  3  2  0  0  0
  2  7  1  0  0  0
  3  4  1  0  0  0
  4  5  2  0  0  0
  4 11  1  0  0  0
  5  6  1  0  0  0
  5  8  1  0  0  0
  6  7  2  0  0  0
  8  9  1  0  0  0
  9 10  2  0  0  0
  9 11  1  0  0  0
 11 12  1  0  0  0
 11 20  1  0  0  0
 12 13  2  0  0  0
 12 16  1  0  0  0
 13 14  1  0  0  0
 13 18  1  0  0  0
 14 15  1  0  0  0
 15 16  2  0  0  0
 16 17  1  0  0  0
 18 19  1  0  0  0
 19 20  2  0  0  0
 19 21  1  0  0  0
 20 26  1  0  0  0
 26 27  2  0  0  0
 26 28  1  0  0  0
 28 29  1  0  0  0
 29 30  1  0  0  0
  8 22  1  0  0  0
 14 23  1  0  0  0
 21 24  1  0  0  0
 21 25  1  0  0  0
M  END
> <minimizedAffinity>
-7.04610

$$$$
558


 29 32  0  0  0  0  0  0  0  0999 V2000
   20.9183   37.9497   71.6322 Br  0  0  0  0  0  0  0  0  0  0  0  0
   21.2119   36.5318   70.4034 C   0  0  0  0  0  0  0  0  0  0  0  0
   22.4126   36.3955   69.6993 C   0  0  0  0  0  0  0  0  0  0  0  0
   22.6165   35.3695   68.8153 C   0  0  0  0  0  0  0  0  0  0  0  0
   21.6244   34.4557   68.6118 C   0  0  0  0  0  0  0  0  0  0  0  0
   20.4028   34.5494   69.2930 C   0  0  0  0  0  0  0  0  0  0  0  0
   20.2275   35.5889   70.1745 C   0  0  0  0  0  0  0  0  0  0  0  0
   22.0242   33.4783   67.6662 N   0  0  0  0  0  0  0  0  0  0  0  0
   23.3310   33.7977   67.2581 C   0  0  0  0  0  0  0  0  0  0  0  0
   24.0550   33.1859   66.4292 O   0  0  0  0  0  0  0  0  0  0  0  0
   23.7715   35.0176   67.9698 C   0  0  0  0  0  0  0  0  0  0  0  0
   24.0525   36.1024   66.9743 C   0  0  0  0  0  0  0  0  0  0  0  0
   25.1809   36.7519   66.8591 C   0  0  0  0  0  0  0  0  0  0  0  0
   26.2378   36.4180   67.7386 N   0  0  0  0  0  0  0  0  0  0  0  0
   26.0647   35.4030   68.7149 C   0  0  0  0  0  0  0  0  0  0  0  0
   24.9348   34.7501   68.8330 C   0  0  0  0  0  0  0  0  0  0  0  0
   27.1650   35.0773   69.6075 N   0  0  0  0  0  0  0  0  0  0  0  0
   25.0468   37.7378   65.7591 C   0  0  0  0  0  0  0  0  0  0  0  0
   23.7466   37.6075   65.2448 O   0  0  0  0  0  0  0  0  0  0  0  0
   23.1100   36.6152   65.9643 C   0  0  0  0  0  0  0  0  0  0  0  0
   21.9076   36.2238   65.7726 O   0  0  0  0  0  0  0  0  0  0  0  0
   25.9984   37.4011   64.6090 C   0  0  0  0  0  0  0  0  0  0  0  0
   25.3129   39.1520   66.2556 C   0  0  0  0  0  0  0  0  0  0  0  0
   21.4261   32.6566   67.3382 H   0  0  0  0  0  0  0  0  0  0  0  0
   27.1685   36.9075   67.6927 H   0  0  0  0  0  0  0  0  0  0  0  0
   27.0343   34.6431   70.5356 H   0  0  0  0  0  0  0  0  0  0  0  0
   28.1225   35.2944   69.2870 H   0  0  0  0  0  0  0  0  0  0  0  0
   24.8382   33.7160   69.8678 C   0  0  0  0  0  0  0  0  0  0  0  0
   24.7813   32.9016   70.6866 N   0  0  0  0  0  0  0  0  0  0  0  0
  1  2  1  0  0  0
  2  3  2  0  0  0
  2  7  1  0  0  0
  3  4  1  0  0  0
  4  5  2  0  0  0
  4 11  1  0  0  0
  5  6  1  0  0  0
  5  8  1  0  0  0
  6  7  2  0  0  0
  8  9  1  0  0  0
  9 10  2  0  0  0
  9 11  1  0  0  0
 11 12  1  0  0  0
 11 16  1  0  0  0
 12 13  2  0  0  0
 12 20  1  0  0  0
 13 14  1  0  0  0
 13 18  1  0  0  0
 14 15  1  0  0  0
 15 16  2  0  0  0
 15 17  1  0  0  0
 16 28  1  0  0  0
 28 29  3  0  0  0
 18 19  1  0  0  0
 18 22  1  0  0  0
 18 23  1  0  0  0
 19 20  1  0  0  0
 20 21  2  0  0  0
  8 24  1  0  0  0
 14 25  1  0  0  0
 17 26  1  0  0  0
 17 27  1  0  0  0
M  END
> <minimizedAffinity>
-6.19255

$$$$
559


 32 35  0  0  0  0  0  0  0  0999 V2000
   22.5999   33.9778   68.9363 Br  0  0  0  0  0  0  0  0  0  0  0  0
   20.9152   34.6514   69.5631 C   0  0  0  0  0  0  0  0  0  0  0  0
   20.0066   33.8416   70.2190 C   0  0  0  0  0  0  0  0  0  0  0  0
   18.7931   34.3166   70.6727 C   0  0  0  0  0  0  0  0  0  0  0  0
   18.5297   35.6500   70.4368 C   0  0  0  0  0  0  0  0  0  0  0  0
   19.4413   36.4680   69.7767 C   0  0  0  0  0  0  0  0  0  0  0  0
   20.6321   35.9743   69.3396 C   0  0  0  0  0  0  0  0  0  0  0  0
   17.2322   35.9649   70.9665 N   0  0  0  0  0  0  0  0  0  0  0  0
   16.6730   34.7988   71.5455 C   0  0  0  0  0  0  0  0  0  0  0  0
   15.5419   34.7535   72.0827 O   0  0  0  0  0  0  0  0  0  0  0  0
   17.6526   33.7032   71.3915 C   0  0  0  0  0  0  0  0  0  0  0  0
   17.0813   32.5943   70.6761 N   0  0  0  0  0  0  0  0  0  0  0  0
   16.3187   31.8865   71.6832 C   0  0  0  0  0  0  0  0  0  0  0  0
   17.2248   31.8959   72.8855 C   0  0  0  0  0  0  0  0  0  0  0  0
   18.0105   33.1765   72.7354 C   0  0  0  0  0  0  0  0  0  0  0  0
   19.4178   32.7927   72.9145 C   0  0  0  0  0  0  0  0  0  0  0  0
   20.4054   33.5667   72.9899 O   0  0  0  0  0  0  0  0  0  0  0  0
   19.5242   31.3530   72.9960 N   0  0  0  0  0  0  0  0  0  0  0  0
   18.2225   30.8042   72.8679 C   0  0  0  0  0  0  0  0  0  0  0  0
   17.9846   29.5778   72.7575 O   0  0  0  0  0  0  0  0  0  0  0  0
   16.8102   36.9171   70.9088 H   0  0  0  0  0  0  0  0  0  0  0  0
   17.8426   31.9781   70.3485 H   0  0  0  0  0  0  0  0  0  0  0  0
   20.7320   30.5866   73.1766 C   0  0  0  0  0  0  0  0  0  0  0  0
   20.4404   29.1383   73.4868 C   0  0  0  0  0  0  0  0  0  0  0  0
   21.5720   30.6796   71.8992 C   0  0  0  0  0  0  0  0  0  0  0  0
   21.5508   31.1339   74.3249 C   0  0  0  0  0  0  0  0  0  0  0  0
   15.9675   30.5049   71.2012 C   0  0  0  0  0  0  0  0  0  0  0  0
   14.7429   30.0128   71.8533 C   0  0  0  0  0  0  0  0  0  0  0  0
   13.6290   30.2633   71.3171 O   0  0  0  0  0  0  0  0  0  0  0  0
   14.7152   29.2648   73.0577 N   0  0  0  0  0  0  0  0  0  0  0  0
   15.2353   29.4975   73.9161 H   0  0  0  0  0  0  0  0  0  0  0  0
   14.1110   28.4013   73.0671 H   0  0  0  0  0  0  0  0  0  0  0  0
  1  2  1  0  0  0
  2  3  2  0  0  0
  2  7  1  0  0  0
  3  4  1  0  0  0
  4  5  2  0  0  0
  4 11  1  0  0  0
  5  6  1  0  0  0
  5  8  1  0  0  0
  6  7  2  0  0  0
  8  9  1  0  0  0
  9 10  2  0  0  0
  9 11  1  0  0  0
 11 12  1  0  0  0
 11 15  1  0  0  0
 12 13  1  0  0  0
 13 14  1  0  0  0
 13 27  1  0  0  0
 14 15  1  0  0  0
 14 19  1  0  0  0
 15 16  1  0  0  0
 16 17  2  0  0  0
 16 18  1  0  0  0
 18 19  1  0  0  0
 18 23  1  0  0  0
 19 20  2  0  0  0
 23 24  1  0  0  0
 23 25  1  0  0  0
 23 26  1  0  0  0
 27 28  1  0  0  0
 28 29  2  0  0  0
 28 30  1  0  0  0
  8 21  1  0  0  0
 12 22  1  0  0  0
 30 31  1  0  0  0
 30 32  1  0  0  0
M  END
> <minimizedAffinity>
-8.10292

$$$$
566


 30 33  0  0  0  0  0  0  0  0999 V2000
   13.8434   34.1464   69.5153 Br  0  0  0  0  0  0  0  0  0  0  0  0
   15.1088   33.5233   70.8003 C   0  0  0  0  0  0  0  0  0  0  0  0
   16.4370   33.8497   70.6923 C   0  0  0  0  0  0  0  0  0  0  0  0
   17.3787   33.3956   71.6335 C   0  0  0  0  0  0  0  0  0  0  0  0
   17.0032   32.6128   72.6891 C   0  0  0  0  0  0  0  0  0  0  0  0
   15.6454   32.2798   72.7994 C   0  0  0  0  0  0  0  0  0  0  0  0
   14.7415   32.7341   71.8678 C   0  0  0  0  0  0  0  0  0  0  0  0
   18.1220   32.2814   73.4992 N   0  0  0  0  0  0  0  0  0  0  0  0
   19.2578   32.8901   72.9179 C   0  0  0  0  0  0  0  0  0  0  0  0
   20.4229   32.7727   73.4240 O   0  0  0  0  0  0  0  0  0  0  0  0
   18.8394   33.6105   71.7277 C   0  0  0  0  0  0  0  0  0  0  0  0
   19.1812   35.0194   71.7525 N   0  0  0  0  0  0  0  0  0  0  0  0
   20.5063   35.1130   71.1672 C   0  0  0  0  0  0  0  0  0  0  0  0
   20.4090   34.1502   70.0190 C   0  0  0  0  0  0  0  0  0  0  0  0
   19.5500   33.0390   70.5187 C   0  0  0  0  0  0  0  0  0  0  0  0
   20.4709   31.9429   70.8581 C   0  0  0  0  0  0  0  0  0  0  0  0
   20.2519   30.9081   71.5695 O   0  0  0  0  0  0  0  0  0  0  0  0
   21.7373   32.1832   70.2575 N   0  0  0  0  0  0  0  0  0  0  0  0
   21.6979   33.4898   69.7198 C   0  0  0  0  0  0  0  0  0  0  0  0
   22.6210   34.0588   69.0617 O   0  0  0  0  0  0  0  0  0  0  0  0
   18.0571   31.6865   74.3645 H   0  0  0  0  0  0  0  0  0  0  0  0
   19.1281   35.4295   72.7023 H   0  0  0  0  0  0  0  0  0  0  0  0
   20.7577   36.5246   70.7394 C   0  0  0  0  0  0  0  0  0  0  0  0
   21.1867   37.2420   71.8631 O   0  0  0  0  0  0  0  0  0  0  0  0
   19.4737   37.1618   70.2684 C   0  0  0  0  0  0  0  0  0  0  0  0
   20.7379   38.1249   71.9118 H   0  0  0  0  0  0  0  0  0  0  0  0
   22.8603   31.2681   70.2019 C   0  0  0  0  0  0  0  0  0  0  0  0
   23.7135   31.3359   71.4270 C   0  0  0  0  0  0  0  0  0  0  0  0
   24.9163   32.2223   71.0803 C   0  0  0  0  0  0  0  0  0  0  0  0
   25.4404   31.8848   69.7117 C   0  0  0  0  0  0  0  0  0  0  0  0
  1  2  1  0  0  0
  2  3  2  0  0  0
  2  7  1  0  0  0
  3  4  1  0  0  0
  4  5  2  0  0  0
  4 11  1  0  0  0
  5  6  1  0  0  0
  5  8  1  0  0  0
  6  7  2  0  0  0
  8  9  1  0  0  0
  9 10  2  0  0  0
  9 11  1  0  0  0
 11 12  1  0  0  0
 11 15  1  0  0  0
 12 13  1  0  0  0
 13 14  1  0  0  0
 13 23  1  0  0  0
 14 15  1  0  0  0
 14 19  1  0  0  0
 15 16  1  0  0  0
 16 17  2  0  0  0
 16 18  1  0  0  0
 18 19  1  0  0  0
 18 27  1  0  0  0
 19 20  2  0  0  0
 27 28  1  0  0  0
 28 29  1  0  0  0
 29 30  1  0  0  0
 23 24  1  0  0  0
 23 25  1  0  0  0
  8 21  1  0  0  0
 12 22  1  0  0  0
 24 26  1  0  0  0
M  END
> <minimizedAffinity>
-7.66958

$$$$
571


 34 38  0  0  0  0  0  0  0  0999 V2000
   19.8847   29.2568   77.5915 Br  0  0  0  0  0  0  0  0  0  0  0  0
   19.6422   28.2241   76.0039 C   0  0  0  0  0  0  0  0  0  0  0  0
   18.3977   27.8699   75.5324 C   0  0  0  0  0  0  0  0  0  0  0  0
   18.2252   27.1051   74.3686 C   0  0  0  0  0  0  0  0  0  0  0  0
   19.3586   26.7133   73.6990 C   0  0  0  0  0  0  0  0  0  0  0  0
   20.6159   27.0673   74.1677 C   0  0  0  0  0  0  0  0  0  0  0  0
   20.7728   27.8176   75.3120 C   0  0  0  0  0  0  0  0  0  0  0  0
   19.0324   25.9408   72.5599 N   0  0  0  0  0  0  0  0  0  0  0  0
   17.6270   25.8381   72.5064 C   0  0  0  0  0  0  0  0  0  0  0  0
   17.0261   25.2021   71.5954 O   0  0  0  0  0  0  0  0  0  0  0  0
   17.0623   26.5762   73.6555 C   0  0  0  0  0  0  0  0  0  0  0  0
   16.2882   25.6733   74.5130 N   0  0  0  0  0  0  0  0  0  0  0  0
   15.2191   26.4788   75.0592 C   0  0  0  0  0  0  0  0  0  0  0  0
   14.9586   27.5937   74.1249 C   0  0  0  0  0  0  0  0  0  0  0  0
   16.0983   27.5687   73.1228 C   0  0  0  0  0  0  0  0  0  0  0  0
   16.5406   28.9525   72.9984 C   0  0  0  0  0  0  0  0  0  0  0  0
   17.5452   29.3613   72.3649 O   0  0  0  0  0  0  0  0  0  0  0  0
   15.6474   29.8268   73.7212 N   0  0  0  0  0  0  0  0  0  0  0  0
   15.0320   28.9547   74.6922 C   0  0  0  0  0  0  0  0  0  0  0  0
   14.6363   29.3113   75.8121 O   0  0  0  0  0  0  0  0  0  0  0  0
   19.7196   25.5200   71.8757 H   0  0  0  0  0  0  0  0  0  0  0  0
   16.8814   25.2627   75.2698 H   0  0  0  0  0  0  0  0  0  0  0  0
   14.0082   25.6204   75.3390 C   0  0  0  0  0  0  0  0  0  0  0  0
   12.8842   26.4149   75.4587 O   0  0  0  0  0  0  0  0  0  0  0  0
   13.8340   24.5223   74.3181 C   0  0  0  0  0  0  0  0  0  0  0  0
   12.0655   25.8933   75.5595 H   0  0  0  0  0  0  0  0  0  0  0  0
   15.3859   31.2169   73.5254 C   0  0  0  0  0  0  0  0  0  0  0  0
   14.1764   31.5519   72.7022 C   0  0  0  0  0  0  0  0  0  0  0  0
   14.3472   32.6867   71.7785 C   0  0  0  0  0  0  0  0  0  0  0  0
   15.4976   33.4621   71.8574 C   0  0  0  0  0  0  0  0  0  0  0  0
   15.6785   34.4923   70.9969 C   0  0  0  0  0  0  0  0  0  0  0  0
   14.7678   34.8144   70.0324 C   0  0  0  0  0  0  0  0  0  0  0  0
   13.6239   34.0339   69.9620 C   0  0  0  0  0  0  0  0  0  0  0  0
   13.4181   32.9910   70.8187 C   0  0  0  0  0  0  0  0  0  0  0  0
  1  2  1  0  0  0
  2  3  2  0  0  0
  2  7  1  0  0  0
  3  4  1  0  0  0
  4  5  2  0  0  0
  4 11  1  0  0  0
  5  6  1  0  0  0
  5  8  1  0  0  0
  6  7  2  0  0  0
  8  9  1  0  0  0
  9 10  2  0  0  0
  9 11  1  0  0  0
 11 12  1  0  0  0
 11 15  1  0  0  0
 12 13  1  0  0  0
 13 14  1  0  0  0
 13 23  1  0  0  0
 14 15  1  0  0  0
 14 19  1  0  0  0
 15 16  1  0  0  0
 16 17  2  0  0  0
 16 18  1  0  0  0
 18 19  1  0  0  0
 18 27  1  0  0  0
 19 20  2  0  0  0
 27 28  1  0  0  0
 28 29  1  0  0  0
 29 30  2  0  0  0
 29 34  1  0  0  0
 30 31  1  0  0  0
 31 32  2  0  0  0
 32 33  1  0  0  0
 33 34  2  0  0  0
 23 24  1  0  0  0
 23 25  1  0  0  0
  8 21  1  0  0  0
 12 22  1  0  0  0
 24 26  1  0  0  0
M  END
> <minimizedAffinity>
-7.61085

$$$$
578


 27 30  0  0  0  0  0  0  0  0999 V2000
   13.6254   34.8150   70.1620 Br  0  0  0  0  0  0  0  0  0  0  0  0
   15.4750   35.2694   70.3033 C   0  0  0  0  0  0  0  0  0  0  0  0
   16.4266   34.3560   70.6814 C   0  0  0  0  0  0  0  0  0  0  0  0
   17.7959   34.6544   70.7965 C   0  0  0  0  0  0  0  0  0  0  0  0
   18.1703   35.9325   70.5084 C   0  0  0  0  0  0  0  0  0  0  0  0
   17.2078   36.8834   70.1198 C   0  0  0  0  0  0  0  0  0  0  0  0
   15.8752   36.5598   70.0171 C   0  0  0  0  0  0  0  0  0  0  0  0
   19.5747   36.0916   70.6547 N   0  0  0  0  0  0  0  0  0  0  0  0
   20.0971   34.8456   71.0536 C   0  0  0  0  0  0  0  0  0  0  0  0
   21.3376   34.5904   71.2733 O   0  0  0  0  0  0  0  0  0  0  0  0
   18.9731   33.8991   71.1703 C   0  0  0  0  0  0  0  0  0  0  0  0
   19.2728   32.8814   70.1471 N   0  0  0  0  0  0  0  0  0  0  0  0
   19.8295   31.7352   70.7955 C   0  0  0  0  0  0  0  0  0  0  0  0
   19.2430   31.7599   72.1587 C   0  0  0  0  0  0  0  0  0  0  0  0
   18.9325   33.1973   72.4772 C   0  0  0  0  0  0  0  0  0  0  0  0
   17.6725   33.1277   73.1814 C   0  0  0  0  0  0  0  0  0  0  0  0
   17.1681   34.0670   73.8644 O   0  0  0  0  0  0  0  0  0  0  0  0
   17.0989   31.8430   72.9832 N   0  0  0  0  0  0  0  0  0  0  0  0
   17.9101   31.0808   72.1011 C   0  0  0  0  0  0  0  0  0  0  0  0
   17.5290   30.0826   71.4583 O   0  0  0  0  0  0  0  0  0  0  0  0
   21.3392   31.6804   70.7976 C   0  0  0  0  0  0  0  0  0  0  0  0
   20.1433   36.9748   70.4979 H   0  0  0  0  0  0  0  0  0  0  0  0
   18.4178   32.6441   69.5973 H   0  0  0  0  0  0  0  0  0  0  0  0
   15.8561   31.4271   73.6193 C   0  0  0  0  0  0  0  0  0  0  0  0
   14.6647   31.6876   72.7482 C   0  0  0  0  0  0  0  0  0  0  0  0
   14.0614   30.4323   72.1776 C   0  0  0  0  0  0  0  0  0  0  0  0
   13.7748   30.7218   70.6999 C   0  0  0  0  0  0  0  0  0  0  0  0
  1  2  1  0  0  0
  2  3  2  0  0  0
  2  7  1  0  0  0
  3  4  1  0  0  0
  4  5  2  0  0  0
  4 11  1  0  0  0
  5  6  1  0  0  0
  5  8  1  0  0  0
  6  7  2  0  0  0
  8  9  1  0  0  0
  9 10  2  0  0  0
  9 11  1  0  0  0
 11 12  1  0  0  0
 11 15  1  0  0  0
 12 13  1  0  0  0
 13 14  1  0  0  0
 13 21  1  0  0  0
 14 15  1  0  0  0
 14 19  1  0  0  0
 15 16  1  0  0  0
 16 17  2  0  0  0
 16 18  1  0  0  0
 18 19  1  0  0  0
 18 24  1  0  0  0
 19 20  2  0  0  0
 24 25  1  0  0  0
 25 26  1  0  0  0
 26 27  1  0  0  0
  8 22  1  0  0  0
 12 23  1  0  0  0
M  END
> <minimizedAffinity>
-8.03515

$$$$
579


 32 35  0  0  0  0  0  0  0  0999 V2000
   21.2848   37.6246   71.0740 Br  0  0  0  0  0  0  0  0  0  0  0  0
   20.7152   35.8461   70.6868 C   0  0  0  0  0  0  0  0  0  0  0  0
   19.4500   35.3862   70.9772 C   0  0  0  0  0  0  0  0  0  0  0  0
   19.0394   34.0847   70.6909 C   0  0  0  0  0  0  0  0  0  0  0  0
   19.9238   33.2190   70.0976 C   0  0  0  0  0  0  0  0  0  0  0  0
   21.2044   33.6526   69.7938 C   0  0  0  0  0  0  0  0  0  0  0  0
   21.5903   34.9649   70.0915 C   0  0  0  0  0  0  0  0  0  0  0  0
   19.3020   31.9476   69.8885 N   0  0  0  0  0  0  0  0  0  0  0  0
   17.9715   32.0202   70.3720 C   0  0  0  0  0  0  0  0  0  0  0  0
   17.1709   31.0665   70.3182 O   0  0  0  0  0  0  0  0  0  0  0  0
   17.7564   33.3555   70.9059 C   0  0  0  0  0  0  0  0  0  0  0  0
   16.6814   33.9661   70.1246 N   0  0  0  0  0  0  0  0  0  0  0  0
   15.9034   34.7217   71.0603 C   0  0  0  0  0  0  0  0  0  0  0  0
   15.9200   33.8909   72.2911 C   0  0  0  0  0  0  0  0  0  0  0  0
   17.3533   33.4163   72.3490 C   0  0  0  0  0  0  0  0  0  0  0  0
   17.2909   32.1392   73.0464 C   0  0  0  0  0  0  0  0  0  0  0  0
   18.2534   31.5480   73.5810 O   0  0  0  0  0  0  0  0  0  0  0  0
   15.9427   31.6878   73.0080 N   0  0  0  0  0  0  0  0  0  0  0  0
   15.1752   32.6109   72.1992 C   0  0  0  0  0  0  0  0  0  0  0  0
   14.1348   32.2791   71.6082 O   0  0  0  0  0  0  0  0  0  0  0  0
   19.7810   31.1141   69.4466 H   0  0  0  0  0  0  0  0  0  0  0  0
   16.0625   33.2256   69.7164 H   0  0  0  0  0  0  0  0  0  0  0  0
   15.4636   30.5118   73.6747 C   0  0  0  0  0  0  0  0  0  0  0  0
   15.1610   29.3512   72.7866 C   0  0  0  0  0  0  0  0  0  0  0  0
   16.2939   28.7563   72.2564 O   0  0  0  0  0  0  0  0  0  0  0  0
   17.1049   28.2155   73.2514 C   0  0  0  0  0  0  0  0  0  0  0  0
   14.5513   35.0945   70.5570 C   0  0  0  0  0  0  0  0  0  0  0  0
   14.5957   36.4297   69.9505 C   0  0  0  0  0  0  0  0  0  0  0  0
   13.5598   36.9018   69.4020 O   0  0  0  0  0  0  0  0  0  0  0  0
   15.7932   37.2040   69.9720 N   0  0  0  0  0  0  0  0  0  0  0  0
   15.7459   38.2431   69.9871 H   0  0  0  0  0  0  0  0  0  0  0  0
   16.7149   36.7212   69.9726 H   0  0  0  0  0  0  0  0  0  0  0  0
  1  2  1  0  0  0
  2  3  2  0  0  0
  2  7  1  0  0  0
  3  4  1  0  0  0
  4  5  2  0  0  0
  4 11  1  0  0  0
  5  6  1  0  0  0
  5  8  1  0  0  0
  6  7  2  0  0  0
  8  9  1  0  0  0
  9 10  2  0  0  0
  9 11  1  0  0  0
 11 12  1  0  0  0
 11 15  1  0  0  0
 12 13  1  0  0  0
 13 14  1  0  0  0
 13 27  1  0  0  0
 14 15  1  0  0  0
 14 19  1  0  0  0
 15 16  1  0  0  0
 16 17  2  0  0  0
 16 18  1  0  0  0
 18 19  1  0  0  0
 18 23  1  0  0  0
 19 20  2  0  0  0
 23 24  1  0  0  0
 24 25  1  0  0  0
 25 26  1  0  0  0
 27 28  1  0  0  0
 28 29  2  0  0  0
 28 30  1  0  0  0
  8 21  1  0  0  0
 12 22  1  0  0  0
 30 31  1  0  0  0
 30 32  1  0  0  0
M  END
> <minimizedAffinity>
-7.83957

$$$$
588


 24 27  0  0  0  0  0  0  0  0999 V2000
   13.0809   34.6119   69.3845 Br  0  0  0  0  0  0  0  0  0  0  0  0
   14.8449   34.6152   70.1049 C   0  0  0  0  0  0  0  0  0  0  0  0
   15.6184   35.7240   69.9197 C   0  0  0  0  0  0  0  0  0  0  0  0
   16.9044   35.7536   70.4321 C   0  0  0  0  0  0  0  0  0  0  0  0
   17.4059   34.6623   71.1310 C   0  0  0  0  0  0  0  0  0  0  0  0
   16.6360   33.5340   71.3268 C   0  0  0  0  0  0  0  0  0  0  0  0
   15.3644   33.5493   70.7992 C   0  0  0  0  0  0  0  0  0  0  0  0
   18.6980   34.5794   71.6979 N   0  0  0  0  0  0  0  0  0  0  0  0
   18.9579   33.7348   72.7029 N   0  0  0  0  0  0  0  0  0  0  0  0
   20.2202   33.8993   72.9922 N   0  0  0  0  0  0  0  0  0  0  0  0
   20.7596   34.8156   72.2045 N   0  0  0  0  0  0  0  0  0  0  0  0
   19.7808   35.2602   71.3641 C   0  0  0  0  0  0  0  0  0  0  0  0
   20.0499   36.3151   70.3264 C   0  0  0  0  0  0  0  0  0  0  0  0
   18.9524   37.2774   70.2712 N   0  0  0  0  0  0  0  0  0  0  0  0
   17.5590   37.0306   70.1230 C   0  0  0  0  0  0  0  0  0  0  0  0
   16.8314   37.9705   69.6968 O   0  0  0  0  0  0  0  0  0  0  0  0
   20.0509   35.6036   69.0004 C   0  0  0  0  0  0  0  0  0  0  0  0
   20.7795   36.4248   67.9875 C   0  0  0  0  0  0  0  0  0  0  0  0
   22.0794   36.5281   68.4071 O   0  0  0  0  0  0  0  0  0  0  0  0
   22.2739   37.2372   69.5615 C   0  0  0  0  0  0  0  0  0  0  0  0
   21.3177   37.0152   70.6529 C   0  0  0  0  0  0  0  0  0  0  0  0
   20.8034   35.6740   66.6501 C   0  0  0  0  0  0  0  0  0  0  0  0
   20.1291   37.7539   67.7120 C   0  0  0  0  0  0  0  0  0  0  0  0
   19.2094   38.3077   70.3504 H   0  0  0  0  0  0  0  0  0  0  0  0
  1  2  1  0  0  0
  2  3  2  0  0  0
  2  7  1  0  0  0
  3  4  1  0  0  0
  4  5  2  0  0  0
  4 15  1  0  0  0
  5  6  1  0  0  0
  5  8  1  0  0  0
  6  7  2  0  0  0
  8  9  1  0  0  0
  8 12  1  0  0  0
  9 10  2  0  0  0
 10 11  1  0  0  0
 11 12  2  0  0  0
 12 13  1  0  0  0
 13 14  1  0  0  0
 13 17  1  0  0  0
 13 21  1  0  0  0
 14 15  1  0  0  0
 15 16  2  0  0  0
 17 18  1  0  0  0
 18 19  1  0  0  0
 18 22  1  0  0  0
 18 23  1  0  0  0
 19 20  1  0  0  0
 20 21  1  0  0  0
 14 24  1  0  0  0
M  END
> <minimizedAffinity>
-8.60591

$$$$
591


 23 26  0  0  0  0  0  0  0  0999 V2000
   14.0791   31.6365   72.5279 Br  0  0  0  0  0  0  0  0  0  0  0  0
   15.1842   33.0333   71.8106 C   0  0  0  0  0  0  0  0  0  0  0  0
   16.4804   33.1938   72.2518 C   0  0  0  0  0  0  0  0  0  0  0  0
   17.2702   34.1985   71.7328 C   0  0  0  0  0  0  0  0  0  0  0  0
   16.8218   35.0796   70.7673 C   0  0  0  0  0  0  0  0  0  0  0  0
   15.5099   34.9036   70.3339 C   0  0  0  0  0  0  0  0  0  0  0  0
   14.7146   33.9006   70.8472 C   0  0  0  0  0  0  0  0  0  0  0  0
   17.4899   36.1488   70.1387 N   0  0  0  0  0  0  0  0  0  0  0  0
   16.8732   37.0758   69.4237 N   0  0  0  0  0  0  0  0  0  0  0  0
   17.7915   37.9202   68.9808 N   0  0  0  0  0  0  0  0  0  0  0  0
   18.9658   37.5270   69.4127 N   0  0  0  0  0  0  0  0  0  0  0  0
   18.8148   36.4015   70.1541 C   0  0  0  0  0  0  0  0  0  0  0  0
   19.9754   35.7460   70.7598 C   0  0  0  0  0  0  0  0  0  0  0  0
   19.7428   35.0105   71.9544 N   0  0  0  0  0  0  0  0  0  0  0  0
   18.6153   34.2270   72.3108 C   0  0  0  0  0  0  0  0  0  0  0  0
   18.7261   33.4109   73.2645 O   0  0  0  0  0  0  0  0  0  0  0  0
   20.6494   34.7749   69.7781 C   0  0  0  0  0  0  0  0  0  0  0  0
   22.1340   34.7747   70.0406 C   0  0  0  0  0  0  0  0  0  0  0  0
   22.6794   35.9761   69.4503 N   0  0  0  0  0  0  0  0  0  0  0  0
   21.8771   37.1018   69.8501 C   0  0  0  0  0  0  0  0  0  0  0  0
   21.0169   36.8191   71.0570 C   0  0  0  0  0  0  0  0  0  0  0  0
   22.6752   35.7969   67.9992 C   0  0  0  0  0  0  0  0  0  0  0  0
   20.5059   35.0547   72.6604 H   0  0  0  0  0  0  0  0  0  0  0  0
  1  2  1  0  0  0
  2  3  2  0  0  0
  2  7  1  0  0  0
  3  4  1  0  0  0
  4  5  2  0  0  0
  4 15  1  0  0  0
  5  6  1  0  0  0
  5  8  1  0  0  0
  6  7  2  0  0  0
  8  9  1  0  0  0
  8 12  1  0  0  0
  9 10  2  0  0  0
 10 11  1  0  0  0
 11 12  2  0  0  0
 12 13  1  0  0  0
 13 14  1  0  0  0
 13 17  1  0  0  0
 13 21  1  0  0  0
 14 15  1  0  0  0
 15 16  2  0  0  0
 17 18  1  0  0  0
 18 19  1  0  0  0
 19 20  1  0  0  0
 19 22  1  0  0  0
 20 21  1  0  0  0
 14 23  1  0  0  0
M  END
> <minimizedAffinity>
-8.68566

$$$$
592


 27 30  0  0  0  0  0  0  0  0999 V2000
   16.1760   37.6120   69.8995 Br  0  0  0  0  0  0  0  0  0  0  0  0
   15.8580   35.9259   70.7137 C   0  0  0  0  0  0  0  0  0  0  0  0
   16.9226   35.2019   71.1740 C   0  0  0  0  0  0  0  0  0  0  0  0
   16.6874   33.9600   71.7730 C   0  0  0  0  0  0  0  0  0  0  0  0
   15.4115   33.5147   71.8787 C   0  0  0  0  0  0  0  0  0  0  0  0
   14.3159   34.2643   71.4027 C   0  0  0  0  0  0  0  0  0  0  0  0
   14.5511   35.4833   70.8142 C   0  0  0  0  0  0  0  0  0  0  0  0
   15.1265   32.2939   72.4633 O   0  0  0  0  0  0  0  0  0  0  0  0
   16.1708   31.5317   72.9406 C   0  0  0  0  0  0  0  0  0  0  0  0
   17.4289   31.8966   72.8741 C   0  0  0  0  0  0  0  0  0  0  0  0
   17.8263   33.1640   72.2765 C   0  0  0  0  0  0  0  0  0  0  0  0
   18.8773   33.0082   71.2424 C   0  0  0  0  0  0  0  0  0  0  0  0
   20.0028   33.6597   71.6645 C   0  0  0  0  0  0  0  0  0  0  0  0
   20.9686   33.5137   70.7100 N   0  0  0  0  0  0  0  0  0  0  0  0
   20.4319   32.7924   69.7421 N   0  0  0  0  0  0  0  0  0  0  0  0
   19.1644   32.4632   70.0223 C   0  0  0  0  0  0  0  0  0  0  0  0
   18.2877   31.6515   69.1248 C   0  0  0  0  0  0  0  0  0  0  0  0
   19.8018   34.2585   72.9267 N   0  0  0  0  0  0  0  0  0  0  0  0
   18.4852   33.9740   73.3240 C   0  0  0  0  0  0  0  0  0  0  0  0
   17.9192   34.3315   74.3914 O   0  0  0  0  0  0  0  0  0  0  0  0
   15.8585   30.2658   73.5447 N   0  0  0  0  0  0  0  0  0  0  0  0
   20.9796   32.5368   68.8777 H   0  0  0  0  0  0  0  0  0  0  0  0
   20.5384   34.8251   73.4649 H   0  0  0  0  0  0  0  0  0  0  0  0
   14.9794   29.7721   73.2783 H   0  0  0  0  0  0  0  0  0  0  0  0
   16.4831   29.8131   74.2491 H   0  0  0  0  0  0  0  0  0  0  0  0
   18.4679   31.0420   73.3972 C   0  0  0  0  0  0  0  0  0  0  0  0
   19.3005   30.3455   73.8003 N   0  0  0  0  0  0  0  0  0  0  0  0
  1  2  1  0  0  0
  2  3  2  0  0  0
  2  7  1  0  0  0
  3  4  1  0  0  0
  4  5  2  0  0  0
  4 11  1  0  0  0
  5  6  1  0  0  0
  5  8  1  0  0  0
  6  7  2  0  0  0
  8  9  1  0  0  0
  9 10  2  0  0  0
  9 21  1  0  0  0
 10 11  1  0  0  0
 10 26  1  0  0  0
 11 12  1  0  0  0
 11 19  1  0  0  0
 12 13  1  0  0  0
 12 16  2  0  0  0
 13 14  2  0  0  0
 13 18  1  0  0  0
 14 15  1  0  0  0
 15 16  1  0  0  0
 16 17  1  0  0  0
 18 19  1  0  0  0
 19 20  2  0  0  0
 26 27  3  0  0  0
 15 22  1  0  0  0
 18 23  1  0  0  0
 21 24  1  0  0  0
 21 25  1  0  0  0
M  END
> <minimizedAffinity>
-7.17490

$$$$
596


 29 32  0  0  0  0  0  0  0  0999 V2000
   19.1669   36.5147   69.7114 C   0  0  0  0  0  0  0  0  0  0  0  0
   18.3224   37.4184   69.0867 C   0  0  0  0  0  0  0  0  0  0  0  0
   16.9607   37.3583   69.2948 C   0  0  0  0  0  0  0  0  0  0  0  0
   16.2513   38.2195   68.6850 O   0  0  0  0  0  0  0  0  0  0  0  0
   16.4474   36.4601   70.0782 O   0  0  0  0  0  0  0  0  0  0  0  0
   17.1698   35.5989   70.6849 C   0  0  0  0  0  0  0  0  0  0  0  0
   18.5691   35.5875   70.5289 C   0  0  0  0  0  0  0  0  0  0  0  0
   19.3160   34.6632   71.1994 C   0  0  0  0  0  0  0  0  0  0  0  0
   18.6446   33.7509   72.0207 C   0  0  0  0  0  0  0  0  0  0  0  0
   17.2703   33.7860   72.1493 C   0  0  0  0  0  0  0  0  0  0  0  0
   16.4867   34.7062   71.4900 C   0  0  0  0  0  0  0  0  0  0  0  0
   16.6923   32.8177   72.9987 O   0  0  0  0  0  0  0  0  0  0  0  0
   25.2106   34.5409   65.2761 Br  0  0  0  0  0  0  0  0  0  0  0  0
   24.4413   35.4004   66.7791 C   0  0  0  0  0  0  0  0  0  0  0  0
   23.0809   35.3493   67.0230 C   0  0  0  0  0  0  0  0  0  0  0  0
   22.4777   35.9512   68.1121 C   0  0  0  0  0  0  0  0  0  0  0  0
   23.2884   36.6349   68.9953 C   0  0  0  0  0  0  0  0  0  0  0  0
   24.6591   36.7212   68.8030 C   0  0  0  0  0  0  0  0  0  0  0  0
   25.2190   36.1094   67.7058 C   0  0  0  0  0  0  0  0  0  0  0  0
   22.7320   37.2254   70.0548 O   0  0  0  0  0  0  0  0  0  0  0  0
   21.4696   37.1912   70.2988 C   0  0  0  0  0  0  0  0  0  0  0  0
   20.9325   37.7487   71.3059 O   0  0  0  0  0  0  0  0  0  0  0  0
   20.6061   36.5259   69.4546 C   0  0  0  0  0  0  0  0  0  0  0  0
   21.1263   35.8994   68.3449 C   0  0  0  0  0  0  0  0  0  0  0  0
   15.0553   34.6159   71.5961 C   0  0  0  0  0  0  0  0  0  0  0  0
   14.2749   33.6446   70.9453 N   0  0  0  0  0  0  0  0  0  0  0  0
   13.3020   32.9370   71.7309 C   0  0  0  0  0  0  0  0  0  0  0  0
   13.7202   34.1364   69.6581 C   0  0  0  0  0  0  0  0  0  0  0  0
   14.9374   32.8768   70.6327 H   0  0  0  0  0  0  0  0  0  0  0  0
 13 14  1  0  0  0
 14 15  2  0  0  0
 14 19  1  0  0  0
 15 16  1  0  0  0
 16 17  2  0  0  0
 16 24  1  0  0  0
 17 18  1  0  0  0
 17 20  1  0  0  0
 18 19  2  0  0  0
 20 21  1  0  0  0
 21 22  2  0  0  0
 21 23  1  0  0  0
 23 24  2  0  0  0
 23  1  1  0  0  0
  1  2  2  0  0  0
  1  7  1  0  0  0
  2  3  1  0  0  0
  3  4  2  0  0  0
  3  5  1  0  0  0
  5  6  1  0  0  0
  6  7  2  0  0  0
  6 11  1  0  0  0
  7  8  1  0  0  0
  8  9  2  0  0  0
  9 10  1  0  0  0
 10 11  2  0  0  0
 10 12  1  0  0  0
 11 25  1  0  0  0
 25 26  1  0  0  0
 26 27  1  0  0  0
 26 28  1  0  0  0
 26 29  1  0  0  0
M  CHG 1  12  -1
M  CHG 1  26   1
M  END
> <minimizedAffinity>
-9.15532

$$$$
610


 32 35  0  0  0  0  0  0  0  0999 V2000
   17.3830   38.9892   66.9259 Br  0  0  0  0  0  0  0  0  0  0  0  0
   17.6049   37.8295   68.4248 C   0  0  0  0  0  0  0  0  0  0  0  0
   18.8142   37.1758   68.6448 C   0  0  0  0  0  0  0  0  0  0  0  0
   18.9769   36.3326   69.7354 C   0  0  0  0  0  0  0  0  0  0  0  0
   17.9342   36.1347   70.6147 C   0  0  0  0  0  0  0  0  0  0  0  0
   18.0927   35.3139   71.6836 N   0  0  0  0  0  0  0  0  0  0  0  0
   19.2520   34.6745   71.9201 C   0  0  0  0  0  0  0  0  0  0  0  0
   20.2532   34.8786   71.0556 N   0  0  0  0  0  0  0  0  0  0  0  0
   20.1666   35.6768   69.9758 C   0  0  0  0  0  0  0  0  0  0  0  0
   16.7375   36.7972   70.3733 C   0  0  0  0  0  0  0  0  0  0  0  0
   16.5547   37.6387   69.2978 C   0  0  0  0  0  0  0  0  0  0  0  0
   19.3828   33.8173   73.0611 N   0  0  0  0  0  0  0  0  0  0  0  0
   19.9334   32.5499   72.6645 C   0  0  0  0  0  0  0  0  0  0  0  0
   18.9733   31.6539   71.9586 C   0  0  0  0  0  0  0  0  0  0  0  0
   17.6035   32.0997   72.0841 N   0  0  0  0  0  0  0  0  0  0  0  0
   17.2188   32.6688   73.3571 C   0  0  0  0  0  0  0  0  0  0  0  0
   18.1817   33.7129   73.8309 C   0  0  0  0  0  0  0  0  0  0  0  0
   16.7364   31.9549   70.9744 C   0  0  0  0  0  0  0  0  0  0  0  0
   17.1417   31.4529   69.9031 O   0  0  0  0  0  0  0  0  0  0  0  0
   20.1341   34.2824   73.6536 H   0  0  0  0  0  0  0  0  0  0  0  0
   15.3341   32.4292   71.1583 C   0  0  0  0  0  0  0  0  0  0  0  0
   15.0297   33.6021   70.2762 C   0  0  0  0  0  0  0  0  0  0  0  0
   13.5905   33.7989   70.0455 C   0  0  0  0  0  0  0  0  0  0  0  0
   13.1636   34.3361   69.0024 O   0  0  0  0  0  0  0  0  0  0  0  0
   12.6888   33.3798   71.0021 O   0  0  0  0  0  0  0  0  0  0  0  0
   21.3156   35.8312   69.0982 C   0  0  0  0  0  0  0  0  0  0  0  0
   22.2805   36.7922   69.3671 C   0  0  0  0  0  0  0  0  0  0  0  0
   23.3899   36.9591   68.5661 C   0  0  0  0  0  0  0  0  0  0  0  0
   23.5887   36.1681   67.4534 C   0  0  0  0  0  0  0  0  0  0  0  0
   22.6220   35.2064   67.1858 C   0  0  0  0  0  0  0  0  0  0  0  0
   21.5161   35.0469   67.9913 C   0  0  0  0  0  0  0  0  0  0  0  0
   22.0528   37.8199   70.7842 Cl  0  0  0  0  0  0  0  0  0  0  0  0
  1  2  1  0  0  0
  2  3  2  0  0  0
  2 11  1  0  0  0
  3  4  1  0  0  0
  4  5  2  0  0  0
  4  9  1  0  0  0
  5  6  1  0  0  0
  5 10  1  0  0  0
  6  7  2  0  0  0
  7  8  1  0  0  0
  7 12  1  0  0  0
  8  9  2  0  0  0
  9 26  1  0  0  0
 26 27  2  0  0  0
 26 31  1  0  0  0
 27 28  1  0  0  0
 27 32  1  0  0  0
 28 29  2  0  0  0
 29 30  1  0  0  0
 30 31  2  0  0  0
 12 13  1  0  0  0
 12 17  1  0  0  0
 13 14  1  0  0  0
 14 15  1  0  0  0
 15 16  1  0  0  0
 15 18  1  0  0  0
 16 17  1  0  0  0
 18 19  2  0  0  0
 18 21  1  0  0  0
 21 22  1  0  0  0
 22 23  1  0  0  0
 23 24  2  0  0  0
 23 25  1  0  0  0
 10 11  2  0  0  0
 12 20  1  0  0  0
M  CHG 1  12   1
M  END
> <minimizedAffinity>
-8.57005

$$$$
611


 33 36  0  0  0  0  0  0  0  0999 V2000
   14.0996   30.9089   73.4937 Br  0  0  0  0  0  0  0  0  0  0  0  0
   15.6527   31.8207   72.8521 C   0  0  0  0  0  0  0  0  0  0  0  0
   15.5673   32.8934   71.9825 C   0  0  0  0  0  0  0  0  0  0  0  0
   16.6669   33.5708   71.5024 C   0  0  0  0  0  0  0  0  0  0  0  0
   17.9349   33.1812   71.8926 C   0  0  0  0  0  0  0  0  0  0  0  0
   19.0309   33.8292   71.4256 N   0  0  0  0  0  0  0  0  0  0  0  0
   18.9470   34.8663   70.5754 C   0  0  0  0  0  0  0  0  0  0  0  0
   17.7140   35.2474   70.1959 N   0  0  0  0  0  0  0  0  0  0  0  0
   16.5889   34.6339   70.6327 C   0  0  0  0  0  0  0  0  0  0  0  0
   18.0302   32.1147   72.7590 C   0  0  0  0  0  0  0  0  0  0  0  0
   16.9174   31.4350   73.2395 C   0  0  0  0  0  0  0  0  0  0  0  0
   20.1194   35.5230   70.1066 N   0  0  0  0  0  0  0  0  0  0  0  0
   21.2337   34.6045   70.0321 C   0  0  0  0  0  0  0  0  0  0  0  0
   22.2761   35.1940   69.1356 C   0  0  0  0  0  0  0  0  0  0  0  0
   21.9867   36.6015   68.9518 N   0  0  0  0  0  0  0  0  0  0  0  0
   21.6218   37.3644   70.1319 C   0  0  0  0  0  0  0  0  0  0  0  0
   20.5252   36.6389   70.9211 C   0  0  0  0  0  0  0  0  0  0  0  0
   22.0715   37.1525   67.6624 C   0  0  0  0  0  0  0  0  0  0  0  0
   21.8119   38.3740   67.5281 O   0  0  0  0  0  0  0  0  0  0  0  0
   19.9068   35.8861   69.1540 H   0  0  0  0  0  0  0  0  0  0  0  0
   22.4457   36.3587   66.4901 C   0  0  0  0  0  0  0  0  0  0  0  0
   23.5428   37.0505   65.7337 C   0  0  0  0  0  0  0  0  0  0  0  0
   24.8357   36.2653   65.7353 C   0  0  0  0  0  0  0  0  0  0  0  0
   24.9075   35.2648   64.6521 C   0  0  0  0  0  0  0  0  0  0  0  0
   24.8043   34.0576   64.9740 O   0  0  0  0  0  0  0  0  0  0  0  0
   25.0827   35.6734   63.3385 O   0  0  0  0  0  0  0  0  0  0  0  0
   15.2795   35.0861   70.1877 C   0  0  0  0  0  0  0  0  0  0  0  0
   14.9309   36.4280   70.1826 C   0  0  0  0  0  0  0  0  0  0  0  0
   13.6826   36.8686   69.7805 C   0  0  0  0  0  0  0  0  0  0  0  0
   12.7586   35.9012   69.3681 C   0  0  0  0  0  0  0  0  0  0  0  0
   13.0731   34.5583   69.3612 C   0  0  0  0  0  0  0  0  0  0  0  0
   14.3110   34.1715   69.7654 C   0  0  0  0  0  0  0  0  0  0  0  0
   16.1094   37.6207   70.7053 Cl  0  0  0  0  0  0  0  0  0  0  0  0
  1  2  1  0  0  0
  2  3  2  0  0  0
  2 11  1  0  0  0
  3  4  1  0  0  0
  4  5  2  0  0  0
  4  9  1  0  0  0
  5  6  1  0  0  0
  5 10  1  0  0  0
  6  7  2  0  0  0
  7  8  1  0  0  0
  7 12  1  0  0  0
  8  9  2  0  0  0
  9 27  1  0  0  0
 27 28  2  0  0  0
 27 32  1  0  0  0
 28 29  1  0  0  0
 28 33  1  0  0  0
 29 30  2  0  0  0
 30 31  1  0  0  0
 31 32  2  0  0  0
 12 13  1  0  0  0
 12 17  1  0  0  0
 13 14  1  0  0  0
 14 15  1  0  0  0
 15 16  1  0  0  0
 15 18  1  0  0  0
 16 17  1  0  0  0
 18 19  2  0  0  0
 18 21  1  0  0  0
 21 22  1  0  0  0
 22 23  1  0  0  0
 23 24  1  0  0  0
 24 25  2  0  0  0
 24 26  1  0  0  0
 10 11  2  0  0  0
 12 20  1  0  0  0
M  CHG 1  12   1
M  END
> <minimizedAffinity>
-9.92092

$$$$
616


 28 31  0  0  0  0  0  0  0  0999 V2000
   21.1042   36.8546   70.0234 C   0  0  0  0  0  0  0  0  0  0  0  0
   21.6748   37.5650   70.9361 O   0  0  0  0  0  0  0  0  0  0  0  0
   21.9576   36.2883   69.0761 N   0  0  0  0  0  0  0  0  0  0  0  0
   21.5708   35.4730   67.9564 C   0  0  0  0  0  0  0  0  0  0  0  0
   22.7720   35.0728   67.0896 C   0  0  0  0  0  0  0  0  0  0  0  0
   23.5657   36.2622   66.8220 N   0  0  0  0  0  0  0  0  0  0  0  0
   23.8404   37.2116   67.9016 C   0  0  0  0  0  0  0  0  0  0  0  0
   23.4238   36.5085   69.1965 C   0  0  0  0  0  0  0  0  0  0  0  0
   24.0780   36.5250   65.5325 C   0  0  0  0  0  0  0  0  0  0  0  0
   23.8164   35.6923   64.6317 O   0  0  0  0  0  0  0  0  0  0  0  0
   13.7427   34.3331   71.1786 Br  0  0  0  0  0  0  0  0  0  0  0  0
   15.2606   35.3884   70.6657 C   0  0  0  0  0  0  0  0  0  0  0  0
   16.5454   34.9694   70.8964 C   0  0  0  0  0  0  0  0  0  0  0  0
   17.6458   35.7445   70.5202 C   0  0  0  0  0  0  0  0  0  0  0  0
   17.4488   36.9510   69.9067 C   0  0  0  0  0  0  0  0  0  0  0  0
   18.6724   37.5061   69.6444 N   0  0  0  0  0  0  0  0  0  0  0  0
   19.6620   36.7123   70.0620 C   0  0  0  0  0  0  0  0  0  0  0  0
   18.9994   35.5897   70.6194 C   0  0  0  0  0  0  0  0  0  0  0  0
   16.1566   37.3806   69.6701 C   0  0  0  0  0  0  0  0  0  0  0  0
   15.0701   36.6044   70.0475 C   0  0  0  0  0  0  0  0  0  0  0  0
   18.7483   38.4214   69.1773 H   0  0  0  0  0  0  0  0  0  0  0  0
   24.8677   37.7255   65.3083 C   0  0  0  0  0  0  0  0  0  0  0  0
   24.3642   38.6059   64.2775 N   0  0  0  0  0  0  0  0  0  0  0  0
   25.4928   39.1192   63.4978 C   0  0  0  0  0  0  0  0  0  0  0  0
   25.9090   40.4658   63.9788 C   0  0  0  0  0  0  0  0  0  0  0  0
   25.7645   40.5624   65.3607 O   0  0  0  0  0  0  0  0  0  0  0  0
   24.4173   40.5794   65.7291 C   0  0  0  0  0  0  0  0  0  0  0  0
   23.5886   39.7130   64.8086 C   0  0  0  0  0  0  0  0  0  0  0  0
 11 12  1  0  0  0
 12 13  2  0  0  0
 12 20  1  0  0  0
 13 14  1  0  0  0
 14 15  2  0  0  0
 14 18  1  0  0  0
 15 16  1  0  0  0
 15 19  1  0  0  0
 16 17  1  0  0  0
 17 18  2  0  0  0
 17  1  1  0  0  0
  1  2  2  0  0  0
  1  3  1  0  0  0
  3  4  1  0  0  0
  3  8  1  0  0  0
  4  5  1  0  0  0
  5  6  1  0  0  0
  6  7  1  0  0  0
  6  9  1  0  0  0
  7  8  1  0  0  0
  9 10  2  0  0  0
  9 22  1  0  0  0
 22 23  1  0  0  0
 23 24  1  0  0  0
 23 28  1  0  0  0
 24 25  1  0  0  0
 25 26  1  0  0  0
 26 27  1  0  0  0
 27 28  1  0  0  0
 19 20  2  0  0  0
 16 21  1  0  0  0
M  END
> <minimizedAffinity>
-8.98319

$$$$
617


 25 28  0  0  0  0  0  0  0  0999 V2000
   13.6784   34.4681   71.4836 Br  0  0  0  0  0  0  0  0  0  0  0  0
   15.1298   35.5352   70.8728 C   0  0  0  0  0  0  0  0  0  0  0  0
   16.4095   35.0270   70.7877 C   0  0  0  0  0  0  0  0  0  0  0  0
   17.4731   35.7879   70.3468 C   0  0  0  0  0  0  0  0  0  0  0  0
   17.2287   37.0989   69.9840 C   0  0  0  0  0  0  0  0  0  0  0  0
   18.4195   37.5944   69.6024 N   0  0  0  0  0  0  0  0  0  0  0  0
   19.3941   36.6570   69.7084 C   0  0  0  0  0  0  0  0  0  0  0  0
   18.8107   35.5005   70.1804 C   0  0  0  0  0  0  0  0  0  0  0  0
   19.5919   34.4188   70.3693 N   0  0  0  0  0  0  0  0  0  0  0  0
   20.9133   34.4380   70.1106 C   0  0  0  0  0  0  0  0  0  0  0  0
   21.5070   35.5473   69.6507 N   0  0  0  0  0  0  0  0  0  0  0  0
   20.7473   36.6355   69.4565 C   0  0  0  0  0  0  0  0  0  0  0  0
   21.2870   37.6853   69.0259 O   0  0  0  0  0  0  0  0  0  0  0  0
   15.9417   37.5959   70.0748 C   0  0  0  0  0  0  0  0  0  0  0  0
   14.8722   36.8426   70.5151 C   0  0  0  0  0  0  0  0  0  0  0  0
   18.5967   38.5597   69.2678 H   0  0  0  0  0  0  0  0  0  0  0  0
   22.9524   35.5757   69.3679 C   0  0  0  0  0  0  0  0  0  0  0  0
   23.2810   34.6512   68.2598 C   0  0  0  0  0  0  0  0  0  0  0  0
   24.3207   35.0487   67.3818 N   0  0  0  0  0  0  0  0  0  0  0  0
   24.3067   36.4175   66.9974 C   0  0  0  0  0  0  0  0  0  0  0  0
   23.6399   36.6624   65.6741 C   0  0  0  0  0  0  0  0  0  0  0  0
   23.9020   35.6096   64.7163 N   0  0  0  0  0  0  0  0  0  0  0  0
   25.0437   34.8050   65.1179 C   0  0  0  0  0  0  0  0  0  0  0  0
   24.6385   34.0909   66.3841 C   0  0  0  0  0  0  0  0  0  0  0  0
   23.0633   35.0087   64.5474 H   0  0  0  0  0  0  0  0  0  0  0  0
  1  2  1  0  0  0
  2  3  2  0  0  0
  2 15  1  0  0  0
  3  4  1  0  0  0
  4  5  2  0  0  0
  4  8  1  0  0  0
  5  6  1  0  0  0
  5 14  1  0  0  0
  6  7  1  0  0  0
  7  8  2  0  0  0
  7 12  1  0  0  0
  8  9  1  0  0  0
  9 10  2  0  0  0
 10 11  1  0  0  0
 11 12  1  0  0  0
 11 17  1  0  0  0
 12 13  2  0  0  0
 17 18  1  0  0  0
 18 19  1  0  0  0
 19 20  1  0  0  0
 19 24  1  0  0  0
 20 21  1  0  0  0
 21 22  1  0  0  0
 22 23  1  0  0  0
 23 24  1  0  0  0
 14 15  2  0  0  0
  6 16  1  0  0  0
 22 25  1  0  0  0
M  END
> <minimizedAffinity>
-8.00368

$$$$
624


 22 25  0  0  0  0  0  0  0  0999 V2000
   13.5349   36.5978   69.6909 Br  0  0  0  0  0  0  0  0  0  0  0  0
   15.2570   36.0554   70.2971 C   0  0  0  0  0  0  0  0  0  0  0  0
   15.3468   35.0497   71.2364 C   0  0  0  0  0  0  0  0  0  0  0  0
   16.5988   34.6285   71.7024 C   0  0  0  0  0  0  0  0  0  0  0  0
   17.7060   35.2354   71.2038 C   0  0  0  0  0  0  0  0  0  0  0  0
   17.6666   36.2434   70.2654 C   0  0  0  0  0  0  0  0  0  0  0  0
   16.4301   36.6390   69.8249 C   0  0  0  0  0  0  0  0  0  0  0  0
   18.8612   36.7680   69.8496 C   0  0  0  0  0  0  0  0  0  0  0  0
   18.8399   37.6768   69.0033 O   0  0  0  0  0  0  0  0  0  0  0  0
   20.0830   36.3248   70.3336 C   0  0  0  0  0  0  0  0  0  0  0  0
   20.0528   35.3143   71.2704 C   0  0  0  0  0  0  0  0  0  0  0  0
   18.8613   34.7827   71.6939 N   0  0  0  0  0  0  0  0  0  0  0  0
   18.5456   33.7396   72.6439 C   0  0  0  0  0  0  0  0  0  0  0  0
   17.0465   33.6142   72.6721 C   0  0  0  0  0  0  0  0  0  0  0  0
   21.3472   36.8938   69.8791 C   0  0  0  0  0  0  0  0  0  0  0  0
   21.9269   37.7425   70.5945 O   0  0  0  0  0  0  0  0  0  0  0  0
   21.9259   36.4924   68.6297 N   0  0  0  0  0  0  0  0  0  0  0  0
   23.1780   37.0415   68.1553 C   0  0  0  0  0  0  0  0  0  0  0  0
   22.8977   37.5823   66.7474 C   0  0  0  0  0  0  0  0  0  0  0  0
   22.3263   36.5919   65.9854 O   0  0  0  0  0  0  0  0  0  0  0  0
   21.0828   36.1874   66.4234 C   0  0  0  0  0  0  0  0  0  0  0  0
   21.2731   35.5125   67.7845 C   0  0  0  0  0  0  0  0  0  0  0  0
  1  2  1  0  0  0
  2  3  2  0  0  0
  2  7  1  0  0  0
  3  4  1  0  0  0
  4  5  2  0  0  0
  4 14  1  0  0  0
  5  6  1  0  0  0
  5 12  1  0  0  0
  6  7  2  0  0  0
  6  8  1  0  0  0
  8  9  2  0  0  0
  8 10  1  0  0  0
 10 11  2  0  0  0
 10 15  1  0  0  0
 11 12  1  0  0  0
 12 13  1  0  0  0
 13 14  1  0  0  0
 15 16  2  0  0  0
 15 17  1  0  0  0
 17 18  1  0  0  0
 17 22  1  0  0  0
 18 19  1  0  0  0
 19 20  1  0  0  0
 20 21  1  0  0  0
 21 22  1  0  0  0
M  END
> <minimizedAffinity>
-8.75024

$$$$
625


 31 34  0  0  0  0  0  0  0  0999 V2000
   17.4556   38.9023   67.6565 Br  0  0  0  0  0  0  0  0  0  0  0  0
   18.0347   37.4970   68.7706 C   0  0  0  0  0  0  0  0  0  0  0  0
   17.1796   36.9052   69.6859 C   0  0  0  0  0  0  0  0  0  0  0  0
   17.5787   35.8978   70.5155 C   0  0  0  0  0  0  0  0  0  0  0  0
   16.8693   35.1653   71.4259 N   0  0  0  0  0  0  0  0  0  0  0  0
   17.7043   34.2386   71.9275 C   0  0  0  0  0  0  0  0  0  0  0  0
   18.9887   34.4049   71.3427 C   0  0  0  0  0  0  0  0  0  0  0  0
   18.8505   35.4470   70.4620 C   0  0  0  0  0  0  0  0  0  0  0  0
   19.7322   36.0262   69.5458 C   0  0  0  0  0  0  0  0  0  0  0  0
   19.3399   37.0491   68.6946 C   0  0  0  0  0  0  0  0  0  0  0  0
   20.2003   37.6460   67.7557 O   0  0  0  0  0  0  0  0  0  0  0  0
   19.8355   38.3949   67.1494 H   0  0  0  0  0  0  0  0  0  0  0  0
   20.2477   33.7505   71.7226 C   0  0  0  0  0  0  0  0  0  0  0  0
   20.5453   33.7394   72.9473 O   0  0  0  0  0  0  0  0  0  0  0  0
   21.1116   33.1450   70.8723 O   0  0  0  0  0  0  0  0  0  0  0  0
   22.4805   33.2527   70.7141 C   0  0  0  0  0  0  0  0  0  0  0  0
   22.9181   34.2004   69.6041 C   0  0  0  0  0  0  0  0  0  0  0  0
   15.5565   35.6258   71.9185 C   0  0  0  0  0  0  0  0  0  0  0  0
   14.5495   35.2310   70.8142 C   0  0  0  0  0  0  0  0  0  0  0  0
   13.9024   36.2716   70.2136 C   0  0  0  0  0  0  0  0  0  0  0  0
   12.9805   35.9910   69.1915 C   0  0  0  0  0  0  0  0  0  0  0  0
   12.7101   34.7235   68.7698 C   0  0  0  0  0  0  0  0  0  0  0  0
   13.3998   33.6941   69.4113 C   0  0  0  0  0  0  0  0  0  0  0  0
   14.3177   33.9595   70.4350 C   0  0  0  0  0  0  0  0  0  0  0  0
   17.4319   33.1455   72.8606 C   0  0  0  0  0  0  0  0  0  0  0  0
   16.4382   32.1754   72.5198 N   0  0  0  0  0  0  0  0  0  0  0  0
   15.6026   31.4526   73.3045 C   0  0  0  0  0  0  0  0  0  0  0  0
   15.3913   30.0773   72.6260 C   0  0  0  0  0  0  0  0  0  0  0  0
   15.6548   30.4567   71.1708 C   0  0  0  0  0  0  0  0  0  0  0  0
   16.8730   31.3448   71.3840 C   0  0  0  0  0  0  0  0  0  0  0  0
   15.7279   32.8772   71.8911 H   0  0  0  0  0  0  0  0  0  0  0  0
  1  2  1  0  0  0
  2  3  2  0  0  0
  2 10  1  0  0  0
  3  4  1  0  0  0
  4  5  1  0  0  0
  4  8  2  0  0  0
  5  6  1  0  0  0
  5 18  1  0  0  0
  6  7  2  0  0  0
  6 25  1  0  0  0
  7  8  1  0  0  0
  7 13  1  0  0  0
  8  9  1  0  0  0
  9 10  2  0  0  0
 10 11  1  0  0  0
 13 14  2  0  0  0
 13 15  1  0  0  0
 15 16  1  0  0  0
 16 17  1  0  0  0
 25 26  1  0  0  0
 26 27  1  0  0  0
 26 30  1  0  0  0
 27 28  1  0  0  0
 28 29  1  0  0  0
 29 30  1  0  0  0
 18 19  1  0  0  0
 19 20  2  0  0  0
 19 24  1  0  0  0
 20 21  1  0  0  0
 21 22  2  0  0  0
 22 23  1  0  0  0
 23 24  2  0  0  0
 11 12  1  0  0  0
 26 31  1  0  0  0
M  CHG 1  26   1
M  END
> <minimizedAffinity>
-8.05870

$$$$
626


 32 35  0  0  0  0  0  0  0  0999 V2000
   20.0054   34.5734   70.1877 N   0  0  0  0  0  0  0  0  0  0  0  0
   20.2482   34.7298   71.5585 C   0  0  0  0  0  0  0  0  0  0  0  0
   21.0868   35.5763   71.9599 O   0  0  0  0  0  0  0  0  0  0  0  0
   19.2653   33.8457   69.9464 H   0  0  0  0  0  0  0  0  0  0  0  0
   18.5277   37.1252   69.6660 Br  0  0  0  0  0  0  0  0  0  0  0  0
   20.0786   36.4935   68.7304 C   0  0  0  0  0  0  0  0  0  0  0  0
   20.5986   37.2601   67.7126 C   0  0  0  0  0  0  0  0  0  0  0  0
   21.7024   36.8359   67.0142 C   0  0  0  0  0  0  0  0  0  0  0  0
   22.4476   37.3140   65.9999 N   0  0  0  0  0  0  0  0  0  0  0  0
   23.4456   36.4592   65.7070 C   0  0  0  0  0  0  0  0  0  0  0  0
   23.2985   35.4375   66.5685 N   0  0  0  0  0  0  0  0  0  0  0  0
   22.2414   35.6360   67.3826 C   0  0  0  0  0  0  0  0  0  0  0  0
   21.7158   34.8515   68.4193 C   0  0  0  0  0  0  0  0  0  0  0  0
   20.6097   35.2744   69.1209 C   0  0  0  0  0  0  0  0  0  0  0  0
   24.4262   36.6185   64.7080 O   0  0  0  0  0  0  0  0  0  0  0  0
   23.9227   34.5846   66.6120 H   0  0  0  0  0  0  0  0  0  0  0  0
   25.2998   37.0620   65.0214 H   0  0  0  0  0  0  0  0  0  0  0  0
   19.5724   33.9530   72.6033 C   0  0  0  0  0  0  0  0  0  0  0  0
   18.3800   33.2827   72.2684 N   0  0  0  0  0  0  0  0  0  0  0  0
   18.4729   31.9797   71.7170 C   0  0  0  0  0  0  0  0  0  0  0  0
   17.1948   31.5697   70.9849 C   0  0  0  0  0  0  0  0  0  0  0  0
   16.1199   31.7287   71.8682 N   0  0  0  0  0  0  0  0  0  0  0  0
   16.3532   32.3328   73.1213 C   0  0  0  0  0  0  0  0  0  0  0  0
   17.2746   33.5153   73.1352 C   0  0  0  0  0  0  0  0  0  0  0  0
   14.8440   31.7320   71.3103 C   0  0  0  0  0  0  0  0  0  0  0  0
   14.1357   33.0062   71.1838 C   0  0  0  0  0  0  0  0  0  0  0  0
   12.9064   32.9914   71.5814 O   0  0  0  0  0  0  0  0  0  0  0  0
   14.6209   34.2140   70.6953 N   0  0  0  0  0  0  0  0  0  0  0  0
   15.6055   34.2928   70.3690 H   0  0  0  0  0  0  0  0  0  0  0  0
   13.8148   35.4287   70.6172 C   0  0  0  0  0  0  0  0  0  0  0  0
   14.2762   36.5942   69.8464 C   0  0  0  0  0  0  0  0  0  0  0  0
   13.1472   35.7435   69.2956 C   0  0  0  0  0  0  0  0  0  0  0  0
  5  6  1  0  0  0
  6  7  2  0  0  0
  6 14  1  0  0  0
  7  8  1  0  0  0
  8  9  1  0  0  0
  8 12  2  0  0  0
  9 10  2  0  0  0
 10 11  1  0  0  0
 10 15  1  0  0  0
 11 12  1  0  0  0
 12 13  1  0  0  0
 13 14  2  0  0  0
 14  1  1  0  0  0
  1  2  1  0  0  0
  2  3  2  0  0  0
  2 18  1  0  0  0
 18 19  1  0  0  0
 19 20  1  0  0  0
 19 24  1  0  0  0
 20 21  1  0  0  0
 21 22  1  0  0  0
 22 23  1  0  0  0
 22 25  1  0  0  0
 23 24  1  0  0  0
 25 26  1  0  0  0
 26 27  2  0  0  0
 26 28  1  0  0  0
 28 30  1  0  0  0
 30 31  1  0  0  0
 30 32  1  0  0  0
 31 32  1  0  0  0
 11 16  1  0  0  0
  1  4  1  0  0  0
 28 29  1  0  0  0
 15 17  1  0  0  0
M  END
> <minimizedAffinity>
-8.12178

$$$$
631


 29 32  0  0  0  0  0  0  0  0999 V2000
   14.3664   31.6289   72.5363 N   0  0  0  0  0  0  0  0  0  0  0  0
   15.7130   31.0877   72.2491 C   0  0  0  0  0  0  0  0  0  0  0  0
   15.4884   29.5843   72.2756 C   0  0  0  0  0  0  0  0  0  0  0  0
   14.4028   29.4268   73.3191 C   0  0  0  0  0  0  0  0  0  0  0  0
   13.7757   30.7612   73.5010 C   0  0  0  0  0  0  0  0  0  0  0  0
   12.9084   31.0792   74.3259 O   0  0  0  0  0  0  0  0  0  0  0  0
   16.5457   37.8152   69.8931 Br  0  0  0  0  0  0  0  0  0  0  0  0
   15.7320   36.2050   70.5362 C   0  0  0  0  0  0  0  0  0  0  0  0
   14.3614   35.9924   70.4024 C   0  0  0  0  0  0  0  0  0  0  0  0
   13.8518   34.8113   70.8903 C   0  0  0  0  0  0  0  0  0  0  0  0
   12.6091   34.2990   70.9268 N   0  0  0  0  0  0  0  0  0  0  0  0
   12.6345   33.1057   71.5136 N   0  0  0  0  0  0  0  0  0  0  0  0
   13.8800   32.7780   71.8865 C   0  0  0  0  0  0  0  0  0  0  0  0
   14.6597   33.8797   71.4828 C   0  0  0  0  0  0  0  0  0  0  0  0
   16.0050   34.0776   71.6184 C   0  0  0  0  0  0  0  0  0  0  0  0
   16.5370   35.2493   71.1403 C   0  0  0  0  0  0  0  0  0  0  0  0
   11.7800   32.5311   71.6480 H   0  0  0  0  0  0  0  0  0  0  0  0
   16.7860   29.0001   72.6507 C   0  0  0  0  0  0  0  0  0  0  0  0
   17.0978   27.8364   72.3065 O   0  0  0  0  0  0  0  0  0  0  0  0
   17.6816   29.7948   73.4163 N   0  0  0  0  0  0  0  0  0  0  0  0
   17.3789   30.7508   73.6868 H   0  0  0  0  0  0  0  0  0  0  0  0
   18.9800   29.3016   73.8202 C   0  0  0  0  0  0  0  0  0  0  0  0
   20.0199   30.3985   73.9060 C   0  0  0  0  0  0  0  0  0  0  0  0
   19.8066   31.4074   72.8500 C   0  0  0  0  0  0  0  0  0  0  0  0
   19.5747   31.1040   71.5627 N   0  0  0  0  0  0  0  0  0  0  0  0
   19.4184   32.2201   70.8500 C   0  0  0  0  0  0  0  0  0  0  0  0
   19.5533   33.2736   71.7002 N   0  0  0  0  0  0  0  0  0  0  0  0
   19.7886   32.7664   72.9142 C   0  0  0  0  0  0  0  0  0  0  0  0
   19.4739   34.2653   71.3799 H   0  0  0  0  0  0  0  0  0  0  0  0
  7  8  1  0  0  0
  8  9  2  0  0  0
  8 16  1  0  0  0
  9 10  1  0  0  0
 10 11  2  0  0  0
 10 14  1  0  0  0
 11 12  1  0  0  0
 12 13  1  0  0  0
 13 14  2  0  0  0
 13  1  1  0  0  0
 14 15  1  0  0  0
 15 16  2  0  0  0
  1  2  1  0  0  0
  1  5  1  0  0  0
  2  3  1  0  0  0
  3  4  1  0  0  0
  3 18  1  0  0  0
  4  5  1  0  0  0
  5  6  2  0  0  0
 18 19  2  0  0  0
 18 20  1  0  0  0
 20 22  1  0  0  0
 22 23  1  0  0  0
 23 24  1  0  0  0
 24 25  1  0  0  0
 24 28  2  0  0  0
 25 26  2  0  0  0
 26 27  1  0  0  0
 27 28  1  0  0  0
 12 17  1  0  0  0
 20 21  1  0  0  0
 27 29  1  0  0  0
M  END
> <minimizedAffinity>
-8.51884

$$$$
648


 32 35  0  0  0  0  0  0  0  0999 V2000
   22.6422   36.5170   66.2889 C   0  0  0  0  0  0  0  0  0  0  0  0
   21.7870   36.0644   65.4454 O   0  0  0  0  0  0  0  0  0  0  0  0
   22.8958   35.7618   67.4030 N   0  0  0  0  0  0  0  0  0  0  0  0
   23.7981   36.1028   68.4587 C   0  0  0  0  0  0  0  0  0  0  0  0
   23.0044   36.4629   69.6715 C   0  0  0  0  0  0  0  0  0  0  0  0
   21.7101   35.7967   69.6802 N   0  0  0  0  0  0  0  0  0  0  0  0
   21.4336   34.6097   68.9418 C   0  0  0  0  0  0  0  0  0  0  0  0
   22.2128   34.4729   67.6374 C   0  0  0  0  0  0  0  0  0  0  0  0
   20.7165   36.4843   70.4563 C   0  0  0  0  0  0  0  0  0  0  0  0
   21.0629   37.6314   70.9641 O   0  0  0  0  0  0  0  0  0  0  0  0
   25.8135   36.6378   65.1017 Br  0  0  0  0  0  0  0  0  0  0  0  0
   24.5226   38.0199   65.4534 C   0  0  0  0  0  0  0  0  0  0  0  0
   24.6844   39.3662   65.2695 C   0  0  0  0  0  0  0  0  0  0  0  0
   23.5419   39.9542   65.6389 N   0  0  0  0  0  0  0  0  0  0  0  0
   22.6997   39.0376   66.0357 N   0  0  0  0  0  0  0  0  0  0  0  0
   23.2370   37.7852   65.9516 C   0  0  0  0  0  0  0  0  0  0  0  0
   23.3665   41.4001   65.5779 C   0  0  0  0  0  0  0  0  0  0  0  0
   22.6688   41.8538   64.3236 C   0  0  0  0  0  0  0  0  0  0  0  0
   19.4005   36.0068   70.7025 C   0  0  0  0  0  0  0  0  0  0  0  0
   19.1206   34.9830   71.5985 N   0  0  0  0  0  0  0  0  0  0  0  0
   17.8561   34.7146   71.5758 N   0  0  0  0  0  0  0  0  0  0  0  0
   17.2118   35.4910   70.7094 C   0  0  0  0  0  0  0  0  0  0  0  0
   18.2075   36.3179   70.1510 C   0  0  0  0  0  0  0  0  0  0  0  0
   20.0871   34.3147   72.4374 C   0  0  0  0  0  0  0  0  0  0  0  0
   15.7977   35.5421   70.3850 C   0  0  0  0  0  0  0  0  0  0  0  0
   15.3250   36.6955   70.0827 O   0  0  0  0  0  0  0  0  0  0  0  0
   14.9323   34.4593   70.3785 N   0  0  0  0  0  0  0  0  0  0  0  0
   13.5352   34.6958   70.0010 C   0  0  0  0  0  0  0  0  0  0  0  0
   12.7014   34.1183   71.1255 C   0  0  0  0  0  0  0  0  0  0  0  0
   12.9184   32.7292   71.0740 O   0  0  0  0  0  0  0  0  0  0  0  0
   14.1795   32.4374   71.5140 C   0  0  0  0  0  0  0  0  0  0  0  0
   15.2940   33.1228   70.7341 C   0  0  0  0  0  0  0  0  0  0  0  0
 11 12  1  0  0  0
 12 13  2  0  0  0
 12 16  1  0  0  0
 13 14  1  0  0  0
 14 15  1  0  0  0
 14 17  1  0  0  0
 15 16  2  0  0  0
 16  1  1  0  0  0
  1  2  2  0  0  0
  1  3  1  0  0  0
  3  4  1  0  0  0
  3  8  1  0  0  0
  4  5  1  0  0  0
  5  6  1  0  0  0
  6  7  1  0  0  0
  6  9  1  0  0  0
  7  8  1  0  0  0
  9 10  2  0  0  0
  9 19  1  0  0  0
 19 20  1  0  0  0
 19 23  2  0  0  0
 20 21  1  0  0  0
 20 24  1  0  0  0
 21 22  2  0  0  0
 22 23  1  0  0  0
 22 25  1  0  0  0
 25 26  2  0  0  0
 25 27  1  0  0  0
 27 28  1  0  0  0
 27 32  1  0  0  0
 28 29  1  0  0  0
 29 30  1  0  0  0
 30 31  1  0  0  0
 31 32  1  0  0  0
 17 18  1  0  0  0
M  END
> <minimizedAffinity>
-8.80098

$$$$
653


 29 32  0  0  0  0  0  0  0  0999 V2000
   17.7676   36.1278   70.3304 C   0  0  0  0  0  0  0  0  0  0  0  0
   18.9862   35.6809   70.7736 C   0  0  0  0  0  0  0  0  0  0  0  0
   19.0945   34.5382   71.5449 C   0  0  0  0  0  0  0  0  0  0  0  0
   17.9782   33.8114   71.8944 C   0  0  0  0  0  0  0  0  0  0  0  0
   16.7204   34.2594   71.4472 C   0  0  0  0  0  0  0  0  0  0  0  0
   16.6140   35.3909   70.6826 C   0  0  0  0  0  0  0  0  0  0  0  0
   15.3007   35.8411   70.2152 C   0  0  0  0  0  0  0  0  0  0  0  0
   14.1123   35.3645   70.9508 C   0  0  0  0  0  0  0  0  0  0  0  0
   14.2470   34.0129   71.4792 N   0  0  0  0  0  0  0  0  0  0  0  0
   15.5269   33.5326   71.8675 C   0  0  0  0  0  0  0  0  0  0  0  0
   15.6029   32.4811   72.5723 O   0  0  0  0  0  0  0  0  0  0  0  0
   13.0352   33.2344   71.5949 C   0  0  0  0  0  0  0  0  0  0  0  0
   20.4391   34.3714   71.8130 O   0  0  0  0  0  0  0  0  0  0  0  0
   21.2072   35.2866   71.0733 C   0  0  0  0  0  0  0  0  0  0  0  0
   20.2712   36.2317   70.5619 O   0  0  0  0  0  0  0  0  0  0  0  0
   18.0478   32.6630   72.6625 O   0  0  0  0  0  0  0  0  0  0  0  0
   18.7730   31.5327   72.2250 C   0  0  0  0  0  0  0  0  0  0  0  0
   17.6153   37.3689   69.5415 C   0  0  0  0  0  0  0  0  0  0  0  0
   18.5254   38.3459   67.3595 C   0  0  0  0  0  0  0  0  0  0  0  0
   17.6965   39.3102   67.2996 O   0  0  0  0  0  0  0  0  0  0  0  0
   18.5006   37.4347   68.3929 N   0  0  0  0  0  0  0  0  0  0  0  0
   19.2278   36.6514   68.3849 H   0  0  0  0  0  0  0  0  0  0  0  0
   19.5270   38.2378   66.2648 C   0  0  0  0  0  0  0  0  0  0  0  0
   23.2908   34.4392   67.2423 Br  0  0  0  0  0  0  0  0  0  0  0  0
   22.2332   36.0288   67.2569 C   0  0  0  0  0  0  0  0  0  0  0  0
   21.1211   36.3066   66.4959 C   0  0  0  0  0  0  0  0  0  0  0  0
   20.6892   37.5202   66.8230 N   0  0  0  0  0  0  0  0  0  0  0  0
   21.5033   37.9948   67.7625 N   0  0  0  0  0  0  0  0  0  0  0  0
   22.4702   37.1160   68.0661 C   0  0  0  0  0  0  0  0  0  0  0  0
 24 25  1  0  0  0
 25 26  2  0  0  0
 25 29  1  0  0  0
 26 27  1  0  0  0
 27 28  1  0  0  0
 27 23  1  0  0  0
 28 29  2  0  0  0
 23 19  1  0  0  0
 19 20  2  0  0  0
 19 21  1  0  0  0
 21 18  1  0  0  0
 18  1  1  0  0  0
  1  2  2  0  0  0
  1  6  1  0  0  0
  2  3  1  0  0  0
  2 15  1  0  0  0
  3  4  2  0  0  0
  3 13  1  0  0  0
  4  5  1  0  0  0
  4 16  1  0  0  0
  5  6  2  0  0  0
  5 10  1  0  0  0
  6  7  1  0  0  0
  7  8  1  0  0  0
  8  9  1  0  0  0
  9 10  1  0  0  0
  9 12  1  0  0  0
 10 11  2  0  0  0
 16 17  1  0  0  0
 13 14  1  0  0  0
 14 15  1  0  0  0
 21 22  1  0  0  0
M  END
> <minimizedAffinity>
-8.36975

$$$$
662


 25 29  0  0  0  0  0  0  0  0999 V2000
   20.3790   36.9596   67.4795 C   0  0  0  0  0  0  0  0  0  0  0  0
   21.2418   37.6594   66.7255 N   0  0  0  0  0  0  0  0  0  0  0  0
   22.3311   36.9319   66.4783 N   0  0  0  0  0  0  0  0  0  0  0  0
   22.1636   35.7255   67.0921 C   0  0  0  0  0  0  0  0  0  0  0  0
   20.9610   35.7691   67.6975 N   0  0  0  0  0  0  0  0  0  0  0  0
   23.1686   34.7882   66.9798 C   0  0  0  0  0  0  0  0  0  0  0  0
   24.3334   35.0246   66.2715 C   0  0  0  0  0  0  0  0  0  0  0  0
   25.1191   33.9366   66.3393 N   0  0  0  0  0  0  0  0  0  0  0  0
   24.4765   33.0364   67.0660 N   0  0  0  0  0  0  0  0  0  0  0  0
   23.2839   33.5171   67.4752 C   0  0  0  0  0  0  0  0  0  0  0  0
   24.4537   36.2260   65.6845 N   0  0  0  0  0  0  0  0  0  0  0  0
   23.4722   37.1359   65.7959 C   0  0  0  0  0  0  0  0  0  0  0  0
   26.0593   33.7983   65.9112 H   0  0  0  0  0  0  0  0  0  0  0  0
   17.3266   37.7988   69.2319 N   0  0  0  0  0  0  0  0  0  0  0  0
   18.5234   37.2419   69.1675 N   0  0  0  0  0  0  0  0  0  0  0  0
   19.0750   37.4190   67.9549 C   0  0  0  0  0  0  0  0  0  0  0  0
   18.1459   38.1353   67.2304 C   0  0  0  0  0  0  0  0  0  0  0  0
   17.0454   38.3703   68.0485 C   0  0  0  0  0  0  0  0  0  0  0  0
   16.4516   37.7926   70.4071 C   0  0  0  0  0  0  0  0  0  0  0  0
   13.6143   33.2152   70.6299 Br  0  0  0  0  0  0  0  0  0  0  0  0
   14.1584   34.9997   70.3188 C   0  0  0  0  0  0  0  0  0  0  0  0
   15.3788   35.5577   70.6416 C   0  0  0  0  0  0  0  0  0  0  0  0
   15.3678   36.8442   70.2552 N   0  0  0  0  0  0  0  0  0  0  0  0
   14.1940   37.1056   69.7087 N   0  0  0  0  0  0  0  0  0  0  0  0
   13.4181   35.9978   69.7258 C   0  0  0  0  0  0  0  0  0  0  0  0
 20 21  1  0  0  0
 21 22  2  0  0  0
 21 25  1  0  0  0
 22 23  1  0  0  0
 23 24  1  0  0  0
 23 19  1  0  0  0
 24 25  2  0  0  0
 19 14  1  0  0  0
 14 15  1  0  0  0
 14 18  1  0  0  0
 15 16  2  0  0  0
 16 17  1  0  0  0
 16  1  1  0  0  0
 17 18  2  0  0  0
  1  2  2  0  0  0
  1  5  1  0  0  0
  2  3  1  0  0  0
  3  4  1  0  0  0
  3 12  1  0  0  0
  4  5  2  0  0  0
  4  6  1  0  0  0
  6  7  2  0  0  0
  6 10  1  0  0  0
  7  8  1  0  0  0
  7 11  1  0  0  0
  8  9  1  0  0  0
  9 10  2  0  0  0
 11 12  2  0  0  0
  8 13  1  0  0  0
M  END
> <minimizedAffinity>
-8.12000

$$$$
663


 28 31  0  0  0  0  0  0  0  0999 V2000
   24.1442   36.1590   65.6699 C   0  0  0  0  0  0  0  0  0  0  0  0
   24.1483   35.7237   64.4503 O   0  0  0  0  0  0  0  0  0  0  0  0
   25.3624   36.1158   66.3265 N   0  0  0  0  0  0  0  0  0  0  0  0
   25.7526   36.5531   67.6397 C   0  0  0  0  0  0  0  0  0  0  0  0
   25.7912   35.3229   68.5256 C   0  0  0  0  0  0  0  0  0  0  0  0
   26.3285   34.1340   67.7548 C   0  0  0  0  0  0  0  0  0  0  0  0
   27.1685   33.3815   68.6609 N   0  0  0  0  0  0  0  0  0  0  0  0
   26.3341   32.5029   69.4008 C   0  0  0  0  0  0  0  0  0  0  0  0
   26.5842   31.9329   70.5124 O   0  0  0  0  0  0  0  0  0  0  0  0
   25.1174   32.3631   68.6503 N   0  0  0  0  0  0  0  0  0  0  0  0
   25.2498   33.1720   67.4619 C   0  0  0  0  0  0  0  0  0  0  0  0
   24.5567   33.0278   66.4320 O   0  0  0  0  0  0  0  0  0  0  0  0
   27.1427   34.5159   66.5610 C   0  0  0  0  0  0  0  0  0  0  0  0
   26.5009   35.4643   65.6059 C   0  0  0  0  0  0  0  0  0  0  0  0
   28.1980   33.4401   68.7831 H   0  0  0  0  0  0  0  0  0  0  0  0
   24.2683   31.7995   68.8737 H   0  0  0  0  0  0  0  0  0  0  0  0
   20.3002   37.3594   67.1808 C   0  0  0  0  0  0  0  0  0  0  0  0
   20.7484   36.0622   67.2327 C   0  0  0  0  0  0  0  0  0  0  0  0
   21.9704   35.6975   66.7343 C   0  0  0  0  0  0  0  0  0  0  0  0
   22.8544   36.6175   66.1335 C   0  0  0  0  0  0  0  0  0  0  0  0
   22.3947   37.9128   66.0891 C   0  0  0  0  0  0  0  0  0  0  0  0
   21.1390   38.2735   66.6029 C   0  0  0  0  0  0  0  0  0  0  0  0
   15.9090   37.5924   70.3609 Br  0  0  0  0  0  0  0  0  0  0  0  0
   17.1964   37.8611   68.9547 C   0  0  0  0  0  0  0  0  0  0  0  0
   18.4273   37.2569   68.8214 C   0  0  0  0  0  0  0  0  0  0  0  0
   19.0280   37.7088   67.7060 N   0  0  0  0  0  0  0  0  0  0  0  0
   18.1985   38.5701   67.1560 N   0  0  0  0  0  0  0  0  0  0  0  0
   17.0807   38.6990   67.8679 C   0  0  0  0  0  0  0  0  0  0  0  0
 23 24  1  0  0  0
 24 25  2  0  0  0
 24 28  1  0  0  0
 25 26  1  0  0  0
 26 27  1  0  0  0
 26 17  1  0  0  0
 27 28  2  0  0  0
 17 18  2  0  0  0
 17 22  1  0  0  0
 18 19  1  0  0  0
 19 20  2  0  0  0
 20 21  1  0  0  0
 20  1  1  0  0  0
 21 22  2  0  0  0
  1  2  2  0  0  0
  1  3  1  0  0  0
  3  4  1  0  0  0
  3 14  1  0  0  0
  4  5  1  0  0  0
  5  6  1  0  0  0
  6  7  1  0  0  0
  6 11  1  0  0  0
  6 13  1  0  0  0
  7  8  1  0  0  0
  8  9  2  0  0  0
  8 10  1  0  0  0
 10 11  1  0  0  0
 11 12  2  0  0  0
 13 14  1  0  0  0
  7 15  1  0  0  0
 10 16  1  0  0  0
M  END
> <minimizedAffinity>
-8.45036

$$$$
666


 28 31  0  0  0  0  0  0  0  0999 V2000
   22.7884   38.1532   65.9357 C   0  0  0  0  0  0  0  0  0  0  0  0
   23.0605   36.9707   66.4030 C   0  0  0  0  0  0  0  0  0  0  0  0
   21.9084   36.5647   67.2096 C   0  0  0  0  0  0  0  0  0  0  0  0
   21.8297   35.4552   67.8235 O   0  0  0  0  0  0  0  0  0  0  0  0
   20.8958   37.5815   67.2103 N   0  0  0  0  0  0  0  0  0  0  0  0
   21.4529   38.6088   66.3914 C   0  0  0  0  0  0  0  0  0  0  0  0
   20.9049   39.7067   66.1076 O   0  0  0  0  0  0  0  0  0  0  0  0
   19.6462   37.5589   67.8814 C   0  0  0  0  0  0  0  0  0  0  0  0
   19.4907   37.1284   69.1742 C   0  0  0  0  0  0  0  0  0  0  0  0
   18.2343   37.1360   69.8155 C   0  0  0  0  0  0  0  0  0  0  0  0
   17.1152   37.5829   69.1508 C   0  0  0  0  0  0  0  0  0  0  0  0
   17.2655   38.0148   67.8578 C   0  0  0  0  0  0  0  0  0  0  0  0
   18.5162   38.0001   67.2388 C   0  0  0  0  0  0  0  0  0  0  0  0
   24.2298   36.1761   66.1936 N   0  0  0  0  0  0  0  0  0  0  0  0
   25.2036   36.1576   67.1216 C   0  0  0  0  0  0  0  0  0  0  0  0
   26.3701   35.3936   66.9431 C   0  0  0  0  0  0  0  0  0  0  0  0
   26.5319   34.6431   65.7936 C   0  0  0  0  0  0  0  0  0  0  0  0
   25.5202   34.6782   64.8581 C   0  0  0  0  0  0  0  0  0  0  0  0
   24.3985   35.4355   65.0711 C   0  0  0  0  0  0  0  0  0  0  0  0
   23.5741   38.9829   65.1012 N   0  0  0  0  0  0  0  0  0  0  0  0
   23.5411   38.8850   64.0869 H   0  0  0  0  0  0  0  0  0  0  0  0
   27.1353   43.2486   67.6737 Br  0  0  0  0  0  0  0  0  0  0  0  0
   26.0224   41.9104   66.8832 C   0  0  0  0  0  0  0  0  0  0  0  0
   24.8024   42.2094   66.3365 C   0  0  0  0  0  0  0  0  0  0  0  0
   24.0442   41.2568   65.7821 N   0  0  0  0  0  0  0  0  0  0  0  0
   24.4067   39.9477   65.7142 C   0  0  0  0  0  0  0  0  0  0  0  0
   25.6540   39.6518   66.2776 C   0  0  0  0  0  0  0  0  0  0  0  0
   26.4526   40.6041   66.8503 C   0  0  0  0  0  0  0  0  0  0  0  0
 22 23  1  0  0  0
 23 24  2  0  0  0
 23 28  1  0  0  0
 24 25  1  0  0  0
 25 26  2  0  0  0
 26 27  1  0  0  0
 26 20  1  0  0  0
 27 28  2  0  0  0
 20  1  1  0  0  0
  1  2  2  0  0  0
  1  6  1  0  0  0
  2  3  1  0  0  0
  2 14  1  0  0  0
  3  4  2  0  0  0
  3  5  1  0  0  0
  5  6  1  0  0  0
  5  8  1  0  0  0
  6  7  2  0  0  0
  8  9  2  0  0  0
  8 13  1  0  0  0
  9 10  1  0  0  0
 10 11  2  0  0  0
 11 12  1  0  0  0
 12 13  2  0  0  0
 14 15  2  0  0  0
 14 19  1  0  0  0
 15 16  1  0  0  0
 16 17  2  0  0  0
 17 18  1  0  0  0
 18 19  2  0  0  0
 20 21  1  0  0  0
M  END
> <minimizedAffinity>
-8.23382

$$$$
670


 23 26  0  0  0  0  0  0  0  0999 V2000
   16.0601   37.2402   70.2840 C   0  0  0  0  0  0  0  0  0  0  0  0
   15.2168   36.0881   70.4642 N   0  0  0  0  0  0  0  0  0  0  0  0
   15.6538   35.0072   71.2299 N   0  0  0  0  0  0  0  0  0  0  0  0
   14.8572   33.8488   71.4363 C   0  0  0  0  0  0  0  0  0  0  0  0
   15.3190   32.8544   72.1699 C   0  0  0  0  0  0  0  0  0  0  0  0
   16.3005   32.1419   73.0118 C   0  0  0  0  0  0  0  0  0  0  0  0
   15.0355   31.4783   72.7377 C   0  0  0  0  0  0  0  0  0  0  0  0
   13.5375   33.7538   70.8438 C   0  0  0  0  0  0  0  0  0  0  0  0
   13.1022   34.7673   70.1128 C   0  0  0  0  0  0  0  0  0  0  0  0
   13.9220   35.9764   69.8930 C   0  0  0  0  0  0  0  0  0  0  0  0
   13.4841   36.9274   69.1927 O   0  0  0  0  0  0  0  0  0  0  0  0
   16.6212   35.0848   71.6600 H   0  0  0  0  0  0  0  0  0  0  0  0
   19.0256   37.3234   68.6982 N   0  0  0  0  0  0  0  0  0  0  0  0
   17.6993   37.7852   68.4058 C   0  0  0  0  0  0  0  0  0  0  0  0
   17.2523   36.8184   69.4844 C   0  0  0  0  0  0  0  0  0  0  0  0
   18.5992   37.2335   70.0657 C   0  0  0  0  0  0  0  0  0  0  0  0
   24.1108   36.2986   65.5036 Br  0  0  0  0  0  0  0  0  0  0  0  0
   22.5144   36.6338   66.5031 C   0  0  0  0  0  0  0  0  0  0  0  0
   21.8846   35.6122   67.1771 C   0  0  0  0  0  0  0  0  0  0  0  0
   20.7790   35.8663   67.8642 N   0  0  0  0  0  0  0  0  0  0  0  0
   20.1934   37.0788   67.9677 C   0  0  0  0  0  0  0  0  0  0  0  0
   20.8229   38.0878   67.2958 N   0  0  0  0  0  0  0  0  0  0  0  0
   21.9465   37.8872   66.5842 C   0  0  0  0  0  0  0  0  0  0  0  0
 17 18  1  0  0  0
 18 19  2  0  0  0
 18 23  1  0  0  0
 19 20  1  0  0  0
 20 21  2  0  0  0
 21 22  1  0  0  0
 21 13  1  0  0  0
 22 23  2  0  0  0
 13 14  1  0  0  0
 13 16  1  0  0  0
 14 15  1  0  0  0
 15 16  1  0  0  0
 15  1  1  0  0  0
  1  2  1  0  0  0
  2  3  1  0  0  0
  2 10  1  0  0  0
  3  4  1  0  0  0
  4  5  2  0  0  0
  4  8  1  0  0  0
  5  6  1  0  0  0
  5  7  1  0  0  0
  6  7  1  0  0  0
  8  9  2  0  0  0
  9 10  1  0  0  0
 10 11  2  0  0  0
  3 12  1  0  0  0
M  END
> <minimizedAffinity>
-8.09403

$$$$
677


 29 32  0  0  0  0  0  0  0  0999 V2000
   18.6136   35.9353   70.3875 C   0  0  0  0  0  0  0  0  0  0  0  0
   19.1773   34.6584   70.7422 C   0  0  0  0  0  0  0  0  0  0  0  0
   18.3660   33.6216   71.0252 C   0  0  0  0  0  0  0  0  0  0  0  0
   16.9666   33.7602   70.9808 C   0  0  0  0  0  0  0  0  0  0  0  0
   16.4119   34.9716   70.6464 C   0  0  0  0  0  0  0  0  0  0  0  0
   17.2479   36.0605   70.3521 C   0  0  0  0  0  0  0  0  0  0  0  0
   16.6664   37.4006   70.0817 C   0  0  0  0  0  0  0  0  0  0  0  0
   15.2248   37.5486   70.5566 C   0  0  0  0  0  0  0  0  0  0  0  0
   14.4169   36.4146   70.1734 N   0  0  0  0  0  0  0  0  0  0  0  0
   14.9655   35.1459   70.5565 C   0  0  0  0  0  0  0  0  0  0  0  0
   14.1462   34.2355   70.7978 O   0  0  0  0  0  0  0  0  0  0  0  0
   13.1631   36.5493   69.4634 C   0  0  0  0  0  0  0  0  0  0  0  0
   16.2252   32.6772   71.2755 O   0  0  0  0  0  0  0  0  0  0  0  0
   19.1872   32.5256   71.3318 O   0  0  0  0  0  0  0  0  0  0  0  0
   20.5256   32.8185   70.9909 C   0  0  0  0  0  0  0  0  0  0  0  0
   20.5013   34.2267   70.8657 O   0  0  0  0  0  0  0  0  0  0  0  0
   15.2736   32.5435   71.3094 H   0  0  0  0  0  0  0  0  0  0  0  0
   19.6477   36.9089   70.1090 C   0  0  0  0  0  0  0  0  0  0  0  0
   20.7783   37.1271   67.9668 C   0  0  0  0  0  0  0  0  0  0  0  0
   19.7454   37.6742   67.5456 O   0  0  0  0  0  0  0  0  0  0  0  0
   20.8116   36.6746   69.3729 N   0  0  0  0  0  0  0  0  0  0  0  0
   21.7299   36.2746   69.6146 H   0  0  0  0  0  0  0  0  0  0  0  0
   24.6521   34.0456   65.9845 Br  0  0  0  0  0  0  0  0  0  0  0  0
   23.6857   35.6857   66.1363 C   0  0  0  0  0  0  0  0  0  0  0  0
   24.0488   36.7720   65.4051 C   0  0  0  0  0  0  0  0  0  0  0  0
   23.3839   37.9225   65.5007 N   0  0  0  0  0  0  0  0  0  0  0  0
   22.3360   38.0174   66.3318 C   0  0  0  0  0  0  0  0  0  0  0  0
   21.9201   36.9383   67.1037 C   0  0  0  0  0  0  0  0  0  0  0  0
   22.6013   35.7463   67.0105 C   0  0  0  0  0  0  0  0  0  0  0  0
 23 24  1  0  0  0
 24 25  2  0  0  0
 24 29  1  0  0  0
 25 26  1  0  0  0
 26 27  2  0  0  0
 27 28  1  0  0  0
 28 29  2  0  0  0
 28 19  1  0  0  0
 19 20  2  0  0  0
 19 21  1  0  0  0
 21 18  1  0  0  0
 18  1  1  0  0  0
  1  2  2  0  0  0
  1  6  1  0  0  0
  2  3  1  0  0  0
  2 16  1  0  0  0
  3  4  2  0  0  0
  3 14  1  0  0  0
  4  5  1  0  0  0
  4 13  1  0  0  0
  5  6  2  0  0  0
  5 10  1  0  0  0
  6  7  1  0  0  0
  7  8  1  0  0  0
  8  9  1  0  0  0
  9 10  1  0  0  0
  9 12  1  0  0  0
 10 11  2  0  0  0
 14 15  1  0  0  0
 15 16  1  0  0  0
 21 22  1  0  0  0
 13 17  1  0  0  0
M  END
> <minimizedAffinity>
-9.37218

$$$$
680


 24 27  0  0  0  0  0  0  0  0999 V2000
   20.3277   35.6697   70.3764 C   0  0  0  0  0  0  0  0  0  0  0  0
   20.8144   35.4749   71.5505 O   0  0  0  0  0  0  0  0  0  0  0  0
   21.2037   35.5339   69.2831 N   0  0  0  0  0  0  0  0  0  0  0  0
   21.1944   35.6514   67.8584 C   0  0  0  0  0  0  0  0  0  0  0  0
   22.6944   35.9860   67.9463 C   0  0  0  0  0  0  0  0  0  0  0  0
   22.6242   35.1461   69.1649 C   0  0  0  0  0  0  0  0  0  0  0  0
   23.4241   35.4669   66.8226 N   0  0  0  0  0  0  0  0  0  0  0  0
   23.9407   34.1367   66.6296 C   0  0  0  0  0  0  0  0  0  0  0  0
   23.4892   33.1137   67.1729 O   0  0  0  0  0  0  0  0  0  0  0  0
   25.0868   34.2863   65.6677 C   0  0  0  0  0  0  0  0  0  0  0  0
   24.5156   35.3288   64.7359 C   0  0  0  0  0  0  0  0  0  0  0  0
   25.6031   36.0377   63.9773 C   0  0  0  0  0  0  0  0  0  0  0  0
   26.5351   36.6911   64.9351 C   0  0  0  0  0  0  0  0  0  0  0  0
   26.8037   36.0577   66.0584 C   0  0  0  0  0  0  0  0  0  0  0  0
   26.2620   34.7512   66.4580 C   0  0  0  0  0  0  0  0  0  0  0  0
   23.7752   36.2092   65.6600 C   0  0  0  0  0  0  0  0  0  0  0  0
   23.5238   37.4137   65.4100 O   0  0  0  0  0  0  0  0  0  0  0  0
   15.1817   34.4649   71.4902 Br  0  0  0  0  0  0  0  0  0  0  0  0
   16.5666   35.5736   70.7999 C   0  0  0  0  0  0  0  0  0  0  0  0
   16.2393   36.7845   70.2381 C   0  0  0  0  0  0  0  0  0  0  0  0
   17.2146   37.5881   69.7424 N   0  0  0  0  0  0  0  0  0  0  0  0
   18.5002   37.2221   69.7869 C   0  0  0  0  0  0  0  0  0  0  0  0
   18.9242   36.0065   70.3404 C   0  0  0  0  0  0  0  0  0  0  0  0
   17.9067   35.2214   70.8332 C   0  0  0  0  0  0  0  0  0  0  0  0
 18 19  1  0  0  0
 19 20  2  0  0  0
 19 24  1  0  0  0
 20 21  1  0  0  0
 21 22  2  0  0  0
 22 23  1  0  0  0
 23 24  2  0  0  0
 23  1  1  0  0  0
  1  2  2  0  0  0
  1  3  1  0  0  0
  3  4  1  0  0  0
  3  6  1  0  0  0
  4  5  1  0  0  0
  5  6  1  0  0  0
  5  7  1  0  0  0
  7  8  1  0  0  0
  7 16  1  0  0  0
  8  9  2  0  0  0
  8 10  1  0  0  0
 10 11  1  0  0  0
 10 15  1  0  0  0
 11 12  1  0  0  0
 11 16  1  0  0  0
 12 13  1  0  0  0
 13 14  2  0  0  0
 14 15  1  0  0  0
 16 17  2  0  0  0
M  END
> <minimizedAffinity>
-8.24110

$$$$
681


 25 28  0  0  0  0  0  0  0  0999 V2000
   18.4284   35.9390   70.3592 C   0  0  0  0  0  0  0  0  0  0  0  0
   18.9370   35.2403   71.2900 O   0  0  0  0  0  0  0  0  0  0  0  0
   19.2738   36.4507   69.3669 N   0  0  0  0  0  0  0  0  0  0  0  0
   19.2316   37.2360   68.1621 C   0  0  0  0  0  0  0  0  0  0  0  0
   20.6902   36.9438   67.8442 C   0  0  0  0  0  0  0  0  0  0  0  0
   20.7392   36.3494   69.2189 C   0  0  0  0  0  0  0  0  0  0  0  0
   13.6233   33.6602   70.3447 Br  0  0  0  0  0  0  0  0  0  0  0  0
   14.7704   35.2025   70.3733 C   0  0  0  0  0  0  0  0  0  0  0  0
   14.1914   36.4504   70.4063 C   0  0  0  0  0  0  0  0  0  0  0  0
   15.0104   37.5078   70.4258 N   0  0  0  0  0  0  0  0  0  0  0  0
   16.3694   37.3800   70.4142 C   0  0  0  0  0  0  0  0  0  0  0  0
   17.0046   36.1642   70.3825 C   0  0  0  0  0  0  0  0  0  0  0  0
   16.1345   35.0585   70.3624 C   0  0  0  0  0  0  0  0  0  0  0  0
   21.5185   38.0409   67.6167 O   0  0  0  0  0  0  0  0  0  0  0  0
   22.5037   38.1308   66.6548 C   0  0  0  0  0  0  0  0  0  0  0  0
   23.2792   37.0792   66.4036 C   0  0  0  0  0  0  0  0  0  0  0  0
   24.3359   37.1114   65.4004 C   0  0  0  0  0  0  0  0  0  0  0  0
   25.0869   36.0476   65.1758 C   0  0  0  0  0  0  0  0  0  0  0  0
   24.5227   38.3229   64.6824 N   0  0  0  0  0  0  0  0  0  0  0  0
   23.6714   39.4416   64.9757 C   0  0  0  0  0  0  0  0  0  0  0  0
   22.7162   39.3478   65.9117 N   0  0  0  0  0  0  0  0  0  0  0  0
   22.0755   40.5187   65.9911 N   0  0  0  0  0  0  0  0  0  0  0  0
   22.6419   41.3378   65.0980 C   0  0  0  0  0  0  0  0  0  0  0  0
   23.6226   40.6789   64.4727 N   0  0  0  0  0  0  0  0  0  0  0  0
   25.2692   38.3572   63.9679 H   0  0  0  0  0  0  0  0  0  0  0  0
  7  8  1  0  0  0
  8  9  2  0  0  0
  8 13  1  0  0  0
  9 10  1  0  0  0
 10 11  2  0  0  0
 11 12  1  0  0  0
 12 13  2  0  0  0
 12  1  1  0  0  0
  1  2  2  0  0  0
  1  3  1  0  0  0
  3  4  1  0  0  0
  3  6  1  0  0  0
  4  5  1  0  0  0
  5  6  1  0  0  0
  5 14  1  0  0  0
 14 15  1  0  0  0
 15 16  2  0  0  0
 15 21  1  0  0  0
 16 17  1  0  0  0
 17 18  2  0  0  0
 17 19  1  0  0  0
 19 20  1  0  0  0
 20 21  1  0  0  0
 20 24  2  0  0  0
 21 22  1  0  0  0
 22 23  2  0  0  0
 23 24  1  0  0  0
 19 25  1  0  0  0
M  END
> <minimizedAffinity>
-8.19567

$$$$
683


 20 22  0  0  0  0  0  0  0  0999 V2000
   16.1464   33.0344   72.8030 N   0  0  0  0  0  0  0  0  0  0  0  0
   15.2489   31.9748   72.3732 C   0  0  0  0  0  0  0  0  0  0  0  0
   14.5995   32.2843   71.0431 C   0  0  0  0  0  0  0  0  0  0  0  0
   13.3016   33.0418   71.2615 C   0  0  0  0  0  0  0  0  0  0  0  0
   13.5758   34.4779   71.6469 C   0  0  0  0  0  0  0  0  0  0  0  0
   14.9877   34.7954   71.3806 C   0  0  0  0  0  0  0  0  0  0  0  0
   16.0899   34.1552   71.8941 C   0  0  0  0  0  0  0  0  0  0  0  0
   17.3107   34.5716   71.5484 N   0  0  0  0  0  0  0  0  0  0  0  0
   17.5039   35.5978   70.7152 C   0  0  0  0  0  0  0  0  0  0  0  0
   16.4184   36.2516   70.1910 C   0  0  0  0  0  0  0  0  0  0  0  0
   15.1447   35.8433   70.5307 C   0  0  0  0  0  0  0  0  0  0  0  0
   14.0219   36.5428   69.9704 N   0  0  0  0  0  0  0  0  0  0  0  0
   16.5616   37.3269   69.3183 C   0  0  0  0  0  0  0  0  0  0  0  0
   17.8343   37.7225   68.9903 C   0  0  0  0  0  0  0  0  0  0  0  0
   18.9206   37.0668   69.5156 C   0  0  0  0  0  0  0  0  0  0  0  0
   18.7657   35.9909   70.3885 C   0  0  0  0  0  0  0  0  0  0  0  0
   17.5059   32.5072   72.7600 C   0  0  0  0  0  0  0  0  0  0  0  0
   15.9097   33.3411   73.7743 H   0  0  0  0  0  0  0  0  0  0  0  0
   13.3821   36.0519   69.3263 H   0  0  0  0  0  0  0  0  0  0  0  0
   13.8406   37.5463   70.2031 H   0  0  0  0  0  0  0  0  0  0  0  0
  1  2  1  0  0  0
  1  7  1  0  0  0
  1 17  1  0  0  0
  2  3  1  0  0  0
  3  4  1  0  0  0
  4  5  1  0  0  0
  5  6  1  0  0  0
  6  7  2  0  0  0
  6 11  1  0  0  0
  7  8  1  0  0  0
  8  9  2  0  0  0
  9 10  1  0  0  0
  9 16  1  0  0  0
 10 11  2  0  0  0
 10 13  1  0  0  0
 11 12  1  0  0  0
 13 14  2  0  0  0
 14 15  1  0  0  0
 15 16  2  0  0  0
  1 18  1  0  0  0
 12 19  1  0  0  0
 12 20  1  0  0  0
M  CHG 1   1   1
M  END
> <minimizedAffinity>
-8.11152

$$$$
684


 19 21  0  0  0  0  0  0  0  0999 V2000
   15.4840   32.7351   72.2695 N   0  0  0  0  0  0  0  0  0  0  0  0
   14.4028   32.0853   71.5056 C   0  0  0  0  0  0  0  0  0  0  0  0
   13.1244   32.8059   71.7825 C   0  0  0  0  0  0  0  0  0  0  0  0
   13.2517   34.2355   71.3296 C   0  0  0  0  0  0  0  0  0  0  0  0
   14.6340   34.6785   71.0836 C   0  0  0  0  0  0  0  0  0  0  0  0
   15.7148   33.9566   71.5385 C   0  0  0  0  0  0  0  0  0  0  0  0
   16.9386   34.4142   71.2828 N   0  0  0  0  0  0  0  0  0  0  0  0
   17.1835   35.5526   70.5994 C   0  0  0  0  0  0  0  0  0  0  0  0
   16.1251   36.3012   70.1290 C   0  0  0  0  0  0  0  0  0  0  0  0
   14.8406   35.8663   70.3694 C   0  0  0  0  0  0  0  0  0  0  0  0
   13.7513   36.6414   69.8824 N   0  0  0  0  0  0  0  0  0  0  0  0
   16.3748   37.4790   69.4220 C   0  0  0  0  0  0  0  0  0  0  0  0
   17.6511   37.9309   69.1704 C   0  0  0  0  0  0  0  0  0  0  0  0
   18.7063   37.1780   69.6442 C   0  0  0  0  0  0  0  0  0  0  0  0
   18.4594   36.0080   70.3465 C   0  0  0  0  0  0  0  0  0  0  0  0
   16.6233   31.8444   72.1828 C   0  0  0  0  0  0  0  0  0  0  0  0
   15.1864   32.9133   73.2431 H   0  0  0  0  0  0  0  0  0  0  0  0
   13.6112   36.6610   68.8483 H   0  0  0  0  0  0  0  0  0  0  0  0
   13.0990   37.1785   70.4714 H   0  0  0  0  0  0  0  0  0  0  0  0
  1  2  1  0  0  0
  1  6  1  0  0  0
  1 16  1  0  0  0
  2  3  1  0  0  0
  3  4  1  0  0  0
  4  5  1  0  0  0
  5  6  2  0  0  0
  5 10  1  0  0  0
  6  7  1  0  0  0
  7  8  2  0  0  0
  8  9  1  0  0  0
  8 15  1  0  0  0
  9 10  2  0  0  0
  9 12  1  0  0  0
 10 11  1  0  0  0
 12 13  2  0  0  0
 13 14  1  0  0  0
 14 15  2  0  0  0
  1 17  1  0  0  0
 11 18  1  0  0  0
 11 19  1  0  0  0
M  CHG 1   1   1
M  END
> <minimizedAffinity>
-7.75993

$$$$
692


 29 32  0  0  0  0  0  0  0  0999 V2000
   16.2818   37.8413   70.6064 Br  0  0  0  0  0  0  0  0  0  0  0  0
   16.2248   35.9426   70.6348 C   0  0  0  0  0  0  0  0  0  0  0  0
   17.4065   35.2266   70.6162 C   0  0  0  0  0  0  0  0  0  0  0  0
   17.4348   33.8240   70.6340 C   0  0  0  0  0  0  0  0  0  0  0  0
   16.2494   33.1331   70.6714 C   0  0  0  0  0  0  0  0  0  0  0  0
   15.0641   33.8429   70.6904 C   0  0  0  0  0  0  0  0  0  0  0  0
   15.0358   35.2202   70.6728 C   0  0  0  0  0  0  0  0  0  0  0  0
   13.4023   32.9170   70.7428 Br  0  0  0  0  0  0  0  0  0  0  0  0
   18.7070   33.1130   70.5989 C   0  0  0  0  0  0  0  0  0  0  0  0
   18.6615   31.9252   70.1763 O   0  0  0  0  0  0  0  0  0  0  0  0
   19.9599   33.7273   71.0235 C   0  0  0  0  0  0  0  0  0  0  0  0
   19.6994   35.2284   71.3189 C   0  0  0  0  0  0  0  0  0  0  0  0
   18.6736   35.7821   70.5794 O   0  0  0  0  0  0  0  0  0  0  0  0
   20.5831   33.2305   72.2460 C   0  0  0  0  0  0  0  0  0  0  0  0
   20.6563   31.9087   72.6656 N   0  0  0  0  0  0  0  0  0  0  0  0
   19.8467   31.4356   73.7445 C   0  0  0  0  0  0  0  0  0  0  0  0
   19.7041   29.9061   73.5346 C   0  0  0  0  0  0  0  0  0  0  0  0
   21.0548   29.3299   73.9050 C   0  0  0  0  0  0  0  0  0  0  0  0
   22.1344   30.3892   73.9119 C   0  0  0  0  0  0  0  0  0  0  0  0
   21.9952   31.3431   72.7449 C   0  0  0  0  0  0  0  0  0  0  0  0
   20.2395   31.3577   71.8274 H   0  0  0  0  0  0  0  0  0  0  0  0
   20.9424   33.6278   69.8670 C   0  0  0  0  0  0  0  0  0  0  0  0
   22.0473   34.5469   69.9865 N   0  0  0  0  0  0  0  0  0  0  0  0
   22.0598   35.3861   68.7968 C   0  0  0  0  0  0  0  0  0  0  0  0
   22.0780   34.5146   67.5852 C   0  0  0  0  0  0  0  0  0  0  0  0
   23.1609   33.4996   67.5524 C   0  0  0  0  0  0  0  0  0  0  0  0
   23.5311   32.9130   68.8707 C   0  0  0  0  0  0  0  0  0  0  0  0
   23.3528   33.9124   69.9917 C   0  0  0  0  0  0  0  0  0  0  0  0
   21.9887   35.1050   70.8567 H   0  0  0  0  0  0  0  0  0  0  0  0
  1  2  1  0  0  0
  2  3  2  0  0  0
  2  7  1  0  0  0
  3  4  1  0  0  0
  3 13  1  0  0  0
  4  5  2  0  0  0
  4  9  1  0  0  0
  5  6  1  0  0  0
  6  7  2  0  0  0
  6  8  1  0  0  0
  9 10  2  0  0  0
  9 11  1  0  0  0
 11 12  1  0  0  0
 11 14  1  0  0  0
 11 22  1  0  0  0
 12 13  1  0  0  0
 14 15  1  0  0  0
 15 16  1  0  0  0
 15 20  1  0  0  0
 16 17  1  0  0  0
 17 18  1  0  0  0
 18 19  1  0  0  0
 19 20  1  0  0  0
 22 23  1  0  0  0
 23 24  1  0  0  0
 23 28  1  0  0  0
 24 25  1  0  0  0
 25 26  1  0  0  0
 26 27  1  0  0  0
 27 28  1  0  0  0
 15 21  1  0  0  0
 23 29  1  0  0  0
M  CHG 1  15   1
M  CHG 1  23   1
M  END
> <minimizedAffinity>
-7.35440

$$$$
693


 33 36  0  0  0  0  0  0  0  0999 V2000
   20.0666   32.7551   72.5100 N   0  0  0  0  0  0  0  0  0  0  0  0
   20.9096   31.9704   71.6920 C   0  0  0  0  0  0  0  0  0  0  0  0
   20.5100   30.8806   71.2321 O   0  0  0  0  0  0  0  0  0  0  0  0
   20.3331   33.6722   72.9272 H   0  0  0  0  0  0  0  0  0  0  0  0
   13.0349   33.9753   70.3611 Br  0  0  0  0  0  0  0  0  0  0  0  0
   14.1513   32.9274   71.5096 C   0  0  0  0  0  0  0  0  0  0  0  0
   15.5206   33.0955   71.5404 C   0  0  0  0  0  0  0  0  0  0  0  0
   16.3378   32.3451   72.3686 C   0  0  0  0  0  0  0  0  0  0  0  0
   15.7126   31.4128   73.1677 C   0  0  0  0  0  0  0  0  0  0  0  0
   14.3501   31.2155   73.1640 C   0  0  0  0  0  0  0  0  0  0  0  0
   13.5463   31.9751   72.3299 C   0  0  0  0  0  0  0  0  0  0  0  0
   13.5455   29.9047   74.2991 Br  0  0  0  0  0  0  0  0  0  0  0  0
   17.7340   32.7228   72.2081 C   0  0  0  0  0  0  0  0  0  0  0  0
   18.7839   32.2721   72.7855 N   0  0  0  0  0  0  0  0  0  0  0  0
   17.7422   33.7880   71.1994 C   0  0  0  0  0  0  0  0  0  0  0  0
   18.7870   34.3670   70.7980 O   0  0  0  0  0  0  0  0  0  0  0  0
   16.3895   33.9728   70.8321 N   0  0  0  0  0  0  0  0  0  0  0  0
   16.0667   34.6620   70.1322 H   0  0  0  0  0  0  0  0  0  0  0  0
   22.3015   32.3934   71.3381 C   0  0  0  0  0  0  0  0  0  0  0  0
   22.3770   33.7967   71.0378 N   0  0  0  0  0  0  0  0  0  0  0  0
   22.1287   34.3232   69.7411 C   0  0  0  0  0  0  0  0  0  0  0  0
   21.8312   33.5266   68.8243 O   0  0  0  0  0  0  0  0  0  0  0  0
   22.6210   34.4981   71.7760 H   0  0  0  0  0  0  0  0  0  0  0  0
   22.2061   35.7783   69.4132 C   0  0  0  0  0  0  0  0  0  0  0  0
   21.0601   36.4664   69.8188 O   0  0  0  0  0  0  0  0  0  0  0  0
   20.1043   36.9994   68.9567 C   0  0  0  0  0  0  0  0  0  0  0  0
   20.4796   37.1866   67.6526 C   0  0  0  0  0  0  0  0  0  0  0  0
   19.5429   37.7200   66.7671 C   0  0  0  0  0  0  0  0  0  0  0  0
   18.2681   38.0617   67.1570 C   0  0  0  0  0  0  0  0  0  0  0  0
   17.9260   37.8587   68.4799 C   0  0  0  0  0  0  0  0  0  0  0  0
   18.8452   37.3329   69.3574 C   0  0  0  0  0  0  0  0  0  0  0  0
   21.7442   36.8507   67.2552 O   0  0  0  0  0  0  0  0  0  0  0  0
   22.5980   36.0257   67.9987 C   0  0  0  0  0  0  0  0  0  0  0  0
  5  6  1  0  0  0
  6  7  2  0  0  0
  6 11  1  0  0  0
  7  8  1  0  0  0
  7 17  1  0  0  0
  8  9  2  0  0  0
  8 13  1  0  0  0
  9 10  1  0  0  0
 10 11  2  0  0  0
 10 12  1  0  0  0
 13 14  2  0  0  0
 13 15  1  0  0  0
 14  1  1  0  0  0
  1  2  1  0  0  0
  2  3  2  0  0  0
  2 19  1  0  0  0
 19 20  1  0  0  0
 20 21  1  0  0  0
 21 22  2  0  0  0
 21 24  1  0  0  0
 24 25  1  0  0  0
 24 33  1  0  0  0
 25 26  1  0  0  0
 26 27  2  0  0  0
 26 31  1  0  0  0
 27 28  1  0  0  0
 27 32  1  0  0  0
 28 29  2  0  0  0
 29 30  1  0  0  0
 30 31  2  0  0  0
 32 33  1  0  0  0
 15 16  2  0  0  0
 15 17  1  0  0  0
  1  4  1  0  0  0
 20 23  1  0  0  0
 17 18  1  0  0  0
M  END
> <minimizedAffinity>
-9.06715

$$$$
695


 22 25  0  0  0  0  0  0  0  0999 V2000
   18.6826   34.6931   71.1403 C   0  0  0  0  0  0  0  0  0  0  0  0
   13.8734   32.3278   71.1266 Br  0  0  0  0  0  0  0  0  0  0  0  0
   15.0182   33.8518   70.8884 C   0  0  0  0  0  0  0  0  0  0  0  0
   14.4259   35.0398   70.5154 C   0  0  0  0  0  0  0  0  0  0  0  0
   15.2436   36.1297   70.3453 C   0  0  0  0  0  0  0  0  0  0  0  0
   16.6209   36.0192   70.5457 C   0  0  0  0  0  0  0  0  0  0  0  0
   17.2215   34.8389   70.9176 C   0  0  0  0  0  0  0  0  0  0  0  0
   16.3792   33.7361   71.0878 C   0  0  0  0  0  0  0  0  0  0  0  0
   14.4133   37.1892   69.9751 O   0  0  0  0  0  0  0  0  0  0  0  0
   13.2169   36.6166   69.4246 C   0  0  0  0  0  0  0  0  0  0  0  0
   13.1134   35.4472   70.2494 O   0  0  0  0  0  0  0  0  0  0  0  0
   19.3559   35.8919   70.7042 N   0  0  0  0  0  0  0  0  0  0  0  0
   19.3381   36.7637   71.2598 H   0  0  0  0  0  0  0  0  0  0  0  0
   20.0698   35.8589   69.4542 C   0  0  0  0  0  0  0  0  0  0  0  0
   21.0311   34.9528   69.2304 N   0  0  0  0  0  0  0  0  0  0  0  0
   21.6930   34.9290   68.0598 C   0  0  0  0  0  0  0  0  0  0  0  0
   21.4039   35.8390   67.0474 C   0  0  0  0  0  0  0  0  0  0  0  0
   20.4464   36.7370   67.2774 N   0  0  0  0  0  0  0  0  0  0  0  0
   19.7762   36.7638   68.4583 C   0  0  0  0  0  0  0  0  0  0  0  0
   18.8827   37.7645   68.3978 N   0  0  0  0  0  0  0  0  0  0  0  0
   18.9649   38.3680   67.2240 N   0  0  0  0  0  0  0  0  0  0  0  0
   19.9238   37.7353   66.5427 C   0  0  0  0  0  0  0  0  0  0  0  0
  2  3  1  0  0  0
  3  4  2  0  0  0
  3  8  1  0  0  0
  4  5  1  0  0  0
  4 11  1  0  0  0
  5  6  2  0  0  0
  5  9  1  0  0  0
  6  7  1  0  0  0
  7  8  2  0  0  0
  7  1  1  0  0  0
  1 12  1  0  0  0
 12 14  1  0  0  0
 14 15  2  0  0  0
 14 19  1  0  0  0
 15 16  1  0  0  0
 16 17  2  0  0  0
 17 18  1  0  0  0
 18 19  1  0  0  0
 18 22  1  0  0  0
 19 20  2  0  0  0
 20 21  1  0  0  0
 21 22  2  0  0  0
  9 10  1  0  0  0
 10 11  1  0  0  0
 12 13  1  0  0  0
M  END
> <minimizedAffinity>
-7.66154

$$$$
696


 28 31  0  0  0  0  0  0  0  0999 V2000
   16.6688   37.2432   69.5914 Br  0  0  0  0  0  0  0  0  0  0  0  0
   18.3120   36.4117   70.0512 C   0  0  0  0  0  0  0  0  0  0  0  0
   19.4689   36.7384   69.3309 C   0  0  0  0  0  0  0  0  0  0  0  0
   20.6768   36.1810   69.6206 C   0  0  0  0  0  0  0  0  0  0  0  0
   20.7521   35.2658   70.6559 C   0  0  0  0  0  0  0  0  0  0  0  0
   19.6092   34.9355   71.3757 C   0  0  0  0  0  0  0  0  0  0  0  0
   18.3905   35.5013   71.0814 C   0  0  0  0  0  0  0  0  0  0  0  0
   19.6481   33.9547   72.4978 C   0  0  0  0  0  0  0  0  0  0  0  0
   21.8995   36.5754   68.8692 C   0  0  0  0  0  0  0  0  0  0  0  0
   21.7100   36.9801   67.4515 C   0  0  0  0  0  0  0  0  0  0  0  0
   20.2134   37.2137   67.1342 C   0  0  0  0  0  0  0  0  0  0  0  0
   19.4884   37.6398   68.2760 O   0  0  0  0  0  0  0  0  0  0  0  0
   22.4387   37.6079   69.6870 O   0  0  0  0  0  0  0  0  0  0  0  0
   22.9209   37.2402   70.4473 H   0  0  0  0  0  0  0  0  0  0  0  0
   22.0903   35.8892   66.4684 C   0  0  0  0  0  0  0  0  0  0  0  0
   23.4279   35.3638   66.6383 N   0  0  0  0  0  0  0  0  0  0  0  0
   24.1331   35.3999   65.3569 C   0  0  0  0  0  0  0  0  0  0  0  0
   25.2063   34.3763   65.4026 C   0  0  0  0  0  0  0  0  0  0  0  0
   24.9299   33.6149   66.6548 C   0  0  0  0  0  0  0  0  0  0  0  0
   23.4461   33.9313   66.8832 C   0  0  0  0  0  0  0  0  0  0  0  0
   23.9838   35.7988   67.3886 H   0  0  0  0  0  0  0  0  0  0  0  0
   22.3384   38.2858   67.1431 C   0  0  0  0  0  0  0  0  0  0  0  0
   22.5789   38.8836   65.9336 N   0  0  0  0  0  0  0  0  0  0  0  0
   21.9029   40.1991   65.8704 C   0  0  0  0  0  0  0  0  0  0  0  0
   22.7732   41.0834   65.0649 C   0  0  0  0  0  0  0  0  0  0  0  0
   24.1437   40.5312   65.1588 C   0  0  0  0  0  0  0  0  0  0  0  0
   23.9032   39.0621   65.5017 C   0  0  0  0  0  0  0  0  0  0  0  0
   22.0156   38.3784   65.1169 H   0  0  0  0  0  0  0  0  0  0  0  0
  1  2  1  0  0  0
  2  3  2  0  0  0
  2  7  1  0  0  0
  3  4  1  0  0  0
  3 12  1  0  0  0
  4  5  2  0  0  0
  4  9  1  0  0  0
  5  6  1  0  0  0
  6  7  2  0  0  0
  6  8  1  0  0  0
  9 10  1  0  0  0
  9 13  1  0  0  0
 10 11  1  0  0  0
 10 15  1  0  0  0
 10 22  1  0  0  0
 11 12  1  0  0  0
 15 16  1  0  0  0
 16 17  1  0  0  0
 16 20  1  0  0  0
 17 18  1  0  0  0
 18 19  1  0  0  0
 19 20  1  0  0  0
 22 23  1  0  0  0
 23 24  1  0  0  0
 23 27  1  0  0  0
 24 25  1  0  0  0
 25 26  1  0  0  0
 26 27  1  0  0  0
 16 21  1  0  0  0
 23 28  1  0  0  0
 13 14  1  0  0  0
M  CHG 1  16   1
M  CHG 1  23   1
M  END
> <minimizedAffinity>
-7.41154

$$$$
699


 32 35  0  0  0  0  0  0  0  0999 V2000
   18.7407   30.2010   72.9816 C   0  0  0  0  0  0  0  0  0  0  0  0
   18.6332   30.0827   74.3430 O   0  0  0  0  0  0  0  0  0  0  0  0
   17.8951   30.5767   74.7438 H   0  0  0  0  0  0  0  0  0  0  0  0
   17.4288   30.5155   72.3082 C   0  0  0  0  0  0  0  0  0  0  0  0
   16.6285   31.3871   73.0833 O   0  0  0  0  0  0  0  0  0  0  0  0
   14.2659   30.7176   71.2770 Br  0  0  0  0  0  0  0  0  0  0  0  0
   15.0281   32.4323   71.5910 C   0  0  0  0  0  0  0  0  0  0  0  0
   14.4931   33.5365   70.9574 C   0  0  0  0  0  0  0  0  0  0  0  0
   15.0251   34.7917   71.1666 C   0  0  0  0  0  0  0  0  0  0  0  0
   16.1002   34.8836   72.0269 C   0  0  0  0  0  0  0  0  0  0  0  0
   16.6288   33.7746   72.6569 C   0  0  0  0  0  0  0  0  0  0  0  0
   16.1036   32.5143   72.4538 C   0  0  0  0  0  0  0  0  0  0  0  0
   14.4883   35.8988   70.5309 C   0  0  0  0  0  0  0  0  0  0  0  0
   13.4130   35.8083   69.6709 C   0  0  0  0  0  0  0  0  0  0  0  0
   12.8803   34.5517   69.4604 C   0  0  0  0  0  0  0  0  0  0  0  0
   13.4152   33.4476   70.0940 C   0  0  0  0  0  0  0  0  0  0  0  0
   19.7919   31.1757   72.5775 C   0  0  0  0  0  0  0  0  0  0  0  0
   19.2692   32.4172   72.0516 N   0  0  0  0  0  0  0  0  0  0  0  0
   19.4553   32.3764   70.6120 C   0  0  0  0  0  0  0  0  0  0  0  0
   19.1752   33.7370   69.9578 C   0  0  0  0  0  0  0  0  0  0  0  0
   20.0258   34.7099   70.5441 N   0  0  0  0  0  0  0  0  0  0  0  0
   20.8841   34.2049   71.6359 C   0  0  0  0  0  0  0  0  0  0  0  0
   20.0160   33.5200   72.6383 C   0  0  0  0  0  0  0  0  0  0  0  0
   20.0972   36.0553   70.1658 C   0  0  0  0  0  0  0  0  0  0  0  0
   20.9723   36.7503   70.8744 O   0  0  0  0  0  0  0  0  0  0  0  0
   18.2531   32.5567   72.2346 H   0  0  0  0  0  0  0  0  0  0  0  0
   19.4090   36.8117   69.1703 C   0  0  0  0  0  0  0  0  0  0  0  0
   19.8694   37.1388   67.9268 C   0  0  0  0  0  0  0  0  0  0  0  0
   19.1464   37.8808   67.0031 C   0  0  0  0  0  0  0  0  0  0  0  0
   17.9021   38.3278   67.3124 C   0  0  0  0  0  0  0  0  0  0  0  0
   17.4077   38.0141   68.5617 C   0  0  0  0  0  0  0  0  0  0  0  0
   18.1226   37.2813   69.4753 C   0  0  0  0  0  0  0  0  0  0  0  0
  6  7  1  0  0  0
  7  8  2  0  0  0
  7 12  1  0  0  0
  8  9  1  0  0  0
  8 16  1  0  0  0
  9 10  2  0  0  0
  9 13  1  0  0  0
 10 11  1  0  0  0
 11 12  2  0  0  0
 12  5  1  0  0  0
  5  4  1  0  0  0
  4  1  1  0  0  0
  1  2  1  0  0  0
  1 17  1  0  0  0
 17 18  1  0  0  0
 18 19  1  0  0  0
 18 23  1  0  0  0
 19 20  1  0  0  0
 20 21  1  0  0  0
 21 22  1  0  0  0
 21 24  1  0  0  0
 22 23  1  0  0  0
 24 25  2  0  0  0
 24 27  1  0  0  0
 27 28  2  0  0  0
 27 32  1  0  0  0
 28 29  1  0  0  0
 29 30  2  0  0  0
 30 31  1  0  0  0
 31 32  2  0  0  0
 13 14  2  0  0  0
 14 15  1  0  0  0
 15 16  2  0  0  0
  2  3  1  0  0  0
 18 26  1  0  0  0
M  CHG 1  18   1
M  END
> <minimizedAffinity>
-9.63422

$$$$
706


 30 33  0  0  0  0  0  0  0  0999 V2000
   20.3943   36.8774   67.4044 C   0  0  0  0  0  0  0  0  0  0  0  0
   22.2271   34.1829   67.9474 Br  0  0  0  0  0  0  0  0  0  0  0  0
   22.6164   35.9074   67.1762 C   0  0  0  0  0  0  0  0  0  0  0  0
   21.7608   36.9330   67.0080 N   0  0  0  0  0  0  0  0  0  0  0  0
   22.4049   37.9637   66.4381 C   0  0  0  0  0  0  0  0  0  0  0  0
   23.7143   37.5704   66.2408 C   0  0  0  0  0  0  0  0  0  0  0  0
   23.8058   36.3156   66.7005 N   0  0  0  0  0  0  0  0  0  0  0  0
   24.5752   38.4424   65.6778 N   0  0  0  0  0  0  0  0  0  0  0  0
   24.2114   39.6877   65.2990 C   0  0  0  0  0  0  0  0  0  0  0  0
   25.0524   40.4764   64.7733 O   0  0  0  0  0  0  0  0  0  0  0  0
   22.9444   40.1039   65.4771 N   0  0  0  0  0  0  0  0  0  0  0  0
   22.0782   39.2425   66.0378 C   0  0  0  0  0  0  0  0  0  0  0  0
   20.9009   39.6192   66.2095 O   0  0  0  0  0  0  0  0  0  0  0  0
   22.5786   41.4450   65.0636 C   0  0  0  0  0  0  0  0  0  0  0  0
   25.9459   38.0208   65.4738 C   0  0  0  0  0  0  0  0  0  0  0  0
   20.0735   37.2703   68.8002 C   0  0  0  0  0  0  0  0  0  0  0  0
   18.7860   36.9242   69.3016 N   0  0  0  0  0  0  0  0  0  0  0  0
   18.5397   36.0198   70.2819 C   0  0  0  0  0  0  0  0  0  0  0  0
   17.1860   35.9399   70.4976 C   0  0  0  0  0  0  0  0  0  0  0  0
   16.6406   36.8106   69.6320 N   0  0  0  0  0  0  0  0  0  0  0  0
   17.6019   37.4037   68.9106 C   0  0  0  0  0  0  0  0  0  0  0  0
   17.3786   38.7274   67.5270 Br  0  0  0  0  0  0  0  0  0  0  0  0
   16.6264   35.1163   71.4237 N   0  0  0  0  0  0  0  0  0  0  0  0
   17.4695   34.3562   72.1455 C   0  0  0  0  0  0  0  0  0  0  0  0
   16.9631   33.5878   73.0079 O   0  0  0  0  0  0  0  0  0  0  0  0
   18.8030   34.3923   71.9778 N   0  0  0  0  0  0  0  0  0  0  0  0
   19.3420   35.2023   71.0679 C   0  0  0  0  0  0  0  0  0  0  0  0
   20.5825   35.2838   70.8608 O   0  0  0  0  0  0  0  0  0  0  0  0
   19.6672   33.5536   72.7811 C   0  0  0  0  0  0  0  0  0  0  0  0
   15.1848   35.0586   71.6259 C   0  0  0  0  0  0  0  0  0  0  0  0
  2  3  1  0  0  0
  3  4  1  0  0  0
  3  7  2  0  0  0
  4  5  1  0  0  0
  4  1  1  0  0  0
  5  6  2  0  0  0
  5 12  1  0  0  0
  6  7  1  0  0  0
  6  8  1  0  0  0
  8  9  1  0  0  0
  8 15  1  0  0  0
  9 10  2  0  0  0
  9 11  1  0  0  0
 11 12  1  0  0  0
 11 14  1  0  0  0
 12 13  2  0  0  0
  1 16  1  0  0  0
 16 17  1  0  0  0
 17 18  1  0  0  0
 17 21  1  0  0  0
 18 19  2  0  0  0
 18 27  1  0  0  0
 19 20  1  0  0  0
 19 23  1  0  0  0
 20 21  2  0  0  0
 21 22  1  0  0  0
 23 24  1  0  0  0
 23 30  1  0  0  0
 24 25  2  0  0  0
 24 26  1  0  0  0
 26 27  1  0  0  0
 26 29  1  0  0  0
 27 28  2  0  0  0
M  END
> <minimizedAffinity>
-8.82791

$$$$
708


 31 34  0  0  0  0  0  0  0  0999 V2000
   16.8479   36.0769   70.0040 C   0  0  0  0  0  0  0  0  0  0  0  0
   15.7989   35.9645   71.0712 C   0  0  0  0  0  0  0  0  0  0  0  0
   13.0711   35.3872   69.3940 Br  0  0  0  0  0  0  0  0  0  0  0  0
   14.0657   34.2454   70.5483 C   0  0  0  0  0  0  0  0  0  0  0  0
   15.2116   34.6449   71.1799 N   0  0  0  0  0  0  0  0  0  0  0  0
   15.6032   33.5686   71.8905 C   0  0  0  0  0  0  0  0  0  0  0  0
   14.7256   32.5116   71.7111 C   0  0  0  0  0  0  0  0  0  0  0  0
   13.7791   32.9745   70.8664 N   0  0  0  0  0  0  0  0  0  0  0  0
   14.8581   31.3106   72.3000 N   0  0  0  0  0  0  0  0  0  0  0  0
   15.9189   31.1531   73.1119 C   0  0  0  0  0  0  0  0  0  0  0  0
   16.0898   30.0297   73.6943 O   0  0  0  0  0  0  0  0  0  0  0  0
   16.7955   32.1536   73.3155 N   0  0  0  0  0  0  0  0  0  0  0  0
   16.6640   33.3719   72.7203 C   0  0  0  0  0  0  0  0  0  0  0  0
   17.4851   34.2903   72.9214 O   0  0  0  0  0  0  0  0  0  0  0  0
   13.9370   30.2113   72.1056 C   0  0  0  0  0  0  0  0  0  0  0  0
   17.6224   32.0478   73.9411 H   0  0  0  0  0  0  0  0  0  0  0  0
   17.7558   37.2653   70.1409 C   0  0  0  0  0  0  0  0  0  0  0  0
   18.7465   37.2618   69.0735 N   0  0  0  0  0  0  0  0  0  0  0  0
   19.9862   36.7210   69.0799 C   0  0  0  0  0  0  0  0  0  0  0  0
   20.6057   36.9340   67.8703 C   0  0  0  0  0  0  0  0  0  0  0  0
   19.7174   37.6174   67.1246 N   0  0  0  0  0  0  0  0  0  0  0  0
   18.5997   37.8113   67.8573 C   0  0  0  0  0  0  0  0  0  0  0  0
   17.0136   38.7198   67.3040 Br  0  0  0  0  0  0  0  0  0  0  0  0
   21.8501   36.5083   67.5840 N   0  0  0  0  0  0  0  0  0  0  0  0
   22.4998   35.8357   68.5655 C   0  0  0  0  0  0  0  0  0  0  0  0
   23.6728   35.4316   68.2990 O   0  0  0  0  0  0  0  0  0  0  0  0
   21.9287   35.6051   69.7663 N   0  0  0  0  0  0  0  0  0  0  0  0
   20.6807   36.0362   70.0421 C   0  0  0  0  0  0  0  0  0  0  0  0
   20.1215   35.8382   71.1480 O   0  0  0  0  0  0  0  0  0  0  0  0
   22.4681   36.7584   66.2841 C   0  0  0  0  0  0  0  0  0  0  0  0
   22.4747   35.0829   70.4800 H   0  0  0  0  0  0  0  0  0  0  0  0
  3  4  1  0  0  0
  4  5  1  0  0  0
  4  8  2  0  0  0
  5  6  1  0  0  0
  5  2  1  0  0  0
  6  7  2  0  0  0
  6 13  1  0  0  0
  7  8  1  0  0  0
  7  9  1  0  0  0
  9 10  1  0  0  0
  9 15  1  0  0  0
 10 11  2  0  0  0
 10 12  1  0  0  0
 12 13  1  0  0  0
 13 14  2  0  0  0
  2  1  1  0  0  0
  1 17  1  0  0  0
 17 18  1  0  0  0
 18 19  1  0  0  0
 18 22  1  0  0  0
 19 20  2  0  0  0
 19 28  1  0  0  0
 20 21  1  0  0  0
 20 24  1  0  0  0
 21 22  2  0  0  0
 22 23  1  0  0  0
 24 25  1  0  0  0
 24 30  1  0  0  0
 25 26  2  0  0  0
 25 27  1  0  0  0
 27 28  1  0  0  0
 28 29  2  0  0  0
 12 16  1  0  0  0
 27 31  1  0  0  0
M  END
> <minimizedAffinity>
-8.69874

$$$$
709


 30 33  0  0  0  0  0  0  0  0999 V2000
   20.7379   36.7651   68.9828 C   0  0  0  0  0  0  0  0  0  0  0  0
   21.3980   34.2572   70.9319 Br  0  0  0  0  0  0  0  0  0  0  0  0
   19.7519   35.1540   70.5678 C   0  0  0  0  0  0  0  0  0  0  0  0
   19.6565   36.2038   69.7180 N   0  0  0  0  0  0  0  0  0  0  0  0
   18.3530   36.5681   69.7169 C   0  0  0  0  0  0  0  0  0  0  0  0
   17.6260   35.7431   70.5706 C   0  0  0  0  0  0  0  0  0  0  0  0
   18.5392   34.8826   71.0746 N   0  0  0  0  0  0  0  0  0  0  0  0
   16.3009   35.9065   70.7332 N   0  0  0  0  0  0  0  0  0  0  0  0
   15.6449   36.8748   70.0700 C   0  0  0  0  0  0  0  0  0  0  0  0
   14.3920   37.0367   70.2180 O   0  0  0  0  0  0  0  0  0  0  0  0
   16.2956   37.7003   69.2302 N   0  0  0  0  0  0  0  0  0  0  0  0
   17.6337   37.5397   69.0631 C   0  0  0  0  0  0  0  0  0  0  0  0
   18.2809   38.2948   68.2796 O   0  0  0  0  0  0  0  0  0  0  0  0
   15.5400   35.0545   71.6181 C   0  0  0  0  0  0  0  0  0  0  0  0
   15.8067   38.4573   68.7060 H   0  0  0  0  0  0  0  0  0  0  0  0
   20.9055   36.3154   67.5753 C   0  0  0  0  0  0  0  0  0  0  0  0
   22.1578   36.5336   66.9418 N   0  0  0  0  0  0  0  0  0  0  0  0
   22.5882   37.6511   66.3333 C   0  0  0  0  0  0  0  0  0  0  0  0
   23.8592   37.4353   65.8430 C   0  0  0  0  0  0  0  0  0  0  0  0
   24.1500   36.1643   66.1877 N   0  0  0  0  0  0  0  0  0  0  0  0
   23.1478   35.5972   66.8492 C   0  0  0  0  0  0  0  0  0  0  0  0
   23.0708   33.8056   67.5540 Br  0  0  0  0  0  0  0  0  0  0  0  0
   24.5045   38.4073   65.1995 N   0  0  0  0  0  0  0  0  0  0  0  0
   23.9307   39.5998   65.0202 C   0  0  0  0  0  0  0  0  0  0  0  0
   24.5225   40.5489   64.4066 O   0  0  0  0  0  0  0  0  0  0  0  0
   22.6958   39.8884   65.4677 N   0  0  0  0  0  0  0  0  0  0  0  0
   22.0503   38.9099   66.1153 C   0  0  0  0  0  0  0  0  0  0  0  0
   20.9019   39.1700   66.5380 O   0  0  0  0  0  0  0  0  0  0  0  0
   25.8352   38.1949   64.6797 C   0  0  0  0  0  0  0  0  0  0  0  0
   22.2730   40.8388   65.3099 H   0  0  0  0  0  0  0  0  0  0  0  0
  2  3  1  0  0  0
  3  4  1  0  0  0
  3  7  2  0  0  0
  4  5  1  0  0  0
  4  1  1  0  0  0
  5  6  2  0  0  0
  5 12  1  0  0  0
  6  7  1  0  0  0
  6  8  1  0  0  0
  8  9  1  0  0  0
  8 14  1  0  0  0
  9 10  2  0  0  0
  9 11  1  0  0  0
 11 12  1  0  0  0
 12 13  2  0  0  0
  1 16  1  0  0  0
 16 17  1  0  0  0
 17 18  1  0  0  0
 17 21  1  0  0  0
 18 19  2  0  0  0
 18 27  1  0  0  0
 19 20  1  0  0  0
 19 23  1  0  0  0
 20 21  2  0  0  0
 21 22  1  0  0  0
 23 24  1  0  0  0
 23 29  1  0  0  0
 24 25  2  0  0  0
 24 26  1  0  0  0
 26 27  1  0  0  0
 27 28  2  0  0  0
 11 15  1  0  0  0
 26 30  1  0  0  0
M  END
> <minimizedAffinity>
-8.50037

$$$$
716


 31 35  0  0  0  0  0  0  0  0999 V2000
   17.1009   33.4296   71.5356 C   0  0  0  0  0  0  0  0  0  0  0  0
   18.1682   34.0075   70.6339 C   0  0  0  0  0  0  0  0  0  0  0  0
   19.5202   33.5718   71.1181 C   0  0  0  0  0  0  0  0  0  0  0  0
   19.5762   32.0513   70.9154 C   0  0  0  0  0  0  0  0  0  0  0  0
   18.4597   31.4177   71.7061 C   0  0  0  0  0  0  0  0  0  0  0  0
   17.0982   31.9321   71.3160 C   0  0  0  0  0  0  0  0  0  0  0  0
   18.7067   31.6618   73.1607 C   0  0  0  0  0  0  0  0  0  0  0  0
   18.6970   33.1541   73.4065 C   0  0  0  0  0  0  0  0  0  0  0  0
   17.3683   33.6863   72.9858 C   0  0  0  0  0  0  0  0  0  0  0  0
   19.7653   33.8218   72.5688 C   0  0  0  0  0  0  0  0  0  0  0  0
   13.4061   36.7696   69.4012 Br  0  0  0  0  0  0  0  0  0  0  0  0
   14.2659   35.3439   70.3530 C   0  0  0  0  0  0  0  0  0  0  0  0
   15.5852   35.0983   70.4507 N   0  0  0  0  0  0  0  0  0  0  0  0
   15.8085   34.0218   71.1939 N   0  0  0  0  0  0  0  0  0  0  0  0
   14.5919   33.5857   71.5681 C   0  0  0  0  0  0  0  0  0  0  0  0
   13.6363   34.3813   71.0644 N   0  0  0  0  0  0  0  0  0  0  0  0
   20.6054   34.1953   70.3309 C   0  0  0  0  0  0  0  0  0  0  0  0
   21.4220   34.9363   70.9344 O   0  0  0  0  0  0  0  0  0  0  0  0
   20.7215   33.9630   68.9301 N   0  0  0  0  0  0  0  0  0  0  0  0
   20.0086   33.3404   68.5061 H   0  0  0  0  0  0  0  0  0  0  0  0
   21.7267   34.5171   68.0944 C   0  0  0  0  0  0  0  0  0  0  0  0
   21.7270   35.8032   67.6335 C   0  0  0  0  0  0  0  0  0  0  0  0
   22.8380   35.9552   66.8742 N   0  0  0  0  0  0  0  0  0  0  0  0
   23.5004   34.8184   66.8603 N   0  0  0  0  0  0  0  0  0  0  0  0
   22.8574   33.9044   67.5945 C   0  0  0  0  0  0  0  0  0  0  0  0
   23.2761   37.1474   66.1700 C   0  0  0  0  0  0  0  0  0  0  0  0
   20.7908   36.8899   67.8393 C   0  0  0  0  0  0  0  0  0  0  0  0
   20.8123   37.5790   68.8896 O   0  0  0  0  0  0  0  0  0  0  0  0
   19.7962   37.2554   66.8922 N   0  0  0  0  0  0  0  0  0  0  0  0
   19.9876   38.0973   66.2751 H   0  0  0  0  0  0  0  0  0  0  0  0
   18.8923   36.7636   66.7561 H   0  0  0  0  0  0  0  0  0  0  0  0
 11 12  1  0  0  0
 12 13  2  0  0  0
 12 16  1  0  0  0
 13 14  1  0  0  0
 14 15  1  0  0  0
 14  1  1  0  0  0
 15 16  2  0  0  0
  1  2  1  0  0  0
  1  6  1  0  0  0
  1  9  1  0  0  0
  2  3  1  0  0  0
  3  4  1  0  0  0
  3 10  1  0  0  0
  3 17  1  0  0  0
  4  5  1  0  0  0
  5  6  1  0  0  0
  5  7  1  0  0  0
  7  8  1  0  0  0
  8  9  1  0  0  0
  8 10  1  0  0  0
 17 18  2  0  0  0
 17 19  1  0  0  0
 19 21  1  0  0  0
 21 22  2  0  0  0
 21 25  1  0  0  0
 22 23  1  0  0  0
 22 27  1  0  0  0
 23 24  1  0  0  0
 23 26  1  0  0  0
 24 25  2  0  0  0
 27 28  2  0  0  0
 27 29  1  0  0  0
 19 20  1  0  0  0
 29 30  1  0  0  0
 29 31  1  0  0  0
M  END
> <minimizedAffinity>
-8.59816

$$$$
723


 23 26  0  0  0  0  0  0  0  0999 V2000
   24.1322   36.6160   65.6164 N   0  0  0  0  0  0  0  0  0  0  0  0
   25.0065   37.6224   65.1012 C   0  0  0  0  0  0  0  0  0  0  0  0
   25.5964   37.2739   63.7891 C   0  0  0  0  0  0  0  0  0  0  0  0
   25.4114   35.9958   63.3370 O   0  0  0  0  0  0  0  0  0  0  0  0
   25.4501   35.0478   64.3535 C   0  0  0  0  0  0  0  0  0  0  0  0
   24.3433   35.2279   65.3420 C   0  0  0  0  0  0  0  0  0  0  0  0
   25.9102   36.6144   68.3237 Br  0  0  0  0  0  0  0  0  0  0  0  0
   24.0795   36.9250   68.7422 C   0  0  0  0  0  0  0  0  0  0  0  0
   23.5402   37.1151   69.9671 N   0  0  0  0  0  0  0  0  0  0  0  0
   22.2473   37.3325   69.8941 N   0  0  0  0  0  0  0  0  0  0  0  0
   21.9319   37.2825   68.5873 C   0  0  0  0  0  0  0  0  0  0  0  0
   20.7704   37.4479   67.9461 N   0  0  0  0  0  0  0  0  0  0  0  0
   20.6906   37.3696   66.6056 C   0  0  0  0  0  0  0  0  0  0  0  0
   21.7857   37.1195   65.8663 N   0  0  0  0  0  0  0  0  0  0  0  0
   23.0098   36.9381   66.4515 C   0  0  0  0  0  0  0  0  0  0  0  0
   23.0707   37.0233   67.8143 C   0  0  0  0  0  0  0  0  0  0  0  0
   21.3556   37.5751   71.0129 C   0  0  0  0  0  0  0  0  0  0  0  0
   24.3774   38.9619   65.1319 C   0  0  0  0  0  0  0  0  0  0  0  0
   23.6417   39.5051   64.1611 N   0  0  0  0  0  0  0  0  0  0  0  0
   23.2676   40.7385   64.6068 C   0  0  0  0  0  0  0  0  0  0  0  0
   23.8011   40.8791   65.8336 N   0  0  0  0  0  0  0  0  0  0  0  0
   24.4633   39.7978   66.1258 O   0  0  0  0  0  0  0  0  0  0  0  0
   22.4384   41.7365   63.8932 C   0  0  0  0  0  0  0  0  0  0  0  0
  7  8  1  0  0  0
  8  9  2  0  0  0
  8 16  1  0  0  0
  9 10  1  0  0  0
 10 11  1  0  0  0
 10 17  1  0  0  0
 11 12  1  0  0  0
 11 16  2  0  0  0
 12 13  2  0  0  0
 13 14  1  0  0  0
 14 15  2  0  0  0
 15 16  1  0  0  0
 15  1  1  0  0  0
  1  2  1  0  0  0
  1  6  1  0  0  0
  2  3  1  0  0  0
  2 18  1  0  0  0
  3  4  1  0  0  0
  4  5  1  0  0  0
  5  6  1  0  0  0
 18 19  2  0  0  0
 18 22  1  0  0  0
 19 20  1  0  0  0
 20 21  2  0  0  0
 20 23  1  0  0  0
 21 22  1  0  0  0
M  END
> <minimizedAffinity>
-6.65821

$$$$
727


 21 24  0  0  0  0  0  0  0  0999 V2000
   16.6156   37.8575   70.2182 Br  0  0  0  0  0  0  0  0  0  0  0  0
   16.5687   36.0199   70.7131 C   0  0  0  0  0  0  0  0  0  0  0  0
   15.4721   35.3375   71.1560 N   0  0  0  0  0  0  0  0  0  0  0  0
   15.8144   34.0908   71.3778 N   0  0  0  0  0  0  0  0  0  0  0  0
   17.1159   33.9164   71.0962 C   0  0  0  0  0  0  0  0  0  0  0  0
   17.9428   32.8594   71.1387 N   0  0  0  0  0  0  0  0  0  0  0  0
   19.2219   32.9527   70.7855 C   0  0  0  0  0  0  0  0  0  0  0  0
   19.7101   34.1202   70.3774 N   0  0  0  0  0  0  0  0  0  0  0  0
   18.9525   35.2640   70.2965 C   0  0  0  0  0  0  0  0  0  0  0  0
   17.6350   35.1478   70.6629 C   0  0  0  0  0  0  0  0  0  0  0  0
   14.9669   32.9907   71.8611 C   0  0  0  0  0  0  0  0  0  0  0  0
   19.5201   36.4751   69.9007 N   0  0  0  0  0  0  0  0  0  0  0  0
   20.3887   37.2215   70.7840 C   0  0  0  0  0  0  0  0  0  0  0  0
   21.8236   37.0883   70.2322 C   0  0  0  0  0  0  0  0  0  0  0  0
   21.7819   37.1145   68.7541 C   0  0  0  0  0  0  0  0  0  0  0  0
   22.8405   37.1559   67.9124 N   0  0  0  0  0  0  0  0  0  0  0  0
   22.3648   37.1688   66.6557 C   0  0  0  0  0  0  0  0  0  0  0  0
   21.0337   37.1373   66.6669 N   0  0  0  0  0  0  0  0  0  0  0  0
   20.6692   37.1038   67.9676 C   0  0  0  0  0  0  0  0  0  0  0  0
   19.3274   37.0592   68.5980 C   0  0  0  0  0  0  0  0  0  0  0  0
   24.2422   37.1822   68.2430 C   0  0  0  0  0  0  0  0  0  0  0  0
  1  2  1  0  0  0
  2  3  2  0  0  0
  2 10  1  0  0  0
  3  4  1  0  0  0
  4  5  1  0  0  0
  4 11  1  0  0  0
  5  6  1  0  0  0
  5 10  2  0  0  0
  6  7  2  0  0  0
  7  8  1  0  0  0
  8  9  2  0  0  0
  9 10  1  0  0  0
  9 12  1  0  0  0
 12 13  1  0  0  0
 12 20  1  0  0  0
 13 14  1  0  0  0
 14 15  1  0  0  0
 15 16  1  0  0  0
 15 19  2  0  0  0
 16 17  1  0  0  0
 16 21  1  0  0  0
 17 18  2  0  0  0
 18 19  1  0  0  0
 19 20  1  0  0  0
M  END
> <minimizedAffinity>
-6.99516

$$$$
729


 27 30  0  0  0  0  0  0  0  0999 V2000
   19.7857   34.2041   71.0559 N   0  0  0  0  0  0  0  0  0  0  0  0
   19.3753   32.9283   70.5419 C   0  0  0  0  0  0  0  0  0  0  0  0
   17.8751   32.8455   70.8368 C   0  0  0  0  0  0  0  0  0  0  0  0
   17.4986   33.7850   71.8991 N   0  0  0  0  0  0  0  0  0  0  0  0
   18.4957   33.7352   72.9714 C   0  0  0  0  0  0  0  0  0  0  0  0
   19.8050   34.3346   72.4926 C   0  0  0  0  0  0  0  0  0  0  0  0
   22.7475   33.0376   70.7580 Br  0  0  0  0  0  0  0  0  0  0  0  0
   22.5279   34.5963   69.7011 C   0  0  0  0  0  0  0  0  0  0  0  0
   23.4271   35.1998   68.9033 N   0  0  0  0  0  0  0  0  0  0  0  0
   22.9342   36.2687   68.3379 N   0  0  0  0  0  0  0  0  0  0  0  0
   21.6623   36.3984   68.7613 C   0  0  0  0  0  0  0  0  0  0  0  0
   20.6997   37.3039   68.5157 N   0  0  0  0  0  0  0  0  0  0  0  0
   19.4875   37.2304   69.0723 C   0  0  0  0  0  0  0  0  0  0  0  0
   19.2144   36.2278   69.8986 N   0  0  0  0  0  0  0  0  0  0  0  0
   20.1169   35.2669   70.2082 C   0  0  0  0  0  0  0  0  0  0  0  0
   21.3776   35.3474   69.6281 C   0  0  0  0  0  0  0  0  0  0  0  0
   23.5591   37.2049   67.4143 C   0  0  0  0  0  0  0  0  0  0  0  0
   16.2308   33.3131   72.4337 C   0  0  0  0  0  0  0  0  0  0  0  0
   16.4623   31.8535   72.9118 C   0  0  0  0  0  0  0  0  0  0  0  0
   15.1847   33.3032   71.3960 C   0  0  0  0  0  0  0  0  0  0  0  0
   14.5252   32.1831   71.3381 O   0  0  0  0  0  0  0  0  0  0  0  0
   14.8324   34.3188   70.4928 N   0  0  0  0  0  0  0  0  0  0  0  0
   15.4209   35.6138   70.3308 C   0  0  0  0  0  0  0  0  0  0  0  0
   14.4197   36.7429   70.2024 C   0  0  0  0  0  0  0  0  0  0  0  0
   13.1716   36.3819   69.4735 C   0  0  0  0  0  0  0  0  0  0  0  0
   12.6324   35.0294   69.8880 C   0  0  0  0  0  0  0  0  0  0  0  0
   13.7134   34.0301   69.5670 C   0  0  0  0  0  0  0  0  0  0  0  0
  7  8  1  0  0  0
  8  9  2  0  0  0
  8 16  1  0  0  0
  9 10  1  0  0  0
 10 11  1  0  0  0
 10 17  1  0  0  0
 11 12  1  0  0  0
 11 16  2  0  0  0
 12 13  2  0  0  0
 13 14  1  0  0  0
 14 15  2  0  0  0
 15 16  1  0  0  0
 15  1  1  0  0  0
  1  2  1  0  0  0
  1  6  1  0  0  0
  2  3  1  0  0  0
  3  4  1  0  0  0
  4  5  1  0  0  0
  4 18  1  0  0  0
  5  6  1  0  0  0
 18 19  1  0  0  0
 18 20  1  0  0  0
 20 21  2  0  0  0
 20 22  1  0  0  0
 22 23  1  0  0  0
 22 27  1  0  0  0
 23 24  1  0  0  0
 24 25  1  0  0  0
 25 26  1  0  0  0
 26 27  1  0  0  0
M  END
> <minimizedAffinity>
-8.65240

$$$$
737


 21 24  0  0  0  0  0  0  0  0999 V2000
   14.2896   30.7180   73.0322 C   0  0  0  0  0  0  0  0  0  0  0  0
   13.2966   30.8046   73.8879 C   0  0  0  0  0  0  0  0  0  0  0  0
   12.9913   29.7182   74.8317 C   0  0  0  0  0  0  0  0  0  0  0  0
   11.9959   29.7915   75.6973 C   0  0  0  0  0  0  0  0  0  0  0  0
   13.8417   28.5848   74.7478 N   0  0  0  0  0  0  0  0  0  0  0  0
   14.9212   28.5088   73.8069 C   0  0  0  0  0  0  0  0  0  0  0  0
   15.1144   29.5712   72.9802 N   0  0  0  0  0  0  0  0  0  0  0  0
   16.1649   29.2478   72.2173 N   0  0  0  0  0  0  0  0  0  0  0  0
   16.6343   28.0317   72.5321 C   0  0  0  0  0  0  0  0  0  0  0  0
   15.8511   27.5797   73.5253 N   0  0  0  0  0  0  0  0  0  0  0  0
   13.6773   27.7804   75.3901 H   0  0  0  0  0  0  0  0  0  0  0  0
   15.7186   36.8641   70.1874 Br  0  0  0  0  0  0  0  0  0  0  0  0
   14.5114   35.3766   70.2641 C   0  0  0  0  0  0  0  0  0  0  0  0
   14.7440   34.1442   70.7300 N   0  0  0  0  0  0  0  0  0  0  0  0
   13.6427   33.4058   70.6052 C   0  0  0  0  0  0  0  0  0  0  0  0
   12.6922   34.1991   70.0449 N   0  0  0  0  0  0  0  0  0  0  0  0
   13.2043   35.4231   69.8253 C   0  0  0  0  0  0  0  0  0  0  0  0
   13.6268   31.9805   71.0495 C   0  0  0  0  0  0  0  0  0  0  0  0
   14.5370   31.7885   72.1512 N   0  0  0  0  0  0  0  0  0  0  0  0
   15.6866   32.6255   72.4029 C   0  0  0  0  0  0  0  0  0  0  0  0
   15.9622   33.6013   71.2970 C   0  0  0  0  0  0  0  0  0  0  0  0
 12 13  1  0  0  0
 13 14  1  0  0  0
 13 17  2  0  0  0
 14 15  1  0  0  0
 14 21  1  0  0  0
 15 16  2  0  0  0
 15 18  1  0  0  0
 16 17  1  0  0  0
 18 19  1  0  0  0
 19 20  1  0  0  0
 19  1  1  0  0  0
 20 21  1  0  0  0
  1  2  2  0  0  0
  1  7  1  0  0  0
  2  3  1  0  0  0
  3  4  2  0  0  0
  3  5  1  0  0  0
  5  6  1  0  0  0
  6  7  1  0  0  0
  6 10  2  0  0  0
  7  8  1  0  0  0
  8  9  2  0  0  0
  9 10  1  0  0  0
  5 11  1  0  0  0
M  END
> <minimizedAffinity>
-7.50037

$$$$
743


 30 33  0  0  0  0  0  0  0  0999 V2000
   23.4818   34.0348   68.4579 C   0  0  0  0  0  0  0  0  0  0  0  0
   23.5225   32.8195   68.0711 O   0  0  0  0  0  0  0  0  0  0  0  0
   23.8645   35.0816   67.5764 N   0  0  0  0  0  0  0  0  0  0  0  0
   24.2987   34.7648   66.2439 C   0  0  0  0  0  0  0  0  0  0  0  0
   23.9401   35.8001   65.2223 C   0  0  0  0  0  0  0  0  0  0  0  0
   23.7386   37.1699   65.8004 C   0  0  0  0  0  0  0  0  0  0  0  0
   24.0650   38.1801   64.8404 N   0  0  0  0  0  0  0  0  0  0  0  0
   23.9425   39.5137   65.3226 C   0  0  0  0  0  0  0  0  0  0  0  0
   22.7154   39.7947   66.1252 C   0  0  0  0  0  0  0  0  0  0  0  0
   21.8345   38.6089   66.2797 C   0  0  0  0  0  0  0  0  0  0  0  0
   20.5365   38.5007   66.5668 N   0  0  0  0  0  0  0  0  0  0  0  0
   20.1956   37.2049   66.5963 C   0  0  0  0  0  0  0  0  0  0  0  0
   21.2803   36.4660   66.3266 N   0  0  0  0  0  0  0  0  0  0  0  0
   22.2911   37.3221   66.1311 C   0  0  0  0  0  0  0  0  0  0  0  0
   24.5170   37.3101   67.0989 C   0  0  0  0  0  0  0  0  0  0  0  0
   23.7873   36.4412   68.1019 C   0  0  0  0  0  0  0  0  0  0  0  0
   25.0488   38.0248   64.5285 H   0  0  0  0  0  0  0  0  0  0  0  0
   21.3331   35.3981   66.2759 H   0  0  0  0  0  0  0  0  0  0  0  0
   23.0263   34.2719   69.8370 C   0  0  0  0  0  0  0  0  0  0  0  0
   21.7582   33.5486   70.1709 C   0  0  0  0  0  0  0  0  0  0  0  0
   19.9051   35.1094   70.7855 C   0  0  0  0  0  0  0  0  0  0  0  0
   20.3856   35.1799   71.9553 O   0  0  0  0  0  0  0  0  0  0  0  0
   20.5778   34.2855   69.8431 N   0  0  0  0  0  0  0  0  0  0  0  0
   20.1865   34.2254   68.8838 H   0  0  0  0  0  0  0  0  0  0  0  0
   14.7120   36.3237   70.3472 Br  0  0  0  0  0  0  0  0  0  0  0  0
   16.6344   36.3874   70.2861 C   0  0  0  0  0  0  0  0  0  0  0  0
   17.4927   35.4879   70.6633 O   0  0  0  0  0  0  0  0  0  0  0  0
   18.7150   35.8620   70.4783 C   0  0  0  0  0  0  0  0  0  0  0  0
   18.6927   37.1448   69.9176 C   0  0  0  0  0  0  0  0  0  0  0  0
   17.3545   37.4575   69.8057 C   0  0  0  0  0  0  0  0  0  0  0  0
 25 26  1  0  0  0
 26 27  1  0  0  0
 26 30  2  0  0  0
 27 28  1  0  0  0
 28 29  2  0  0  0
 28 21  1  0  0  0
 29 30  1  0  0  0
 21 22  2  0  0  0
 21 23  1  0  0  0
 23 20  1  0  0  0
 20 19  1  0  0  0
 19  1  1  0  0  0
  1  2  2  0  0  0
  1  3  1  0  0  0
  3  4  1  0  0  0
  3 16  1  0  0  0
  4  5  1  0  0  0
  5  6  1  0  0  0
  6  7  1  0  0  0
  6 14  1  0  0  0
  6 15  1  0  0  0
  7  8  1  0  0  0
  8  9  1  0  0  0
  9 10  1  0  0  0
 10 11  1  0  0  0
 10 14  2  0  0  0
 11 12  2  0  0  0
 12 13  1  0  0  0
 13 14  1  0  0  0
 15 16  1  0  0  0
 23 24  1  0  0  0
  7 17  1  0  0  0
 13 18  1  0  0  0
M  END
> <minimizedAffinity>
-8.27301

$$$$
746


 30 33  0  0  0  0  0  0  0  0999 V2000
   21.4047   35.5243   69.7486 C   0  0  0  0  0  0  0  0  0  0  0  0
   21.7348   34.8276   70.7709 O   0  0  0  0  0  0  0  0  0  0  0  0
   21.8352   35.0619   68.4997 N   0  0  0  0  0  0  0  0  0  0  0  0
   21.5307   35.7468   67.2602 C   0  0  0  0  0  0  0  0  0  0  0  0
   22.8254   36.1717   66.6391 C   0  0  0  0  0  0  0  0  0  0  0  0
   23.7925   35.0373   66.5166 C   0  0  0  0  0  0  0  0  0  0  0  0
   24.1797   34.9122   65.1223 N   0  0  0  0  0  0  0  0  0  0  0  0
   24.9124   36.1094   64.7534 C   0  0  0  0  0  0  0  0  0  0  0  0
   26.3466   35.9010   65.2528 C   0  0  0  0  0  0  0  0  0  0  0  0
   26.2325   35.6575   66.7108 C   0  0  0  0  0  0  0  0  0  0  0  0
   27.1683   35.7659   67.6735 N   0  0  0  0  0  0  0  0  0  0  0  0
   26.5829   35.4411   68.8368 C   0  0  0  0  0  0  0  0  0  0  0  0
   25.2969   35.1356   68.5869 N   0  0  0  0  0  0  0  0  0  0  0  0
   25.0445   35.2603   67.2734 C   0  0  0  0  0  0  0  0  0  0  0  0
   23.1188   33.7368   66.9542 C   0  0  0  0  0  0  0  0  0  0  0  0
   22.6184   33.8479   68.3573 C   0  0  0  0  0  0  0  0  0  0  0  0
   23.3308   34.8848   64.4912 H   0  0  0  0  0  0  0  0  0  0  0  0
   28.1780   36.0465   67.5905 H   0  0  0  0  0  0  0  0  0  0  0  0
   20.6069   36.7312   70.0240 C   0  0  0  0  0  0  0  0  0  0  0  0
   21.1334   37.6110   71.0991 C   0  0  0  0  0  0  0  0  0  0  0  0
   18.1378   37.0540   69.6784 C   0  0  0  0  0  0  0  0  0  0  0  0
   18.3547   37.9363   68.8229 O   0  0  0  0  0  0  0  0  0  0  0  0
   19.2214   36.4188   70.3111 N   0  0  0  0  0  0  0  0  0  0  0  0
   19.0294   35.6847   71.0230 H   0  0  0  0  0  0  0  0  0  0  0  0
   14.0332   33.9213   71.0783 Br  0  0  0  0  0  0  0  0  0  0  0  0
   15.0738   35.4616   70.5772 C   0  0  0  0  0  0  0  0  0  0  0  0
   16.3581   35.4661   70.3301 O   0  0  0  0  0  0  0  0  0  0  0  0
   16.7685   36.6945   70.0119 C   0  0  0  0  0  0  0  0  0  0  0  0
   15.6584   37.5078   70.0661 C   0  0  0  0  0  0  0  0  0  0  0  0
   14.5754   36.7454   70.4231 C   0  0  0  0  0  0  0  0  0  0  0  0
 25 26  1  0  0  0
 26 27  1  0  0  0
 26 30  2  0  0  0
 27 28  1  0  0  0
 28 29  2  0  0  0
 28 21  1  0  0  0
 29 30  1  0  0  0
 21 22  2  0  0  0
 21 23  1  0  0  0
 23 19  1  0  0  0
 19 20  1  0  0  0
 19  1  1  0  0  0
  1  2  2  0  0  0
  1  3  1  0  0  0
  3  4  1  0  0  0
  3 16  1  0  0  0
  4  5  1  0  0  0
  5  6  1  0  0  0
  6  7  1  0  0  0
  6 14  1  0  0  0
  6 15  1  0  0  0
  7  8  1  0  0  0
  8  9  1  0  0  0
  9 10  1  0  0  0
 10 11  1  0  0  0
 10 14  2  0  0  0
 11 12  1  0  0  0
 12 13  2  0  0  0
 13 14  1  0  0  0
 15 16  1  0  0  0
 23 24  1  0  0  0
  7 17  1  0  0  0
 11 18  1  0  0  0
M  END
> <minimizedAffinity>
-8.38687

$$$$
754


 27 30  0  0  0  0  0  0  0  0999 V2000
   22.6799   35.4764   68.1644 C   0  0  0  0  0  0  0  0  0  0  0  0
   22.7566   34.3208   67.7232 O   0  0  0  0  0  0  0  0  0  0  0  0
   22.0901   35.7092   69.4311 N   0  0  0  0  0  0  0  0  0  0  0  0
   21.5819   34.5948   70.2047 C   0  0  0  0  0  0  0  0  0  0  0  0
   20.1030   34.7189   70.4798 C   0  0  0  0  0  0  0  0  0  0  0  0
   19.8076   36.1607   70.5214 N   0  0  0  0  0  0  0  0  0  0  0  0
   20.8184   36.9911   71.0807 C   0  0  0  0  0  0  0  0  0  0  0  0
   21.9495   37.0200   70.0359 C   0  0  0  0  0  0  0  0  0  0  0  0
   18.5549   36.5709   70.0043 C   0  0  0  0  0  0  0  0  0  0  0  0
   17.3877   36.0308   70.4526 N   0  0  0  0  0  0  0  0  0  0  0  0
   16.1939   36.4087   69.9698 C   0  0  0  0  0  0  0  0  0  0  0  0
   16.1204   37.3532   69.0071 N   0  0  0  0  0  0  0  0  0  0  0  0
   17.2194   37.9424   68.5043 C   0  0  0  0  0  0  0  0  0  0  0  0
   18.4497   37.5225   69.0314 C   0  0  0  0  0  0  0  0  0  0  0  0
   17.1620   38.9850   67.4444 C   0  0  0  0  0  0  0  0  0  0  0  0
   15.0072   35.8166   70.4705 N   0  0  0  0  0  0  0  0  0  0  0  0
   13.6912   36.1411   69.9762 C   0  0  0  0  0  0  0  0  0  0  0  0
   12.9626   34.8881   69.5921 C   0  0  0  0  0  0  0  0  0  0  0  0
   13.6120   33.7287   70.0121 O   0  0  0  0  0  0  0  0  0  0  0  0
   13.9880   33.8314   71.3485 C   0  0  0  0  0  0  0  0  0  0  0  0
   15.1003   34.8352   71.5298 C   0  0  0  0  0  0  0  0  0  0  0  0
   26.0343   39.2493   66.2790 Br  0  0  0  0  0  0  0  0  0  0  0  0
   24.5081   38.0961   66.5631 C   0  0  0  0  0  0  0  0  0  0  0  0
   24.3705   37.1621   67.4334 O   0  0  0  0  0  0  0  0  0  0  0  0
   23.2115   36.5822   67.3479 C   0  0  0  0  0  0  0  0  0  0  0  0
   22.5263   37.1965   66.3247 C   0  0  0  0  0  0  0  0  0  0  0  0
   23.3551   38.1658   65.8205 C   0  0  0  0  0  0  0  0  0  0  0  0
 22 23  1  0  0  0
 23 24  1  0  0  0
 23 27  2  0  0  0
 24 25  1  0  0  0
 25 26  2  0  0  0
 25  1  1  0  0  0
 26 27  1  0  0  0
  1  2  2  0  0  0
  1  3  1  0  0  0
  3  4  1  0  0  0
  3  8  1  0  0  0
  4  5  1  0  0  0
  5  6  1  0  0  0
  6  7  1  0  0  0
  6  9  1  0  0  0
  7  8  1  0  0  0
  9 10  2  0  0  0
  9 14  1  0  0  0
 10 11  1  0  0  0
 11 12  2  0  0  0
 11 16  1  0  0  0
 12 13  1  0  0  0
 13 14  2  0  0  0
 13 15  1  0  0  0
 16 17  1  0  0  0
 16 21  1  0  0  0
 17 18  1  0  0  0
 18 19  1  0  0  0
 19 20  1  0  0  0
 20 21  1  0  0  0
M  END
> <minimizedAffinity>
-8.50957

$$$$
755


 28 31  0  0  0  0  0  0  0  0999 V2000
   16.5563   30.2455   72.5252 C   0  0  0  0  0  0  0  0  0  0  0  0
   16.8632   29.2017   71.9301 O   0  0  0  0  0  0  0  0  0  0  0  0
   17.4378   31.3583   72.5513 N   0  0  0  0  0  0  0  0  0  0  0  0
   17.0684   32.5836   73.2550 C   0  0  0  0  0  0  0  0  0  0  0  0
   18.1575   33.6384   73.0713 C   0  0  0  0  0  0  0  0  0  0  0  0
   18.4445   33.7170   71.6524 N   0  0  0  0  0  0  0  0  0  0  0  0
   18.8617   32.5245   70.9666 C   0  0  0  0  0  0  0  0  0  0  0  0
   18.7288   31.3431   71.8930 C   0  0  0  0  0  0  0  0  0  0  0  0
   18.3205   34.9501   70.9322 C   0  0  0  0  0  0  0  0  0  0  0  0
   17.1884   35.6674   70.9549 N   0  0  0  0  0  0  0  0  0  0  0  0
   17.1016   36.8142   70.2716 C   0  0  0  0  0  0  0  0  0  0  0  0
   18.1324   37.2862   69.5434 N   0  0  0  0  0  0  0  0  0  0  0  0
   19.2962   36.6152   69.4781 C   0  0  0  0  0  0  0  0  0  0  0  0
   19.3657   35.4361   70.1897 C   0  0  0  0  0  0  0  0  0  0  0  0
   15.8439   37.6016   70.3040 C   0  0  0  0  0  0  0  0  0  0  0  0
   20.4081   37.0699   68.7275 N   0  0  0  0  0  0  0  0  0  0  0  0
   20.2984   37.2540   67.2949 C   0  0  0  0  0  0  0  0  0  0  0  0
   21.5205   38.0274   66.8459 C   0  0  0  0  0  0  0  0  0  0  0  0
   22.6939   37.2507   67.1421 N   0  0  0  0  0  0  0  0  0  0  0  0
   22.7413   36.7069   68.4628 C   0  0  0  0  0  0  0  0  0  0  0  0
   21.6928   37.3714   69.3291 C   0  0  0  0  0  0  0  0  0  0  0  0
   22.9298   36.2936   66.0913 C   0  0  0  0  0  0  0  0  0  0  0  0
   12.7626   29.2646   76.1925 Br  0  0  0  0  0  0  0  0  0  0  0  0
   13.6730   29.9836   74.6742 C   0  0  0  0  0  0  0  0  0  0  0  0
   14.8923   29.6885   74.3005 O   0  0  0  0  0  0  0  0  0  0  0  0
   15.2517   30.3366   73.2204 C   0  0  0  0  0  0  0  0  0  0  0  0
   14.1778   31.1158   72.8627 C   0  0  0  0  0  0  0  0  0  0  0  0
   13.1755   30.9008   73.7735 C   0  0  0  0  0  0  0  0  0  0  0  0
 23 24  1  0  0  0
 24 25  1  0  0  0
 24 28  2  0  0  0
 25 26  1  0  0  0
 26 27  2  0  0  0
 26  1  1  0  0  0
 27 28  1  0  0  0
  1  2  2  0  0  0
  1  3  1  0  0  0
  3  4  1  0  0  0
  3  8  1  0  0  0
  4  5  1  0  0  0
  5  6  1  0  0  0
  6  7  1  0  0  0
  6  9  1  0  0  0
  7  8  1  0  0  0
  9 10  2  0  0  0
  9 14  1  0  0  0
 10 11  1  0  0  0
 11 12  2  0  0  0
 11 15  1  0  0  0
 12 13  1  0  0  0
 13 14  2  0  0  0
 13 16  1  0  0  0
 16 17  1  0  0  0
 16 21  1  0  0  0
 17 18  1  0  0  0
 18 19  1  0  0  0
 19 20  1  0  0  0
 19 22  1  0  0  0
 20 21  1  0  0  0
M  END
> <minimizedAffinity>
-8.57372

$$$$
767


 32 35  0  0  0  0  0  0  0  0999 V2000
   14.8711   29.4527   73.9135 C   0  0  0  0  0  0  0  0  0  0  0  0
   16.9538   29.8184   72.6031 C   0  0  0  0  0  0  0  0  0  0  0  0
   16.6904   28.7644   71.9306 O   0  0  0  0  0  0  0  0  0  0  0  0
   16.0458   30.2042   73.6281 N   0  0  0  0  0  0  0  0  0  0  0  0
   16.2528   31.0588   74.1777 H   0  0  0  0  0  0  0  0  0  0  0  0
   19.6127   32.1048   71.6346 C   0  0  0  0  0  0  0  0  0  0  0  0
   20.2425   31.0758   72.2450 N   0  0  0  0  0  0  0  0  0  0  0  0
   19.3642   30.1952   72.6318 O   0  0  0  0  0  0  0  0  0  0  0  0
   18.1578   30.5853   72.3079 C   0  0  0  0  0  0  0  0  0  0  0  0
   18.3137   31.7633   71.6925 N   0  0  0  0  0  0  0  0  0  0  0  0
   21.4799   35.5558   67.9792 Br  0  0  0  0  0  0  0  0  0  0  0  0
   20.9769   34.7180   69.6050 C   0  0  0  0  0  0  0  0  0  0  0  0
   20.4205   33.5595   69.7878 O   0  0  0  0  0  0  0  0  0  0  0  0
   20.2130   33.2997   71.0537 C   0  0  0  0  0  0  0  0  0  0  0  0
   20.6787   34.3934   71.7602 C   0  0  0  0  0  0  0  0  0  0  0  0
   21.1731   35.3166   70.8512 C   0  0  0  0  0  0  0  0  0  0  0  0
   13.6017   30.1536   73.4783 C   0  0  0  0  0  0  0  0  0  0  0  0
   13.8375   31.5686   73.2291 N   0  0  0  0  0  0  0  0  0  0  0  0
   14.0740   31.9992   71.9123 C   0  0  0  0  0  0  0  0  0  0  0  0
   14.0587   31.0751   71.0229 O   0  0  0  0  0  0  0  0  0  0  0  0
   13.8319   32.2643   73.9967 H   0  0  0  0  0  0  0  0  0  0  0  0
   14.3276   33.3398   71.4496 C   0  0  0  0  0  0  0  0  0  0  0  0
   15.6502   33.7472   71.2801 C   0  0  0  0  0  0  0  0  0  0  0  0
   15.9200   35.0156   70.8311 C   0  0  0  0  0  0  0  0  0  0  0  0
   14.9036   35.8757   70.5522 C   0  0  0  0  0  0  0  0  0  0  0  0
   15.1837   37.1660   70.0953 C   0  0  0  0  0  0  0  0  0  0  0  0
   16.4729   37.6041   69.9143 C   0  0  0  0  0  0  0  0  0  0  0  0
   17.4932   36.7326   70.1980 C   0  0  0  0  0  0  0  0  0  0  0  0
   17.2339   35.4575   70.6491 C   0  0  0  0  0  0  0  0  0  0  0  0
   13.6795   35.4657   70.7201 O   0  0  0  0  0  0  0  0  0  0  0  0
   13.3485   34.2536   71.1507 C   0  0  0  0  0  0  0  0  0  0  0  0
   12.1297   33.9862   71.2698 O   0  0  0  0  0  0  0  0  0  0  0  0
 11 12  1  0  0  0
 12 13  1  0  0  0
 12 16  2  0  0  0
 13 14  1  0  0  0
 14 15  2  0  0  0
 14  6  1  0  0  0
 15 16  1  0  0  0
  6  7  2  0  0  0
  6 10  1  0  0  0
  7  8  1  0  0  0
  8  9  1  0  0  0
  9 10  2  0  0  0
  9  2  1  0  0  0
  2  3  2  0  0  0
  2  4  1  0  0  0
  4  1  1  0  0  0
  1 17  1  0  0  0
 17 18  1  0  0  0
 18 19  1  0  0  0
 19 20  2  0  0  0
 19 22  1  0  0  0
 22 23  2  0  0  0
 22 31  1  0  0  0
 23 24  1  0  0  0
 24 25  2  0  0  0
 24 29  1  0  0  0
 25 26  1  0  0  0
 25 30  1  0  0  0
 26 27  2  0  0  0
 27 28  1  0  0  0
 28 29  2  0  0  0
 30 31  1  0  0  0
 31 32  2  0  0  0
  4  5  1  0  0  0
 18 21  1  0  0  0
M  END
> <minimizedAffinity>
-9.51120

$$$$
769


 26 29  0  0  0  0  0  0  0  0999 V2000
   17.4109   33.1739   70.8122 C   0  0  0  0  0  0  0  0  0  0  0  0
   17.5940   31.8679   70.7609 O   0  0  0  0  0  0  0  0  0  0  0  0
   18.5675   33.9390   70.8348 N   0  0  0  0  0  0  0  0  0  0  0  0
   19.8830   33.2505   70.7996 C   0  0  0  0  0  0  0  0  0  0  0  0
   20.6765   33.7823   69.6299 C   0  0  0  0  0  0  0  0  0  0  0  0
   20.8211   35.1790   69.7501 N   0  0  0  0  0  0  0  0  0  0  0  0
   20.1680   35.6924   70.9054 C   0  0  0  0  0  0  0  0  0  0  0  0
   18.6593   35.3476   70.8879 C   0  0  0  0  0  0  0  0  0  0  0  0
   13.3612   36.4398   69.5253 Br  0  0  0  0  0  0  0  0  0  0  0  0
   14.1245   34.9088   70.3146 C   0  0  0  0  0  0  0  0  0  0  0  0
   15.4973   34.6539   70.2427 C   0  0  0  0  0  0  0  0  0  0  0  0
   16.0045   33.5275   70.8322 C   0  0  0  0  0  0  0  0  0  0  0  0
   15.0940   32.6882   71.4811 C   0  0  0  0  0  0  0  0  0  0  0  0
   13.8303   32.9669   71.5212 O   0  0  0  0  0  0  0  0  0  0  0  0
   13.3199   34.0158   70.9790 C   0  0  0  0  0  0  0  0  0  0  0  0
   12.0783   34.1988   71.0712 O   0  0  0  0  0  0  0  0  0  0  0  0
   22.1445   35.6937   69.5960 C   0  0  0  0  0  0  0  0  0  0  0  0
   22.6858   35.6602   68.2255 C   0  0  0  0  0  0  0  0  0  0  0  0
   23.7187   34.8803   67.8190 C   0  0  0  0  0  0  0  0  0  0  0  0
   24.1556   34.9212   66.5182 C   0  0  0  0  0  0  0  0  0  0  0  0
   23.5432   35.7577   65.6249 C   0  0  0  0  0  0  0  0  0  0  0  0
   22.4929   36.5585   66.0141 C   0  0  0  0  0  0  0  0  0  0  0  0
   22.0814   36.4975   67.3057 C   0  0  0  0  0  0  0  0  0  0  0  0
   24.1462   35.6328   64.3849 O   0  0  0  0  0  0  0  0  0  0  0  0
   25.3847   34.9754   64.6126 C   0  0  0  0  0  0  0  0  0  0  0  0
   25.1702   34.2562   65.8120 O   0  0  0  0  0  0  0  0  0  0  0  0
  9 10  1  0  0  0
 10 11  2  0  0  0
 10 15  1  0  0  0
 11 12  1  0  0  0
 12 13  2  0  0  0
 12  1  1  0  0  0
 13 14  1  0  0  0
 14 15  1  0  0  0
 15 16  2  0  0  0
  1  2  2  0  0  0
  1  3  1  0  0  0
  3  4  1  0  0  0
  3  8  1  0  0  0
  4  5  1  0  0  0
  5  6  1  0  0  0
  6  7  1  0  0  0
  6 17  1  0  0  0
  7  8  1  0  0  0
 17 18  1  0  0  0
 18 19  2  0  0  0
 18 23  1  0  0  0
 19 20  1  0  0  0
 20 21  2  0  0  0
 20 26  1  0  0  0
 21 22  1  0  0  0
 21 24  1  0  0  0
 22 23  2  0  0  0
 24 25  1  0  0  0
 25 26  1  0  0  0
M  END
> <minimizedAffinity>
-8.99820

$$$$
776


 38 41  0  0  0  0  0  0  0  0999 V2000
   21.1492   36.9094   68.6075 C   0  0  0  0  0  0  0  0  0  0  0  0
   21.8511   36.7849   69.9660 C   0  0  0  0  0  0  0  0  0  0  0  0
   21.7954   35.3656   70.4166 C   0  0  0  0  0  0  0  0  0  0  0  0
   20.3471   34.9789   70.6154 C   0  0  0  0  0  0  0  0  0  0  0  0
   19.4748   35.8204   69.9508 O   0  0  0  0  0  0  0  0  0  0  0  0
   19.8767   36.1312   68.6590 C   0  0  0  0  0  0  0  0  0  0  0  0
   20.2063   33.5466   70.2485 C   0  0  0  0  0  0  0  0  0  0  0  0
   18.7462   33.1286   70.4821 C   0  0  0  0  0  0  0  0  0  0  0  0
   18.5036   33.1699   71.8863 N   0  0  0  0  0  0  0  0  0  0  0  0
   19.6069   33.7944   72.6909 C   0  0  0  0  0  0  0  0  0  0  0  0
   20.0443   35.0913   72.0945 C   0  0  0  0  0  0  0  0  0  0  0  0
   17.3787   32.7051   72.5393 C   0  0  0  0  0  0  0  0  0  0  0  0
   17.3951   32.8350   73.8497 O   0  0  0  0  0  0  0  0  0  0  0  0
   21.1026   37.5484   70.8651 O   0  0  0  0  0  0  0  0  0  0  0  0
   23.2310   37.3572   69.9175 C   0  0  0  0  0  0  0  0  0  0  0  0
   20.5129   38.2044   70.4154 H   0  0  0  0  0  0  0  0  0  0  0  0
   24.3622   33.4930   66.2142 Br  0  0  0  0  0  0  0  0  0  0  0  0
   23.5002   35.1875   66.2998 C   0  0  0  0  0  0  0  0  0  0  0  0
   22.6716   35.4449   67.3624 C   0  0  0  0  0  0  0  0  0  0  0  0
   22.0171   36.6103   67.5142 N   0  0  0  0  0  0  0  0  0  0  0  0
   22.2386   37.5282   66.5252 C   0  0  0  0  0  0  0  0  0  0  0  0
   21.6580   38.6503   66.5965 O   0  0  0  0  0  0  0  0  0  0  0  0
   23.0304   37.3115   65.4870 N   0  0  0  0  0  0  0  0  0  0  0  0
   23.6845   36.1475   65.3356 C   0  0  0  0  0  0  0  0  0  0  0  0
   24.4451   35.9038   64.3669 O   0  0  0  0  0  0  0  0  0  0  0  0
   23.1803   38.0302   64.7483 H   0  0  0  0  0  0  0  0  0  0  0  0
   16.1932   32.1052   72.0386 C   0  0  0  0  0  0  0  0  0  0  0  0
   15.0336   32.8793   71.8525 C   0  0  0  0  0  0  0  0  0  0  0  0
   13.8482   32.4276   71.3662 C   0  0  0  0  0  0  0  0  0  0  0  0
   13.7907   31.0617   71.0202 C   0  0  0  0  0  0  0  0  0  0  0  0
   14.8934   30.2964   71.1899 C   0  0  0  0  0  0  0  0  0  0  0  0
   16.1057   30.7945   71.6971 C   0  0  0  0  0  0  0  0  0  0  0  0
   12.7437   33.2097   71.2044 O   0  0  0  0  0  0  0  0  0  0  0  0
   12.5938   34.5385   70.9400 C   0  0  0  0  0  0  0  0  0  0  0  0
   12.8586   34.8828   69.5144 C   0  0  0  0  0  0  0  0  0  0  0  0
   12.8382   36.3370   69.3501 N   0  0  0  0  0  0  0  0  0  0  0  0
   13.7326   36.7714   69.6202 H   0  0  0  0  0  0  0  0  0  0  0  0
   12.0013   36.7722   69.7501 H   0  0  0  0  0  0  0  0  0  0  0  0
 17 18  1  0  0  0
 18 19  2  0  0  0
 18 24  1  0  0  0
 19 20  1  0  0  0
 20 21  1  0  0  0
 20  1  1  0  0  0
 21 22  2  0  0  0
 21 23  1  0  0  0
 23 24  1  0  0  0
 24 25  2  0  0  0
  1  2  1  0  0  0
  1  6  1  0  0  0
  2  3  1  0  0  0
  2 14  1  0  0  0
  2 15  1  0  0  0
  3  4  1  0  0  0
  4  5  1  0  0  0
  4  7  1  0  0  0
  4 11  1  0  0  0
  5  6  1  0  0  0
  7  8  1  0  0  0
  8  9  1  0  0  0
  9 10  1  0  0  0
  9 12  1  0  0  0
 10 11  1  0  0  0
 12 13  2  0  0  0
 12 27  1  0  0  0
 27 28  2  0  0  0
 27 32  1  0  0  0
 28 29  1  0  0  0
 29 30  2  0  0  0
 29 33  1  0  0  0
 30 31  1  0  0  0
 31 32  2  0  0  0
 33 34  1  0  0  0
 34 35  1  0  0  0
 35 36  1  0  0  0
 23 26  1  0  0  0
 36 37  1  0  0  0
 36 38  1  0  0  0
 14 16  1  0  0  0
M  END
> <minimizedAffinity>
-9.23471

$$$$
783


 39 42  0  0  0  0  0  0  0  0999 V2000
   16.2786   30.2652   72.0600 C   0  0  0  0  0  0  0  0  0  0  0  0
   16.4329   31.6744   71.6478 C   0  0  0  0  0  0  0  0  0  0  0  0
   17.8734   32.0714   71.3033 C   0  0  0  0  0  0  0  0  0  0  0  0
   18.8027   31.7377   72.4436 C   0  0  0  0  0  0  0  0  0  0  0  0
   18.2750   30.7609   73.2669 O   0  0  0  0  0  0  0  0  0  0  0  0
   17.5774   29.7757   72.6394 C   0  0  0  0  0  0  0  0  0  0  0  0
   19.0720   33.0247   73.2025 C   0  0  0  0  0  0  0  0  0  0  0  0
   20.3546   33.6557   72.7311 C   0  0  0  0  0  0  0  0  0  0  0  0
   20.4412   33.5133   71.3002 N   0  0  0  0  0  0  0  0  0  0  0  0
   20.6374   32.1572   70.8097 C   0  0  0  0  0  0  0  0  0  0  0  0
   20.0920   31.2139   71.8574 C   0  0  0  0  0  0  0  0  0  0  0  0
   20.3602   34.6242   70.4568 C   0  0  0  0  0  0  0  0  0  0  0  0
   20.4464   34.3689   69.2006 O   0  0  0  0  0  0  0  0  0  0  0  0
   15.7431   31.8244   70.4172 O   0  0  0  0  0  0  0  0  0  0  0  0
   15.8373   32.6876   72.5704 C   0  0  0  0  0  0  0  0  0  0  0  0
   15.9659   31.1021   69.7849 H   0  0  0  0  0  0  0  0  0  0  0  0
   14.7660   29.0096   76.9406 Br  0  0  0  0  0  0  0  0  0  0  0  0
   14.3889   29.4576   75.1109 C   0  0  0  0  0  0  0  0  0  0  0  0
   15.4174   29.7057   74.2315 C   0  0  0  0  0  0  0  0  0  0  0  0
   15.1728   30.0171   72.9630 N   0  0  0  0  0  0  0  0  0  0  0  0
   13.9228   30.0957   72.5142 C   0  0  0  0  0  0  0  0  0  0  0  0
   13.6475   30.3913   71.3045 O   0  0  0  0  0  0  0  0  0  0  0  0
   12.9062   29.8580   73.3574 N   0  0  0  0  0  0  0  0  0  0  0  0
   13.0909   29.5384   74.6516 C   0  0  0  0  0  0  0  0  0  0  0  0
   12.1104   29.3196   75.4221 O   0  0  0  0  0  0  0  0  0  0  0  0
   11.9061   29.9211   72.9979 H   0  0  0  0  0  0  0  0  0  0  0  0
   20.1958   36.0341   70.7950 C   0  0  0  0  0  0  0  0  0  0  0  0
   21.4605   36.6518   71.1965 N   0  0  0  0  0  0  0  0  0  0  0  0
   22.0346   35.9945   71.7677 H   0  0  0  0  0  0  0  0  0  0  0  0
   21.2465   37.4703   71.8185 H   0  0  0  0  0  0  0  0  0  0  0  0
   19.6440   36.9038   69.6878 C   0  0  0  0  0  0  0  0  0  0  0  0
   18.1411   36.8416   69.8228 C   0  0  0  0  0  0  0  0  0  0  0  0
   17.5579   35.8830   70.6093 C   0  0  0  0  0  0  0  0  0  0  0  0
   16.1693   35.8613   70.7054 C   0  0  0  0  0  0  0  0  0  0  0  0
   15.3820   36.7706   70.0369 C   0  0  0  0  0  0  0  0  0  0  0  0
   16.0068   37.7213   69.2546 C   0  0  0  0  0  0  0  0  0  0  0  0
   17.3811   37.7676   69.1382 C   0  0  0  0  0  0  0  0  0  0  0  0
   14.0083   36.7017   70.1699 O   0  0  0  0  0  0  0  0  0  0  0  0
   13.4031   36.1510   69.5610 H   0  0  0  0  0  0  0  0  0  0  0  0
 17 18  1  0  0  0
 18 19  2  0  0  0
 18 24  1  0  0  0
 19 20  1  0  0  0
 20 21  1  0  0  0
 20  1  1  0  0  0
 21 22  2  0  0  0
 21 23  1  0  0  0
 23 24  1  0  0  0
 24 25  2  0  0  0
  1  2  1  0  0  0
  1  6  1  0  0  0
  2  3  1  0  0  0
  2 14  1  0  0  0
  2 15  1  0  0  0
  3  4  1  0  0  0
  4  5  1  0  0  0
  4  7  1  0  0  0
  4 11  1  0  0  0
  5  6  1  0  0  0
  7  8  1  0  0  0
  8  9  1  0  0  0
  9 10  1  0  0  0
  9 12  1  0  0  0
 10 11  1  0  0  0
 12 13  2  0  0  0
 12 27  1  0  0  0
 27 28  1  0  0  0
 27 31  1  0  0  0
 31 32  1  0  0  0
 32 33  2  0  0  0
 32 37  1  0  0  0
 33 34  1  0  0  0
 34 35  2  0  0  0
 35 36  1  0  0  0
 35 38  1  0  0  0
 36 37  2  0  0  0
 23 26  1  0  0  0
 28 29  1  0  0  0
 28 30  1  0  0  0
 38 39  1  0  0  0
 14 16  1  0  0  0
M  END
> <minimizedAffinity>
-9.32338

$$$$
784


 39 42  0  0  0  0  0  0  0  0999 V2000
   18.9257   32.3638   72.2774 C   0  0  0  0  0  0  0  0  0  0  0  0
   18.5629   32.4348   70.7850 C   0  0  0  0  0  0  0  0  0  0  0  0
   19.4281   33.5841   70.2494 C   0  0  0  0  0  0  0  0  0  0  0  0
   19.2421   34.8211   71.0834 C   0  0  0  0  0  0  0  0  0  0  0  0
   18.2114   34.6182   71.9691 O   0  0  0  0  0  0  0  0  0  0  0  0
   18.4280   33.6038   72.8982 C   0  0  0  0  0  0  0  0  0  0  0  0
   18.7884   35.9143   70.1253 C   0  0  0  0  0  0  0  0  0  0  0  0
   19.9902   36.5534   69.4767 C   0  0  0  0  0  0  0  0  0  0  0  0
   21.1455   35.6417   69.5290 N   0  0  0  0  0  0  0  0  0  0  0  0
   21.6745   35.3983   70.8383 C   0  0  0  0  0  0  0  0  0  0  0  0
   20.4697   35.3029   71.7710 C   0  0  0  0  0  0  0  0  0  0  0  0
   21.6656   35.0269   68.3906 C   0  0  0  0  0  0  0  0  0  0  0  0
   21.1142   35.1960   67.2345 O   0  0  0  0  0  0  0  0  0  0  0  0
   18.8998   31.2801   70.1131 O   0  0  0  0  0  0  0  0  0  0  0  0
   17.1025   32.6937   70.5910 C   0  0  0  0  0  0  0  0  0  0  0  0
   18.3212   31.1890   69.3139 H   0  0  0  0  0  0  0  0  0  0  0  0
   15.4732   28.5230   73.3416 Br  0  0  0  0  0  0  0  0  0  0  0  0
   17.2068   29.2805   73.4312 C   0  0  0  0  0  0  0  0  0  0  0  0
   17.4271   30.5212   72.8330 C   0  0  0  0  0  0  0  0  0  0  0  0
   18.6210   31.1182   72.8554 N   0  0  0  0  0  0  0  0  0  0  0  0
   19.6223   30.4460   73.4996 C   0  0  0  0  0  0  0  0  0  0  0  0
   20.7688   30.9682   73.5491 O   0  0  0  0  0  0  0  0  0  0  0  0
   19.4397   29.2507   74.0857 N   0  0  0  0  0  0  0  0  0  0  0  0
   18.2430   28.6371   74.0708 C   0  0  0  0  0  0  0  0  0  0  0  0
   18.0691   27.5039   74.6262 O   0  0  0  0  0  0  0  0  0  0  0  0
   20.2649   28.7990   74.5622 H   0  0  0  0  0  0  0  0  0  0  0  0
   22.8393   34.1680   68.4129 C   0  0  0  0  0  0  0  0  0  0  0  0
   22.5430   32.9018   69.0380 N   0  0  0  0  0  0  0  0  0  0  0  0
   23.1211   32.3325   70.1662 C   0  0  0  0  0  0  0  0  0  0  0  0
   24.0390   32.8371   70.8454 O   0  0  0  0  0  0  0  0  0  0  0  0
   22.6507   30.9840   70.6796 C   0  0  0  0  0  0  0  0  0  0  0  0
   21.7765   32.3414   68.5521 H   0  0  0  0  0  0  0  0  0  0  0  0
   23.3830   33.8997   66.9744 C   0  0  0  0  0  0  0  0  0  0  0  0
   24.8234   33.5938   67.0312 C   0  0  0  0  0  0  0  0  0  0  0  0
   25.4562   32.6006   67.6357 N   0  0  0  0  0  0  0  0  0  0  0  0
   26.8019   32.6768   67.4441 C   0  0  0  0  0  0  0  0  0  0  0  0
   27.0107   33.7690   66.6849 N   0  0  0  0  0  0  0  0  0  0  0  0
   25.8171   34.3424   66.4231 C   0  0  0  0  0  0  0  0  0  0  0  0
   27.9636   34.0803   66.3764 H   0  0  0  0  0  0  0  0  0  0  0  0
 17 18  1  0  0  0
 18 19  2  0  0  0
 18 24  1  0  0  0
 19 20  1  0  0  0
 20 21  1  0  0  0
 20  1  1  0  0  0
 21 22  2  0  0  0
 21 23  1  0  0  0
 23 24  1  0  0  0
 24 25  2  0  0  0
  1  2  1  0  0  0
  1  6  1  0  0  0
  2  3  1  0  0  0
  2 14  1  0  0  0
  2 15  1  0  0  0
  3  4  1  0  0  0
  4  5  1  0  0  0
  4  7  1  0  0  0
  4 11  1  0  0  0
  5  6  1  0  0  0
  7  8  1  0  0  0
  8  9  1  0  0  0
  9 10  1  0  0  0
  9 12  1  0  0  0
 10 11  1  0  0  0
 12 13  2  0  0  0
 12 27  1  0  0  0
 27 28  1  0  0  0
 27 33  1  0  0  0
 28 29  1  0  0  0
 29 30  2  0  0  0
 29 31  1  0  0  0
 33 34  1  0  0  0
 34 35  1  0  0  0
 34 38  2  0  0  0
 35 36  2  0  0  0
 36 37  1  0  0  0
 37 38  1  0  0  0
 23 26  1  0  0  0
 28 32  1  0  0  0
 37 39  1  0  0  0
 14 16  1  0  0  0
M  END
> <minimizedAffinity>
-8.46390

$$$$
786


 25 28  0  0  0  0  0  0  0  0999 V2000
   20.9597   35.9918   69.1403 N   0  0  0  0  0  0  0  0  0  0  0  0
   21.4451   36.4897   67.9210 C   0  0  0  0  0  0  0  0  0  0  0  0
   21.3470   37.7068   67.6600 O   0  0  0  0  0  0  0  0  0  0  0  0
   21.0464   34.9784   69.3465 H   0  0  0  0  0  0  0  0  0  0  0  0
   22.0740   35.5861   66.9397 C   0  0  0  0  0  0  0  0  0  0  0  0
   23.1973   36.2875   66.2186 C   0  0  0  0  0  0  0  0  0  0  0  0
   24.1671   36.6767   67.2245 N   0  0  0  0  0  0  0  0  0  0  0  0
   24.4043   35.8763   68.2765 C   0  0  0  0  0  0  0  0  0  0  0  0
   25.3383   36.4894   69.0310 N   0  0  0  0  0  0  0  0  0  0  0  0
   25.6707   37.6185   68.4784 N   0  0  0  0  0  0  0  0  0  0  0  0
   24.9513   37.7469   67.3561 C   0  0  0  0  0  0  0  0  0  0  0  0
   25.0696   38.9340   66.4538 C   0  0  0  0  0  0  0  0  0  0  0  0
   23.7419   34.5842   68.5126 C   0  0  0  0  0  0  0  0  0  0  0  0
   22.5622   34.3441   67.6391 C   0  0  0  0  0  0  0  0  0  0  0  0
   20.3475   36.8955   70.0889 C   0  0  0  0  0  0  0  0  0  0  0  0
   13.1538   34.0602   71.3506 Br  0  0  0  0  0  0  0  0  0  0  0  0
   14.6173   35.2013   70.8767 C   0  0  0  0  0  0  0  0  0  0  0  0
   15.9287   34.7993   71.0013 C   0  0  0  0  0  0  0  0  0  0  0  0
   16.9726   35.6085   70.6643 N   0  0  0  0  0  0  0  0  0  0  0  0
   16.7076   36.8410   70.1946 C   0  0  0  0  0  0  0  0  0  0  0  0
   17.8737   37.4548   69.9296 N   0  0  0  0  0  0  0  0  0  0  0  0
   18.8933   36.6275   70.2251 C   0  0  0  0  0  0  0  0  0  0  0  0
   18.3108   35.4662   70.6875 C   0  0  0  0  0  0  0  0  0  0  0  0
   15.3930   37.2770   70.0565 C   0  0  0  0  0  0  0  0  0  0  0  0
   14.3409   36.4636   70.3959 C   0  0  0  0  0  0  0  0  0  0  0  0
 16 17  1  0  0  0
 17 18  2  0  0  0
 17 25  1  0  0  0
 18 19  1  0  0  0
 19 20  1  0  0  0
 19 23  1  0  0  0
 20 21  2  0  0  0
 20 24  1  0  0  0
 21 22  1  0  0  0
 22 23  2  0  0  0
 22 15  1  0  0  0
 15  1  1  0  0  0
  1  2  1  0  0  0
  2  3  2  0  0  0
  2  5  1  0  0  0
  5  6  1  0  0  0
  5 14  1  0  0  0
  6  7  1  0  0  0
  7  8  1  0  0  0
  7 11  1  0  0  0
  8  9  2  0  0  0
  8 13  1  0  0  0
  9 10  1  0  0  0
 10 11  2  0  0  0
 11 12  1  0  0  0
 13 14  1  0  0  0
 24 25  2  0  0  0
  1  4  1  0  0  0
M  END
> <minimizedAffinity>
-8.08448

$$$$
789


 21 24  0  0  0  0  0  0  0  0999 V2000
   14.0806   32.7629   71.5181 C   0  0  0  0  0  0  0  0  0  0  0  0
   12.8757   32.7512   71.1478 O   0  0  0  0  0  0  0  0  0  0  0  0
   14.8147   33.9664   71.3656 N   0  0  0  0  0  0  0  0  0  0  0  0
   14.1920   35.1145   70.8159 C   0  0  0  0  0  0  0  0  0  0  0  0
   15.1299   36.0414   70.1372 C   0  0  0  0  0  0  0  0  0  0  0  0
   16.5135   35.6620   70.1584 N   0  0  0  0  0  0  0  0  0  0  0  0
   16.9310   35.2480   71.4851 C   0  0  0  0  0  0  0  0  0  0  0  0
   16.1893   33.9598   71.7872 C   0  0  0  0  0  0  0  0  0  0  0  0
   17.1897   36.8207   69.6597 C   0  0  0  0  0  0  0  0  0  0  0  0
   16.4375   37.9991   70.2260 C   0  0  0  0  0  0  0  0  0  0  0  0
   15.1576   37.4164   70.7825 C   0  0  0  0  0  0  0  0  0  0  0  0
   16.4953   26.6883   75.7971 Br  0  0  0  0  0  0  0  0  0  0  0  0
   16.2231   27.9051   74.3350 C   0  0  0  0  0  0  0  0  0  0  0  0
   15.4474   29.0349   74.4728 C   0  0  0  0  0  0  0  0  0  0  0  0
   15.2457   29.9043   73.4488 N   0  0  0  0  0  0  0  0  0  0  0  0
   14.5631   31.0317   73.3239 N   0  0  0  0  0  0  0  0  0  0  0  0
   14.6667   31.5418   72.0888 C   0  0  0  0  0  0  0  0  0  0  0  0
   15.4875   30.6355   71.4172 C   0  0  0  0  0  0  0  0  0  0  0  0
   15.8422   29.6161   72.2776 C   0  0  0  0  0  0  0  0  0  0  0  0
   16.6108   28.5048   72.1305 N   0  0  0  0  0  0  0  0  0  0  0  0
   16.8243   27.6318   73.1267 C   0  0  0  0  0  0  0  0  0  0  0  0
 12 13  1  0  0  0
 13 14  2  0  0  0
 13 21  1  0  0  0
 14 15  1  0  0  0
 15 16  1  0  0  0
 15 19  1  0  0  0
 16 17  2  0  0  0
 17 18  1  0  0  0
 17  1  1  0  0  0
 18 19  2  0  0  0
 19 20  1  0  0  0
 20 21  2  0  0  0
  1  2  2  0  0  0
  1  3  1  0  0  0
  3  4  1  0  0  0
  3  8  1  0  0  0
  4  5  1  0  0  0
  5  6  1  0  0  0
  5 11  1  0  0  0
  6  7  1  0  0  0
  6  9  1  0  0  0
  7  8  1  0  0  0
  9 10  1  0  0  0
 10 11  1  0  0  0
M  END
> <minimizedAffinity>
-7.62917

$$$$
790


 25 28  0  0  0  0  0  0  0  0999 V2000
   20.6421   35.2008   70.9696 C   0  0  0  0  0  0  0  0  0  0  0  0
   20.9342   35.2234   72.1998 O   0  0  0  0  0  0  0  0  0  0  0  0
   21.4626   34.5145   70.0378 N   0  0  0  0  0  0  0  0  0  0  0  0
   21.0492   34.5387   68.6263 C   0  0  0  0  0  0  0  0  0  0  0  0
   22.3559   34.3466   67.8564 C   0  0  0  0  0  0  0  0  0  0  0  0
   23.3458   35.0934   68.5740 N   0  0  0  0  0  0  0  0  0  0  0  0
   23.9144   34.3242   69.7195 C   0  0  0  0  0  0  0  0  0  0  0  0
   22.6689   33.8101   70.4467 C   0  0  0  0  0  0  0  0  0  0  0  0
   23.7736   36.3930   68.3576 C   0  0  0  0  0  0  0  0  0  0  0  0
   24.7254   36.8363   69.1249 O   0  0  0  0  0  0  0  0  0  0  0  0
   13.6460   34.5662   70.5834 Br  0  0  0  0  0  0  0  0  0  0  0  0
   15.5180   34.9136   70.6073 C   0  0  0  0  0  0  0  0  0  0  0  0
   16.0156   36.0847   70.1289 C   0  0  0  0  0  0  0  0  0  0  0  0
   17.3195   36.3325   70.1429 N   0  0  0  0  0  0  0  0  0  0  0  0
   18.0268   37.3883   69.7367 N   0  0  0  0  0  0  0  0  0  0  0  0
   19.3248   37.1375   69.9742 C   0  0  0  0  0  0  0  0  0  0  0  0
   19.4502   35.8925   70.5452 C   0  0  0  0  0  0  0  0  0  0  0  0
   18.1524   35.4023   70.6404 C   0  0  0  0  0  0  0  0  0  0  0  0
   17.6768   34.2408   71.1164 N   0  0  0  0  0  0  0  0  0  0  0  0
   16.3697   33.9700   71.1126 C   0  0  0  0  0  0  0  0  0  0  0  0
   23.3178   37.3725   67.3856 C   0  0  0  0  0  0  0  0  0  0  0  0
   22.0790   37.8829   67.3453 O   0  0  0  0  0  0  0  0  0  0  0  0
   21.9358   38.7296   66.3840 C   0  0  0  0  0  0  0  0  0  0  0  0
   23.1172   38.8421   65.6948 C   0  0  0  0  0  0  0  0  0  0  0  0
   23.9808   37.9745   66.3437 C   0  0  0  0  0  0  0  0  0  0  0  0
 11 12  1  0  0  0
 12 13  2  0  0  0
 12 20  1  0  0  0
 13 14  1  0  0  0
 14 15  1  0  0  0
 14 18  1  0  0  0
 15 16  2  0  0  0
 16 17  1  0  0  0
 17 18  2  0  0  0
 17  1  1  0  0  0
 18 19  1  0  0  0
 19 20  2  0  0  0
  1  2  2  0  0  0
  1  3  1  0  0  0
  3  4  1  0  0  0
  3  8  1  0  0  0
  4  5  1  0  0  0
  5  6  1  0  0  0
  6  7  1  0  0  0
  6  9  1  0  0  0
  7  8  1  0  0  0
  9 10  2  0  0  0
  9 21  1  0  0  0
 21 22  1  0  0  0
 21 25  2  0  0  0
 22 23  1  0  0  0
 23 24  2  0  0  0
 24 25  1  0  0  0
M  END
> <minimizedAffinity>
-8.07271

$$$$
797


 28 31  0  0  0  0  0  0  0  0999 V2000
   18.2629   31.3208   71.3881 O   0  0  0  0  0  0  0  0  0  0  0  0
   17.0620   30.7987   71.8210 C   0  0  0  0  0  0  0  0  0  0  0  0
   16.7242   29.6517   71.4647 O   0  0  0  0  0  0  0  0  0  0  0  0
   16.2053   31.6237   72.7033 C   0  0  0  0  0  0  0  0  0  0  0  0
   15.5540   32.6657   71.9627 N   0  0  0  0  0  0  0  0  0  0  0  0
   14.4300   32.5140   71.1242 C   0  0  0  0  0  0  0  0  0  0  0  0
   13.7746   31.4759   70.8482 O   0  0  0  0  0  0  0  0  0  0  0  0
   14.0913   33.8392   70.5619 C   0  0  0  0  0  0  0  0  0  0  0  0
   14.9920   34.7419   71.0588 C   0  0  0  0  0  0  0  0  0  0  0  0
   14.9411   36.0639   70.7218 C   0  0  0  0  0  0  0  0  0  0  0  0
   13.9563   36.4843   69.8614 C   0  0  0  0  0  0  0  0  0  0  0  0
   13.0463   35.5737   69.3599 C   0  0  0  0  0  0  0  0  0  0  0  0
   13.0891   34.2374   69.6936 C   0  0  0  0  0  0  0  0  0  0  0  0
   15.9182   34.0267   71.9397 C   0  0  0  0  0  0  0  0  0  0  0  0
   16.8785   34.5737   72.5634 O   0  0  0  0  0  0  0  0  0  0  0  0
   19.1962   31.9942   72.1912 C   0  0  0  0  0  0  0  0  0  0  0  0
   22.9902   37.6051   67.2773 Br  0  0  0  0  0  0  0  0  0  0  0  0
   22.1257   36.1461   68.1733 C   0  0  0  0  0  0  0  0  0  0  0  0
   21.7398   36.2346   69.4928 C   0  0  0  0  0  0  0  0  0  0  0  0
   21.1301   35.2296   70.1576 N   0  0  0  0  0  0  0  0  0  0  0  0
   20.8568   34.0561   69.5599 C   0  0  0  0  0  0  0  0  0  0  0  0
   20.2508   33.0452   70.2064 N   0  0  0  0  0  0  0  0  0  0  0  0
   19.8683   33.1267   71.5030 C   0  0  0  0  0  0  0  0  0  0  0  0
   20.1396   34.3211   72.1364 C   0  0  0  0  0  0  0  0  0  0  0  0
   20.7676   35.3571   71.4510 C   0  0  0  0  0  0  0  0  0  0  0  0
   21.0162   36.4362   72.0112 O   0  0  0  0  0  0  0  0  0  0  0  0
   21.2366   33.9367   68.2206 C   0  0  0  0  0  0  0  0  0  0  0  0
   21.8593   34.9550   67.5326 C   0  0  0  0  0  0  0  0  0  0  0  0
 17 18  1  0  0  0
 18 19  2  0  0  0
 18 28  1  0  0  0
 19 20  1  0  0  0
 20 21  1  0  0  0
 20 25  1  0  0  0
 21 22  2  0  0  0
 21 27  1  0  0  0
 22 23  1  0  0  0
 23 24  2  0  0  0
 23 16  1  0  0  0
 24 25  1  0  0  0
 25 26  2  0  0  0
 16  1  1  0  0  0
  1  2  1  0  0  0
  2  3  2  0  0  0
  2  4  1  0  0  0
  4  5  1  0  0  0
  5  6  1  0  0  0
  5 14  1  0  0  0
  6  7  2  0  0  0
  6  8  1  0  0  0
  8  9  2  0  0  0
  8 13  1  0  0  0
  9 10  1  0  0  0
  9 14  1  0  0  0
 10 11  2  0  0  0
 11 12  1  0  0  0
 12 13  2  0  0  0
 14 15  2  0  0  0
 27 28  2  0  0  0
M  END
> <minimizedAffinity>
-9.07958

$$$$
800


 29 32  0  0  0  0  0  0  0  0999 V2000
   18.7671   37.2586   69.6639 C   0  0  0  0  0  0  0  0  0  0  0  0
   18.6434   37.6465   68.4734 O   0  0  0  0  0  0  0  0  0  0  0  0
   17.6307   37.1224   70.4249 O   0  0  0  0  0  0  0  0  0  0  0  0
   16.3376   37.0020   69.8627 C   0  0  0  0  0  0  0  0  0  0  0  0
   13.7499   30.0457   73.4964 Br  0  0  0  0  0  0  0  0  0  0  0  0
   14.6027   31.6019   72.7891 C   0  0  0  0  0  0  0  0  0  0  0  0
   13.8876   32.4364   71.9576 C   0  0  0  0  0  0  0  0  0  0  0  0
   14.4845   33.5316   71.4580 N   0  0  0  0  0  0  0  0  0  0  0  0
   15.7652   33.8378   71.7498 C   0  0  0  0  0  0  0  0  0  0  0  0
   16.3475   34.9474   71.2352 N   0  0  0  0  0  0  0  0  0  0  0  0
   15.6885   35.7889   70.4198 C   0  0  0  0  0  0  0  0  0  0  0  0
   14.3809   35.4936   70.1117 C   0  0  0  0  0  0  0  0  0  0  0  0
   13.7799   34.3478   70.6427 C   0  0  0  0  0  0  0  0  0  0  0  0
   12.5999   34.0719   70.3707 O   0  0  0  0  0  0  0  0  0  0  0  0
   16.4874   33.0055   72.5824 C   0  0  0  0  0  0  0  0  0  0  0  0
   15.9223   31.8706   73.1193 C   0  0  0  0  0  0  0  0  0  0  0  0
   20.1438   36.9782   70.1489 C   0  0  0  0  0  0  0  0  0  0  0  0
   20.5216   35.6078   69.9696 N   0  0  0  0  0  0  0  0  0  0  0  0
   20.9547   34.9981   68.7545 C   0  0  0  0  0  0  0  0  0  0  0  0
   21.0683   35.5939   67.6445 O   0  0  0  0  0  0  0  0  0  0  0  0
   21.2280   33.6274   69.0216 N   0  0  0  0  0  0  0  0  0  0  0  0
   20.8161   33.3247   70.3689 C   0  0  0  0  0  0  0  0  0  0  0  0
   19.5858   32.4584   70.4252 C   0  0  0  0  0  0  0  0  0  0  0  0
   19.6332   31.8847   71.8065 C   0  0  0  0  0  0  0  0  0  0  0  0
   21.0160   32.0984   72.3492 C   0  0  0  0  0  0  0  0  0  0  0  0
   21.8178   32.5369   71.1429 C   0  0  0  0  0  0  0  0  0  0  0  0
   20.5251   34.6128   70.9957 C   0  0  0  0  0  0  0  0  0  0  0  0
   20.3101   34.8609   72.2051 O   0  0  0  0  0  0  0  0  0  0  0  0
   21.6547   32.9811   68.3357 H   0  0  0  0  0  0  0  0  0  0  0  0
  5  6  1  0  0  0
  6  7  2  0  0  0
  6 16  1  0  0  0
  7  8  1  0  0  0
  8  9  1  0  0  0
  8 13  1  0  0  0
  9 10  2  0  0  0
  9 15  1  0  0  0
 10 11  1  0  0  0
 11 12  2  0  0  0
 11  4  1  0  0  0
 12 13  1  0  0  0
 13 14  2  0  0  0
  4  3  1  0  0  0
  3  1  1  0  0  0
  1  2  2  0  0  0
  1 17  1  0  0  0
 17 18  1  0  0  0
 18 19  1  0  0  0
 18 27  1  0  0  0
 19 20  2  0  0  0
 19 21  1  0  0  0
 21 22  1  0  0  0
 22 23  1  0  0  0
 22 26  1  0  0  0
 22 27  1  0  0  0
 23 24  1  0  0  0
 24 25  1  0  0  0
 25 26  1  0  0  0
 27 28  2  0  0  0
 15 16  2  0  0  0
 21 29  1  0  0  0
M  END
> <minimizedAffinity>
-8.50761

$$$$
803


 31 34  0  0  0  0  0  0  0  0999 V2000
   16.4293   37.7116   70.0748 Br  0  0  0  0  0  0  0  0  0  0  0  0
   17.9976   36.6413   70.0095 C   0  0  0  0  0  0  0  0  0  0  0  0
   19.1867   37.0908   69.5515 C   0  0  0  0  0  0  0  0  0  0  0  0
   20.3126   36.3719   69.5832 N   0  0  0  0  0  0  0  0  0  0  0  0
   20.2644   35.1426   70.0950 C   0  0  0  0  0  0  0  0  0  0  0  0
   21.3985   34.3878   70.1308 N   0  0  0  0  0  0  0  0  0  0  0  0
   22.5678   34.8157   69.6755 C   0  0  0  0  0  0  0  0  0  0  0  0
   22.6439   36.0823   69.1425 C   0  0  0  0  0  0  0  0  0  0  0  0
   23.8313   36.5818   68.6455 C   0  0  0  0  0  0  0  0  0  0  0  0
   25.0126   35.8390   68.6555 C   0  0  0  0  0  0  0  0  0  0  0  0
   24.9245   34.5724   69.1914 C   0  0  0  0  0  0  0  0  0  0  0  0
   23.7364   34.0678   69.6908 C   0  0  0  0  0  0  0  0  0  0  0  0
   21.4768   36.8363   69.1162 C   0  0  0  0  0  0  0  0  0  0  0  0
   21.5319   37.9890   68.6333 O   0  0  0  0  0  0  0  0  0  0  0  0
   19.0851   34.6683   70.5597 N   0  0  0  0  0  0  0  0  0  0  0  0
   17.9292   35.3182   70.5607 C   0  0  0  0  0  0  0  0  0  0  0  0
   19.1813   33.6726   70.9436 H   0  0  0  0  0  0  0  0  0  0  0  0
   16.6941   34.8722   70.9102 N   0  0  0  0  0  0  0  0  0  0  0  0
   17.1304   33.5790   70.9862 H   0  0  0  0  0  0  0  0  0  0  0  0
   15.4772   34.4322   71.2547 C   0  0  0  0  0  0  0  0  0  0  0  0
   15.3362   33.1492   71.7994 C   0  0  0  0  0  0  0  0  0  0  0  0
   14.1105   32.5851   71.9376 C   0  0  0  0  0  0  0  0  0  0  0  0
   12.9823   33.2660   71.5499 C   0  0  0  0  0  0  0  0  0  0  0  0
   13.0524   34.5326   71.0139 C   0  0  0  0  0  0  0  0  0  0  0  0
   14.3062   35.0818   70.8814 C   0  0  0  0  0  0  0  0  0  0  0  0
   16.4750   32.4248   72.3773 C   0  0  0  0  0  0  0  0  0  0  0  0
   16.8635   32.7678   73.5226 O   0  0  0  0  0  0  0  0  0  0  0  0
   17.1576   31.4086   71.7741 O   0  0  0  0  0  0  0  0  0  0  0  0
   16.5551   30.1743   71.4356 C   0  0  0  0  0  0  0  0  0  0  0  0
   16.5090   29.2541   72.6590 C   0  0  0  0  0  0  0  0  0  0  0  0
   15.0726   29.1131   73.1031 C   0  0  0  0  0  0  0  0  0  0  0  0
  1  2  1  0  0  0
  2  3  2  0  0  0
  2 16  1  0  0  0
  3  4  1  0  0  0
  4  5  1  0  0  0
  4 13  1  0  0  0
  5  6  2  0  0  0
  5 15  1  0  0  0
  6  7  1  0  0  0
  7  8  2  0  0  0
  7 12  1  0  0  0
  8  9  1  0  0  0
  8 13  1  0  0  0
  9 10  2  0  0  0
 10 11  1  0  0  0
 11 12  2  0  0  0
 13 14  2  0  0  0
 15 16  2  0  0  0
 16 18  1  0  0  0
 18 20  1  0  0  0
 20 21  2  0  0  0
 20 25  1  0  0  0
 21 22  1  0  0  0
 21 26  1  0  0  0
 22 23  2  0  0  0
 23 24  1  0  0  0
 24 25  2  0  0  0
 26 27  2  0  0  0
 26 28  1  0  0  0
 28 29  1  0  0  0
 29 30  1  0  0  0
 30 31  1  0  0  0
 15 17  1  0  0  0
 18 19  1  0  0  0
M  END
> <minimizedAffinity>
-8.28007

$$$$
814


 31 34  0  0  0  0  0  0  0  0999 V2000
   20.3801   36.4684   70.0897 N   0  0  0  0  0  0  0  0  0  0  0  0
   19.1521   36.9298   70.1574 N   0  0  0  0  0  0  0  0  0  0  0  0
   18.7366   37.3438   68.9512 C   0  0  0  0  0  0  0  0  0  0  0  0
   19.7478   37.1319   68.0963 N   0  0  0  0  0  0  0  0  0  0  0  0
   20.7713   36.5854   68.8163 C   0  0  0  0  0  0  0  0  0  0  0  0
   22.0769   36.1893   68.2915 C   0  0  0  0  0  0  0  0  0  0  0  0
   22.8226   37.3298   67.6399 C   0  0  0  0  0  0  0  0  0  0  0  0
   22.2144   37.7163   66.3098 C   0  0  0  0  0  0  0  0  0  0  0  0
   20.8931   38.4080   66.4440 C   0  0  0  0  0  0  0  0  0  0  0  0
   19.7507   37.4297   66.6776 C   0  0  0  0  0  0  0  0  0  0  0  0
   21.1597   35.9399   71.1690 C   0  0  0  0  0  0  0  0  0  0  0  0
   21.0248   34.4630   71.2778 C   0  0  0  0  0  0  0  0  0  0  0  0
   22.0269   33.7628   70.9739 O   0  0  0  0  0  0  0  0  0  0  0  0
   15.8343   31.6442   73.0740 Br  0  0  0  0  0  0  0  0  0  0  0  0
   17.4523   32.5182   72.5067 C   0  0  0  0  0  0  0  0  0  0  0  0
   18.0348   33.4803   73.3138 C   0  0  0  0  0  0  0  0  0  0  0  0
   19.2046   34.1163   72.9093 C   0  0  0  0  0  0  0  0  0  0  0  0
   19.8083   33.8106   71.7116 C   0  0  0  0  0  0  0  0  0  0  0  0
   19.2021   32.8497   70.9336 C   0  0  0  0  0  0  0  0  0  0  0  0
   18.0478   32.2065   71.3078 C   0  0  0  0  0  0  0  0  0  0  0  0
   17.4335   37.9225   68.5958 C   0  0  0  0  0  0  0  0  0  0  0  0
   16.5331   37.9747   69.7065 N   0  0  0  0  0  0  0  0  0  0  0  0
   16.5896   38.7508   70.3820 H   0  0  0  0  0  0  0  0  0  0  0  0
   15.5337   36.9876   69.9419 C   0  0  0  0  0  0  0  0  0  0  0  0
   14.2680   37.0810   69.4093 C   0  0  0  0  0  0  0  0  0  0  0  0
   13.3156   36.1218   69.6388 C   0  0  0  0  0  0  0  0  0  0  0  0
   13.6192   35.0457   70.4123 C   0  0  0  0  0  0  0  0  0  0  0  0
   14.8846   34.9489   70.9476 C   0  0  0  0  0  0  0  0  0  0  0  0
   15.8510   35.9073   70.7227 C   0  0  0  0  0  0  0  0  0  0  0  0
   12.6844   34.0690   70.6602 O   0  0  0  0  0  0  0  0  0  0  0  0
   12.8541   33.0804   71.6456 C   0  0  0  0  0  0  0  0  0  0  0  0
 14 15  1  0  0  0
 15 16  2  0  0  0
 15 20  1  0  0  0
 16 17  1  0  0  0
 17 18  2  0  0  0
 18 19  1  0  0  0
 18 12  1  0  0  0
 19 20  2  0  0  0
 12 13  2  0  0  0
 12 11  1  0  0  0
 11  1  1  0  0  0
  1  2  1  0  0  0
  1  5  2  0  0  0
  2  3  2  0  0  0
  3  4  1  0  0  0
  3 21  1  0  0  0
  4  5  1  0  0  0
  4 10  1  0  0  0
  5  6  1  0  0  0
  6  7  1  0  0  0
  7  8  1  0  0  0
  8  9  1  0  0  0
  9 10  1  0  0  0
 21 22  1  0  0  0
 22 24  1  0  0  0
 24 25  2  0  0  0
 24 29  1  0  0  0
 25 26  1  0  0  0
 26 27  2  0  0  0
 27 28  1  0  0  0
 27 30  1  0  0  0
 28 29  2  0  0  0
 30 31  1  0  0  0
 22 23  1  0  0  0
M  END
> <minimizedAffinity>
-8.80729

$$$$
827


 29 32  0  0  0  0  0  0  0  0999 V2000
   20.7723   36.7023   70.9733 C   0  0  0  0  0  0  0  0  0  0  0  0
   19.7922   36.9695   69.9232 N   0  0  0  0  0  0  0  0  0  0  0  0
   20.3815   36.8218   68.6912 C   0  0  0  0  0  0  0  0  0  0  0  0
   19.9936   37.2559   67.5179 C   0  0  0  0  0  0  0  0  0  0  0  0
   20.5416   37.1509   66.1346 C   0  0  0  0  0  0  0  0  0  0  0  0
   21.9109   36.5523   66.0614 C   0  0  0  0  0  0  0  0  0  0  0  0
   21.9512   35.1753   66.6811 C   0  0  0  0  0  0  0  0  0  0  0  0
   22.4351   35.2678   68.1147 C   0  0  0  0  0  0  0  0  0  0  0  0
   21.6539   36.1668   68.9015 N   0  0  0  0  0  0  0  0  0  0  0  0
   22.1348   36.6218   70.2128 C   0  0  0  0  0  0  0  0  0  0  0  0
   20.8754   37.6875   71.8771 O   0  0  0  0  0  0  0  0  0  0  0  0
   19.7676   38.1054   70.0135 H   0  0  0  0  0  0  0  0  0  0  0  0
   21.3148   37.5382   72.7270 H   0  0  0  0  0  0  0  0  0  0  0  0
   20.0623   31.0183   73.2459 Br  0  0  0  0  0  0  0  0  0  0  0  0
   20.2793   32.7683   72.5559 C   0  0  0  0  0  0  0  0  0  0  0  0
   21.1005   32.9708   71.4627 C   0  0  0  0  0  0  0  0  0  0  0  0
   21.2659   34.2363   70.9407 C   0  0  0  0  0  0  0  0  0  0  0  0
   20.6189   35.3151   71.4970 C   0  0  0  0  0  0  0  0  0  0  0  0
   19.8105   35.1123   72.5746 C   0  0  0  0  0  0  0  0  0  0  0  0
   19.6278   33.8351   73.1214 C   0  0  0  0  0  0  0  0  0  0  0  0
   18.4924   36.6498   70.2140 C   0  0  0  0  0  0  0  0  0  0  0  0
   17.9657   35.3934   70.2240 C   0  0  0  0  0  0  0  0  0  0  0  0
   16.5896   35.1417   70.3578 C   0  0  0  0  0  0  0  0  0  0  0  0
   15.6979   36.1736   70.4879 C   0  0  0  0  0  0  0  0  0  0  0  0
   16.2265   37.4562   70.4812 C   0  0  0  0  0  0  0  0  0  0  0  0
   17.5767   37.6985   70.3482 C   0  0  0  0  0  0  0  0  0  0  0  0
   14.3370   35.9461   70.6098 O   0  0  0  0  0  0  0  0  0  0  0  0
   13.4015   36.0429   69.5659 C   0  0  0  0  0  0  0  0  0  0  0  0
   13.0338   34.5911   69.2038 C   0  0  0  0  0  0  0  0  0  0  0  0
 14 15  1  0  0  0
 15 16  2  0  0  0
 15 20  1  0  0  0
 16 17  1  0  0  0
 17 18  2  0  0  0
 18 19  1  0  0  0
 18  1  1  0  0  0
 19 20  2  0  0  0
  1  2  1  0  0  0
  1 10  1  0  0  0
  1 11  1  0  0  0
  2  3  1  0  0  0
  2 21  1  0  0  0
  3  4  2  0  0  0
  3  9  1  0  0  0
  4  5  1  0  0  0
  5  6  1  0  0  0
  6  7  1  0  0  0
  7  8  1  0  0  0
  8  9  1  0  0  0
  9 10  1  0  0  0
 21 22  2  0  0  0
 21 26  1  0  0  0
 22 23  1  0  0  0
 23 24  2  0  0  0
 24 25  1  0  0  0
 24 27  1  0  0  0
 25 26  2  0  0  0
 27 28  1  0  0  0
 28 29  1  0  0  0
  2 12  1  0  0  0
 11 13  1  0  0  0
M  CHG 1   2   1
M  END
> <minimizedAffinity>
-8.11483

$$$$
833


 28 31  0  0  0  0  0  0  0  0999 V2000
   20.0094   35.0805   71.6483 C   0  0  0  0  0  0  0  0  0  0  0  0
   20.6784   33.9983   70.9396 N   0  0  0  0  0  0  0  0  0  0  0  0
   20.0593   32.6943   70.7308 C   0  0  0  0  0  0  0  0  0  0  0  0
   21.0161   31.6589   70.2658 C   0  0  0  0  0  0  0  0  0  0  0  0
   22.2577   31.5435   71.1115 C   0  0  0  0  0  0  0  0  0  0  0  0
   23.3187   32.3716   70.4111 C   0  0  0  0  0  0  0  0  0  0  0  0
   23.0623   33.7798   70.3347 C   0  0  0  0  0  0  0  0  0  0  0  0
   21.9286   34.4824   70.5616 C   0  0  0  0  0  0  0  0  0  0  0  0
   21.9058   35.8825   70.4080 N   0  0  0  0  0  0  0  0  0  0  0  0
   20.6511   36.2539   70.9944 C   0  0  0  0  0  0  0  0  0  0  0  0
   20.3071   34.9443   72.9793 O   0  0  0  0  0  0  0  0  0  0  0  0
   22.6726   36.3859   70.9109 H   0  0  0  0  0  0  0  0  0  0  0  0
   19.9692   34.1185   73.3852 H   0  0  0  0  0  0  0  0  0  0  0  0
   13.9370   34.8826   70.8800 Br  0  0  0  0  0  0  0  0  0  0  0  0
   15.8364   34.9353   71.1141 C   0  0  0  0  0  0  0  0  0  0  0  0
   16.5974   35.7213   70.2800 C   0  0  0  0  0  0  0  0  0  0  0  0
   17.9840   35.7804   70.4251 C   0  0  0  0  0  0  0  0  0  0  0  0
   18.5485   35.0088   71.4446 C   0  0  0  0  0  0  0  0  0  0  0  0
   17.8061   34.2277   72.2728 C   0  0  0  0  0  0  0  0  0  0  0  0
   16.4317   34.1827   72.1129 C   0  0  0  0  0  0  0  0  0  0  0  0
   21.9440   36.1277   69.0018 C   0  0  0  0  0  0  0  0  0  0  0  0
   23.0557   36.7065   68.4131 C   0  0  0  0  0  0  0  0  0  0  0  0
   22.9628   36.9735   67.0533 C   0  0  0  0  0  0  0  0  0  0  0  0
   21.8487   36.6990   66.2820 C   0  0  0  0  0  0  0  0  0  0  0  0
   20.7407   36.1089   66.9264 C   0  0  0  0  0  0  0  0  0  0  0  0
   20.8446   35.8532   68.2458 C   0  0  0  0  0  0  0  0  0  0  0  0
   24.1599   36.9795   69.1610 O   0  0  0  0  0  0  0  0  0  0  0  0
   25.4477   36.9751   68.6027 C   0  0  0  0  0  0  0  0  0  0  0  0
 14 15  1  0  0  0
 15 16  2  0  0  0
 15 20  1  0  0  0
 16 17  1  0  0  0
 17 18  2  0  0  0
 18 19  1  0  0  0
 18  1  1  0  0  0
 19 20  2  0  0  0
  1  2  1  0  0  0
  1 10  1  0  0  0
  1 11  1  0  0  0
  2  3  1  0  0  0
  2  8  1  0  0  0
  3  4  1  0  0  0
  4  5  1  0  0  0
  5  6  1  0  0  0
  6  7  1  0  0  0
  7  8  2  0  0  0
  8  9  1  0  0  0
  9 10  1  0  0  0
  9 21  1  0  0  0
 21 22  2  0  0  0
 21 26  1  0  0  0
 22 23  1  0  0  0
 22 27  1  0  0  0
 23 24  2  0  0  0
 24 25  1  0  0  0
 25 26  2  0  0  0
 27 28  1  0  0  0
  9 12  1  0  0  0
 11 13  1  0  0  0
M  CHG 1   9   1
M  END
> <minimizedAffinity>
-7.82794

$$$$
834


 28 31  0  0  0  0  0  0  0  0999 V2000
   16.0675   32.0501   72.2106 C   0  0  0  0  0  0  0  0  0  0  0  0
   17.3956   32.3692   72.6253 N   0  0  0  0  0  0  0  0  0  0  0  0
   17.8087   33.3610   73.5695 C   0  0  0  0  0  0  0  0  0  0  0  0
   18.9436   34.2319   73.1915 C   0  0  0  0  0  0  0  0  0  0  0  0
   19.5937   33.9727   71.8807 C   0  0  0  0  0  0  0  0  0  0  0  0
   20.4351   32.6961   71.8953 C   0  0  0  0  0  0  0  0  0  0  0  0
   19.5047   31.5690   71.5762 C   0  0  0  0  0  0  0  0  0  0  0  0
   18.2258   31.4345   71.8843 C   0  0  0  0  0  0  0  0  0  0  0  0
   17.4289   30.3174   71.5099 N   0  0  0  0  0  0  0  0  0  0  0  0
   16.2188   30.9802   71.1240 C   0  0  0  0  0  0  0  0  0  0  0  0
   15.2810   31.5527   73.2679 O   0  0  0  0  0  0  0  0  0  0  0  0
   17.9035   29.8416   70.7017 H   0  0  0  0  0  0  0  0  0  0  0  0
   14.7784   30.7931   72.8769 H   0  0  0  0  0  0  0  0  0  0  0  0
   13.1951   36.7297   69.3904 Br  0  0  0  0  0  0  0  0  0  0  0  0
   14.0378   35.2593   70.2776 C   0  0  0  0  0  0  0  0  0  0  0  0
   13.2966   34.3254   70.9697 C   0  0  0  0  0  0  0  0  0  0  0  0
   13.9282   33.2668   71.6104 C   0  0  0  0  0  0  0  0  0  0  0  0
   15.2734   33.1050   71.5849 C   0  0  0  0  0  0  0  0  0  0  0  0
   16.0370   34.0584   70.8787 C   0  0  0  0  0  0  0  0  0  0  0  0
   15.4028   35.0986   70.2498 C   0  0  0  0  0  0  0  0  0  0  0  0
   17.2777   29.4679   72.6176 C   0  0  0  0  0  0  0  0  0  0  0  0
   16.1229   28.6783   72.7673 C   0  0  0  0  0  0  0  0  0  0  0  0
   15.9436   27.8437   73.8373 C   0  0  0  0  0  0  0  0  0  0  0  0
   16.9016   27.7415   74.8234 C   0  0  0  0  0  0  0  0  0  0  0  0
   18.0362   28.5008   74.6996 C   0  0  0  0  0  0  0  0  0  0  0  0
   18.2158   29.3426   73.6210 C   0  0  0  0  0  0  0  0  0  0  0  0
   16.7085   26.8797   75.9200 O   0  0  0  0  0  0  0  0  0  0  0  0
   15.4228   26.4069   76.2231 C   0  0  0  0  0  0  0  0  0  0  0  0
 14 15  1  0  0  0
 15 16  2  0  0  0
 15 20  1  0  0  0
 16 17  1  0  0  0
 17 18  2  0  0  0
 18 19  1  0  0  0
 18  1  1  0  0  0
 19 20  2  0  0  0
  1  2  1  0  0  0
  1 10  1  0  0  0
  1 11  1  0  0  0
  2  3  1  0  0  0
  2  8  1  0  0  0
  3  4  1  0  0  0
  4  5  1  0  0  0
  5  6  1  0  0  0
  6  7  1  0  0  0
  7  8  2  0  0  0
  8  9  1  0  0  0
  9 10  1  0  0  0
  9 21  1  0  0  0
 21 22  2  0  0  0
 21 26  1  0  0  0
 22 23  1  0  0  0
 23 24  2  0  0  0
 24 25  1  0  0  0
 24 27  1  0  0  0
 25 26  2  0  0  0
 27 28  1  0  0  0
  9 12  1  0  0  0
 11 13  1  0  0  0
M  CHG 1   9   1
M  END
> <minimizedAffinity>
-7.75704

$$$$
835


 27 30  0  0  0  0  0  0  0  0999 V2000
   14.8160   30.4901   72.9264 C   0  0  0  0  0  0  0  0  0  0  0  0
   13.9290   30.3430   74.0603 N   0  0  0  0  0  0  0  0  0  0  0  0
   12.6118   30.7950   74.4557 C   0  0  0  0  0  0  0  0  0  0  0  0
   11.8701   29.7548   75.2700 C   0  0  0  0  0  0  0  0  0  0  0  0
   12.6897   29.4312   76.4737 C   0  0  0  0  0  0  0  0  0  0  0  0
   14.0831   29.0963   76.1109 C   0  0  0  0  0  0  0  0  0  0  0  0
   14.6511   29.5280   74.9810 C   0  0  0  0  0  0  0  0  0  0  0  0
   15.9695   29.3014   74.5352 N   0  0  0  0  0  0  0  0  0  0  0  0
   16.1697   30.4021   73.5702 C   0  0  0  0  0  0  0  0  0  0  0  0
   14.7031   29.4445   72.0159 O   0  0  0  0  0  0  0  0  0  0  0  0
   16.6801   29.5448   75.3010 H   0  0  0  0  0  0  0  0  0  0  0  0
   15.5393   29.4350   71.4907 H   0  0  0  0  0  0  0  0  0  0  0  0
   14.1558   35.8805   69.9282 Br  0  0  0  0  0  0  0  0  0  0  0  0
   14.3415   34.2021   70.8428 C   0  0  0  0  0  0  0  0  0  0  0  0
   15.3844   34.0285   71.7246 C   0  0  0  0  0  0  0  0  0  0  0  0
   15.5062   32.8080   72.3879 C   0  0  0  0  0  0  0  0  0  0  0  0
   14.6236   31.7666   72.1963 C   0  0  0  0  0  0  0  0  0  0  0  0
   13.5848   31.9662   71.3069 C   0  0  0  0  0  0  0  0  0  0  0  0
   13.4501   33.1704   70.6420 C   0  0  0  0  0  0  0  0  0  0  0  0
   16.2410   28.0674   73.9539 C   0  0  0  0  0  0  0  0  0  0  0  0
   17.3983   27.7857   73.2715 C   0  0  0  0  0  0  0  0  0  0  0  0
   17.5968   26.5290   72.6954 C   0  0  0  0  0  0  0  0  0  0  0  0
   16.6430   25.5493   72.7980 C   0  0  0  0  0  0  0  0  0  0  0  0
   15.4789   25.8222   73.4829 C   0  0  0  0  0  0  0  0  0  0  0  0
   15.2902   27.0587   74.0471 C   0  0  0  0  0  0  0  0  0  0  0  0
   18.4114   28.7112   73.1212 O   0  0  0  0  0  0  0  0  0  0  0  0
   19.5351   28.6900   73.9372 C   0  0  0  0  0  0  0  0  0  0  0  0
 13 14  1  0  0  0
 14 15  2  0  0  0
 14 19  1  0  0  0
 15 16  1  0  0  0
 16 17  2  0  0  0
 17 18  1  0  0  0
 17  1  1  0  0  0
 18 19  2  0  0  0
  1  2  1  0  0  0
  1  9  1  0  0  0
  1 10  1  0  0  0
  2  3  1  0  0  0
  2  7  1  0  0  0
  3  4  1  0  0  0
  4  5  1  0  0  0
  5  6  1  0  0  0
  6  7  2  0  0  0
  7  8  1  0  0  0
  8  9  1  0  0  0
  8 20  1  0  0  0
 20 21  2  0  0  0
 20 25  1  0  0  0
 21 22  1  0  0  0
 21 26  1  0  0  0
 22 23  2  0  0  0
 23 24  1  0  0  0
 24 25  2  0  0  0
 26 27  1  0  0  0
  8 11  1  0  0  0
 10 12  1  0  0  0
M  CHG 1   8   1
M  END
> <minimizedAffinity>
-7.41387

$$$$
836


 27 30  0  0  0  0  0  0  0  0999 V2000
   21.2825   36.1063   69.9866 C   0  0  0  0  0  0  0  0  0  0  0  0
   21.7952   34.8875   69.4115 N   0  0  0  0  0  0  0  0  0  0  0  0
   21.9216   34.3403   68.0675 C   0  0  0  0  0  0  0  0  0  0  0  0
   23.0680   33.4265   67.8714 C   0  0  0  0  0  0  0  0  0  0  0  0
   24.0031   33.2863   69.0464 C   0  0  0  0  0  0  0  0  0  0  0  0
   23.3211   33.3397   70.3361 C   0  0  0  0  0  0  0  0  0  0  0  0
   22.2621   34.1101   70.5038 C   0  0  0  0  0  0  0  0  0  0  0  0
   21.4097   34.3612   71.6167 N   0  0  0  0  0  0  0  0  0  0  0  0
   20.8878   35.6714   71.3791 C   0  0  0  0  0  0  0  0  0  0  0  0
   22.3529   37.0232   70.0308 O   0  0  0  0  0  0  0  0  0  0  0  0
   22.0254   34.3580   72.4744 H   0  0  0  0  0  0  0  0  0  0  0  0
   22.8942   36.8434   69.2234 H   0  0  0  0  0  0  0  0  0  0  0  0
   16.5272   38.7033   66.9587 Br  0  0  0  0  0  0  0  0  0  0  0  0
   17.9955   37.9079   67.8821 C   0  0  0  0  0  0  0  0  0  0  0  0
   17.8952   37.5134   69.2028 C   0  0  0  0  0  0  0  0  0  0  0  0
   18.9665   36.9376   69.8541 C   0  0  0  0  0  0  0  0  0  0  0  0
   20.1842   36.7213   69.2445 C   0  0  0  0  0  0  0  0  0  0  0  0
   20.2752   37.1220   67.9170 C   0  0  0  0  0  0  0  0  0  0  0  0
   19.2059   37.6994   67.2571 C   0  0  0  0  0  0  0  0  0  0  0  0
   20.4668   33.3458   71.7046 C   0  0  0  0  0  0  0  0  0  0  0  0
   20.4763   32.4674   72.7627 C   0  0  0  0  0  0  0  0  0  0  0  0
   19.5220   31.4406   72.8492 C   0  0  0  0  0  0  0  0  0  0  0  0
   18.5569   31.2761   71.8956 C   0  0  0  0  0  0  0  0  0  0  0  0
   18.5498   32.1769   70.8143 C   0  0  0  0  0  0  0  0  0  0  0  0
   19.5008   33.1748   70.7582 C   0  0  0  0  0  0  0  0  0  0  0  0
   17.5809   30.2816   71.9181 O   0  0  0  0  0  0  0  0  0  0  0  0
   16.2912   30.3782   71.4074 C   0  0  0  0  0  0  0  0  0  0  0  0
 13 14  1  0  0  0
 14 15  2  0  0  0
 14 19  1  0  0  0
 15 16  1  0  0  0
 16 17  2  0  0  0
 17 18  1  0  0  0
 17  1  1  0  0  0
 18 19  2  0  0  0
  1  2  1  0  0  0
  1  9  1  0  0  0
  1 10  1  0  0  0
  2  3  1  0  0  0
  2  7  1  0  0  0
  3  4  1  0  0  0
  4  5  1  0  0  0
  5  6  1  0  0  0
  6  7  2  0  0  0
  7  8  1  0  0  0
  8  9  1  0  0  0
  8 20  1  0  0  0
 20 21  2  0  0  0
 20 25  1  0  0  0
 21 22  1  0  0  0
 22 23  2  0  0  0
 23 24  1  0  0  0
 23 26  1  0  0  0
 24 25  2  0  0  0
 26 27  1  0  0  0
  8 11  1  0  0  0
 10 12  1  0  0  0
M  CHG 1   8   1
M  END
> <minimizedAffinity>
-8.06412

$$$$
847


 31 34  0  0  0  0  0  0  0  0999 V2000
   20.3686   36.3635   70.4069 C   0  0  0  0  0  0  0  0  0  0  0  0
   20.8092   36.5664   69.1545 N   0  0  0  0  0  0  0  0  0  0  0  0
   19.7967   37.0868   68.4365 C   0  0  0  0  0  0  0  0  0  0  0  0
   18.7049   37.2093   69.2622 N   0  0  0  0  0  0  0  0  0  0  0  0
   19.0913   36.7616   70.4442 N   0  0  0  0  0  0  0  0  0  0  0  0
   19.6871   37.5115   67.0376 C   0  0  0  0  0  0  0  0  0  0  0  0
   20.5087   36.7100   66.0636 C   0  0  0  0  0  0  0  0  0  0  0  0
   21.9785   36.7731   66.3228 C   0  0  0  0  0  0  0  0  0  0  0  0
   22.2923   35.7200   67.3603 C   0  0  0  0  0  0  0  0  0  0  0  0
   22.1443   36.2518   68.7643 C   0  0  0  0  0  0  0  0  0  0  0  0
   21.0868   35.8053   71.5978 C   0  0  0  0  0  0  0  0  0  0  0  0
   21.0151   34.3598   71.6645 N   0  0  0  0  0  0  0  0  0  0  0  0
   21.8446   33.7690   71.4362 H   0  0  0  0  0  0  0  0  0  0  0  0
   15.9424   31.3948   73.2900 Br  0  0  0  0  0  0  0  0  0  0  0  0
   17.5221   32.3220   72.7829 C   0  0  0  0  0  0  0  0  0  0  0  0
   18.3036   31.8511   71.7326 C   0  0  0  0  0  0  0  0  0  0  0  0
   19.4422   32.5185   71.3681 C   0  0  0  0  0  0  0  0  0  0  0  0
   19.8219   33.6602   72.0396 C   0  0  0  0  0  0  0  0  0  0  0  0
   19.0359   34.1130   73.0780 C   0  0  0  0  0  0  0  0  0  0  0  0
   17.8863   33.4665   73.4696 C   0  0  0  0  0  0  0  0  0  0  0  0
   17.4342   37.7452   68.9750 C   0  0  0  0  0  0  0  0  0  0  0  0
   16.3447   37.4477   69.8670 C   0  0  0  0  0  0  0  0  0  0  0  0
   16.1123   38.4332   70.7351 O   0  0  0  0  0  0  0  0  0  0  0  0
   15.4541   36.3340   70.0322 C   0  0  0  0  0  0  0  0  0  0  0  0
   15.9551   35.0627   70.3879 C   0  0  0  0  0  0  0  0  0  0  0  0
   15.1518   33.9654   70.5529 C   0  0  0  0  0  0  0  0  0  0  0  0
   13.7941   34.0546   70.3757 C   0  0  0  0  0  0  0  0  0  0  0  0
   13.2670   35.2687   70.0306 C   0  0  0  0  0  0  0  0  0  0  0  0
   14.1044   36.3876   69.8640 C   0  0  0  0  0  0  0  0  0  0  0  0
   12.9780   32.9376   70.5445 O   0  0  0  0  0  0  0  0  0  0  0  0
   13.4906   31.6704   70.8754 C   0  0  0  0  0  0  0  0  0  0  0  0
 14 15  1  0  0  0
 15 16  2  0  0  0
 15 20  1  0  0  0
 16 17  1  0  0  0
 17 18  2  0  0  0
 18 19  1  0  0  0
 18 12  1  0  0  0
 19 20  2  0  0  0
 12 11  1  0  0  0
 11  1  1  0  0  0
  1  2  1  0  0  0
  1  5  2  0  0  0
  2  3  1  0  0  0
  2 10  1  0  0  0
  3  4  2  0  0  0
  3  6  1  0  0  0
  4  5  1  0  0  0
  4 21  1  0  0  0
 21 22  1  0  0  0
 22 23  2  0  0  0
 22 24  1  0  0  0
 24 25  2  0  0  0
 24 29  1  0  0  0
 25 26  1  0  0  0
 26 27  2  0  0  0
 27 28  1  0  0  0
 27 30  1  0  0  0
 28 29  2  0  0  0
 30 31  1  0  0  0
  6  7  1  0  0  0
  7  8  1  0  0  0
  8  9  1  0  0  0
  9 10  1  0  0  0
 12 13  1  0  0  0
M  END
> <minimizedAffinity>
-8.77966

$$$$
850


 29 32  0  0  0  0  0  0  0  0999 V2000
   15.1434   31.1791   73.1112 N   0  0  0  0  0  0  0  0  0  0  0  0
   14.4691   30.9870   71.8618 C   0  0  0  0  0  0  0  0  0  0  0  0
   15.6426   30.5218   71.0006 C   0  0  0  0  0  0  0  0  0  0  0  0
   16.7479   31.3757   71.4630 N   0  0  0  0  0  0  0  0  0  0  0  0
   17.9106   31.5583   70.6682 C   0  0  0  0  0  0  0  0  0  0  0  0
   18.9260   32.5019   71.2394 C   0  0  0  0  0  0  0  0  0  0  0  0
   18.2448   33.7787   71.6493 C   0  0  0  0  0  0  0  0  0  0  0  0
   18.0566   33.6602   73.1688 C   0  0  0  0  0  0  0  0  0  0  0  0
   16.8506   32.8492   73.4302 C   0  0  0  0  0  0  0  0  0  0  0  0
   16.3165   31.8764   72.7273 C   0  0  0  0  0  0  0  0  0  0  0  0
   13.3791   30.1760   71.8517 O   0  0  0  0  0  0  0  0  0  0  0  0
   14.4957   31.7677   73.7230 H   0  0  0  0  0  0  0  0  0  0  0  0
   13.0864   29.9254   70.9562 H   0  0  0  0  0  0  0  0  0  0  0  0
   16.2220   26.1955   76.5109 Br  0  0  0  0  0  0  0  0  0  0  0  0
   15.9037   27.7648   75.4574 C   0  0  0  0  0  0  0  0  0  0  0  0
   14.8137   28.5739   75.6874 C   0  0  0  0  0  0  0  0  0  0  0  0
   14.5881   29.6985   74.9072 C   0  0  0  0  0  0  0  0  0  0  0  0
   15.4389   30.0636   73.8657 C   0  0  0  0  0  0  0  0  0  0  0  0
   16.5023   29.2306   73.6808 C   0  0  0  0  0  0  0  0  0  0  0  0
   16.7533   28.0959   74.4477 C   0  0  0  0  0  0  0  0  0  0  0  0
   14.0357   32.2800   71.2585 C   0  0  0  0  0  0  0  0  0  0  0  0
   14.4166   32.7406   70.0338 C   0  0  0  0  0  0  0  0  0  0  0  0
   13.9634   33.9727   69.5174 C   0  0  0  0  0  0  0  0  0  0  0  0
   13.1073   34.7671   70.2412 C   0  0  0  0  0  0  0  0  0  0  0  0
   12.7170   34.3133   71.4779 C   0  0  0  0  0  0  0  0  0  0  0  0
   13.1622   33.1111   71.9784 C   0  0  0  0  0  0  0  0  0  0  0  0
   12.6465   35.9937   69.7345 O   0  0  0  0  0  0  0  0  0  0  0  0
   13.5366   37.0221   69.3711 C   0  0  0  0  0  0  0  0  0  0  0  0
   14.5548   37.3020   70.4312 C   0  0  0  0  0  0  0  0  0  0  0  0
 14 15  1  0  0  0
 15 16  2  0  0  0
 15 20  1  0  0  0
 16 17  1  0  0  0
 17 18  2  0  0  0
 18 19  1  0  0  0
 18  1  1  0  0  0
 19 20  2  0  0  0
  1  2  1  0  0  0
  1 10  1  0  0  0
  2  3  1  0  0  0
  2 11  1  0  0  0
  2 21  1  0  0  0
  3  4  1  0  0  0
  4  5  1  0  0  0
  4 10  1  0  0  0
  5  6  1  0  0  0
  6  7  1  0  0  0
  7  8  1  0  0  0
  8  9  1  0  0  0
  9 10  2  0  0  0
 21 22  2  0  0  0
 21 26  1  0  0  0
 22 23  1  0  0  0
 23 24  2  0  0  0
 24 25  1  0  0  0
 24 27  1  0  0  0
 25 26  2  0  0  0
 27 28  1  0  0  0
 28 29  1  0  0  0
  1 12  1  0  0  0
 11 13  1  0  0  0
M  CHG 1   1   1
M  END
> <minimizedAffinity>
-8.02585

$$$$
860


 29 32  0  0  0  0  0  0  0  0999 V2000
   13.9976   31.9980   70.7331 Br  0  0  0  0  0  0  0  0  0  0  0  0
   15.6434   32.8891   71.1402 C   0  0  0  0  0  0  0  0  0  0  0  0
   16.8544   32.2263   71.0989 C   0  0  0  0  0  0  0  0  0  0  0  0
   18.0349   32.8713   71.3923 C   0  0  0  0  0  0  0  0  0  0  0  0
   17.9478   34.2058   71.7299 C   0  0  0  0  0  0  0  0  0  0  0  0
   16.7404   34.8735   71.7730 C   0  0  0  0  0  0  0  0  0  0  0  0
   15.5609   34.2239   71.4782 C   0  0  0  0  0  0  0  0  0  0  0  0
   14.2624   34.9549   71.5277 C   0  0  0  0  0  0  0  0  0  0  0  0
   19.1556   34.8363   72.0227 O   0  0  0  0  0  0  0  0  0  0  0  0
   20.3398   34.1643   72.2926 C   0  0  0  0  0  0  0  0  0  0  0  0
   20.5233   32.8688   71.5769 C   0  0  0  0  0  0  0  0  0  0  0  0
   19.2774   32.0953   71.3257 C   0  0  0  0  0  0  0  0  0  0  0  0
   19.3095   31.4886   70.0465 O   0  0  0  0  0  0  0  0  0  0  0  0
   18.5852   31.8051   69.4682 H   0  0  0  0  0  0  0  0  0  0  0  0
   21.3561   32.0482   72.4627 N   0  0  0  0  0  0  0  0  0  0  0  0
   22.1938   31.1356   71.7635 C   0  0  0  0  0  0  0  0  0  0  0  0
   23.2375   30.6470   72.7799 C   0  0  0  0  0  0  0  0  0  0  0  0
   22.5373   29.9521   73.7511 O   0  0  0  0  0  0  0  0  0  0  0  0
   21.6044   30.7340   74.4222 C   0  0  0  0  0  0  0  0  0  0  0  0
   20.5897   31.3379   73.4403 C   0  0  0  0  0  0  0  0  0  0  0  0
   21.9658   32.7269   72.9724 H   0  0  0  0  0  0  0  0  0  0  0  0
   21.2971   33.0195   70.2831 C   0  0  0  0  0  0  0  0  0  0  0  0
   21.8695   34.3176   70.0983 N   0  0  0  0  0  0  0  0  0  0  0  0
   23.2623   34.2648   69.6931 C   0  0  0  0  0  0  0  0  0  0  0  0
   23.5590   35.2385   68.5627 C   0  0  0  0  0  0  0  0  0  0  0  0
   22.8588   34.9337   67.4072 O   0  0  0  0  0  0  0  0  0  0  0  0
   21.6012   34.4145   67.6990 C   0  0  0  0  0  0  0  0  0  0  0  0
   21.1688   35.0274   69.0153 C   0  0  0  0  0  0  0  0  0  0  0  0
   21.8176   34.9454   70.9147 H   0  0  0  0  0  0  0  0  0  0  0  0
  1  2  1  0  0  0
  2  3  2  0  0  0
  2  7  1  0  0  0
  3  4  1  0  0  0
  4  5  2  0  0  0
  4 12  1  0  0  0
  5  6  1  0  0  0
  5  9  1  0  0  0
  6  7  2  0  0  0
  7  8  1  0  0  0
  9 10  1  0  0  0
 10 11  1  0  0  0
 11 12  1  0  0  0
 11 15  1  0  0  0
 11 22  1  0  0  0
 12 13  1  0  0  0
 15 16  1  0  0  0
 15 20  1  0  0  0
 16 17  1  0  0  0
 17 18  1  0  0  0
 18 19  1  0  0  0
 19 20  1  0  0  0
 22 23  1  0  0  0
 23 24  1  0  0  0
 23 28  1  0  0  0
 24 25  1  0  0  0
 25 26  1  0  0  0
 26 27  1  0  0  0
 27 28  1  0  0  0
 13 14  1  0  0  0
 15 21  1  0  0  0
 23 29  1  0  0  0
M  CHG 1  15   1
M  CHG 1  23   1
M  END
> <minimizedAffinity>
-7.41313

$$$$
861


 32 35  0  0  0  0  0  0  0  0999 V2000
   17.0749   26.3849   72.5592 Br  0  0  0  0  0  0  0  0  0  0  0  0
   15.9698   27.6405   73.4948 C   0  0  0  0  0  0  0  0  0  0  0  0
   15.7798   28.9008   72.9801 C   0  0  0  0  0  0  0  0  0  0  0  0
   14.9779   29.8511   73.6339 C   0  0  0  0  0  0  0  0  0  0  0  0
   14.3935   29.4521   74.8160 C   0  0  0  0  0  0  0  0  0  0  0  0
   14.5681   28.1954   75.3543 C   0  0  0  0  0  0  0  0  0  0  0  0
   15.3580   27.2816   74.6948 C   0  0  0  0  0  0  0  0  0  0  0  0
   15.6068   25.9040   75.1928 C   0  0  0  0  0  0  0  0  0  0  0  0
   13.7453   27.6707   76.9938 Br  0  0  0  0  0  0  0  0  0  0  0  0
   14.8074   31.1686   73.0572 C   0  0  0  0  0  0  0  0  0  0  0  0
   14.0233   31.9747   73.5690 O   0  0  0  0  0  0  0  0  0  0  0  0
   15.5764   31.5390   71.8560 C   0  0  0  0  0  0  0  0  0  0  0  0
   15.7490   30.2826   71.0309 C   0  0  0  0  0  0  0  0  0  0  0  0
   16.3868   29.2664   71.7825 O   0  0  0  0  0  0  0  0  0  0  0  0
   14.9521   32.6430   71.0577 C   0  0  0  0  0  0  0  0  0  0  0  0
   14.1319   33.5408   71.7755 N   0  0  0  0  0  0  0  0  0  0  0  0
   14.7763   34.8164   71.8803 C   0  0  0  0  0  0  0  0  0  0  0  0
   14.8528   35.5940   70.6155 C   0  0  0  0  0  0  0  0  0  0  0  0
   14.0797   35.0744   69.4660 C   0  0  0  0  0  0  0  0  0  0  0  0
   12.9380   34.1878   69.7782 C   0  0  0  0  0  0  0  0  0  0  0  0
   12.8293   33.7794   71.2178 C   0  0  0  0  0  0  0  0  0  0  0  0
   16.3262   35.6517   70.1957 C   0  0  0  0  0  0  0  0  0  0  0  0
   13.9831   33.1877   72.7546 H   0  0  0  0  0  0  0  0  0  0  0  0
   16.9427   31.9664   72.3512 C   0  0  0  0  0  0  0  0  0  0  0  0
   18.0231   31.6973   71.4648 N   0  0  0  0  0  0  0  0  0  0  0  0
   19.1222   31.0576   72.1853 C   0  0  0  0  0  0  0  0  0  0  0  0
   20.2261   32.0165   72.5227 C   0  0  0  0  0  0  0  0  0  0  0  0
   19.6336   33.3270   72.9892 C   0  0  0  0  0  0  0  0  0  0  0  0
   18.9392   33.9561   71.8214 C   0  0  0  0  0  0  0  0  0  0  0  0
   18.5807   32.8737   70.8335 C   0  0  0  0  0  0  0  0  0  0  0  0
   20.9763   31.4304   73.7265 C   0  0  0  0  0  0  0  0  0  0  0  0
   17.7365   31.0415   70.7332 H   0  0  0  0  0  0  0  0  0  0  0  0
  1  2  1  0  0  0
  2  3  2  0  0  0
  2  7  1  0  0  0
  3  4  1  0  0  0
  3 14  1  0  0  0
  4  5  2  0  0  0
  4 10  1  0  0  0
  5  6  1  0  0  0
  6  7  2  0  0  0
  6  9  1  0  0  0
  7  8  1  0  0  0
 10 11  2  0  0  0
 10 12  1  0  0  0
 12 13  1  0  0  0
 12 15  1  0  0  0
 12 24  1  0  0  0
 13 14  1  0  0  0
 15 16  1  0  0  0
 16 17  1  0  0  0
 16 21  1  0  0  0
 17 18  1  0  0  0
 18 19  1  0  0  0
 18 22  1  0  0  0
 19 20  1  0  0  0
 20 21  1  0  0  0
 24 25  1  0  0  0
 25 26  1  0  0  0
 25 30  1  0  0  0
 26 27  1  0  0  0
 27 28  1  0  0  0
 27 31  1  0  0  0
 28 29  1  0  0  0
 29 30  1  0  0  0
 16 23  1  0  0  0
 25 32  1  0  0  0
M  CHG 1  16   1
M  CHG 1  25   1
M  END
> <minimizedAffinity>
-7.54214

$$$$
862


 30 33  0  0  0  0  0  0  0  0999 V2000
   21.2221   37.5026   71.2069 Br  0  0  0  0  0  0  0  0  0  0  0  0
   21.3526   35.7365   70.5542 C   0  0  0  0  0  0  0  0  0  0  0  0
   20.5392   34.7823   71.1146 C   0  0  0  0  0  0  0  0  0  0  0  0
   20.5456   33.4361   70.7117 C   0  0  0  0  0  0  0  0  0  0  0  0
   21.4234   33.0479   69.6919 C   0  0  0  0  0  0  0  0  0  0  0  0
   22.2331   34.0151   69.1397 C   0  0  0  0  0  0  0  0  0  0  0  0
   22.2105   35.3353   69.5513 C   0  0  0  0  0  0  0  0  0  0  0  0
   23.1081   36.3678   68.9293 C   0  0  0  0  0  0  0  0  0  0  0  0
   23.4259   33.4857   67.7506 Br  0  0  0  0  0  0  0  0  0  0  0  0
   19.6685   32.4704   71.3455 C   0  0  0  0  0  0  0  0  0  0  0  0
   20.0993   31.2928   71.4235 O   0  0  0  0  0  0  0  0  0  0  0  0
   18.3653   32.9593   71.8342 C   0  0  0  0  0  0  0  0  0  0  0  0
   18.8643   34.1241   72.8027 C   0  0  0  0  0  0  0  0  0  0  0  0
   19.6363   35.0509   72.1270 O   0  0  0  0  0  0  0  0  0  0  0  0
   17.5941   32.0633   72.6727 C   0  0  0  0  0  0  0  0  0  0  0  0
   16.3789   31.4527   72.4064 N   0  0  0  0  0  0  0  0  0  0  0  0
   15.3902   31.2450   73.3905 C   0  0  0  0  0  0  0  0  0  0  0  0
   14.4959   30.0427   73.1173 C   0  0  0  0  0  0  0  0  0  0  0  0
   15.2560   28.7566   73.1857 C   0  0  0  0  0  0  0  0  0  0  0  0
   16.6436   29.0033   72.6787 C   0  0  0  0  0  0  0  0  0  0  0  0
   16.6275   30.1588   71.7325 C   0  0  0  0  0  0  0  0  0  0  0  0
   15.8504   31.9673   71.5840 H   0  0  0  0  0  0  0  0  0  0  0  0
   17.6193   33.6028   70.7284 C   0  0  0  0  0  0  0  0  0  0  0  0
   16.7018   34.6335   70.9798 N   0  0  0  0  0  0  0  0  0  0  0  0
   17.0389   35.7704   70.1125 C   0  0  0  0  0  0  0  0  0  0  0  0
   16.2994   37.0306   70.5113 C   0  0  0  0  0  0  0  0  0  0  0  0
   14.8133   36.7359   70.2523 C   0  0  0  0  0  0  0  0  0  0  0  0
   14.4996   35.5734   71.1659 C   0  0  0  0  0  0  0  0  0  0  0  0
   15.3079   34.3628   70.6689 C   0  0  0  0  0  0  0  0  0  0  0  0
   16.6772   35.0547   71.9310 H   0  0  0  0  0  0  0  0  0  0  0  0
  1  2  1  0  0  0
  2  3  2  0  0  0
  2  7  1  0  0  0
  3  4  1  0  0  0
  3 14  1  0  0  0
  4  5  2  0  0  0
  4 10  1  0  0  0
  5  6  1  0  0  0
  6  7  2  0  0  0
  6  9  1  0  0  0
  7  8  1  0  0  0
 10 11  2  0  0  0
 10 12  1  0  0  0
 12 13  1  0  0  0
 12 15  1  0  0  0
 12 23  1  0  0  0
 13 14  1  0  0  0
 15 16  1  0  0  0
 16 17  1  0  0  0
 16 21  1  0  0  0
 17 18  1  0  0  0
 18 19  1  0  0  0
 19 20  1  0  0  0
 20 21  1  0  0  0
 23 24  1  0  0  0
 24 25  1  0  0  0
 24 29  1  0  0  0
 25 26  1  0  0  0
 26 27  1  0  0  0
 27 28  1  0  0  0
 28 29  1  0  0  0
 16 22  1  0  0  0
 24 30  1  0  0  0
M  CHG 1  16   1
M  CHG 1  24   1
M  END
> <minimizedAffinity>
-8.09573

$$$$
865


 30 33  0  0  0  0  0  0  0  0999 V2000
   20.1434   38.2456   66.5477 C   0  0  0  0  0  0  0  0  0  0  0  0
   20.8603   39.2814   66.0591 N   0  0  0  0  0  0  0  0  0  0  0  0
   22.1976   39.2130   65.8449 C   0  0  0  0  0  0  0  0  0  0  0  0
   22.7895   38.0553   66.1452 N   0  0  0  0  0  0  0  0  0  0  0  0
   22.1408   36.9841   66.6342 C   0  0  0  0  0  0  0  0  0  0  0  0
   20.8160   37.1148   66.8237 N   0  0  0  0  0  0  0  0  0  0  0  0
   22.8392   35.7824   66.9311 N   0  0  0  0  0  0  0  0  0  0  0  0
   22.1198   34.6892   67.5563 C   0  0  0  0  0  0  0  0  0  0  0  0
   23.0709   33.5420   67.8132 C   0  0  0  0  0  0  0  0  0  0  0  0
   23.8368   33.1918   66.7378 O   0  0  0  0  0  0  0  0  0  0  0  0
   24.3534   34.2145   65.9889 C   0  0  0  0  0  0  0  0  0  0  0  0
   24.2290   35.5766   66.6505 C   0  0  0  0  0  0  0  0  0  0  0  0
   22.9035   40.3350   65.3277 N   0  0  0  0  0  0  0  0  0  0  0  0
   24.2325   40.7187   65.7433 C   0  0  0  0  0  0  0  0  0  0  0  0
   24.0791   42.1804   66.1599 C   0  0  0  0  0  0  0  0  0  0  0  0
   23.8120   42.9220   65.0691 O   0  0  0  0  0  0  0  0  0  0  0  0
   22.8882   42.5194   64.1875 C   0  0  0  0  0  0  0  0  0  0  0  0
   22.2944   41.1735   64.3218 C   0  0  0  0  0  0  0  0  0  0  0  0
   18.7507   38.3869   66.7461 N   0  0  0  0  0  0  0  0  0  0  0  0
   18.2331   39.1010   66.2077 H   0  0  0  0  0  0  0  0  0  0  0  0
   17.3876   38.0331   68.6383 C   0  0  0  0  0  0  0  0  0  0  0  0
   18.0781   37.5805   67.6537 N   0  0  0  0  0  0  0  0  0  0  0  0
   14.7147   34.5341   72.1598 F   0  0  0  0  0  0  0  0  0  0  0  0
   15.3743   35.3717   71.3126 C   0  0  0  0  0  0  0  0  0  0  0  0
   16.7428   35.3108   71.1499 C   0  0  0  0  0  0  0  0  0  0  0  0
   17.3909   36.1697   70.2868 C   0  0  0  0  0  0  0  0  0  0  0  0
   16.7076   37.1237   69.5513 C   0  0  0  0  0  0  0  0  0  0  0  0
   15.3402   37.1770   69.7204 C   0  0  0  0  0  0  0  0  0  0  0  0
   14.6837   36.3152   70.5882 C   0  0  0  0  0  0  0  0  0  0  0  0
   17.7108   34.0043   72.1519 Br  0  0  0  0  0  0  0  0  0  0  0  0
 23 24  1  0  0  0
 24 25  2  0  0  0
 24 29  1  0  0  0
 25 26  1  0  0  0
 25 30  1  0  0  0
 26 27  2  0  0  0
 27 28  1  0  0  0
 27 21  1  0  0  0
 28 29  2  0  0  0
 21 22  2  0  0  0
 22 19  1  0  0  0
 19  1  1  0  0  0
  1  2  2  0  0  0
  1  6  1  0  0  0
  2  3  1  0  0  0
  3  4  2  0  0  0
  3 13  1  0  0  0
  4  5  1  0  0  0
  5  6  2  0  0  0
  5  7  1  0  0  0
  7  8  1  0  0  0
  7 12  1  0  0  0
  8  9  1  0  0  0
  9 10  1  0  0  0
 10 11  1  0  0  0
 11 12  1  0  0  0
 13 14  1  0  0  0
 13 18  1  0  0  0
 14 15  1  0  0  0
 15 16  1  0  0  0
 16 17  1  0  0  0
 17 18  1  0  0  0
 19 20  1  0  0  0
M  END
> <minimizedAffinity>
-8.82374

$$$$
872


 32 35  0  0  0  0  0  0  0  0999 V2000
   22.1696   34.2301   69.3170 N   0  0  0  0  0  0  0  0  0  0  0  0
   22.4668   33.0673   68.7653 N   0  0  0  0  0  0  0  0  0  0  0  0
   22.9049   33.3445   67.5496 N   0  0  0  0  0  0  0  0  0  0  0  0
   22.8893   34.6733   67.3187 C   0  0  0  0  0  0  0  0  0  0  0  0
   22.4200   35.2255   68.4496 C   0  0  0  0  0  0  0  0  0  0  0  0
   22.4100   36.5775   68.1977 C   0  0  0  0  0  0  0  0  0  0  0  0
   22.0313   37.4556   69.0184 O   0  0  0  0  0  0  0  0  0  0  0  0
   22.8556   36.8595   66.9567 N   0  0  0  0  0  0  0  0  0  0  0  0
   23.1572   35.6743   66.4016 C   0  0  0  0  0  0  0  0  0  0  0  0
   23.6093   35.5118   65.2379 O   0  0  0  0  0  0  0  0  0  0  0  0
   22.3791   32.1022   69.1962 H   0  0  0  0  0  0  0  0  0  0  0  0
   23.2164   32.5961   66.8762 H   0  0  0  0  0  0  0  0  0  0  0  0
   22.9691   38.1746   66.3853 C   0  0  0  0  0  0  0  0  0  0  0  0
   21.8504   38.9644   66.2049 C   0  0  0  0  0  0  0  0  0  0  0  0
   21.9116   40.2306   65.6610 C   0  0  0  0  0  0  0  0  0  0  0  0
   23.1579   40.6980   65.2918 C   0  0  0  0  0  0  0  0  0  0  0  0
   24.3139   39.9513   65.4490 C   0  0  0  0  0  0  0  0  0  0  0  0
   24.1823   38.6922   65.9989 C   0  0  0  0  0  0  0  0  0  0  0  0
   23.2188   42.4638   64.5368 Br  0  0  0  0  0  0  0  0  0  0  0  0
   21.6570   34.3630   70.6632 C   0  0  0  0  0  0  0  0  0  0  0  0
   19.3335   35.1189   71.2363 N   0  0  0  0  0  0  0  0  0  0  0  0
   20.1547   34.1653   70.6411 C   0  0  0  0  0  0  0  0  0  0  0  0
   19.7385   33.1444   70.0842 O   0  0  0  0  0  0  0  0  0  0  0  0
   19.8396   35.9587   71.6825 H   0  0  0  0  0  0  0  0  0  0  0  0
   17.8913   36.6958   69.5811 F   0  0  0  0  0  0  0  0  0  0  0  0
   17.1946   35.8844   70.4242 C   0  0  0  0  0  0  0  0  0  0  0  0
   17.9322   35.0593   71.2891 C   0  0  0  0  0  0  0  0  0  0  0  0
   17.2408   34.2466   72.1324 C   0  0  0  0  0  0  0  0  0  0  0  0
   15.8308   34.2007   72.1720 C   0  0  0  0  0  0  0  0  0  0  0  0
   15.1451   35.0241   71.3089 C   0  0  0  0  0  0  0  0  0  0  0  0
   15.8241   35.8565   70.4439 C   0  0  0  0  0  0  0  0  0  0  0  0
   13.7920   35.0270   71.2972 F   0  0  0  0  0  0  0  0  0  0  0  0
 25 26  1  0  0  0
 26 27  2  0  0  0
 26 31  1  0  0  0
 27 28  1  0  0  0
 27 21  1  0  0  0
 28 29  2  0  0  0
 29 30  1  0  0  0
 30 31  2  0  0  0
 30 32  1  0  0  0
 21 22  1  0  0  0
 22 23  2  0  0  0
 22 20  1  0  0  0
 20  1  1  0  0  0
  1  2  1  0  0  0
  1  5  1  0  0  0
  2  3  1  0  0  0
  3  4  1  0  0  0
  4  5  2  0  0  0
  4  9  1  0  0  0
  5  6  1  0  0  0
  6  7  2  0  0  0
  6  8  1  0  0  0
  8  9  1  0  0  0
  8 13  1  0  0  0
  9 10  2  0  0  0
 13 14  2  0  0  0
 13 18  1  0  0  0
 14 15  1  0  0  0
 15 16  2  0  0  0
 16 17  1  0  0  0
 16 19  1  0  0  0
 17 18  2  0  0  0
 21 24  1  0  0  0
  2 11  1  0  0  0
  3 12  1  0  0  0
M  END
> <minimizedAffinity>
-9.27056

$$$$
873


 32 35  0  0  0  0  0  0  0  0999 V2000
   19.7935   35.1279   70.0316 C   0  0  0  0  0  0  0  0  0  0  0  0
   20.3198   34.9808   71.3795 N   0  0  0  0  0  0  0  0  0  0  0  0
   20.8025   36.3145   71.6463 C   0  0  0  0  0  0  0  0  0  0  0  0
   20.8642   36.9222   72.7476 O   0  0  0  0  0  0  0  0  0  0  0  0
   21.2491   36.9244   70.3620 C   0  0  0  0  0  0  0  0  0  0  0  0
   21.7273   38.0241   70.0894 O   0  0  0  0  0  0  0  0  0  0  0  0
   20.9728   35.8268   69.3892 C   0  0  0  0  0  0  0  0  0  0  0  0
   21.6146   35.5817   68.2732 C   0  0  0  0  0  0  0  0  0  0  0  0
   21.2046   34.5000   67.4676 O   0  0  0  0  0  0  0  0  0  0  0  0
   17.3225   34.8114   71.4870 F   0  0  0  0  0  0  0  0  0  0  0  0
   17.4571   35.8123   70.6306 C   0  0  0  0  0  0  0  0  0  0  0  0
   18.6234   36.0143   69.9214 C   0  0  0  0  0  0  0  0  0  0  0  0
   18.6105   37.0929   69.0723 C   0  0  0  0  0  0  0  0  0  0  0  0
   17.5320   37.9474   68.9045 C   0  0  0  0  0  0  0  0  0  0  0  0
   16.3951   37.7149   69.6241 C   0  0  0  0  0  0  0  0  0  0  0  0
   16.3566   36.6601   70.4761 C   0  0  0  0  0  0  0  0  0  0  0  0
   22.7432   36.3923   67.8403 C   0  0  0  0  0  0  0  0  0  0  0  0
   22.5464   37.3451   66.8649 C   0  0  0  0  0  0  0  0  0  0  0  0
   23.5813   38.1318   66.3869 C   0  0  0  0  0  0  0  0  0  0  0  0
   24.8534   37.9713   66.8918 C   0  0  0  0  0  0  0  0  0  0  0  0
   25.0709   37.0353   67.8559 C   0  0  0  0  0  0  0  0  0  0  0  0
   24.0125   36.2422   68.3329 C   0  0  0  0  0  0  0  0  0  0  0  0
   26.3137   39.0524   66.2457 Br  0  0  0  0  0  0  0  0  0  0  0  0
   20.4094   33.9215   72.2899 C   0  0  0  0  0  0  0  0  0  0  0  0
   20.2520   32.5161   71.8318 C   0  0  0  0  0  0  0  0  0  0  0  0
   18.9105   32.0132   71.9211 N   0  0  0  0  0  0  0  0  0  0  0  0
   18.9257   30.7661   72.6575 C   0  0  0  0  0  0  0  0  0  0  0  0
   17.5133   30.2563   72.8803 C   0  0  0  0  0  0  0  0  0  0  0  0
   16.9051   30.0631   71.6547 O   0  0  0  0  0  0  0  0  0  0  0  0
   16.9157   31.2403   70.9122 C   0  0  0  0  0  0  0  0  0  0  0  0
   18.3613   31.6507   70.5985 C   0  0  0  0  0  0  0  0  0  0  0  0
   18.2192   32.7021   72.2822 H   0  0  0  0  0  0  0  0  0  0  0  0
 10 11  1  0  0  0
 11 12  2  0  0  0
 11 16  1  0  0  0
 12 13  1  0  0  0
 12  1  1  0  0  0
 13 14  2  0  0  0
 14 15  1  0  0  0
 15 16  2  0  0  0
  1  2  1  0  0  0
  1  7  1  0  0  0
  2  3  1  0  0  0
  2 24  1  0  0  0
  3  4  2  0  0  0
  3  5  1  0  0  0
  5  6  2  0  0  0
  5  7  1  0  0  0
  7  8  2  0  0  0
  8  9  1  0  0  0
  8 17  1  0  0  0
 17 18  2  0  0  0
 17 22  1  0  0  0
 18 19  1  0  0  0
 19 20  2  0  0  0
 20 21  1  0  0  0
 20 23  1  0  0  0
 21 22  2  0  0  0
 24 25  1  0  0  0
 25 26  1  0  0  0
 26 27  1  0  0  0
 26 31  1  0  0  0
 27 28  1  0  0  0
 28 29  1  0  0  0
 29 30  1  0  0  0
 30 31  1  0  0  0
 26 32  1  0  0  0
M  CHG 1   9  -1
M  CHG 1  26   1
M  END
> <minimizedAffinity>
-7.94928

$$$$
874


 31 34  0  0  0  0  0  0  0  0999 V2000
   22.7813   33.9859   68.8446 N   0  0  0  0  0  0  0  0  0  0  0  0
   23.1516   32.9172   68.1733 N   0  0  0  0  0  0  0  0  0  0  0  0
   23.5267   33.2510   66.9471 N   0  0  0  0  0  0  0  0  0  0  0  0
   23.3935   34.5893   66.8181 C   0  0  0  0  0  0  0  0  0  0  0  0
   22.9405   35.0214   67.9771 C   0  0  0  0  0  0  0  0  0  0  0  0
   22.8024   36.3943   67.8470 C   0  0  0  0  0  0  0  0  0  0  0  0
   22.3928   37.1490   68.7552 O   0  0  0  0  0  0  0  0  0  0  0  0
   23.1691   36.8002   66.6181 N   0  0  0  0  0  0  0  0  0  0  0  0
   23.5375   35.6764   65.9762 C   0  0  0  0  0  0  0  0  0  0  0  0
   23.9492   35.6102   64.7973 O   0  0  0  0  0  0  0  0  0  0  0  0
   23.1412   31.9471   68.5818 H   0  0  0  0  0  0  0  0  0  0  0  0
   23.8680   32.5938   66.2040 H   0  0  0  0  0  0  0  0  0  0  0  0
   23.1610   38.1395   66.1237 C   0  0  0  0  0  0  0  0  0  0  0  0
   24.3047   38.7190   65.6101 C   0  0  0  0  0  0  0  0  0  0  0  0
   24.3143   40.0126   65.1271 C   0  0  0  0  0  0  0  0  0  0  0  0
   23.1714   40.7848   65.1399 C   0  0  0  0  0  0  0  0  0  0  0  0
   22.0176   40.2266   65.6489 C   0  0  0  0  0  0  0  0  0  0  0  0
   22.0292   38.9314   66.1268 C   0  0  0  0  0  0  0  0  0  0  0  0
   23.1551   42.5790   64.4779 Br  0  0  0  0  0  0  0  0  0  0  0  0
   22.3012   34.0799   70.2108 C   0  0  0  0  0  0  0  0  0  0  0  0
   20.1929   35.4192   70.4851 N   0  0  0  0  0  0  0  0  0  0  0  0
   20.8165   34.2058   70.2111 C   0  0  0  0  0  0  0  0  0  0  0  0
   20.1796   33.1712   69.9542 O   0  0  0  0  0  0  0  0  0  0  0  0
   20.8518   36.2409   70.6918 H   0  0  0  0  0  0  0  0  0  0  0  0
   19.1906   37.6266   69.1915 F   0  0  0  0  0  0  0  0  0  0  0  0
   18.3032   36.8313   69.8563 C   0  0  0  0  0  0  0  0  0  0  0  0
   18.7972   35.6986   70.5225 C   0  0  0  0  0  0  0  0  0  0  0  0
   17.8672   34.9309   71.1757 C   0  0  0  0  0  0  0  0  0  0  0  0
   16.5254   35.2751   71.1636 C   0  0  0  0  0  0  0  0  0  0  0  0
   16.0501   36.3766   70.5143 C   0  0  0  0  0  0  0  0  0  0  0  0
   16.9708   37.1566   69.8542 C   0  0  0  0  0  0  0  0  0  0  0  0
 25 26  1  0  0  0
 26 27  2  0  0  0
 26 31  1  0  0  0
 27 28  1  0  0  0
 27 21  1  0  0  0
 28 29  2  0  0  0
 29 30  1  0  0  0
 30 31  2  0  0  0
 21 22  1  0  0  0
 22 23  2  0  0  0
 22 20  1  0  0  0
 20  1  1  0  0  0
  1  2  1  0  0  0
  1  5  1  0  0  0
  2  3  1  0  0  0
  3  4  1  0  0  0
  4  5  2  0  0  0
  4  9  1  0  0  0
  5  6  1  0  0  0
  6  7  2  0  0  0
  6  8  1  0  0  0
  8  9  1  0  0  0
  8 13  1  0  0  0
  9 10  2  0  0  0
 13 14  2  0  0  0
 13 18  1  0  0  0
 14 15  1  0  0  0
 15 16  2  0  0  0
 16 17  1  0  0  0
 16 19  1  0  0  0
 17 18  2  0  0  0
 21 24  1  0  0  0
  2 11  1  0  0  0
  3 12  1  0  0  0
M  END
> <minimizedAffinity>
-9.24148

$$$$
886


 31 34  0  0  0  0  0  0  0  0999 V2000
   23.2032   36.9699   66.5947 N   0  0  0  0  0  0  0  0  0  0  0  0
   22.7819   36.4528   67.7612 C   0  0  0  0  0  0  0  0  0  0  0  0
   22.2730   37.1789   68.6579 O   0  0  0  0  0  0  0  0  0  0  0  0
   22.9778   35.0862   67.8280 C   0  0  0  0  0  0  0  0  0  0  0  0
   23.5368   34.7654   66.6644 C   0  0  0  0  0  0  0  0  0  0  0  0
   23.7482   33.4463   66.6866 N   0  0  0  0  0  0  0  0  0  0  0  0
   23.3253   32.9749   67.8447 N   0  0  0  0  0  0  0  0  0  0  0  0
   22.8388   33.9680   68.5826 N   0  0  0  0  0  0  0  0  0  0  0  0
   23.6800   35.9048   65.9016 C   0  0  0  0  0  0  0  0  0  0  0  0
   24.1634   36.0287   64.7403 O   0  0  0  0  0  0  0  0  0  0  0  0
   24.1839   32.9083   65.8876 H   0  0  0  0  0  0  0  0  0  0  0  0
   23.3574   31.9922   68.1502 H   0  0  0  0  0  0  0  0  0  0  0  0
   22.9213   42.3124   64.9320 F   0  0  0  0  0  0  0  0  0  0  0  0
   22.9942   41.0088   65.3346 C   0  0  0  0  0  0  0  0  0  0  0  0
   24.2091   40.3895   65.4165 C   0  0  0  0  0  0  0  0  0  0  0  0
   24.2947   39.0574   65.8285 C   0  0  0  0  0  0  0  0  0  0  0  0
   23.1754   38.3286   66.1615 C   0  0  0  0  0  0  0  0  0  0  0  0
   21.9586   38.9863   66.0675 C   0  0  0  0  0  0  0  0  0  0  0  0
   21.8625   40.2987   65.6629 C   0  0  0  0  0  0  0  0  0  0  0  0
   22.2712   33.9268   69.8991 C   0  0  0  0  0  0  0  0  0  0  0  0
   20.8224   34.1443   69.9720 C   0  0  0  0  0  0  0  0  0  0  0  0
   20.0889   33.1488   69.8739 O   0  0  0  0  0  0  0  0  0  0  0  0
   20.3023   35.4298   70.1479 N   0  0  0  0  0  0  0  0  0  0  0  0
   21.0036   36.2522   70.2280 H   0  0  0  0  0  0  0  0  0  0  0  0
   18.9526   35.8424   70.2414 C   0  0  0  0  0  0  0  0  0  0  0  0
   18.0066   35.0994   70.9063 C   0  0  0  0  0  0  0  0  0  0  0  0
   16.6641   35.4739   71.0186 C   0  0  0  0  0  0  0  0  0  0  0  0
   16.3064   36.6552   70.4197 C   0  0  0  0  0  0  0  0  0  0  0  0
   17.2314   37.4165   69.7497 C   0  0  0  0  0  0  0  0  0  0  0  0
   18.5420   37.0265   69.6539 C   0  0  0  0  0  0  0  0  0  0  0  0
   14.4712   37.2344   70.5359 Br  0  0  0  0  0  0  0  0  0  0  0  0
 13 14  1  0  0  0
 14 15  2  0  0  0
 14 19  1  0  0  0
 15 16  1  0  0  0
 16 17  2  0  0  0
 17 18  1  0  0  0
 17  1  1  0  0  0
 18 19  2  0  0  0
  1  2  1  0  0  0
  1  9  1  0  0  0
  2  3  2  0  0  0
  2  4  1  0  0  0
  4  5  2  0  0  0
  4  8  1  0  0  0
  5  6  1  0  0  0
  5  9  1  0  0  0
  6  7  1  0  0  0
  7  8  1  0  0  0
  8 20  1  0  0  0
 20 21  1  0  0  0
 21 22  2  0  0  0
 21 23  1  0  0  0
 23 25  1  0  0  0
 25 26  2  0  0  0
 25 30  1  0  0  0
 26 27  1  0  0  0
 27 28  2  0  0  0
 28 29  1  0  0  0
 28 31  1  0  0  0
 29 30  2  0  0  0
  9 10  2  0  0  0
  6 11  1  0  0  0
  7 12  1  0  0  0
 23 24  1  0  0  0
M  END
> <minimizedAffinity>
-9.11481

$$$$
892


 27 30  0  0  0  0  0  0  0  0999 V2000
   19.0763   33.4278   73.1500 C   0  0  0  0  0  0  0  0  0  0  0  0
   19.7262   34.7072   72.9766 N   0  0  0  0  0  0  0  0  0  0  0  0
   20.2994   35.0418   71.7083 C   0  0  0  0  0  0  0  0  0  0  0  0
   20.6438   36.5524   70.9192 S   0  0  0  0  0  0  0  0  0  0  0  0
   21.3113   35.9633   69.4711 C   0  0  0  0  0  0  0  0  0  0  0  0
   21.2493   34.6230   69.6342 C   0  0  0  0  0  0  0  0  0  0  0  0
   20.7324   34.1425   70.7774 C   0  0  0  0  0  0  0  0  0  0  0  0
   20.5346   32.7411   71.2455 C   0  0  0  0  0  0  0  0  0  0  0  0
   20.8731   31.7661   70.5339 O   0  0  0  0  0  0  0  0  0  0  0  0
   19.9606   32.4702   72.5073 N   0  0  0  0  0  0  0  0  0  0  0  0
   21.7956   33.8192   68.4602 C   0  0  0  0  0  0  0  0  0  0  0  0
   22.7353   34.6914   67.6933 C   0  0  0  0  0  0  0  0  0  0  0  0
   21.9167   35.8037   67.1853 N   0  0  0  0  0  0  0  0  0  0  0  0
   21.8366   36.7145   68.3078 C   0  0  0  0  0  0  0  0  0  0  0  0
   22.5191   36.4105   66.0222 C   0  0  0  0  0  0  0  0  0  0  0  0
   19.8057   35.4161   73.7388 H   0  0  0  0  0  0  0  0  0  0  0  0
   20.1615   31.5676   73.0086 H   0  0  0  0  0  0  0  0  0  0  0  0
   20.9538   35.4526   66.9994 H   0  0  0  0  0  0  0  0  0  0  0  0
   14.4062   30.9370   71.4305 I   0  0  0  0  0  0  0  0  0  0  0  0
   15.7049   32.5837   71.5925 C   0  0  0  0  0  0  0  0  0  0  0  0
   16.9044   32.4587   72.2951 C   0  0  0  0  0  0  0  0  0  0  0  0
   17.7814   33.5090   72.4247 C   0  0  0  0  0  0  0  0  0  0  0  0
   17.3971   34.7091   71.8097 C   0  0  0  0  0  0  0  0  0  0  0  0
   16.2168   34.8231   71.1225 C   0  0  0  0  0  0  0  0  0  0  0  0
   15.3535   33.7592   71.0046 C   0  0  0  0  0  0  0  0  0  0  0  0
   15.7292   36.4701   70.3013 Br  0  0  0  0  0  0  0  0  0  0  0  0
   17.2112   31.2469   72.8731 O   0  0  0  0  0  0  0  0  0  0  0  0
 19 20  1  0  0  0
 20 21  2  0  0  0
 20 25  1  0  0  0
 21 22  1  0  0  0
 21 27  1  0  0  0
 22 23  2  0  0  0
 22  1  1  0  0  0
 23 24  1  0  0  0
 24 25  2  0  0  0
 24 26  1  0  0  0
  1  2  1  0  0  0
  1 10  1  0  0  0
  2  3  1  0  0  0
  3  4  1  0  0  0
  3  7  2  0  0  0
  4  5  1  0  0  0
  5  6  2  0  0  0
  5 14  1  0  0  0
  6  7  1  0  0  0
  6 11  1  0  0  0
  7  8  1  0  0  0
  8  9  2  0  0  0
  8 10  1  0  0  0
 11 12  1  0  0  0
 12 13  1  0  0  0
 13 14  1  0  0  0
 13 15  1  0  0  0
  2 16  1  0  0  0
 10 17  1  0  0  0
 13 18  1  0  0  0
M  CHG 1  13   1
M  CHG 1  27  -1
M  END
> <minimizedAffinity>
-7.99327

$$$$
895


 28 31  0  0  0  0  0  0  0  0999 V2000
   19.6517   35.9381   70.5988 C   0  0  0  0  0  0  0  0  0  0  0  0
   18.7928   34.8024   70.9348 N   0  0  0  0  0  0  0  0  0  0  0  0
   17.3523   34.9505   70.9999 C   0  0  0  0  0  0  0  0  0  0  0  0
   16.1047   33.9579   71.6421 S   0  0  0  0  0  0  0  0  0  0  0  0
   14.7682   34.9313   71.2654 C   0  0  0  0  0  0  0  0  0  0  0  0
   15.3274   36.0148   70.6431 C   0  0  0  0  0  0  0  0  0  0  0  0
   16.6713   36.0175   70.5083 C   0  0  0  0  0  0  0  0  0  0  0  0
   17.5149   37.0710   69.8739 C   0  0  0  0  0  0  0  0  0  0  0  0
   17.0038   38.1194   69.3761 O   0  0  0  0  0  0  0  0  0  0  0  0
   18.9119   36.8975   69.8258 N   0  0  0  0  0  0  0  0  0  0  0  0
   14.2727   37.0299   70.2163 C   0  0  0  0  0  0  0  0  0  0  0  0
   13.1801   36.3225   69.4593 C   0  0  0  0  0  0  0  0  0  0  0  0
   12.7523   35.1030   70.0587 N   0  0  0  0  0  0  0  0  0  0  0  0
   13.2666   34.9327   71.4133 C   0  0  0  0  0  0  0  0  0  0  0  0
   13.3433   34.0051   69.2777 C   0  0  0  0  0  0  0  0  0  0  0  0
   19.1822   33.8630   71.1350 H   0  0  0  0  0  0  0  0  0  0  0  0
   19.4754   37.5096   69.1796 H   0  0  0  0  0  0  0  0  0  0  0  0
   11.7065   34.9741   70.0608 H   0  0  0  0  0  0  0  0  0  0  0  0
   22.9514   36.4823   66.1610 I   0  0  0  0  0  0  0  0  0  0  0  0
   22.2077   35.4682   67.8544 C   0  0  0  0  0  0  0  0  0  0  0  0
   22.7215   34.2322   68.1912 C   0  0  0  0  0  0  0  0  0  0  0  0
   22.2395   33.5501   69.3073 C   0  0  0  0  0  0  0  0  0  0  0  0
   21.2572   34.1493   70.0368 C   0  0  0  0  0  0  0  0  0  0  0  0
   20.7226   35.3917   69.7209 C   0  0  0  0  0  0  0  0  0  0  0  0
   21.2085   36.0452   68.6222 C   0  0  0  0  0  0  0  0  0  0  0  0
   23.7181   33.6570   67.4254 O   0  0  0  0  0  0  0  0  0  0  0  0
   22.7934   32.3106   69.5974 O   0  0  0  0  0  0  0  0  0  0  0  0
   22.2665   31.5728   70.6842 C   0  0  0  0  0  0  0  0  0  0  0  0
 19 20  1  0  0  0
 20 21  2  0  0  0
 20 25  1  0  0  0
 21 22  1  0  0  0
 21 26  1  0  0  0
 22 23  2  0  0  0
 22 27  1  0  0  0
 23 24  1  0  0  0
 24 25  2  0  0  0
 24  1  1  0  0  0
  1  2  1  0  0  0
  1 10  1  0  0  0
  2  3  1  0  0  0
  3  4  1  0  0  0
  3  7  2  0  0  0
  4  5  1  0  0  0
  5  6  2  0  0  0
  5 14  1  0  0  0
  6  7  1  0  0  0
  6 11  1  0  0  0
  7  8  1  0  0  0
  8  9  2  0  0  0
  8 10  1  0  0  0
 11 12  1  0  0  0
 12 13  1  0  0  0
 13 14  1  0  0  0
 13 15  1  0  0  0
 27 28  1  0  0  0
  2 16  1  0  0  0
 10 17  1  0  0  0
 13 18  1  0  0  0
M  CHG 1  13   1
M  CHG 1  26  -1
M  END
> <minimizedAffinity>
-8.90673

$$$$
906


 27 30  0  0  0  0  0  0  0  0999 V2000
   16.2872   35.8906   70.6910 C   0  0  0  0  0  0  0  0  0  0  0  0
   15.0667   36.1534   70.2389 N   0  0  0  0  0  0  0  0  0  0  0  0
   13.9861   35.3704   70.3948 C   0  0  0  0  0  0  0  0  0  0  0  0
   12.6899   35.3786   70.0604 N   0  0  0  0  0  0  0  0  0  0  0  0
   12.1005   34.3044   70.4996 O   0  0  0  0  0  0  0  0  0  0  0  0
   12.9651   33.5593   71.1273 N   0  0  0  0  0  0  0  0  0  0  0  0
   14.1583   34.1718   71.0958 C   0  0  0  0  0  0  0  0  0  0  0  0
   15.3513   33.8584   71.5676 N   0  0  0  0  0  0  0  0  0  0  0  0
   16.3961   34.6701   71.3863 C   0  0  0  0  0  0  0  0  0  0  0  0
   17.4313   34.0866   71.9684 N   0  0  0  0  0  0  0  0  0  0  0  0
   17.0392   32.9204   72.5103 N   0  0  0  0  0  0  0  0  0  0  0  0
   15.7306   32.7530   72.2699 C   0  0  0  0  0  0  0  0  0  0  0  0
   17.4281   36.7036   70.5328 N   0  0  0  0  0  0  0  0  0  0  0  0
   17.9151   37.0546   71.4316 H   0  0  0  0  0  0  0  0  0  0  0  0
   20.4781   35.7815   70.5971 I   0  0  0  0  0  0  0  0  0  0  0  0
   19.4013   36.8447   69.1242 C   0  0  0  0  0  0  0  0  0  0  0  0
   18.0338   37.1305   69.3338 C   0  0  0  0  0  0  0  0  0  0  0  0
   17.3196   37.8139   68.3915 C   0  0  0  0  0  0  0  0  0  0  0  0
   17.9898   38.2136   67.2325 C   0  0  0  0  0  0  0  0  0  0  0  0
   19.3109   37.9506   67.0022 C   0  0  0  0  0  0  0  0  0  0  0  0
   20.0265   37.2512   67.9715 C   0  0  0  0  0  0  0  0  0  0  0  0
   14.8339   31.6340   72.6640 C   0  0  0  0  0  0  0  0  0  0  0  0
   14.7724   30.5514   71.6532 C   0  0  0  0  0  0  0  0  0  0  0  0
   13.7647   30.3314   70.9495 O   0  0  0  0  0  0  0  0  0  0  0  0
   15.8679   29.7512   71.4819 O   0  0  0  0  0  0  0  0  0  0  0  0
   16.7101   29.3210   72.4907 C   0  0  0  0  0  0  0  0  0  0  0  0
   16.5931   27.8981   72.8838 C   0  0  0  0  0  0  0  0  0  0  0  0
 15 16  1  0  0  0
 16 17  2  0  0  0
 16 21  1  0  0  0
 17 18  1  0  0  0
 17 13  1  0  0  0
 18 19  2  0  0  0
 19 20  1  0  0  0
 20 21  2  0  0  0
 13  1  1  0  0  0
  1  2  2  0  0  0
  1  9  1  0  0  0
  2  3  1  0  0  0
  3  4  2  0  0  0
  3  7  1  0  0  0
  4  5  1  0  0  0
  5  6  1  0  0  0
  6  7  2  0  0  0
  7  8  1  0  0  0
  8  9  1  0  0  0
  8 12  1  0  0  0
  9 10  2  0  0  0
 10 11  1  0  0  0
 11 12  2  0  0  0
 12 22  1  0  0  0
 22 23  1  0  0  0
 23 24  2  0  0  0
 23 25  1  0  0  0
 25 26  1  0  0  0
 26 27  1  0  0  0
 13 14  1  0  0  0
M  END
> <minimizedAffinity>
-8.54106

$$$$
908


 25 28  0  0  0  0  0  0  0  0999 V2000
   22.9265   36.0934   68.2332 N   0  0  0  0  0  0  0  0  0  0  0  0
   21.6343   35.9186   68.5620 C   0  0  0  0  0  0  0  0  0  0  0  0
   20.8077   35.2019   67.9214 O   0  0  0  0  0  0  0  0  0  0  0  0
   21.3040   36.6240   69.7011 C   0  0  0  0  0  0  0  0  0  0  0  0
   22.4158   37.2382   70.0718 C   0  0  0  0  0  0  0  0  0  0  0  0
   22.0773   37.9239   71.1891 N   0  0  0  0  0  0  0  0  0  0  0  0
   20.8048   37.7311   71.4841 N   0  0  0  0  0  0  0  0  0  0  0  0
   20.3072   36.9307   70.5771 N   0  0  0  0  0  0  0  0  0  0  0  0
   23.4219   36.9175   69.1742 C   0  0  0  0  0  0  0  0  0  0  0  0
   24.6182   37.3489   69.2493 O   0  0  0  0  0  0  0  0  0  0  0  0
   22.7140   38.5253   71.7532 H   0  0  0  0  0  0  0  0  0  0  0  0
   20.2892   38.1409   72.2892 H   0  0  0  0  0  0  0  0  0  0  0  0
   24.1411   33.2884   69.0700 I   0  0  0  0  0  0  0  0  0  0  0  0
   24.2858   34.3192   67.2271 C   0  0  0  0  0  0  0  0  0  0  0  0
   23.6521   35.5414   67.1336 C   0  0  0  0  0  0  0  0  0  0  0  0
   23.7575   36.1973   65.9241 C   0  0  0  0  0  0  0  0  0  0  0  0
   24.4648   35.6512   64.8667 C   0  0  0  0  0  0  0  0  0  0  0  0
   25.0938   34.4287   64.9717 C   0  0  0  0  0  0  0  0  0  0  0  0
   24.9928   33.7669   66.1778 C   0  0  0  0  0  0  0  0  0  0  0  0
   18.9792   36.4354   70.4712 C   0  0  0  0  0  0  0  0  0  0  0  0
   18.6327   35.1723   70.8971 C   0  0  0  0  0  0  0  0  0  0  0  0
   17.3288   34.7191   70.7801 C   0  0  0  0  0  0  0  0  0  0  0  0
   16.3307   35.5024   70.2382 C   0  0  0  0  0  0  0  0  0  0  0  0
   16.6758   36.7672   69.8118 C   0  0  0  0  0  0  0  0  0  0  0  0
   17.9661   37.2249   69.9233 C   0  0  0  0  0  0  0  0  0  0  0  0
 13 14  1  0  0  0
 14 15  2  0  0  0
 14 19  1  0  0  0
 15 16  1  0  0  0
 15  1  1  0  0  0
 16 17  2  0  0  0
 17 18  1  0  0  0
 18 19  2  0  0  0
  1  2  1  0  0  0
  1  9  1  0  0  0
  2  3  2  0  0  0
  2  4  1  0  0  0
  4  5  2  0  0  0
  4  8  1  0  0  0
  5  6  1  0  0  0
  5  9  1  0  0  0
  6  7  1  0  0  0
  7  8  1  0  0  0
  8 20  1  0  0  0
 20 21  2  0  0  0
 20 25  1  0  0  0
 21 22  1  0  0  0
 22 23  2  0  0  0
 23 24  1  0  0  0
 24 25  2  0  0  0
  9 10  2  0  0  0
  6 11  1  0  0  0
  7 12  1  0  0  0
M  END
> <minimizedAffinity>
-8.11469

$$$$
910


 26 29  0  0  0  0  0  0  0  0999 V2000
   16.1658   34.8092   71.3361 C   0  0  0  0  0  0  0  0  0  0  0  0
   14.8351   34.4698   70.9989 C   0  0  0  0  0  0  0  0  0  0  0  0
   13.9126   35.1229   70.3019 N   0  0  0  0  0  0  0  0  0  0  0  0
   12.8361   34.3980   70.2702 O   0  0  0  0  0  0  0  0  0  0  0  0
   13.0142   33.3023   70.9158 N   0  0  0  0  0  0  0  0  0  0  0  0
   14.2650   33.3045   71.3949 C   0  0  0  0  0  0  0  0  0  0  0  0
   14.9903   32.4098   72.1498 C   0  0  0  0  0  0  0  0  0  0  0  0
   16.2828   32.7090   72.4952 C   0  0  0  0  0  0  0  0  0  0  0  0
   16.8756   33.8918   72.0986 C   0  0  0  0  0  0  0  0  0  0  0  0
   14.3622   31.2193   72.5454 N   0  0  0  0  0  0  0  0  0  0  0  0
   13.4494   31.1477   73.6871 C   0  0  0  0  0  0  0  0  0  0  0  0
   14.1278   30.2037   74.6589 C   0  0  0  0  0  0  0  0  0  0  0  0
   15.3234   29.6851   74.1885 O   0  0  0  0  0  0  0  0  0  0  0  0
   15.2568   29.0798   72.9515 C   0  0  0  0  0  0  0  0  0  0  0  0
   14.4988   29.9161   71.9355 C   0  0  0  0  0  0  0  0  0  0  0  0
   17.0621   37.1305   70.2579 C   0  0  0  0  0  0  0  0  0  0  0  0
   16.5900   38.3020   70.5595 O   0  0  0  0  0  0  0  0  0  0  0  0
   16.6217   35.9902   70.7876 N   0  0  0  0  0  0  0  0  0  0  0  0
   15.5911   36.6475   71.3870 H   0  0  0  0  0  0  0  0  0  0  0  0
   20.1946   35.7116   71.0637 I   0  0  0  0  0  0  0  0  0  0  0  0
   19.4193   36.7564   69.3793 C   0  0  0  0  0  0  0  0  0  0  0  0
   18.1458   37.2659   69.2465 C   0  0  0  0  0  0  0  0  0  0  0  0
   18.0702   37.8371   68.0419 N   0  0  0  0  0  0  0  0  0  0  0  0
   19.2452   37.6971   67.4402 N   0  0  0  0  0  0  0  0  0  0  0  0
   20.1005   37.0416   68.2219 C   0  0  0  0  0  0  0  0  0  0  0  0
   16.9081   38.4796   67.4003 C   0  0  0  0  0  0  0  0  0  0  0  0
 20 21  1  0  0  0
 21 22  2  0  0  0
 21 25  1  0  0  0
 22 23  1  0  0  0
 22 16  1  0  0  0
 23 24  1  0  0  0
 23 26  1  0  0  0
 24 25  2  0  0  0
 16 17  2  0  0  0
 16 18  1  0  0  0
 18  1  1  0  0  0
  1  2  1  0  0  0
  1  9  2  0  0  0
  2  3  2  0  0  0
  2  6  1  0  0  0
  3  4  1  0  0  0
  4  5  1  0  0  0
  5  6  2  0  0  0
  6  7  1  0  0  0
  7  8  2  0  0  0
  7 10  1  0  0  0
  8  9  1  0  0  0
 10 11  1  0  0  0
 10 15  1  0  0  0
 11 12  1  0  0  0
 12 13  1  0  0  0
 13 14  1  0  0  0
 14 15  1  0  0  0
 18 19  1  0  0  0
M  END
> <minimizedAffinity>
-8.27768

$$$$
920


 24 27  0  0  0  0  0  0  0  0999 V2000
   17.2620   37.5996   69.2603 N   0  0  0  0  0  0  0  0  0  0  0  0
   18.4492   37.0987   69.4054 C   0  0  0  0  0  0  0  0  0  0  0  0
   19.4367   36.1693   70.5886 S   0  0  0  0  0  0  0  0  0  0  0  0
   20.8794   36.1473   69.5497 C   0  0  0  0  0  0  0  0  0  0  0  0
   20.6071   36.7830   68.4320 C   0  0  0  0  0  0  0  0  0  0  0  0
   19.2981   37.3118   68.3172 N   0  0  0  0  0  0  0  0  0  0  0  0
   18.5041   38.0720   67.3181 C   0  0  0  0  0  0  0  0  0  0  0  0
   17.1991   38.2892   68.0013 C   0  0  0  0  0  0  0  0  0  0  0  0
   21.6894   36.8913   67.4097 C   0  0  0  0  0  0  0  0  0  0  0  0
   22.1051   38.0972   66.9091 C   0  0  0  0  0  0  0  0  0  0  0  0
   23.1336   38.1951   65.9513 C   0  0  0  0  0  0  0  0  0  0  0  0
   23.7568   37.0599   65.4871 C   0  0  0  0  0  0  0  0  0  0  0  0
   23.3442   35.8494   65.9851 C   0  0  0  0  0  0  0  0  0  0  0  0
   22.3295   35.7629   66.9298 C   0  0  0  0  0  0  0  0  0  0  0  0
   16.2135   37.5197   70.2069 C   0  0  0  0  0  0  0  0  0  0  0  0
   15.1559   36.5512   70.0892 C   0  0  0  0  0  0  0  0  0  0  0  0
   14.1492   36.9869   69.3792 O   0  0  0  0  0  0  0  0  0  0  0  0
   14.2859   30.6127   72.1394 I   0  0  0  0  0  0  0  0  0  0  0  0
   14.6057   32.5684   71.5014 C   0  0  0  0  0  0  0  0  0  0  0  0
   15.6183   33.3836   71.9690 C   0  0  0  0  0  0  0  0  0  0  0  0
   15.8020   34.6664   71.5273 C   0  0  0  0  0  0  0  0  0  0  0  0
   14.9818   35.2143   70.5887 C   0  0  0  0  0  0  0  0  0  0  0  0
   13.9539   34.4069   70.1047 C   0  0  0  0  0  0  0  0  0  0  0  0
   13.7697   33.1370   70.5401 C   0  0  0  0  0  0  0  0  0  0  0  0
 18 19  1  0  0  0
 19 20  2  0  0  0
 19 24  1  0  0  0
 20 21  1  0  0  0
 21 22  2  0  0  0
 22 23  1  0  0  0
 22 16  1  0  0  0
 23 24  2  0  0  0
 16 17  2  0  0  0
 16 15  1  0  0  0
 15  1  1  0  0  0
  1  2  2  0  0  0
  1  8  1  0  0  0
  2  3  1  0  0  0
  2  6  1  0  0  0
  3  4  1  0  0  0
  4  5  2  0  0  0
  5  6  1  0  0  0
  5  9  1  0  0  0
  6  7  1  0  0  0
  7  8  1  0  0  0
  9 10  2  0  0  0
  9 14  1  0  0  0
 10 11  1  0  0  0
 11 12  2  0  0  0
 12 13  1  0  0  0
 13 14  2  0  0  0
M  END
> <minimizedAffinity>
-8.51890

$$$$
924


 29 32  0  0  0  0  0  0  0  0999 V2000
   19.8026   38.0258   66.5642 C   0  0  0  0  0  0  0  0  0  0  0  0
   20.6339   36.9908   66.7732 N   0  0  0  0  0  0  0  0  0  0  0  0
   21.9497   37.1018   66.5510 C   0  0  0  0  0  0  0  0  0  0  0  0
   22.3908   38.2915   66.1105 N   0  0  0  0  0  0  0  0  0  0  0  0
   21.5882   39.3518   65.8885 C   0  0  0  0  0  0  0  0  0  0  0  0
   20.2720   39.1996   66.1252 N   0  0  0  0  0  0  0  0  0  0  0  0
   22.1371   40.5760   65.4205 N   0  0  0  0  0  0  0  0  0  0  0  0
   21.6510   41.1523   64.1884 C   0  0  0  0  0  0  0  0  0  0  0  0
   22.8756   41.8096   63.5362 C   0  0  0  0  0  0  0  0  0  0  0  0
   23.2615   42.8493   64.3413 O   0  0  0  0  0  0  0  0  0  0  0  0
   23.6547   42.5238   65.6091 C   0  0  0  0  0  0  0  0  0  0  0  0
   23.1604   41.2341   66.1564 C   0  0  0  0  0  0  0  0  0  0  0  0
   22.8519   36.0161   66.7655 N   0  0  0  0  0  0  0  0  0  0  0  0
   23.7802   35.5587   65.7762 C   0  0  0  0  0  0  0  0  0  0  0  0
   24.4313   34.2805   66.3088 C   0  0  0  0  0  0  0  0  0  0  0  0
   23.4851   33.3829   66.7746 O   0  0  0  0  0  0  0  0  0  0  0  0
   22.7936   33.8358   67.8709 C   0  0  0  0  0  0  0  0  0  0  0  0
   22.8376   35.3321   68.0483 C   0  0  0  0  0  0  0  0  0  0  0  0
   18.3838   37.8817   66.8123 N   0  0  0  0  0  0  0  0  0  0  0  0
   17.8751   37.0469   66.4474 H   0  0  0  0  0  0  0  0  0  0  0  0
   17.2185   38.6965   68.6361 C   0  0  0  0  0  0  0  0  0  0  0  0
   17.7275   38.8516   67.4947 N   0  0  0  0  0  0  0  0  0  0  0  0
   16.6631   33.5129   72.2611 I   0  0  0  0  0  0  0  0  0  0  0  0
   16.9391   35.2090   71.0678 C   0  0  0  0  0  0  0  0  0  0  0  0
   18.1686   35.6471   70.6831 C   0  0  0  0  0  0  0  0  0  0  0  0
   18.2848   36.7930   69.8822 C   0  0  0  0  0  0  0  0  0  0  0  0
   17.2099   37.5147   69.4535 C   0  0  0  0  0  0  0  0  0  0  0  0
   15.9551   37.0407   69.8649 C   0  0  0  0  0  0  0  0  0  0  0  0
   15.8358   35.9189   70.6492 C   0  0  0  0  0  0  0  0  0  0  0  0
 23 24  1  0  0  0
 24 25  2  0  0  0
 24 29  1  0  0  0
 25 26  1  0  0  0
 26 27  2  0  0  0
 27 28  1  0  0  0
 27 21  1  0  0  0
 28 29  2  0  0  0
 21 22  2  0  0  0
 22 19  1  0  0  0
 19  1  1  0  0  0
  1  2  2  0  0  0
  1  6  1  0  0  0
  2  3  1  0  0  0
  3  4  2  0  0  0
  3 13  1  0  0  0
  4  5  1  0  0  0
  5  6  2  0  0  0
  5  7  1  0  0  0
  7  8  1  0  0  0
  7 12  1  0  0  0
  8  9  1  0  0  0
  9 10  1  0  0  0
 10 11  1  0  0  0
 11 12  1  0  0  0
 13 14  1  0  0  0
 13 18  1  0  0  0
 14 15  1  0  0  0
 15 16  1  0  0  0
 16 17  1  0  0  0
 17 18  1  0  0  0
 19 20  1  0  0  0
M  END
> <minimizedAffinity>
-8.71878

$$$$
935


 34 38  0  0  0  0  0  0  0  0999 V2000
   20.7992   32.4346   71.3006 N   0  0  0  0  0  0  0  0  0  0  0  0
   21.3644   33.4909   70.6906 C   0  0  0  0  0  0  0  0  0  0  0  0
   22.7290   33.6237   70.5548 C   0  0  0  0  0  0  0  0  0  0  0  0
   23.4910   32.6006   71.0843 C   0  0  0  0  0  0  0  0  0  0  0  0
   24.7581   32.5728   71.0419 O   0  0  0  0  0  0  0  0  0  0  0  0
   22.9275   31.5195   71.7078 N   0  0  0  0  0  0  0  0  0  0  0  0
   21.5873   31.4683   71.7990 C   0  0  0  0  0  0  0  0  0  0  0  0
   21.0245   30.4958   72.3628 O   0  0  0  0  0  0  0  0  0  0  0  0
   20.5727   34.4847   70.1754 O   0  0  0  0  0  0  0  0  0  0  0  0
   23.5037   30.7542   72.1045 H   0  0  0  0  0  0  0  0  0  0  0  0
   23.4126   34.7386   69.9256 C   0  0  0  0  0  0  0  0  0  0  0  0
   24.6632   34.4707   69.2899 N   0  0  0  0  0  0  0  0  0  0  0  0
   24.5835   33.5879   68.1583 C   0  0  0  0  0  0  0  0  0  0  0  0
   23.1631   33.3097   67.7137 C   0  0  0  0  0  0  0  0  0  0  0  0
   22.4032   34.6147   67.7043 C   0  0  0  0  0  0  0  0  0  0  0  0
   22.5582   35.3555   68.8486 C   0  0  0  0  0  0  0  0  0  0  0  0
   21.9531   36.5832   68.9715 C   0  0  0  0  0  0  0  0  0  0  0  0
   21.1910   37.0267   67.9001 C   0  0  0  0  0  0  0  0  0  0  0  0
   21.0243   36.2937   66.7434 C   0  0  0  0  0  0  0  0  0  0  0  0
   21.6566   35.0537   66.6607 C   0  0  0  0  0  0  0  0  0  0  0  0
   20.2135   37.0134   65.8799 O   0  0  0  0  0  0  0  0  0  0  0  0
   19.5488   38.0501   66.6203 C   0  0  0  0  0  0  0  0  0  0  0  0
   20.4550   38.2042   67.6966 O   0  0  0  0  0  0  0  0  0  0  0  0
   25.0953   35.7763   68.7258 C   0  0  0  0  0  0  0  0  0  0  0  0
   25.4594   34.2482   69.9100 H   0  0  0  0  0  0  0  0  0  0  0  0
   22.1143   37.3144   70.1140 O   0  0  0  0  0  0  0  0  0  0  0  0
   21.1922   37.4821   71.1431 C   0  0  0  0  0  0  0  0  0  0  0  0
   14.5145   31.9259   71.8860 I   0  0  0  0  0  0  0  0  0  0  0  0
   16.5984   32.1040   71.7107 C   0  0  0  0  0  0  0  0  0  0  0  0
   17.2444   31.6237   70.5764 C   0  0  0  0  0  0  0  0  0  0  0  0
   18.5986   31.7355   70.4544 C   0  0  0  0  0  0  0  0  0  0  0  0
   19.3907   32.3197   71.4299 C   0  0  0  0  0  0  0  0  0  0  0  0
   18.7507   32.8016   72.5669 C   0  0  0  0  0  0  0  0  0  0  0  0
   17.3814   32.6838   72.6809 C   0  0  0  0  0  0  0  0  0  0  0  0
 28 29  1  0  0  0
 29 30  2  0  0  0
 29 34  1  0  0  0
 30 31  1  0  0  0
 31 32  2  0  0  0
 32 33  1  0  0  0
 32  1  1  0  0  0
 33 34  2  0  0  0
  1  2  1  0  0  0
  1  7  1  0  0  0
  2  3  2  0  0  0
  2  9  1  0  0  0
  3  4  1  0  0  0
  3 11  1  0  0  0
  4  5  2  0  0  0
  4  6  1  0  0  0
  6  7  1  0  0  0
  7  8  2  0  0  0
 11 12  1  0  0  0
 11 16  1  0  0  0
 12 13  1  0  0  0
 12 24  1  0  0  0
 13 14  1  0  0  0
 14 15  1  0  0  0
 15 16  2  0  0  0
 15 20  1  0  0  0
 16 17  1  0  0  0
 17 18  2  0  0  0
 17 26  1  0  0  0
 18 19  1  0  0  0
 18 23  1  0  0  0
 19 20  2  0  0  0
 19 21  1  0  0  0
 21 22  1  0  0  0
 22 23  1  0  0  0
 26 27  1  0  0  0
  6 10  1  0  0  0
 12 25  1  0  0  0
M  CHG 1   9  -1
M  CHG 1  12   1
M  END
> <minimizedAffinity>
-7.69671

$$$$
937


 26 29  0  0  0  0  0  0  0  0999 V2000
   18.8553   35.3204   71.0015 N   0  0  0  0  0  0  0  0  0  0  0  0
   18.7606   36.5535   70.3080 C   0  0  0  0  0  0  0  0  0  0  0  0
   17.6695   37.1047   70.0095 O   0  0  0  0  0  0  0  0  0  0  0  0
   20.1268   37.0655   70.0088 C   0  0  0  0  0  0  0  0  0  0  0  0
   20.9272   36.4814   71.1603 C   0  0  0  0  0  0  0  0  0  0  0  0
   20.1569   35.2952   71.5831 C   0  0  0  0  0  0  0  0  0  0  0  0
   20.5596   34.3715   72.3490 O   0  0  0  0  0  0  0  0  0  0  0  0
   14.4001   30.8127   71.5811 I   0  0  0  0  0  0  0  0  0  0  0  0
   15.8737   32.3150   71.3943 C   0  0  0  0  0  0  0  0  0  0  0  0
   15.7292   33.5594   71.9707 C   0  0  0  0  0  0  0  0  0  0  0  0
   16.7082   34.5227   71.8319 C   0  0  0  0  0  0  0  0  0  0  0  0
   17.8624   34.2835   71.1160 C   0  0  0  0  0  0  0  0  0  0  0  0
   17.9871   33.0373   70.5497 C   0  0  0  0  0  0  0  0  0  0  0  0
   17.0210   32.0583   70.6755 C   0  0  0  0  0  0  0  0  0  0  0  0
   20.5144   36.5835   68.7476 N   0  0  0  0  0  0  0  0  0  0  0  0
   19.8334   36.9553   67.5890 C   0  0  0  0  0  0  0  0  0  0  0  0
   20.8361   36.8244   66.4126 C   0  0  0  0  0  0  0  0  0  0  0  0
   22.0637   37.5077   66.7923 N   0  0  0  0  0  0  0  0  0  0  0  0
   22.7399   37.0085   67.9637 C   0  0  0  0  0  0  0  0  0  0  0  0
   21.7978   36.0171   68.6415 C   0  0  0  0  0  0  0  0  0  0  0  0
   22.5513   38.6026   66.0499 C   0  0  0  0  0  0  0  0  0  0  0  0
   21.9680   39.8277   66.1545 N   0  0  0  0  0  0  0  0  0  0  0  0
   22.3889   40.9003   65.4878 C   0  0  0  0  0  0  0  0  0  0  0  0
   23.4765   40.8061   64.6298 C   0  0  0  0  0  0  0  0  0  0  0  0
   24.0653   39.5580   64.5276 C   0  0  0  0  0  0  0  0  0  0  0  0
   23.6091   38.5045   65.2182 N   0  0  0  0  0  0  0  0  0  0  0  0
  8  9  1  0  0  0
  9 10  2  0  0  0
  9 14  1  0  0  0
 10 11  1  0  0  0
 11 12  2  0  0  0
 12 13  1  0  0  0
 12  1  1  0  0  0
 13 14  2  0  0  0
  1  2  1  0  0  0
  1  6  1  0  0  0
  2  3  2  0  0  0
  2  4  1  0  0  0
  4  5  1  0  0  0
  4 15  1  0  0  0
  5  6  1  0  0  0
  6  7  2  0  0  0
 15 16  1  0  0  0
 15 20  1  0  0  0
 16 17  1  0  0  0
 17 18  1  0  0  0
 18 19  1  0  0  0
 18 21  1  0  0  0
 19 20  1  0  0  0
 21 22  2  0  0  0
 21 26  1  0  0  0
 22 23  1  0  0  0
 23 24  2  0  0  0
 24 25  1  0  0  0
 25 26  2  0  0  0
M  END
> <minimizedAffinity>
-8.56057

$$$$
950


 26 29  0  0  0  0  0  0  0  0999 V2000
   19.9240   36.5228   69.3106 C   0  0  0  0  0  0  0  0  0  0  0  0
   18.6031   36.9665   69.4274 C   0  0  0  0  0  0  0  0  0  0  0  0
   17.9875   38.0650   68.9564 N   0  0  0  0  0  0  0  0  0  0  0  0
   16.7430   38.0326   69.3326 O   0  0  0  0  0  0  0  0  0  0  0  0
   16.5107   36.9639   70.0299 N   0  0  0  0  0  0  0  0  0  0  0  0
   17.6546   36.2584   70.1178 C   0  0  0  0  0  0  0  0  0  0  0  0
   17.9940   35.0678   70.7234 C   0  0  0  0  0  0  0  0  0  0  0  0
   19.2927   34.6415   70.6018 C   0  0  0  0  0  0  0  0  0  0  0  0
   20.2695   35.3586   69.8992 C   0  0  0  0  0  0  0  0  0  0  0  0
   16.9988   34.3498   71.4334 N   0  0  0  0  0  0  0  0  0  0  0  0
   15.8311   33.8341   70.7488 C   0  0  0  0  0  0  0  0  0  0  0  0
   15.0050   33.0591   71.7150 C   0  0  0  0  0  0  0  0  0  0  0  0
   15.7160   32.1398   72.4614 O   0  0  0  0  0  0  0  0  0  0  0  0
   16.7520   32.6519   73.1762 C   0  0  0  0  0  0  0  0  0  0  0  0
   17.0807   34.0888   72.8568 C   0  0  0  0  0  0  0  0  0  0  0  0
   21.0863   37.2682   67.2143 C   0  0  0  0  0  0  0  0  0  0  0  0
   20.4965   36.3928   66.4908 O   0  0  0  0  0  0  0  0  0  0  0  0
   20.8172   37.3356   68.5743 N   0  0  0  0  0  0  0  0  0  0  0  0
   21.3650   38.0839   69.1053 H   0  0  0  0  0  0  0  0  0  0  0  0
   24.2383   36.1033   65.7038 I   0  0  0  0  0  0  0  0  0  0  0  0
   23.2017   37.9039   65.8702 C   0  0  0  0  0  0  0  0  0  0  0  0
   23.6451   39.1150   65.3387 C   0  0  0  0  0  0  0  0  0  0  0  0
   22.7545   40.0601   65.6436 N   0  0  0  0  0  0  0  0  0  0  0  0
   21.7998   39.4929   66.3277 N   0  0  0  0  0  0  0  0  0  0  0  0
   22.0285   38.1467   66.4970 C   0  0  0  0  0  0  0  0  0  0  0  0
   22.8666   41.4738   65.2588 C   0  0  0  0  0  0  0  0  0  0  0  0
 20 21  1  0  0  0
 21 22  2  0  0  0
 21 25  1  0  0  0
 22 23  1  0  0  0
 23 24  1  0  0  0
 23 26  1  0  0  0
 24 25  2  0  0  0
 25 16  1  0  0  0
 16 17  2  0  0  0
 16 18  1  0  0  0
 18  1  1  0  0  0
  1  2  1  0  0  0
  1  9  2  0  0  0
  2  3  2  0  0  0
  2  6  1  0  0  0
  3  4  1  0  0  0
  4  5  1  0  0  0
  5  6  2  0  0  0
  6  7  1  0  0  0
  7  8  2  0  0  0
  7 10  1  0  0  0
  8  9  1  0  0  0
 10 11  1  0  0  0
 10 15  1  0  0  0
 11 12  1  0  0  0
 12 13  1  0  0  0
 13 14  1  0  0  0
 14 15  1  0  0  0
 18 19  1  0  0  0
M  END
> <minimizedAffinity>
-7.94373

$$$$
956


 30 33  0  0  0  0  0  0  0  0999 V2000
   21.0446   34.0776   70.7112 I   0  0  0  0  0  0  0  0  0  0  0  0
   18.9943   34.5644   70.7706 C   0  0  0  0  0  0  0  0  0  0  0  0
   18.4292   35.7363   70.3624 C   0  0  0  0  0  0  0  0  0  0  0  0
   17.0649   35.5686   70.6031 C   0  0  0  0  0  0  0  0  0  0  0  0
   16.7986   34.3710   71.1259 N   0  0  0  0  0  0  0  0  0  0  0  0
   17.9733   33.7505   71.2319 C   0  0  0  0  0  0  0  0  0  0  0  0
   16.2479   36.5878   70.2885 N   0  0  0  0  0  0  0  0  0  0  0  0
   16.7286   37.7252   69.7629 C   0  0  0  0  0  0  0  0  0  0  0  0
   18.0358   37.8824   69.5339 N   0  0  0  0  0  0  0  0  0  0  0  0
   18.9389   36.8953   69.8244 C   0  0  0  0  0  0  0  0  0  0  0  0
   15.5337   33.8201   71.5104 C   0  0  0  0  0  0  0  0  0  0  0  0
   15.6055   32.4983   71.9331 O   0  0  0  0  0  0  0  0  0  0  0  0
   14.2648   32.1682   72.1106 C   0  0  0  0  0  0  0  0  0  0  0  0
   13.5007   32.8009   70.9710 C   0  0  0  0  0  0  0  0  0  0  0  0
   14.5718   33.6891   70.3267 C   0  0  0  0  0  0  0  0  0  0  0  0
   12.5062   33.6644   71.4322 O   0  0  0  0  0  0  0  0  0  0  0  0
   11.7673   33.0655   71.7627 H   0  0  0  0  0  0  0  0  0  0  0  0
   14.0772   30.6516   71.9642 C   0  0  0  0  0  0  0  0  0  0  0  0
   13.3507   30.3985   70.7932 O   0  0  0  0  0  0  0  0  0  0  0  0
   13.9724   30.1993   70.0235 H   0  0  0  0  0  0  0  0  0  0  0  0
   20.3200   37.1180   69.5590 N   0  0  0  0  0  0  0  0  0  0  0  0
   20.7663   37.0985   68.2062 C   0  0  0  0  0  0  0  0  0  0  0  0
   19.9028   36.8837   67.3178 O   0  0  0  0  0  0  0  0  0  0  0  0
   21.0423   37.2954   70.2624 H   0  0  0  0  0  0  0  0  0  0  0  0
   22.1284   37.3074   67.7980 C   0  0  0  0  0  0  0  0  0  0  0  0
   23.1744   36.9046   68.5815 C   0  0  0  0  0  0  0  0  0  0  0  0
   24.5033   37.0969   68.1974 C   0  0  0  0  0  0  0  0  0  0  0  0
   24.7749   37.7043   67.0070 C   0  0  0  0  0  0  0  0  0  0  0  0
   23.7466   38.1189   66.2007 C   0  0  0  0  0  0  0  0  0  0  0  0
   22.4222   37.9160   66.6051 C   0  0  0  0  0  0  0  0  0  0  0  0
  1  2  1  0  0  0
  2  3  1  0  0  0
  2  6  2  0  0  0
  3  4  2  0  0  0
  3 10  1  0  0  0
  4  5  1  0  0  0
  4  7  1  0  0  0
  5  6  1  0  0  0
  5 11  1  0  0  0
 11 12  1  0  0  0
 11 15  1  0  0  0
 12 13  1  0  0  0
 13 14  1  0  0  0
 13 18  1  0  0  0
 14 15  1  0  0  0
 14 16  1  0  0  0
 18 19  1  0  0  0
  7  8  2  0  0  0
  8  9  1  0  0  0
  9 10  2  0  0  0
 10 21  1  0  0  0
 21 22  1  0  0  0
 22 23  2  0  0  0
 22 25  1  0  0  0
 25 26  2  0  0  0
 25 30  1  0  0  0
 26 27  1  0  0  0
 27 28  2  0  0  0
 28 29  1  0  0  0
 29 30  2  0  0  0
 16 17  1  0  0  0
 19 20  1  0  0  0
 21 24  1  0  0  0
M  END
> <minimizedAffinity>
-9.03880

$$$$
961


 29 33  0  0  0  0  0  0  0  0999 V2000
   19.5446   32.7833   71.4252 C   0  0  0  0  0  0  0  0  0  0  0  0
   19.9775   31.7758   72.1445 N   0  0  0  0  0  0  0  0  0  0  0  0
   19.0873   30.9826   72.8136 C   0  0  0  0  0  0  0  0  0  0  0  0
   17.7390   31.1660   72.7845 C   0  0  0  0  0  0  0  0  0  0  0  0
   17.2462   32.2132   72.0366 C   0  0  0  0  0  0  0  0  0  0  0  0
   15.9836   32.6985   71.7740 N   0  0  0  0  0  0  0  0  0  0  0  0
   16.0744   33.7502   70.9778 C   0  0  0  0  0  0  0  0  0  0  0  0
   17.4028   33.9247   70.7386 N   0  0  0  0  0  0  0  0  0  0  0  0
   18.1384   33.0028   71.3716 C   0  0  0  0  0  0  0  0  0  0  0  0
   14.8305   32.0475   72.3279 C   0  0  0  0  0  0  0  0  0  0  0  0
   21.3633   31.4155   72.2046 C   0  0  0  0  0  0  0  0  0  0  0  0
   15.0073   34.5845   70.4128 C   0  0  0  0  0  0  0  0  0  0  0  0
   13.9241   34.1216   69.7425 C   0  0  0  0  0  0  0  0  0  0  0  0
   12.9773   35.0221   69.2189 C   0  0  0  0  0  0  0  0  0  0  0  0
   13.1443   36.3781   69.3836 C   0  0  0  0  0  0  0  0  0  0  0  0
   14.2444   36.8781   70.0672 C   0  0  0  0  0  0  0  0  0  0  0  0
   15.1314   35.9763   70.5550 C   0  0  0  0  0  0  0  0  0  0  0  0
   20.7743   33.8629   69.5294 C   0  0  0  0  0  0  0  0  0  0  0  0
   20.3524   33.7763   70.7413 C   0  0  0  0  0  0  0  0  0  0  0  0
   23.8452   33.1470   68.8297 Br  0  0  0  0  0  0  0  0  0  0  0  0
   22.8492   34.7183   68.4165 C   0  0  0  0  0  0  0  0  0  0  0  0
   23.5156   35.7400   67.6946 C   0  0  0  0  0  0  0  0  0  0  0  0
   22.8801   36.9162   67.4024 C   0  0  0  0  0  0  0  0  0  0  0  0
   21.5803   37.0850   67.8263 C   0  0  0  0  0  0  0  0  0  0  0  0
   20.9424   36.0864   68.5268 C   0  0  0  0  0  0  0  0  0  0  0  0
   21.5702   34.8556   68.8444 C   0  0  0  0  0  0  0  0  0  0  0  0
   21.1713   38.3608   67.4041 O   0  0  0  0  0  0  0  0  0  0  0  0
   22.0161   38.7048   66.3252 C   0  0  0  0  0  0  0  0  0  0  0  0
   23.2380   38.0889   66.7300 O   0  0  0  0  0  0  0  0  0  0  0  0
 20 21  1  0  0  0
 21 22  2  0  0  0
 21 26  1  0  0  0
 22 23  1  0  0  0
 23 24  2  0  0  0
 23 29  1  0  0  0
 24 25  1  0  0  0
 24 27  1  0  0  0
 25 26  2  0  0  0
 26 18  1  0  0  0
 18 19  2  0  0  0
 19  1  1  0  0  0
  1  2  2  0  0  0
  1  9  1  0  0  0
  2  3  1  0  0  0
  2 11  1  0  0  0
  3  4  2  0  0  0
  4  5  1  0  0  0
  5  6  1  0  0  0
  5  9  2  0  0  0
  6  7  1  0  0  0
  6 10  1  0  0  0
  7  8  2  0  0  0
  7 12  1  0  0  0
  8  9  1  0  0  0
 12 13  2  0  0  0
 12 17  1  0  0  0
 13 14  1  0  0  0
 14 15  2  0  0  0
 15 16  1  0  0  0
 16 17  2  0  0  0
 27 28  1  0  0  0
 28 29  1  0  0  0
M  END
> <minimizedAffinity>
-9.47473

$$$$
969


 31 34  0  0  0  0  0  0  0  0999 V2000
   19.2549   32.5788   72.0403 Br  0  0  0  0  0  0  0  0  0  0  0  0
   17.9240   31.2550   72.3398 C   0  0  0  0  0  0  0  0  0  0  0  0
   18.1212   30.1438   73.1547 C   0  0  0  0  0  0  0  0  0  0  0  0
   17.1187   29.2058   73.3398 C   0  0  0  0  0  0  0  0  0  0  0  0
   15.8998   29.3635   72.7122 C   0  0  0  0  0  0  0  0  0  0  0  0
   15.6979   30.4518   71.9103 C   0  0  0  0  0  0  0  0  0  0  0  0
   16.6952   31.3769   71.7315 C   0  0  0  0  0  0  0  0  0  0  0  0
   16.4123   32.4708   70.8929 O   0  0  0  0  0  0  0  0  0  0  0  0
   13.9792   30.6116   71.0692 Br  0  0  0  0  0  0  0  0  0  0  0  0
   17.2881   28.0972   74.1408 C   0  0  0  0  0  0  0  0  0  0  0  0
   18.5087   27.9475   74.7652 C   0  0  0  0  0  0  0  0  0  0  0  0
   19.5120   28.9885   74.5114 C   0  0  0  0  0  0  0  0  0  0  0  0
   20.7422   28.8223   75.1494 C   0  0  0  0  0  0  0  0  0  0  0  0
   20.9702   27.7358   75.9618 C   0  0  0  0  0  0  0  0  0  0  0  0
   22.0936   27.6286   76.5159 O   0  0  0  0  0  0  0  0  0  0  0  0
   19.9981   26.7656   76.1817 C   0  0  0  0  0  0  0  0  0  0  0  0
   18.7725   26.8656   75.5902 C   0  0  0  0  0  0  0  0  0  0  0  0
   20.3997   25.2885   77.3266 Br  0  0  0  0  0  0  0  0  0  0  0  0
   22.1045   30.1467   74.8612 Br  0  0  0  0  0  0  0  0  0  0  0  0
   19.2871   30.0226   73.7357 O   0  0  0  0  0  0  0  0  0  0  0  0
   16.2301   27.1032   74.3285 C   0  0  0  0  0  0  0  0  0  0  0  0
   16.1589   25.9876   73.5144 C   0  0  0  0  0  0  0  0  0  0  0  0
   15.1689   25.0403   73.6674 C   0  0  0  0  0  0  0  0  0  0  0  0
   14.2311   25.2213   74.6629 C   0  0  0  0  0  0  0  0  0  0  0  0
   14.2643   26.3045   75.4866 C   0  0  0  0  0  0  0  0  0  0  0  0
   15.2601   27.2414   75.3187 C   0  0  0  0  0  0  0  0  0  0  0  0
   13.0314   26.4551   76.7285 Cl  0  0  0  0  0  0  0  0  0  0  0  0
   17.3729   25.7774   72.2474 Cl  0  0  0  0  0  0  0  0  0  0  0  0
   15.2995   28.3956   76.1841 C   0  0  0  0  0  0  0  0  0  0  0  0
   14.6337   29.4405   75.9461 O   0  0  0  0  0  0  0  0  0  0  0  0
   16.0905   28.3899   77.3307 O   0  0  0  0  0  0  0  0  0  0  0  0
  1  2  1  0  0  0
  2  3  2  0  0  0
  2  7  1  0  0  0
  3  4  1  0  0  0
  3 20  1  0  0  0
  4  5  2  0  0  0
  4 10  1  0  0  0
  5  6  1  0  0  0
  6  7  2  0  0  0
  6  9  1  0  0  0
  7  8  1  0  0  0
 10 11  2  0  0  0
 10 21  1  0  0  0
 11 12  1  0  0  0
 11 17  1  0  0  0
 12 13  2  0  0  0
 12 20  1  0  0  0
 13 14  1  0  0  0
 13 19  1  0  0  0
 14 15  2  0  0  0
 14 16  1  0  0  0
 16 17  2  0  0  0
 16 18  1  0  0  0
 21 22  2  0  0  0
 21 26  1  0  0  0
 22 23  1  0  0  0
 22 28  1  0  0  0
 23 24  2  0  0  0
 24 25  1  0  0  0
 25 26  2  0  0  0
 25 27  1  0  0  0
 26 29  1  0  0  0
 29 30  2  0  0  0
 29 31  1  0  0  0
M  CHG 1   8  -1
M  END
> <minimizedAffinity>
-5.96223

$$$$
971


 29 33  0  0  0  0  0  0  0  0999 V2000
   21.3045   30.1021   72.2651 Br  0  0  0  0  0  0  0  0  0  0  0  0
   22.0748   31.6728   71.5054 C   0  0  0  0  0  0  0  0  0  0  0  0
   21.2891   32.7972   71.1906 C   0  0  0  0  0  0  0  0  0  0  0  0
   21.8009   33.9380   70.6467 C   0  0  0  0  0  0  0  0  0  0  0  0
   23.1746   33.9737   70.3974 C   0  0  0  0  0  0  0  0  0  0  0  0
   23.9356   32.8843   70.7020 C   0  0  0  0  0  0  0  0  0  0  0  0
   23.4238   31.7274   71.2531 C   0  0  0  0  0  0  0  0  0  0  0  0
   24.2693   30.6429   71.5418 O   0  0  0  0  0  0  0  0  0  0  0  0
   25.8131   32.9248   70.3648 Br  0  0  0  0  0  0  0  0  0  0  0  0
   20.9618   35.0865   70.3321 C   0  0  0  0  0  0  0  0  0  0  0  0
   21.4162   36.1601   71.1538 O   0  0  0  0  0  0  0  0  0  0  0  0
   21.8637   37.2205   70.4145 C   0  0  0  0  0  0  0  0  0  0  0  0
   22.3162   38.2924   70.8771 O   0  0  0  0  0  0  0  0  0  0  0  0
   21.6991   36.8354   69.0262 C   0  0  0  0  0  0  0  0  0  0  0  0
   21.1648   35.5703   68.9364 C   0  0  0  0  0  0  0  0  0  0  0  0
   20.9446   35.0541   67.7019 C   0  0  0  0  0  0  0  0  0  0  0  0
   21.2559   35.7934   66.5800 C   0  0  0  0  0  0  0  0  0  0  0  0
   21.7919   37.0607   66.6656 C   0  0  0  0  0  0  0  0  0  0  0  0
   22.0192   37.5964   67.9057 C   0  0  0  0  0  0  0  0  0  0  0  0
   19.5516   34.8903   70.6516 C   0  0  0  0  0  0  0  0  0  0  0  0
   19.0977   33.7215   71.1967 C   0  0  0  0  0  0  0  0  0  0  0  0
   17.7312   33.5499   71.4990 C   0  0  0  0  0  0  0  0  0  0  0  0
   16.8602   34.5811   71.2362 C   0  0  0  0  0  0  0  0  0  0  0  0
   17.3132   35.7702   70.6834 C   0  0  0  0  0  0  0  0  0  0  0  0
   18.6390   35.9291   70.3925 C   0  0  0  0  0  0  0  0  0  0  0  0
   16.1184   37.2076   70.3138 Br  0  0  0  0  0  0  0  0  0  0  0  0
   15.5193   34.3994   71.5387 O   0  0  0  0  0  0  0  0  0  0  0  0
   17.1344   31.8997   72.2610 Br  0  0  0  0  0  0  0  0  0  0  0  0
   19.9309   32.6493   71.4832 O   0  0  0  0  0  0  0  0  0  0  0  0
  1  2  1  0  0  0
  2  3  2  0  0  0
  2  7  1  0  0  0
  3  4  1  0  0  0
  3 29  1  0  0  0
  4  5  2  0  0  0
  4 10  1  0  0  0
  5  6  1  0  0  0
  6  7  2  0  0  0
  6  9  1  0  0  0
  7  8  1  0  0  0
 10 11  1  0  0  0
 10 15  1  0  0  0
 10 20  1  0  0  0
 11 12  1  0  0  0
 12 13  2  0  0  0
 12 14  1  0  0  0
 14 15  2  0  0  0
 14 19  1  0  0  0
 15 16  1  0  0  0
 16 17  2  0  0  0
 17 18  1  0  0  0
 18 19  2  0  0  0
 20 21  2  0  0  0
 20 25  1  0  0  0
 21 22  1  0  0  0
 21 29  1  0  0  0
 22 23  2  0  0  0
 22 28  1  0  0  0
 23 24  1  0  0  0
 23 27  1  0  0  0
 24 25  2  0  0  0
 24 26  1  0  0  0
M  CHG 1   8  -1
M  CHG 1  27  -1
M  END
> <minimizedAffinity>
-9.07474

$$$$
978


 33 37  0  0  0  0  0  0  0  0999 V2000
   16.6523   25.2683   73.9474 I   0  0  0  0  0  0  0  0  0  0  0  0
   18.6882   25.8293   73.9546 C   0  0  0  0  0  0  0  0  0  0  0  0
   18.9773   27.1732   73.7406 C   0  0  0  0  0  0  0  0  0  0  0  0
   20.2765   27.5636   73.7398 C   0  0  0  0  0  0  0  0  0  0  0  0
   21.2738   26.6082   73.9521 C   0  0  0  0  0  0  0  0  0  0  0  0
   20.9971   25.2754   74.1649 C   0  0  0  0  0  0  0  0  0  0  0  0
   19.6729   24.8863   74.1648 C   0  0  0  0  0  0  0  0  0  0  0  0
   19.3711   23.5489   74.3765 O   0  0  0  0  0  0  0  0  0  0  0  0
   22.5474   23.8648   74.4821 I   0  0  0  0  0  0  0  0  0  0  0  0
   20.6888   28.9384   73.5265 C   0  0  0  0  0  0  0  0  0  0  0  0
   21.5435   29.0564   72.3796 O   0  0  0  0  0  0  0  0  0  0  0  0
   22.7612   29.5986   72.6958 C   0  0  0  0  0  0  0  0  0  0  0  0
   23.7521   29.8472   71.9502 O   0  0  0  0  0  0  0  0  0  0  0  0
   22.7307   29.8613   74.1274 C   0  0  0  0  0  0  0  0  0  0  0  0
   21.5194   29.4760   74.6164 C   0  0  0  0  0  0  0  0  0  0  0  0
   21.2283   29.6211   75.9729 C   0  0  0  0  0  0  0  0  0  0  0  0
   22.1522   30.1544   76.8457 C   0  0  0  0  0  0  0  0  0  0  0  0
   23.3899   30.5474   76.3432 C   0  0  0  0  0  0  0  0  0  0  0  0
   23.6793   30.4065   75.0097 C   0  0  0  0  0  0  0  0  0  0  0  0
   25.2154   30.8974   74.4035 Cl  0  0  0  0  0  0  0  0  0  0  0  0
   24.6007   31.2290   77.3930 Cl  0  0  0  0  0  0  0  0  0  0  0  0
   21.7533   30.3226   78.5396 Cl  0  0  0  0  0  0  0  0  0  0  0  0
   19.6684   29.1112   76.5273 Cl  0  0  0  0  0  0  0  0  0  0  0  0
   19.5266   29.8433   73.3144 C   0  0  0  0  0  0  0  0  0  0  0  0
   18.2420   29.4197   73.3216 C   0  0  0  0  0  0  0  0  0  0  0  0
   17.2487   30.3736   73.1093 C   0  0  0  0  0  0  0  0  0  0  0  0
   17.5243   31.7055   72.8969 C   0  0  0  0  0  0  0  0  0  0  0  0
   18.8468   32.1014   72.8965 C   0  0  0  0  0  0  0  0  0  0  0  0
   19.8498   31.1897   73.1010 C   0  0  0  0  0  0  0  0  0  0  0  0
   19.3010   34.1328   72.5740 I   0  0  0  0  0  0  0  0  0  0  0  0
   16.5474   32.6444   72.6885 O   0  0  0  0  0  0  0  0  0  0  0  0
   15.2514   29.7290   73.1185 I   0  0  0  0  0  0  0  0  0  0  0  0
   17.9275   28.0894   73.5320 O   0  0  0  0  0  0  0  0  0  0  0  0
  1  2  1  0  0  0
  2  3  2  0  0  0
  2  7  1  0  0  0
  3  4  1  0  0  0
  3 33  1  0  0  0
  4  5  2  0  0  0
  4 10  1  0  0  0
  5  6  1  0  0  0
  6  7  2  0  0  0
  6  9  1  0  0  0
  7  8  1  0  0  0
 10 11  1  0  0  0
 10 15  1  0  0  0
 10 24  1  0  0  0
 11 12  1  0  0  0
 12 13  2  0  0  0
 12 14  1  0  0  0
 14 15  2  0  0  0
 14 19  1  0  0  0
 15 16  1  0  0  0
 16 17  2  0  0  0
 16 23  1  0  0  0
 17 18  1  0  0  0
 17 22  1  0  0  0
 18 19  2  0  0  0
 18 21  1  0  0  0
 19 20  1  0  0  0
 24 25  2  0  0  0
 24 29  1  0  0  0
 25 26  1  0  0  0
 25 33  1  0  0  0
 26 27  2  0  0  0
 26 32  1  0  0  0
 27 28  1  0  0  0
 27 31  1  0  0  0
 28 29  2  0  0  0
 28 30  1  0  0  0
M  CHG 1   8  -1
M  CHG 1  31  -1
M  END
> <minimizedAffinity>
-5.98774

$$$$
979


 29 33  0  0  0  0  0  0  0  0999 V2000
   24.8145   32.7524   69.4905 I   0  0  0  0  0  0  0  0  0  0  0  0
   23.2388   32.3566   70.8509 C   0  0  0  0  0  0  0  0  0  0  0  0
   22.1101   33.1878   70.7521 C   0  0  0  0  0  0  0  0  0  0  0  0
   21.0853   32.9543   71.6134 C   0  0  0  0  0  0  0  0  0  0  0  0
   21.1980   31.9103   72.5490 C   0  0  0  0  0  0  0  0  0  0  0  0
   22.2995   31.1004   72.6434 C   0  0  0  0  0  0  0  0  0  0  0  0
   23.3376   31.3371   71.7695 C   0  0  0  0  0  0  0  0  0  0  0  0
   24.4685   30.5365   71.8374 O   0  0  0  0  0  0  0  0  0  0  0  0
   22.4022   29.5431   74.0777 I   0  0  0  0  0  0  0  0  0  0  0  0
   19.8640   33.7682   71.5897 C   0  0  0  0  0  0  0  0  0  0  0  0
   19.5596   34.2962   72.8663 O   0  0  0  0  0  0  0  0  0  0  0  0
   18.3444   33.8688   73.3332 C   0  0  0  0  0  0  0  0  0  0  0  0
   17.7741   34.1451   74.4219 O   0  0  0  0  0  0  0  0  0  0  0  0
   17.7790   32.9936   72.3158 C   0  0  0  0  0  0  0  0  0  0  0  0
   18.6640   32.9272   71.2889 C   0  0  0  0  0  0  0  0  0  0  0  0
   18.3369   32.1364   70.1812 C   0  0  0  0  0  0  0  0  0  0  0  0
   17.1456   31.4490   70.1480 C   0  0  0  0  0  0  0  0  0  0  0  0
   16.2457   31.5140   71.1906 C   0  0  0  0  0  0  0  0  0  0  0  0
   16.5557   32.2877   72.2828 C   0  0  0  0  0  0  0  0  0  0  0  0
   19.8865   34.8221   70.5611 C   0  0  0  0  0  0  0  0  0  0  0  0
   20.9388   35.0039   69.7312 C   0  0  0  0  0  0  0  0  0  0  0  0
   20.8912   36.0213   68.7836 C   0  0  0  0  0  0  0  0  0  0  0  0
   19.7958   36.8320   68.6844 C   0  0  0  0  0  0  0  0  0  0  0  0
   18.7076   36.6749   69.5109 C   0  0  0  0  0  0  0  0  0  0  0  0
   18.7783   35.6691   70.4351 C   0  0  0  0  0  0  0  0  0  0  0  0
   17.0151   37.9326   69.3525 I   0  0  0  0  0  0  0  0  0  0  0  0
   19.7741   37.8392   67.7281 O   0  0  0  0  0  0  0  0  0  0  0  0
   22.5503   36.2997   67.4836 I   0  0  0  0  0  0  0  0  0  0  0  0
   22.0896   34.2011   69.7905 O   0  0  0  0  0  0  0  0  0  0  0  0
  1  2  1  0  0  0
  2  3  2  0  0  0
  2  7  1  0  0  0
  3  4  1  0  0  0
  3 29  1  0  0  0
  4  5  2  0  0  0
  4 10  1  0  0  0
  5  6  1  0  0  0
  6  7  2  0  0  0
  6  9  1  0  0  0
  7  8  1  0  0  0
 10 11  1  0  0  0
 10 15  1  0  0  0
 10 20  1  0  0  0
 11 12  1  0  0  0
 12 13  2  0  0  0
 12 14  1  0  0  0
 14 15  2  0  0  0
 14 19  1  0  0  0
 15 16  1  0  0  0
 16 17  2  0  0  0
 17 18  1  0  0  0
 18 19  2  0  0  0
 20 21  2  0  0  0
 20 25  1  0  0  0
 21 22  1  0  0  0
 21 29  1  0  0  0
 22 23  2  0  0  0
 22 28  1  0  0  0
 23 24  1  0  0  0
 23 27  1  0  0  0
 24 25  2  0  0  0
 24 26  1  0  0  0
M  CHG 1   8  -1
M  CHG 1  27  -1
M  END
> <minimizedAffinity>
-8.75326

$$$$
980


 27 30  0  0  0  0  0  0  0  0999 V2000
   20.4739   32.8991   72.1269 I   0  0  0  0  0  0  0  0  0  0  0  0
   22.0953   32.9799   70.7838 C   0  0  0  0  0  0  0  0  0  0  0  0
   22.1662   33.9032   69.7596 C   0  0  0  0  0  0  0  0  0  0  0  0
   23.2247   33.9592   68.8784 C   0  0  0  0  0  0  0  0  0  0  0  0
   24.2454   33.0420   69.0477 C   0  0  0  0  0  0  0  0  0  0  0  0
   24.1826   32.1108   70.0734 C   0  0  0  0  0  0  0  0  0  0  0  0
   23.1113   32.0610   70.9565 C   0  0  0  0  0  0  0  0  0  0  0  0
   23.0994   31.1052   71.9691 O   0  0  0  0  0  0  0  0  0  0  0  0
   23.3141   34.8748   67.8497 C   0  0  0  0  0  0  0  0  0  0  0  0
   22.2510   35.7663   67.7401 C   0  0  0  0  0  0  0  0  0  0  0  0
   21.1481   35.6746   68.6927 C   0  0  0  0  0  0  0  0  0  0  0  0
   20.1250   36.5853   68.5331 C   0  0  0  0  0  0  0  0  0  0  0  0
   20.1179   37.5395   67.5382 C   0  0  0  0  0  0  0  0  0  0  0  0
   19.1685   38.3675   67.4077 O   0  0  0  0  0  0  0  0  0  0  0  0
   21.1606   37.6267   66.6364 C   0  0  0  0  0  0  0  0  0  0  0  0
   22.2012   36.7291   66.7698 C   0  0  0  0  0  0  0  0  0  0  0  0
   18.4932   36.5321   69.8569 I   0  0  0  0  0  0  0  0  0  0  0  0
   21.1832   34.7570   69.6277 O   0  0  0  0  0  0  0  0  0  0  0  0
   24.4326   34.9371   66.9152 C   0  0  0  0  0  0  0  0  0  0  0  0
   25.5840   35.6142   67.3051 C   0  0  0  0  0  0  0  0  0  0  0  0
   26.6603   35.6987   66.4619 C   0  0  0  0  0  0  0  0  0  0  0  0
   26.5987   35.1091   65.2185 C   0  0  0  0  0  0  0  0  0  0  0  0
   25.4711   34.4326   64.8088 C   0  0  0  0  0  0  0  0  0  0  0  0
   24.4013   34.3598   65.6729 C   0  0  0  0  0  0  0  0  0  0  0  0
   25.6604   36.2431   68.6205 C   0  0  0  0  0  0  0  0  0  0  0  0
   25.1522   37.3584   68.8712 O   0  0  0  0  0  0  0  0  0  0  0  0
   26.3176   35.6115   69.6668 O   0  0  0  0  0  0  0  0  0  0  0  0
  1  2  1  0  0  0
  2  3  2  0  0  0
  2  7  1  0  0  0
  3  4  1  0  0  0
  3 18  1  0  0  0
  4  5  2  0  0  0
  4  9  1  0  0  0
  5  6  1  0  0  0
  6  7  2  0  0  0
  7  8  1  0  0  0
  9 10  2  0  0  0
  9 19  1  0  0  0
 10 11  1  0  0  0
 10 16  1  0  0  0
 11 12  2  0  0  0
 11 18  1  0  0  0
 12 13  1  0  0  0
 12 17  1  0  0  0
 13 14  2  0  0  0
 13 15  1  0  0  0
 15 16  2  0  0  0
 19 20  2  0  0  0
 19 24  1  0  0  0
 20 21  1  0  0  0
 20 25  1  0  0  0
 21 22  2  0  0  0
 22 23  1  0  0  0
 23 24  2  0  0  0
 25 26  2  0  0  0
 25 27  1  0  0  0
M  CHG 1   8  -1
M  END
> <minimizedAffinity>
-7.77703

$$$$
983


 34 37  0  0  0  0  0  0  0  0999 V2000
   18.7991   33.5966   70.6780 C   0  0  0  0  0  0  0  0  0  0  0  0
   17.4639   33.9791   70.8650 C   0  0  0  0  0  0  0  0  0  0  0  0
   17.4507   35.3356   70.6265 C   0  0  0  0  0  0  0  0  0  0  0  0
   18.6951   35.7274   70.3192 N   0  0  0  0  0  0  0  0  0  0  0  0
   19.5703   34.6760   70.3372 C   0  0  0  0  0  0  0  0  0  0  0  0
   16.2421   36.0184   70.7364 C   0  0  0  0  0  0  0  0  0  0  0  0
   15.1089   35.3310   71.0742 C   0  0  0  0  0  0  0  0  0  0  0  0
   15.1170   33.9540   71.3179 C   0  0  0  0  0  0  0  0  0  0  0  0
   16.3326   33.2719   71.2064 C   0  0  0  0  0  0  0  0  0  0  0  0
   13.5092   33.0574   71.7835 Br  0  0  0  0  0  0  0  0  0  0  0  0
   16.1935   37.8840   70.4145 Br  0  0  0  0  0  0  0  0  0  0  0  0
   18.9848   36.7198   70.0882 H   0  0  0  0  0  0  0  0  0  0  0  0
   20.9889   34.7556   70.0087 C   0  0  0  0  0  0  0  0  0  0  0  0
   21.8585   33.7359   70.2469 N   0  0  0  0  0  0  0  0  0  0  0  0
   23.1012   34.0723   69.8674 C   0  0  0  0  0  0  0  0  0  0  0  0
   23.0812   35.3523   69.3585 C   0  0  0  0  0  0  0  0  0  0  0  0
   21.7429   35.7477   69.4650 C   0  0  0  0  0  0  0  0  0  0  0  0
   24.2182   35.9740   68.8844 C   0  0  0  0  0  0  0  0  0  0  0  0
   25.4388   35.3175   68.9072 C   0  0  0  0  0  0  0  0  0  0  0  0
   25.4754   34.0289   69.4158 C   0  0  0  0  0  0  0  0  0  0  0  0
   24.3279   33.4238   69.8847 C   0  0  0  0  0  0  0  0  0  0  0  0
   24.4494   31.6493   70.5715 Br  0  0  0  0  0  0  0  0  0  0  0  0
   27.0317   36.1612   68.2550 Br  0  0  0  0  0  0  0  0  0  0  0  0
   21.6257   32.8079   70.6643 H   0  0  0  0  0  0  0  0  0  0  0  0
   21.3064   36.9957   69.0592 O   0  0  0  0  0  0  0  0  0  0  0  0
   20.5514   37.2533   67.5521 S   0  0  0  0  0  0  0  0  0  0  0  0
   20.7189   36.0601   66.6570 O   0  0  0  0  0  0  0  0  0  0  0  0
   21.1327   38.4379   66.8339 O   0  0  0  0  0  0  0  0  0  0  0  0
   18.9094   37.6068   67.7974 O   0  0  0  0  0  0  0  0  0  0  0  0
   19.2323   32.2844   70.8314 O   0  0  0  0  0  0  0  0  0  0  0  0
   19.7526   31.6935   72.3520 S   0  0  0  0  0  0  0  0  0  0  0  0
   20.4781   32.8247   73.0271 O   0  0  0  0  0  0  0  0  0  0  0  0
   18.5754   31.2869   73.2037 O   0  0  0  0  0  0  0  0  0  0  0  0
   20.8357   30.4206   72.1707 O   0  0  0  0  0  0  0  0  0  0  0  0
 31 32  2  0  0  0
 31 33  2  0  0  0
 31 34  1  0  0  0
 31 30  1  0  0  0
 30  1  1  0  0  0
  1  2  1  0  0  0
  1  5  2  0  0  0
  2  3  2  0  0  0
  2  9  1  0  0  0
  3  4  1  0  0  0
  3  6  1  0  0  0
  4  5  1  0  0  0
  5 13  1  0  0  0
 13 14  1  0  0  0
 13 17  2  0  0  0
 14 15  1  0  0  0
 15 16  2  0  0  0
 15 21  1  0  0  0
 16 17  1  0  0  0
 16 18  1  0  0  0
 17 25  1  0  0  0
 25 26  1  0  0  0
 26 27  2  0  0  0
 26 28  2  0  0  0
 26 29  1  0  0  0
 18 19  2  0  0  0
 19 20  1  0  0  0
 19 23  1  0  0  0
 20 21  2  0  0  0
 21 22  1  0  0  0
  6  7  2  0  0  0
  6 11  1  0  0  0
  7  8  1  0  0  0
  8  9  2  0  0  0
  8 10  1  0  0  0
  4 12  1  0  0  0
 14 24  1  0  0  0
M  END
> <minimizedAffinity>
-8.75160

$$$$
985


 28 31  0  0  0  0  0  0  0  0999 V2000
   16.4639   34.3068   71.0077 N   0  0  0  0  0  0  0  0  0  0  0  0
   15.2645   33.7553   71.2278 C   0  0  0  0  0  0  0  0  0  0  0  0
   14.9003   32.5656   71.7798 N   0  0  0  0  0  0  0  0  0  0  0  0
   13.6339   32.1830   71.9181 C   0  0  0  0  0  0  0  0  0  0  0  0
   12.6635   33.0110   71.4909 N   0  0  0  0  0  0  0  0  0  0  0  0
   12.9543   34.2052   70.9349 C   0  0  0  0  0  0  0  0  0  0  0  0
   14.2669   34.6041   70.7905 C   0  0  0  0  0  0  0  0  0  0  0  0
   14.8919   35.6843   70.2996 N   0  0  0  0  0  0  0  0  0  0  0  0
   16.2263   35.4994   70.4332 C   0  0  0  0  0  0  0  0  0  0  0  0
   17.5935   36.7295   69.8965 Br  0  0  0  0  0  0  0  0  0  0  0  0
   11.9539   35.0654   70.4922 O   0  0  0  0  0  0  0  0  0  0  0  0
   13.3028   30.9263   72.5024 N   0  0  0  0  0  0  0  0  0  0  0  0
   11.1561   35.1940   71.1326 H   0  0  0  0  0  0  0  0  0  0  0  0
   13.0851   30.1486   71.8428 H   0  0  0  0  0  0  0  0  0  0  0  0
   13.2753   30.7779   73.5423 H   0  0  0  0  0  0  0  0  0  0  0  0
   21.4505   31.7815   71.9752 P   0  0  0  0  0  0  0  0  0  0  0  0
   21.2594   31.8370   73.4749 O   0  0  0  0  0  0  0  0  0  0  0  0
   19.9974   31.3537   71.1890 O   0  0  0  0  0  0  0  0  0  0  0  0
   19.5652   32.4954   70.5188 C   0  0  0  0  0  0  0  0  0  0  0  0
   19.8466   33.6685   71.4657 C   0  0  0  0  0  0  0  0  0  0  0  0
   18.8022   34.5129   71.1801 O   0  0  0  0  0  0  0  0  0  0  0  0
   17.7083   33.6656   71.3542 C   0  0  0  0  0  0  0  0  0  0  0  0
   18.0584   32.5432   70.3789 C   0  0  0  0  0  0  0  0  0  0  0  0
   17.4439   31.3575   70.6942 O   0  0  0  0  0  0  0  0  0  0  0  0
   21.1965   34.1976   71.1576 C   0  0  0  0  0  0  0  0  0  0  0  0
   22.1263   33.1692   71.3453 O   0  0  0  0  0  0  0  0  0  0  0  0
   22.5293   30.4849   71.6857 O   0  0  0  0  0  0  0  0  0  0  0  0
   17.0663   30.9344   69.8591 H   0  0  0  0  0  0  0  0  0  0  0  0
 16 17  2  0  0  0
 16 18  1  0  0  0
 16 26  1  0  0  0
 16 27  1  0  0  0
 18 19  1  0  0  0
 19 20  1  0  0  0
 19 23  1  0  0  0
 20 21  1  0  0  0
 20 25  1  0  0  0
 21 22  1  0  0  0
 22 23  1  0  0  0
 22  1  1  0  0  0
 23 24  1  0  0  0
  1  2  1  0  0  0
  1  9  1  0  0  0
  2  3  2  0  0  0
  2  7  1  0  0  0
  3  4  1  0  0  0
  4  5  2  0  0  0
  4 12  1  0  0  0
  5  6  1  0  0  0
  6  7  2  0  0  0
  6 11  1  0  0  0
  7  8  1  0  0  0
  8  9  2  0  0  0
  9 10  1  0  0  0
 25 26  1  0  0  0
 24 28  1  0  0  0
 11 13  1  0  0  0
 12 14  1  0  0  0
 12 15  1  0  0  0
M  END
> <minimizedAffinity>
-8.90430

$$$$
991


 34 39  0  0  0  0  0  0  0  0999 V2000
   23.7569   32.9344   69.8394 N   0  0  0  0  0  0  0  0  0  0  0  0
   22.4585   33.1903   70.1382 C   0  0  0  0  0  0  0  0  0  0  0  0
   21.9197   32.1629   70.8830 C   0  0  0  0  0  0  0  0  0  0  0  0
   22.9222   31.2719   71.0323 N   0  0  0  0  0  0  0  0  0  0  0  0
   24.0186   31.7420   70.4031 C   0  0  0  0  0  0  0  0  0  0  0  0
   25.7319   30.9000   70.2848 Br  0  0  0  0  0  0  0  0  0  0  0  0
   20.6020   32.2346   71.2885 C   0  0  0  0  0  0  0  0  0  0  0  0
   20.1030   31.3085   71.9650 O   0  0  0  0  0  0  0  0  0  0  0  0
   19.8095   33.2866   70.9809 N   0  0  0  0  0  0  0  0  0  0  0  0
   20.3555   34.2778   70.2532 C   0  0  0  0  0  0  0  0  0  0  0  0
   19.3792   35.1874   70.0851 N   0  0  0  0  0  0  0  0  0  0  0  0
   18.2346   34.8076   70.6809 C   0  0  0  0  0  0  0  0  0  0  0  0
   18.5100   33.5851   71.2567 C   0  0  0  0  0  0  0  0  0  0  0  0
   21.6545   34.2253   69.8429 N   0  0  0  0  0  0  0  0  0  0  0  0
   22.0740   34.9980   69.2783 H   0  0  0  0  0  0  0  0  0  0  0  0
   25.7988   36.7119   65.9213 P   0  0  0  0  0  0  0  0  0  0  0  0
   25.8741   37.1085   64.2321 S   0  0  0  0  0  0  0  0  0  0  0  0
   25.6289   35.0267   66.0549 O   0  0  0  0  0  0  0  0  0  0  0  0
   24.6020   34.8026   66.9673 C   0  0  0  0  0  0  0  0  0  0  0  0
   24.8405   35.7815   68.1194 C   0  0  0  0  0  0  0  0  0  0  0  0
   24.3766   35.1180   69.2216 O   0  0  0  0  0  0  0  0  0  0  0  0
   24.6801   33.7665   69.0718 C   0  0  0  0  0  0  0  0  0  0  0  0
   24.6705   33.4528   67.6157 C   0  0  0  0  0  0  0  0  0  0  0  0
   25.8397   32.7829   67.2325 O   0  0  0  0  0  0  0  0  0  0  0  0
   24.0621   37.0305   67.7815 C   0  0  0  0  0  0  0  0  0  0  0  0
   24.4592   37.5202   66.5579 O   0  0  0  0  0  0  0  0  0  0  0  0
   27.1673   37.2642   66.7443 O   0  0  0  0  0  0  0  0  0  0  0  0
   26.6294   33.3585   67.2890 H   0  0  0  0  0  0  0  0  0  0  0  0
   16.9585   35.5342   70.7138 C   0  0  0  0  0  0  0  0  0  0  0  0
   16.9104   36.8681   70.3772 C   0  0  0  0  0  0  0  0  0  0  0  0
   15.7188   37.5819   70.3983 C   0  0  0  0  0  0  0  0  0  0  0  0
   14.5636   36.9307   70.7660 C   0  0  0  0  0  0  0  0  0  0  0  0
   14.5690   35.5885   71.1128 C   0  0  0  0  0  0  0  0  0  0  0  0
   15.7791   34.9305   71.0734 C   0  0  0  0  0  0  0  0  0  0  0  0
 16 17  2  0  0  0
 16 18  1  0  0  0
 16 26  1  0  0  0
 16 27  1  0  0  0
 18 19  1  0  0  0
 19 20  1  0  0  0
 19 23  1  0  0  0
 20 21  1  0  0  0
 20 25  1  0  0  0
 21 22  1  0  0  0
 22 23  1  0  0  0
 22  1  1  0  0  0
 23 24  1  0  0  0
  1  2  1  0  0  0
  1  5  1  0  0  0
  2  3  2  0  0  0
  2 14  1  0  0  0
  3  4  1  0  0  0
  3  7  1  0  0  0
  4  5  2  0  0  0
  5  6  1  0  0  0
  7  8  2  0  0  0
  7  9  1  0  0  0
  9 10  1  0  0  0
  9 13  1  0  0  0
 10 11  2  0  0  0
 10 14  1  0  0  0
 11 12  1  0  0  0
 12 13  2  0  0  0
 12 29  1  0  0  0
 29 30  2  0  0  0
 29 34  1  0  0  0
 30 31  1  0  0  0
 31 32  2  0  0  0
 32 33  1  0  0  0
 33 34  2  0  0  0
 25 26  1  0  0  0
 24 28  1  0  0  0
 14 15  1  0  0  0
M  END
> <minimizedAffinity>
-9.27990

$$$$
993


 26 29  0  0  0  0  0  0  0  0999 V2000
   21.1018   32.3751   71.2348 P   0  0  0  0  0  0  0  0  0  0  0  0
   21.4596   33.5830   70.0269 S   0  0  0  0  0  0  0  0  0  0  0  0
   19.6658   31.5516   70.8162 O   0  0  0  0  0  0  0  0  0  0  0  0
   18.6293   32.4252   71.0349 C   0  0  0  0  0  0  0  0  0  0  0  0
   18.5880   32.7723   72.5292 C   0  0  0  0  0  0  0  0  0  0  0  0
   17.3204   33.3459   72.6117 O   0  0  0  0  0  0  0  0  0  0  0  0
   16.4752   32.4789   71.9611 C   0  0  0  0  0  0  0  0  0  0  0  0
   17.2647   31.7795   70.8837 C   0  0  0  0  0  0  0  0  0  0  0  0
   17.4100   30.4441   71.2837 O   0  0  0  0  0  0  0  0  0  0  0  0
   19.6861   33.7203   72.8977 C   0  0  0  0  0  0  0  0  0  0  0  0
   20.8965   33.0696   72.7401 O   0  0  0  0  0  0  0  0  0  0  0  0
   22.3510   31.2672   71.2459 O   0  0  0  0  0  0  0  0  0  0  0  0
   17.1325   29.8065   70.6005 H   0  0  0  0  0  0  0  0  0  0  0  0
   15.3624   33.1509   71.3175 N   0  0  0  0  0  0  0  0  0  0  0  0
   15.3712   34.4580   70.9529 C   0  0  0  0  0  0  0  0  0  0  0  0
   16.3151   35.4275   71.0662 N   0  0  0  0  0  0  0  0  0  0  0  0
   16.0857   36.6781   70.6204 C   0  0  0  0  0  0  0  0  0  0  0  0
   14.8944   36.9803   70.0483 N   0  0  0  0  0  0  0  0  0  0  0  0
   13.9341   36.0479   69.9183 C   0  0  0  0  0  0  0  0  0  0  0  0
   14.1570   34.7604   70.3711 C   0  0  0  0  0  0  0  0  0  0  0  0
   13.4152   33.6381   70.3836 N   0  0  0  0  0  0  0  0  0  0  0  0
   14.1597   32.6693   70.9611 C   0  0  0  0  0  0  0  0  0  0  0  0
   13.6500   30.8435   71.2665 Br  0  0  0  0  0  0  0  0  0  0  0  0
   12.6817   36.3827   69.3116 N   0  0  0  0  0  0  0  0  0  0  0  0
   12.6430   37.2220   68.6706 H   0  0  0  0  0  0  0  0  0  0  0  0
   11.8157   35.8334   69.4778 H   0  0  0  0  0  0  0  0  0  0  0  0
  1  2  2  0  0  0
  1  3  1  0  0  0
  1 11  1  0  0  0
  1 12  1  0  0  0
  3  4  1  0  0  0
  4  5  1  0  0  0
  4  8  1  0  0  0
  5  6  1  0  0  0
  5 10  1  0  0  0
  6  7  1  0  0  0
  7  8  1  0  0  0
  7 14  1  0  0  0
  8  9  1  0  0  0
 14 15  1  0  0  0
 14 22  1  0  0  0
 15 16  2  0  0  0
 15 20  1  0  0  0
 16 17  1  0  0  0
 17 18  2  0  0  0
 18 19  1  0  0  0
 19 20  2  0  0  0
 19 24  1  0  0  0
 20 21  1  0  0  0
 21 22  2  0  0  0
 22 23  1  0  0  0
 10 11  1  0  0  0
  9 13  1  0  0  0
 24 25  1  0  0  0
 24 26  1  0  0  0
M  END
> <minimizedAffinity>
-8.13015

$$$$
999


 35 38  0  0  0  0  0  0  0  0999 V2000
   23.8094   33.5047   69.3347 N   0  0  0  0  0  0  0  0  0  0  0  0
   23.2742   32.9709   70.5329 C   0  0  0  0  0  0  0  0  0  0  0  0
   23.9222   32.0670   71.1251 O   0  0  0  0  0  0  0  0  0  0  0  0
   23.2509   34.2574   68.8586 H   0  0  0  0  0  0  0  0  0  0  0  0
   24.3275   33.4898   66.1278 S   0  0  0  0  0  0  0  0  0  0  0  0
   25.4846   33.4018   67.4922 C   0  0  0  0  0  0  0  0  0  0  0  0
   25.6425   34.7147   68.0324 N   0  0  0  0  0  0  0  0  0  0  0  0
   25.3367   35.9819   67.4435 C   0  0  0  0  0  0  0  0  0  0  0  0
   25.1047   36.0608   66.1711 C   0  0  0  0  0  0  0  0  0  0  0  0
   25.1345   34.8573   65.2179 C   0  0  0  0  0  0  0  0  0  0  0  0
   26.1217   34.0337   69.1787 C   0  0  0  0  0  0  0  0  0  0  0  0
   26.9466   34.0697   70.0989 O   0  0  0  0  0  0  0  0  0  0  0  0
   25.0528   33.0072   68.8415 C   0  0  0  0  0  0  0  0  0  0  0  0
   25.3170   37.1440   68.3792 C   0  0  0  0  0  0  0  0  0  0  0  0
   26.1108   38.0594   68.4144 O   0  0  0  0  0  0  0  0  0  0  0  0
   24.2856   37.2201   69.3339 O   0  0  0  0  0  0  0  0  0  0  0  0
   24.7790   37.2596   65.4416 C   0  0  0  0  0  0  0  0  0  0  0  0
   23.5123   37.6221   65.1269 O   0  0  0  0  0  0  0  0  0  0  0  0
   22.4722   37.6813   66.0622 C   0  0  0  0  0  0  0  0  0  0  0  0
   22.3130   38.7590   66.6648 O   0  0  0  0  0  0  0  0  0  0  0  0
   21.6488   36.4653   66.2618 C   0  0  0  0  0  0  0  0  0  0  0  0
   22.0026   33.4373   71.0943 C   0  0  0  0  0  0  0  0  0  0  0  0
   21.1410   32.8008   71.8242 O   0  0  0  0  0  0  0  0  0  0  0  0
   20.1236   33.5343   72.1409 C   0  0  0  0  0  0  0  0  0  0  0  0
   20.3225   34.7931   71.5624 C   0  0  0  0  0  0  0  0  0  0  0  0
   21.5190   34.7120   70.9023 C   0  0  0  0  0  0  0  0  0  0  0  0
   18.9222   33.1582   72.9724 C   0  0  0  0  0  0  0  0  0  0  0  0
   17.9562   34.1770   72.9434 O   0  0  0  0  0  0  0  0  0  0  0  0
   16.8410   34.2068   72.1560 C   0  0  0  0  0  0  0  0  0  0  0  0
   15.8392   33.2403   72.1690 C   0  0  0  0  0  0  0  0  0  0  0  0
   14.7540   33.3711   71.3317 C   0  0  0  0  0  0  0  0  0  0  0  0
   14.5925   34.4227   70.4602 C   0  0  0  0  0  0  0  0  0  0  0  0
   15.5839   35.3888   70.4409 C   0  0  0  0  0  0  0  0  0  0  0  0
   16.6809   35.2635   71.2831 C   0  0  0  0  0  0  0  0  0  0  0  0
   13.0660   34.5510   69.3236 Br  0  0  0  0  0  0  0  0  0  0  0  0
  5  6  1  0  0  0
  5 10  1  0  0  0
  6  7  1  0  0  0
  6 13  1  0  0  0
  7  8  1  0  0  0
  7 11  1  0  0  0
  8  9  2  0  0  0
  8 14  1  0  0  0
  9 10  1  0  0  0
  9 17  1  0  0  0
 17 18  1  0  0  0
 18 19  1  0  0  0
 19 20  2  0  0  0
 19 21  1  0  0  0
 14 15  2  0  0  0
 14 16  1  0  0  0
 11 12  2  0  0  0
 11 13  1  0  0  0
 13  1  1  0  0  0
  1  2  1  0  0  0
  2  3  2  0  0  0
  2 22  1  0  0  0
 22 23  1  0  0  0
 22 26  2  0  0  0
 23 24  1  0  0  0
 24 25  2  0  0  0
 24 27  1  0  0  0
 25 26  1  0  0  0
 27 28  1  0  0  0
 28 29  1  0  0  0
 29 30  2  0  0  0
 29 34  1  0  0  0
 30 31  1  0  0  0
 31 32  2  0  0  0
 32 33  1  0  0  0
 32 35  1  0  0  0
 33 34  2  0  0  0
  1  4  1  0  0  0
M  END
> <minimizedAffinity>
-8.11916

$$$$
1001


 26 29  0  0  0  0  0  0  0  0999 V2000
   20.8473   32.3068   72.4226 P   0  0  0  0  0  0  0  0  0  0  0  0
   22.0398   32.3483   71.4651 O   0  0  0  0  0  0  0  0  0  0  0  0
   19.6359   31.4116   71.6818 O   0  0  0  0  0  0  0  0  0  0  0  0
   18.4172   32.0339   71.7634 C   0  0  0  0  0  0  0  0  0  0  0  0
   18.3922   32.7744   73.1075 C   0  0  0  0  0  0  0  0  0  0  0  0
   17.0835   32.8417   73.4821 O   0  0  0  0  0  0  0  0  0  0  0  0
   16.3789   31.8207   72.9067 C   0  0  0  0  0  0  0  0  0  0  0  0
   17.2551   31.0945   71.9459 C   0  0  0  0  0  0  0  0  0  0  0  0
   17.6945   29.8694   72.4074 O   0  0  0  0  0  0  0  0  0  0  0  0
   19.0585   34.0910   72.8678 C   0  0  0  0  0  0  0  0  0  0  0  0
   20.4118   33.8848   72.7468 O   0  0  0  0  0  0  0  0  0  0  0  0
   21.4060   31.4960   73.8214 O   0  0  0  0  0  0  0  0  0  0  0  0
   17.9240   29.2417   71.7032 H   0  0  0  0  0  0  0  0  0  0  0  0
   15.2013   32.3969   72.2710 N   0  0  0  0  0  0  0  0  0  0  0  0
   15.1754   33.5288   71.5288 C   0  0  0  0  0  0  0  0  0  0  0  0
   16.1562   34.3827   71.1898 N   0  0  0  0  0  0  0  0  0  0  0  0
   15.8664   35.4517   70.4304 C   0  0  0  0  0  0  0  0  0  0  0  0
   14.6021   35.6566   70.0178 N   0  0  0  0  0  0  0  0  0  0  0  0
   13.5742   34.8476   70.3163 C   0  0  0  0  0  0  0  0  0  0  0  0
   13.8805   33.7409   71.1043 C   0  0  0  0  0  0  0  0  0  0  0  0
   13.1275   32.7531   71.5804 N   0  0  0  0  0  0  0  0  0  0  0  0
   13.9376   31.9439   72.2864 C   0  0  0  0  0  0  0  0  0  0  0  0
   13.4308   30.3347   73.2208 Br  0  0  0  0  0  0  0  0  0  0  0  0
   12.2362   35.0532   69.8864 N   0  0  0  0  0  0  0  0  0  0  0  0
   11.6112   35.6672   70.4886 H   0  0  0  0  0  0  0  0  0  0  0  0
   11.8312   34.6527   69.0353 H   0  0  0  0  0  0  0  0  0  0  0  0
  1  2  2  0  0  0
  1  3  1  0  0  0
  1 11  1  0  0  0
  1 12  1  0  0  0
  3  4  1  0  0  0
  4  5  1  0  0  0
  4  8  1  0  0  0
  5  6  1  0  0  0
  5 10  1  0  0  0
  6  7  1  0  0  0
  7  8  1  0  0  0
  7 14  1  0  0  0
  8  9  1  0  0  0
 14 15  1  0  0  0
 14 22  1  0  0  0
 15 16  2  0  0  0
 15 20  1  0  0  0
 16 17  1  0  0  0
 17 18  2  0  0  0
 18 19  1  0  0  0
 19 20  2  0  0  0
 19 24  1  0  0  0
 20 21  1  0  0  0
 21 22  2  0  0  0
 22 23  1  0  0  0
 10 11  1  0  0  0
  9 13  1  0  0  0
 24 25  1  0  0  0
 24 26  1  0  0  0
M  END
> <minimizedAffinity>
-8.30694

$$$$
1008


 29 32  0  0  0  0  0  0  0  0999 V2000
   20.8571   37.1729   67.0241 C   0  0  0  0  0  0  0  0  0  0  0  0
   19.8415   37.0430   66.2975 O   0  0  0  0  0  0  0  0  0  0  0  0
   20.7104   37.3008   68.4372 N   0  0  0  0  0  0  0  0  0  0  0  0
   19.3976   37.2852   69.0458 C   0  0  0  0  0  0  0  0  0  0  0  0
   19.3515   36.5144   70.3282 C   0  0  0  0  0  0  0  0  0  0  0  0
   20.6199   35.6585   70.3768 C   0  0  0  0  0  0  0  0  0  0  0  0
   21.7624   36.6357   70.5490 C   0  0  0  0  0  0  0  0  0  0  0  0
   21.8638   37.4506   69.2855 C   0  0  0  0  0  0  0  0  0  0  0  0
   18.1281   35.6601   70.4589 C   0  0  0  0  0  0  0  0  0  0  0  0
   16.8384   36.0878   70.4436 N   0  0  0  0  0  0  0  0  0  0  0  0
   16.0059   35.0523   70.5841 C   0  0  0  0  0  0  0  0  0  0  0  0
   16.8190   33.9585   70.6881 N   0  0  0  0  0  0  0  0  0  0  0  0
   18.0828   34.3275   70.6128 N   0  0  0  0  0  0  0  0  0  0  0  0
   14.5737   35.4714   70.5743 C   0  0  0  0  0  0  0  0  0  0  0  0
   14.6669   36.8758   70.0638 C   0  0  0  0  0  0  0  0  0  0  0  0
   16.0892   37.3255   70.3225 C   0  0  0  0  0  0  0  0  0  0  0  0
   24.1583   36.0203   65.6800 C   0  0  0  0  0  0  0  0  0  0  0  0
   22.9123   36.0211   66.2632 C   0  0  0  0  0  0  0  0  0  0  0  0
   22.1694   37.1882   66.4094 C   0  0  0  0  0  0  0  0  0  0  0  0
   22.7244   38.3613   65.9477 C   0  0  0  0  0  0  0  0  0  0  0  0
   23.9872   38.3687   65.3559 C   0  0  0  0  0  0  0  0  0  0  0  0
   24.7083   37.2036   65.2198 C   0  0  0  0  0  0  0  0  0  0  0  0
   21.7754   39.9927   66.1115 Br  0  0  0  0  0  0  0  0  0  0  0  0
   25.0355   34.5269   65.5276 S   0  0  0  0  0  0  0  0  0  0  0  0
   26.3378   34.6456   66.2921 O   0  0  0  0  0  0  0  0  0  0  0  0
   25.3583   34.2415   64.0813 O   0  0  0  0  0  0  0  0  0  0  0  0
   24.1501   33.2401   66.2354 N   0  0  0  0  0  0  0  0  0  0  0  0
   23.7549   32.5943   65.5099 H   0  0  0  0  0  0  0  0  0  0  0  0
   23.3779   33.6190   66.8385 H   0  0  0  0  0  0  0  0  0  0  0  0
 24 25  2  0  0  0
 24 26  2  0  0  0
 24 27  1  0  0  0
 24 17  1  0  0  0
 17 18  2  0  0  0
 17 22  1  0  0  0
 18 19  1  0  0  0
 19 20  2  0  0  0
 19  1  1  0  0  0
 20 21  1  0  0  0
 20 23  1  0  0  0
 21 22  2  0  0  0
  1  2  2  0  0  0
  1  3  1  0  0  0
  3  4  1  0  0  0
  3  8  1  0  0  0
  4  5  1  0  0  0
  5  6  1  0  0  0
  5  9  1  0  0  0
  6  7  1  0  0  0
  7  8  1  0  0  0
  9 10  1  0  0  0
  9 13  2  0  0  0
 10 11  1  0  0  0
 10 16  1  0  0  0
 11 12  2  0  0  0
 11 14  1  0  0  0
 12 13  1  0  0  0
 14 15  1  0  0  0
 15 16  1  0  0  0
 27 28  1  0  0  0
 27 29  1  0  0  0
M  END
> <minimizedAffinity>
-8.69252

$$$$
1011


 29 32  0  0  0  0  0  0  0  0999 V2000
   19.6955   35.1589   70.6313 C   0  0  0  0  0  0  0  0  0  0  0  0
   18.3172   35.0350   70.8325 C   0  0  0  0  0  0  0  0  0  0  0  0
   17.4514   35.9939   70.3541 C   0  0  0  0  0  0  0  0  0  0  0  0
   17.8889   37.1094   69.6626 C   0  0  0  0  0  0  0  0  0  0  0  0
   19.2343   37.2393   69.4602 C   0  0  0  0  0  0  0  0  0  0  0  0
   20.1196   36.2696   69.9429 C   0  0  0  0  0  0  0  0  0  0  0  0
   22.0065   36.4652   69.6637 Br  0  0  0  0  0  0  0  0  0  0  0  0
   16.7162   37.9518   69.2957 C   0  0  0  0  0  0  0  0  0  0  0  0
   15.6480   37.4490   70.2902 C   0  0  0  0  0  0  0  0  0  0  0  0
   16.0161   36.0510   70.4465 N   0  0  0  0  0  0  0  0  0  0  0  0
   15.1948   34.9167   70.6441 C   0  0  0  0  0  0  0  0  0  0  0  0
   15.6519   33.7547   70.7430 O   0  0  0  0  0  0  0  0  0  0  0  0
   13.7281   35.1086   70.7376 C   0  0  0  0  0  0  0  0  0  0  0  0
   12.9510   33.8720   70.9365 C   0  0  0  0  0  0  0  0  0  0  0  0
   12.8402   34.6416   69.6431 C   0  0  0  0  0  0  0  0  0  0  0  0
   20.7674   33.9278   71.2427 S   0  0  0  0  0  0  0  0  0  0  0  0
   20.6415   32.6655   70.3975 O   0  0  0  0  0  0  0  0  0  0  0  0
   22.1984   34.3385   71.1571 O   0  0  0  0  0  0  0  0  0  0  0  0
   20.3154   33.4669   72.8394 N   0  0  0  0  0  0  0  0  0  0  0  0
   21.1144   33.6709   73.4710 H   0  0  0  0  0  0  0  0  0  0  0  0
   19.9239   32.0747   72.9306 C   0  0  0  0  0  0  0  0  0  0  0  0
   18.4031   32.0613   72.9686 C   0  0  0  0  0  0  0  0  0  0  0  0
   17.8450   31.1902   71.8748 C   0  0  0  0  0  0  0  0  0  0  0  0
   16.5523   30.7545   72.2497 N   0  0  0  0  0  0  0  0  0  0  0  0
   15.9097   31.4865   73.2820 C   0  0  0  0  0  0  0  0  0  0  0  0
   14.8238   30.6119   73.8857 C   0  0  0  0  0  0  0  0  0  0  0  0
   14.1209   29.9311   72.9119 O   0  0  0  0  0  0  0  0  0  0  0  0
   14.2625   30.4759   71.6413 C   0  0  0  0  0  0  0  0  0  0  0  0
   15.7180   30.2515   71.2214 C   0  0  0  0  0  0  0  0  0  0  0  0
 16 17  2  0  0  0
 16 18  2  0  0  0
 16 19  1  0  0  0
 16  1  1  0  0  0
 19 21  1  0  0  0
 21 22  1  0  0  0
 22 23  1  0  0  0
 23 24  1  0  0  0
 24 25  1  0  0  0
 24 29  1  0  0  0
 25 26  1  0  0  0
 26 27  1  0  0  0
 27 28  1  0  0  0
 28 29  1  0  0  0
  1  2  2  0  0  0
  1  6  1  0  0  0
  2  3  1  0  0  0
  3  4  2  0  0  0
  3 10  1  0  0  0
  4  5  1  0  0  0
  4  8  1  0  0  0
  5  6  2  0  0  0
  6  7  1  0  0  0
  8  9  1  0  0  0
  9 10  1  0  0  0
 10 11  1  0  0  0
 11 12  2  0  0  0
 11 13  1  0  0  0
 13 14  1  0  0  0
 13 15  1  0  0  0
 14 15  1  0  0  0
 19 20  1  0  0  0
M  END
> <minimizedAffinity>
-8.29682

$$$$
1027


 32 35  0  0  0  0  0  0  0  0999 V2000
   17.4923   31.1819   71.6876 S   0  0  0  0  0  0  0  0  0  0  0  0
   17.1845   29.6914   71.8341 O   0  0  0  0  0  0  0  0  0  0  0  0
   18.2714   31.2732   70.3962 O   0  0  0  0  0  0  0  0  0  0  0  0
   15.9535   31.9834   71.5270 C   0  0  0  0  0  0  0  0  0  0  0  0
   15.9236   33.2481   70.9259 C   0  0  0  0  0  0  0  0  0  0  0  0
   14.7845   34.0104   70.7994 C   0  0  0  0  0  0  0  0  0  0  0  0
   13.5835   33.5355   71.2803 C   0  0  0  0  0  0  0  0  0  0  0  0
   13.5932   32.2966   71.8716 C   0  0  0  0  0  0  0  0  0  0  0  0
   14.7585   31.5224   71.9968 C   0  0  0  0  0  0  0  0  0  0  0  0
   14.6264   29.7636   72.7499 Br  0  0  0  0  0  0  0  0  0  0  0  0
   12.4982   34.5157   71.0321 C   0  0  0  0  0  0  0  0  0  0  0  0
   13.1239   35.4017   69.9539 C   0  0  0  0  0  0  0  0  0  0  0  0
   14.5528   35.3009   70.2308 N   0  0  0  0  0  0  0  0  0  0  0  0
   15.4903   36.3179   69.9789 C   0  0  0  0  0  0  0  0  0  0  0  0
   15.0835   37.4029   69.4350 O   0  0  0  0  0  0  0  0  0  0  0  0
   16.9387   36.2591   70.2900 C   0  0  0  0  0  0  0  0  0  0  0  0
   18.4517   31.6297   72.9869 N   0  0  0  0  0  0  0  0  0  0  0  0
   18.5374   32.9542   73.4068 C   0  0  0  0  0  0  0  0  0  0  0  0
   19.5501   33.7802   72.7123 C   0  0  0  0  0  0  0  0  0  0  0  0
   19.4124   35.0231   72.6119 O   0  0  0  0  0  0  0  0  0  0  0  0
   20.6708   33.0856   72.1762 N   0  0  0  0  0  0  0  0  0  0  0  0
   20.8472   31.7434   72.5984 C   0  0  0  0  0  0  0  0  0  0  0  0
   22.0157   31.2640   72.5861 O   0  0  0  0  0  0  0  0  0  0  0  0
   19.7140   30.9067   73.0452 C   0  0  0  0  0  0  0  0  0  0  0  0
   21.5699   33.7451   71.2534 C   0  0  0  0  0  0  0  0  0  0  0  0
   21.2552   33.5271   69.8138 C   0  0  0  0  0  0  0  0  0  0  0  0
   21.0493   34.7329   69.0139 C   0  0  0  0  0  0  0  0  0  0  0  0
   20.5024   35.8713   69.5376 C   0  0  0  0  0  0  0  0  0  0  0  0
   20.3332   36.9634   68.7337 C   0  0  0  0  0  0  0  0  0  0  0  0
   20.7009   36.9545   67.3926 C   0  0  0  0  0  0  0  0  0  0  0  0
   21.2460   35.8041   66.8922 C   0  0  0  0  0  0  0  0  0  0  0  0
   21.4303   34.6883   67.6722 C   0  0  0  0  0  0  0  0  0  0  0  0
  1  2  2  0  0  0
  1  3  2  0  0  0
  1 17  1  0  0  0
  1  4  1  0  0  0
 17 18  1  0  0  0
 17 24  1  0  0  0
 18 19  1  0  0  0
 19 20  2  0  0  0
 19 21  1  0  0  0
 21 22  1  0  0  0
 21 25  1  0  0  0
 22 23  2  0  0  0
 22 24  1  0  0  0
 25 26  1  0  0  0
 26 27  1  0  0  0
 27 28  2  0  0  0
 27 32  1  0  0  0
 28 29  1  0  0  0
 29 30  2  0  0  0
 30 31  1  0  0  0
 31 32  2  0  0  0
  4  5  2  0  0  0
  4  9  1  0  0  0
  5  6  1  0  0  0
  6  7  2  0  0  0
  6 13  1  0  0  0
  7  8  1  0  0  0
  7 11  1  0  0  0
  8  9  2  0  0  0
  9 10  1  0  0  0
 11 12  1  0  0  0
 12 13  1  0  0  0
 13 14  1  0  0  0
 14 15  2  0  0  0
 14 16  1  0  0  0
M  END
> <minimizedAffinity>
-9.52665

$$$$
1028


 25 28  0  0  0  0  0  0  0  0999 V2000
   21.9188   36.9741   66.2336 N   0  0  0  0  0  0  0  0  0  0  0  0
   20.8475   36.0963   66.5435 C   0  0  0  0  0  0  0  0  0  0  0  0
   20.7092   36.6877   67.8919 C   0  0  0  0  0  0  0  0  0  0  0  0
   21.6945   37.7039   67.4307 C   0  0  0  0  0  0  0  0  0  0  0  0
   19.4189   37.2645   68.2164 N   0  0  0  0  0  0  0  0  0  0  0  0
   18.6489   38.0087   67.4661 N   0  0  0  0  0  0  0  0  0  0  0  0
   17.5350   38.3451   68.1307 N   0  0  0  0  0  0  0  0  0  0  0  0
   17.5852   37.7981   69.3578 C   0  0  0  0  0  0  0  0  0  0  0  0
   18.7920   37.1142   69.3949 C   0  0  0  0  0  0  0  0  0  0  0  0
   16.5652   37.8990   70.4549 C   0  0  0  0  0  0  0  0  0  0  0  0
   15.6588   36.7731   70.3220 N   0  0  0  0  0  0  0  0  0  0  0  0
   14.3614   36.8126   69.7170 C   0  0  0  0  0  0  0  0  0  0  0  0
   13.8475   35.4014   69.7448 C   0  0  0  0  0  0  0  0  0  0  0  0
   14.9696   34.4975   70.1411 C   0  0  0  0  0  0  0  0  0  0  0  0
   15.9382   35.4541   70.7810 C   0  0  0  0  0  0  0  0  0  0  0  0
   16.8249   35.0988   71.5784 O   0  0  0  0  0  0  0  0  0  0  0  0
   23.4774   36.3537   66.0433 S   0  0  0  0  0  0  0  0  0  0  0  0
   24.4671   37.4762   66.1693 O   0  0  0  0  0  0  0  0  0  0  0  0
   23.6866   35.7519   64.6740 O   0  0  0  0  0  0  0  0  0  0  0  0
   23.9135   35.1529   67.2570 C   0  0  0  0  0  0  0  0  0  0  0  0
   24.8989   35.3672   68.6434 S   0  0  0  0  0  0  0  0  0  0  0  0
   24.8320   33.7820   69.2755 C   0  0  0  0  0  0  0  0  0  0  0  0
   24.0333   33.1298   68.3723 C   0  0  0  0  0  0  0  0  0  0  0  0
   23.5660   33.8374   67.3420 C   0  0  0  0  0  0  0  0  0  0  0  0
   25.6591   33.0582   70.8577 Br  0  0  0  0  0  0  0  0  0  0  0  0
 17 18  2  0  0  0
 17 19  2  0  0  0
 17  1  1  0  0  0
 17 20  1  0  0  0
  1  2  1  0  0  0
  1  4  1  0  0  0
  2  3  1  0  0  0
  3  4  1  0  0  0
  3  5  1  0  0  0
  5  6  1  0  0  0
  5  9  1  0  0  0
  6  7  2  0  0  0
  7  8  1  0  0  0
  8  9  2  0  0  0
  8 10  1  0  0  0
 10 11  1  0  0  0
 11 12  1  0  0  0
 11 15  1  0  0  0
 12 13  1  0  0  0
 13 14  1  0  0  0
 14 15  1  0  0  0
 15 16  2  0  0  0
 20 21  1  0  0  0
 20 24  2  0  0  0
 21 22  1  0  0  0
 22 23  2  0  0  0
 22 25  1  0  0  0
 23 24  1  0  0  0
M  END
> <minimizedAffinity>
-7.68385

$$$$
1037


 31 34  0  0  0  0  0  0  0  0999 V2000
   21.6861   36.2382   69.2396 N   0  0  0  0  0  0  0  0  0  0  0  0
   21.0393   37.1357   68.3444 C   0  0  0  0  0  0  0  0  0  0  0  0
   19.5873   37.2513   68.3959 C   0  0  0  0  0  0  0  0  0  0  0  0
   18.8931   36.7054   69.5457 N   0  0  0  0  0  0  0  0  0  0  0  0
   19.5671   35.8391   70.4633 C   0  0  0  0  0  0  0  0  0  0  0  0
   21.0658   36.1112   70.5084 C   0  0  0  0  0  0  0  0  0  0  0  0
   17.5601   37.0721   69.7389 C   0  0  0  0  0  0  0  0  0  0  0  0
   17.1876   38.0001   68.8317 O   0  0  0  0  0  0  0  0  0  0  0  0
   22.2692   34.7969   68.5660 S   0  0  0  0  0  0  0  0  0  0  0  0
   21.1169   34.0106   68.0040 O   0  0  0  0  0  0  0  0  0  0  0  0
   22.8923   33.9228   69.6409 O   0  0  0  0  0  0  0  0  0  0  0  0
   23.3955   35.0220   67.2440 C   0  0  0  0  0  0  0  0  0  0  0  0
   23.5802   36.2896   66.6937 C   0  0  0  0  0  0  0  0  0  0  0  0
   24.4413   36.5280   65.6446 C   0  0  0  0  0  0  0  0  0  0  0  0
   25.1704   35.5034   65.0843 C   0  0  0  0  0  0  0  0  0  0  0  0
   24.9928   34.2479   65.6231 C   0  0  0  0  0  0  0  0  0  0  0  0
   24.1258   33.9995   66.6810 C   0  0  0  0  0  0  0  0  0  0  0  0
   26.0512   35.7371   64.0096 O   0  0  0  0  0  0  0  0  0  0  0  0
   26.6225   37.0457   63.8346 C   0  0  0  0  0  0  0  0  0  0  0  0
   25.4981   38.0036   63.9956 C   0  0  0  0  0  0  0  0  0  0  0  0
   25.3058   38.9527   63.2019 O   0  0  0  0  0  0  0  0  0  0  0  0
   24.6068   37.8418   65.0845 N   0  0  0  0  0  0  0  0  0  0  0  0
   24.0580   38.6023   65.5108 H   0  0  0  0  0  0  0  0  0  0  0  0
   16.5389   36.6818   70.6670 C   0  0  0  0  0  0  0  0  0  0  0  0
   15.3125   36.0243   70.2220 C   0  0  0  0  0  0  0  0  0  0  0  0
   15.1897   34.6565   70.2305 C   0  0  0  0  0  0  0  0  0  0  0  0
   14.0113   34.0413   69.8090 C   0  0  0  0  0  0  0  0  0  0  0  0
   12.9674   34.8097   69.3850 C   0  0  0  0  0  0  0  0  0  0  0  0
   13.0849   36.2008   69.3767 C   0  0  0  0  0  0  0  0  0  0  0  0
   14.2347   36.7968   69.7872 C   0  0  0  0  0  0  0  0  0  0  0  0
   16.6461   33.5556   70.8157 Br  0  0  0  0  0  0  0  0  0  0  0  0
  9 10  2  0  0  0
  9 11  2  0  0  0
  9  1  1  0  0  0
  9 12  1  0  0  0
  1  2  1  0  0  0
  1  6  1  0  0  0
  2  3  1  0  0  0
  3  4  1  0  0  0
  4  5  1  0  0  0
  4  7  1  0  0  0
  5  6  1  0  0  0
  7  8  2  0  0  0
  7 24  1  0  0  0
 24 25  1  0  0  0
 25 26  2  0  0  0
 25 30  1  0  0  0
 26 27  1  0  0  0
 26 31  1  0  0  0
 27 28  2  0  0  0
 28 29  1  0  0  0
 29 30  2  0  0  0
 12 13  2  0  0  0
 12 17  1  0  0  0
 13 14  1  0  0  0
 14 15  2  0  0  0
 14 22  1  0  0  0
 15 16  1  0  0  0
 15 18  1  0  0  0
 16 17  2  0  0  0
 18 19  1  0  0  0
 19 20  1  0  0  0
 20 21  2  0  0  0
 20 22  1  0  0  0
 22 23  1  0  0  0
M  END
> <minimizedAffinity>
-10.04315

$$$$
1040


 34 38  0  0  0  0  0  0  0  0999 V2000
   21.0100   36.4926   69.4907 S   0  0  0  0  0  0  0  0  0  0  0  0
   21.2799   37.5574   68.4988 O   0  0  0  0  0  0  0  0  0  0  0  0
   21.6846   36.9766   70.7794 O   0  0  0  0  0  0  0  0  0  0  0  0
   19.3366   36.2798   69.9004 C   0  0  0  0  0  0  0  0  0  0  0  0
   18.3215   37.0458   69.3106 C   0  0  0  0  0  0  0  0  0  0  0  0
   16.9931   36.8728   69.6435 C   0  0  0  0  0  0  0  0  0  0  0  0
   16.6087   35.9311   70.5763 C   0  0  0  0  0  0  0  0  0  0  0  0
   17.5939   35.1810   71.1568 C   0  0  0  0  0  0  0  0  0  0  0  0
   18.9286   35.3658   70.8117 C   0  0  0  0  0  0  0  0  0  0  0  0
   19.8739   34.4931   71.5281 C   0  0  0  0  0  0  0  0  0  0  0  0
   19.4141   33.0520   71.4897 C   0  0  0  0  0  0  0  0  0  0  0  0
   18.0254   32.9534   71.7342 N   0  0  0  0  0  0  0  0  0  0  0  0
   17.3432   34.1304   72.1698 C   0  0  0  0  0  0  0  0  0  0  0  0
   17.2824   32.0905   70.8849 C   0  0  0  0  0  0  0  0  0  0  0  0
   16.2592   37.7680   68.8965 O   0  0  0  0  0  0  0  0  0  0  0  0
   17.1376   38.5994   68.1921 C   0  0  0  0  0  0  0  0  0  0  0  0
   18.4359   38.0490   68.3531 O   0  0  0  0  0  0  0  0  0  0  0  0
   15.2537   35.7488   70.9216 O   0  0  0  0  0  0  0  0  0  0  0  0
   14.4397   34.9155   70.0842 C   0  0  0  0  0  0  0  0  0  0  0  0
   21.7869   34.9993   69.1337 N   0  0  0  0  0  0  0  0  0  0  0  0
   23.0975   34.8796   69.6728 C   0  0  0  0  0  0  0  0  0  0  0  0
   24.1956   35.4302   68.7722 C   0  0  0  0  0  0  0  0  0  0  0  0
   24.0534   34.8623   67.4737 N   0  0  0  0  0  0  0  0  0  0  0  0
   22.7267   35.1910   66.8596 C   0  0  0  0  0  0  0  0  0  0  0  0
   21.6902   34.6180   67.7658 C   0  0  0  0  0  0  0  0  0  0  0  0
   24.9032   34.0857   66.7119 C   0  0  0  0  0  0  0  0  0  0  0  0
   24.4250   33.7317   65.5356 O   0  0  0  0  0  0  0  0  0  0  0  0
   26.2236   33.5899   66.9705 C   0  0  0  0  0  0  0  0  0  0  0  0
   26.3996   32.4249   67.7589 N   0  0  0  0  0  0  0  0  0  0  0  0
   27.0538   31.3110   67.4345 N   0  0  0  0  0  0  0  0  0  0  0  0
   27.0431   30.4377   68.4493 C   0  0  0  0  0  0  0  0  0  0  0  0
   26.3413   31.0443   69.4621 C   0  0  0  0  0  0  0  0  0  0  0  0
   25.9445   32.2743   69.0307 C   0  0  0  0  0  0  0  0  0  0  0  0
   25.9777   30.2907   71.1946 Br  0  0  0  0  0  0  0  0  0  0  0  0
  1  2  2  0  0  0
  1  3  2  0  0  0
  1 20  1  0  0  0
  1  4  1  0  0  0
 20 21  1  0  0  0
 20 25  1  0  0  0
 21 22  1  0  0  0
 22 23  1  0  0  0
 23 24  1  0  0  0
 23 26  1  0  0  0
 24 25  1  0  0  0
 26 27  2  0  0  0
 26 28  1  0  0  0
 28 29  1  0  0  0
 29 30  1  0  0  0
 29 33  1  0  0  0
 30 31  2  0  0  0
 31 32  1  0  0  0
 32 33  2  0  0  0
 32 34  1  0  0  0
  4  5  2  0  0  0
  4  9  1  0  0  0
  5  6  1  0  0  0
  5 17  1  0  0  0
  6  7  2  0  0  0
  6 15  1  0  0  0
  7  8  1  0  0  0
  7 18  1  0  0  0
  8  9  2  0  0  0
  8 13  1  0  0  0
  9 10  1  0  0  0
 10 11  1  0  0  0
 11 12  1  0  0  0
 12 13  1  0  0  0
 12 14  1  0  0  0
 18 19  1  0  0  0
 15 16  1  0  0  0
 16 17  1  0  0  0
M  END
> <minimizedAffinity>
-9.00340

$$$$
1042


 31 34  0  0  0  0  0  0  0  0999 V2000
   20.0029   34.8081   70.6469 N   0  0  0  0  0  0  0  0  0  0  0  0
   19.6765   35.0926   71.9628 C   0  0  0  0  0  0  0  0  0  0  0  0
   19.4900   33.7466   72.7153 C   0  0  0  0  0  0  0  0  0  0  0  0
   18.5748   32.9111   71.9890 N   0  0  0  0  0  0  0  0  0  0  0  0
   18.9363   32.5770   70.6304 C   0  0  0  0  0  0  0  0  0  0  0  0
   20.1356   33.4271   70.2723 C   0  0  0  0  0  0  0  0  0  0  0  0
   17.3725   32.4153   72.5283 C   0  0  0  0  0  0  0  0  0  0  0  0
   17.0653   32.7084   73.7060 O   0  0  0  0  0  0  0  0  0  0  0  0
   20.5681   35.9316   69.5688 S   0  0  0  0  0  0  0  0  0  0  0  0
   21.4382   36.9366   70.3358 O   0  0  0  0  0  0  0  0  0  0  0  0
   21.5537   35.3218   68.5672 O   0  0  0  0  0  0  0  0  0  0  0  0
   19.4118   36.8935   68.7013 C   0  0  0  0  0  0  0  0  0  0  0  0
   19.5957   37.4759   67.4759 C   0  0  0  0  0  0  0  0  0  0  0  0
   18.6140   38.2784   66.8838 C   0  0  0  0  0  0  0  0  0  0  0  0
   17.4247   38.5212   67.4954 C   0  0  0  0  0  0  0  0  0  0  0  0
   17.2086   37.9511   68.7211 C   0  0  0  0  0  0  0  0  0  0  0  0
   18.1702   37.1629   69.3067 C   0  0  0  0  0  0  0  0  0  0  0  0
   21.1976   37.1338   66.5186 Br  0  0  0  0  0  0  0  0  0  0  0  0
   16.4813   31.5669   71.7356 C   0  0  0  0  0  0  0  0  0  0  0  0
   15.2098   32.2429   71.4923 N   0  0  0  0  0  0  0  0  0  0  0  0
   13.9495   32.0419   72.0982 C   0  0  0  0  0  0  0  0  0  0  0  0
   13.7044   31.1868   73.0111 O   0  0  0  0  0  0  0  0  0  0  0  0
   13.0386   32.9578   71.5030 N   0  0  0  0  0  0  0  0  0  0  0  0
   13.8242   34.0072   70.9084 C   0  0  0  0  0  0  0  0  0  0  0  0
   14.0803   35.1609   71.8221 C   0  0  0  0  0  0  0  0  0  0  0  0
   14.5542   36.2367   70.8368 C   0  0  0  0  0  0  0  0  0  0  0  0
   13.7044   36.0079   69.6172 C   0  0  0  0  0  0  0  0  0  0  0  0
   13.1351   34.6311   69.7171 C   0  0  0  0  0  0  0  0  0  0  0  0
   15.0627   33.2936   70.5156 C   0  0  0  0  0  0  0  0  0  0  0  0
   15.8090   33.5561   69.5458 O   0  0  0  0  0  0  0  0  0  0  0  0
   11.9984   32.8169   71.5384 H   0  0  0  0  0  0  0  0  0  0  0  0
  9 10  2  0  0  0
  9 11  2  0  0  0
  9  1  1  0  0  0
  9 12  1  0  0  0
  1  2  1  0  0  0
  1  6  1  0  0  0
  2  3  1  0  0  0
  3  4  1  0  0  0
  4  5  1  0  0  0
  4  7  1  0  0  0
  5  6  1  0  0  0
  7  8  2  0  0  0
  7 19  1  0  0  0
 19 20  1  0  0  0
 20 21  1  0  0  0
 20 29  1  0  0  0
 21 22  2  0  0  0
 21 23  1  0  0  0
 23 24  1  0  0  0
 24 25  1  0  0  0
 24 28  1  0  0  0
 24 29  1  0  0  0
 25 26  1  0  0  0
 26 27  1  0  0  0
 27 28  1  0  0  0
 29 30  2  0  0  0
 12 13  2  0  0  0
 12 17  1  0  0  0
 13 14  1  0  0  0
 13 18  1  0  0  0
 14 15  2  0  0  0
 15 16  1  0  0  0
 16 17  2  0  0  0
 23 31  1  0  0  0
M  END
> <minimizedAffinity>
-9.12718

$$$$
1043


 31 34  0  0  0  0  0  0  0  0999 V2000
   20.5946   35.6051   70.0102 N   0  0  0  0  0  0  0  0  0  0  0  0
   21.0116   34.3417   69.4401 C   0  0  0  0  0  0  0  0  0  0  0  0
   21.3963   33.3575   70.5165 C   0  0  0  0  0  0  0  0  0  0  0  0
   20.2720   33.3090   71.4742 N   0  0  0  0  0  0  0  0  0  0  0  0
   19.8960   34.5666   72.0412 C   0  0  0  0  0  0  0  0  0  0  0  0
   20.8129   35.6427   71.4135 C   0  0  0  0  0  0  0  0  0  0  0  0
   19.6418   32.0927   71.7738 C   0  0  0  0  0  0  0  0  0  0  0  0
   20.1320   31.0507   71.1328 O   0  0  0  0  0  0  0  0  0  0  0  0
   21.1967   36.9573   69.1601 S   0  0  0  0  0  0  0  0  0  0  0  0
   21.7158   37.9378   70.1962 O   0  0  0  0  0  0  0  0  0  0  0  0
   20.0546   37.6593   68.4691 O   0  0  0  0  0  0  0  0  0  0  0  0
   22.4420   36.5458   68.0061 C   0  0  0  0  0  0  0  0  0  0  0  0
   23.7533   36.3363   68.3827 C   0  0  0  0  0  0  0  0  0  0  0  0
   24.7372   36.0095   67.4565 C   0  0  0  0  0  0  0  0  0  0  0  0
   24.4326   35.8833   66.1260 C   0  0  0  0  0  0  0  0  0  0  0  0
   23.1261   36.0895   65.7362 C   0  0  0  0  0  0  0  0  0  0  0  0
   22.1492   36.4149   66.6653 C   0  0  0  0  0  0  0  0  0  0  0  0
   25.7897   35.4300   64.8365 Br  0  0  0  0  0  0  0  0  0  0  0  0
   18.5531   31.7450   72.6512 C   0  0  0  0  0  0  0  0  0  0  0  0
   17.1989   31.9284   72.2336 N   0  0  0  0  0  0  0  0  0  0  0  0
   16.3279   30.9525   71.6066 C   0  0  0  0  0  0  0  0  0  0  0  0
   16.6931   29.7677   71.3677 O   0  0  0  0  0  0  0  0  0  0  0  0
   15.0841   31.5836   71.3500 N   0  0  0  0  0  0  0  0  0  0  0  0
   15.3040   32.9894   71.3943 C   0  0  0  0  0  0  0  0  0  0  0  0
   15.5800   33.5968   70.0398 C   0  0  0  0  0  0  0  0  0  0  0  0
   15.4399   35.0771   70.3394 C   0  0  0  0  0  0  0  0  0  0  0  0
   14.4664   35.1799   71.4885 C   0  0  0  0  0  0  0  0  0  0  0  0
   14.0731   33.7633   71.8337 C   0  0  0  0  0  0  0  0  0  0  0  0
   16.4183   33.1381   72.3290 C   0  0  0  0  0  0  0  0  0  0  0  0
   16.6808   34.1095   73.0832 O   0  0  0  0  0  0  0  0  0  0  0  0
   14.1980   31.0369   71.1671 H   0  0  0  0  0  0  0  0  0  0  0  0
  9 10  2  0  0  0
  9 11  2  0  0  0
  9  1  1  0  0  0
  9 12  1  0  0  0
  1  2  1  0  0  0
  1  6  1  0  0  0
  2  3  1  0  0  0
  3  4  1  0  0  0
  4  5  1  0  0  0
  4  7  1  0  0  0
  5  6  1  0  0  0
  7  8  2  0  0  0
  7 19  1  0  0  0
 19 20  1  0  0  0
 20 21  1  0  0  0
 20 29  1  0  0  0
 21 22  2  0  0  0
 21 23  1  0  0  0
 23 24  1  0  0  0
 24 25  1  0  0  0
 24 28  1  0  0  0
 24 29  1  0  0  0
 25 26  1  0  0  0
 26 27  1  0  0  0
 27 28  1  0  0  0
 29 30  2  0  0  0
 12 13  2  0  0  0
 12 17  1  0  0  0
 13 14  1  0  0  0
 14 15  2  0  0  0
 15 16  1  0  0  0
 15 18  1  0  0  0
 16 17  2  0  0  0
 23 31  1  0  0  0
M  END
> <minimizedAffinity>
-8.98401

$$$$
1044


 30 33  0  0  0  0  0  0  0  0999 V2000
   20.1632   34.8160   71.6065 S   0  0  0  0  0  0  0  0  0  0  0  0
   20.1447   34.1088   72.9050 O   0  0  0  0  0  0  0  0  0  0  0  0
   20.8884   36.1371   71.8316 O   0  0  0  0  0  0  0  0  0  0  0  0
   18.5399   35.2534   71.0861 C   0  0  0  0  0  0  0  0  0  0  0  0
   17.4433   34.4904   71.4306 C   0  0  0  0  0  0  0  0  0  0  0  0
   16.1586   34.8070   71.0390 C   0  0  0  0  0  0  0  0  0  0  0  0
   15.9211   35.9268   70.2686 C   0  0  0  0  0  0  0  0  0  0  0  0
   17.0208   36.6963   69.9210 C   0  0  0  0  0  0  0  0  0  0  0  0
   18.3023   36.3739   70.3162 C   0  0  0  0  0  0  0  0  0  0  0  0
   14.6351   36.2724   69.8572 O   0  0  0  0  0  0  0  0  0  0  0  0
   13.5129   35.4167   69.9564 C   0  0  0  0  0  0  0  0  0  0  0  0
   13.7051   34.3588   70.9802 C   0  0  0  0  0  0  0  0  0  0  0  0
   12.6728   33.8061   71.4376 O   0  0  0  0  0  0  0  0  0  0  0  0
   15.0259   34.0228   71.3904 N   0  0  0  0  0  0  0  0  0  0  0  0
   15.1883   33.1736   71.9720 H   0  0  0  0  0  0  0  0  0  0  0  0
   20.9724   33.9935   70.3702 N   0  0  0  0  0  0  0  0  0  0  0  0
   21.8508   32.9727   70.7368 C   0  0  0  0  0  0  0  0  0  0  0  0
   22.9471   32.6517   69.7838 C   0  0  0  0  0  0  0  0  0  0  0  0
   23.3405   33.7338   68.9381 N   0  0  0  0  0  0  0  0  0  0  0  0
   22.6747   35.0109   69.0764 C   0  0  0  0  0  0  0  0  0  0  0  0
   21.1844   34.6900   69.1677 C   0  0  0  0  0  0  0  0  0  0  0  0
   24.3604   33.6050   67.9648 C   0  0  0  0  0  0  0  0  0  0  0  0
   24.9741   32.5012   67.8074 O   0  0  0  0  0  0  0  0  0  0  0  0
   24.7739   34.6974   67.0937 C   0  0  0  0  0  0  0  0  0  0  0  0
   25.8465   35.5169   67.3932 C   0  0  0  0  0  0  0  0  0  0  0  0
   26.2463   36.5506   66.5783 C   0  0  0  0  0  0  0  0  0  0  0  0
   25.5345   36.7694   65.4091 C   0  0  0  0  0  0  0  0  0  0  0  0
   24.4597   35.9859   65.0599 C   0  0  0  0  0  0  0  0  0  0  0  0
   24.0990   34.9641   65.9102 C   0  0  0  0  0  0  0  0  0  0  0  0
   26.7800   35.1563   69.0198 Br  0  0  0  0  0  0  0  0  0  0  0  0
  1  2  2  0  0  0
  1  3  2  0  0  0
  1 16  1  0  0  0
  1  4  1  0  0  0
 16 17  1  0  0  0
 16 21  1  0  0  0
 17 18  1  0  0  0
 18 19  1  0  0  0
 19 20  1  0  0  0
 19 22  1  0  0  0
 20 21  1  0  0  0
 22 23  2  0  0  0
 22 24  1  0  0  0
 24 25  2  0  0  0
 24 29  1  0  0  0
 25 26  1  0  0  0
 25 30  1  0  0  0
 26 27  2  0  0  0
 27 28  1  0  0  0
 28 29  2  0  0  0
  4  5  2  0  0  0
  4  9  1  0  0  0
  5  6  1  0  0  0
  6  7  2  0  0  0
  6 14  1  0  0  0
  7  8  1  0  0  0
  7 10  1  0  0  0
  8  9  2  0  0  0
 10 11  1  0  0  0
 11 12  1  0  0  0
 12 13  2  0  0  0
 12 14  1  0  0  0
 14 15  1  0  0  0
M  END
> <minimizedAffinity>
-9.25057

$$$$
1051


 27 30  0  0  0  0  0  0  0  0999 V2000
   23.4256   35.4415   67.4380 N   0  0  0  0  0  0  0  0  0  0  0  0
   22.1949   34.7449   67.3586 C   0  0  0  0  0  0  0  0  0  0  0  0
   21.1174   35.1826   68.2907 C   0  0  0  0  0  0  0  0  0  0  0  0
   21.5963   35.6318   69.5706 N   0  0  0  0  0  0  0  0  0  0  0  0
   23.0255   35.5742   69.7811 C   0  0  0  0  0  0  0  0  0  0  0  0
   23.6226   36.2725   68.5767 C   0  0  0  0  0  0  0  0  0  0  0  0
   20.7719   36.1104   70.6059 C   0  0  0  0  0  0  0  0  0  0  0  0
   21.2805   36.4799   71.6870 O   0  0  0  0  0  0  0  0  0  0  0  0
   19.3251   36.1800   70.4297 C   0  0  0  0  0  0  0  0  0  0  0  0
   18.4590   35.2123   70.7120 N   0  0  0  0  0  0  0  0  0  0  0  0
   17.2145   35.6058   70.4320 N   0  0  0  0  0  0  0  0  0  0  0  0
   17.2416   36.8691   69.9494 C   0  0  0  0  0  0  0  0  0  0  0  0
   18.5926   37.2348   69.9479 C   0  0  0  0  0  0  0  0  0  0  0  0
   16.1105   37.5213   69.5809 N   0  0  0  0  0  0  0  0  0  0  0  0
   14.9064   36.8904   69.6987 C   0  0  0  0  0  0  0  0  0  0  0  0
   14.8460   35.6037   70.1882 C   0  0  0  0  0  0  0  0  0  0  0  0
   16.0220   34.9843   70.5478 C   0  0  0  0  0  0  0  0  0  0  0  0
   13.1471   34.7167   70.3530 Br  0  0  0  0  0  0  0  0  0  0  0  0
   23.8114   36.3470   66.0253 S   0  0  0  0  0  0  0  0  0  0  0  0
   23.4010   35.5933   64.8015 O   0  0  0  0  0  0  0  0  0  0  0  0
   25.3269   36.4958   66.0095 O   0  0  0  0  0  0  0  0  0  0  0  0
   23.0361   37.9112   66.0188 C   0  0  0  0  0  0  0  0  0  0  0  0
   23.5604   39.1013   65.5684 C   0  0  0  0  0  0  0  0  0  0  0  0
   22.6650   40.0765   65.7288 N   0  0  0  0  0  0  0  0  0  0  0  0
   21.5770   39.5607   66.2672 N   0  0  0  0  0  0  0  0  0  0  0  0
   21.7540   38.2297   66.4661 C   0  0  0  0  0  0  0  0  0  0  0  0
   22.8167   41.4658   65.3867 C   0  0  0  0  0  0  0  0  0  0  0  0
 19 20  2  0  0  0
 19 21  2  0  0  0
 19  1  1  0  0  0
 19 22  1  0  0  0
  1  2  1  0  0  0
  1  6  1  0  0  0
  2  3  1  0  0  0
  3  4  1  0  0  0
  4  5  1  0  0  0
  4  7  1  0  0  0
  5  6  1  0  0  0
  7  8  2  0  0  0
  7  9  1  0  0  0
  9 10  2  0  0  0
  9 13  1  0  0  0
 10 11  1  0  0  0
 11 12  1  0  0  0
 11 17  1  0  0  0
 12 13  2  0  0  0
 12 14  1  0  0  0
 14 15  2  0  0  0
 15 16  1  0  0  0
 16 17  2  0  0  0
 16 18  1  0  0  0
 22 23  2  0  0  0
 22 26  1  0  0  0
 23 24  1  0  0  0
 24 25  1  0  0  0
 24 27  1  0  0  0
 25 26  2  0  0  0
M  END
> <minimizedAffinity>
-8.52741

$$$$
1056


 30 33  0  0  0  0  0  0  0  0999 V2000
   17.3369   31.3246   71.5287 N   0  0  0  0  0  0  0  0  0  0  0  0
   18.2442   31.4236   72.6074 C   0  0  0  0  0  0  0  0  0  0  0  0
   19.0063   32.6770   72.7370 C   0  0  0  0  0  0  0  0  0  0  0  0
   19.4200   33.1912   71.4656 N   0  0  0  0  0  0  0  0  0  0  0  0
   19.1295   32.4432   70.2762 C   0  0  0  0  0  0  0  0  0  0  0  0
   17.7660   31.8260   70.2737 C   0  0  0  0  0  0  0  0  0  0  0  0
   20.1062   34.4185   71.3726 C   0  0  0  0  0  0  0  0  0  0  0  0
   20.3500   35.0576   72.4211 O   0  0  0  0  0  0  0  0  0  0  0  0
   20.5564   35.0007   70.1147 C   0  0  0  0  0  0  0  0  0  0  0  0
   19.8454   36.0406   69.5443 C   0  0  0  0  0  0  0  0  0  0  0  0
   20.2590   36.5783   68.3863 N   0  0  0  0  0  0  0  0  0  0  0  0
   21.3612   36.1435   67.7380 C   0  0  0  0  0  0  0  0  0  0  0  0
   22.0753   35.1342   68.2653 N   0  0  0  0  0  0  0  0  0  0  0  0
   23.1881   34.6920   67.6145 C   0  0  0  0  0  0  0  0  0  0  0  0
   23.6065   35.2502   66.4240 C   0  0  0  0  0  0  0  0  0  0  0  0
   22.8860   36.2911   65.8619 C   0  0  0  0  0  0  0  0  0  0  0  0
   21.7664   36.7196   66.5389 C   0  0  0  0  0  0  0  0  0  0  0  0
   24.8116   34.7962   65.6865 C   0  0  0  0  0  0  0  0  0  0  0  0
   21.6792   34.5704   69.4372 C   0  0  0  0  0  0  0  0  0  0  0  0
   22.3394   33.6396   69.9230 O   0  0  0  0  0  0  0  0  0  0  0  0
   15.6990   31.5294   71.8989 S   0  0  0  0  0  0  0  0  0  0  0  0
   14.9171   30.3312   71.4868 O   0  0  0  0  0  0  0  0  0  0  0  0
   15.5637   31.6982   73.3922 O   0  0  0  0  0  0  0  0  0  0  0  0
   15.0861   32.9692   71.1309 C   0  0  0  0  0  0  0  0  0  0  0  0
   15.8405   34.1237   71.1188 C   0  0  0  0  0  0  0  0  0  0  0  0
   15.2911   35.2354   70.4885 C   0  0  0  0  0  0  0  0  0  0  0  0
   14.0544   35.2044   69.8988 C   0  0  0  0  0  0  0  0  0  0  0  0
   13.3040   34.0376   69.9166 C   0  0  0  0  0  0  0  0  0  0  0  0
   13.8381   32.9077   70.5454 C   0  0  0  0  0  0  0  0  0  0  0  0
   16.2817   36.8578   70.4382 Br  0  0  0  0  0  0  0  0  0  0  0  0
 21 22  2  0  0  0
 21 23  2  0  0  0
 21  1  1  0  0  0
 21 24  1  0  0  0
  1  2  1  0  0  0
  1  6  1  0  0  0
  2  3  1  0  0  0
  3  4  1  0  0  0
  4  5  1  0  0  0
  4  7  1  0  0  0
  5  6  1  0  0  0
  7  8  2  0  0  0
  7  9  1  0  0  0
  9 10  2  0  0  0
  9 19  1  0  0  0
 10 11  1  0  0  0
 11 12  2  0  0  0
 12 13  1  0  0  0
 12 17  1  0  0  0
 13 14  1  0  0  0
 13 19  1  0  0  0
 14 15  2  0  0  0
 15 16  1  0  0  0
 15 18  1  0  0  0
 16 17  2  0  0  0
 19 20  2  0  0  0
 24 25  2  0  0  0
 24 29  1  0  0  0
 25 26  1  0  0  0
 26 27  2  0  0  0
 26 30  1  0  0  0
 27 28  1  0  0  0
 28 29  2  0  0  0
M  END
> <minimizedAffinity>
-9.77038

$$$$
1061


 30 34  0  0  0  0  0  0  0  0999 V2000
   22.1283   36.6567   67.8298 N   0  0  0  0  0  0  0  0  0  0  0  0
   22.2130   36.7322   69.2645 C   0  0  0  0  0  0  0  0  0  0  0  0
   22.5413   35.3892   69.8753 C   0  0  0  0  0  0  0  0  0  0  0  0
   21.5624   34.3710   69.4184 N   0  0  0  0  0  0  0  0  0  0  0  0
   21.7260   34.2227   67.9793 C   0  0  0  0  0  0  0  0  0  0  0  0
   22.5035   35.3635   67.3463 C   0  0  0  0  0  0  0  0  0  0  0  0
   20.8118   37.4109   67.1101 S   0  0  0  0  0  0  0  0  0  0  0  0
   21.2561   38.7956   66.6562 O   0  0  0  0  0  0  0  0  0  0  0  0
   20.5164   36.6768   65.8014 O   0  0  0  0  0  0  0  0  0  0  0  0
   19.3466   37.4691   68.0038 C   0  0  0  0  0  0  0  0  0  0  0  0
   18.2054   37.9975   67.4510 C   0  0  0  0  0  0  0  0  0  0  0  0
   17.0408   38.0182   68.1975 C   0  0  0  0  0  0  0  0  0  0  0  0
   16.9768   37.5259   69.4883 C   0  0  0  0  0  0  0  0  0  0  0  0
   18.1249   36.9961   70.0389 C   0  0  0  0  0  0  0  0  0  0  0  0
   19.2949   36.9757   69.2879 C   0  0  0  0  0  0  0  0  0  0  0  0
   15.3732   37.5555   70.5192 Br  0  0  0  0  0  0  0  0  0  0  0  0
   21.9937   33.1591   70.0814 C   0  0  0  0  0  0  0  0  0  0  0  0
   21.2945   32.7614   71.3110 C   0  0  0  0  0  0  0  0  0  0  0  0
   19.8971   33.0002   71.4402 N   0  0  0  0  0  0  0  0  0  0  0  0
   19.1869   33.9757   72.1945 C   0  0  0  0  0  0  0  0  0  0  0  0
   19.6051   34.5330   73.2199 O   0  0  0  0  0  0  0  0  0  0  0  0
   17.8712   34.2113   71.5528 C   0  0  0  0  0  0  0  0  0  0  0  0
   17.6182   32.8238   70.9199 C   0  0  0  0  0  0  0  0  0  0  0  0
   16.7159   32.1163   71.8593 C   0  0  0  0  0  0  0  0  0  0  0  0
   16.9979   32.8402   73.1867 C   0  0  0  0  0  0  0  0  0  0  0  0
   16.7954   34.2392   72.5785 C   0  0  0  0  0  0  0  0  0  0  0  0
   15.5027   33.9949   71.8553 C   0  0  0  0  0  0  0  0  0  0  0  0
   15.3330   32.6913   71.6342 C   0  0  0  0  0  0  0  0  0  0  0  0
   18.9269   32.2245   70.7021 C   0  0  0  0  0  0  0  0  0  0  0  0
   19.1391   31.2103   69.9913 O   0  0  0  0  0  0  0  0  0  0  0  0
  7  8  2  0  0  0
  7  9  2  0  0  0
  7  1  1  0  0  0
  7 10  1  0  0  0
  1  2  1  0  0  0
  1  6  1  0  0  0
  2  3  1  0  0  0
  3  4  1  0  0  0
  4  5  1  0  0  0
  4 17  1  0  0  0
  5  6  1  0  0  0
 17 18  1  0  0  0
 18 19  1  0  0  0
 19 20  1  0  0  0
 19 29  1  0  0  0
 20 21  2  0  0  0
 20 22  1  0  0  0
 22 23  1  0  0  0
 22 26  1  0  0  0
 23 24  1  0  0  0
 23 29  1  0  0  0
 24 25  1  0  0  0
 24 28  1  0  0  0
 25 26  1  0  0  0
 26 27  1  0  0  0
 27 28  2  0  0  0
 29 30  2  0  0  0
 10 11  2  0  0  0
 10 15  1  0  0  0
 11 12  1  0  0  0
 12 13  2  0  0  0
 13 14  1  0  0  0
 13 16  1  0  0  0
 14 15  2  0  0  0
M  END
> <minimizedAffinity>
-9.24521

$$$$
1073


 28 31  0  0  0  0  0  0  0  0999 V2000
   20.0050   33.7301   71.4180 N   0  0  0  0  0  0  0  0  0  0  0  0
   20.4289   32.8626   72.4406 C   0  0  0  0  0  0  0  0  0  0  0  0
   19.5604   31.6440   72.5889 C   0  0  0  0  0  0  0  0  0  0  0  0
   18.2606   31.7796   72.0360 N   0  0  0  0  0  0  0  0  0  0  0  0
   18.3178   32.1245   70.6605 C   0  0  0  0  0  0  0  0  0  0  0  0
   19.3045   33.1791   70.3215 C   0  0  0  0  0  0  0  0  0  0  0  0
   20.8349   35.1477   71.1702 S   0  0  0  0  0  0  0  0  0  0  0  0
   20.8976   36.0021   72.3912 O   0  0  0  0  0  0  0  0  0  0  0  0
   22.2284   34.8682   70.7068 O   0  0  0  0  0  0  0  0  0  0  0  0
   20.0112   36.0918   69.9113 C   0  0  0  0  0  0  0  0  0  0  0  0
   18.4818   36.8433   69.9585 S   0  0  0  0  0  0  0  0  0  0  0  0
   18.4593   37.5128   68.3923 C   0  0  0  0  0  0  0  0  0  0  0  0
   19.6663   37.1238   67.8655 C   0  0  0  0  0  0  0  0  0  0  0  0
   20.4632   36.3893   68.6571 C   0  0  0  0  0  0  0  0  0  0  0  0
   17.0954   38.5573   67.5447 Br  0  0  0  0  0  0  0  0  0  0  0  0
   17.3982   32.5260   72.8738 C   0  0  0  0  0  0  0  0  0  0  0  0
   16.0477   32.6730   72.4482 N   0  0  0  0  0  0  0  0  0  0  0  0
   15.6666   33.7377   71.7730 N   0  0  0  0  0  0  0  0  0  0  0  0
   14.4150   33.9563   71.3408 C   0  0  0  0  0  0  0  0  0  0  0  0
   13.4820   32.9897   71.6331 C   0  0  0  0  0  0  0  0  0  0  0  0
   13.8176   31.8526   72.3368 C   0  0  0  0  0  0  0  0  0  0  0  0
   15.1413   31.7257   72.7368 C   0  0  0  0  0  0  0  0  0  0  0  0
   15.4496   30.6680   73.3890 O   0  0  0  0  0  0  0  0  0  0  0  0
   14.0313   35.1258   70.6084 N   0  0  0  0  0  0  0  0  0  0  0  0
   12.9882   35.2924   69.7889 C   0  0  0  0  0  0  0  0  0  0  0  0
   13.0113   36.5520   69.3156 N   0  0  0  0  0  0  0  0  0  0  0  0
   14.0719   37.1991   69.8306 C   0  0  0  0  0  0  0  0  0  0  0  0
   14.7063   36.2854   70.6451 C   0  0  0  0  0  0  0  0  0  0  0  0
  7  8  2  0  0  0
  7  9  2  0  0  0
  7  1  1  0  0  0
  7 10  1  0  0  0
  1  2  1  0  0  0
  1  6  1  0  0  0
  2  3  1  0  0  0
  3  4  1  0  0  0
  4  5  1  0  0  0
  4 16  1  0  0  0
  5  6  1  0  0  0
 16 17  1  0  0  0
 17 18  1  0  0  0
 17 22  1  0  0  0
 18 19  2  0  0  0
 19 20  1  0  0  0
 19 24  1  0  0  0
 20 21  2  0  0  0
 21 22  1  0  0  0
 22 23  2  0  0  0
 24 25  1  0  0  0
 24 28  1  0  0  0
 25 26  2  0  0  0
 26 27  1  0  0  0
 27 28  2  0  0  0
 10 11  1  0  0  0
 10 14  2  0  0  0
 11 12  1  0  0  0
 12 13  2  0  0  0
 12 15  1  0  0  0
 13 14  1  0  0  0
M  END
> <minimizedAffinity>
-8.32348

$$$$
1076


 29 32  0  0  0  0  0  0  0  0999 V2000
   19.7984   33.8179   71.4123 N   0  0  0  0  0  0  0  0  0  0  0  0
   19.7037   32.8064   70.4075 C   0  0  0  0  0  0  0  0  0  0  0  0
   18.5001   31.9334   70.8025 C   0  0  0  0  0  0  0  0  0  0  0  0
   18.3308   31.8830   72.1895 N   0  0  0  0  0  0  0  0  0  0  0  0
   19.5271   31.9808   72.9805 C   0  0  0  0  0  0  0  0  0  0  0  0
   20.4003   33.1483   72.5795 C   0  0  0  0  0  0  0  0  0  0  0  0
   20.8370   35.1145   71.0009 S   0  0  0  0  0  0  0  0  0  0  0  0
   22.2702   34.6709   70.8678 O   0  0  0  0  0  0  0  0  0  0  0  0
   20.8018   36.0972   72.1484 O   0  0  0  0  0  0  0  0  0  0  0  0
   20.3735   35.9528   69.5705 C   0  0  0  0  0  0  0  0  0  0  0  0
   19.2426   36.6963   69.4048 C   0  0  0  0  0  0  0  0  0  0  0  0
   18.9622   37.3344   68.2052 C   0  0  0  0  0  0  0  0  0  0  0  0
   19.8071   37.2458   67.1390 C   0  0  0  0  0  0  0  0  0  0  0  0
   20.9654   36.4968   67.2776 C   0  0  0  0  0  0  0  0  0  0  0  0
   21.2315   35.8696   68.4686 C   0  0  0  0  0  0  0  0  0  0  0  0
   17.3616   38.3767   67.9949 Br  0  0  0  0  0  0  0  0  0  0  0  0
   17.1621   32.3637   72.7980 C   0  0  0  0  0  0  0  0  0  0  0  0
   16.2620   33.1516   72.0194 N   0  0  0  0  0  0  0  0  0  0  0  0
   16.5590   34.5013   71.7004 N   0  0  0  0  0  0  0  0  0  0  0  0
   15.4633   34.9616   70.9141 C   0  0  0  0  0  0  0  0  0  0  0  0
   15.3909   36.1948   70.4280 C   0  0  0  0  0  0  0  0  0  0  0  0
   14.4004   36.9234   69.6037 C   0  0  0  0  0  0  0  0  0  0  0  0
   13.0143   36.3570   69.7982 C   0  0  0  0  0  0  0  0  0  0  0  0
   13.0059   35.0124   69.0929 C   0  0  0  0  0  0  0  0  0  0  0  0
   13.2418   33.8821   70.0472 C   0  0  0  0  0  0  0  0  0  0  0  0
   14.4955   33.9395   70.7353 N   0  0  0  0  0  0  0  0  0  0  0  0
   15.0125   32.8125   71.4360 C   0  0  0  0  0  0  0  0  0  0  0  0
   14.4199   31.7069   71.5014 O   0  0  0  0  0  0  0  0  0  0  0  0
   17.4067   35.0471   71.9843 H   0  0  0  0  0  0  0  0  0  0  0  0
  7  8  2  0  0  0
  7  9  2  0  0  0
  7  1  1  0  0  0
  7 10  1  0  0  0
  1  2  1  0  0  0
  1  6  1  0  0  0
  2  3  1  0  0  0
  3  4  1  0  0  0
  4  5  1  0  0  0
  4 17  1  0  0  0
  5  6  1  0  0  0
 17 18  1  0  0  0
 18 19  1  0  0  0
 18 27  1  0  0  0
 19 20  1  0  0  0
 20 21  2  0  0  0
 20 26  1  0  0  0
 21 22  1  0  0  0
 22 23  1  0  0  0
 23 24  1  0  0  0
 24 25  1  0  0  0
 25 26  1  0  0  0
 26 27  1  0  0  0
 27 28  2  0  0  0
 10 11  2  0  0  0
 10 15  1  0  0  0
 11 12  1  0  0  0
 12 13  2  0  0  0
 12 16  1  0  0  0
 13 14  1  0  0  0
 14 15  2  0  0  0
 19 29  1  0  0  0
M  END
> <minimizedAffinity>
-9.23562

$$$$
1081


 27 30  0  0  0  0  0  0  0  0999 V2000
   19.8667   32.8331   71.8422 N   0  0  0  0  0  0  0  0  0  0  0  0
   20.1996   34.0075   72.5534 C   0  0  0  0  0  0  0  0  0  0  0  0
   20.2213   35.2844   71.7817 C   0  0  0  0  0  0  0  0  0  0  0  0
   19.8873   35.1462   70.3859 N   0  0  0  0  0  0  0  0  0  0  0  0
   20.2822   33.9677   69.6845 C   0  0  0  0  0  0  0  0  0  0  0  0
   20.2863   32.7202   70.4971 C   0  0  0  0  0  0  0  0  0  0  0  0
   19.1722   36.2268   69.7693 C   0  0  0  0  0  0  0  0  0  0  0  0
   19.6260   37.0003   68.7683 N   0  0  0  0  0  0  0  0  0  0  0  0
   18.6437   37.8762   68.5262 N   0  0  0  0  0  0  0  0  0  0  0  0
   17.6357   37.6502   69.3396 N   0  0  0  0  0  0  0  0  0  0  0  0
   17.9250   36.6350   70.1260 N   0  0  0  0  0  0  0  0  0  0  0  0
   20.8787   36.8946   68.1070 C   0  0  0  0  0  0  0  0  0  0  0  0
   22.0568   37.1874   68.7551 C   0  0  0  0  0  0  0  0  0  0  0  0
   23.2704   37.0731   68.0784 C   0  0  0  0  0  0  0  0  0  0  0  0
   23.3213   36.6696   66.7621 C   0  0  0  0  0  0  0  0  0  0  0  0
   22.1221   36.3717   66.1024 C   0  0  0  0  0  0  0  0  0  0  0  0
   20.9167   36.4920   66.7958 C   0  0  0  0  0  0  0  0  0  0  0  0
   18.3685   32.1117   72.1996 S   0  0  0  0  0  0  0  0  0  0  0  0
   18.1815   31.7288   73.6136 O   0  0  0  0  0  0  0  0  0  0  0  0
   18.2695   30.8248   71.3893 O   0  0  0  0  0  0  0  0  0  0  0  0
   17.0716   33.1462   71.6680 C   0  0  0  0  0  0  0  0  0  0  0  0
   16.5154   34.1158   72.4637 C   0  0  0  0  0  0  0  0  0  0  0  0
   15.4790   34.9393   72.0245 C   0  0  0  0  0  0  0  0  0  0  0  0
   15.0004   34.7579   70.7229 C   0  0  0  0  0  0  0  0  0  0  0  0
   15.5507   33.7875   69.9156 C   0  0  0  0  0  0  0  0  0  0  0  0
   16.5656   33.0007   70.3838 C   0  0  0  0  0  0  0  0  0  0  0  0
   13.5819   35.8540   70.0531 Br  0  0  0  0  0  0  0  0  0  0  0  0
 18 19  2  0  0  0
 18 20  2  0  0  0
 18  1  1  0  0  0
 18 21  1  0  0  0
  1  2  1  0  0  0
  1  6  1  0  0  0
  2  3  1  0  0  0
  3  4  1  0  0  0
  4  5  1  0  0  0
  4  7  1  0  0  0
  5  6  1  0  0  0
  7  8  1  0  0  0
  7 11  2  0  0  0
  8  9  1  0  0  0
  8 12  1  0  0  0
  9 10  2  0  0  0
 10 11  1  0  0  0
 12 13  2  0  0  0
 12 17  1  0  0  0
 13 14  1  0  0  0
 14 15  2  0  0  0
 15 16  1  0  0  0
 16 17  2  0  0  0
 21 22  2  0  0  0
 21 26  1  0  0  0
 22 23  1  0  0  0
 23 24  2  0  0  0
 24 25  1  0  0  0
 24 27  1  0  0  0
 25 26  2  0  0  0
M  END
> <minimizedAffinity>
-8.04074

$$$$
1084


 29 32  0  0  0  0  0  0  0  0999 V2000
   17.2756   30.7446   72.6305 N   0  0  0  0  0  0  0  0  0  0  0  0
   17.0494   30.6737   71.2260 C   0  0  0  0  0  0  0  0  0  0  0  0
   17.9929   31.5393   70.4190 C   0  0  0  0  0  0  0  0  0  0  0  0
   18.4125   32.6220   71.2603 N   0  0  0  0  0  0  0  0  0  0  0  0
   19.1555   32.3204   72.4483 C   0  0  0  0  0  0  0  0  0  0  0  0
   18.6457   31.0123   72.9987 C   0  0  0  0  0  0  0  0  0  0  0  0
   18.0966   33.9469   70.9157 C   0  0  0  0  0  0  0  0  0  0  0  0
   16.8327   34.3956   70.8417 N   0  0  0  0  0  0  0  0  0  0  0  0
   16.4720   35.6261   70.5232 C   0  0  0  0  0  0  0  0  0  0  0  0
   17.4772   36.5364   70.2430 C   0  0  0  0  0  0  0  0  0  0  0  0
   18.7893   36.1243   70.3064 C   0  0  0  0  0  0  0  0  0  0  0  0
   19.0676   34.8507   70.6388 N   0  0  0  0  0  0  0  0  0  0  0  0
   19.8981   37.0716   70.0119 C   0  0  0  0  0  0  0  0  0  0  0  0
   15.1004   35.9742   70.4792 N   0  0  0  0  0  0  0  0  0  0  0  0
   14.5782   37.0760   69.6975 C   0  0  0  0  0  0  0  0  0  0  0  0
   13.1033   36.7623   69.4503 C   0  0  0  0  0  0  0  0  0  0  0  0
   13.0224   35.4029   69.1412 O   0  0  0  0  0  0  0  0  0  0  0  0
   13.1825   34.5851   70.2366 C   0  0  0  0  0  0  0  0  0  0  0  0
   14.1565   35.1974   71.2495 C   0  0  0  0  0  0  0  0  0  0  0  0
   16.8539   29.2162   73.3215 S   0  0  0  0  0  0  0  0  0  0  0  0
   16.7710   28.2035   72.1911 O   0  0  0  0  0  0  0  0  0  0  0  0
   17.9475   28.7808   74.2532 O   0  0  0  0  0  0  0  0  0  0  0  0
   15.3108   29.2814   74.1233 C   0  0  0  0  0  0  0  0  0  0  0  0
   14.4464   30.3245   73.8198 C   0  0  0  0  0  0  0  0  0  0  0  0
   13.2097   30.4406   74.4147 C   0  0  0  0  0  0  0  0  0  0  0  0
   12.8082   29.5058   75.3375 C   0  0  0  0  0  0  0  0  0  0  0  0
   13.6403   28.4524   75.6671 C   0  0  0  0  0  0  0  0  0  0  0  0
   14.8838   28.3632   75.0473 C   0  0  0  0  0  0  0  0  0  0  0  0
   11.0939   29.6812   76.1511 Br  0  0  0  0  0  0  0  0  0  0  0  0
 20 21  2  0  0  0
 20 22  2  0  0  0
 20  1  1  0  0  0
 20 23  1  0  0  0
  1  2  1  0  0  0
  1  6  1  0  0  0
  2  3  1  0  0  0
  3  4  1  0  0  0
  4  5  1  0  0  0
  4  7  1  0  0  0
  5  6  1  0  0  0
  7  8  2  0  0  0
  7 12  1  0  0  0
  8  9  1  0  0  0
  9 10  2  0  0  0
  9 14  1  0  0  0
 10 11  1  0  0  0
 11 12  2  0  0  0
 11 13  1  0  0  0
 14 15  1  0  0  0
 14 19  1  0  0  0
 15 16  1  0  0  0
 16 17  1  0  0  0
 17 18  1  0  0  0
 18 19  1  0  0  0
 23 24  2  0  0  0
 23 28  1  0  0  0
 24 25  1  0  0  0
 25 26  2  0  0  0
 26 27  1  0  0  0
 26 29  1  0  0  0
 27 28  2  0  0  0
M  END
> <minimizedAffinity>
-8.66632

$$$$
1089


 25 28  0  0  0  0  0  0  0  0999 V2000
   19.5769   33.6372   71.5332 N   0  0  0  0  0  0  0  0  0  0  0  0
   19.0757   32.6045   70.7119 C   0  0  0  0  0  0  0  0  0  0  0  0
   17.5739   32.4731   70.6556 C   0  0  0  0  0  0  0  0  0  0  0  0
   16.9010   33.3825   71.5286 N   0  0  0  0  0  0  0  0  0  0  0  0
   17.4851   33.8885   72.7582 C   0  0  0  0  0  0  0  0  0  0  0  0
   18.9689   33.6687   72.8054 C   0  0  0  0  0  0  0  0  0  0  0  0
   15.5943   33.8394   71.2065 C   0  0  0  0  0  0  0  0  0  0  0  0
   14.5356   32.9830   71.3173 N   0  0  0  0  0  0  0  0  0  0  0  0
   13.3003   33.3933   71.0283 C   0  0  0  0  0  0  0  0  0  0  0  0
   13.0427   34.6365   70.6252 N   0  0  0  0  0  0  0  0  0  0  0  0
   14.0605   35.4868   70.5107 C   0  0  0  0  0  0  0  0  0  0  0  0
   14.1044   36.7677   70.1333 N   0  0  0  0  0  0  0  0  0  0  0  0
   15.4000   37.1867   70.1805 C   0  0  0  0  0  0  0  0  0  0  0  0
   16.1790   36.1833   70.5857 N   0  0  0  0  0  0  0  0  0  0  0  0
   15.3792   35.1278   70.7951 C   0  0  0  0  0  0  0  0  0  0  0  0
   17.2075   36.2360   70.7049 H   0  0  0  0  0  0  0  0  0  0  0  0
   20.0707   35.0727   70.8347 S   0  0  0  0  0  0  0  0  0  0  0  0
   20.8913   35.8528   71.8558 O   0  0  0  0  0  0  0  0  0  0  0  0
   18.9469   35.9586   70.4368 O   0  0  0  0  0  0  0  0  0  0  0  0
   21.1321   34.8902   69.4350 C   0  0  0  0  0  0  0  0  0  0  0  0
   22.4305   33.8127   69.1959 S   0  0  0  0  0  0  0  0  0  0  0  0
   22.8998   34.2816   67.6282 C   0  0  0  0  0  0  0  0  0  0  0  0
   22.0114   35.2862   67.3285 C   0  0  0  0  0  0  0  0  0  0  0  0
   21.1050   35.5936   68.2630 C   0  0  0  0  0  0  0  0  0  0  0  0
   24.3074   33.5970   66.5346 Br  0  0  0  0  0  0  0  0  0  0  0  0
 17 18  2  0  0  0
 17 19  2  0  0  0
 17  1  1  0  0  0
 17 20  1  0  0  0
  1  2  1  0  0  0
  1  6  1  0  0  0
  2  3  1  0  0  0
  3  4  1  0  0  0
  4  5  1  0  0  0
  4  7  1  0  0  0
  5  6  1  0  0  0
  7  8  2  0  0  0
  7 15  1  0  0  0
  8  9  1  0  0  0
  9 10  2  0  0  0
 10 11  1  0  0  0
 11 12  1  0  0  0
 11 15  2  0  0  0
 12 13  2  0  0  0
 13 14  1  0  0  0
 14 15  1  0  0  0
 20 21  1  0  0  0
 20 24  2  0  0  0
 21 22  1  0  0  0
 22 23  2  0  0  0
 22 25  1  0  0  0
 23 24  1  0  0  0
 14 16  1  0  0  0
M  END
> <minimizedAffinity>
-7.74160

$$$$
1100


 26 29  0  0  0  0  0  0  0  0999 V2000
   19.0162   34.1569   71.5574 N   0  0  0  0  0  0  0  0  0  0  0  0
   18.9316   32.8877   70.9161 C   0  0  0  0  0  0  0  0  0  0  0  0
   18.3884   31.8033   71.8224 C   0  0  0  0  0  0  0  0  0  0  0  0
   17.4121   32.4170   72.6859 N   0  0  0  0  0  0  0  0  0  0  0  0
   17.9234   33.3762   73.6317 C   0  0  0  0  0  0  0  0  0  0  0  0
   19.0073   34.1586   72.9814 C   0  0  0  0  0  0  0  0  0  0  0  0
   16.0308   32.1191   72.6342 C   0  0  0  0  0  0  0  0  0  0  0  0
   15.4631   31.2348   73.4549 C   0  0  0  0  0  0  0  0  0  0  0  0
   14.0502   30.9026   73.4339 C   0  0  0  0  0  0  0  0  0  0  0  0
   13.5411   30.0156   74.2728 C   0  0  0  0  0  0  0  0  0  0  0  0
   13.2175   31.5472   72.4935 N   0  0  0  0  0  0  0  0  0  0  0  0
   13.8622   32.4931   71.6272 C   0  0  0  0  0  0  0  0  0  0  0  0
   15.1748   32.7653   71.6868 N   0  0  0  0  0  0  0  0  0  0  0  0
   15.4732   33.6799   70.7605 N   0  0  0  0  0  0  0  0  0  0  0  0
   14.3555   34.0094   70.0900 C   0  0  0  0  0  0  0  0  0  0  0  0
   13.3710   33.2724   70.6317 N   0  0  0  0  0  0  0  0  0  0  0  0
   12.2061   31.3826   72.3978 H   0  0  0  0  0  0  0  0  0  0  0  0
   20.2953   35.0639   70.9052 S   0  0  0  0  0  0  0  0  0  0  0  0
   21.4512   34.2073   70.4572 O   0  0  0  0  0  0  0  0  0  0  0  0
   20.8395   35.9589   72.0090 O   0  0  0  0  0  0  0  0  0  0  0  0
   19.7713   36.1423   69.6132 C   0  0  0  0  0  0  0  0  0  0  0  0
   18.2982   36.9831   69.5290 S   0  0  0  0  0  0  0  0  0  0  0  0
   18.5183   37.7820   68.0425 C   0  0  0  0  0  0  0  0  0  0  0  0
   19.7593   37.3643   67.6422 C   0  0  0  0  0  0  0  0  0  0  0  0
   20.4115   36.5083   68.4646 C   0  0  0  0  0  0  0  0  0  0  0  0
   17.3353   38.9905   67.1107 Br  0  0  0  0  0  0  0  0  0  0  0  0
 18 19  2  0  0  0
 18 20  2  0  0  0
 18  1  1  0  0  0
 18 21  1  0  0  0
  1  2  1  0  0  0
  1  6  1  0  0  0
  2  3  1  0  0  0
  3  4  1  0  0  0
  4  5  1  0  0  0
  4  7  1  0  0  0
  5  6  1  0  0  0
  7  8  2  0  0  0
  7 13  1  0  0  0
  8  9  1  0  0  0
  9 10  2  0  0  0
  9 11  1  0  0  0
 11 12  1  0  0  0
 12 13  1  0  0  0
 12 16  2  0  0  0
 13 14  1  0  0  0
 14 15  2  0  0  0
 15 16  1  0  0  0
 21 22  1  0  0  0
 21 25  2  0  0  0
 22 23  1  0  0  0
 23 24  2  0  0  0
 23 26  1  0  0  0
 24 25  1  0  0  0
 11 17  1  0  0  0
M  END
> <minimizedAffinity>
-8.25179

$$$$
1101


 26 29  0  0  0  0  0  0  0  0999 V2000
   16.9486   31.6510   72.9816 N   0  0  0  0  0  0  0  0  0  0  0  0
   18.0073   30.9037   72.4157 C   0  0  0  0  0  0  0  0  0  0  0  0
   18.8143   31.5938   71.3735 C   0  0  0  0  0  0  0  0  0  0  0  0
   19.0884   32.9918   71.7424 N   0  0  0  0  0  0  0  0  0  0  0  0
   18.7212   33.3397   73.0986 C   0  0  0  0  0  0  0  0  0  0  0  0
   17.2418   33.0344   73.2355 C   0  0  0  0  0  0  0  0  0  0  0  0
   19.6663   33.8877   70.8136 C   0  0  0  0  0  0  0  0  0  0  0  0
   19.1136   35.1551   70.6760 C   0  0  0  0  0  0  0  0  0  0  0  0
   19.6913   36.0291   69.7574 C   0  0  0  0  0  0  0  0  0  0  0  0
   20.7413   35.6773   69.0269 N   0  0  0  0  0  0  0  0  0  0  0  0
   21.0606   36.7234   68.2477 C   0  0  0  0  0  0  0  0  0  0  0  0
   20.1861   37.7111   68.5201 N   0  0  0  0  0  0  0  0  0  0  0  0
   19.3430   37.2898   69.4469 N   0  0  0  0  0  0  0  0  0  0  0  0
   22.1815   36.7880   67.2552 C   0  0  0  0  0  0  0  0  0  0  0  0
   21.2699   34.4917   69.1460 N   0  0  0  0  0  0  0  0  0  0  0  0
   20.7449   33.6006   70.0272 C   0  0  0  0  0  0  0  0  0  0  0  0
   15.4159   31.4033   72.2849 S   0  0  0  0  0  0  0  0  0  0  0  0
   14.4474   31.0877   73.4182 O   0  0  0  0  0  0  0  0  0  0  0  0
   15.4228   30.1953   71.3963 O   0  0  0  0  0  0  0  0  0  0  0  0
   14.7859   32.8137   71.4774 C   0  0  0  0  0  0  0  0  0  0  0  0
   13.4758   33.2356   71.6589 C   0  0  0  0  0  0  0  0  0  0  0  0
   12.9792   34.3500   71.0199 C   0  0  0  0  0  0  0  0  0  0  0  0
   13.8166   35.0618   70.1760 C   0  0  0  0  0  0  0  0  0  0  0  0
   15.1279   34.6829   69.9635 C   0  0  0  0  0  0  0  0  0  0  0  0
   15.5840   33.5639   70.6208 C   0  0  0  0  0  0  0  0  0  0  0  0
   13.1096   36.6094   69.2953 Br  0  0  0  0  0  0  0  0  0  0  0  0
 17 18  2  0  0  0
 17 19  2  0  0  0
 17  1  1  0  0  0
 17 20  1  0  0  0
  1  2  1  0  0  0
  1  6  1  0  0  0
  2  3  1  0  0  0
  3  4  1  0  0  0
  4  5  1  0  0  0
  4  7  1  0  0  0
  5  6  1  0  0  0
  7  8  2  0  0  0
  7 16  1  0  0  0
  8  9  1  0  0  0
  9 10  1  0  0  0
  9 13  2  0  0  0
 10 11  1  0  0  0
 10 15  1  0  0  0
 11 12  2  0  0  0
 11 14  1  0  0  0
 12 13  1  0  0  0
 15 16  2  0  0  0
 20 21  2  0  0  0
 20 25  1  0  0  0
 21 22  1  0  0  0
 22 23  2  0  0  0
 23 24  1  0  0  0
 23 26  1  0  0  0
 24 25  2  0  0  0
M  END
> <minimizedAffinity>
-8.66935

$$$$
1105


 33 36  0  0  0  0  0  0  0  0999 V2000
   23.2545   34.2068   68.0695 N   0  0  0  0  0  0  0  0  0  0  0  0
   23.7566   33.9935   66.7539 C   0  0  0  0  0  0  0  0  0  0  0  0
   24.1236   35.2541   66.0043 C   0  0  0  0  0  0  0  0  0  0  0  0
   24.8898   36.1629   66.8605 N   0  0  0  0  0  0  0  0  0  0  0  0
   24.3037   36.3341   68.1712 C   0  0  0  0  0  0  0  0  0  0  0  0
   24.8273   37.0274   69.0467 O   0  0  0  0  0  0  0  0  0  0  0  0
   23.0148   35.5801   68.3213 C   0  0  0  0  0  0  0  0  0  0  0  0
   25.7493   36.6427   66.5951 H   0  0  0  0  0  0  0  0  0  0  0  0
   24.2283   33.3979   69.2030 S   0  0  0  0  0  0  0  0  0  0  0  0
   25.1446   34.2931   69.9750 O   0  0  0  0  0  0  0  0  0  0  0  0
   25.1215   32.3744   68.5123 O   0  0  0  0  0  0  0  0  0  0  0  0
   23.2649   32.4829   70.3492 C   0  0  0  0  0  0  0  0  0  0  0  0
   23.8352   31.6713   71.3222 C   0  0  0  0  0  0  0  0  0  0  0  0
   23.1055   30.9470   72.2222 C   0  0  0  0  0  0  0  0  0  0  0  0
   21.7361   30.9985   72.1971 C   0  0  0  0  0  0  0  0  0  0  0  0
   21.1256   31.8068   71.2305 C   0  0  0  0  0  0  0  0  0  0  0  0
   21.8907   32.5210   70.3403 C   0  0  0  0  0  0  0  0  0  0  0  0
   20.6656   30.0144   73.4240 Br  0  0  0  0  0  0  0  0  0  0  0  0
   22.2798   35.9363   69.5522 C   0  0  0  0  0  0  0  0  0  0  0  0
   21.1234   36.7979   69.2085 C   0  0  0  0  0  0  0  0  0  0  0  0
   21.3864   37.9065   68.6709 O   0  0  0  0  0  0  0  0  0  0  0  0
   19.7778   36.3969   69.4713 N   0  0  0  0  0  0  0  0  0  0  0  0
   19.4909   35.1294   70.0855 C   0  0  0  0  0  0  0  0  0  0  0  0
   18.2420   35.1168   70.9107 C   0  0  0  0  0  0  0  0  0  0  0  0
   17.2084   36.0176   70.4305 N   0  0  0  0  0  0  0  0  0  0  0  0
   17.6592   37.3820   70.2017 C   0  0  0  0  0  0  0  0  0  0  0  0
   18.7036   37.2844   69.1100 C   0  0  0  0  0  0  0  0  0  0  0  0
   15.8696   35.6720   70.2027 C   0  0  0  0  0  0  0  0  0  0  0  0
   15.4980   34.3462   70.2346 C   0  0  0  0  0  0  0  0  0  0  0  0
   14.1755   34.0063   69.9948 C   0  0  0  0  0  0  0  0  0  0  0  0
   13.2065   34.9400   69.7228 C   0  0  0  0  0  0  0  0  0  0  0  0
   13.5826   36.2631   69.6925 C   0  0  0  0  0  0  0  0  0  0  0  0
   14.9041   36.6107   69.9311 C   0  0  0  0  0  0  0  0  0  0  0  0
  9 10  2  0  0  0
  9 11  2  0  0  0
  9  1  1  0  0  0
  9 12  1  0  0  0
  1  2  1  0  0  0
  1  7  1  0  0  0
  2  3  1  0  0  0
  3  4  1  0  0  0
  4  5  1  0  0  0
  5  6  2  0  0  0
  5  7  1  0  0  0
  7 19  1  0  0  0
 19 20  1  0  0  0
 20 21  2  0  0  0
 20 22  1  0  0  0
 22 23  1  0  0  0
 22 27  1  0  0  0
 23 24  1  0  0  0
 24 25  1  0  0  0
 25 26  1  0  0  0
 25 28  1  0  0  0
 26 27  1  0  0  0
 28 29  2  0  0  0
 28 33  1  0  0  0
 29 30  1  0  0  0
 30 31  2  0  0  0
 31 32  1  0  0  0
 32 33  2  0  0  0
 12 13  2  0  0  0
 12 17  1  0  0  0
 13 14  1  0  0  0
 14 15  2  0  0  0
 15 16  1  0  0  0
 15 18  1  0  0  0
 16 17  2  0  0  0
  4  8  1  0  0  0
M  END
> <minimizedAffinity>
-8.86889

$$$$
1112


 32 35  0  0  0  0  0  0  0  0999 V2000
   19.6278   36.8341   69.1741 C   0  0  0  0  0  0  0  0  0  0  0  0
   23.0377   36.7407   66.5627 C   0  0  0  0  0  0  0  0  0  0  0  0
   23.2058   36.8493   67.9129 C   0  0  0  0  0  0  0  0  0  0  0  0
   22.1189   36.8808   68.7815 C   0  0  0  0  0  0  0  0  0  0  0  0
   20.8392   36.8041   68.3189 C   0  0  0  0  0  0  0  0  0  0  0  0
   20.6600   36.6932   66.9511 C   0  0  0  0  0  0  0  0  0  0  0  0
   21.7413   36.6616   66.0897 C   0  0  0  0  0  0  0  0  0  0  0  0
   24.3864   36.6980   65.4368 S   0  0  0  0  0  0  0  0  0  0  0  0
   25.6677   36.3857   66.1304 O   0  0  0  0  0  0  0  0  0  0  0  0
   24.1047   35.5562   64.4812 O   0  0  0  0  0  0  0  0  0  0  0  0
   24.5026   38.1261   64.5071 N   0  0  0  0  0  0  0  0  0  0  0  0
   25.7954   38.3055   63.9004 C   0  0  0  0  0  0  0  0  0  0  0  0
   25.9035   39.7888   63.5350 C   0  0  0  0  0  0  0  0  0  0  0  0
   26.1083   40.5506   64.6649 O   0  0  0  0  0  0  0  0  0  0  0  0
   25.5898   39.8649   65.7777 C   0  0  0  0  0  0  0  0  0  0  0  0
   24.2519   39.2826   65.3469 C   0  0  0  0  0  0  0  0  0  0  0  0
   18.7569   37.8879   68.8280 O   0  0  0  0  0  0  0  0  0  0  0  0
   17.3887   37.8500   68.9427 C   0  0  0  0  0  0  0  0  0  0  0  0
   16.6890   37.9072   67.9125 O   0  0  0  0  0  0  0  0  0  0  0  0
   16.7464   37.7452   70.2504 C   0  0  0  0  0  0  0  0  0  0  0  0
   15.9973   36.5364   70.4300 N   0  0  0  0  0  0  0  0  0  0  0  0
   16.5777   35.3230   70.9251 C   0  0  0  0  0  0  0  0  0  0  0  0
   17.7867   35.1639   71.2583 O   0  0  0  0  0  0  0  0  0  0  0  0
   15.5478   34.2925   70.9862 C   0  0  0  0  0  0  0  0  0  0  0  0
   14.3652   34.8282   70.5477 C   0  0  0  0  0  0  0  0  0  0  0  0
   13.2190   34.0577   70.5039 C   0  0  0  0  0  0  0  0  0  0  0  0
   13.2374   32.7337   70.8996 C   0  0  0  0  0  0  0  0  0  0  0  0
   14.4207   32.1813   71.3426 C   0  0  0  0  0  0  0  0  0  0  0  0
   15.5502   32.9727   71.3754 C   0  0  0  0  0  0  0  0  0  0  0  0
   14.4963   30.3591   71.8978 Br  0  0  0  0  0  0  0  0  0  0  0  0
   14.6323   36.2339   70.1965 C   0  0  0  0  0  0  0  0  0  0  0  0
   13.8026   37.0603   69.7568 O   0  0  0  0  0  0  0  0  0  0  0  0
  8  9  2  0  0  0
  8 10  2  0  0  0
  8 11  1  0  0  0
  8  2  1  0  0  0
 11 12  1  0  0  0
 11 16  1  0  0  0
 12 13  1  0  0  0
 13 14  1  0  0  0
 14 15  1  0  0  0
 15 16  1  0  0  0
  2  3  2  0  0  0
  2  7  1  0  0  0
  3  4  1  0  0  0
  4  5  2  0  0  0
  5  6  1  0  0  0
  5  1  1  0  0  0
  6  7  2  0  0  0
  1 17  1  0  0  0
 17 18  1  0  0  0
 18 19  2  0  0  0
 18 20  1  0  0  0
 20 21  1  0  0  0
 21 22  1  0  0  0
 21 31  1  0  0  0
 22 23  2  0  0  0
 22 24  1  0  0  0
 24 25  2  0  0  0
 24 29  1  0  0  0
 25 26  1  0  0  0
 25 31  1  0  0  0
 26 27  2  0  0  0
 27 28  1  0  0  0
 28 29  2  0  0  0
 28 30  1  0  0  0
 31 32  2  0  0  0
M  END
> <minimizedAffinity>
-9.34858

$$$$
1113


 28 31  0  0  0  0  0  0  0  0999 V2000
   21.5292   35.4231   69.9399 C   0  0  0  0  0  0  0  0  0  0  0  0
   22.6334   34.7261   69.6230 N   0  0  0  0  0  0  0  0  0  0  0  0
   22.6237   33.5537   70.3069 C   0  0  0  0  0  0  0  0  0  0  0  0
   21.5154   33.4925   71.0647 N   0  0  0  0  0  0  0  0  0  0  0  0
   20.8439   34.6148   70.8528 C   0  0  0  0  0  0  0  0  0  0  0  0
   21.0425   36.9951   69.3491 S   0  0  0  0  0  0  0  0  0  0  0  0
   21.2733   38.0028   70.4680 O   0  0  0  0  0  0  0  0  0  0  0  0
   21.9755   37.4248   68.2345 O   0  0  0  0  0  0  0  0  0  0  0  0
   19.4390   37.0931   68.8735 N   0  0  0  0  0  0  0  0  0  0  0  0
   18.4406   36.9534   69.8494 C   0  0  0  0  0  0  0  0  0  0  0  0
   17.3725   37.9934   69.6821 C   0  0  0  0  0  0  0  0  0  0  0  0
   16.8667   37.8721   68.3995 O   0  0  0  0  0  0  0  0  0  0  0  0
   17.7941   38.2184   67.4250 C   0  0  0  0  0  0  0  0  0  0  0  0
   19.1308   37.6114   67.6118 C   0  0  0  0  0  0  0  0  0  0  0  0
   21.1655   32.3851   71.9307 C   0  0  0  0  0  0  0  0  0  0  0  0
   19.7295   32.0356   71.8181 C   0  0  0  0  0  0  0  0  0  0  0  0
   19.1815   31.2941   70.8197 N   0  0  0  0  0  0  0  0  0  0  0  0
   17.9073   31.1911   71.0470 O   0  0  0  0  0  0  0  0  0  0  0  0
   17.5648   31.8217   72.1417 C   0  0  0  0  0  0  0  0  0  0  0  0
   18.7162   32.3535   72.6258 N   0  0  0  0  0  0  0  0  0  0  0  0
   16.2074   31.9481   72.7538 C   0  0  0  0  0  0  0  0  0  0  0  0
   15.4631   32.9533   71.9450 C   0  0  0  0  0  0  0  0  0  0  0  0
   15.9251   34.2600   71.9306 C   0  0  0  0  0  0  0  0  0  0  0  0
   15.3040   35.2497   71.2153 C   0  0  0  0  0  0  0  0  0  0  0  0
   14.1889   34.9232   70.4925 C   0  0  0  0  0  0  0  0  0  0  0  0
   13.6955   33.6556   70.4745 C   0  0  0  0  0  0  0  0  0  0  0  0
   14.3469   32.6698   71.2109 C   0  0  0  0  0  0  0  0  0  0  0  0
   13.2968   36.2746   69.4841 Br  0  0  0  0  0  0  0  0  0  0  0  0
  6  7  2  0  0  0
  6  8  2  0  0  0
  6  9  1  0  0  0
  6  1  1  0  0  0
  9 10  1  0  0  0
  9 14  1  0  0  0
 10 11  1  0  0  0
 11 12  1  0  0  0
 12 13  1  0  0  0
 13 14  1  0  0  0
  1  2  1  0  0  0
  1  5  2  0  0  0
  2  3  2  0  0  0
  3  4  1  0  0  0
  4  5  1  0  0  0
  4 15  1  0  0  0
 15 16  1  0  0  0
 16 17  2  0  0  0
 16 20  1  0  0  0
 17 18  1  0  0  0
 18 19  1  0  0  0
 19 20  2  0  0  0
 19 21  1  0  0  0
 21 22  1  0  0  0
 22 23  2  0  0  0
 22 27  1  0  0  0
 23 24  1  0  0  0
 24 25  2  0  0  0
 25 26  1  0  0  0
 25 28  1  0  0  0
 26 27  2  0  0  0
M  END
> <minimizedAffinity>
-8.26037

$$$$
1114


 27 30  0  0  0  0  0  0  0  0999 V2000
   21.4909   36.8716   68.7102 C   0  0  0  0  0  0  0  0  0  0  0  0
   21.4234   37.6991   69.7679 N   0  0  0  0  0  0  0  0  0  0  0  0
   21.2193   36.9618   70.8753 C   0  0  0  0  0  0  0  0  0  0  0  0
   21.1495   35.6594   70.5634 N   0  0  0  0  0  0  0  0  0  0  0  0
   21.3163   35.6013   69.2324 C   0  0  0  0  0  0  0  0  0  0  0  0
   21.7481   37.3139   67.0178 S   0  0  0  0  0  0  0  0  0  0  0  0
   20.8594   36.4272   66.1870 O   0  0  0  0  0  0  0  0  0  0  0  0
   21.3313   38.7271   66.7666 O   0  0  0  0  0  0  0  0  0  0  0  0
   23.3712   37.0462   66.5507 N   0  0  0  0  0  0  0  0  0  0  0  0
   24.0393   38.1942   66.0616 C   0  0  0  0  0  0  0  0  0  0  0  0
   25.0148   37.9807   64.9515 C   0  0  0  0  0  0  0  0  0  0  0  0
   25.6321   36.7281   65.1741 O   0  0  0  0  0  0  0  0  0  0  0  0
   24.6478   35.7938   64.8383 C   0  0  0  0  0  0  0  0  0  0  0  0
   23.5899   35.8150   65.8834 C   0  0  0  0  0  0  0  0  0  0  0  0
   20.9395   34.5571   71.4794 C   0  0  0  0  0  0  0  0  0  0  0  0
   19.5171   34.3898   71.8560 C   0  0  0  0  0  0  0  0  0  0  0  0
   19.0804   34.1242   73.1016 N   0  0  0  0  0  0  0  0  0  0  0  0
   17.7847   34.0401   73.0768 O   0  0  0  0  0  0  0  0  0  0  0  0
   17.3275   34.2370   71.8705 C   0  0  0  0  0  0  0  0  0  0  0  0
   18.4081   34.4563   71.1041 N   0  0  0  0  0  0  0  0  0  0  0  0
   15.9157   34.2146   71.4845 C   0  0  0  0  0  0  0  0  0  0  0  0
   15.3408   35.2353   70.7565 C   0  0  0  0  0  0  0  0  0  0  0  0
   13.9956   35.1996   70.3964 C   0  0  0  0  0  0  0  0  0  0  0  0
   13.1928   34.1403   70.7554 C   0  0  0  0  0  0  0  0  0  0  0  0
   13.7643   33.1186   71.4825 C   0  0  0  0  0  0  0  0  0  0  0  0
   15.1137   33.1573   71.8430 C   0  0  0  0  0  0  0  0  0  0  0  0
   13.2185   36.6257   69.3871 Br  0  0  0  0  0  0  0  0  0  0  0  0
  6  7  2  0  0  0
  6  8  2  0  0  0
  6  9  1  0  0  0
  6  1  1  0  0  0
  9 10  1  0  0  0
  9 14  1  0  0  0
 10 11  1  0  0  0
 11 12  1  0  0  0
 12 13  1  0  0  0
 13 14  1  0  0  0
  1  2  1  0  0  0
  1  5  2  0  0  0
  2  3  2  0  0  0
  3  4  1  0  0  0
  4  5  1  0  0  0
  4 15  1  0  0  0
 15 16  1  0  0  0
 16 17  2  0  0  0
 16 20  1  0  0  0
 17 18  1  0  0  0
 18 19  1  0  0  0
 19 20  2  0  0  0
 19 21  1  0  0  0
 21 22  2  0  0  0
 21 26  1  0  0  0
 22 23  1  0  0  0
 23 24  2  0  0  0
 23 27  1  0  0  0
 24 25  1  0  0  0
 25 26  2  0  0  0
M  END
> <minimizedAffinity>
-8.41746

$$$$
1130


 29 32  0  0  0  0  0  0  0  0999 V2000
   19.0455   35.8741   70.2741 C   0  0  0  0  0  0  0  0  0  0  0  0
   19.2686   34.6681   70.8239 N   0  0  0  0  0  0  0  0  0  0  0  0
   18.3067   33.8607   71.2411 N   0  0  0  0  0  0  0  0  0  0  0  0
   17.0084   34.2154   71.1350 C   0  0  0  0  0  0  0  0  0  0  0  0
   16.7545   35.4503   70.5739 C   0  0  0  0  0  0  0  0  0  0  0  0
   15.4128   35.5803   70.5731 N   0  0  0  0  0  0  0  0  0  0  0  0
   14.8205   34.4971   71.1011 C   0  0  0  0  0  0  0  0  0  0  0  0
   15.8088   33.6100   71.4697 C   0  0  0  0  0  0  0  0  0  0  0  0
   15.5346   32.3810   72.0505 C   0  0  0  0  0  0  0  0  0  0  0  0
   14.2019   32.0691   72.2540 C   0  0  0  0  0  0  0  0  0  0  0  0
   13.1929   32.9396   71.8958 C   0  0  0  0  0  0  0  0  0  0  0  0
   13.4875   34.1522   71.3207 C   0  0  0  0  0  0  0  0  0  0  0  0
   13.8236   30.3741   73.0561 Br  0  0  0  0  0  0  0  0  0  0  0  0
   14.7330   36.7535   70.0600 C   0  0  0  0  0  0  0  0  0  0  0  0
   17.7659   36.2659   70.1511 N   0  0  0  0  0  0  0  0  0  0  0  0
   20.4109   36.9207   69.7278 S   0  0  0  0  0  0  0  0  0  0  0  0
   21.9287   35.9300   69.7664 C   0  0  0  0  0  0  0  0  0  0  0  0
   22.2850   35.5581   68.3668 C   0  0  0  0  0  0  0  0  0  0  0  0
   21.4596   34.9344   67.6266 O   0  0  0  0  0  0  0  0  0  0  0  0
   23.5417   35.8805   67.8138 N   0  0  0  0  0  0  0  0  0  0  0  0
   24.2290   36.3910   68.4086 H   0  0  0  0  0  0  0  0  0  0  0  0
   23.8780   35.5278   66.4845 C   0  0  0  0  0  0  0  0  0  0  0  0
   23.6903   36.2444   65.3640 N   0  0  0  0  0  0  0  0  0  0  0  0
   24.1298   35.5886   64.3252 O   0  0  0  0  0  0  0  0  0  0  0  0
   24.5984   34.4628   64.7448 N   0  0  0  0  0  0  0  0  0  0  0  0
   24.4805   34.3439   66.0733 C   0  0  0  0  0  0  0  0  0  0  0  0
   24.8892   33.2439   66.8578 N   0  0  0  0  0  0  0  0  0  0  0  0
   25.2202   33.4057   67.8273 H   0  0  0  0  0  0  0  0  0  0  0  0
   24.8734   32.2655   66.5049 H   0  0  0  0  0  0  0  0  0  0  0  0
 16 17  1  0  0  0
 16  1  1  0  0  0
 17 18  1  0  0  0
 18 19  2  0  0  0
 18 20  1  0  0  0
 20 22  1  0  0  0
 22 23  2  0  0  0
 22 26  1  0  0  0
 23 24  1  0  0  0
 24 25  1  0  0  0
 25 26  2  0  0  0
 26 27  1  0  0  0
  1  2  2  0  0  0
  1 15  1  0  0  0
  2  3  1  0  0  0
  3  4  2  0  0  0
  4  5  1  0  0  0
  4  8  1  0  0  0
  5  6  1  0  0  0
  5 15  2  0  0  0
  6  7  1  0  0  0
  6 14  1  0  0  0
  7  8  2  0  0  0
  7 12  1  0  0  0
  8  9  1  0  0  0
  9 10  2  0  0  0
 10 11  1  0  0  0
 10 13  1  0  0  0
 11 12  2  0  0  0
 20 21  1  0  0  0
 27 28  1  0  0  0
 27 29  1  0  0  0
M  END
> <minimizedAffinity>
-8.91538

$$$$
1133


 35 38  0  0  0  0  0  0  0  0999 V2000
   16.0087   35.9784   70.6147 C   0  0  0  0  0  0  0  0  0  0  0  0
   16.3950   34.8497   71.2092 N   0  0  0  0  0  0  0  0  0  0  0  0
   15.2945   34.0563   71.2955 C   0  0  0  0  0  0  0  0  0  0  0  0
   14.9729   32.8656   71.8242 N   0  0  0  0  0  0  0  0  0  0  0  0
   13.7541   32.3155   71.8331 C   0  0  0  0  0  0  0  0  0  0  0  0
   12.7214   33.0256   71.2358 N   0  0  0  0  0  0  0  0  0  0  0  0
   12.9408   34.1979   70.6945 C   0  0  0  0  0  0  0  0  0  0  0  0
   14.2051   34.7516   70.7035 C   0  0  0  0  0  0  0  0  0  0  0  0
   14.7038   35.9177   70.3120 N   0  0  0  0  0  0  0  0  0  0  0  0
   11.9588   34.9366   70.0836 O   0  0  0  0  0  0  0  0  0  0  0  0
   13.4197   31.0617   72.4475 N   0  0  0  0  0  0  0  0  0  0  0  0
   11.9293   35.1203   69.0872 H   0  0  0  0  0  0  0  0  0  0  0  0
   13.1780   30.1930   71.9756 H   0  0  0  0  0  0  0  0  0  0  0  0
   13.3837   31.0470   73.5258 H   0  0  0  0  0  0  0  0  0  0  0  0
   17.6811   34.4287   71.6633 C   0  0  0  0  0  0  0  0  0  0  0  0
   18.5125   33.9181   70.6421 O   0  0  0  0  0  0  0  0  0  0  0  0
   19.5795   33.4459   71.4406 C   0  0  0  0  0  0  0  0  0  0  0  0
   18.7633   32.4539   72.3098 C   0  0  0  0  0  0  0  0  0  0  0  0
   17.7061   33.4538   72.7961 C   0  0  0  0  0  0  0  0  0  0  0  0
   18.2249   34.0470   73.9756 O   0  0  0  0  0  0  0  0  0  0  0  0
   19.5028   31.9165   73.3283 O   0  0  0  0  0  0  0  0  0  0  0  0
   18.0341   33.3873   74.6791 H   0  0  0  0  0  0  0  0  0  0  0  0
   19.2966   30.9564   73.4297 H   0  0  0  0  0  0  0  0  0  0  0  0
   20.6255   32.7658   70.6421 C   0  0  0  0  0  0  0  0  0  0  0  0
   20.2564   31.4434   70.3664 O   0  0  0  0  0  0  0  0  0  0  0  0
   19.4311   31.2495   70.9083 H   0  0  0  0  0  0  0  0  0  0  0  0
   17.0316   37.4300   70.3328 S   0  0  0  0  0  0  0  0  0  0  0  0
   18.0454   37.2150   68.8048 C   0  0  0  0  0  0  0  0  0  0  0  0
   19.4823   37.2023   69.1618 C   0  0  0  0  0  0  0  0  0  0  0  0
   20.5066   37.1494   68.2485 C   0  0  0  0  0  0  0  0  0  0  0  0
   21.7982   37.0026   68.6186 C   0  0  0  0  0  0  0  0  0  0  0  0
   22.1644   36.9046   69.9561 C   0  0  0  0  0  0  0  0  0  0  0  0
   21.1432   36.9519   70.9154 C   0  0  0  0  0  0  0  0  0  0  0  0
   19.8269   37.0986   70.5230 C   0  0  0  0  0  0  0  0  0  0  0  0
   20.0089   37.4337   66.4238 Br  0  0  0  0  0  0  0  0  0  0  0  0
 27 28  1  0  0  0
 27  1  1  0  0  0
 28 29  1  0  0  0
 29 30  2  0  0  0
 29 34  1  0  0  0
 30 31  1  0  0  0
 30 35  1  0  0  0
 31 32  2  0  0  0
 32 33  1  0  0  0
 33 34  2  0  0  0
  1  2  1  0  0  0
  1  9  2  0  0  0
  2  3  1  0  0  0
  2 15  1  0  0  0
  3  4  2  0  0  0
  3  8  1  0  0  0
  4  5  1  0  0  0
  5  6  2  0  0  0
  5 11  1  0  0  0
  6  7  1  0  0  0
  7  8  2  0  0  0
  7 10  1  0  0  0
  8  9  1  0  0  0
 15 16  1  0  0  0
 15 19  1  0  0  0
 16 17  1  0  0  0
 17 18  1  0  0  0
 17 24  1  0  0  0
 18 19  1  0  0  0
 18 21  1  0  0  0
 19 20  1  0  0  0
 24 25  1  0  0  0
 10 12  1  0  0  0
 11 13  1  0  0  0
 11 14  1  0  0  0
 20 22  1  0  0  0
 21 23  1  0  0  0
 25 26  1  0  0  0
M  END
> <minimizedAffinity>
-9.15201

$$$$
1143


 33 37  0  0  0  0  0  0  0  0999 V2000
   18.7192   27.3241   75.1784 C   0  0  0  0  0  0  0  0  0  0  0  0
   19.0531   26.6172   76.4072 N   0  0  0  0  0  0  0  0  0  0  0  0
   19.3379   27.5684   77.4678 C   0  0  0  0  0  0  0  0  0  0  0  0
   19.5375   28.9828   76.9896 C   0  0  0  0  0  0  0  0  0  0  0  0
   20.3751   28.9383   75.7383 C   0  0  0  0  0  0  0  0  0  0  0  0
   19.9302   28.0115   74.7654 C   0  0  0  0  0  0  0  0  0  0  0  0
   20.6339   27.8740   73.6013 C   0  0  0  0  0  0  0  0  0  0  0  0
   21.7662   28.6668   73.4289 C   0  0  0  0  0  0  0  0  0  0  0  0
   22.1775   29.5618   74.3881 C   0  0  0  0  0  0  0  0  0  0  0  0
   21.4777   29.7111   75.5711 C   0  0  0  0  0  0  0  0  0  0  0  0
   23.3167   30.1940   73.9343 O   0  0  0  0  0  0  0  0  0  0  0  0
   23.7995   29.5005   72.8101 C   0  0  0  0  0  0  0  0  0  0  0  0
   22.6563   28.7543   72.3931 O   0  0  0  0  0  0  0  0  0  0  0  0
   20.1503   25.7183   76.3009 C   0  0  0  0  0  0  0  0  0  0  0  0
   18.2023   26.0851   76.6857 H   0  0  0  0  0  0  0  0  0  0  0  0
   14.4446   28.9170   76.2357 S   0  0  0  0  0  0  0  0  0  0  0  0
   15.5688   27.8521   75.3452 C   0  0  0  0  0  0  0  0  0  0  0  0
   15.9762   26.7305   75.8176 N   0  0  0  0  0  0  0  0  0  0  0  0
   16.8647   25.8355   75.1697 C   0  0  0  0  0  0  0  0  0  0  0  0
   16.8321   24.6088   75.2981 O   0  0  0  0  0  0  0  0  0  0  0  0
   17.9044   26.5330   74.2656 C   0  0  0  0  0  0  0  0  0  0  0  0
   16.9910   27.3177   73.3805 C   0  0  0  0  0  0  0  0  0  0  0  0
   16.9490   27.2681   72.1499 O   0  0  0  0  0  0  0  0  0  0  0  0
   16.0929   28.1963   74.0420 N   0  0  0  0  0  0  0  0  0  0  0  0
   15.7188   29.3912   73.4200 C   0  0  0  0  0  0  0  0  0  0  0  0
   16.6477   30.4391   73.4194 C   0  0  0  0  0  0  0  0  0  0  0  0
   16.3512   31.6468   72.8252 C   0  0  0  0  0  0  0  0  0  0  0  0
   15.1105   31.8216   72.2203 C   0  0  0  0  0  0  0  0  0  0  0  0
   14.1881   30.7672   72.2255 C   0  0  0  0  0  0  0  0  0  0  0  0
   14.5017   29.5696   72.8229 C   0  0  0  0  0  0  0  0  0  0  0  0
   14.6650   33.4595   71.3955 Br  0  0  0  0  0  0  0  0  0  0  0  0
   20.2481   26.9747   72.6171 O   0  0  0  0  0  0  0  0  0  0  0  0
   20.9750   25.7591   72.4752 C   0  0  0  0  0  0  0  0  0  0  0  0
 16 17  1  0  0  0
 17 18  2  0  0  0
 17 24  1  0  0  0
 18 19  1  0  0  0
 19 20  2  0  0  0
 19 21  1  0  0  0
 21 22  1  0  0  0
 21  1  1  0  0  0
 22 23  2  0  0  0
 22 24  1  0  0  0
 24 25  1  0  0  0
 25 26  2  0  0  0
 25 30  1  0  0  0
 26 27  1  0  0  0
 27 28  2  0  0  0
 28 29  1  0  0  0
 28 31  1  0  0  0
 29 30  2  0  0  0
  1  2  1  0  0  0
  1  6  1  0  0  0
  2  3  1  0  0  0
  2 14  1  0  0  0
  3  4  1  0  0  0
  4  5  1  0  0  0
  5  6  2  0  0  0
  5 10  1  0  0  0
  6  7  1  0  0  0
  7  8  2  0  0  0
  7 32  1  0  0  0
  8  9  1  0  0  0
  8 13  1  0  0  0
  9 10  2  0  0  0
  9 11  1  0  0  0
 11 12  1  0  0  0
 12 13  1  0  0  0
 32 33  1  0  0  0
  2 15  1  0  0  0
M  CHG 1   2   1
M  END
> <minimizedAffinity>
-5.76466

$$$$
1151


 24 27  0  0  0  0  0  0  0  0999 V2000
   24.2460   36.5707   68.7242 S   0  0  0  0  0  0  0  0  0  0  0  0
   25.3544   37.5653   68.5356 O   0  0  0  0  0  0  0  0  0  0  0  0
   24.7718   35.2147   69.1043 O   0  0  0  0  0  0  0  0  0  0  0  0
   23.0725   37.1301   69.9400 C   0  0  0  0  0  0  0  0  0  0  0  0
   21.7613   36.4562   69.5916 C   0  0  0  0  0  0  0  0  0  0  0  0
   21.2524   37.0341   68.3641 N   0  0  0  0  0  0  0  0  0  0  0  0
   22.1558   37.4088   67.2964 C   0  0  0  0  0  0  0  0  0  0  0  0
   23.2978   36.3945   67.2061 C   0  0  0  0  0  0  0  0  0  0  0  0
   19.8428   37.0950   68.5387 C   0  0  0  0  0  0  0  0  0  0  0  0
   18.9807   37.3030   67.6188 O   0  0  0  0  0  0  0  0  0  0  0  0
   19.4954   36.8874   69.9013 N   0  0  0  0  0  0  0  0  0  0  0  0
   20.7189   36.6940   70.5952 C   0  0  0  0  0  0  0  0  0  0  0  0
   20.8985   36.7184   71.8484 O   0  0  0  0  0  0  0  0  0  0  0  0
   18.1674   36.8716   70.4961 C   0  0  0  0  0  0  0  0  0  0  0  0
   17.1865   37.6882   69.6728 C   0  0  0  0  0  0  0  0  0  0  0  0
   15.8697   37.6703   70.4518 C   0  0  0  0  0  0  0  0  0  0  0  0
   15.4114   36.3307   70.4162 O   0  0  0  0  0  0  0  0  0  0  0  0
   16.3063   35.2713   70.5161 C   0  0  0  0  0  0  0  0  0  0  0  0
   17.6539   35.4904   70.5572 C   0  0  0  0  0  0  0  0  0  0  0  0
   18.5343   34.4489   70.6550 C   0  0  0  0  0  0  0  0  0  0  0  0
   18.0376   33.1689   70.7106 C   0  0  0  0  0  0  0  0  0  0  0  0
   16.6817   32.9641   70.6686 C   0  0  0  0  0  0  0  0  0  0  0  0
   15.7655   33.9956   70.5693 C   0  0  0  0  0  0  0  0  0  0  0  0
   13.8890   33.6981   70.5118 Br  0  0  0  0  0  0  0  0  0  0  0  0
  1  2  2  0  0  0
  1  3  2  0  0  0
  1  4  1  0  0  0
  1  8  1  0  0  0
  4  5  1  0  0  0
  5  6  1  0  0  0
  5 12  1  0  0  0
  6  7  1  0  0  0
  6  9  1  0  0  0
  7  8  1  0  0  0
  9 10  2  0  0  0
  9 11  1  0  0  0
 11 12  1  0  0  0
 11 14  1  0  0  0
 12 13  2  0  0  0
 14 15  1  0  0  0
 14 19  1  0  0  0
 15 16  1  0  0  0
 16 17  1  0  0  0
 17 18  1  0  0  0
 18 19  2  0  0  0
 18 23  1  0  0  0
 19 20  1  0  0  0
 20 21  2  0  0  0
 21 22  1  0  0  0
 22 23  2  0  0  0
 23 24  1  0  0  0
M  END
> <minimizedAffinity>
-8.54648

$$$$
1157


 24 27  0  0  0  0  0  0  0  0999 V2000
   14.3867   36.2185   70.5687 C   0  0  0  0  0  0  0  0  0  0  0  0
   14.0348   35.1484   71.5704 C   0  0  0  0  0  0  0  0  0  0  0  0
   13.9257   33.9731   70.7191 N   0  0  0  0  0  0  0  0  0  0  0  0
   13.1314   34.3950   69.5901 C   0  0  0  0  0  0  0  0  0  0  0  0
   13.4605   35.8666   69.4242 C   0  0  0  0  0  0  0  0  0  0  0  0
   14.5078   32.6894   70.9968 C   0  0  0  0  0  0  0  0  0  0  0  0
   13.7372   31.6262   71.2940 N   0  0  0  0  0  0  0  0  0  0  0  0
   14.3109   30.4378   71.5505 C   0  0  0  0  0  0  0  0  0  0  0  0
   15.6708   30.2636   71.5210 C   0  0  0  0  0  0  0  0  0  0  0  0
   16.4542   31.3146   71.2253 N   0  0  0  0  0  0  0  0  0  0  0  0
   15.8687   32.5012   70.9705 C   0  0  0  0  0  0  0  0  0  0  0  0
   16.8893   33.3420   70.7135 N   0  0  0  0  0  0  0  0  0  0  0  0
   18.0522   32.7192   70.8018 N   0  0  0  0  0  0  0  0  0  0  0  0
   17.7993   31.4395   71.1238 C   0  0  0  0  0  0  0  0  0  0  0  0
   16.6985   37.1148   70.1916 C   0  0  0  0  0  0  0  0  0  0  0  0
   16.4385   38.2258   70.7161 O   0  0  0  0  0  0  0  0  0  0  0  0
   15.7496   36.0738   70.0790 N   0  0  0  0  0  0  0  0  0  0  0  0
   16.0528   35.1824   69.6278 H   0  0  0  0  0  0  0  0  0  0  0  0
   19.4158   36.1742   70.4126 S   0  0  0  0  0  0  0  0  0  0  0  0
   18.0807   36.9492   69.6870 C   0  0  0  0  0  0  0  0  0  0  0  0
   18.5979   37.3932   68.4979 C   0  0  0  0  0  0  0  0  0  0  0  0
   19.8816   37.1307   68.2434 C   0  0  0  0  0  0  0  0  0  0  0  0
   20.5807   36.4356   69.1966 C   0  0  0  0  0  0  0  0  0  0  0  0
   20.7922   37.6754   66.6195 Br  0  0  0  0  0  0  0  0  0  0  0  0
 19 20  1  0  0  0
 19 23  1  0  0  0
 20 21  2  0  0  0
 20 15  1  0  0  0
 21 22  1  0  0  0
 22 23  2  0  0  0
 22 24  1  0  0  0
 15 16  2  0  0  0
 15 17  1  0  0  0
 17  1  1  0  0  0
  1  2  1  0  0  0
  1  5  1  0  0  0
  2  3  1  0  0  0
  3  4  1  0  0  0
  3  6  1  0  0  0
  4  5  1  0  0  0
  6  7  2  0  0  0
  6 11  1  0  0  0
  7  8  1  0  0  0
  8  9  2  0  0  0
  9 10  1  0  0  0
 10 11  1  0  0  0
 10 14  1  0  0  0
 11 12  2  0  0  0
 12 13  1  0  0  0
 13 14  2  0  0  0
 17 18  1  0  0  0
M  END
> <minimizedAffinity>
-7.84927

$$$$
1160


 25 28  0  0  0  0  0  0  0  0999 V2000
   18.2307   37.8941   67.8789 C   0  0  0  0  0  0  0  0  0  0  0  0
   19.4234   37.2927   67.7176 N   0  0  0  0  0  0  0  0  0  0  0  0
   20.1774   37.9837   66.8454 C   0  0  0  0  0  0  0  0  0  0  0  0
   19.4141   39.0259   66.4760 N   0  0  0  0  0  0  0  0  0  0  0  0
   18.2617   38.9516   67.1030 O   0  0  0  0  0  0  0  0  0  0  0  0
   21.5333   37.6903   66.3811 C   0  0  0  0  0  0  0  0  0  0  0  0
   22.0327   36.4730   66.1086 N   0  0  0  0  0  0  0  0  0  0  0  0
   23.3045   36.5781   65.7084 N   0  0  0  0  0  0  0  0  0  0  0  0
   23.6402   37.8877   65.7198 C   0  0  0  0  0  0  0  0  0  0  0  0
   22.5361   38.5501   66.1375 N   0  0  0  0  0  0  0  0  0  0  0  0
   24.1800   35.4832   65.3253 C   0  0  0  0  0  0  0  0  0  0  0  0
   24.1542   34.4625   66.3946 C   0  0  0  0  0  0  0  0  0  0  0  0
   24.2327   33.2564   66.0743 O   0  0  0  0  0  0  0  0  0  0  0  0
   24.0435   34.8573   67.7483 N   0  0  0  0  0  0  0  0  0  0  0  0
   24.6314   34.4133   68.5066 H   0  0  0  0  0  0  0  0  0  0  0  0
   23.3876   35.6015   68.0885 H   0  0  0  0  0  0  0  0  0  0  0  0
   17.5434   37.0212   70.1628 C   0  0  0  0  0  0  0  0  0  0  0  0
   17.0927   37.4547   68.7609 C   0  0  0  0  0  0  0  0  0  0  0  0
   16.7639   38.2458   69.9691 C   0  0  0  0  0  0  0  0  0  0  0  0
   16.2406   33.6060   71.5170 S   0  0  0  0  0  0  0  0  0  0  0  0
   14.8941   34.5757   71.1525 C   0  0  0  0  0  0  0  0  0  0  0  0
   15.4535   35.7388   70.6921 C   0  0  0  0  0  0  0  0  0  0  0  0
   16.8048   35.7910   70.6575 C   0  0  0  0  0  0  0  0  0  0  0  0
   17.4830   34.6836   71.0822 C   0  0  0  0  0  0  0  0  0  0  0  0
   13.0131   34.1771   71.3277 Br  0  0  0  0  0  0  0  0  0  0  0  0
 20 21  1  0  0  0
 20 24  1  0  0  0
 21 22  2  0  0  0
 21 25  1  0  0  0
 22 23  1  0  0  0
 23 24  2  0  0  0
 23 17  1  0  0  0
 17 18  1  0  0  0
 17 19  1  0  0  0
 18 19  1  0  0  0
 18  1  1  0  0  0
  1  2  2  0  0  0
  1  5  1  0  0  0
  2  3  1  0  0  0
  3  4  2  0  0  0
  3  6  1  0  0  0
  4  5  1  0  0  0
  6  7  2  0  0  0
  6 10  1  0  0  0
  7  8  1  0  0  0
  8  9  1  0  0  0
  8 11  1  0  0  0
  9 10  2  0  0  0
 11 12  1  0  0  0
 12 13  2  0  0  0
 12 14  1  0  0  0
 14 15  1  0  0  0
 14 16  1  0  0  0
M  END
> <minimizedAffinity>
-7.98146

$$$$
1161


 29 32  0  0  0  0  0  0  0  0999 V2000
   17.6242   32.1993   70.7043 N   0  0  0  0  0  0  0  0  0  0  0  0
   17.0711   33.4356   70.7126 C   0  0  0  0  0  0  0  0  0  0  0  0
   18.0530   34.3793   70.6997 C   0  0  0  0  0  0  0  0  0  0  0  0
   17.7330   35.7248   70.7029 C   0  0  0  0  0  0  0  0  0  0  0  0
   16.4082   36.0966   70.7191 C   0  0  0  0  0  0  0  0  0  0  0  0
   15.4009   35.1660   70.7314 C   0  0  0  0  0  0  0  0  0  0  0  0
   15.7535   33.8347   70.7281 C   0  0  0  0  0  0  0  0  0  0  0  0
   19.2160   33.7207   70.6863 N   0  0  0  0  0  0  0  0  0  0  0  0
   18.9471   32.3836   70.6897 C   0  0  0  0  0  0  0  0  0  0  0  0
   19.9045   31.5324   70.6902 N   0  0  0  0  0  0  0  0  0  0  0  0
   19.8578   30.5152   70.7034 H   0  0  0  0  0  0  0  0  0  0  0  0
   16.8714   30.9702   70.7122 C   0  0  0  0  0  0  0  0  0  0  0  0
   16.8766   30.3255   72.0482 C   0  0  0  0  0  0  0  0  0  0  0  0
   17.9158   29.7878   72.5038 O   0  0  0  0  0  0  0  0  0  0  0  0
   15.2389   29.1782   74.1250 S   0  0  0  0  0  0  0  0  0  0  0  0
   13.7341   29.8311   74.5702 C   0  0  0  0  0  0  0  0  0  0  0  0
   13.6130   30.9077   73.7358 C   0  0  0  0  0  0  0  0  0  0  0  0
   14.6072   31.1417   72.8766 C   0  0  0  0  0  0  0  0  0  0  0  0
   15.6781   30.2839   72.8936 C   0  0  0  0  0  0  0  0  0  0  0  0
   12.5349   29.1956   75.9104 Br  0  0  0  0  0  0  0  0  0  0  0  0
   20.5269   34.3543   70.6564 C   0  0  0  0  0  0  0  0  0  0  0  0
   20.8317   34.7549   69.2050 C   0  0  0  0  0  0  0  0  0  0  0  0
   21.7505   35.8541   69.1331 N   0  0  0  0  0  0  0  0  0  0  0  0
   22.5007   35.9166   67.8948 C   0  0  0  0  0  0  0  0  0  0  0  0
   21.6043   35.8584   66.6904 C   0  0  0  0  0  0  0  0  0  0  0  0
   20.4458   36.7948   66.7690 C   0  0  0  0  0  0  0  0  0  0  0  0
   19.9791   37.1398   68.1377 C   0  0  0  0  0  0  0  0  0  0  0  0
   21.0002   37.0835   69.2176 C   0  0  0  0  0  0  0  0  0  0  0  0
   22.4614   35.7858   69.8932 H   0  0  0  0  0  0  0  0  0  0  0  0
 15 16  1  0  0  0
 15 19  1  0  0  0
 16 17  2  0  0  0
 16 20  1  0  0  0
 17 18  1  0  0  0
 18 19  2  0  0  0
 19 13  1  0  0  0
 13 14  2  0  0  0
 13 12  1  0  0  0
 12  1  1  0  0  0
  1  2  1  0  0  0
  1  9  1  0  0  0
  2  3  1  0  0  0
  2  7  2  0  0  0
  3  4  2  0  0  0
  3  8  1  0  0  0
  4  5  1  0  0  0
  5  6  2  0  0  0
  6  7  1  0  0  0
  8  9  1  0  0  0
  8 21  1  0  0  0
  9 10  2  0  0  0
 21 22  1  0  0  0
 22 23  1  0  0  0
 23 24  1  0  0  0
 23 28  1  0  0  0
 24 25  1  0  0  0
 25 26  1  0  0  0
 26 27  1  0  0  0
 27 28  1  0  0  0
 10 11  1  0  0  0
 23 29  1  0  0  0
M  CHG 1  23   1
M  END
> <minimizedAffinity>
-7.80995

$$$$
1177


 33 36  0  0  0  0  0  0  0  0999 V2000
   17.5267   29.1834   73.3791 C   0  0  0  0  0  0  0  0  0  0  0  0
   16.3587   29.7943   73.4339 C   0  0  0  0  0  0  0  0  0  0  0  0
   16.0129   31.1860   72.9919 C   0  0  0  0  0  0  0  0  0  0  0  0
   14.6572   31.0762   72.5517 N   0  0  0  0  0  0  0  0  0  0  0  0
   14.0699   30.0871   73.4426 C   0  0  0  0  0  0  0  0  0  0  0  0
   12.8286   30.0030   73.6477 O   0  0  0  0  0  0  0  0  0  0  0  0
   15.1274   29.2705   74.0106 C   0  0  0  0  0  0  0  0  0  0  0  0
   15.0068   28.3058   74.8367 O   0  0  0  0  0  0  0  0  0  0  0  0
   18.6380   29.8806   72.8522 O   0  0  0  0  0  0  0  0  0  0  0  0
   17.2410   26.3832   73.0168 S   0  0  0  0  0  0  0  0  0  0  0  0
   17.6648   25.2392   74.2088 C   0  0  0  0  0  0  0  0  0  0  0  0
   18.1196   26.0056   75.1820 N   0  0  0  0  0  0  0  0  0  0  0  0
   18.1422   27.2979   75.0380 C   0  0  0  0  0  0  0  0  0  0  0  0
   17.6831   27.8099   73.8528 C   0  0  0  0  0  0  0  0  0  0  0  0
   18.6284   28.1795   76.1811 C   0  0  0  0  0  0  0  0  0  0  0  0
   17.5495   23.7331   74.1660 C   0  0  0  0  0  0  0  0  0  0  0  0
   16.9855   31.7142   72.0443 C   0  0  0  0  0  0  0  0  0  0  0  0
   17.8547   32.7219   72.4911 C   0  0  0  0  0  0  0  0  0  0  0  0
   18.8274   33.2805   71.7019 C   0  0  0  0  0  0  0  0  0  0  0  0
   18.9792   32.8491   70.4072 C   0  0  0  0  0  0  0  0  0  0  0  0
   18.1400   31.8542   69.9299 C   0  0  0  0  0  0  0  0  0  0  0  0
   17.1732   31.3161   70.7525 C   0  0  0  0  0  0  0  0  0  0  0  0
   19.9968   34.6510   72.3365 Br  0  0  0  0  0  0  0  0  0  0  0  0
   13.9246   31.7763   71.5384 C   0  0  0  0  0  0  0  0  0  0  0  0
   13.2843   33.0616   71.9517 C   0  0  0  0  0  0  0  0  0  0  0  0
   14.2582   34.2365   71.7739 C   0  0  0  0  0  0  0  0  0  0  0  0
   14.6112   34.3195   70.3969 N   0  0  0  0  0  0  0  0  0  0  0  0
   13.6201   34.8558   69.5199 C   0  0  0  0  0  0  0  0  0  0  0  0
   13.4771   36.3560   69.6192 C   0  0  0  0  0  0  0  0  0  0  0  0
   14.3617   36.7830   70.6350 O   0  0  0  0  0  0  0  0  0  0  0  0
   15.6485   36.5362   70.1161 C   0  0  0  0  0  0  0  0  0  0  0  0
   15.8551   35.0375   70.1880 C   0  0  0  0  0  0  0  0  0  0  0  0
   14.8019   33.3256   70.0660 H   0  0  0  0  0  0  0  0  0  0  0  0
 10 11  1  0  0  0
 10 14  1  0  0  0
 11 12  2  0  0  0
 11 16  1  0  0  0
 12 13  1  0  0  0
 13 14  2  0  0  0
 13 15  1  0  0  0
 14  1  1  0  0  0
  1  2  2  0  0  0
  1  9  1  0  0  0
  2  3  1  0  0  0
  2  7  1  0  0  0
  3  4  1  0  0  0
  3 17  1  0  0  0
  4  5  1  0  0  0
  4 24  1  0  0  0
  5  6  2  0  0  0
  5  7  1  0  0  0
  7  8  2  0  0  0
 24 25  1  0  0  0
 25 26  1  0  0  0
 26 27  1  0  0  0
 27 28  1  0  0  0
 27 32  1  0  0  0
 28 29  1  0  0  0
 29 30  1  0  0  0
 30 31  1  0  0  0
 31 32  1  0  0  0
 17 18  2  0  0  0
 17 22  1  0  0  0
 18 19  1  0  0  0
 19 20  2  0  0  0
 19 23  1  0  0  0
 20 21  1  0  0  0
 21 22  2  0  0  0
 27 33  1  0  0  0
M  CHG 1   9  -1
M  CHG 1  27   1
M  END
> <minimizedAffinity>
-7.48142

$$$$
1178


 33 36  0  0  0  0  0  0  0  0999 V2000
   19.7299   35.4136   70.2721 C   0  0  0  0  0  0  0  0  0  0  0  0
   18.5126   35.8704   70.2646 C   0  0  0  0  0  0  0  0  0  0  0  0
   17.3937   35.3618   71.1184 C   0  0  0  0  0  0  0  0  0  0  0  0
   16.2462   35.5369   70.2684 N   0  0  0  0  0  0  0  0  0  0  0  0
   16.5028   36.7374   69.5271 C   0  0  0  0  0  0  0  0  0  0  0  0
   15.6472   37.4616   68.9871 O   0  0  0  0  0  0  0  0  0  0  0  0
   17.9391   36.9768   69.5095 C   0  0  0  0  0  0  0  0  0  0  0  0
   18.6167   37.9046   68.9892 O   0  0  0  0  0  0  0  0  0  0  0  0
   20.0653   34.3628   71.1428 O   0  0  0  0  0  0  0  0  0  0  0  0
   21.1189   35.5987   67.7481 S   0  0  0  0  0  0  0  0  0  0  0  0
   22.3490   36.7448   67.4733 C   0  0  0  0  0  0  0  0  0  0  0  0
   22.4225   37.3666   68.6326 N   0  0  0  0  0  0  0  0  0  0  0  0
   21.6417   37.0145   69.6079 C   0  0  0  0  0  0  0  0  0  0  0  0
   20.7581   35.9880   69.3767 C   0  0  0  0  0  0  0  0  0  0  0  0
   21.6682   37.7412   70.9500 C   0  0  0  0  0  0  0  0  0  0  0  0
   23.1674   37.0129   66.2391 C   0  0  0  0  0  0  0  0  0  0  0  0
   17.6551   33.9853   71.5645 C   0  0  0  0  0  0  0  0  0  0  0  0
   17.7605   32.8767   70.7701 C   0  0  0  0  0  0  0  0  0  0  0  0
   18.0025   31.6019   71.2295 C   0  0  0  0  0  0  0  0  0  0  0  0
   18.1516   31.4092   72.5796 C   0  0  0  0  0  0  0  0  0  0  0  0
   18.0560   32.4805   73.4282 C   0  0  0  0  0  0  0  0  0  0  0  0
   17.8137   33.7419   72.9356 C   0  0  0  0  0  0  0  0  0  0  0  0
   18.4901   29.6329   73.2157 Br  0  0  0  0  0  0  0  0  0  0  0  0
   15.1030   34.6747   70.2294 C   0  0  0  0  0  0  0  0  0  0  0  0
   14.2998   34.6277   71.4617 C   0  0  0  0  0  0  0  0  0  0  0  0
   14.2520   33.3953   72.2051 C   0  0  0  0  0  0  0  0  0  0  0  0
   13.4523   32.2796   72.0201 N   0  0  0  0  0  0  0  0  0  0  0  0
   13.3353   31.4898   73.3019 C   0  0  0  0  0  0  0  0  0  0  0  0
   14.5634   30.6594   73.4778 C   0  0  0  0  0  0  0  0  0  0  0  0
   14.5460   29.6812   72.4899 O   0  0  0  0  0  0  0  0  0  0  0  0
   14.7993   30.3681   71.2812 C   0  0  0  0  0  0  0  0  0  0  0  0
   13.6940   31.3419   70.9797 C   0  0  0  0  0  0  0  0  0  0  0  0
   12.4531   32.5746   71.9001 H   0  0  0  0  0  0  0  0  0  0  0  0
 10 11  1  0  0  0
 10 14  1  0  0  0
 11 12  2  0  0  0
 11 16  1  0  0  0
 12 13  1  0  0  0
 13 14  2  0  0  0
 13 15  1  0  0  0
 14  1  1  0  0  0
  1  2  2  0  0  0
  1  9  1  0  0  0
  2  3  1  0  0  0
  2  7  1  0  0  0
  3  4  1  0  0  0
  3 17  1  0  0  0
  4  5  1  0  0  0
  4 24  1  0  0  0
  5  6  2  0  0  0
  5  7  1  0  0  0
  7  8  2  0  0  0
 24 25  1  0  0  0
 25 26  1  0  0  0
 26 27  1  0  0  0
 27 28  1  0  0  0
 27 32  1  0  0  0
 28 29  1  0  0  0
 29 30  1  0  0  0
 30 31  1  0  0  0
 31 32  1  0  0  0
 17 18  2  0  0  0
 17 22  1  0  0  0
 18 19  1  0  0  0
 19 20  2  0  0  0
 20 21  1  0  0  0
 20 23  1  0  0  0
 21 22  2  0  0  0
 27 33  1  0  0  0
M  CHG 1   9  -1
M  CHG 1  27   1
M  END
> <minimizedAffinity>
-8.10291

$$$$
1180


 32 35  0  0  0  0  0  0  0  0999 V2000
   23.3761   38.4134   66.2851 C   0  0  0  0  0  0  0  0  0  0  0  0
   23.2961   37.1410   65.9573 C   0  0  0  0  0  0  0  0  0  0  0  0
   22.2390   36.1408   66.2982 C   0  0  0  0  0  0  0  0  0  0  0  0
   23.0296   35.0379   66.6867 N   0  0  0  0  0  0  0  0  0  0  0  0
   24.0192   34.9664   65.5867 C   0  0  0  0  0  0  0  0  0  0  0  0
   24.5953   33.9342   65.1502 O   0  0  0  0  0  0  0  0  0  0  0  0
   24.1867   36.3383   65.1197 C   0  0  0  0  0  0  0  0  0  0  0  0
   24.9219   36.8061   64.1962 O   0  0  0  0  0  0  0  0  0  0  0  0
   22.3807   38.9959   67.0491 O   0  0  0  0  0  0  0  0  0  0  0  0
   24.6914   40.1932   64.4374 S   0  0  0  0  0  0  0  0  0  0  0  0
   26.3145   40.6651   64.6296 C   0  0  0  0  0  0  0  0  0  0  0  0
   26.6708   40.0130   65.7183 N   0  0  0  0  0  0  0  0  0  0  0  0
   25.8193   39.2503   66.3304 C   0  0  0  0  0  0  0  0  0  0  0  0
   24.5531   39.1527   65.8039 C   0  0  0  0  0  0  0  0  0  0  0  0
   26.1977   38.5242   67.6131 C   0  0  0  0  0  0  0  0  0  0  0  0
   27.1402   41.5894   63.7760 C   0  0  0  0  0  0  0  0  0  0  0  0
   21.0802   36.6106   66.9750 C   0  0  0  0  0  0  0  0  0  0  0  0
   20.9536   36.3743   68.3469 C   0  0  0  0  0  0  0  0  0  0  0  0
   19.8621   36.7774   69.0711 C   0  0  0  0  0  0  0  0  0  0  0  0
   18.8544   37.4438   68.4062 C   0  0  0  0  0  0  0  0  0  0  0  0
   18.9599   37.6866   67.0524 C   0  0  0  0  0  0  0  0  0  0  0  0
   20.0655   37.2717   66.3463 C   0  0  0  0  0  0  0  0  0  0  0  0
   17.2964   38.0412   69.3414 Br  0  0  0  0  0  0  0  0  0  0  0  0
   23.1022   34.0241   67.6831 C   0  0  0  0  0  0  0  0  0  0  0  0
   24.3358   33.8323   68.4556 C   0  0  0  0  0  0  0  0  0  0  0  0
   25.1502   32.6965   68.3017 N   0  0  0  0  0  0  0  0  0  0  0  0
   26.5070   32.9762   67.8815 C   0  0  0  0  0  0  0  0  0  0  0  0
   27.1667   31.6221   67.6413 C   0  0  0  0  0  0  0  0  0  0  0  0
   26.4314   30.5967   68.2357 O   0  0  0  0  0  0  0  0  0  0  0  0
   26.2580   30.9868   69.5791 C   0  0  0  0  0  0  0  0  0  0  0  0
   25.3384   32.1687   69.6929 C   0  0  0  0  0  0  0  0  0  0  0  0
   24.6780   31.9482   67.7840 H   0  0  0  0  0  0  0  0  0  0  0  0
 10 11  1  0  0  0
 10 14  1  0  0  0
 11 12  2  0  0  0
 11 16  1  0  0  0
 12 13  1  0  0  0
 13 14  2  0  0  0
 13 15  1  0  0  0
 14  1  1  0  0  0
  1  2  2  0  0  0
  1  9  1  0  0  0
  2  3  1  0  0  0
  2  7  1  0  0  0
  3  4  1  0  0  0
  3 17  1  0  0  0
  4  5  1  0  0  0
  4 24  1  0  0  0
  5  6  2  0  0  0
  5  7  1  0  0  0
  7  8  2  0  0  0
 24 25  1  0  0  0
 25 26  1  0  0  0
 26 27  1  0  0  0
 26 31  1  0  0  0
 27 28  1  0  0  0
 28 29  1  0  0  0
 29 30  1  0  0  0
 30 31  1  0  0  0
 17 18  2  0  0  0
 17 22  1  0  0  0
 18 19  1  0  0  0
 19 20  2  0  0  0
 20 21  1  0  0  0
 20 23  1  0  0  0
 21 22  2  0  0  0
 26 32  1  0  0  0
M  CHG 1   9  -1
M  CHG 1  26   1
M  END
> <minimizedAffinity>
-7.98069

$$$$
1192


 27 30  0  0  0  0  0  0  0  0999 V2000
   17.4185   33.8319   73.6608 S   0  0  0  0  0  0  0  0  0  0  0  0
   18.8417   33.7929   72.6998 C   0  0  0  0  0  0  0  0  0  0  0  0
   18.6734   32.6489   71.9674 C   0  0  0  0  0  0  0  0  0  0  0  0
   17.5545   31.9379   72.1765 C   0  0  0  0  0  0  0  0  0  0  0  0
   16.6686   32.4131   73.1056 C   0  0  0  0  0  0  0  0  0  0  0  0
   15.4236   31.6038   73.3240 C   0  0  0  0  0  0  0  0  0  0  0  0
   14.7747   31.4213   72.0274 N   0  0  0  0  0  0  0  0  0  0  0  0
   15.6410   30.8670   71.0337 C   0  0  0  0  0  0  0  0  0  0  0  0
   17.0594   30.6446   71.5465 C   0  0  0  0  0  0  0  0  0  0  0  0
   14.3970   32.7632   71.5834 C   0  0  0  0  0  0  0  0  0  0  0  0
   19.7891   32.3553   71.0254 C   0  0  0  0  0  0  0  0  0  0  0  0
   19.7584   31.3265   70.2876 O   0  0  0  0  0  0  0  0  0  0  0  0
   20.8882   33.2507   70.9689 N   0  0  0  0  0  0  0  0  0  0  0  0
   20.8454   34.6203   71.3904 C   0  0  0  0  0  0  0  0  0  0  0  0
   20.0009   34.6519   72.5740 N   0  0  0  0  0  0  0  0  0  0  0  0
   13.8811   30.9025   72.1448 H   0  0  0  0  0  0  0  0  0  0  0  0
   21.7968   32.8622   70.5861 H   0  0  0  0  0  0  0  0  0  0  0  0
   20.1905   35.2882   73.3749 H   0  0  0  0  0  0  0  0  0  0  0  0
   20.2809   35.5217   70.3565 C   0  0  0  0  0  0  0  0  0  0  0  0
   19.0361   36.1007   70.4949 C   0  0  0  0  0  0  0  0  0  0  0  0
   18.4969   36.9403   69.5467 C   0  0  0  0  0  0  0  0  0  0  0  0
   19.2105   37.2290   68.4016 C   0  0  0  0  0  0  0  0  0  0  0  0
   20.4529   36.6637   68.2416 C   0  0  0  0  0  0  0  0  0  0  0  0
   20.9875   35.8225   69.1984 C   0  0  0  0  0  0  0  0  0  0  0  0
   21.4115   37.0935   66.6329 Br  0  0  0  0  0  0  0  0  0  0  0  0
   18.6727   38.0745   67.4417 O   0  0  0  0  0  0  0  0  0  0  0  0
   16.7856   37.7302   69.7488 Br  0  0  0  0  0  0  0  0  0  0  0  0
  1  2  1  0  0  0
  1  5  1  0  0  0
  2  3  2  0  0  0
  2 15  1  0  0  0
  3  4  1  0  0  0
  3 11  1  0  0  0
  4  5  2  0  0  0
  4  9  1  0  0  0
  5  6  1  0  0  0
  6  7  1  0  0  0
  7  8  1  0  0  0
  7 10  1  0  0  0
  8  9  1  0  0  0
 11 12  2  0  0  0
 11 13  1  0  0  0
 13 14  1  0  0  0
 14 15  1  0  0  0
 14 19  1  0  0  0
 19 20  2  0  0  0
 19 24  1  0  0  0
 20 21  1  0  0  0
 21 22  2  0  0  0
 21 27  1  0  0  0
 22 23  1  0  0  0
 22 26  1  0  0  0
 23 24  2  0  0  0
 23 25  1  0  0  0
  7 16  1  0  0  0
 13 17  1  0  0  0
 15 18  1  0  0  0
M  CHG 1   7   1
M  CHG 1  26  -1
M  END
> <minimizedAffinity>
-8.39880

$$$$
1193


 29 32  0  0  0  0  0  0  0  0999 V2000
   20.5950   35.6013   71.4590 S   0  0  0  0  0  0  0  0  0  0  0  0
   19.7341   34.4479   72.3765 C   0  0  0  0  0  0  0  0  0  0  0  0
   20.0935   33.2632   71.7968 C   0  0  0  0  0  0  0  0  0  0  0  0
   20.9551   33.3252   70.7503 C   0  0  0  0  0  0  0  0  0  0  0  0
   21.3852   34.5720   70.3698 C   0  0  0  0  0  0  0  0  0  0  0  0
   22.3309   34.7733   69.2327 C   0  0  0  0  0  0  0  0  0  0  0  0
   23.2580   33.7099   69.0505 N   0  0  0  0  0  0  0  0  0  0  0  0
   22.9740   32.4948   69.7350 C   0  0  0  0  0  0  0  0  0  0  0  0
   21.5250   32.1699   69.9187 C   0  0  0  0  0  0  0  0  0  0  0  0
   23.5238   33.4828   67.6351 C   0  0  0  0  0  0  0  0  0  0  0  0
   19.4649   32.0676   72.4383 C   0  0  0  0  0  0  0  0  0  0  0  0
   19.7214   30.9045   71.9863 O   0  0  0  0  0  0  0  0  0  0  0  0
   18.5922   32.2369   73.5379 N   0  0  0  0  0  0  0  0  0  0  0  0
   17.8370   33.4595   73.7014 C   0  0  0  0  0  0  0  0  0  0  0  0
   18.8183   34.5253   73.5022 N   0  0  0  0  0  0  0  0  0  0  0  0
   24.1912   34.0571   69.4357 H   0  0  0  0  0  0  0  0  0  0  0  0
   18.4886   31.4734   74.2428 H   0  0  0  0  0  0  0  0  0  0  0  0
   18.9174   35.3532   74.1126 H   0  0  0  0  0  0  0  0  0  0  0  0
   16.8200   33.4990   72.6182 C   0  0  0  0  0  0  0  0  0  0  0  0
   15.9939   32.4200   72.3881 C   0  0  0  0  0  0  0  0  0  0  0  0
   15.0448   32.4367   71.3890 C   0  0  0  0  0  0  0  0  0  0  0  0
   14.9135   33.5655   70.5907 C   0  0  0  0  0  0  0  0  0  0  0  0
   15.7262   34.6589   70.7980 C   0  0  0  0  0  0  0  0  0  0  0  0
   16.6529   34.6117   71.7917 C   0  0  0  0  0  0  0  0  0  0  0  0
   13.9617   33.6050   69.5747 O   0  0  0  0  0  0  0  0  0  0  0  0
   13.8954   30.9524   71.0599 Br  0  0  0  0  0  0  0  0  0  0  0  0
   15.5557   35.7580   69.9767 O   0  0  0  0  0  0  0  0  0  0  0  0
   15.2368   37.0485   70.3918 C   0  0  0  0  0  0  0  0  0  0  0  0
   16.4426   37.9613   70.3432 C   0  0  0  0  0  0  0  0  0  0  0  0
  1  2  1  0  0  0
  1  5  1  0  0  0
  2  3  2  0  0  0
  2 15  1  0  0  0
  3  4  1  0  0  0
  3 11  1  0  0  0
  4  5  2  0  0  0
  4  9  1  0  0  0
  5  6  1  0  0  0
  6  7  1  0  0  0
  7  8  1  0  0  0
  7 10  1  0  0  0
  8  9  1  0  0  0
 11 12  2  0  0  0
 11 13  1  0  0  0
 13 14  1  0  0  0
 14 15  1  0  0  0
 14 19  1  0  0  0
 19 20  2  0  0  0
 19 24  1  0  0  0
 20 21  1  0  0  0
 21 22  2  0  0  0
 21 26  1  0  0  0
 22 23  1  0  0  0
 22 25  1  0  0  0
 23 24  2  0  0  0
 23 27  1  0  0  0
 27 28  1  0  0  0
 28 29  1  0  0  0
  7 16  1  0  0  0
 13 17  1  0  0  0
 15 18  1  0  0  0
M  CHG 1   7   1
M  CHG 1  25  -1
M  END
> <minimizedAffinity>
-7.96060

$$$$
1206


 25 28  0  0  0  0  0  0  0  0999 V2000
   14.7238   35.8061   70.7921 S   0  0  0  0  0  0  0  0  0  0  0  0
   13.2842   34.7263   70.5831 C   0  0  0  0  0  0  0  0  0  0  0  0
   13.5944   33.7006   71.6391 C   0  0  0  0  0  0  0  0  0  0  0  0
   15.0019   33.4846   71.7857 N   0  0  0  0  0  0  0  0  0  0  0  0
   15.7895   34.4880   71.3654 C   0  0  0  0  0  0  0  0  0  0  0  0
   17.0714   34.1443   71.5356 N   0  0  0  0  0  0  0  0  0  0  0  0
   17.1166   32.9050   72.0735 C   0  0  0  0  0  0  0  0  0  0  0  0
   15.8215   32.4754   72.2389 C   0  0  0  0  0  0  0  0  0  0  0  0
   13.3072   34.0319   69.2429 C   0  0  0  0  0  0  0  0  0  0  0  0
   18.2115   34.9323   71.2137 C   0  0  0  0  0  0  0  0  0  0  0  0
   19.4601   34.6478   71.7154 C   0  0  0  0  0  0  0  0  0  0  0  0
   20.5807   35.3949   71.4190 C   0  0  0  0  0  0  0  0  0  0  0  0
   20.4679   36.4843   70.5837 C   0  0  0  0  0  0  0  0  0  0  0  0
   19.2271   36.8017   70.0601 C   0  0  0  0  0  0  0  0  0  0  0  0
   18.1216   36.0367   70.3722 C   0  0  0  0  0  0  0  0  0  0  0  0
   22.0004   37.5448   70.1504 Br  0  0  0  0  0  0  0  0  0  0  0  0
   15.4523   31.1890   72.7801 C   0  0  0  0  0  0  0  0  0  0  0  0
   16.2089   30.0711   72.3880 C   0  0  0  0  0  0  0  0  0  0  0  0
   15.9384   28.8261   72.8946 C   0  0  0  0  0  0  0  0  0  0  0  0
   14.9337   28.5900   73.7988 C   0  0  0  0  0  0  0  0  0  0  0  0
   14.1787   29.6676   74.1991 C   0  0  0  0  0  0  0  0  0  0  0  0
   14.4541   30.9398   73.6834 C   0  0  0  0  0  0  0  0  0  0  0  0
   14.7177   27.2751   74.2735 N   0  0  0  0  0  0  0  0  0  0  0  0
   15.1888   26.3010   73.6757 O   0  0  0  0  0  0  0  0  0  0  0  0
   13.9815   27.0861   75.4028 O   0  0  0  0  0  0  0  0  0  0  0  0
  1  2  1  0  0  0
  1  5  1  0  0  0
  2  3  1  0  0  0
  2  9  1  0  0  0
  3  4  1  0  0  0
  4  5  1  0  0  0
  4  8  1  0  0  0
  5  6  2  0  0  0
  6  7  1  0  0  0
  6 10  1  0  0  0
  7  8  2  0  0  0
  8 17  1  0  0  0
 17 18  2  0  0  0
 17 22  1  0  0  0
 18 19  1  0  0  0
 19 20  2  0  0  0
 20 21  1  0  0  0
 20 23  1  0  0  0
 21 22  2  0  0  0
 23 24  2  0  0  0
 23 25  1  0  0  0
 10 11  2  0  0  0
 10 15  1  0  0  0
 11 12  1  0  0  0
 12 13  2  0  0  0
 13 14  1  0  0  0
 13 16  1  0  0  0
 14 15  2  0  0  0
M  CHG 1  25  -1
M  END
> <minimizedAffinity>
-7.97720

$$$$
1209


 24 27  0  0  0  0  0  0  0  0999 V2000
   18.9739   36.7707   69.9197 S   0  0  0  0  0  0  0  0  0  0  0  0
   18.3759   37.8039   68.5525 C   0  0  0  0  0  0  0  0  0  0  0  0
   16.8665   37.6507   68.5014 C   0  0  0  0  0  0  0  0  0  0  0  0
   16.2855   37.7349   69.8976 C   0  0  0  0  0  0  0  0  0  0  0  0
   16.3677   36.3988   70.4646 N   0  0  0  0  0  0  0  0  0  0  0  0
   17.5788   35.8398   70.5283 C   0  0  0  0  0  0  0  0  0  0  0  0
   17.4572   34.5858   71.0894 N   0  0  0  0  0  0  0  0  0  0  0  0
   16.1839   34.3662   71.3723 C   0  0  0  0  0  0  0  0  0  0  0  0
   15.5126   35.5189   70.9716 C   0  0  0  0  0  0  0  0  0  0  0  0
   18.5861   33.7387   71.2910 C   0  0  0  0  0  0  0  0  0  0  0  0
   19.4099   33.9044   72.3905 C   0  0  0  0  0  0  0  0  0  0  0  0
   20.4929   33.0822   72.6299 C   0  0  0  0  0  0  0  0  0  0  0  0
   20.7474   32.0661   71.7303 C   0  0  0  0  0  0  0  0  0  0  0  0
   19.9216   31.9091   70.6374 C   0  0  0  0  0  0  0  0  0  0  0  0
   18.8361   32.7173   70.3793 C   0  0  0  0  0  0  0  0  0  0  0  0
   22.2321   30.8722   71.9790 Br  0  0  0  0  0  0  0  0  0  0  0  0
   15.5235   33.2157   71.9683 C   0  0  0  0  0  0  0  0  0  0  0  0
   14.2027   32.9180   71.6025 C   0  0  0  0  0  0  0  0  0  0  0  0
   13.5302   31.8503   72.1293 C   0  0  0  0  0  0  0  0  0  0  0  0
   14.0917   30.9938   73.0486 C   0  0  0  0  0  0  0  0  0  0  0  0
   15.3828   31.2765   73.4130 C   0  0  0  0  0  0  0  0  0  0  0  0
   16.0912   32.3662   72.8861 C   0  0  0  0  0  0  0  0  0  0  0  0
   13.3771   29.9197   73.5605 O   0  0  0  0  0  0  0  0  0  0  0  0
   12.7941   29.9979   74.8480 C   0  0  0  0  0  0  0  0  0  0  0  0
  1  2  1  0  0  0
  1  6  1  0  0  0
  2  3  1  0  0  0
  3  4  1  0  0  0
  4  5  1  0  0  0
  5  6  2  0  0  0
  5  9  1  0  0  0
  6  7  1  0  0  0
  7  8  1  0  0  0
  7 10  1  0  0  0
  8  9  2  0  0  0
  8 17  1  0  0  0
 17 18  2  0  0  0
 17 22  1  0  0  0
 18 19  1  0  0  0
 19 20  2  0  0  0
 20 21  1  0  0  0
 20 23  1  0  0  0
 21 22  2  0  0  0
 23 24  1  0  0  0
 10 11  2  0  0  0
 10 15  1  0  0  0
 11 12  1  0  0  0
 12 13  2  0  0  0
 13 14  1  0  0  0
 13 16  1  0  0  0
 14 15  2  0  0  0
M  END
> <minimizedAffinity>
-7.75093

$$$$
1211


 26 29  0  0  0  0  0  0  0  0999 V2000
   18.4805   32.2131   70.6966 S   0  0  0  0  0  0  0  0  0  0  0  0
   19.0956   30.9559   71.8840 C   0  0  0  0  0  0  0  0  0  0  0  0
   19.4521   31.7600   73.1363 C   0  0  0  0  0  0  0  0  0  0  0  0
   20.6409   32.6512   72.7909 C   0  0  0  0  0  0  0  0  0  0  0  0
   20.1167   33.8408   72.1668 N   0  0  0  0  0  0  0  0  0  0  0  0
   19.1835   33.7603   71.2542 C   0  0  0  0  0  0  0  0  0  0  0  0
   18.8645   35.1166   70.8445 N   0  0  0  0  0  0  0  0  0  0  0  0
   20.1666   35.7450   70.9017 C   0  0  0  0  0  0  0  0  0  0  0  0
   20.4301   35.2580   72.3751 C   0  0  0  0  0  0  0  0  0  0  0  0
   20.1787   37.1007   70.8126 O   0  0  0  0  0  0  0  0  0  0  0  0
   21.1145   37.3962   70.5893 H   0  0  0  0  0  0  0  0  0  0  0  0
   17.5866   35.6398   70.5609 C   0  0  0  0  0  0  0  0  0  0  0  0
   16.4612   34.9016   71.0021 C   0  0  0  0  0  0  0  0  0  0  0  0
   15.1676   35.3080   70.7242 C   0  0  0  0  0  0  0  0  0  0  0  0
   14.9241   36.4460   70.0054 C   0  0  0  0  0  0  0  0  0  0  0  0
   15.9995   37.1865   69.5611 C   0  0  0  0  0  0  0  0  0  0  0  0
   17.3128   36.7678   69.8498 C   0  0  0  0  0  0  0  0  0  0  0  0
   13.1580   37.0355   69.5797 Br  0  0  0  0  0  0  0  0  0  0  0  0
   21.0967   35.0359   70.0156 C   0  0  0  0  0  0  0  0  0  0  0  0
   22.3266   34.5601   70.4370 C   0  0  0  0  0  0  0  0  0  0  0  0
   23.1761   33.9206   69.5211 C   0  0  0  0  0  0  0  0  0  0  0  0
   22.8452   33.7471   68.2305 C   0  0  0  0  0  0  0  0  0  0  0  0
   21.5982   34.2172   67.7686 C   0  0  0  0  0  0  0  0  0  0  0  0
   20.7898   34.8417   68.7023 C   0  0  0  0  0  0  0  0  0  0  0  0
   23.6763   33.1085   67.2735 O   0  0  0  0  0  0  0  0  0  0  0  0
   24.4516   33.8759   66.3772 C   0  0  0  0  0  0  0  0  0  0  0  0
  1  2  1  0  0  0
  1  6  1  0  0  0
  2  3  1  0  0  0
  3  4  1  0  0  0
  4  5  1  0  0  0
  5  6  2  0  0  0
  5  9  1  0  0  0
  6  7  1  0  0  0
  7  8  1  0  0  0
  7 12  1  0  0  0
  8  9  1  0  0  0
  8 10  1  0  0  0
  8 19  1  0  0  0
 19 20  2  0  0  0
 19 24  1  0  0  0
 20 21  1  0  0  0
 21 22  2  0  0  0
 22 23  1  0  0  0
 22 25  1  0  0  0
 23 24  2  0  0  0
 25 26  1  0  0  0
 12 13  2  0  0  0
 12 17  1  0  0  0
 13 14  1  0  0  0
 14 15  2  0  0  0
 15 16  1  0  0  0
 15 18  1  0  0  0
 16 17  2  0  0  0
 10 11  1  0  0  0
M  END
> <minimizedAffinity>
-7.51450

$$$$
1217


 28 31  0  0  0  0  0  0  0  0999 V2000
   16.3249   34.0979   72.1725 S   0  0  0  0  0  0  0  0  0  0  0  0
   14.9601   35.1270   71.6911 C   0  0  0  0  0  0  0  0  0  0  0  0
   13.6907   34.3002   71.6465 C   0  0  0  0  0  0  0  0  0  0  0  0
   13.8540   33.1854   70.6285 C   0  0  0  0  0  0  0  0  0  0  0  0
   14.7117   32.1520   71.1627 N   0  0  0  0  0  0  0  0  0  0  0  0
   14.5163   30.7503   71.3441 C   0  0  0  0  0  0  0  0  0  0  0  0
   15.9355   30.2618   71.0997 C   0  0  0  0  0  0  0  0  0  0  0  0
   16.7448   31.3113   71.6769 N   0  0  0  0  0  0  0  0  0  0  0  0
   16.0423   32.3900   71.6556 C   0  0  0  0  0  0  0  0  0  0  0  0
   13.6448   30.2551   70.3797 O   0  0  0  0  0  0  0  0  0  0  0  0
   13.5409   30.9058   69.6487 H   0  0  0  0  0  0  0  0  0  0  0  0
   14.1304   30.3289   72.7050 C   0  0  0  0  0  0  0  0  0  0  0  0
   13.2455   30.9581   73.5225 C   0  0  0  0  0  0  0  0  0  0  0  0
   12.9815   30.4901   74.8114 C   0  0  0  0  0  0  0  0  0  0  0  0
   13.6121   29.3682   75.3073 C   0  0  0  0  0  0  0  0  0  0  0  0
   14.5001   28.7306   74.4969 C   0  0  0  0  0  0  0  0  0  0  0  0
   14.7584   29.1889   73.2352 C   0  0  0  0  0  0  0  0  0  0  0  0
   13.2440   28.7412   77.0820 Br  0  0  0  0  0  0  0  0  0  0  0  0
   18.0546   31.1957   72.2133 C   0  0  0  0  0  0  0  0  0  0  0  0
   19.0823   31.8078   71.5079 C   0  0  0  0  0  0  0  0  0  0  0  0
   20.4030   31.7166   71.9590 C   0  0  0  0  0  0  0  0  0  0  0  0
   20.6849   31.0092   73.1145 C   0  0  0  0  0  0  0  0  0  0  0  0
   19.6924   30.3917   73.8374 C   0  0  0  0  0  0  0  0  0  0  0  0
   18.3846   30.5216   73.3304 C   0  0  0  0  0  0  0  0  0  0  0  0
   19.9091   29.6710   74.9992 O   0  0  0  0  0  0  0  0  0  0  0  0
   19.3503   28.4269   75.3112 C   0  0  0  0  0  0  0  0  0  0  0  0
   18.7973   32.5089   70.3559 O   0  0  0  0  0  0  0  0  0  0  0  0
   19.4647   33.6728   69.9279 C   0  0  0  0  0  0  0  0  0  0  0  0
  1  2  1  0  0  0
  1  9  1  0  0  0
  2  3  1  0  0  0
  3  4  1  0  0  0
  4  5  1  0  0  0
  5  6  1  0  0  0
  5  9  1  0  0  0
  6  7  1  0  0  0
  6 10  1  0  0  0
  6 12  1  0  0  0
  7  8  1  0  0  0
  8  9  2  0  0  0
  8 19  1  0  0  0
 19 20  2  0  0  0
 19 24  1  0  0  0
 20 21  1  0  0  0
 20 27  1  0  0  0
 21 22  2  0  0  0
 22 23  1  0  0  0
 23 24  2  0  0  0
 23 25  1  0  0  0
 25 26  1  0  0  0
 27 28  1  0  0  0
 12 13  2  0  0  0
 12 17  1  0  0  0
 13 14  1  0  0  0
 14 15  2  0  0  0
 15 16  1  0  0  0
 15 18  1  0  0  0
 16 17  2  0  0  0
 10 11  1  0  0  0
M  END
> <minimizedAffinity>
-7.01565

$$$$
1219


 27 30  0  0  0  0  0  0  0  0999 V2000
   19.6063   32.1214   70.3258 S   0  0  0  0  0  0  0  0  0  0  0  0
   21.0152   31.3727   71.2437 C   0  0  0  0  0  0  0  0  0  0  0  0
   21.9250   32.4815   71.7437 C   0  0  0  0  0  0  0  0  0  0  0  0
   22.1843   33.4990   70.6631 C   0  0  0  0  0  0  0  0  0  0  0  0
   21.0882   34.4112   70.5815 N   0  0  0  0  0  0  0  0  0  0  0  0
   20.9127   35.8436   70.4287 C   0  0  0  0  0  0  0  0  0  0  0  0
   19.5892   36.1025   71.1265 C   0  0  0  0  0  0  0  0  0  0  0  0
   18.9095   34.8032   70.9519 N   0  0  0  0  0  0  0  0  0  0  0  0
   19.7509   33.8927   70.6611 C   0  0  0  0  0  0  0  0  0  0  0  0
   21.9493   36.5644   70.9877 O   0  0  0  0  0  0  0  0  0  0  0  0
   21.7487   37.0292   71.8124 H   0  0  0  0  0  0  0  0  0  0  0  0
   17.5069   34.6082   71.1099 C   0  0  0  0  0  0  0  0  0  0  0  0
   16.9054   33.7543   71.9868 C   0  0  0  0  0  0  0  0  0  0  0  0
   15.5277   33.6280   72.1012 C   0  0  0  0  0  0  0  0  0  0  0  0
   14.7037   34.3914   71.2997 C   0  0  0  0  0  0  0  0  0  0  0  0
   15.2819   35.2727   70.3933 C   0  0  0  0  0  0  0  0  0  0  0  0
   16.6636   35.3817   70.2968 C   0  0  0  0  0  0  0  0  0  0  0  0
   12.7949   34.2850   71.3789 Br  0  0  0  0  0  0  0  0  0  0  0  0
   20.7577   36.2279   69.0055 C   0  0  0  0  0  0  0  0  0  0  0  0
   19.7691   37.1202   68.6399 C   0  0  0  0  0  0  0  0  0  0  0  0
   19.6598   37.4539   67.2900 C   0  0  0  0  0  0  0  0  0  0  0  0
   20.4992   36.9187   66.3603 C   0  0  0  0  0  0  0  0  0  0  0  0
   21.4943   36.0250   66.7122 C   0  0  0  0  0  0  0  0  0  0  0  0
   21.5979   35.6951   68.0688 C   0  0  0  0  0  0  0  0  0  0  0  0
   18.6480   38.3697   66.9048 N   0  0  0  0  0  0  0  0  0  0  0  0
   18.9050   39.3911   66.2391 O   0  0  0  0  0  0  0  0  0  0  0  0
   17.3416   38.1681   67.2495 O   0  0  0  0  0  0  0  0  0  0  0  0
  1  2  1  0  0  0
  1  9  1  0  0  0
  2  3  1  0  0  0
  3  4  1  0  0  0
  4  5  1  0  0  0
  5  6  1  0  0  0
  5  9  1  0  0  0
  6  7  1  0  0  0
  6 10  1  0  0  0
  6 19  1  0  0  0
  7  8  1  0  0  0
  8  9  2  0  0  0
  8 12  1  0  0  0
 12 13  2  0  0  0
 12 17  1  0  0  0
 13 14  1  0  0  0
 14 15  2  0  0  0
 15 16  1  0  0  0
 15 18  1  0  0  0
 16 17  2  0  0  0
 19 20  2  0  0  0
 19 24  1  0  0  0
 20 21  1  0  0  0
 21 22  2  0  0  0
 21 25  1  0  0  0
 22 23  1  0  0  0
 23 24  2  0  0  0
 25 26  2  0  0  0
 25 27  1  0  0  0
 10 11  1  0  0  0
M  CHG 1  27  -1
M  END
> <minimizedAffinity>
-8.05404

$$$$
1220


 27 30  0  0  0  0  0  0  0  0999 V2000
   18.0623   36.9638   70.1066 S   0  0  0  0  0  0  0  0  0  0  0  0
   17.8829   37.5849   68.3859 C   0  0  0  0  0  0  0  0  0  0  0  0
   19.1288   37.5229   67.6067 C   0  0  0  0  0  0  0  0  0  0  0  0
   20.4016   37.2344   68.2910 C   0  0  0  0  0  0  0  0  0  0  0  0
   20.4553   36.1392   69.1700 N   0  0  0  0  0  0  0  0  0  0  0  0
   21.4917   35.2465   69.5914 C   0  0  0  0  0  0  0  0  0  0  0  0
   20.7015   33.9708   69.7836 C   0  0  0  0  0  0  0  0  0  0  0  0
   19.4355   34.4789   70.2675 N   0  0  0  0  0  0  0  0  0  0  0  0
   19.3034   35.6705   69.9176 C   0  0  0  0  0  0  0  0  0  0  0  0
   21.9386   35.6276   70.8593 O   0  0  0  0  0  0  0  0  0  0  0  0
   22.0921   34.8309   71.3928 H   0  0  0  0  0  0  0  0  0  0  0  0
   18.4932   33.7292   71.0434 C   0  0  0  0  0  0  0  0  0  0  0  0
   17.8911   32.6216   70.4632 C   0  0  0  0  0  0  0  0  0  0  0  0
   16.9500   31.8575   71.1496 C   0  0  0  0  0  0  0  0  0  0  0  0
   16.5854   32.1846   72.4368 C   0  0  0  0  0  0  0  0  0  0  0  0
   17.1731   33.2784   73.0247 C   0  0  0  0  0  0  0  0  0  0  0  0
   18.1149   34.0288   72.3096 C   0  0  0  0  0  0  0  0  0  0  0  0
   15.2724   31.1353   73.3727 Br  0  0  0  0  0  0  0  0  0  0  0  0
   22.6143   35.0604   68.6527 C   0  0  0  0  0  0  0  0  0  0  0  0
   22.5287   33.9953   67.7612 C   0  0  0  0  0  0  0  0  0  0  0  0
   23.5245   33.7416   66.8446 C   0  0  0  0  0  0  0  0  0  0  0  0
   24.6574   34.5318   66.7637 C   0  0  0  0  0  0  0  0  0  0  0  0
   24.7466   35.5923   67.6449 C   0  0  0  0  0  0  0  0  0  0  0  0
   23.7337   35.8471   68.5755 C   0  0  0  0  0  0  0  0  0  0  0  0
   25.6658   34.2517   65.8108 N   0  0  0  0  0  0  0  0  0  0  0  0
   26.7891   33.8297   66.1081 O   0  0  0  0  0  0  0  0  0  0  0  0
   25.3957   34.4490   64.4806 O   0  0  0  0  0  0  0  0  0  0  0  0
  1  2  1  0  0  0
  1  9  1  0  0  0
  2  3  1  0  0  0
  3  4  1  0  0  0
  4  5  1  0  0  0
  5  6  1  0  0  0
  5  9  1  0  0  0
  6  7  1  0  0  0
  6 10  1  0  0  0
  6 19  1  0  0  0
  7  8  1  0  0  0
  8  9  2  0  0  0
  8 12  1  0  0  0
 12 13  2  0  0  0
 12 17  1  0  0  0
 13 14  1  0  0  0
 14 15  2  0  0  0
 15 16  1  0  0  0
 15 18  1  0  0  0
 16 17  2  0  0  0
 19 20  2  0  0  0
 19 24  1  0  0  0
 20 21  1  0  0  0
 21 22  2  0  0  0
 22 23  1  0  0  0
 22 25  1  0  0  0
 23 24  2  0  0  0
 25 26  2  0  0  0
 25 27  1  0  0  0
 10 11  1  0  0  0
M  CHG 1  27  -1
M  END
> <minimizedAffinity>
-8.01858

$$$$
1222


 24 27  0  0  0  0  0  0  0  0999 V2000
   17.9397   32.9611   73.3971 S   0  0  0  0  0  0  0  0  0  0  0  0
   19.7265   32.5748   73.1214 C   0  0  0  0  0  0  0  0  0  0  0  0
   19.8959   31.1242   72.7509 C   0  0  0  0  0  0  0  0  0  0  0  0
   18.8256   30.2185   73.3207 C   0  0  0  0  0  0  0  0  0  0  0  0
   17.5605   30.3628   72.7139 N   0  0  0  0  0  0  0  0  0  0  0  0
   16.4001   29.5593   72.2913 C   0  0  0  0  0  0  0  0  0  0  0  0
   16.0637   30.3294   71.0365 C   0  0  0  0  0  0  0  0  0  0  0  0
   16.2285   31.7027   71.4894 N   0  0  0  0  0  0  0  0  0  0  0  0
   17.1227   31.7040   72.3602 C   0  0  0  0  0  0  0  0  0  0  0  0
   16.7197   28.2702   71.9932 O   0  0  0  0  0  0  0  0  0  0  0  0
   17.2496   27.7841   72.6729 H   0  0  0  0  0  0  0  0  0  0  0  0
   15.4413   32.8293   71.0471 C   0  0  0  0  0  0  0  0  0  0  0  0
   14.0924   32.8264   70.8794 C   0  0  0  0  0  0  0  0  0  0  0  0
   13.3782   33.9202   70.4066 C   0  0  0  0  0  0  0  0  0  0  0  0
   14.0439   35.0734   70.0848 C   0  0  0  0  0  0  0  0  0  0  0  0
   15.4149   35.0812   70.2547 C   0  0  0  0  0  0  0  0  0  0  0  0
   16.1158   34.0033   70.7199 C   0  0  0  0  0  0  0  0  0  0  0  0
   13.1422   36.6328   69.4207 Br  0  0  0  0  0  0  0  0  0  0  0  0
   15.2768   29.6938   73.2771 C   0  0  0  0  0  0  0  0  0  0  0  0
   14.0169   30.1369   72.9227 C   0  0  0  0  0  0  0  0  0  0  0  0
   13.0309   30.2257   73.8968 C   0  0  0  0  0  0  0  0  0  0  0  0
   13.2539   29.8844   75.2245 C   0  0  0  0  0  0  0  0  0  0  0  0
   14.4989   29.4441   75.5828 C   0  0  0  0  0  0  0  0  0  0  0  0
   15.4919   29.3567   74.6079 C   0  0  0  0  0  0  0  0  0  0  0  0
  1  2  1  0  0  0
  1  9  1  0  0  0
  2  3  1  0  0  0
  3  4  1  0  0  0
  4  5  1  0  0  0
  5  6  1  0  0  0
  5  9  1  0  0  0
  6  7  1  0  0  0
  6 10  1  0  0  0
  6 19  1  0  0  0
  7  8  1  0  0  0
  8  9  2  0  0  0
  8 12  1  0  0  0
 12 13  2  0  0  0
 12 17  1  0  0  0
 13 14  1  0  0  0
 14 15  2  0  0  0
 15 16  1  0  0  0
 15 18  1  0  0  0
 16 17  2  0  0  0
 19 20  2  0  0  0
 19 24  1  0  0  0
 20 21  1  0  0  0
 21 22  2  0  0  0
 22 23  1  0  0  0
 23 24  2  0  0  0
 10 11  1  0  0  0
M  END
> <minimizedAffinity>
-8.00064

$$$$
1224


 26 29  0  0  0  0  0  0  0  0999 V2000
   22.1938   33.7080   68.3469 S   0  0  0  0  0  0  0  0  0  0  0  0
   23.9548   34.1455   68.0442 C   0  0  0  0  0  0  0  0  0  0  0  0
   23.9750   35.6628   67.9299 C   0  0  0  0  0  0  0  0  0  0  0  0
   23.7008   36.3276   69.2422 C   0  0  0  0  0  0  0  0  0  0  0  0
   22.3963   36.0859   69.7774 N   0  0  0  0  0  0  0  0  0  0  0  0
   21.3799   36.8875   70.4654 C   0  0  0  0  0  0  0  0  0  0  0  0
   20.9828   35.8255   71.5080 C   0  0  0  0  0  0  0  0  0  0  0  0
   20.9356   34.6258   70.6923 N   0  0  0  0  0  0  0  0  0  0  0  0
   21.7471   34.7864   69.7273 C   0  0  0  0  0  0  0  0  0  0  0  0
   21.9688   37.9770   71.0625 O   0  0  0  0  0  0  0  0  0  0  0  0
   22.2211   37.8128   72.0020 H   0  0  0  0  0  0  0  0  0  0  0  0
   20.2236   37.2032   69.6081 C   0  0  0  0  0  0  0  0  0  0  0  0
   20.2646   37.3987   68.2454 C   0  0  0  0  0  0  0  0  0  0  0  0
   19.1144   37.6825   67.5278 C   0  0  0  0  0  0  0  0  0  0  0  0
   17.9107   37.7736   68.1653 C   0  0  0  0  0  0  0  0  0  0  0  0
   17.8520   37.5815   69.5282 C   0  0  0  0  0  0  0  0  0  0  0  0
   18.9984   37.3006   70.2271 C   0  0  0  0  0  0  0  0  0  0  0  0
   16.2791   38.1661   67.2286 Br  0  0  0  0  0  0  0  0  0  0  0  0
   20.0822   33.5023   71.0074 C   0  0  0  0  0  0  0  0  0  0  0  0
   18.8891   33.3240   70.3133 C   0  0  0  0  0  0  0  0  0  0  0  0
   18.0530   32.2651   70.5925 C   0  0  0  0  0  0  0  0  0  0  0  0
   18.3411   31.3296   71.5630 C   0  0  0  0  0  0  0  0  0  0  0  0
   19.5168   31.4989   72.2538 C   0  0  0  0  0  0  0  0  0  0  0  0
   20.3661   32.5794   71.9667 C   0  0  0  0  0  0  0  0  0  0  0  0
   17.4737   30.2724   71.8155 O   0  0  0  0  0  0  0  0  0  0  0  0
   16.1279   30.2165   71.4366 C   0  0  0  0  0  0  0  0  0  0  0  0
  1  2  1  0  0  0
  1  9  1  0  0  0
  2  3  1  0  0  0
  3  4  1  0  0  0
  4  5  1  0  0  0
  5  6  1  0  0  0
  5  9  1  0  0  0
  6  7  1  0  0  0
  6 10  1  0  0  0
  6 12  1  0  0  0
  7  8  1  0  0  0
  8  9  2  0  0  0
  8 19  1  0  0  0
 19 20  2  0  0  0
 19 24  1  0  0  0
 20 21  1  0  0  0
 21 22  2  0  0  0
 22 23  1  0  0  0
 22 25  1  0  0  0
 23 24  2  0  0  0
 25 26  1  0  0  0
 12 13  2  0  0  0
 12 17  1  0  0  0
 13 14  1  0  0  0
 14 15  2  0  0  0
 15 16  1  0  0  0
 15 18  1  0  0  0
 16 17  2  0  0  0
 10 11  1  0  0  0
M  END
> <minimizedAffinity>
-6.88521

$$$$
1226


 24 27  0  0  0  0  0  0  0  0999 V2000
   22.9420   34.0448   68.0906 S   0  0  0  0  0  0  0  0  0  0  0  0
   23.2368   32.6724   69.2406 C   0  0  0  0  0  0  0  0  0  0  0  0
   23.0520   33.2488   70.6479 C   0  0  0  0  0  0  0  0  0  0  0  0
   21.5777   33.6556   70.8000 C   0  0  0  0  0  0  0  0  0  0  0  0
   21.4234   34.9965   70.2227 N   0  0  0  0  0  0  0  0  0  0  0  0
   20.7280   36.1484   70.6307 C   0  0  0  0  0  0  0  0  0  0  0  0
   21.2882   37.2687   69.7606 C   0  0  0  0  0  0  0  0  0  0  0  0
   22.0684   36.5902   68.7719 N   0  0  0  0  0  0  0  0  0  0  0  0
   22.1028   35.3458   69.0250 C   0  0  0  0  0  0  0  0  0  0  0  0
   21.1036   36.4767   71.9525 O   0  0  0  0  0  0  0  0  0  0  0  0
   20.7270   35.7632   72.5308 H   0  0  0  0  0  0  0  0  0  0  0  0
   19.2692   36.1685   70.5450 C   0  0  0  0  0  0  0  0  0  0  0  0
   18.7024   37.2826   69.9280 C   0  0  0  0  0  0  0  0  0  0  0  0
   17.3428   37.4439   69.7358 C   0  0  0  0  0  0  0  0  0  0  0  0
   16.4761   36.4768   70.1653 C   0  0  0  0  0  0  0  0  0  0  0  0
   17.0191   35.3632   70.7807 C   0  0  0  0  0  0  0  0  0  0  0  0
   18.3903   35.2128   70.9662 C   0  0  0  0  0  0  0  0  0  0  0  0
   14.5693   36.6339   69.9173 Br  0  0  0  0  0  0  0  0  0  0  0  0
   22.7295   37.2908   67.7058 C   0  0  0  0  0  0  0  0  0  0  0  0
   21.9835   37.9875   66.8112 C   0  0  0  0  0  0  0  0  0  0  0  0
   22.6502   38.6818   65.8066 C   0  0  0  0  0  0  0  0  0  0  0  0
   24.0217   38.6894   65.6872 C   0  0  0  0  0  0  0  0  0  0  0  0
   24.7369   37.9648   66.6186 C   0  0  0  0  0  0  0  0  0  0  0  0
   24.1112   37.2679   67.6235 C   0  0  0  0  0  0  0  0  0  0  0  0
  1  2  1  0  0  0
  1  9  1  0  0  0
  2  3  1  0  0  0
  3  4  1  0  0  0
  4  5  1  0  0  0
  5  6  1  0  0  0
  5  9  1  0  0  0
  6  7  1  0  0  0
  6 10  1  0  0  0
  6 12  1  0  0  0
  7  8  1  0  0  0
  8  9  2  0  0  0
  8 19  1  0  0  0
 19 20  2  0  0  0
 19 24  1  0  0  0
 20 21  1  0  0  0
 21 22  2  0  0  0
 22 23  1  0  0  0
 23 24  2  0  0  0
 12 13  2  0  0  0
 12 17  1  0  0  0
 13 14  1  0  0  0
 14 15  2  0  0  0
 15 16  1  0  0  0
 15 18  1  0  0  0
 16 17  2  0  0  0
 10 11  1  0  0  0
M  END
> <minimizedAffinity>
-8.14657

$$$$
1231


 37 40  0  0  0  0  0  0  0  0999 V2000
   18.1747   31.8861   71.4445 C   0  0  0  0  0  0  0  0  0  0  0  0
   17.8574   30.9446   72.3421 N   0  0  0  0  0  0  0  0  0  0  0  0
   19.0311   30.4643   72.7900 N   0  0  0  0  0  0  0  0  0  0  0  0
   20.0220   31.0532   72.2240 N   0  0  0  0  0  0  0  0  0  0  0  0
   19.5641   32.0005   71.3278 C   0  0  0  0  0  0  0  0  0  0  0  0
   16.6061   30.4770   72.8391 C   0  0  0  0  0  0  0  0  0  0  0  0
   15.6075   31.1904   73.3990 N   0  0  0  0  0  0  0  0  0  0  0  0
   14.6069   30.4563   73.7134 O   0  0  0  0  0  0  0  0  0  0  0  0
   14.8865   29.2351   73.3823 N   0  0  0  0  0  0  0  0  0  0  0  0
   16.1330   29.1820   72.8251 C   0  0  0  0  0  0  0  0  0  0  0  0
   16.7809   28.0311   72.3220 N   0  0  0  0  0  0  0  0  0  0  0  0
   16.0763   27.2478   72.2951 H   0  0  0  0  0  0  0  0  0  0  0  0
   17.6198   27.7401   72.8538 H   0  0  0  0  0  0  0  0  0  0  0  0
   17.0564   28.2079   71.3176 H   0  0  0  0  0  0  0  0  0  0  0  0
   20.4249   32.8445   70.5408 C   0  0  0  0  0  0  0  0  0  0  0  0
   21.5474   32.3281   70.1564 O   0  0  0  0  0  0  0  0  0  0  0  0
   20.2137   34.1573   70.1304 N   0  0  0  0  0  0  0  0  0  0  0  0
   19.4044   34.7721   70.3208 H   0  0  0  0  0  0  0  0  0  0  0  0
   21.2094   34.8264   69.3368 N   0  0  0  0  0  0  0  0  0  0  0  0
   20.9798   35.1950   68.1391 C   0  0  0  0  0  0  0  0  0  0  0  0
   21.9594   35.8748   67.3028 C   0  0  0  0  0  0  0  0  0  0  0  0
   22.9582   35.1864   66.6522 C   0  0  0  0  0  0  0  0  0  0  0  0
   23.8891   35.8149   65.8516 C   0  0  0  0  0  0  0  0  0  0  0  0
   23.8569   37.1735   65.6696 C   0  0  0  0  0  0  0  0  0  0  0  0
   22.8517   37.9079   66.3179 C   0  0  0  0  0  0  0  0  0  0  0  0
   21.9363   37.2502   67.1112 C   0  0  0  0  0  0  0  0  0  0  0  0
   24.8028   37.7849   64.8607 O   0  0  0  0  0  0  0  0  0  0  0  0
   25.2578   34.8152   64.9683 Br  0  0  0  0  0  0  0  0  0  0  0  0
   22.8774   39.2644   66.0927 O   0  0  0  0  0  0  0  0  0  0  0  0
   21.7781   40.0558   65.7156 C   0  0  0  0  0  0  0  0  0  0  0  0
   17.2452   32.7341   70.6817 C   0  0  0  0  0  0  0  0  0  0  0  0
   16.5952   34.1737   71.5029 S   0  0  0  0  0  0  0  0  0  0  0  0
   15.7590   36.9221   70.2407 S   0  0  0  0  0  0  0  0  0  0  0  0
   16.8653   37.9719   69.2493 C   0  0  0  0  0  0  0  0  0  0  0  0
   18.1814   37.3570   69.6028 C   0  0  0  0  0  0  0  0  0  0  0  0
   18.0755   36.1451   70.2408 N   0  0  0  0  0  0  0  0  0  0  0  0
   16.9990   35.6952   70.6546 C   0  0  0  0  0  0  0  0  0  0  0  0
 33 34  1  0  0  0
 33 37  1  0  0  0
 34 35  1  0  0  0
 35 36  1  0  0  0
 36 37  2  0  0  0
 37 32  1  0  0  0
 32 31  1  0  0  0
 31  1  1  0  0  0
  1  2  1  0  0  0
  1  5  2  0  0  0
  2  3  1  0  0  0
  2  6  1  0  0  0
  3  4  2  0  0  0
  4  5  1  0  0  0
  5 15  1  0  0  0
 15 16  2  0  0  0
 15 17  1  0  0  0
 17 19  1  0  0  0
 19 20  2  0  0  0
 20 21  1  0  0  0
 21 22  2  0  0  0
 21 26  1  0  0  0
 22 23  1  0  0  0
 23 24  2  0  0  0
 23 28  1  0  0  0
 24 25  1  0  0  0
 24 27  1  0  0  0
 25 26  2  0  0  0
 25 29  1  0  0  0
 29 30  1  0  0  0
  6  7  2  0  0  0
  6 10  1  0  0  0
  7  8  1  0  0  0
  8  9  1  0  0  0
  9 10  2  0  0  0
 10 11  1  0  0  0
 17 18  1  0  0  0
 11 12  1  0  0  0
 11 13  1  0  0  0
 11 14  1  0  0  0
M  CHG 1  11   1
M  CHG 1  27  -1
M  END
> <minimizedAffinity>
-7.95991

$$$$
1236


 30 34  0  0  0  0  0  0  0  0999 V2000
   24.3677   35.6962   67.2657 C   0  0  0  0  0  0  0  0  0  0  0  0
   25.6049   39.5459   64.4214 S   0  0  0  0  0  0  0  0  0  0  0  0
   26.6985   38.5841   63.2703 C   0  0  0  0  0  0  0  0  0  0  0  0
   26.7335   37.3065   64.0692 C   0  0  0  0  0  0  0  0  0  0  0  0
   25.4285   37.0057   64.5862 N   0  0  0  0  0  0  0  0  0  0  0  0
   24.6318   38.1294   64.8886 C   0  0  0  0  0  0  0  0  0  0  0  0
   23.4701   37.9984   65.3713 N   0  0  0  0  0  0  0  0  0  0  0  0
   22.8913   36.7131   65.6708 C   0  0  0  0  0  0  0  0  0  0  0  0
   21.6530   36.5230   65.7563 O   0  0  0  0  0  0  0  0  0  0  0  0
   23.8308   35.5780   65.8825 C   0  0  0  0  0  0  0  0  0  0  0  0
   24.8780   35.6871   64.8412 C   0  0  0  0  0  0  0  0  0  0  0  0
   25.3219   34.7278   64.1651 O   0  0  0  0  0  0  0  0  0  0  0  0
   25.6427   34.9228   67.4945 C   0  0  0  0  0  0  0  0  0  0  0  0
   25.4395   33.5072   67.8424 C   0  0  0  0  0  0  0  0  0  0  0  0
   25.1232   32.6652   66.9305 O   0  0  0  0  0  0  0  0  0  0  0  0
   25.5937   33.0621   69.2133 N   0  0  0  0  0  0  0  0  0  0  0  0
   25.2062   31.7863   69.7484 C   0  0  0  0  0  0  0  0  0  0  0  0
   24.8167   31.9120   71.2002 C   0  0  0  0  0  0  0  0  0  0  0  0
   26.1845   33.0588   71.7010 S   0  0  0  0  0  0  0  0  0  0  0  0
   26.2054   33.9359   70.1391 C   0  0  0  0  0  0  0  0  0  0  0  0
   26.6298   35.0970   69.8205 N   0  0  0  0  0  0  0  0  0  0  0  0
   26.5134   35.6071   68.4828 C   0  0  0  0  0  0  0  0  0  0  0  0
   27.1685   36.6383   68.1884 O   0  0  0  0  0  0  0  0  0  0  0  0
   23.3073   35.3242   68.2288 C   0  0  0  0  0  0  0  0  0  0  0  0
   22.8219   36.2481   69.1459 C   0  0  0  0  0  0  0  0  0  0  0  0
   21.8316   35.9135   70.0456 C   0  0  0  0  0  0  0  0  0  0  0  0
   21.2972   34.6442   70.0529 C   0  0  0  0  0  0  0  0  0  0  0  0
   21.7748   33.7403   69.1532 C   0  0  0  0  0  0  0  0  0  0  0  0
   22.7653   34.0598   68.2473 C   0  0  0  0  0  0  0  0  0  0  0  0
   21.1585   37.1759   71.3087 Br  0  0  0  0  0  0  0  0  0  0  0  0
  2  3  1  0  0  0
  2  6  1  0  0  0
  3  4  1  0  0  0
  4  5  1  0  0  0
  5  6  1  0  0  0
  5 11  1  0  0  0
  6  7  2  0  0  0
  7  8  1  0  0  0
  8  9  2  0  0  0
  8 10  1  0  0  0
 10 11  1  0  0  0
 10  1  1  0  0  0
 11 12  2  0  0  0
  1 13  1  0  0  0
  1 24  1  0  0  0
 13 14  1  0  0  0
 13 22  1  0  0  0
 14 15  2  0  0  0
 14 16  1  0  0  0
 16 17  1  0  0  0
 16 20  1  0  0  0
 17 18  1  0  0  0
 18 19  1  0  0  0
 19 20  1  0  0  0
 20 21  2  0  0  0
 21 22  1  0  0  0
 22 23  2  0  0  0
 24 25  2  0  0  0
 24 29  1  0  0  0
 25 26  1  0  0  0
 26 27  2  0  0  0
 26 30  1  0  0  0
 27 28  1  0  0  0
 28 29  2  0  0  0
M  END
> <minimizedAffinity>
-7.66856

$$$$
1237


 30 34  0  0  0  0  0  0  0  0999 V2000
   18.3632   34.9493   70.5890 C   0  0  0  0  0  0  0  0  0  0  0  0
   15.6861   31.2399   73.3034 S   0  0  0  0  0  0  0  0  0  0  0  0
   15.4742   30.6046   71.5832 C   0  0  0  0  0  0  0  0  0  0  0  0
   16.8979   30.6861   71.1303 C   0  0  0  0  0  0  0  0  0  0  0  0
   17.5495   31.8283   71.6506 N   0  0  0  0  0  0  0  0  0  0  0  0
   17.0829   32.3170   72.8888 C   0  0  0  0  0  0  0  0  0  0  0  0
   17.5840   33.3408   73.5032 N   0  0  0  0  0  0  0  0  0  0  0  0
   18.7302   34.0460   72.9516 C   0  0  0  0  0  0  0  0  0  0  0  0
   19.4104   34.6362   73.8260 O   0  0  0  0  0  0  0  0  0  0  0  0
   18.9238   33.9691   71.5310 C   0  0  0  0  0  0  0  0  0  0  0  0
   18.6583   32.5542   71.0721 C   0  0  0  0  0  0  0  0  0  0  0  0
   19.3750   32.0115   70.2118 O   0  0  0  0  0  0  0  0  0  0  0  0
   18.9280   36.2971   70.4418 C   0  0  0  0  0  0  0  0  0  0  0  0
   20.4485   36.1496   70.3879 C   0  0  0  0  0  0  0  0  0  0  0  0
   21.0948   35.9693   71.4450 O   0  0  0  0  0  0  0  0  0  0  0  0
   21.1388   36.2173   69.1186 N   0  0  0  0  0  0  0  0  0  0  0  0
   22.4622   35.7845   68.8299 C   0  0  0  0  0  0  0  0  0  0  0  0
   22.5967   35.3473   67.3923 C   0  0  0  0  0  0  0  0  0  0  0  0
   21.5499   36.6848   66.6462 S   0  0  0  0  0  0  0  0  0  0  0  0
   20.4354   36.7962   68.0346 C   0  0  0  0  0  0  0  0  0  0  0  0
   19.2500   37.2563   68.1163 N   0  0  0  0  0  0  0  0  0  0  0  0
   18.5426   37.2012   69.3914 C   0  0  0  0  0  0  0  0  0  0  0  0
   17.5915   37.9960   69.4984 O   0  0  0  0  0  0  0  0  0  0  0  0
   16.8501   34.9238   70.5621 C   0  0  0  0  0  0  0  0  0  0  0  0
   16.1144   35.7918   71.3327 C   0  0  0  0  0  0  0  0  0  0  0  0
   14.7445   35.7348   71.2855 C   0  0  0  0  0  0  0  0  0  0  0  0
   14.0673   34.8522   70.5046 C   0  0  0  0  0  0  0  0  0  0  0  0
   14.7744   33.9717   69.7238 C   0  0  0  0  0  0  0  0  0  0  0  0
   16.1677   34.0295   69.7720 C   0  0  0  0  0  0  0  0  0  0  0  0
   12.1509   34.7800   70.4452 Br  0  0  0  0  0  0  0  0  0  0  0  0
  2  3  1  0  0  0
  2  6  1  0  0  0
  3  4  1  0  0  0
  4  5  1  0  0  0
  5  6  1  0  0  0
  5 11  1  0  0  0
  6  7  2  0  0  0
  7  8  1  0  0  0
  8  9  2  0  0  0
  8 10  1  0  0  0
 10 11  1  0  0  0
 10  1  1  0  0  0
 11 12  2  0  0  0
  1 13  1  0  0  0
  1 24  1  0  0  0
 13 14  1  0  0  0
 13 22  1  0  0  0
 14 15  2  0  0  0
 14 16  1  0  0  0
 16 17  1  0  0  0
 16 20  1  0  0  0
 17 18  1  0  0  0
 18 19  1  0  0  0
 19 20  1  0  0  0
 20 21  2  0  0  0
 21 22  1  0  0  0
 22 23  2  0  0  0
 24 25  2  0  0  0
 24 29  1  0  0  0
 25 26  1  0  0  0
 26 27  2  0  0  0
 27 28  1  0  0  0
 27 30  1  0  0  0
 28 29  2  0  0  0
M  END
> <minimizedAffinity>
-8.23457

$$$$
1248


 21 24  0  0  0  0  0  0  0  0999 V2000
   13.8504   31.3076   71.1646 S   0  0  0  0  0  0  0  0  0  0  0  0
   15.2979   30.5042   71.6219 C   0  0  0  0  0  0  0  0  0  0  0  0
   16.1900   31.4852   71.4942 N   0  0  0  0  0  0  0  0  0  0  0  0
   17.3830   30.8996   71.8506 C   0  0  0  0  0  0  0  0  0  0  0  0
   17.1736   29.6235   72.1708 N   0  0  0  0  0  0  0  0  0  0  0  0
   15.8933   29.3418   72.0415 N   0  0  0  0  0  0  0  0  0  0  0  0
   15.7975   32.6327   71.1124 N   0  0  0  0  0  0  0  0  0  0  0  0
   14.5272   32.8613   70.8430 C   0  0  0  0  0  0  0  0  0  0  0  0
   13.8603   34.0880   70.3944 C   0  0  0  0  0  0  0  0  0  0  0  0
   12.5622   34.2318   70.1014 N   0  0  0  0  0  0  0  0  0  0  0  0
   12.3323   35.5012   69.7281 N   0  0  0  0  0  0  0  0  0  0  0  0
   13.4926   36.1851   69.7806 C   0  0  0  0  0  0  0  0  0  0  0  0
   14.4680   35.2799   70.2068 C   0  0  0  0  0  0  0  0  0  0  0  0
   16.2834   35.7297   70.4485 Br  0  0  0  0  0  0  0  0  0  0  0  0
   11.3985   35.8777   69.4466 H   0  0  0  0  0  0  0  0  0  0  0  0
   18.7023   31.5635   71.8801 C   0  0  0  0  0  0  0  0  0  0  0  0
   19.5025   31.5695   70.7979 N   0  0  0  0  0  0  0  0  0  0  0  0
   20.7077   32.1801   70.8377 C   0  0  0  0  0  0  0  0  0  0  0  0
   21.1303   32.8021   71.9801 C   0  0  0  0  0  0  0  0  0  0  0  0
   20.3259   32.7892   73.0440 N   0  0  0  0  0  0  0  0  0  0  0  0
   19.1172   32.1858   73.0322 C   0  0  0  0  0  0  0  0  0  0  0  0
  1  2  1  0  0  0
  1  8  1  0  0  0
  2  3  1  0  0  0
  2  6  2  0  0  0
  3  4  1  0  0  0
  3  7  1  0  0  0
  4  5  2  0  0  0
  4 16  1  0  0  0
  5  6  1  0  0  0
 16 17  2  0  0  0
 16 21  1  0  0  0
 17 18  1  0  0  0
 18 19  2  0  0  0
 19 20  1  0  0  0
 20 21  2  0  0  0
  7  8  2  0  0  0
  8  9  1  0  0  0
  9 10  2  0  0  0
  9 13  1  0  0  0
 10 11  1  0  0  0
 11 12  1  0  0  0
 12 13  2  0  0  0
 13 14  1  0  0  0
 11 15  1  0  0  0
M  END
> <minimizedAffinity>
-7.71610

$$$$
1255


 34 38  0  0  0  0  0  0  0  0999 V2000
   21.5917   35.0957   69.9610 C   0  0  0  0  0  0  0  0  0  0  0  0
   17.8594   32.2306   69.7464 S   0  0  0  0  0  0  0  0  0  0  0  0
   19.4029   32.7607   70.4698 C   0  0  0  0  0  0  0  0  0  0  0  0
   20.5969   32.2732   70.3733 N   0  0  0  0  0  0  0  0  0  0  0  0
   21.6885   32.9109   71.0757 C   0  0  0  0  0  0  0  0  0  0  0  0
   22.6965   32.3467   71.4979 O   0  0  0  0  0  0  0  0  0  0  0  0
   21.5567   34.4163   71.3006 C   0  0  0  0  0  0  0  0  0  0  0  0
   20.2124   34.5057   71.9529 C   0  0  0  0  0  0  0  0  0  0  0  0
   20.0189   35.0729   73.0664 O   0  0  0  0  0  0  0  0  0  0  0  0
   19.0917   33.8972   71.2476 N   0  0  0  0  0  0  0  0  0  0  0  0
   17.7786   34.2831   71.2552 N   0  0  0  0  0  0  0  0  0  0  0  0
   16.8702   33.5179   70.4922 C   0  0  0  0  0  0  0  0  0  0  0  0
   15.5604   33.6878   70.3383 C   0  0  0  0  0  0  0  0  0  0  0  0
   17.4037   35.1282   71.8156 H   0  0  0  0  0  0  0  0  0  0  0  0
   21.5444   36.5712   69.9432 C   0  0  0  0  0  0  0  0  0  0  0  0
   20.4809   37.2294   70.6869 C   0  0  0  0  0  0  0  0  0  0  0  0
   20.7272   37.7545   71.8256 O   0  0  0  0  0  0  0  0  0  0  0  0
   19.1281   37.3125   70.1677 N   0  0  0  0  0  0  0  0  0  0  0  0
   17.9730   37.4722   70.8635 N   0  0  0  0  0  0  0  0  0  0  0  0
   16.7680   37.5329   70.1199 C   0  0  0  0  0  0  0  0  0  0  0  0
   15.5306   37.6861   70.5380 C   0  0  0  0  0  0  0  0  0  0  0  0
   17.2787   37.3511   68.4130 S   0  0  0  0  0  0  0  0  0  0  0  0
   19.0217   37.2209   68.7651 C   0  0  0  0  0  0  0  0  0  0  0  0
   20.0261   37.0745   67.9761 N   0  0  0  0  0  0  0  0  0  0  0  0
   21.3639   36.9909   68.4946 C   0  0  0  0  0  0  0  0  0  0  0  0
   22.3863   37.2385   67.8391 O   0  0  0  0  0  0  0  0  0  0  0  0
   17.9021   37.5592   71.9361 H   0  0  0  0  0  0  0  0  0  0  0  0
   22.7336   34.6102   69.1344 C   0  0  0  0  0  0  0  0  0  0  0  0
   22.5237   33.9099   67.9690 C   0  0  0  0  0  0  0  0  0  0  0  0
   23.5737   33.4588   67.2027 C   0  0  0  0  0  0  0  0  0  0  0  0
   24.8656   33.7106   67.6064 C   0  0  0  0  0  0  0  0  0  0  0  0
   25.1228   34.4177   68.7829 C   0  0  0  0  0  0  0  0  0  0  0  0
   24.0428   34.8530   69.5230 C   0  0  0  0  0  0  0  0  0  0  0  0
   26.3465   33.0975   66.5631 Br  0  0  0  0  0  0  0  0  0  0  0  0
  2  3  1  0  0  0
  2 12  1  0  0  0
  3  4  2  0  0  0
  3 10  1  0  0  0
  4  5  1  0  0  0
  5  6  2  0  0  0
  5  7  1  0  0  0
  7  8  1  0  0  0
  7  1  1  0  0  0
  8  9  2  0  0  0
  8 10  1  0  0  0
 10 11  1  0  0  0
 11 12  1  0  0  0
 12 13  2  0  0  0
  1 15  1  0  0  0
  1 28  1  0  0  0
 15 16  1  0  0  0
 15 25  1  0  0  0
 16 17  2  0  0  0
 16 18  1  0  0  0
 18 19  1  0  0  0
 18 23  1  0  0  0
 19 20  1  0  0  0
 20 21  2  0  0  0
 20 22  1  0  0  0
 22 23  1  0  0  0
 23 24  2  0  0  0
 24 25  1  0  0  0
 25 26  2  0  0  0
 28 29  2  0  0  0
 28 33  1  0  0  0
 29 30  1  0  0  0
 30 31  2  0  0  0
 31 32  1  0  0  0
 31 34  1  0  0  0
 32 33  2  0  0  0
 11 14  1  0  0  0
 19 27  1  0  0  0
M  END
> <minimizedAffinity>
-6.82326

$$$$
1256


 30 33  0  0  0  0  0  0  0  0999 V2000
   20.9587   36.0531   69.0729 S   0  0  0  0  0  0  0  0  0  0  0  0
   19.5181   36.9430   68.8163 C   0  0  0  0  0  0  0  0  0  0  0  0
   19.1681   37.9782   67.9907 N   0  0  0  0  0  0  0  0  0  0  0  0
   17.9174   38.4676   67.9830 C   0  0  0  0  0  0  0  0  0  0  0  0
   17.5096   39.4022   67.2681 O   0  0  0  0  0  0  0  0  0  0  0  0
   17.0457   37.8553   68.8525 C   0  0  0  0  0  0  0  0  0  0  0  0
   17.3863   36.8247   69.6781 C   0  0  0  0  0  0  0  0  0  0  0  0
   18.6728   36.3456   69.6617 N   0  0  0  0  0  0  0  0  0  0  0  0
   19.1167   35.3731   70.3594 N   0  0  0  0  0  0  0  0  0  0  0  0
   20.3497   34.9624   70.2660 C   0  0  0  0  0  0  0  0  0  0  0  0
   21.0286   33.8802   70.9456 N   0  0  0  0  0  0  0  0  0  0  0  0
   22.1739   33.2805   70.3762 C   0  0  0  0  0  0  0  0  0  0  0  0
   22.6371   32.1217   71.2275 C   0  0  0  0  0  0  0  0  0  0  0  0
   21.5282   31.4131   71.6975 O   0  0  0  0  0  0  0  0  0  0  0  0
   20.8697   32.1498   72.6895 C   0  0  0  0  0  0  0  0  0  0  0  0
   20.4500   33.4972   72.1887 C   0  0  0  0  0  0  0  0  0  0  0  0
   16.3442   36.2686   70.5392 C   0  0  0  0  0  0  0  0  0  0  0  0
   15.2384   36.9086   70.6810 O   0  0  0  0  0  0  0  0  0  0  0  0
   16.4534   35.0579   71.2534 N   0  0  0  0  0  0  0  0  0  0  0  0
   17.3173   34.4841   71.2173 H   0  0  0  0  0  0  0  0  0  0  0  0
   15.3381   34.5972   72.0719 C   0  0  0  0  0  0  0  0  0  0  0  0
   15.0411   33.1695   71.7986 C   0  0  0  0  0  0  0  0  0  0  0  0
   13.8834   32.8405   71.1109 C   0  0  0  0  0  0  0  0  0  0  0  0
   13.5786   31.5207   70.8893 C   0  0  0  0  0  0  0  0  0  0  0  0
   14.3835   30.5021   71.3275 C   0  0  0  0  0  0  0  0  0  0  0  0
   15.5404   30.8214   72.0136 C   0  0  0  0  0  0  0  0  0  0  0  0
   15.8454   32.1545   72.2346 C   0  0  0  0  0  0  0  0  0  0  0  0
   16.7195   29.4632   72.6528 Br  0  0  0  0  0  0  0  0  0  0  0  0
   13.0816   33.8723   70.6764 O   0  0  0  0  0  0  0  0  0  0  0  0
   13.2006   34.2945   69.3179 C   0  0  0  0  0  0  0  0  0  0  0  0
  1  2  1  0  0  0
  1 10  1  0  0  0
  2  3  2  0  0  0
  2  8  1  0  0  0
  3  4  1  0  0  0
  4  5  2  0  0  0
  4  6  1  0  0  0
  6  7  2  0  0  0
  7  8  1  0  0  0
  7 17  1  0  0  0
  8  9  1  0  0  0
  9 10  2  0  0  0
 10 11  1  0  0  0
 11 12  1  0  0  0
 11 16  1  0  0  0
 12 13  1  0  0  0
 13 14  1  0  0  0
 14 15  1  0  0  0
 15 16  1  0  0  0
 17 18  2  0  0  0
 17 19  1  0  0  0
 19 21  1  0  0  0
 21 22  1  0  0  0
 22 23  2  0  0  0
 22 27  1  0  0  0
 23 24  1  0  0  0
 23 29  1  0  0  0
 24 25  2  0  0  0
 25 26  1  0  0  0
 26 27  2  0  0  0
 26 28  1  0  0  0
 29 30  1  0  0  0
 19 20  1  0  0  0
M  END
> <minimizedAffinity>
-8.67747

$$$$
1265


 24 27  0  0  0  0  0  0  0  0999 V2000
   19.2039   36.0431   70.7750 S   0  0  0  0  0  0  0  0  0  0  0  0
   18.2530   37.0175   69.6159 C   0  0  0  0  0  0  0  0  0  0  0  0
   17.0988   37.5779   69.4545 N   0  0  0  0  0  0  0  0  0  0  0  0
   17.0083   38.2384   68.2067 C   0  0  0  0  0  0  0  0  0  0  0  0
   18.3368   38.0122   67.5626 C   0  0  0  0  0  0  0  0  0  0  0  0
   19.1241   37.2095   68.5284 N   0  0  0  0  0  0  0  0  0  0  0  0
   20.3952   36.6342   68.6411 C   0  0  0  0  0  0  0  0  0  0  0  0
   20.6606   35.9688   69.7426 C   0  0  0  0  0  0  0  0  0  0  0  0
   21.4690   36.7393   67.5995 C   0  0  0  0  0  0  0  0  0  0  0  0
   21.8737   37.9585   67.1044 C   0  0  0  0  0  0  0  0  0  0  0  0
   22.8519   38.1116   66.1451 C   0  0  0  0  0  0  0  0  0  0  0  0
   23.4853   37.0061   65.6258 C   0  0  0  0  0  0  0  0  0  0  0  0
   23.1005   35.7840   66.1005 C   0  0  0  0  0  0  0  0  0  0  0  0
   22.1004   35.6388   67.0801 C   0  0  0  0  0  0  0  0  0  0  0  0
   16.0579   37.5051   70.4954 C   0  0  0  0  0  0  0  0  0  0  0  0
   14.9684   36.6668   69.9561 C   0  0  0  0  0  0  0  0  0  0  0  0
   14.1738   37.1059   69.1004 O   0  0  0  0  0  0  0  0  0  0  0  0
   14.8025   35.2975   70.4219 C   0  0  0  0  0  0  0  0  0  0  0  0
   13.7758   34.4900   69.9290 C   0  0  0  0  0  0  0  0  0  0  0  0
   13.5905   33.1895   70.3596 C   0  0  0  0  0  0  0  0  0  0  0  0
   14.4580   32.7026   71.3011 C   0  0  0  0  0  0  0  0  0  0  0  0
   15.4908   33.4618   71.8197 C   0  0  0  0  0  0  0  0  0  0  0  0
   15.6573   34.7728   71.3684 C   0  0  0  0  0  0  0  0  0  0  0  0
   14.1929   30.8968   71.8911 Br  0  0  0  0  0  0  0  0  0  0  0  0
  1  2  1  0  0  0
  1  8  1  0  0  0
  2  3  2  0  0  0
  2  6  1  0  0  0
  3  4  1  0  0  0
  3 15  1  0  0  0
  4  5  1  0  0  0
  5  6  1  0  0  0
  6  7  1  0  0  0
  7  8  2  0  0  0
  7  9  1  0  0  0
  9 10  2  0  0  0
  9 14  1  0  0  0
 10 11  1  0  0  0
 11 12  2  0  0  0
 12 13  1  0  0  0
 13 14  2  0  0  0
 15 16  1  0  0  0
 16 17  2  0  0  0
 16 18  1  0  0  0
 18 19  2  0  0  0
 18 23  1  0  0  0
 19 20  1  0  0  0
 20 21  2  0  0  0
 21 22  1  0  0  0
 21 24  1  0  0  0
 22 23  2  0  0  0
M  END
> <minimizedAffinity>
-8.27443

$$$$
1266


 28 31  0  0  0  0  0  0  0  0999 V2000
   16.8130   37.3722   70.3077 C   0  0  0  0  0  0  0  0  0  0  0  0
   16.3165   37.7272   68.9839 N   0  0  0  0  0  0  0  0  0  0  0  0
   17.2204   38.0314   67.9769 C   0  0  0  0  0  0  0  0  0  0  0  0
   18.6208   37.4588   68.0377 C   0  0  0  0  0  0  0  0  0  0  0  0
   19.0609   37.1870   69.3363 N   0  0  0  0  0  0  0  0  0  0  0  0
   18.2466   37.6102   70.4353 C   0  0  0  0  0  0  0  0  0  0  0  0
   20.2584   36.5156   69.6937 C   0  0  0  0  0  0  0  0  0  0  0  0
   20.4691   36.5481   70.9893 O   0  0  0  0  0  0  0  0  0  0  0  0
   15.5709   37.0657   68.6870 H   0  0  0  0  0  0  0  0  0  0  0  0
   21.2477   35.8250   68.9485 C   0  0  0  0  0  0  0  0  0  0  0  0
   21.4261   34.4484   69.2291 C   0  0  0  0  0  0  0  0  0  0  0  0
   22.2363   33.6927   68.4884 N   0  0  0  0  0  0  0  0  0  0  0  0
   22.9148   34.1924   67.4539 C   0  0  0  0  0  0  0  0  0  0  0  0
   22.7830   35.5163   67.1337 C   0  0  0  0  0  0  0  0  0  0  0  0
   21.9466   36.3406   67.8835 C   0  0  0  0  0  0  0  0  0  0  0  0
   23.4783   36.0556   66.0057 N   0  0  0  0  0  0  0  0  0  0  0  0
   24.3034   35.1824   65.2328 C   0  0  0  0  0  0  0  0  0  0  0  0
   24.6067   35.3747   64.0376 O   0  0  0  0  0  0  0  0  0  0  0  0
   24.8288   33.9611   65.9172 C   0  0  0  0  0  0  0  0  0  0  0  0
   23.7639   33.3839   66.6897 O   0  0  0  0  0  0  0  0  0  0  0  0
   23.3926   37.0475   65.7374 H   0  0  0  0  0  0  0  0  0  0  0  0
   13.9353   36.9535   69.9955 Cl  0  0  0  0  0  0  0  0  0  0  0  0
   15.0576   35.6079   70.2843 C   0  0  0  0  0  0  0  0  0  0  0  0
   16.4084   35.9332   70.4862 C   0  0  0  0  0  0  0  0  0  0  0  0
   17.2679   34.8978   70.7107 C   0  0  0  0  0  0  0  0  0  0  0  0
   16.8043   33.5942   70.7343 C   0  0  0  0  0  0  0  0  0  0  0  0
   15.4731   33.2709   70.5360 C   0  0  0  0  0  0  0  0  0  0  0  0
   14.5827   34.3143   70.3049 C   0  0  0  0  0  0  0  0  0  0  0  0
 22 23  1  0  0  0
 23 24  2  0  0  0
 23 28  1  0  0  0
 24 25  1  0  0  0
 24  1  1  0  0  0
 25 26  2  0  0  0
 26 27  1  0  0  0
 27 28  2  0  0  0
  1  2  1  0  0  0
  1  6  1  0  0  0
  2  3  1  0  0  0
  3  4  1  0  0  0
  4  5  1  0  0  0
  5  6  1  0  0  0
  5  7  1  0  0  0
  7  8  2  0  0  0
  7 10  1  0  0  0
 10 11  2  0  0  0
 10 15  1  0  0  0
 11 12  1  0  0  0
 12 13  2  0  0  0
 13 14  1  0  0  0
 13 20  1  0  0  0
 14 15  2  0  0  0
 14 16  1  0  0  0
 16 17  1  0  0  0
 17 18  2  0  0  0
 17 19  1  0  0  0
 19 20  1  0  0  0
  2  9  1  0  0  0
 16 21  1  0  0  0
M  END
> <minimizedAffinity>
-9.19670

$$$$
1271


 35 38  0  0  0  0  0  0  0  0999 V2000
   21.6451   37.6008   66.9911 C   0  0  0  0  0  0  0  0  0  0  0  0
   21.9857   38.6769   66.2698 N   0  0  0  0  0  0  0  0  0  0  0  0
   23.0135   38.3269   65.5397 N   0  0  0  0  0  0  0  0  0  0  0  0
   23.3407   37.0586   65.7732 N   0  0  0  0  0  0  0  0  0  0  0  0
   22.5181   36.5478   66.6759 C   0  0  0  0  0  0  0  0  0  0  0  0
   24.4289   36.4028   65.1502 C   0  0  0  0  0  0  0  0  0  0  0  0
   24.2715   35.3507   64.2991 N   0  0  0  0  0  0  0  0  0  0  0  0
   25.4514   34.9827   63.9106 O   0  0  0  0  0  0  0  0  0  0  0  0
   26.3691   35.7076   64.4413 N   0  0  0  0  0  0  0  0  0  0  0  0
   25.7738   36.6139   65.2283 C   0  0  0  0  0  0  0  0  0  0  0  0
   26.3904   37.6087   66.0018 N   0  0  0  0  0  0  0  0  0  0  0  0
   27.1098   37.4540   66.7418 H   0  0  0  0  0  0  0  0  0  0  0  0
   26.1208   38.6036   65.8424 H   0  0  0  0  0  0  0  0  0  0  0  0
   20.7000   37.2225   69.2900 N   0  0  0  0  0  0  0  0  0  0  0  0
   20.5366   37.5648   67.9271 C   0  0  0  0  0  0  0  0  0  0  0  0
   19.3925   37.8509   67.5062 O   0  0  0  0  0  0  0  0  0  0  0  0
   21.6386   36.9679   69.6989 H   0  0  0  0  0  0  0  0  0  0  0  0
   19.6280   37.1980   70.1822 N   0  0  0  0  0  0  0  0  0  0  0  0
   19.2887   38.0044   70.7334 H   0  0  0  0  0  0  0  0  0  0  0  0
   18.9221   35.9513   70.3601 C   0  0  0  0  0  0  0  0  0  0  0  0
   19.6168   34.8440   70.4339 C   0  0  0  0  0  0  0  0  0  0  0  0
   14.4209   33.2647   71.2712 Br  0  0  0  0  0  0  0  0  0  0  0  0
   15.3971   34.8393   70.8404 C   0  0  0  0  0  0  0  0  0  0  0  0
   16.7674   34.8221   70.7521 C   0  0  0  0  0  0  0  0  0  0  0  0
   17.4747   35.9807   70.4339 C   0  0  0  0  0  0  0  0  0  0  0  0
   16.7418   37.1115   70.2203 C   0  0  0  0  0  0  0  0  0  0  0  0
   15.3497   37.1340   70.3079 C   0  0  0  0  0  0  0  0  0  0  0  0
   14.6704   35.9965   70.6193 C   0  0  0  0  0  0  0  0  0  0  0  0
   22.4391   35.2564   67.3193 C   0  0  0  0  0  0  0  0  0  0  0  0
   22.8758   35.1982   68.7007 N   0  0  0  0  0  0  0  0  0  0  0  0
   23.2263   33.8315   69.0752 C   0  0  0  0  0  0  0  0  0  0  0  0
   24.1194   33.1756   68.0455 C   0  0  0  0  0  0  0  0  0  0  0  0
   25.3746   34.0060   67.8454 C   0  0  0  0  0  0  0  0  0  0  0  0
   25.3714   35.2096   68.7444 C   0  0  0  0  0  0  0  0  0  0  0  0
   24.1085   35.9660   68.8514 C   0  0  0  0  0  0  0  0  0  0  0  0
 22 23  1  0  0  0
 23 24  2  0  0  0
 23 28  1  0  0  0
 24 25  1  0  0  0
 25 26  2  0  0  0
 25 20  1  0  0  0
 26 27  1  0  0  0
 27 28  2  0  0  0
 20 21  2  0  0  0
 20 18  1  0  0  0
 18 14  1  0  0  0
 14 15  1  0  0  0
 15 16  2  0  0  0
 15  1  1  0  0  0
  1  2  1  0  0  0
  1  5  2  0  0  0
  2  3  2  0  0  0
  3  4  1  0  0  0
  4  5  1  0  0  0
  4  6  1  0  0  0
  5 29  1  0  0  0
 29 30  1  0  0  0
 30 31  1  0  0  0
 30 35  1  0  0  0
 31 32  1  0  0  0
 32 33  1  0  0  0
 33 34  1  0  0  0
 34 35  1  0  0  0
  6  7  2  0  0  0
  6 10  1  0  0  0
  7  8  1  0  0  0
  8  9  1  0  0  0
  9 10  2  0  0  0
 10 11  1  0  0  0
 18 19  1  0  0  0
 14 17  1  0  0  0
 11 12  1  0  0  0
 11 13  1  0  0  0
M  END
> <minimizedAffinity>
-8.97215

$$$$
1280


 35 38  0  0  0  0  0  0  0  0999 V2000
   15.5651   32.7816   72.7048 C   0  0  0  0  0  0  0  0  0  0  0  0
   14.9899   31.4557   72.5977 N   0  0  0  0  0  0  0  0  0  0  0  0
   15.6386   30.8107   71.5153 C   0  0  0  0  0  0  0  0  0  0  0  0
   15.1581   29.9003   70.8325 O   0  0  0  0  0  0  0  0  0  0  0  0
   16.9638   31.4415   71.3874 C   0  0  0  0  0  0  0  0  0  0  0  0
   17.8667   31.1677   70.5600 O   0  0  0  0  0  0  0  0  0  0  0  0
   17.0051   32.4540   72.4351 C   0  0  0  0  0  0  0  0  0  0  0  0
   18.1036   32.9179   73.0138 C   0  0  0  0  0  0  0  0  0  0  0  0
   17.8940   33.8657   74.0432 O   0  0  0  0  0  0  0  0  0  0  0  0
   16.0184   37.3292   69.9063 Br  0  0  0  0  0  0  0  0  0  0  0  0
   15.0876   35.7169   70.3827 C   0  0  0  0  0  0  0  0  0  0  0  0
   15.6202   34.8521   71.3458 C   0  0  0  0  0  0  0  0  0  0  0  0
   14.9683   33.6818   71.7073 C   0  0  0  0  0  0  0  0  0  0  0  0
   13.7835   33.4166   71.0775 C   0  0  0  0  0  0  0  0  0  0  0  0
   13.2400   34.2624   70.1193 C   0  0  0  0  0  0  0  0  0  0  0  0
   13.8969   35.4188   69.7722 C   0  0  0  0  0  0  0  0  0  0  0  0
   19.4552   32.5092   72.6478 C   0  0  0  0  0  0  0  0  0  0  0  0
   20.2221   33.1313   71.7081 C   0  0  0  0  0  0  0  0  0  0  0  0
   21.4987   32.6396   71.3805 C   0  0  0  0  0  0  0  0  0  0  0  0
   22.0355   31.5302   71.9756 C   0  0  0  0  0  0  0  0  0  0  0  0
   21.2623   30.9003   72.9274 C   0  0  0  0  0  0  0  0  0  0  0  0
   20.0175   31.3704   73.2546 C   0  0  0  0  0  0  0  0  0  0  0  0
   19.7434   34.3680   71.0471 C   0  0  0  0  0  0  0  0  0  0  0  0
   23.3013   31.0392   71.6555 O   0  0  0  0  0  0  0  0  0  0  0  0
   24.3049   31.9009   71.1841 C   0  0  0  0  0  0  0  0  0  0  0  0
   13.9449   30.9468   73.4611 C   0  0  0  0  0  0  0  0  0  0  0  0
   14.4560   30.1291   74.6052 C   0  0  0  0  0  0  0  0  0  0  0  0
   14.3197   28.6609   74.4647 C   0  0  0  0  0  0  0  0  0  0  0  0
   15.4067   27.9996   73.8352 N   0  0  0  0  0  0  0  0  0  0  0  0
   16.7263   28.4715   74.2866 C   0  0  0  0  0  0  0  0  0  0  0  0
   17.6916   28.1061   73.1571 C   0  0  0  0  0  0  0  0  0  0  0  0
   17.1192   27.2388   72.2442 O   0  0  0  0  0  0  0  0  0  0  0  0
   16.5436   26.1434   72.8887 C   0  0  0  0  0  0  0  0  0  0  0  0
   15.4443   26.5829   73.8732 C   0  0  0  0  0  0  0  0  0  0  0  0
   15.3749   28.2725   72.8057 H   0  0  0  0  0  0  0  0  0  0  0  0
 10 11  1  0  0  0
 11 12  2  0  0  0
 11 16  1  0  0  0
 12 13  1  0  0  0
 13 14  2  0  0  0
 13  1  1  0  0  0
 14 15  1  0  0  0
 15 16  2  0  0  0
  1  2  1  0  0  0
  1  7  1  0  0  0
  2  3  1  0  0  0
  2 26  1  0  0  0
  3  4  2  0  0  0
  3  5  1  0  0  0
  5  6  2  0  0  0
  5  7  1  0  0  0
  7  8  2  0  0  0
  8  9  1  0  0  0
  8 17  1  0  0  0
 17 18  2  0  0  0
 17 22  1  0  0  0
 18 19  1  0  0  0
 18 23  1  0  0  0
 19 20  2  0  0  0
 20 21  1  0  0  0
 20 24  1  0  0  0
 21 22  2  0  0  0
 24 25  1  0  0  0
 26 27  1  0  0  0
 27 28  1  0  0  0
 28 29  1  0  0  0
 29 30  1  0  0  0
 29 34  1  0  0  0
 30 31  1  0  0  0
 31 32  1  0  0  0
 32 33  1  0  0  0
 33 34  1  0  0  0
 29 35  1  0  0  0
M  CHG 1   9  -1
M  CHG 1  29   1
M  END
> <minimizedAffinity>
-8.57745

$$$$
1282


 30 33  0  0  0  0  0  0  0  0999 V2000
   21.0294   37.2268   68.0910 C   0  0  0  0  0  0  0  0  0  0  0  0
   21.4356   36.2792   66.9789 C   0  0  0  0  0  0  0  0  0  0  0  0
   22.8048   36.6700   66.7050 N   0  0  0  0  0  0  0  0  0  0  0  0
   23.2834   37.6133   67.6949 C   0  0  0  0  0  0  0  0  0  0  0  0
   22.3139   37.3641   68.8581 C   0  0  0  0  0  0  0  0  0  0  0  0
   24.6572   37.2605   68.0492 C   0  0  0  0  0  0  0  0  0  0  0  0
   24.9999   37.0910   69.2285 O   0  0  0  0  0  0  0  0  0  0  0  0
   25.5972   37.1168   66.9964 N   0  0  0  0  0  0  0  0  0  0  0  0
   25.1377   36.7398   65.6788 C   0  0  0  0  0  0  0  0  0  0  0  0
   23.7245   36.2997   65.6677 C   0  0  0  0  0  0  0  0  0  0  0  0
   23.3035   35.5779   64.7258 O   0  0  0  0  0  0  0  0  0  0  0  0
   26.6216   37.2718   67.1324 H   0  0  0  0  0  0  0  0  0  0  0  0
   18.6986   37.3175   68.8269 C   0  0  0  0  0  0  0  0  0  0  0  0
   18.5560   38.3507   68.0748 O   0  0  0  0  0  0  0  0  0  0  0  0
   19.9516   36.6753   68.8924 N   0  0  0  0  0  0  0  0  0  0  0  0
   20.0736   35.8512   69.4966 H   0  0  0  0  0  0  0  0  0  0  0  0
   16.7642   33.8345   72.3462 Br  0  0  0  0  0  0  0  0  0  0  0  0
   16.5896   35.3295   71.1646 C   0  0  0  0  0  0  0  0  0  0  0  0
   17.6669   35.7677   70.4456 C   0  0  0  0  0  0  0  0  0  0  0  0
   17.5494   36.8524   69.5850 C   0  0  0  0  0  0  0  0  0  0  0  0
   16.3374   37.4605   69.4834 C   0  0  0  0  0  0  0  0  0  0  0  0
   15.2515   37.0089   70.2169 C   0  0  0  0  0  0  0  0  0  0  0  0
   15.3701   35.9361   71.0658 C   0  0  0  0  0  0  0  0  0  0  0  0
   25.4087   37.8086   64.6415 C   0  0  0  0  0  0  0  0  0  0  0  0
   24.9776   39.1512   65.0642 C   0  0  0  0  0  0  0  0  0  0  0  0
   25.8691   39.9881   65.7108 C   0  0  0  0  0  0  0  0  0  0  0  0
   25.4738   41.2443   66.1091 C   0  0  0  0  0  0  0  0  0  0  0  0
   24.1976   41.7283   65.8921 C   0  0  0  0  0  0  0  0  0  0  0  0
   23.3067   40.8967   65.2480 C   0  0  0  0  0  0  0  0  0  0  0  0
   23.6858   39.6322   64.8408 C   0  0  0  0  0  0  0  0  0  0  0  0
 17 18  1  0  0  0
 18 19  2  0  0  0
 18 23  1  0  0  0
 19 20  1  0  0  0
 20 21  2  0  0  0
 20 13  1  0  0  0
 21 22  1  0  0  0
 22 23  2  0  0  0
 13 14  2  0  0  0
 13 15  1  0  0  0
 15  1  1  0  0  0
  1  2  1  0  0  0
  1  5  1  0  0  0
  2  3  1  0  0  0
  3  4  1  0  0  0
  3 10  1  0  0  0
  4  5  1  0  0  0
  4  6  1  0  0  0
  6  7  2  0  0  0
  6  8  1  0  0  0
  8  9  1  0  0  0
  9 10  1  0  0  0
  9 24  1  0  0  0
 10 11  2  0  0  0
 24 25  1  0  0  0
 25 26  2  0  0  0
 25 30  1  0  0  0
 26 27  1  0  0  0
 27 28  2  0  0  0
 28 29  1  0  0  0
 29 30  2  0  0  0
 15 16  1  0  0  0
  8 12  1  0  0  0
M  END
> <minimizedAffinity>
-8.88411

$$$$
1284


 35 38  0  0  0  0  0  0  0  0999 V2000
   17.0079   33.3211   72.2046 C   0  0  0  0  0  0  0  0  0  0  0  0
   16.2474   32.1628   71.9180 N   0  0  0  0  0  0  0  0  0  0  0  0
   17.0036   31.2840   71.1013 C   0  0  0  0  0  0  0  0  0  0  0  0
   16.5677   30.2031   70.5961 O   0  0  0  0  0  0  0  0  0  0  0  0
   18.3375   31.8253   70.9553 C   0  0  0  0  0  0  0  0  0  0  0  0
   19.2188   31.2393   70.2702 O   0  0  0  0  0  0  0  0  0  0  0  0
   18.3840   33.0665   71.7039 C   0  0  0  0  0  0  0  0  0  0  0  0
   19.4537   33.8172   71.8378 C   0  0  0  0  0  0  0  0  0  0  0  0
   19.3549   35.0093   72.5177 O   0  0  0  0  0  0  0  0  0  0  0  0
   17.9409   37.4894   69.0275 Br  0  0  0  0  0  0  0  0  0  0  0  0
   16.7980   36.4270   70.1275 C   0  0  0  0  0  0  0  0  0  0  0  0
   17.2046   35.3059   70.7843 C   0  0  0  0  0  0  0  0  0  0  0  0
   16.4081   34.5094   71.5890 C   0  0  0  0  0  0  0  0  0  0  0  0
   15.0768   34.8875   71.7405 C   0  0  0  0  0  0  0  0  0  0  0  0
   14.6305   36.0212   71.0888 C   0  0  0  0  0  0  0  0  0  0  0  0
   15.4528   36.7963   70.2898 C   0  0  0  0  0  0  0  0  0  0  0  0
   20.7255   33.4111   71.2935 C   0  0  0  0  0  0  0  0  0  0  0  0
   21.3183   33.9975   70.1614 C   0  0  0  0  0  0  0  0  0  0  0  0
   22.5063   33.4213   69.9410 N   0  0  0  0  0  0  0  0  0  0  0  0
   22.6743   32.5093   70.8807 N   0  0  0  0  0  0  0  0  0  0  0  0
   21.6255   32.4727   71.7162 C   0  0  0  0  0  0  0  0  0  0  0  0
   20.6864   35.0892   69.3648 C   0  0  0  0  0  0  0  0  0  0  0  0
   23.4326   33.7273   68.9084 C   0  0  0  0  0  0  0  0  0  0  0  0
   24.5640   34.4678   69.2236 C   0  0  0  0  0  0  0  0  0  0  0  0
   25.5112   34.7925   68.2729 C   0  0  0  0  0  0  0  0  0  0  0  0
   25.3663   34.3844   66.9463 C   0  0  0  0  0  0  0  0  0  0  0  0
   24.2389   33.6466   66.6322 C   0  0  0  0  0  0  0  0  0  0  0  0
   23.3128   33.3374   67.5946 C   0  0  0  0  0  0  0  0  0  0  0  0
   14.8708   31.8556   72.3985 C   0  0  0  0  0  0  0  0  0  0  0  0
   14.9457   30.9614   73.6091 C   0  0  0  0  0  0  0  0  0  0  0  0
   14.4237   29.5810   73.3646 C   0  0  0  0  0  0  0  0  0  0  0  0
   13.5493   29.0517   74.3582 N   0  0  0  0  0  0  0  0  0  0  0  0
   14.1656   28.3686   75.4477 C   0  0  0  0  0  0  0  0  0  0  0  0
   12.7143   30.1249   74.9216 C   0  0  0  0  0  0  0  0  0  0  0  0
   12.8497   28.3918   73.9011 H   0  0  0  0  0  0  0  0  0  0  0  0
 10 11  1  0  0  0
 11 12  2  0  0  0
 11 16  1  0  0  0
 12 13  1  0  0  0
 13 14  2  0  0  0
 13  1  1  0  0  0
 14 15  1  0  0  0
 15 16  2  0  0  0
  1  2  1  0  0  0
  1  7  1  0  0  0
  2  3  1  0  0  0
  2 29  1  0  0  0
  3  4  2  0  0  0
  3  5  1  0  0  0
  5  6  2  0  0  0
  5  7  1  0  0  0
  7  8  2  0  0  0
  8  9  1  0  0  0
  8 17  1  0  0  0
 17 18  2  0  0  0
 17 21  1  0  0  0
 18 19  1  0  0  0
 18 22  1  0  0  0
 19 20  1  0  0  0
 19 23  1  0  0  0
 20 21  2  0  0  0
 23 24  2  0  0  0
 23 28  1  0  0  0
 24 25  1  0  0  0
 25 26  2  0  0  0
 26 27  1  0  0  0
 27 28  2  0  0  0
 29 30  1  0  0  0
 30 31  1  0  0  0
 31 32  1  0  0  0
 32 33  1  0  0  0
 32 34  1  0  0  0
 32 35  1  0  0  0
M  CHG 1   9  -1
M  CHG 1  32   1
M  END
> <minimizedAffinity>
-8.74731

$$$$
1285


 34 37  0  0  0  0  0  0  0  0999 V2000
   16.6325   32.9952   72.6448 C   0  0  0  0  0  0  0  0  0  0  0  0
   16.1170   31.6402   72.6639 N   0  0  0  0  0  0  0  0  0  0  0  0
   16.5771   30.9733   71.4682 C   0  0  0  0  0  0  0  0  0  0  0  0
   16.0680   30.0015   70.8977 O   0  0  0  0  0  0  0  0  0  0  0  0
   17.7806   31.7024   71.0794 C   0  0  0  0  0  0  0  0  0  0  0  0
   18.5410   31.4969   70.0869 O   0  0  0  0  0  0  0  0  0  0  0  0
   17.9970   32.7655   72.0470 C   0  0  0  0  0  0  0  0  0  0  0  0
   19.1143   33.4212   72.3160 C   0  0  0  0  0  0  0  0  0  0  0  0
   19.0464   34.4728   73.2737 O   0  0  0  0  0  0  0  0  0  0  0  0
   20.3639   33.0877   71.6789 C   0  0  0  0  0  0  0  0  0  0  0  0
   20.8963   33.6083   70.5531 N   0  0  0  0  0  0  0  0  0  0  0  0
   22.1020   33.0266   70.3398 C   0  0  0  0  0  0  0  0  0  0  0  0
   22.3494   32.1271   71.3318 N   0  0  0  0  0  0  0  0  0  0  0  0
   21.2714   32.1735   72.1497 C   0  0  0  0  0  0  0  0  0  0  0  0
   21.1191   31.3415   73.3753 C   0  0  0  0  0  0  0  0  0  0  0  0
   22.9228   33.3040   69.2774 C   0  0  0  0  0  0  0  0  0  0  0  0
   22.4893   34.2382   68.3627 C   0  0  0  0  0  0  0  0  0  0  0  0
   21.2615   34.8317   68.5743 C   0  0  0  0  0  0  0  0  0  0  0  0
   20.4818   34.5177   69.6547 C   0  0  0  0  0  0  0  0  0  0  0  0
   24.2427   32.6341   69.0934 C   0  0  0  0  0  0  0  0  0  0  0  0
   16.8018   37.4671   69.8305 Br  0  0  0  0  0  0  0  0  0  0  0  0
   15.8700   35.9523   70.5281 C   0  0  0  0  0  0  0  0  0  0  0  0
   16.5278   35.0473   71.3015 C   0  0  0  0  0  0  0  0  0  0  0  0
   15.8602   33.9335   71.8195 C   0  0  0  0  0  0  0  0  0  0  0  0
   14.5232   33.7861   71.5196 C   0  0  0  0  0  0  0  0  0  0  0  0
   13.8514   34.7105   70.7293 C   0  0  0  0  0  0  0  0  0  0  0  0
   14.5367   35.7958   70.2357 C   0  0  0  0  0  0  0  0  0  0  0  0
   15.2794   31.0429   73.6899 C   0  0  0  0  0  0  0  0  0  0  0  0
   13.8827   30.7604   73.2541 C   0  0  0  0  0  0  0  0  0  0  0  0
   12.8453   30.8700   74.3433 C   0  0  0  0  0  0  0  0  0  0  0  0
   12.2707   29.5708   74.6023 N   0  0  0  0  0  0  0  0  0  0  0  0
   13.0531   28.8580   75.5953 C   0  0  0  0  0  0  0  0  0  0  0  0
   10.9514   29.7593   75.1729 C   0  0  0  0  0  0  0  0  0  0  0  0
   12.1353   29.0117   73.7323 H   0  0  0  0  0  0  0  0  0  0  0  0
 21 22  1  0  0  0
 22 23  2  0  0  0
 22 27  1  0  0  0
 23 24  1  0  0  0
 24 25  2  0  0  0
 24  1  1  0  0  0
 25 26  1  0  0  0
 26 27  2  0  0  0
  1  2  1  0  0  0
  1  7  1  0  0  0
  2  3  1  0  0  0
  2 28  1  0  0  0
  3  4  2  0  0  0
  3  5  1  0  0  0
  5  6  2  0  0  0
  5  7  1  0  0  0
  7  8  2  0  0  0
  8  9  1  0  0  0
  8 10  1  0  0  0
 10 11  1  0  0  0
 10 14  2  0  0  0
 11 12  1  0  0  0
 11 19  1  0  0  0
 12 13  2  0  0  0
 12 16  1  0  0  0
 13 14  1  0  0  0
 14 15  1  0  0  0
 16 17  2  0  0  0
 16 20  1  0  0  0
 17 18  1  0  0  0
 18 19  2  0  0  0
 28 29  1  0  0  0
 29 30  1  0  0  0
 30 31  1  0  0  0
 31 32  1  0  0  0
 31 33  1  0  0  0
 31 34  1  0  0  0
M  CHG 1   9  -1
M  CHG 1  31   1
M  END
> <minimizedAffinity>
-9.28100

$$$$
1295


 26 29  0  0  0  0  0  0  0  0999 V2000
   15.7397   33.9925   71.8754 C   0  0  0  0  0  0  0  0  0  0  0  0
   16.8709   34.7664   71.4135 C   0  0  0  0  0  0  0  0  0  0  0  0
   16.7411   35.6766   70.4025 C   0  0  0  0  0  0  0  0  0  0  0  0
   15.4842   35.9325   69.7637 N   0  0  0  0  0  0  0  0  0  0  0  0
   14.3782   35.1813   70.2478 C   0  0  0  0  0  0  0  0  0  0  0  0
   14.4752   34.3097   71.2127 C   0  0  0  0  0  0  0  0  0  0  0  0
   13.1192   33.7403   71.4832 C   0  0  0  0  0  0  0  0  0  0  0  0
   12.9051   32.8641   72.3739 O   0  0  0  0  0  0  0  0  0  0  0  0
   12.2772   34.3500   70.6121 O   0  0  0  0  0  0  0  0  0  0  0  0
   12.9381   35.2322   69.7701 C   0  0  0  0  0  0  0  0  0  0  0  0
   17.8410   36.3829   69.9851 N   0  0  0  0  0  0  0  0  0  0  0  0
   19.0334   36.1878   70.5583 C   0  0  0  0  0  0  0  0  0  0  0  0
   20.0329   36.8494   70.1580 O   0  0  0  0  0  0  0  0  0  0  0  0
   19.1510   35.2912   71.5518 N   0  0  0  0  0  0  0  0  0  0  0  0
   18.1353   34.5662   72.0146 C   0  0  0  0  0  0  0  0  0  0  0  0
   18.2355   33.7262   72.9431 O   0  0  0  0  0  0  0  0  0  0  0  0
   20.4756   35.1118   72.1483 C   0  0  0  0  0  0  0  0  0  0  0  0
   17.6377   37.3363   68.9043 C   0  0  0  0  0  0  0  0  0  0  0  0
   15.4288   36.6294   68.9996 H   0  0  0  0  0  0  0  0  0  0  0  0
   16.6452   27.9412   72.6467 Br  0  0  0  0  0  0  0  0  0  0  0  0
   16.3725   29.8249   72.3704 C   0  0  0  0  0  0  0  0  0  0  0  0
   16.5289   30.3871   71.1298 C   0  0  0  0  0  0  0  0  0  0  0  0
   16.3220   31.7678   70.9641 C   0  0  0  0  0  0  0  0  0  0  0  0
   15.9671   32.5573   72.0164 C   0  0  0  0  0  0  0  0  0  0  0  0
   15.8129   31.9844   73.2539 C   0  0  0  0  0  0  0  0  0  0  0  0
   16.0178   30.6050   73.4324 C   0  0  0  0  0  0  0  0  0  0  0  0
 20 21  1  0  0  0
 21 22  2  0  0  0
 21 26  1  0  0  0
 22 23  1  0  0  0
 23 24  2  0  0  0
 24 25  1  0  0  0
 24  1  1  0  0  0
 25 26  2  0  0  0
  1  2  1  0  0  0
  1  6  1  0  0  0
  2  3  2  0  0  0
  2 15  1  0  0  0
  3  4  1  0  0  0
  3 11  1  0  0  0
  4  5  1  0  0  0
  5  6  2  0  0  0
  5 10  1  0  0  0
  6  7  1  0  0  0
  7  8  2  0  0  0
  7  9  1  0  0  0
  9 10  1  0  0  0
 11 12  1  0  0  0
 11 18  1  0  0  0
 12 13  2  0  0  0
 12 14  1  0  0  0
 14 15  1  0  0  0
 14 17  1  0  0  0
 15 16  2  0  0  0
  4 19  1  0  0  0
M  END
> <minimizedAffinity>
-9.00827

$$$$
1299


 36 39  0  0  0  0  0  0  0  0999 V2000
   23.2312   36.2365   67.1300 C   0  0  0  0  0  0  0  0  0  0  0  0
   23.3138   37.4186   66.4396 N   0  0  0  0  0  0  0  0  0  0  0  0
   24.5291   37.4485   65.9339 N   0  0  0  0  0  0  0  0  0  0  0  0
   25.2070   36.3935   66.2463 N   0  0  0  0  0  0  0  0  0  0  0  0
   24.4268   35.5800   67.0129 C   0  0  0  0  0  0  0  0  0  0  0  0
   22.3046   38.3976   66.3023 C   0  0  0  0  0  0  0  0  0  0  0  0
   20.9767   38.3148   66.5651 N   0  0  0  0  0  0  0  0  0  0  0  0
   20.4264   39.4443   66.2977 O   0  0  0  0  0  0  0  0  0  0  0  0
   21.2788   40.3177   65.8647 N   0  0  0  0  0  0  0  0  0  0  0  0
   22.4866   39.6920   65.8517 C   0  0  0  0  0  0  0  0  0  0  0  0
   23.6979   40.3027   65.4399 N   0  0  0  0  0  0  0  0  0  0  0  0
   24.5788   39.9894   65.8882 H   0  0  0  0  0  0  0  0  0  0  0  0
   23.7564   41.0429   64.7165 H   0  0  0  0  0  0  0  0  0  0  0  0
   21.5197   36.4226   69.0344 N   0  0  0  0  0  0  0  0  0  0  0  0
   22.0044   35.8715   67.8271 C   0  0  0  0  0  0  0  0  0  0  0  0
   21.2449   34.9537   67.3327 O   0  0  0  0  0  0  0  0  0  0  0  0
   21.9795   37.1741   69.5945 H   0  0  0  0  0  0  0  0  0  0  0  0
   19.2784   36.6480   69.7657 C   0  0  0  0  0  0  0  0  0  0  0  0
   20.2793   35.8937   69.5261 N   0  0  0  0  0  0  0  0  0  0  0  0
   16.7919   33.0980   72.8935 Br  0  0  0  0  0  0  0  0  0  0  0  0
   16.8088   34.5443   71.6475 C   0  0  0  0  0  0  0  0  0  0  0  0
   15.5993   35.0648   71.2338 C   0  0  0  0  0  0  0  0  0  0  0  0
   15.6200   36.1043   70.3384 C   0  0  0  0  0  0  0  0  0  0  0  0
   16.8144   36.6155   69.8643 C   0  0  0  0  0  0  0  0  0  0  0  0
   18.0079   36.1053   70.2693 C   0  0  0  0  0  0  0  0  0  0  0  0
   17.9956   35.0615   71.1686 C   0  0  0  0  0  0  0  0  0  0  0  0
   13.9387   36.8342   69.7576 Br  0  0  0  0  0  0  0  0  0  0  0  0
   14.3814   34.5780   71.6864 O   0  0  0  0  0  0  0  0  0  0  0  0
   14.2980   33.8205   72.3409 H   0  0  0  0  0  0  0  0  0  0  0  0
   24.7729   34.2882   67.6042 C   0  0  0  0  0  0  0  0  0  0  0  0
   25.0633   34.3454   69.0287 N   0  0  0  0  0  0  0  0  0  0  0  0
   24.1362   33.4953   69.7650 C   0  0  0  0  0  0  0  0  0  0  0  0
   24.6743   32.1036   69.9420 C   0  0  0  0  0  0  0  0  0  0  0  0
   25.6322   31.7456   69.0114 O   0  0  0  0  0  0  0  0  0  0  0  0
   26.7475   32.5692   68.9872 C   0  0  0  0  0  0  0  0  0  0  0  0
   26.4254   33.9942   69.3468 C   0  0  0  0  0  0  0  0  0  0  0  0
 20 21  1  0  0  0
 21 22  2  0  0  0
 21 26  1  0  0  0
 22 23  1  0  0  0
 22 28  1  0  0  0
 23 24  2  0  0  0
 23 27  1  0  0  0
 24 25  1  0  0  0
 25 26  2  0  0  0
 25 18  1  0  0  0
 18 19  2  0  0  0
 19 14  1  0  0  0
 14 15  1  0  0  0
 15 16  2  0  0  0
 15  1  1  0  0  0
  1  2  1  0  0  0
  1  5  2  0  0  0
  2  3  1  0  0  0
  2  6  1  0  0  0
  3  4  2  0  0  0
  4  5  1  0  0  0
  5 30  1  0  0  0
 30 31  1  0  0  0
 31 32  1  0  0  0
 31 36  1  0  0  0
 32 33  1  0  0  0
 33 34  1  0  0  0
 34 35  1  0  0  0
 35 36  1  0  0  0
  6  7  2  0  0  0
  6 10  1  0  0  0
  7  8  1  0  0  0
  8  9  1  0  0  0
  9 10  2  0  0  0
 10 11  1  0  0  0
 14 17  1  0  0  0
 11 12  1  0  0  0
 11 13  1  0  0  0
 28 29  1  0  0  0
M  END
> <minimizedAffinity>
-8.82781

$$$$
1300


 22 25  0  0  0  0  0  0  0  0999 V2000
   18.0020   32.9916   71.7760 N   0  0  0  0  0  0  0  0  0  0  0  0
   17.7035   31.7753   71.1163 C   0  0  0  0  0  0  0  0  0  0  0  0
   18.3613   31.2469   70.1963 O   0  0  0  0  0  0  0  0  0  0  0  0
   16.4683   31.1785   71.6677 C   0  0  0  0  0  0  0  0  0  0  0  0
   15.3338   31.6173   70.7673 C   0  0  0  0  0  0  0  0  0  0  0  0
   15.2161   32.9746   71.1695 O   0  0  0  0  0  0  0  0  0  0  0  0
   14.9158   32.7056   72.5315 C   0  0  0  0  0  0  0  0  0  0  0  0
   16.1687   31.9751   72.9343 C   0  0  0  0  0  0  0  0  0  0  0  0
   17.2728   32.9580   73.0054 C   0  0  0  0  0  0  0  0  0  0  0  0
   17.5426   33.6809   74.0189 O   0  0  0  0  0  0  0  0  0  0  0  0
   13.7646   31.7951   72.3580 C   0  0  0  0  0  0  0  0  0  0  0  0
   14.0399   31.0880   71.2651 C   0  0  0  0  0  0  0  0  0  0  0  0
   20.9011   32.5125   72.4877 Br  0  0  0  0  0  0  0  0  0  0  0  0
   20.1878   34.0680   71.6271 C   0  0  0  0  0  0  0  0  0  0  0  0
   18.8321   34.0771   71.3919 C   0  0  0  0  0  0  0  0  0  0  0  0
   18.3200   35.2127   70.7623 C   0  0  0  0  0  0  0  0  0  0  0  0
   19.1456   36.2532   70.4065 C   0  0  0  0  0  0  0  0  0  0  0  0
   20.5102   36.2430   70.6436 C   0  0  0  0  0  0  0  0  0  0  0  0
   21.0236   35.1221   71.2660 C   0  0  0  0  0  0  0  0  0  0  0  0
   21.3383   37.3358   70.2658 N   0  0  0  0  0  0  0  0  0  0  0  0
   21.3271   37.6988   69.0766 O   0  0  0  0  0  0  0  0  0  0  0  0
   22.1514   38.0204   71.1270 O   0  0  0  0  0  0  0  0  0  0  0  0
 13 14  1  0  0  0
 14 15  2  0  0  0
 14 19  1  0  0  0
 15 16  1  0  0  0
 15  1  1  0  0  0
 16 17  2  0  0  0
 17 18  1  0  0  0
 18 19  2  0  0  0
 18 20  1  0  0  0
 20 21  2  0  0  0
 20 22  1  0  0  0
  1  2  1  0  0  0
  1  9  1  0  0  0
  2  3  2  0  0  0
  2  4  1  0  0  0
  4  5  1  0  0  0
  4  8  1  0  0  0
  5  6  1  0  0  0
  5 12  1  0  0  0
  6  7  1  0  0  0
  7  8  1  0  0  0
  7 11  1  0  0  0
  8  9  1  0  0  0
  9 10  2  0  0  0
 11 12  2  0  0  0
M  CHG 1  22  -1
M  END
> <minimizedAffinity>
-7.29445

$$$$
1301


 24 27  0  0  0  0  0  0  0  0999 V2000
   19.8297   36.0050   70.4459 N   0  0  0  0  0  0  0  0  0  0  0  0
   20.4697   35.1740   71.4075 C   0  0  0  0  0  0  0  0  0  0  0  0
   20.0775   34.9082   72.5642 O   0  0  0  0  0  0  0  0  0  0  0  0
   21.7359   34.6304   70.8291 C   0  0  0  0  0  0  0  0  0  0  0  0
   21.5091   33.3671   70.0679 C   0  0  0  0  0  0  0  0  0  0  0  0
   20.9779   33.8268   68.8370 O   0  0  0  0  0  0  0  0  0  0  0  0
   22.0602   34.6838   68.5134 C   0  0  0  0  0  0  0  0  0  0  0  0
   22.0482   35.6007   69.6924 C   0  0  0  0  0  0  0  0  0  0  0  0
   20.8791   36.5095   69.6304 C   0  0  0  0  0  0  0  0  0  0  0  0
   20.8271   37.5614   68.9594 O   0  0  0  0  0  0  0  0  0  0  0  0
   23.1808   33.7014   68.6191 C   0  0  0  0  0  0  0  0  0  0  0  0
   22.8246   32.8543   69.6009 C   0  0  0  0  0  0  0  0  0  0  0  0
   21.9221   35.3207   67.1968 C   0  0  0  0  0  0  0  0  0  0  0  0
   14.9351   34.0458   70.9978 Br  0  0  0  0  0  0  0  0  0  0  0  0
   16.1404   35.4572   70.5788 C   0  0  0  0  0  0  0  0  0  0  0  0
   15.6220   36.6749   70.2043 C   0  0  0  0  0  0  0  0  0  0  0  0
   16.5162   37.6773   69.9074 C   0  0  0  0  0  0  0  0  0  0  0  0
   17.8947   37.4521   69.9889 C   0  0  0  0  0  0  0  0  0  0  0  0
   18.4301   36.2363   70.3634 C   0  0  0  0  0  0  0  0  0  0  0  0
   17.5180   35.2378   70.6578 C   0  0  0  0  0  0  0  0  0  0  0  0
   14.1525   36.9198   70.1188 C   0  0  0  0  0  0  0  0  0  0  0  0
   20.6602   32.3609   70.7300 C   0  0  0  0  0  0  0  0  0  0  0  0
   20.9456   31.0684   70.2961 O   0  0  0  0  0  0  0  0  0  0  0  0
   20.3409   30.7603   69.5645 H   0  0  0  0  0  0  0  0  0  0  0  0
 14 15  1  0  0  0
 15 16  2  0  0  0
 15 20  1  0  0  0
 16 17  1  0  0  0
 16 21  1  0  0  0
 17 18  2  0  0  0
 18 19  1  0  0  0
 19 20  2  0  0  0
 19  1  1  0  0  0
  1  2  1  0  0  0
  1  9  1  0  0  0
  2  3  2  0  0  0
  2  4  1  0  0  0
  4  5  1  0  0  0
  4  8  1  0  0  0
  5  6  1  0  0  0
  5 12  1  0  0  0
  5 22  1  0  0  0
  6  7  1  0  0  0
  7  8  1  0  0  0
  7 11  1  0  0  0
  7 13  1  0  0  0
  8  9  1  0  0  0
  9 10  2  0  0  0
 11 12  2  0  0  0
 22 23  1  0  0  0
 23 24  1  0  0  0
M  END
> <minimizedAffinity>
-8.82545

$$$$
1310


 32 35  0  0  0  0  0  0  0  0999 V2000
   19.9072   35.8057   70.8920 C   0  0  0  0  0  0  0  0  0  0  0  0
   19.7696   34.4580   71.3999 N   0  0  0  0  0  0  0  0  0  0  0  0
   19.8761   33.5870   70.2877 C   0  0  0  0  0  0  0  0  0  0  0  0
   19.3866   32.4376   70.1559 O   0  0  0  0  0  0  0  0  0  0  0  0
   20.6844   34.2965   69.2954 C   0  0  0  0  0  0  0  0  0  0  0  0
   21.0401   33.9227   68.1545 O   0  0  0  0  0  0  0  0  0  0  0  0
   21.0178   35.5908   69.9111 C   0  0  0  0  0  0  0  0  0  0  0  0
   22.0494   36.3401   69.5959 C   0  0  0  0  0  0  0  0  0  0  0  0
   22.1725   37.5653   70.2635 O   0  0  0  0  0  0  0  0  0  0  0  0
   23.0526   35.9299   68.5931 C   0  0  0  0  0  0  0  0  0  0  0  0
   24.0689   35.1318   68.7337 O   0  0  0  0  0  0  0  0  0  0  0  0
   24.7411   35.0013   67.6122 C   0  0  0  0  0  0  0  0  0  0  0  0
   24.1335   35.7706   66.6334 C   0  0  0  0  0  0  0  0  0  0  0  0
   23.0593   36.3536   67.2775 C   0  0  0  0  0  0  0  0  0  0  0  0
   24.6475   35.8076   65.3554 C   0  0  0  0  0  0  0  0  0  0  0  0
   25.7689   35.0947   64.9965 C   0  0  0  0  0  0  0  0  0  0  0  0
   26.3850   34.3248   65.9584 C   0  0  0  0  0  0  0  0  0  0  0  0
   25.8685   34.2846   67.2524 C   0  0  0  0  0  0  0  0  0  0  0  0
   14.5174   35.9959   70.5628 Br  0  0  0  0  0  0  0  0  0  0  0  0
   16.2797   36.5519   70.0276 C   0  0  0  0  0  0  0  0  0  0  0  0
   17.4085   35.9943   70.6313 C   0  0  0  0  0  0  0  0  0  0  0  0
   18.6877   36.3517   70.2890 C   0  0  0  0  0  0  0  0  0  0  0  0
   18.8062   37.3241   69.2816 C   0  0  0  0  0  0  0  0  0  0  0  0
   17.7028   37.8824   68.6792 C   0  0  0  0  0  0  0  0  0  0  0  0
   16.4294   37.5040   69.0428 C   0  0  0  0  0  0  0  0  0  0  0  0
   19.5828   33.9843   72.7697 C   0  0  0  0  0  0  0  0  0  0  0  0
   18.1057   33.8954   73.1034 C   0  0  0  0  0  0  0  0  0  0  0  0
   17.6291   32.4755   73.2607 C   0  0  0  0  0  0  0  0  0  0  0  0
   17.1972   31.9702   71.9972 N   0  0  0  0  0  0  0  0  0  0  0  0
   16.9745   30.5399   71.9976 C   0  0  0  0  0  0  0  0  0  0  0  0
   16.0283   32.5937   71.4545 C   0  0  0  0  0  0  0  0  0  0  0  0
   17.9870   32.1394   71.3052 H   0  0  0  0  0  0  0  0  0  0  0  0
 19 20  1  0  0  0
 20 21  2  0  0  0
 20 25  1  0  0  0
 21 22  1  0  0  0
 22 23  2  0  0  0
 22  1  1  0  0  0
 23 24  1  0  0  0
 24 25  2  0  0  0
  1  2  1  0  0  0
  1  7  1  0  0  0
  2  3  1  0  0  0
  2 26  1  0  0  0
  3  4  2  0  0  0
  3  5  1  0  0  0
  5  6  2  0  0  0
  5  7  1  0  0  0
  7  8  2  0  0  0
  8  9  1  0  0  0
  8 10  1  0  0  0
 10 11  1  0  0  0
 10 14  2  0  0  0
 11 12  1  0  0  0
 12 13  2  0  0  0
 12 18  1  0  0  0
 13 14  1  0  0  0
 13 15  1  0  0  0
 15 16  2  0  0  0
 16 17  1  0  0  0
 17 18  2  0  0  0
 26 27  1  0  0  0
 27 28  1  0  0  0
 28 29  1  0  0  0
 29 30  1  0  0  0
 29 31  1  0  0  0
 29 32  1  0  0  0
M  CHG 1   9  -1
M  CHG 1  29   1
M  END
> <minimizedAffinity>
-8.36992

$$$$
1314


 32 35  0  0  0  0  0  0  0  0999 V2000
   22.2697   34.3285   69.2373 C   0  0  0  0  0  0  0  0  0  0  0  0
   23.4992   33.9295   69.3570 N   0  0  0  0  0  0  0  0  0  0  0  0
   24.1324   34.1461   68.2560 N   0  0  0  0  0  0  0  0  0  0  0  0
   23.3225   34.7307   67.2915 N   0  0  0  0  0  0  0  0  0  0  0  0
   22.1507   34.8634   67.8724 C   0  0  0  0  0  0  0  0  0  0  0  0
   23.8877   34.9570   66.0375 C   0  0  0  0  0  0  0  0  0  0  0  0
   24.6182   33.9687   65.3780 N   0  0  0  0  0  0  0  0  0  0  0  0
   25.1107   34.4741   64.3180 O   0  0  0  0  0  0  0  0  0  0  0  0
   24.7892   35.6984   64.1833 N   0  0  0  0  0  0  0  0  0  0  0  0
   24.0177   36.0301   65.2568 C   0  0  0  0  0  0  0  0  0  0  0  0
   23.5125   37.3629   65.4018 N   0  0  0  0  0  0  0  0  0  0  0  0
   22.7091   37.6264   64.8139 H   0  0  0  0  0  0  0  0  0  0  0  0
   23.9741   38.0326   66.0140 H   0  0  0  0  0  0  0  0  0  0  0  0
   20.1520   32.9419   69.7416 N   0  0  0  0  0  0  0  0  0  0  0  0
   21.1340   34.0990   70.0337 C   0  0  0  0  0  0  0  0  0  0  0  0
   20.8013   34.7720   71.0027 O   0  0  0  0  0  0  0  0  0  0  0  0
   20.4241   32.3494   68.9618 H   0  0  0  0  0  0  0  0  0  0  0  0
   18.5546   32.9258   71.6453 C   0  0  0  0  0  0  0  0  0  0  0  0
   19.2048   33.1139   70.6024 N   0  0  0  0  0  0  0  0  0  0  0  0
   16.1156   31.6220   72.8762 Br  0  0  0  0  0  0  0  0  0  0  0  0
   16.1369   33.3229   72.0577 C   0  0  0  0  0  0  0  0  0  0  0  0
   17.3302   33.8744   71.6578 C   0  0  0  0  0  0  0  0  0  0  0  0
   17.4007   35.0570   71.0455 C   0  0  0  0  0  0  0  0  0  0  0  0
   16.2101   35.8004   70.7750 C   0  0  0  0  0  0  0  0  0  0  0  0
   15.0165   35.2704   71.1330 C   0  0  0  0  0  0  0  0  0  0  0  0
   14.9637   34.0305   71.7770 C   0  0  0  0  0  0  0  0  0  0  0  0
   20.8832   35.5261   67.5782 C   0  0  0  0  0  0  0  0  0  0  0  0
   20.4200   36.7354   67.9120 N   0  0  0  0  0  0  0  0  0  0  0  0
   20.1244   37.5090   66.7144 C   0  0  0  0  0  0  0  0  0  0  0  0
   18.7753   38.1309   66.9177 C   0  0  0  0  0  0  0  0  0  0  0  0
   18.2879   37.6266   68.2722 C   0  0  0  0  0  0  0  0  0  0  0  0
   19.6306   37.2097   68.9217 C   0  0  0  0  0  0  0  0  0  0  0  0
 20 21  1  0  0  0
 21 22  2  0  0  0
 21 26  1  0  0  0
 22 23  1  0  0  0
 22 18  1  0  0  0
 23 24  2  0  0  0
 24 25  1  0  0  0
 25 26  2  0  0  0
 18 19  2  0  0  0
 19 14  1  0  0  0
 14 15  1  0  0  0
 15 16  2  0  0  0
 15  1  1  0  0  0
  1  2  1  0  0  0
  1  5  2  0  0  0
  2  3  2  0  0  0
  3  4  1  0  0  0
  4  5  1  0  0  0
  4  6  1  0  0  0
  5 27  1  0  0  0
 27 28  1  0  0  0
 28 29  1  0  0  0
 28 32  1  0  0  0
 29 30  1  0  0  0
 30 31  1  0  0  0
 31 32  1  0  0  0
  6  7  2  0  0  0
  6 10  1  0  0  0
  7  8  1  0  0  0
  8  9  1  0  0  0
  9 10  2  0  0  0
 10 11  1  0  0  0
 14 17  1  0  0  0
 11 12  1  0  0  0
 11 13  1  0  0  0
M  END
> <minimizedAffinity>
-8.92427

$$$$
1315


 30 33  0  0  0  0  0  0  0  0999 V2000
   19.2123   35.3876   70.8379 N   0  0  0  0  0  0  0  0  0  0  0  0
   18.2192   36.1810   70.3197 C   0  0  0  0  0  0  0  0  0  0  0  0
   17.0445   35.7170   70.8365 C   0  0  0  0  0  0  0  0  0  0  0  0
   15.8442   36.3368   70.4766 C   0  0  0  0  0  0  0  0  0  0  0  0
   15.8665   37.4059   69.6064 C   0  0  0  0  0  0  0  0  0  0  0  0
   17.0509   37.8775   69.0838 C   0  0  0  0  0  0  0  0  0  0  0  0
   18.2444   37.2505   69.4507 C   0  0  0  0  0  0  0  0  0  0  0  0
   17.3327   34.6743   71.6462 N   0  0  0  0  0  0  0  0  0  0  0  0
   18.6502   34.4613   71.6597 C   0  0  0  0  0  0  0  0  0  0  0  0
   19.2815   33.5863   72.4100 N   0  0  0  0  0  0  0  0  0  0  0  0
   18.8058   32.9139   73.0053 H   0  0  0  0  0  0  0  0  0  0  0  0
   20.3109   33.6021   72.4182 H   0  0  0  0  0  0  0  0  0  0  0  0
   20.6237   35.5845   70.5860 C   0  0  0  0  0  0  0  0  0  0  0  0
   21.1464   34.7876   69.4689 C   0  0  0  0  0  0  0  0  0  0  0  0
   21.0181   33.4856   69.5892 O   0  0  0  0  0  0  0  0  0  0  0  0
   25.0349   34.2370   65.7943 Br  0  0  0  0  0  0  0  0  0  0  0  0
   23.4463   35.0671   66.5251 C   0  0  0  0  0  0  0  0  0  0  0  0
   22.9067   34.6358   67.7027 C   0  0  0  0  0  0  0  0  0  0  0  0
   21.7842   35.1942   68.2436 C   0  0  0  0  0  0  0  0  0  0  0  0
   21.2063   36.2470   67.5171 C   0  0  0  0  0  0  0  0  0  0  0  0
   21.7178   36.7066   66.3351 C   0  0  0  0  0  0  0  0  0  0  0  0
   22.8511   36.1035   65.8422 C   0  0  0  0  0  0  0  0  0  0  0  0
   16.2995   33.9756   72.3908 C   0  0  0  0  0  0  0  0  0  0  0  0
   15.7072   32.8012   71.7274 C   0  0  0  0  0  0  0  0  0  0  0  0
   16.1665   31.5025   72.0663 N   0  0  0  0  0  0  0  0  0  0  0  0
   15.5875   30.4905   71.1459 C   0  0  0  0  0  0  0  0  0  0  0  0
   14.0949   30.5363   71.1273 C   0  0  0  0  0  0  0  0  0  0  0  0
   13.6588   30.1082   72.3823 O   0  0  0  0  0  0  0  0  0  0  0  0
   14.1655   30.8877   73.3920 C   0  0  0  0  0  0  0  0  0  0  0  0
   15.6607   31.0580   73.3758 C   0  0  0  0  0  0  0  0  0  0  0  0
 16 17  1  0  0  0
 17 18  2  0  0  0
 17 22  1  0  0  0
 18 19  1  0  0  0
 19 20  2  0  0  0
 19 14  1  0  0  0
 20 21  1  0  0  0
 21 22  2  0  0  0
 14 15  2  0  0  0
 14 13  1  0  0  0
 13  1  1  0  0  0
  1  2  1  0  0  0
  1  9  1  0  0  0
  2  3  1  0  0  0
  2  7  2  0  0  0
  3  4  2  0  0  0
  3  8  1  0  0  0
  4  5  1  0  0  0
  5  6  2  0  0  0
  6  7  1  0  0  0
  8  9  1  0  0  0
  8 23  1  0  0  0
  9 10  2  0  0  0
 23 24  1  0  0  0
 24 25  1  0  0  0
 25 26  1  0  0  0
 25 30  1  0  0  0
 26 27  1  0  0  0
 27 28  1  0  0  0
 28 29  1  0  0  0
 29 30  1  0  0  0
 10 11  1  0  0  0
 10 12  1  0  0  0
M  END
> <minimizedAffinity>
-8.35972

$$$$
1325


 31 34  0  0  0  0  0  0  0  0999 V2000
   21.6136   35.8402   68.9364 C   0  0  0  0  0  0  0  0  0  0  0  0
   20.8751   36.5959   67.9681 N   0  0  0  0  0  0  0  0  0  0  0  0
   19.6526   36.9561   68.6777 C   0  0  0  0  0  0  0  0  0  0  0  0
   18.9253   37.9449   68.4388 O   0  0  0  0  0  0  0  0  0  0  0  0
   19.4356   35.9575   69.7078 C   0  0  0  0  0  0  0  0  0  0  0  0
   18.4992   35.8775   70.5577 O   0  0  0  0  0  0  0  0  0  0  0  0
   20.5520   35.0151   69.5809 C   0  0  0  0  0  0  0  0  0  0  0  0
   20.5624   33.7780   69.9942 C   0  0  0  0  0  0  0  0  0  0  0  0
   21.7395   33.0351   69.8413 O   0  0  0  0  0  0  0  0  0  0  0  0
   19.3718   33.1538   70.6045 C   0  0  0  0  0  0  0  0  0  0  0  0
   18.9461   33.3599   71.8458 O   0  0  0  0  0  0  0  0  0  0  0  0
   17.8669   32.6677   72.1040 C   0  0  0  0  0  0  0  0  0  0  0  0
   17.5097   31.9327   70.9931 C   0  0  0  0  0  0  0  0  0  0  0  0
   18.4801   32.2608   70.0613 C   0  0  0  0  0  0  0  0  0  0  0  0
   16.3995   31.1188   71.0166 C   0  0  0  0  0  0  0  0  0  0  0  0
   15.5923   30.9865   72.1251 C   0  0  0  0  0  0  0  0  0  0  0  0
   15.9470   31.7204   73.2425 C   0  0  0  0  0  0  0  0  0  0  0  0
   17.0544   32.5396   73.2351 C   0  0  0  0  0  0  0  0  0  0  0  0
   26.8077   32.8286   67.4286 Br  0  0  0  0  0  0  0  0  0  0  0  0
   25.1948   33.7580   67.8809 C   0  0  0  0  0  0  0  0  0  0  0  0
   25.1449   34.6570   68.9171 C   0  0  0  0  0  0  0  0  0  0  0  0
   23.9776   35.3100   69.2199 C   0  0  0  0  0  0  0  0  0  0  0  0
   22.7801   35.1096   68.5091 C   0  0  0  0  0  0  0  0  0  0  0  0
   22.8519   34.2149   67.4870 C   0  0  0  0  0  0  0  0  0  0  0  0
   24.0277   33.5569   67.1809 C   0  0  0  0  0  0  0  0  0  0  0  0
   21.1668   37.0384   66.6227 C   0  0  0  0  0  0  0  0  0  0  0  0
   21.9795   38.2517   66.4503 C   0  0  0  0  0  0  0  0  0  0  0  0
   23.0653   38.1916   65.5070 N   0  0  0  0  0  0  0  0  0  0  0  0
   23.5234   39.4924   65.1090 C   0  0  0  0  0  0  0  0  0  0  0  0
   24.1061   37.2613   65.8403 C   0  0  0  0  0  0  0  0  0  0  0  0
   22.6055   37.7898   64.6190 H   0  0  0  0  0  0  0  0  0  0  0  0
 19 20  1  0  0  0
 20 21  2  0  0  0
 20 25  1  0  0  0
 21 22  1  0  0  0
 22 23  2  0  0  0
 23 24  1  0  0  0
 23  1  1  0  0  0
 24 25  2  0  0  0
  1  2  1  0  0  0
  1  7  1  0  0  0
  2  3  1  0  0  0
  2 26  1  0  0  0
  3  4  2  0  0  0
  3  5  1  0  0  0
  5  6  2  0  0  0
  5  7  1  0  0  0
  7  8  2  0  0  0
  8  9  1  0  0  0
  8 10  1  0  0  0
 10 11  1  0  0  0
 10 14  2  0  0  0
 11 12  1  0  0  0
 12 13  2  0  0  0
 12 18  1  0  0  0
 13 14  1  0  0  0
 13 15  1  0  0  0
 15 16  2  0  0  0
 16 17  1  0  0  0
 17 18  2  0  0  0
 26 27  1  0  0  0
 27 28  1  0  0  0
 28 29  1  0  0  0
 28 30  1  0  0  0
 28 31  1  0  0  0
M  CHG 1   9  -1
M  CHG 1  28   1
M  END
> <minimizedAffinity>
-7.96385

$$$$
1329


 28 31  0  0  0  0  0  0  0  0999 V2000
   17.2412   37.4470   69.8191 C   0  0  0  0  0  0  0  0  0  0  0  0
   16.4502   36.4328   70.1741 C   0  0  0  0  0  0  0  0  0  0  0  0
   16.8221   35.1040   70.3687 O   0  0  0  0  0  0  0  0  0  0  0  0
   15.7426   34.3484   70.7356 C   0  0  0  0  0  0  0  0  0  0  0  0
   14.6009   35.1396   70.8010 C   0  0  0  0  0  0  0  0  0  0  0  0
   13.4066   34.5384   71.1658 C   0  0  0  0  0  0  0  0  0  0  0  0
   13.3677   33.1934   71.4544 C   0  0  0  0  0  0  0  0  0  0  0  0
   14.5354   32.4300   71.3775 C   0  0  0  0  0  0  0  0  0  0  0  0
   15.7288   32.9983   71.0181 C   0  0  0  0  0  0  0  0  0  0  0  0
   14.3917   31.0862   71.6864 O   0  0  0  0  0  0  0  0  0  0  0  0
   15.0161   36.5063   70.4418 C   0  0  0  0  0  0  0  0  0  0  0  0
   14.2455   37.4994   70.3870 O   0  0  0  0  0  0  0  0  0  0  0  0
   21.2181   36.7472   66.3358 Br  0  0  0  0  0  0  0  0  0  0  0  0
   20.5223   36.9216   68.1066 C   0  0  0  0  0  0  0  0  0  0  0  0
   19.1608   37.1275   68.3126 C   0  0  0  0  0  0  0  0  0  0  0  0
   18.6582   37.2462   69.5894 C   0  0  0  0  0  0  0  0  0  0  0  0
   19.4953   37.1624   70.6750 C   0  0  0  0  0  0  0  0  0  0  0  0
   20.8369   36.9573   70.4535 C   0  0  0  0  0  0  0  0  0  0  0  0
   21.3783   36.8353   69.1936 C   0  0  0  0  0  0  0  0  0  0  0  0
   16.9061   32.1401   70.8749 C   0  0  0  0  0  0  0  0  0  0  0  0
   18.1127   32.6231   71.4410 N   0  0  0  0  0  0  0  0  0  0  0  0
   19.2199   32.1494   70.6269 C   0  0  0  0  0  0  0  0  0  0  0  0
   20.4376   31.7467   71.3846 C   0  0  0  0  0  0  0  0  0  0  0  0
   20.2126   30.8701   72.4797 N   0  0  0  0  0  0  0  0  0  0  0  0
   18.8346   30.8104   72.8413 C   0  0  0  0  0  0  0  0  0  0  0  0
   18.2415   32.1785   72.8084 C   0  0  0  0  0  0  0  0  0  0  0  0
   21.0563   31.2483   73.5938 C   0  0  0  0  0  0  0  0  0  0  0  0
   18.1462   33.6854   71.4973 H   0  0  0  0  0  0  0  0  0  0  0  0
 13 14  1  0  0  0
 14 15  2  0  0  0
 14 19  1  0  0  0
 15 16  1  0  0  0
 16 17  2  0  0  0
 16  1  1  0  0  0
 17 18  1  0  0  0
 18 19  2  0  0  0
  1  2  2  0  0  0
  2  3  1  0  0  0
  2 11  1  0  0  0
  3  4  1  0  0  0
  4  5  2  0  0  0
  4  9  1  0  0  0
  5  6  1  0  0  0
  5 11  1  0  0  0
  6  7  2  0  0  0
  7  8  1  0  0  0
  8  9  2  0  0  0
  8 10  1  0  0  0
  9 20  1  0  0  0
 20 21  1  0  0  0
 21 22  1  0  0  0
 21 26  1  0  0  0
 22 23  1  0  0  0
 23 24  1  0  0  0
 24 25  1  0  0  0
 24 27  1  0  0  0
 25 26  1  0  0  0
 11 12  2  0  0  0
 21 28  1  0  0  0
M  CHG 1  10  -1
M  CHG 1  21   1
M  END
> <minimizedAffinity>
-9.44508

$$$$
1337


 32 35  0  0  0  0  0  0  0  0999 V2000
   17.0921   36.3580   70.6958 N   0  0  0  0  0  0  0  0  0  0  0  0
   16.2578   35.2148   70.7670 C   0  0  0  0  0  0  0  0  0  0  0  0
   15.2931   35.1402   69.9589 O   0  0  0  0  0  0  0  0  0  0  0  0
   17.8906   36.4250   71.3619 H   0  0  0  0  0  0  0  0  0  0  0  0
   16.5347   34.1547   71.7722 C   0  0  0  0  0  0  0  0  0  0  0  0
   17.8500   34.1527   72.0494 O   0  0  0  0  0  0  0  0  0  0  0  0
   18.4249   32.9961   72.4730 C   0  0  0  0  0  0  0  0  0  0  0  0
   19.8147   33.1419   72.3536 O   0  0  0  0  0  0  0  0  0  0  0  0
   20.1659   32.7334   71.0902 C   0  0  0  0  0  0  0  0  0  0  0  0
   19.0703   32.1410   70.4945 O   0  0  0  0  0  0  0  0  0  0  0  0
   18.1857   31.8235   71.5513 C   0  0  0  0  0  0  0  0  0  0  0  0
   16.7792   31.7328   71.0997 C   0  0  0  0  0  0  0  0  0  0  0  0
   16.1202   30.6271   71.6844 O   0  0  0  0  0  0  0  0  0  0  0  0
   14.8692   31.0454   72.0608 C   0  0  0  0  0  0  0  0  0  0  0  0
   15.0288   32.3733   72.3605 O   0  0  0  0  0  0  0  0  0  0  0  0
   15.8997   32.8732   71.3809 C   0  0  0  0  0  0  0  0  0  0  0  0
   14.4850   30.2327   73.3034 C   0  0  0  0  0  0  0  0  0  0  0  0
   13.8063   30.7667   71.0307 C   0  0  0  0  0  0  0  0  0  0  0  0
   21.2711   31.6768   71.1194 C   0  0  0  0  0  0  0  0  0  0  0  0
   20.6903   33.8744   70.2338 C   0  0  0  0  0  0  0  0  0  0  0  0
   16.8975   37.4254   69.7602 C   0  0  0  0  0  0  0  0  0  0  0  0
   19.2727   36.8586   69.0695 N   0  0  0  0  0  0  0  0  0  0  0  0
   18.0875   37.5933   68.8866 C   0  0  0  0  0  0  0  0  0  0  0  0
   17.9869   38.4290   67.9664 O   0  0  0  0  0  0  0  0  0  0  0  0
   19.2544   36.1675   69.8887 H   0  0  0  0  0  0  0  0  0  0  0  0
   24.2993   36.9756   65.5622 Br  0  0  0  0  0  0  0  0  0  0  0  0
   22.7652   36.9607   66.7095 C   0  0  0  0  0  0  0  0  0  0  0  0
   21.5543   36.5603   66.1900 C   0  0  0  0  0  0  0  0  0  0  0  0
   20.4411   36.5435   66.9980 C   0  0  0  0  0  0  0  0  0  0  0  0
   20.4535   36.9106   68.3363 C   0  0  0  0  0  0  0  0  0  0  0  0
   21.6782   37.3052   68.8256 C   0  0  0  0  0  0  0  0  0  0  0  0
   22.8241   37.3289   68.0157 C   0  0  0  0  0  0  0  0  0  0  0  0
 26 27  1  0  0  0
 27 28  2  0  0  0
 27 32  1  0  0  0
 28 29  1  0  0  0
 29 30  2  0  0  0
 30 31  1  0  0  0
 30 22  1  0  0  0
 31 32  2  0  0  0
 22 23  1  0  0  0
 23 24  2  0  0  0
 23 21  1  0  0  0
 21  1  1  0  0  0
  1  2  1  0  0  0
  2  3  2  0  0  0
  2  5  1  0  0  0
  5  6  1  0  0  0
  5 16  1  0  0  0
  6  7  1  0  0  0
  7  8  1  0  0  0
  7 11  1  0  0  0
  8  9  1  0  0  0
  9 10  1  0  0  0
  9 19  1  0  0  0
  9 20  1  0  0  0
 10 11  1  0  0  0
 11 12  1  0  0  0
 12 13  1  0  0  0
 12 16  1  0  0  0
 13 14  1  0  0  0
 14 15  1  0  0  0
 14 17  1  0  0  0
 14 18  1  0  0  0
 15 16  1  0  0  0
 22 25  1  0  0  0
  1  4  1  0  0  0
M  END
> <minimizedAffinity>
-8.72587

$$$$
1341


 28 31  0  0  0  0  0  0  0  0999 V2000
   23.1708   37.1661   66.9414 C   0  0  0  0  0  0  0  0  0  0  0  0
   23.6204   35.9362   66.5988 N   0  0  0  0  0  0  0  0  0  0  0  0
   23.4270   35.1018   67.6410 C   0  0  0  0  0  0  0  0  0  0  0  0
   22.8556   35.7631   68.6706 N   0  0  0  0  0  0  0  0  0  0  0  0
   22.7017   37.0324   68.2297 C   0  0  0  0  0  0  0  0  0  0  0  0
   23.9109   33.7420   67.2913 C   0  0  0  0  0  0  0  0  0  0  0  0
   24.5142   33.8516   65.9335 C   0  0  0  0  0  0  0  0  0  0  0  0
   24.2344   35.2395   65.4904 C   0  0  0  0  0  0  0  0  0  0  0  0
   23.0353   42.3162   63.7671 Cl  0  0  0  0  0  0  0  0  0  0  0  0
   23.0798   40.8184   64.6880 C   0  0  0  0  0  0  0  0  0  0  0  0
   22.0191   40.4263   65.4753 C   0  0  0  0  0  0  0  0  0  0  0  0
   22.0600   39.2477   66.1982 C   0  0  0  0  0  0  0  0  0  0  0  0
   23.1554   38.4072   66.1690 C   0  0  0  0  0  0  0  0  0  0  0  0
   24.2179   38.7962   65.3806 C   0  0  0  0  0  0  0  0  0  0  0  0
   24.1806   39.9886   64.6479 C   0  0  0  0  0  0  0  0  0  0  0  0
   22.4778   35.2509   69.9719 C   0  0  0  0  0  0  0  0  0  0  0  0
   21.1786   35.8476   70.3941 C   0  0  0  0  0  0  0  0  0  0  0  0
   21.1724   36.5675   71.3944 O   0  0  0  0  0  0  0  0  0  0  0  0
   20.0467   35.5546   69.6311 N   0  0  0  0  0  0  0  0  0  0  0  0
   20.1109   34.9185   68.7674 H   0  0  0  0  0  0  0  0  0  0  0  0
   18.7427   36.0486   69.8955 C   0  0  0  0  0  0  0  0  0  0  0  0
   17.8736   35.2758   70.6766 C   0  0  0  0  0  0  0  0  0  0  0  0
   16.6127   35.7094   70.9332 C   0  0  0  0  0  0  0  0  0  0  0  0
   16.1524   36.9177   70.4364 C   0  0  0  0  0  0  0  0  0  0  0  0
   17.0066   37.6637   69.6752 C   0  0  0  0  0  0  0  0  0  0  0  0
   18.3125   37.2435   69.3929 C   0  0  0  0  0  0  0  0  0  0  0  0
   14.7697   37.3714   70.7309 C   0  0  0  0  0  0  0  0  0  0  0  0
   13.8458   36.8201   69.6405 C   0  0  0  0  0  0  0  0  0  0  0  0
  9 10  1  0  0  0
 10 11  2  0  0  0
 10 15  1  0  0  0
 11 12  1  0  0  0
 12 13  2  0  0  0
 13 14  1  0  0  0
 13  1  1  0  0  0
 14 15  2  0  0  0
  1  2  1  0  0  0
  1  5  2  0  0  0
  2  3  1  0  0  0
  2  8  1  0  0  0
  3  4  2  0  0  0
  3  6  1  0  0  0
  4  5  1  0  0  0
  4 16  1  0  0  0
 16 17  1  0  0  0
 17 18  2  0  0  0
 17 19  1  0  0  0
 19 21  1  0  0  0
 21 22  2  0  0  0
 21 26  1  0  0  0
 22 23  1  0  0  0
 23 24  2  0  0  0
 24 25  1  0  0  0
 24 27  1  0  0  0
 25 26  2  0  0  0
 27 28  1  0  0  0
  6  7  1  0  0  0
  7  8  1  0  0  0
 19 20  1  0  0  0
M  END
> <minimizedAffinity>
-8.79702

$$$$
1343


 41 44  0  0  0  0  0  0  0  0999 V2000
   18.2373   34.3173   70.9475 C   0  0  0  0  0  0  0  0  0  0  0  0
   17.1145   33.5575   71.0252 N   0  0  0  0  0  0  0  0  0  0  0  0
   16.0382   34.3449   70.7685 C   0  0  0  0  0  0  0  0  0  0  0  0
   14.7187   34.1307   70.7109 N   0  0  0  0  0  0  0  0  0  0  0  0
   13.8451   35.1138   70.4267 C   0  0  0  0  0  0  0  0  0  0  0  0
   14.3157   36.3582   70.1921 N   0  0  0  0  0  0  0  0  0  0  0  0
   15.6122   36.6441   70.2324 C   0  0  0  0  0  0  0  0  0  0  0  0
   16.5038   35.6307   70.5237 C   0  0  0  0  0  0  0  0  0  0  0  0
   17.8188   35.5643   70.6421 N   0  0  0  0  0  0  0  0  0  0  0  0
   16.1300   37.9213   69.9935 O   0  0  0  0  0  0  0  0  0  0  0  0
   12.4325   34.8660   70.3689 N   0  0  0  0  0  0  0  0  0  0  0  0
   16.3307   38.1463   69.0264 H   0  0  0  0  0  0  0  0  0  0  0  0
   11.7367   35.3409   70.9533 H   0  0  0  0  0  0  0  0  0  0  0  0
   12.1166   34.1516   69.6796 H   0  0  0  0  0  0  0  0  0  0  0  0
   17.0767   32.1601   71.3277 C   0  0  0  0  0  0  0  0  0  0  0  0
   15.9936   31.4916   70.7741 O   0  0  0  0  0  0  0  0  0  0  0  0
   15.7700   30.3537   71.4947 C   0  0  0  0  0  0  0  0  0  0  0  0
   16.5501   30.3960   72.7638 C   0  0  0  0  0  0  0  0  0  0  0  0
   17.0026   31.8569   72.8099 C   0  0  0  0  0  0  0  0  0  0  0  0
   18.2487   31.9657   73.4260 O   0  0  0  0  0  0  0  0  0  0  0  0
   17.7363   29.6449   72.6339 O   0  0  0  0  0  0  0  0  0  0  0  0
   18.2376   32.7082   74.0840 H   0  0  0  0  0  0  0  0  0  0  0  0
   18.0543   29.3222   73.5042 H   0  0  0  0  0  0  0  0  0  0  0  0
   14.2856   30.3035   71.8619 C   0  0  0  0  0  0  0  0  0  0  0  0
   13.5712   31.2245   71.0877 O   0  0  0  0  0  0  0  0  0  0  0  0
   14.1807   31.8443   70.6108 H   0  0  0  0  0  0  0  0  0  0  0  0
   19.5715   33.8688   71.1499 N   0  0  0  0  0  0  0  0  0  0  0  0
   19.8742   33.5876   72.0954 H   0  0  0  0  0  0  0  0  0  0  0  0
   21.0043   34.8517   69.5497 C   0  0  0  0  0  0  0  0  0  0  0  0
   20.4222   33.8303   70.0281 N   0  0  0  0  0  0  0  0  0  0  0  0
   20.4310   37.1300   67.5738 Br  0  0  0  0  0  0  0  0  0  0  0  0
   21.7737   35.7952   67.4008 C   0  0  0  0  0  0  0  0  0  0  0  0
   21.8895   34.8429   68.3904 C   0  0  0  0  0  0  0  0  0  0  0  0
   22.8762   33.8951   68.2229 C   0  0  0  0  0  0  0  0  0  0  0  0
   23.7147   33.8828   67.1281 C   0  0  0  0  0  0  0  0  0  0  0  0
   23.5992   34.8360   66.1382 C   0  0  0  0  0  0  0  0  0  0  0  0
   22.6181   35.7929   66.2873 C   0  0  0  0  0  0  0  0  0  0  0  0
   24.7087   32.9225   66.9670 O   0  0  0  0  0  0  0  0  0  0  0  0
   25.9456   32.9492   67.6058 C   0  0  0  0  0  0  0  0  0  0  0  0
   24.4509   34.8184   65.0329 O   0  0  0  0  0  0  0  0  0  0  0  0
   25.2306   35.9099   64.6472 C   0  0  0  0  0  0  0  0  0  0  0  0
 31 32  1  0  0  0
 32 33  2  0  0  0
 32 37  1  0  0  0
 33 34  1  0  0  0
 33 29  1  0  0  0
 34 35  2  0  0  0
 35 36  1  0  0  0
 35 38  1  0  0  0
 36 37  2  0  0  0
 36 40  1  0  0  0
 40 41  1  0  0  0
 38 39  1  0  0  0
 29 30  2  0  0  0
 30 27  1  0  0  0
 27  1  1  0  0  0
  1  2  1  0  0  0
  1  9  2  0  0  0
  2  3  1  0  0  0
  2 15  1  0  0  0
  3  4  2  0  0  0
  3  8  1  0  0  0
  4  5  1  0  0  0
  5  6  2  0  0  0
  5 11  1  0  0  0
  6  7  1  0  0  0
  7  8  2  0  0  0
  7 10  1  0  0  0
  8  9  1  0  0  0
 15 16  1  0  0  0
 15 19  1  0  0  0
 16 17  1  0  0  0
 17 18  1  0  0  0
 17 24  1  0  0  0
 18 19  1  0  0  0
 18 21  1  0  0  0
 19 20  1  0  0  0
 24 25  1  0  0  0
 27 28  1  0  0  0
 10 12  1  0  0  0
 11 13  1  0  0  0
 11 14  1  0  0  0
 20 22  1  0  0  0
 21 23  1  0  0  0
 25 26  1  0  0  0
M  END
> <minimizedAffinity>
-9.15266

$$$$
1355


 27 30  0  0  0  0  0  0  0  0999 V2000
   20.7196   35.2820   71.2721 N   0  0  0  0  0  0  0  0  0  0  0  0
   21.0521   35.2075   69.9081 C   0  0  0  0  0  0  0  0  0  0  0  0
   20.8896   34.1307   69.2930 O   0  0  0  0  0  0  0  0  0  0  0  0
   20.8564   36.1794   71.7782 H   0  0  0  0  0  0  0  0  0  0  0  0
   21.5882   36.3839   69.2069 C   0  0  0  0  0  0  0  0  0  0  0  0
   22.9257   36.0971   68.5502 C   0  0  0  0  0  0  0  0  0  0  0  0
   23.3642   37.2334   67.6884 C   0  0  0  0  0  0  0  0  0  0  0  0
   22.9469   37.1391   66.2572 C   0  0  0  0  0  0  0  0  0  0  0  0
   21.6489   36.3564   66.0839 C   0  0  0  0  0  0  0  0  0  0  0  0
   20.6551   36.9783   66.9282 N   0  0  0  0  0  0  0  0  0  0  0  0
   19.6207   37.6302   66.4684 N   0  0  0  0  0  0  0  0  0  0  0  0
   18.9170   38.0698   67.4820 N   0  0  0  0  0  0  0  0  0  0  0  0
   19.5262   37.6831   68.5861 N   0  0  0  0  0  0  0  0  0  0  0  0
   20.6323   36.9886   68.2673 C   0  0  0  0  0  0  0  0  0  0  0  0
   20.1904   34.1333   71.9843 C   0  0  0  0  0  0  0  0  0  0  0  0
   16.5736   34.5150   71.5231 C   0  0  0  0  0  0  0  0  0  0  0  0
   16.6738   34.2156   72.8286 N   0  0  0  0  0  0  0  0  0  0  0  0
   17.9412   34.0475   73.1421 O   0  0  0  0  0  0  0  0  0  0  0  0
   18.6892   34.2269   72.0831 C   0  0  0  0  0  0  0  0  0  0  0  0
   17.8407   34.5187   71.0728 N   0  0  0  0  0  0  0  0  0  0  0  0
   16.1225   37.3471   70.6766 Cl  0  0  0  0  0  0  0  0  0  0  0  0
   15.0264   36.0374   70.3099 C   0  0  0  0  0  0  0  0  0  0  0  0
   15.3568   34.7778   70.7623 C   0  0  0  0  0  0  0  0  0  0  0  0
   14.4739   33.7698   70.4567 C   0  0  0  0  0  0  0  0  0  0  0  0
   13.3182   33.9842   69.7407 C   0  0  0  0  0  0  0  0  0  0  0  0
   12.9997   35.2716   69.2910 C   0  0  0  0  0  0  0  0  0  0  0  0
   13.8673   36.2933   69.5841 C   0  0  0  0  0  0  0  0  0  0  0  0
 21 22  1  0  0  0
 22 23  2  0  0  0
 22 27  1  0  0  0
 23 24  1  0  0  0
 23 16  1  0  0  0
 24 25  2  0  0  0
 25 26  1  0  0  0
 26 27  2  0  0  0
 16 17  2  0  0  0
 16 20  1  0  0  0
 17 18  1  0  0  0
 18 19  1  0  0  0
 19 20  2  0  0  0
 19 15  1  0  0  0
 15  1  1  0  0  0
  1  2  1  0  0  0
  2  3  2  0  0  0
  2  5  1  0  0  0
  5  6  1  0  0  0
  5 14  1  0  0  0
  6  7  1  0  0  0
  7  8  1  0  0  0
  8  9  1  0  0  0
  9 10  1  0  0  0
 10 11  1  0  0  0
 10 14  1  0  0  0
 11 12  2  0  0  0
 12 13  1  0  0  0
 13 14  2  0  0  0
  1  4  1  0  0  0
M  END
> <minimizedAffinity>
-9.16799

$$$$
1357


 24 27  0  0  0  0  0  0  0  0999 V2000
   23.5486   35.4197   66.4607 C   0  0  0  0  0  0  0  0  0  0  0  0
   24.3171   36.2578   65.6510 C   0  0  0  0  0  0  0  0  0  0  0  0
   25.1591   37.4739   65.8165 C   0  0  0  0  0  0  0  0  0  0  0  0
   26.4305   36.7161   65.9316 N   0  0  0  0  0  0  0  0  0  0  0  0
   26.1982   35.6587   66.6444 C   0  0  0  0  0  0  0  0  0  0  0  0
   24.8182   35.6921   67.0153 C   0  0  0  0  0  0  0  0  0  0  0  0
   27.1683   34.6446   66.9895 N   0  0  0  0  0  0  0  0  0  0  0  0
   25.1540   38.1742   64.6051 O   0  0  0  0  0  0  0  0  0  0  0  0
   24.8443   39.4880   64.8988 C   0  0  0  0  0  0  0  0  0  0  0  0
   25.2921   39.6106   66.3455 C   0  0  0  0  0  0  0  0  0  0  0  0
   24.9037   38.3297   66.8109 O   0  0  0  0  0  0  0  0  0  0  0  0
   28.1565   34.8927   67.1865 H   0  0  0  0  0  0  0  0  0  0  0  0
   26.8933   33.6465   67.0468 H   0  0  0  0  0  0  0  0  0  0  0  0
   22.3623   33.8899   68.9946 Br  0  0  0  0  0  0  0  0  0  0  0  0
   21.6642   35.4286   68.1066 C   0  0  0  0  0  0  0  0  0  0  0  0
   22.2939   35.9845   67.0218 C   0  0  0  0  0  0  0  0  0  0  0  0
   21.7654   37.0972   66.4117 C   0  0  0  0  0  0  0  0  0  0  0  0
   20.5929   37.6856   66.8659 C   0  0  0  0  0  0  0  0  0  0  0  0
   19.9459   37.1455   67.9512 C   0  0  0  0  0  0  0  0  0  0  0  0
   20.4914   36.0128   68.5657 C   0  0  0  0  0  0  0  0  0  0  0  0
   24.6974   36.5805   68.2102 C   0  0  0  0  0  0  0  0  0  0  0  0
   24.6061   37.2629   69.1727 N   0  0  0  0  0  0  0  0  0  0  0  0
   24.8535   35.5448   64.4369 C   0  0  0  0  0  0  0  0  0  0  0  0
   25.2547   34.9886   63.4750 N   0  0  0  0  0  0  0  0  0  0  0  0
 14 15  1  0  0  0
 15 16  2  0  0  0
 15 20  1  0  0  0
 16 17  1  0  0  0
 16  1  1  0  0  0
 17 18  2  0  0  0
 18 19  1  0  0  0
 19 20  2  0  0  0
  1  2  1  0  0  0
  1  6  1  0  0  0
  2  3  1  0  0  0
  2  6  1  0  0  0
  2 23  1  0  0  0
  3  4  1  0  0  0
  3  8  1  0  0  0
  3 11  1  0  0  0
  4  5  2  0  0  0
  5  6  1  0  0  0
  5  7  1  0  0  0
  6 21  1  0  0  0
 21 22  3  0  0  0
  8  9  1  0  0  0
  9 10  1  0  0  0
 10 11  1  0  0  0
 23 24  3  0  0  0
  7 12  1  0  0  0
  7 13  1  0  0  0
M  END
> <minimizedAffinity>
-6.29005

$$$$
1360


 34 37  0  0  0  0  0  0  0  0999 V2000
   19.9611   32.5055   71.7451 C   0  0  0  0  0  0  0  0  0  0  0  0
   21.0949   32.6299   70.8662 N   0  0  0  0  0  0  0  0  0  0  0  0
   20.5308   33.4618   69.7786 C   0  0  0  0  0  0  0  0  0  0  0  0
   21.6054   33.7993   68.9277 N   0  0  0  0  0  0  0  0  0  0  0  0
   22.7631   33.0954   69.3873 C   0  0  0  0  0  0  0  0  0  0  0  0
   22.4302   32.4001   70.5516 C   0  0  0  0  0  0  0  0  0  0  0  0
   23.4019   31.6435   71.1722 C   0  0  0  0  0  0  0  0  0  0  0  0
   23.0783   31.0260   72.2192 O   0  0  0  0  0  0  0  0  0  0  0  0
   24.6332   31.5909   70.6510 N   0  0  0  0  0  0  0  0  0  0  0  0
   24.9203   32.2598   69.5471 C   0  0  0  0  0  0  0  0  0  0  0  0
   26.0926   32.1833   69.0886 O   0  0  0  0  0  0  0  0  0  0  0  0
   23.9998   33.0272   68.8863 N   0  0  0  0  0  0  0  0  0  0  0  0
   24.4410   33.7058   67.6887 C   0  0  0  0  0  0  0  0  0  0  0  0
   25.6359   30.7743   71.3433 C   0  0  0  0  0  0  0  0  0  0  0  0
   21.5926   34.6584   67.7717 C   0  0  0  0  0  0  0  0  0  0  0  0
   19.7473   34.4949   70.4722 C   0  0  0  0  0  0  0  0  0  0  0  0
   19.6569   34.0016   71.9230 C   0  0  0  0  0  0  0  0  0  0  0  0
   18.8389   31.8647   71.0988 C   0  0  0  0  0  0  0  0  0  0  0  0
   18.9958   31.7038   69.8155 O   0  0  0  0  0  0  0  0  0  0  0  0
   13.6314   29.8267   73.6064 Br  0  0  0  0  0  0  0  0  0  0  0  0
   15.2459   30.4550   72.8128 C   0  0  0  0  0  0  0  0  0  0  0  0
   15.2359   31.0550   71.5626 C   0  0  0  0  0  0  0  0  0  0  0  0
   16.3875   31.5144   70.9731 C   0  0  0  0  0  0  0  0  0  0  0  0
   17.5857   31.3800   71.6335 C   0  0  0  0  0  0  0  0  0  0  0  0
   17.6144   30.7779   72.8939 C   0  0  0  0  0  0  0  0  0  0  0  0
   16.4549   30.3225   73.4721 C   0  0  0  0  0  0  0  0  0  0  0  0
   18.3423   34.2551   72.5038 C   0  0  0  0  0  0  0  0  0  0  0  0
   18.1231   33.9759   73.7292 O   0  0  0  0  0  0  0  0  0  0  0  0
   17.3154   34.7902   71.7739 O   0  0  0  0  0  0  0  0  0  0  0  0
   15.9423   34.6634   72.1508 C   0  0  0  0  0  0  0  0  0  0  0  0
   20.1956   35.8798   70.4148 C   0  0  0  0  0  0  0  0  0  0  0  0
   21.0829   36.2856   71.2103 O   0  0  0  0  0  0  0  0  0  0  0  0
   19.6765   36.7760   69.5059 O   0  0  0  0  0  0  0  0  0  0  0  0
   18.3418   37.2244   69.5940 C   0  0  0  0  0  0  0  0  0  0  0  0
 20 21  1  0  0  0
 21 22  2  0  0  0
 21 26  1  0  0  0
 22 23  1  0  0  0
 23 24  2  0  0  0
 24 25  1  0  0  0
 24 18  1  0  0  0
 25 26  2  0  0  0
 18 19  2  0  0  0
 18  1  1  0  0  0
  1  2  1  0  0  0
  1 17  1  0  0  0
  2  3  1  0  0  0
  2  6  1  0  0  0
  3  4  1  0  0  0
  3 16  1  0  0  0
  4  5  1  0  0  0
  4 15  1  0  0  0
  5  6  2  0  0  0
  5 12  1  0  0  0
  6  7  1  0  0  0
  7  8  2  0  0  0
  7  9  1  0  0  0
  9 10  1  0  0  0
  9 14  1  0  0  0
 10 11  2  0  0  0
 10 12  1  0  0  0
 12 13  1  0  0  0
 16 17  1  0  0  0
 16 31  1  0  0  0
 17 27  1  0  0  0
 27 28  2  0  0  0
 27 29  1  0  0  0
 29 30  1  0  0  0
 31 32  2  0  0  0
 31 33  1  0  0  0
 33 34  1  0  0  0
M  END
> <minimizedAffinity>
-7.33377

$$$$
1372


 31 34  0  0  0  0  0  0  0  0999 V2000
   22.3677   35.2583   67.9303 C   0  0  0  0  0  0  0  0  0  0  0  0
   21.7698   34.1941   67.6689 O   0  0  0  0  0  0  0  0  0  0  0  0
   23.6738   35.2255   68.4313 N   0  0  0  0  0  0  0  0  0  0  0  0
   24.6463   34.1856   68.4176 C   0  0  0  0  0  0  0  0  0  0  0  0
   25.9916   34.9259   68.3606 C   0  0  0  0  0  0  0  0  0  0  0  0
   25.8795   36.2493   67.6445 C   0  0  0  0  0  0  0  0  0  0  0  0
   27.1437   36.9326   67.6071 N   0  0  0  0  0  0  0  0  0  0  0  0
   26.9219   38.2435   66.9808 C   0  0  0  0  0  0  0  0  0  0  0  0
   26.5545   38.1149   65.5354 C   0  0  0  0  0  0  0  0  0  0  0  0
   25.7699   36.8924   65.2500 C   0  0  0  0  0  0  0  0  0  0  0  0
   25.2572   36.4417   64.1010 N   0  0  0  0  0  0  0  0  0  0  0  0
   24.6171   35.2804   64.3436 C   0  0  0  0  0  0  0  0  0  0  0  0
   24.7410   35.0236   65.6529 N   0  0  0  0  0  0  0  0  0  0  0  0
   25.4457   35.9851   66.2677 C   0  0  0  0  0  0  0  0  0  0  0  0
   24.9364   37.2278   68.3632 C   0  0  0  0  0  0  0  0  0  0  0  0
   24.1395   36.3846   69.2639 C   0  0  0  0  0  0  0  0  0  0  0  0
   27.4546   37.1390   68.5862 H   0  0  0  0  0  0  0  0  0  0  0  0
   25.2986   36.8513   63.1418 H   0  0  0  0  0  0  0  0  0  0  0  0
   21.6449   36.5423   67.6760 C   0  0  0  0  0  0  0  0  0  0  0  0
   21.5734   36.7063   66.1353 C   0  0  0  0  0  0  0  0  0  0  0  0
   19.9077   36.9219   69.4260 C   0  0  0  0  0  0  0  0  0  0  0  0
   20.7614   37.3235   70.2264 O   0  0  0  0  0  0  0  0  0  0  0  0
   20.2586   36.5210   68.0744 N   0  0  0  0  0  0  0  0  0  0  0  0
   19.5348   36.2350   67.4179 H   0  0  0  0  0  0  0  0  0  0  0  0
   16.3649   33.9855   72.0860 Br  0  0  0  0  0  0  0  0  0  0  0  0
   16.7971   35.4995   70.9694 C   0  0  0  0  0  0  0  0  0  0  0  0
   18.0960   35.7221   70.5856 C   0  0  0  0  0  0  0  0  0  0  0  0
   18.4831   36.8065   69.7809 C   0  0  0  0  0  0  0  0  0  0  0  0
   17.5115   37.6653   69.3653 C   0  0  0  0  0  0  0  0  0  0  0  0
   16.1915   37.4511   69.7483 C   0  0  0  0  0  0  0  0  0  0  0  0
   15.8283   36.3783   70.5454 C   0  0  0  0  0  0  0  0  0  0  0  0
 25 26  1  0  0  0
 26 27  2  0  0  0
 26 31  1  0  0  0
 27 28  1  0  0  0
 28 29  2  0  0  0
 28 21  1  0  0  0
 29 30  1  0  0  0
 30 31  2  0  0  0
 21 22  2  0  0  0
 21 23  1  0  0  0
 23 19  1  0  0  0
 19 20  1  0  0  0
 19  1  1  0  0  0
  1  2  2  0  0  0
  1  3  1  0  0  0
  3  4  1  0  0  0
  3 16  1  0  0  0
  4  5  1  0  0  0
  5  6  1  0  0  0
  6  7  1  0  0  0
  6 14  1  0  0  0
  6 15  1  0  0  0
  7  8  1  0  0  0
  8  9  1  0  0  0
  9 10  1  0  0  0
 10 11  1  0  0  0
 10 14  2  0  0  0
 11 12  1  0  0  0
 12 13  2  0  0  0
 13 14  1  0  0  0
 15 16  1  0  0  0
 23 24  1  0  0  0
  7 17  1  0  0  0
 11 18  1  0  0  0
M  END
> <minimizedAffinity>
-8.11115

$$$$
1381


 31 34  0  0  0  0  0  0  0  0999 V2000
   17.9959   33.9899   72.3105 C   0  0  0  0  0  0  0  0  0  0  0  0
   18.4945   34.2605   73.3953 O   0  0  0  0  0  0  0  0  0  0  0  0
   16.6061   33.7915   71.9472 C   0  0  0  0  0  0  0  0  0  0  0  0
   15.9663   32.6262   72.2638 N   0  0  0  0  0  0  0  0  0  0  0  0
   14.7008   32.4210   71.9445 N   0  0  0  0  0  0  0  0  0  0  0  0
   13.9829   33.3506   71.2917 C   0  0  0  0  0  0  0  0  0  0  0  0
   12.7610   33.1406   70.9877 O   0  0  0  0  0  0  0  0  0  0  0  0
   14.5528   34.5500   70.9357 C   0  0  0  0  0  0  0  0  0  0  0  0
   15.8918   34.7417   71.2858 C   0  0  0  0  0  0  0  0  0  0  0  0
   16.4194   35.9534   70.9121 C   0  0  0  0  0  0  0  0  0  0  0  0
   15.6677   36.9090   70.2365 C   0  0  0  0  0  0  0  0  0  0  0  0
   14.3513   36.6867   69.9069 C   0  0  0  0  0  0  0  0  0  0  0  0
   13.8021   35.4830   70.2707 C   0  0  0  0  0  0  0  0  0  0  0  0
   14.0339   31.1814   72.2853 C   0  0  0  0  0  0  0  0  0  0  0  0
   14.9639   29.9974   72.2449 C   0  0  0  0  0  0  0  0  0  0  0  0
   15.7716   29.9909   71.1227 O   0  0  0  0  0  0  0  0  0  0  0  0
   15.6429   30.8515   70.6587 H   0  0  0  0  0  0  0  0  0  0  0  0
   18.9900   33.8677   71.3015 O   0  0  0  0  0  0  0  0  0  0  0  0
   20.2701   34.3645   71.5833 C   0  0  0  0  0  0  0  0  0  0  0  0
   23.6932   38.8635   65.5216 Br  0  0  0  0  0  0  0  0  0  0  0  0
   23.1506   37.7065   66.9603 C   0  0  0  0  0  0  0  0  0  0  0  0
   21.8446   37.7150   67.4159 C   0  0  0  0  0  0  0  0  0  0  0  0
   21.4467   36.9061   68.4287 N   0  0  0  0  0  0  0  0  0  0  0  0
   22.3104   36.0720   69.0176 C   0  0  0  0  0  0  0  0  0  0  0  0
   21.9110   35.2728   70.0205 N   0  0  0  0  0  0  0  0  0  0  0  0
   20.6477   35.2667   70.4774 C   0  0  0  0  0  0  0  0  0  0  0  0
   19.7600   36.1220   69.8739 C   0  0  0  0  0  0  0  0  0  0  0  0
   20.1590   36.9635   68.8253 C   0  0  0  0  0  0  0  0  0  0  0  0
   19.3210   37.7345   68.2949 O   0  0  0  0  0  0  0  0  0  0  0  0
   23.6076   36.0495   68.5801 C   0  0  0  0  0  0  0  0  0  0  0  0
   24.0514   36.8568   67.5533 C   0  0  0  0  0  0  0  0  0  0  0  0
 20 21  1  0  0  0
 21 22  2  0  0  0
 21 31  1  0  0  0
 22 23  1  0  0  0
 23 24  1  0  0  0
 23 28  1  0  0  0
 24 25  2  0  0  0
 24 30  1  0  0  0
 25 26  1  0  0  0
 26 27  2  0  0  0
 26 19  1  0  0  0
 27 28  1  0  0  0
 28 29  2  0  0  0
 19 18  1  0  0  0
 18  1  1  0  0  0
  1  2  2  0  0  0
  1  3  1  0  0  0
  3  4  2  0  0  0
  3  9  1  0  0  0
  4  5  1  0  0  0
  5  6  1  0  0  0
  5 14  1  0  0  0
  6  7  2  0  0  0
  6  8  1  0  0  0
  8  9  2  0  0  0
  8 13  1  0  0  0
  9 10  1  0  0  0
 10 11  2  0  0  0
 11 12  1  0  0  0
 12 13  2  0  0  0
 14 15  1  0  0  0
 15 16  1  0  0  0
 30 31  2  0  0  0
 16 17  1  0  0  0
M  END
> <minimizedAffinity>
-9.18582

$$$$
1386


 33 36  0  0  0  0  0  0  0  0999 V2000
   19.6176   37.0615   69.0765 C   0  0  0  0  0  0  0  0  0  0  0  0
   19.2354   37.7933   68.1354 O   0  0  0  0  0  0  0  0  0  0  0  0
   21.0245   36.7600   69.1970 N   0  0  0  0  0  0  0  0  0  0  0  0
   21.9385   37.3105   68.2337 C   0  0  0  0  0  0  0  0  0  0  0  0
   22.4770   36.1550   67.4157 C   0  0  0  0  0  0  0  0  0  0  0  0
   22.5933   34.8866   68.1809 C   0  0  0  0  0  0  0  0  0  0  0  0
   22.6236   35.0278   69.6585 C   0  0  0  0  0  0  0  0  0  0  0  0
   21.5835   35.9339   70.2311 C   0  0  0  0  0  0  0  0  0  0  0  0
   21.5893   33.9608   67.8558 O   0  0  0  0  0  0  0  0  0  0  0  0
   23.9086   34.2188   67.7576 C   0  0  0  0  0  0  0  0  0  0  0  0
   20.8021   34.4758   67.4946 H   0  0  0  0  0  0  0  0  0  0  0  0
   23.7147   36.5822   66.8098 N   0  0  0  0  0  0  0  0  0  0  0  0
   24.6268   37.2594   67.5343 C   0  0  0  0  0  0  0  0  0  0  0  0
   25.8204   37.6863   66.9970 C   0  0  0  0  0  0  0  0  0  0  0  0
   26.0810   37.4064   65.6755 C   0  0  0  0  0  0  0  0  0  0  0  0
   27.1682   37.7743   65.1191 O   0  0  0  0  0  0  0  0  0  0  0  0
   25.1543   36.7311   64.9782 N   0  0  0  0  0  0  0  0  0  0  0  0
   24.0050   36.3283   65.5223 C   0  0  0  0  0  0  0  0  0  0  0  0
   23.1649   35.6946   64.8210 O   0  0  0  0  0  0  0  0  0  0  0  0
   25.3148   36.4943   63.9535 H   0  0  0  0  0  0  0  0  0  0  0  0
   18.6900   36.4958   70.0624 C   0  0  0  0  0  0  0  0  0  0  0  0
   17.2598   36.8002   69.9190 C   0  0  0  0  0  0  0  0  0  0  0  0
   13.8390   30.6342   72.9258 Cl  0  0  0  0  0  0  0  0  0  0  0  0
   14.0632   32.2126   72.1552 C   0  0  0  0  0  0  0  0  0  0  0  0
   15.3384   32.6870   71.9556 C   0  0  0  0  0  0  0  0  0  0  0  0
   15.5563   33.9173   71.3566 C   0  0  0  0  0  0  0  0  0  0  0  0
   16.6604   34.6118   71.0447 N   0  0  0  0  0  0  0  0  0  0  0  0
   16.2969   35.8019   70.4503 C   0  0  0  0  0  0  0  0  0  0  0  0
   14.9690   35.7880   70.4193 N   0  0  0  0  0  0  0  0  0  0  0  0
   14.4574   34.6474   70.9674 C   0  0  0  0  0  0  0  0  0  0  0  0
   13.1747   34.1807   71.1637 C   0  0  0  0  0  0  0  0  0  0  0  0
   12.9707   32.9593   71.7591 C   0  0  0  0  0  0  0  0  0  0  0  0
   14.0873   36.7916   69.8499 C   0  0  0  0  0  0  0  0  0  0  0  0
 23 24  1  0  0  0
 24 25  2  0  0  0
 24 32  1  0  0  0
 25 26  1  0  0  0
 26 27  1  0  0  0
 26 30  2  0  0  0
 27 28  2  0  0  0
 28 29  1  0  0  0
 28 22  1  0  0  0
 29 30  1  0  0  0
 29 33  1  0  0  0
 30 31  1  0  0  0
 31 32  2  0  0  0
 22 21  1  0  0  0
 21  1  1  0  0  0
  1  2  2  0  0  0
  1  3  1  0  0  0
  3  4  1  0  0  0
  3  8  1  0  0  0
  4  5  1  0  0  0
  5  6  1  0  0  0
  5 12  1  0  0  0
  6  7  1  0  0  0
  6  9  1  0  0  0
  6 10  1  0  0  0
  7  8  1  0  0  0
 12 13  1  0  0  0
 12 18  1  0  0  0
 13 14  2  0  0  0
 14 15  1  0  0  0
 15 16  2  0  0  0
 15 17  1  0  0  0
 17 18  1  0  0  0
 18 19  2  0  0  0
  9 11  1  0  0  0
 17 20  1  0  0  0
M  END
> <minimizedAffinity>
-9.61375

$$$$
1388


 30 33  0  0  0  0  0  0  0  0999 V2000
   19.9095   36.8093   69.9031 C   0  0  0  0  0  0  0  0  0  0  0  0
   19.9289   36.2850   71.0438 O   0  0  0  0  0  0  0  0  0  0  0  0
   21.0873   36.8387   69.1402 N   0  0  0  0  0  0  0  0  0  0  0  0
   21.1429   37.4233   67.8233 C   0  0  0  0  0  0  0  0  0  0  0  0
   21.4570   36.3009   66.8581 C   0  0  0  0  0  0  0  0  0  0  0  0
   22.6604   35.5309   67.3473 C   0  0  0  0  0  0  0  0  0  0  0  0
   22.2404   34.1737   67.6246 N   0  0  0  0  0  0  0  0  0  0  0  0
   23.2895   33.2822   67.9773 C   0  0  0  0  0  0  0  0  0  0  0  0
   24.5710   33.4188   67.2401 C   0  0  0  0  0  0  0  0  0  0  0  0
   24.5526   34.4163   66.1498 C   0  0  0  0  0  0  0  0  0  0  0  0
   25.3067   34.5606   65.0171 N   0  0  0  0  0  0  0  0  0  0  0  0
   24.8524   35.6529   64.3910 C   0  0  0  0  0  0  0  0  0  0  0  0
   23.8438   36.1825   65.1023 N   0  0  0  0  0  0  0  0  0  0  0  0
   23.6275   35.4339   66.2129 C   0  0  0  0  0  0  0  0  0  0  0  0
   23.3342   36.1295   68.5397 C   0  0  0  0  0  0  0  0  0  0  0  0
   22.3036   36.2726   69.6640 C   0  0  0  0  0  0  0  0  0  0  0  0
   21.5514   34.1988   68.4217 H   0  0  0  0  0  0  0  0  0  0  0  0
   26.0921   33.9044   64.7342 H   0  0  0  0  0  0  0  0  0  0  0  0
   18.6122   37.3693   69.4405 C   0  0  0  0  0  0  0  0  0  0  0  0
   16.3026   36.7473   70.1737 C   0  0  0  0  0  0  0  0  0  0  0  0
   16.1636   37.9258   70.5905 O   0  0  0  0  0  0  0  0  0  0  0  0
   17.5378   36.4092   69.5755 N   0  0  0  0  0  0  0  0  0  0  0  0
   17.6763   35.4415   69.2237 H   0  0  0  0  0  0  0  0  0  0  0  0
   14.5418   32.0636   72.0006 Br  0  0  0  0  0  0  0  0  0  0  0  0
   14.2759   33.7061   71.0962 C   0  0  0  0  0  0  0  0  0  0  0  0
   15.3355   34.5863   70.9697 C   0  0  0  0  0  0  0  0  0  0  0  0
   15.2066   35.8008   70.3222 C   0  0  0  0  0  0  0  0  0  0  0  0
   13.9663   36.1228   69.7900 C   0  0  0  0  0  0  0  0  0  0  0  0
   12.9175   35.2434   69.9195 C   0  0  0  0  0  0  0  0  0  0  0  0
   13.0280   34.0300   70.5614 C   0  0  0  0  0  0  0  0  0  0  0  0
 24 25  1  0  0  0
 25 26  2  0  0  0
 25 30  1  0  0  0
 26 27  1  0  0  0
 27 28  2  0  0  0
 27 20  1  0  0  0
 28 29  1  0  0  0
 29 30  2  0  0  0
 20 21  2  0  0  0
 20 22  1  0  0  0
 22 19  1  0  0  0
 19  1  1  0  0  0
  1  2  2  0  0  0
  1  3  1  0  0  0
  3  4  1  0  0  0
  3 16  1  0  0  0
  4  5  1  0  0  0
  5  6  1  0  0  0
  6  7  1  0  0  0
  6 14  1  0  0  0
  6 15  1  0  0  0
  7  8  1  0  0  0
  8  9  1  0  0  0
  9 10  1  0  0  0
 10 11  1  0  0  0
 10 14  2  0  0  0
 11 12  1  0  0  0
 12 13  2  0  0  0
 13 14  1  0  0  0
 15 16  1  0  0  0
 22 23  1  0  0  0
  7 17  1  0  0  0
 11 18  1  0  0  0
M  END
> <minimizedAffinity>
-9.45963

$$$$
1404


 26 29  0  0  0  0  0  0  0  0999 V2000
   13.0456   28.9863   76.6075 Br  0  0  0  0  0  0  0  0  0  0  0  0
   14.0168   29.2436   74.9859 C   0  0  0  0  0  0  0  0  0  0  0  0
   13.9340   30.4297   74.2814 C   0  0  0  0  0  0  0  0  0  0  0  0
   14.6157   30.6636   73.1060 C   0  0  0  0  0  0  0  0  0  0  0  0
   15.4181   29.6143   72.6485 C   0  0  0  0  0  0  0  0  0  0  0  0
   15.5004   28.4358   73.3487 C   0  0  0  0  0  0  0  0  0  0  0  0
   14.8123   28.2162   74.5240 C   0  0  0  0  0  0  0  0  0  0  0  0
   14.9390   26.9164   75.2427 C   0  0  0  0  0  0  0  0  0  0  0  0
   16.0897   29.8867   71.4649 O   0  0  0  0  0  0  0  0  0  0  0  0
   15.8394   31.0119   70.6439 C   0  0  0  0  0  0  0  0  0  0  0  0
   15.6731   32.2990   71.5184 C   0  0  0  0  0  0  0  0  0  0  0  0
   14.5128   31.9071   72.3551 C   0  0  0  0  0  0  0  0  0  0  0  0
   13.4421   32.5246   72.4913 O   0  0  0  0  0  0  0  0  0  0  0  0
   15.5556   33.4425   70.7911 N   0  0  0  0  0  0  0  0  0  0  0  0
   15.6264   34.7318   71.3327 C   0  0  0  0  0  0  0  0  0  0  0  0
   14.2349   35.3070   71.4878 C   0  0  0  0  0  0  0  0  0  0  0  0
   13.7465   35.4739   70.1702 O   0  0  0  0  0  0  0  0  0  0  0  0
   13.4835   34.1640   69.7328 C   0  0  0  0  0  0  0  0  0  0  0  0
   14.8228   33.4346   69.6032 C   0  0  0  0  0  0  0  0  0  0  0  0
   16.9108   32.3034   72.3424 C   0  0  0  0  0  0  0  0  0  0  0  0
   18.1740   32.2682   71.6740 N   0  0  0  0  0  0  0  0  0  0  0  0
   18.8679   33.4838   71.4750 C   0  0  0  0  0  0  0  0  0  0  0  0
   19.5212   33.9534   72.7834 C   0  0  0  0  0  0  0  0  0  0  0  0
   20.5033   33.0005   73.0732 O   0  0  0  0  0  0  0  0  0  0  0  0
   19.8328   31.8269   73.4370 C   0  0  0  0  0  0  0  0  0  0  0  0
   19.0174   31.2586   72.3165 C   0  0  0  0  0  0  0  0  0  0  0  0
  1  2  1  0  0  0
  2  3  2  0  0  0
  2  7  1  0  0  0
  3  4  1  0  0  0
  4  5  2  0  0  0
  4 12  1  0  0  0
  5  6  1  0  0  0
  5  9  1  0  0  0
  6  7  2  0  0  0
  7  8  1  0  0  0
  9 10  1  0  0  0
 10 11  1  0  0  0
 11 12  1  0  0  0
 11 14  1  0  0  0
 11 20  1  0  0  0
 12 13  2  0  0  0
 14 15  1  0  0  0
 14 19  1  0  0  0
 15 16  1  0  0  0
 16 17  1  0  0  0
 17 18  1  0  0  0
 18 19  1  0  0  0
 20 21  1  0  0  0
 21 22  1  0  0  0
 21 26  1  0  0  0
 22 23  1  0  0  0
 23 24  1  0  0  0
 24 25  1  0  0  0
 25 26  1  0  0  0
M  END
> <minimizedAffinity>
-6.60286

$$$$
1405


 27 30  0  0  0  0  0  0  0  0999 V2000
   13.4913   30.8230   73.7545 Br  0  0  0  0  0  0  0  0  0  0  0  0
   12.7136   29.7294   75.1377 C   0  0  0  0  0  0  0  0  0  0  0  0
   11.4089   29.8963   75.5207 C   0  0  0  0  0  0  0  0  0  0  0  0
   10.8740   29.1012   76.5124 C   0  0  0  0  0  0  0  0  0  0  0  0
   11.6889   28.1606   77.0818 C   0  0  0  0  0  0  0  0  0  0  0  0
   13.0311   27.9899   76.6863 C   0  0  0  0  0  0  0  0  0  0  0  0
   13.5457   28.7880   75.6996 C   0  0  0  0  0  0  0  0  0  0  0  0
   10.9971   27.4222   78.0843 N   0  0  0  0  0  0  0  0  0  0  0  0
    9.6879   27.9146   78.1552 C   0  0  0  0  0  0  0  0  0  0  0  0
    8.7889   27.4886   78.9431 O   0  0  0  0  0  0  0  0  0  0  0  0
    9.5356   29.0226   77.1476 C   0  0  0  0  0  0  0  0  0  0  0  0
    8.4905   28.5859   76.2289 C   0  0  0  0  0  0  0  0  0  0  0  0
    7.3174   29.2657   76.1198 C   0  0  0  0  0  0  0  0  0  0  0  0
    6.5694   28.6052   75.1874 N   0  0  0  0  0  0  0  0  0  0  0  0
    7.2300   27.5625   74.7296 N   0  0  0  0  0  0  0  0  0  0  0  0
    8.4122   27.5106   75.3393 C   0  0  0  0  0  0  0  0  0  0  0  0
    9.5216   26.5207   75.1699 C   0  0  0  0  0  0  0  0  0  0  0  0
    7.0346   30.4140   76.8675 O   0  0  0  0  0  0  0  0  0  0  0  0
    8.0337   30.8270   77.7430 C   0  0  0  0  0  0  0  0  0  0  0  0
    9.1799   30.2161   77.8922 C   0  0  0  0  0  0  0  0  0  0  0  0
    7.7967   32.0163   78.5482 N   0  0  0  0  0  0  0  0  0  0  0  0
   11.5475   26.3344   78.9071 C   0  0  0  0  0  0  0  0  0  0  0  0
    6.9253   26.8592   74.0081 H   0  0  0  0  0  0  0  0  0  0  0  0
    7.3324   31.8369   79.4608 H   0  0  0  0  0  0  0  0  0  0  0  0
    8.0583   32.9551   78.2541 H   0  0  0  0  0  0  0  0  0  0  0  0
   10.1210   30.7961   78.8662 C   0  0  0  0  0  0  0  0  0  0  0  0
   10.8531   31.2487   79.6557 N   0  0  0  0  0  0  0  0  0  0  0  0
  1  2  1  0  0  0
  2  3  2  0  0  0
  2  7  1  0  0  0
  3  4  1  0  0  0
  4  5  2  0  0  0
  4 11  1  0  0  0
  5  6  1  0  0  0
  5  8  1  0  0  0
  6  7  2  0  0  0
  8  9  1  0  0  0
  8 22  1  0  0  0
  9 10  2  0  0  0
  9 11  1  0  0  0
 11 12  1  0  0  0
 11 20  1  0  0  0
 12 13  1  0  0  0
 12 16  2  0  0  0
 13 14  2  0  0  0
 13 18  1  0  0  0
 14 15  1  0  0  0
 15 16  1  0  0  0
 16 17  1  0  0  0
 18 19  1  0  0  0
 19 20  2  0  0  0
 19 21  1  0  0  0
 20 26  1  0  0  0
 26 27  3  0  0  0
 15 23  1  0  0  0
 21 24  1  0  0  0
 21 25  1  0  0  0
M  END
> <minimizedAffinity>
-4.88902

$$$$
1413


 24 27  0  0  0  0  0  0  0  0999 V2000
   20.2784   35.6938   71.1919 C   0  0  0  0  0  0  0  0  0  0  0  0
   23.3904   33.6213   67.4450 Br  0  0  0  0  0  0  0  0  0  0  0  0
   22.3736   35.0436   68.1734 C   0  0  0  0  0  0  0  0  0  0  0  0
   22.3096   36.2138   67.4967 C   0  0  0  0  0  0  0  0  0  0  0  0
   22.8587   36.6041   66.3297 N   0  0  0  0  0  0  0  0  0  0  0  0
   22.4469   37.8585   66.1715 N   0  0  0  0  0  0  0  0  0  0  0  0
   21.6885   38.2584   67.1539 N   0  0  0  0  0  0  0  0  0  0  0  0
   21.5649   37.2364   68.0403 C   0  0  0  0  0  0  0  0  0  0  0  0
   20.8982   37.0718   69.2499 C   0  0  0  0  0  0  0  0  0  0  0  0
   20.9586   35.9123   69.9260 N   0  0  0  0  0  0  0  0  0  0  0  0
   21.6917   34.9165   69.3828 C   0  0  0  0  0  0  0  0  0  0  0  0
   23.6907   35.9261   65.4095 C   0  0  0  0  0  0  0  0  0  0  0  0
   19.0603   34.8958   71.0891 C   0  0  0  0  0  0  0  0  0  0  0  0
   19.1740   33.6597   71.3514 O   0  0  0  0  0  0  0  0  0  0  0  0
   17.7355   35.3820   70.7157 C   0  0  0  0  0  0  0  0  0  0  0  0
   16.6989   34.4942   70.6488 C   0  0  0  0  0  0  0  0  0  0  0  0
   15.4456   34.9211   70.2949 C   0  0  0  0  0  0  0  0  0  0  0  0
   15.1793   36.2447   69.9953 C   0  0  0  0  0  0  0  0  0  0  0  0
   16.2575   37.1232   70.0720 C   0  0  0  0  0  0  0  0  0  0  0  0
   17.5098   36.7017   70.4254 C   0  0  0  0  0  0  0  0  0  0  0  0
   13.9267   36.6982   69.6373 C   0  0  0  0  0  0  0  0  0  0  0  0
   12.9060   35.7735   69.5810 C   0  0  0  0  0  0  0  0  0  0  0  0
   13.1596   34.4503   69.8776 C   0  0  0  0  0  0  0  0  0  0  0  0
   14.4111   34.0045   70.2347 C   0  0  0  0  0  0  0  0  0  0  0  0
  2  3  1  0  0  0
  3  4  2  0  0  0
  3 11  1  0  0  0
  4  5  1  0  0  0
  4  8  1  0  0  0
  5  6  1  0  0  0
  5 12  1  0  0  0
  6  7  2  0  0  0
  7  8  1  0  0  0
  8  9  2  0  0  0
  9 10  1  0  0  0
 10 11  2  0  0  0
 10  1  1  0  0  0
  1 13  1  0  0  0
 13 14  2  0  0  0
 13 15  1  0  0  0
 15 16  2  0  0  0
 15 20  1  0  0  0
 16 17  1  0  0  0
 17 18  2  0  0  0
 17 24  1  0  0  0
 18 19  1  0  0  0
 18 21  1  0  0  0
 19 20  2  0  0  0
 21 22  2  0  0  0
 22 23  1  0  0  0
 23 24  2  0  0  0
M  END
> <minimizedAffinity>
-9.17432

$$$$
1415


 32 35  0  0  0  0  0  0  0  0999 V2000
   17.0749   26.3849   72.5592 Br  0  0  0  0  0  0  0  0  0  0  0  0
   15.9698   27.6405   73.4948 C   0  0  0  0  0  0  0  0  0  0  0  0
   15.7798   28.9008   72.9801 C   0  0  0  0  0  0  0  0  0  0  0  0
   14.9779   29.8511   73.6339 C   0  0  0  0  0  0  0  0  0  0  0  0
   14.3935   29.4521   74.8160 C   0  0  0  0  0  0  0  0  0  0  0  0
   14.5681   28.1954   75.3543 C   0  0  0  0  0  0  0  0  0  0  0  0
   15.3580   27.2816   74.6948 C   0  0  0  0  0  0  0  0  0  0  0  0
   15.6068   25.9040   75.1928 C   0  0  0  0  0  0  0  0  0  0  0  0
   13.7453   27.6707   76.9938 Br  0  0  0  0  0  0  0  0  0  0  0  0
   14.8074   31.1686   73.0572 C   0  0  0  0  0  0  0  0  0  0  0  0
   14.0233   31.9747   73.5690 O   0  0  0  0  0  0  0  0  0  0  0  0
   15.5764   31.5390   71.8560 C   0  0  0  0  0  0  0  0  0  0  0  0
   15.7490   30.2826   71.0309 C   0  0  0  0  0  0  0  0  0  0  0  0
   16.3868   29.2664   71.7825 O   0  0  0  0  0  0  0  0  0  0  0  0
   14.9521   32.6430   71.0577 C   0  0  0  0  0  0  0  0  0  0  0  0
   14.1319   33.5408   71.7755 N   0  0  0  0  0  0  0  0  0  0  0  0
   14.7763   34.8164   71.8803 C   0  0  0  0  0  0  0  0  0  0  0  0
   14.8528   35.5940   70.6155 C   0  0  0  0  0  0  0  0  0  0  0  0
   14.0797   35.0744   69.4660 C   0  0  0  0  0  0  0  0  0  0  0  0
   12.9380   34.1878   69.7782 C   0  0  0  0  0  0  0  0  0  0  0  0
   12.8293   33.7794   71.2178 C   0  0  0  0  0  0  0  0  0  0  0  0
   16.3262   35.6517   70.1957 C   0  0  0  0  0  0  0  0  0  0  0  0
   13.9831   33.1877   72.7546 H   0  0  0  0  0  0  0  0  0  0  0  0
   16.9427   31.9664   72.3512 C   0  0  0  0  0  0  0  0  0  0  0  0
   18.0231   31.6973   71.4648 N   0  0  0  0  0  0  0  0  0  0  0  0
   19.1222   31.0576   72.1853 C   0  0  0  0  0  0  0  0  0  0  0  0
   20.2261   32.0165   72.5227 C   0  0  0  0  0  0  0  0  0  0  0  0
   19.6336   33.3270   72.9892 C   0  0  0  0  0  0  0  0  0  0  0  0
   18.9392   33.9561   71.8214 C   0  0  0  0  0  0  0  0  0  0  0  0
   18.5807   32.8737   70.8335 C   0  0  0  0  0  0  0  0  0  0  0  0
   20.9763   31.4304   73.7265 C   0  0  0  0  0  0  0  0  0  0  0  0
   17.7365   31.0415   70.7332 H   0  0  0  0  0  0  0  0  0  0  0  0
  1  2  1  0  0  0
  2  3  2  0  0  0
  2  7  1  0  0  0
  3  4  1  0  0  0
  3 14  1  0  0  0
  4  5  2  0  0  0
  4 10  1  0  0  0
  5  6  1  0  0  0
  6  7  2  0  0  0
  6  9  1  0  0  0
  7  8  1  0  0  0
 10 11  2  0  0  0
 10 12  1  0  0  0
 12 13  1  0  0  0
 12 15  1  0  0  0
 12 24  1  0  0  0
 13 14  1  0  0  0
 15 16  1  0  0  0
 16 17  1  0  0  0
 16 21  1  0  0  0
 17 18  1  0  0  0
 18 19  1  0  0  0
 18 22  1  0  0  0
 19 20  1  0  0  0
 20 21  1  0  0  0
 24 25  1  0  0  0
 25 26  1  0  0  0
 25 30  1  0  0  0
 26 27  1  0  0  0
 27 28  1  0  0  0
 27 31  1  0  0  0
 28 29  1  0  0  0
 29 30  1  0  0  0
 16 23  1  0  0  0
 25 32  1  0  0  0
M  CHG 1  16   1
M  CHG 1  25   1
M  END
> <minimizedAffinity>
-7.54214

$$$$
1428


 37 40  0  0  0  0  0  0  0  0999 V2000
   21.2526   34.2306   68.4333 Cl  0  0  0  0  0  0  0  0  0  0  0  0
   21.1147   33.1484   69.8155 C   0  0  0  0  0  0  0  0  0  0  0  0
   19.9044   32.8292   70.3708 C   0  0  0  0  0  0  0  0  0  0  0  0
   19.8529   31.9781   71.4515 C   0  0  0  0  0  0  0  0  0  0  0  0
   21.0310   31.4749   71.9379 C   0  0  0  0  0  0  0  0  0  0  0  0
   22.2649   31.8022   71.3687 C   0  0  0  0  0  0  0  0  0  0  0  0
   22.3036   32.6469   70.2985 C   0  0  0  0  0  0  0  0  0  0  0  0
   20.8304   30.6012   73.0431 N   0  0  0  0  0  0  0  0  0  0  0  0
   19.4470   30.5564   73.2579 C   0  0  0  0  0  0  0  0  0  0  0  0
   18.9320   29.8412   74.1793 O   0  0  0  0  0  0  0  0  0  0  0  0
   18.7631   31.4263   72.2908 C   0  0  0  0  0  0  0  0  0  0  0  0
   17.8527   30.6130   71.5346 N   0  0  0  0  0  0  0  0  0  0  0  0
   16.5126   30.9796   71.8720 C   0  0  0  0  0  0  0  0  0  0  0  0
   16.5790   31.8342   73.0968 C   0  0  0  0  0  0  0  0  0  0  0  0
   17.9564   32.4282   72.9966 C   0  0  0  0  0  0  0  0  0  0  0  0
   21.5690   30.0877   73.5932 H   0  0  0  0  0  0  0  0  0  0  0  0
   18.0634   30.6587   70.5153 H   0  0  0  0  0  0  0  0  0  0  0  0
   17.9522   33.7976   72.4208 C   0  0  0  0  0  0  0  0  0  0  0  0
   18.7308   34.6222   72.9575 O   0  0  0  0  0  0  0  0  0  0  0  0
   17.1444   34.1877   71.3465 N   0  0  0  0  0  0  0  0  0  0  0  0
   16.5286   33.4099   70.9561 H   0  0  0  0  0  0  0  0  0  0  0  0
   17.0506   35.4351   70.7276 C   0  0  0  0  0  0  0  0  0  0  0  0
   15.8550   36.1361   70.7923 C   0  0  0  0  0  0  0  0  0  0  0  0
   15.6920   37.3745   70.2055 C   0  0  0  0  0  0  0  0  0  0  0  0
   16.7180   37.9764   69.5212 C   0  0  0  0  0  0  0  0  0  0  0  0
   17.9067   37.3104   69.4401 C   0  0  0  0  0  0  0  0  0  0  0  0
   18.0580   36.0615   70.0378 C   0  0  0  0  0  0  0  0  0  0  0  0
   14.7733   35.5950   71.4645 O   0  0  0  0  0  0  0  0  0  0  0  0
   13.7501   34.8737   70.8497 C   0  0  0  0  0  0  0  0  0  0  0  0
   18.9663   37.8832   68.7603 O   0  0  0  0  0  0  0  0  0  0  0  0
   19.2629   37.5791   67.4094 C   0  0  0  0  0  0  0  0  0  0  0  0
   15.6279   29.7603   72.0736 C   0  0  0  0  0  0  0  0  0  0  0  0
   14.1999   30.0924   71.9692 C   0  0  0  0  0  0  0  0  0  0  0  0
   13.7140   30.4364   70.8803 O   0  0  0  0  0  0  0  0  0  0  0  0
   13.3805   30.0195   73.1110 N   0  0  0  0  0  0  0  0  0  0  0  0
   12.4664   29.5253   73.0307 H   0  0  0  0  0  0  0  0  0  0  0  0
   13.6257   30.4302   74.0447 H   0  0  0  0  0  0  0  0  0  0  0  0
  1  2  1  0  0  0
  2  3  2  0  0  0
  2  7  1  0  0  0
  3  4  1  0  0  0
  4  5  2  0  0  0
  4 11  1  0  0  0
  5  6  1  0  0  0
  5  8  1  0  0  0
  6  7  2  0  0  0
  8  9  1  0  0  0
  9 10  2  0  0  0
  9 11  1  0  0  0
 11 12  1  0  0  0
 11 15  1  0  0  0
 12 13  1  0  0  0
 13 14  1  0  0  0
 13 32  1  0  0  0
 14 15  1  0  0  0
 15 18  1  0  0  0
 18 19  2  0  0  0
 18 20  1  0  0  0
 20 22  1  0  0  0
 22 23  2  0  0  0
 22 27  1  0  0  0
 23 24  1  0  0  0
 23 28  1  0  0  0
 24 25  2  0  0  0
 25 26  1  0  0  0
 26 27  2  0  0  0
 26 30  1  0  0  0
 30 31  1  0  0  0
 28 29  1  0  0  0
 32 33  1  0  0  0
 33 34  2  0  0  0
 33 35  1  0  0  0
  8 16  1  0  0  0
 12 17  1  0  0  0
 20 21  1  0  0  0
 35 36  1  0  0  0
 35 37  1  0  0  0
M  END
> <minimizedAffinity>
-8.73726

$$$$
1432


 21 24  0  0  0  0  0  0  0  0999 V2000
   16.0033   36.5080   70.4031 C   0  0  0  0  0  0  0  0  0  0  0  0
   14.8029   36.0573   70.0033 N   0  0  0  0  0  0  0  0  0  0  0  0
   14.5428   34.8575   70.5493 N   0  0  0  0  0  0  0  0  0  0  0  0
   15.6007   34.5367   71.3153 C   0  0  0  0  0  0  0  0  0  0  0  0
   16.4850   35.5471   71.2205 N   0  0  0  0  0  0  0  0  0  0  0  0
   15.5641   33.3307   71.9887 C   0  0  0  0  0  0  0  0  0  0  0  0
   14.4891   32.4671   71.8943 C   0  0  0  0  0  0  0  0  0  0  0  0
   14.7066   31.3661   72.6454 N   0  0  0  0  0  0  0  0  0  0  0  0
   15.8919   31.5359   73.2002 N   0  0  0  0  0  0  0  0  0  0  0  0
   16.4494   32.7044   72.8344 C   0  0  0  0  0  0  0  0  0  0  0  0
   13.7937   30.2349   72.7944 C   0  0  0  0  0  0  0  0  0  0  0  0
   13.4669   32.8529   71.1112 N   0  0  0  0  0  0  0  0  0  0  0  0
   13.4910   34.0227   70.4518 C   0  0  0  0  0  0  0  0  0  0  0  0
   16.6844   37.7825   70.0447 C   0  0  0  0  0  0  0  0  0  0  0  0
   21.8781   36.3948   69.2002 Br  0  0  0  0  0  0  0  0  0  0  0  0
   20.0793   36.9916   68.9994 C   0  0  0  0  0  0  0  0  0  0  0  0
   19.0846   37.0660   69.9715 C   0  0  0  0  0  0  0  0  0  0  0  0
   17.9636   37.5448   69.3957 N   0  0  0  0  0  0  0  0  0  0  0  0
   18.2261   37.7680   68.1076 N   0  0  0  0  0  0  0  0  0  0  0  0
   19.5038   37.4430   67.8307 C   0  0  0  0  0  0  0  0  0  0  0  0
   20.2262   37.5265   66.5394 C   0  0  0  0  0  0  0  0  0  0  0  0
 15 16  1  0  0  0
 16 17  2  0  0  0
 16 20  1  0  0  0
 17 18  1  0  0  0
 18 19  1  0  0  0
 18 14  1  0  0  0
 19 20  2  0  0  0
 20 21  1  0  0  0
 14  1  1  0  0  0
  1  2  2  0  0  0
  1  5  1  0  0  0
  2  3  1  0  0  0
  3  4  1  0  0  0
  3 13  1  0  0  0
  4  5  2  0  0  0
  4  6  1  0  0  0
  6  7  2  0  0  0
  6 10  1  0  0  0
  7  8  1  0  0  0
  7 12  1  0  0  0
  8  9  1  0  0  0
  8 11  1  0  0  0
  9 10  2  0  0  0
 12 13  2  0  0  0
M  END
> <minimizedAffinity>
-7.74533

$$$$
1433


 28 31  0  0  0  0  0  0  0  0999 V2000
   20.7970   37.3304   71.4567 Br  0  0  0  0  0  0  0  0  0  0  0  0
   20.9286   35.7558   70.4082 C   0  0  0  0  0  0  0  0  0  0  0  0
   20.0172   34.7136   70.6064 C   0  0  0  0  0  0  0  0  0  0  0  0
   20.0750   33.5640   69.8574 C   0  0  0  0  0  0  0  0  0  0  0  0
   21.0627   33.4736   68.9060 C   0  0  0  0  0  0  0  0  0  0  0  0
   21.9842   34.4963   68.6879 C   0  0  0  0  0  0  0  0  0  0  0  0
   21.9111   35.6622   69.4557 C   0  0  0  0  0  0  0  0  0  0  0  0
   22.8866   36.7640   69.2280 C   0  0  0  0  0  0  0  0  0  0  0  0
   23.0481   34.3417   67.6605 C   0  0  0  0  0  0  0  0  0  0  0  0
   19.1233   32.4217   69.9735 C   0  0  0  0  0  0  0  0  0  0  0  0
   18.1936   32.5034   71.1450 C   0  0  0  0  0  0  0  0  0  0  0  0
   18.7847   33.4509   72.1727 C   0  0  0  0  0  0  0  0  0  0  0  0
   19.0068   34.7465   71.5575 O   0  0  0  0  0  0  0  0  0  0  0  0
   19.9115   31.2319   70.0557 O   0  0  0  0  0  0  0  0  0  0  0  0
   20.2363   31.0424   69.1411 H   0  0  0  0  0  0  0  0  0  0  0  0
   18.1612   31.1808   71.7316 N   0  0  0  0  0  0  0  0  0  0  0  0
   16.9521   30.4708   71.4787 C   0  0  0  0  0  0  0  0  0  0  0  0
   16.6972   29.2874   72.3678 C   0  0  0  0  0  0  0  0  0  0  0  0
   17.0918   29.4382   73.6696 O   0  0  0  0  0  0  0  0  0  0  0  0
   18.4606   29.7375   73.6722 C   0  0  0  0  0  0  0  0  0  0  0  0
   18.5176   31.1858   73.1197 C   0  0  0  0  0  0  0  0  0  0  0  0
   16.8440   33.0480   70.8687 C   0  0  0  0  0  0  0  0  0  0  0  0
   15.9961   33.5594   71.8445 N   0  0  0  0  0  0  0  0  0  0  0  0
   15.5722   34.9493   71.4598 C   0  0  0  0  0  0  0  0  0  0  0  0
   14.9511   34.9675   70.1123 C   0  0  0  0  0  0  0  0  0  0  0  0
   14.2770   33.8262   69.7697 O   0  0  0  0  0  0  0  0  0  0  0  0
   13.8111   33.0712   70.8062 C   0  0  0  0  0  0  0  0  0  0  0  0
   14.6818   32.9686   72.0166 C   0  0  0  0  0  0  0  0  0  0  0  0
  1  2  1  0  0  0
  2  3  2  0  0  0
  2  7  1  0  0  0
  3  4  1  0  0  0
  3 13  1  0  0  0
  4  5  2  0  0  0
  4 10  1  0  0  0
  5  6  1  0  0  0
  6  7  2  0  0  0
  6  9  1  0  0  0
  7  8  1  0  0  0
 10 11  1  0  0  0
 10 14  1  0  0  0
 11 12  1  0  0  0
 11 16  1  0  0  0
 11 22  1  0  0  0
 12 13  1  0  0  0
 16 17  1  0  0  0
 16 21  1  0  0  0
 17 18  1  0  0  0
 18 19  1  0  0  0
 19 20  1  0  0  0
 20 21  1  0  0  0
 22 23  1  0  0  0
 23 24  1  0  0  0
 23 28  1  0  0  0
 24 25  1  0  0  0
 25 26  1  0  0  0
 26 27  1  0  0  0
 27 28  1  0  0  0
 14 15  1  0  0  0
M  END
> <minimizedAffinity>
-6.96098

$$$$
1434


 28 31  0  0  0  0  0  0  0  0999 V2000
   20.3599   37.1799   69.0752 C   0  0  0  0  0  0  0  0  0  0  0  0
   19.4697   37.3057   68.0970 O   0  0  0  0  0  0  0  0  0  0  0  0
   21.6797   37.2779   68.6639 N   0  0  0  0  0  0  0  0  0  0  0  0
   22.8540   37.1842   69.4559 C   0  0  0  0  0  0  0  0  0  0  0  0
   23.5731   35.8663   69.1651 C   0  0  0  0  0  0  0  0  0  0  0  0
   23.3571   35.4788   67.7118 C   0  0  0  0  0  0  0  0  0  0  0  0
   24.5874   34.8285   67.2935 N   0  0  0  0  0  0  0  0  0  0  0  0
   24.4278   33.4266   67.5946 C   0  0  0  0  0  0  0  0  0  0  0  0
   25.3527   32.5817   67.6868 O   0  0  0  0  0  0  0  0  0  0  0  0
   23.0183   33.1868   67.7679 N   0  0  0  0  0  0  0  0  0  0  0  0
   22.3357   34.4195   67.5756 C   0  0  0  0  0  0  0  0  0  0  0  0
   21.1108   34.5389   67.3400 O   0  0  0  0  0  0  0  0  0  0  0  0
   23.1225   36.6621   66.8269 C   0  0  0  0  0  0  0  0  0  0  0  0
   21.9501   37.4994   67.2224 C   0  0  0  0  0  0  0  0  0  0  0  0
   25.4244   35.2721   66.8615 H   0  0  0  0  0  0  0  0  0  0  0  0
   22.5867   32.2791   67.9914 H   0  0  0  0  0  0  0  0  0  0  0  0
   19.7212   36.9637   70.3582 C   0  0  0  0  0  0  0  0  0  0  0  0
   17.6454   31.9982   71.0939 Br  0  0  0  0  0  0  0  0  0  0  0  0
   17.9257   33.8692   70.8198 C   0  0  0  0  0  0  0  0  0  0  0  0
   16.8980   34.7675   70.6758 C   0  0  0  0  0  0  0  0  0  0  0  0
   17.4712   36.0002   70.4986 C   0  0  0  0  0  0  0  0  0  0  0  0
   18.8309   35.8696   70.5320 N   0  0  0  0  0  0  0  0  0  0  0  0
   19.1029   34.5580   70.7287 C   0  0  0  0  0  0  0  0  0  0  0  0
   20.4610   33.9767   70.8258 C   0  0  0  0  0  0  0  0  0  0  0  0
   16.6530   37.1169   70.3260 C   0  0  0  0  0  0  0  0  0  0  0  0
   15.2701   36.9878   70.3323 C   0  0  0  0  0  0  0  0  0  0  0  0
   14.7177   35.7500   70.5102 C   0  0  0  0  0  0  0  0  0  0  0  0
   15.5171   34.6433   70.6810 C   0  0  0  0  0  0  0  0  0  0  0  0
 18 19  1  0  0  0
 19 20  1  0  0  0
 19 23  2  0  0  0
 20 21  2  0  0  0
 20 28  1  0  0  0
 21 22  1  0  0  0
 21 25  1  0  0  0
 22 23  1  0  0  0
 22 17  1  0  0  0
 23 24  1  0  0  0
 17  1  1  0  0  0
  1  2  2  0  0  0
  1  3  1  0  0  0
  3  4  1  0  0  0
  3 14  1  0  0  0
  4  5  1  0  0  0
  5  6  1  0  0  0
  6  7  1  0  0  0
  6 11  1  0  0  0
  6 13  1  0  0  0
  7  8  1  0  0  0
  8  9  2  0  0  0
  8 10  1  0  0  0
 10 11  1  0  0  0
 11 12  2  0  0  0
 13 14  1  0  0  0
 25 26  2  0  0  0
 26 27  1  0  0  0
 27 28  2  0  0  0
  7 15  1  0  0  0
 10 16  1  0  0  0
M  END
> <minimizedAffinity>
-9.08743

$$$$
1435


 32 35  0  0  0  0  0  0  0  0999 V2000
   20.7888   35.9250   68.1461 C   0  0  0  0  0  0  0  0  0  0  0  0
   20.4310   36.6647   69.4280 C   0  0  0  0  0  0  0  0  0  0  0  0
   20.7986   34.0587   71.4836 Br  0  0  0  0  0  0  0  0  0  0  0  0
   19.2441   35.0218   70.9337 C   0  0  0  0  0  0  0  0  0  0  0  0
   19.2867   36.0713   70.0771 N   0  0  0  0  0  0  0  0  0  0  0  0
   17.9998   36.4644   69.9479 C   0  0  0  0  0  0  0  0  0  0  0  0
   17.1642   35.6755   70.7106 C   0  0  0  0  0  0  0  0  0  0  0  0
   17.9775   34.7787   71.3166 N   0  0  0  0  0  0  0  0  0  0  0  0
   15.8256   35.8628   70.7558 N   0  0  0  0  0  0  0  0  0  0  0  0
   15.3077   36.8637   70.0217 C   0  0  0  0  0  0  0  0  0  0  0  0
   14.0702   37.0987   70.0138 O   0  0  0  0  0  0  0  0  0  0  0  0
   16.1007   37.6637   69.2573 N   0  0  0  0  0  0  0  0  0  0  0  0
   17.4290   37.4855   69.2068 C   0  0  0  0  0  0  0  0  0  0  0  0
   18.1996   38.1928   68.5202 O   0  0  0  0  0  0  0  0  0  0  0  0
   14.9614   35.0222   71.5631 C   0  0  0  0  0  0  0  0  0  0  0  0
   15.6607   38.4331   68.6999 H   0  0  0  0  0  0  0  0  0  0  0  0
   22.1212   36.3803   67.6126 C   0  0  0  0  0  0  0  0  0  0  0  0
   22.1756   36.5568   66.1245 C   0  0  0  0  0  0  0  0  0  0  0  0
   23.1343   37.5512   65.7744 N   0  0  0  0  0  0  0  0  0  0  0  0
   23.0418   38.8793   65.7466 C   0  0  0  0  0  0  0  0  0  0  0  0
   24.2728   39.4061   65.3720 C   0  0  0  0  0  0  0  0  0  0  0  0
   25.0711   38.3593   65.1847 N   0  0  0  0  0  0  0  0  0  0  0  0
   24.4041   37.2285   65.4212 C   0  0  0  0  0  0  0  0  0  0  0  0
   25.1633   35.4860   65.2717 Br  0  0  0  0  0  0  0  0  0  0  0  0
   24.4476   40.7262   65.2625 N   0  0  0  0  0  0  0  0  0  0  0  0
   23.4373   41.5818   65.5105 C   0  0  0  0  0  0  0  0  0  0  0  0
   23.6099   42.8217   65.4057 O   0  0  0  0  0  0  0  0  0  0  0  0
   22.2482   41.0889   65.8705 N   0  0  0  0  0  0  0  0  0  0  0  0
   22.0305   39.7708   65.9923 C   0  0  0  0  0  0  0  0  0  0  0  0
   20.9133   39.3293   66.3268 O   0  0  0  0  0  0  0  0  0  0  0  0
   25.7284   41.3056   64.8721 C   0  0  0  0  0  0  0  0  0  0  0  0
   21.4267   41.7270   66.0744 H   0  0  0  0  0  0  0  0  0  0  0  0
  3  4  1  0  0  0
  4  5  1  0  0  0
  4  8  2  0  0  0
  5  6  1  0  0  0
  5  2  1  0  0  0
  6  7  2  0  0  0
  6 13  1  0  0  0
  7  8  1  0  0  0
  7  9  1  0  0  0
  9 10  1  0  0  0
  9 15  1  0  0  0
 10 11  2  0  0  0
 10 12  1  0  0  0
 12 13  1  0  0  0
 13 14  2  0  0  0
  2  1  1  0  0  0
  1 17  1  0  0  0
 17 18  1  0  0  0
 18 19  1  0  0  0
 19 20  1  0  0  0
 19 23  1  0  0  0
 20 21  2  0  0  0
 20 29  1  0  0  0
 21 22  1  0  0  0
 21 25  1  0  0  0
 22 23  2  0  0  0
 23 24  1  0  0  0
 25 26  1  0  0  0
 25 31  1  0  0  0
 26 27  2  0  0  0
 26 28  1  0  0  0
 28 29  1  0  0  0
 29 30  2  0  0  0
 12 16  1  0  0  0
 28 32  1  0  0  0
M  END
> <minimizedAffinity>
-8.88468

$$$$
1436


 33 36  0  0  0  0  0  0  0  0999 V2000
   21.0144   35.7086   69.9472 O   0  0  0  0  0  0  0  0  0  0  0  0
   19.8927   34.9483   69.9782 C   0  0  0  0  0  0  0  0  0  0  0  0
   18.9048   35.0426   71.0657 C   0  0  0  0  0  0  0  0  0  0  0  0
   18.0330   31.6997   71.3162 Br  0  0  0  0  0  0  0  0  0  0  0  0
   17.0883   33.3146   70.9204 C   0  0  0  0  0  0  0  0  0  0  0  0
   17.5910   34.5443   70.8348 N   0  0  0  0  0  0  0  0  0  0  0  0
   16.5494   35.3483   70.4830 C   0  0  0  0  0  0  0  0  0  0  0  0
   15.4288   34.5544   70.3702 C   0  0  0  0  0  0  0  0  0  0  0  0
   15.7641   33.3004   70.6410 N   0  0  0  0  0  0  0  0  0  0  0  0
   14.2447   35.1294   70.0197 N   0  0  0  0  0  0  0  0  0  0  0  0
   14.2060   36.4413   69.7951 C   0  0  0  0  0  0  0  0  0  0  0  0
   13.0922   36.9467   69.4718 O   0  0  0  0  0  0  0  0  0  0  0  0
   15.2917   37.2236   69.9020 N   0  0  0  0  0  0  0  0  0  0  0  0
   16.5053   36.7083   70.2493 C   0  0  0  0  0  0  0  0  0  0  0  0
   17.5160   37.4486   70.3439 O   0  0  0  0  0  0  0  0  0  0  0  0
   13.0440   34.3297   69.8912 C   0  0  0  0  0  0  0  0  0  0  0  0
   15.2464   38.2494   69.7227 H   0  0  0  0  0  0  0  0  0  0  0  0
   22.0860   35.0107   69.4148 C   0  0  0  0  0  0  0  0  0  0  0  0
   21.7394   34.5620   68.0265 C   0  0  0  0  0  0  0  0  0  0  0  0
   22.4818   35.2689   67.0316 N   0  0  0  0  0  0  0  0  0  0  0  0
   23.6974   34.9367   66.5768 C   0  0  0  0  0  0  0  0  0  0  0  0
   24.0590   35.8599   65.6458 C   0  0  0  0  0  0  0  0  0  0  0  0
   23.0570   36.7305   65.5568 N   0  0  0  0  0  0  0  0  0  0  0  0
   22.0637   36.3983   66.3978 C   0  0  0  0  0  0  0  0  0  0  0  0
   20.3997   37.2614   66.7027 Br  0  0  0  0  0  0  0  0  0  0  0  0
   25.2462   35.7596   65.0234 N   0  0  0  0  0  0  0  0  0  0  0  0
   26.0551   34.7485   65.3308 C   0  0  0  0  0  0  0  0  0  0  0  0
   27.1645   34.6667   64.7394 O   0  0  0  0  0  0  0  0  0  0  0  0
   25.7208   33.8371   66.2358 N   0  0  0  0  0  0  0  0  0  0  0  0
   24.5524   33.8957   66.8802 C   0  0  0  0  0  0  0  0  0  0  0  0
   24.2694   33.0020   67.7408 O   0  0  0  0  0  0  0  0  0  0  0  0
   25.6486   36.7330   64.0297 C   0  0  0  0  0  0  0  0  0  0  0  0
   26.3687   33.0518   66.4631 H   0  0  0  0  0  0  0  0  0  0  0  0
  4  5  1  0  0  0
  5  6  1  0  0  0
  5  9  2  0  0  0
  6  7  1  0  0  0
  6  3  1  0  0  0
  7  8  2  0  0  0
  7 14  1  0  0  0
  8  9  1  0  0  0
  8 10  1  0  0  0
 10 11  1  0  0  0
 10 16  1  0  0  0
 11 12  2  0  0  0
 11 13  1  0  0  0
 13 14  1  0  0  0
 14 15  2  0  0  0
  3  2  1  0  0  0
  2  1  1  0  0  0
  1 18  1  0  0  0
 18 19  1  0  0  0
 19 20  1  0  0  0
 20 21  1  0  0  0
 20 24  1  0  0  0
 21 22  2  0  0  0
 21 30  1  0  0  0
 22 23  1  0  0  0
 22 26  1  0  0  0
 23 24  2  0  0  0
 24 25  1  0  0  0
 26 27  1  0  0  0
 26 32  1  0  0  0
 27 28  2  0  0  0
 27 29  1  0  0  0
 29 30  1  0  0  0
 30 31  2  0  0  0
 13 17  1  0  0  0
 29 33  1  0  0  0
M  END
> <minimizedAffinity>
-8.90647

$$$$
1444


 33 36  0  0  0  0  0  0  0  0999 V2000
   19.3649   34.1674   72.0597 N   0  0  0  0  0  0  0  0  0  0  0  0
   18.0351   34.0529   71.8066 C   0  0  0  0  0  0  0  0  0  0  0  0
   17.3656   34.2802   72.9858 O   0  0  0  0  0  0  0  0  0  0  0  0
   19.5667   34.4272   73.1348 H   0  0  0  0  0  0  0  0  0  0  0  0
   21.3847   34.9329   70.8727 N   0  0  0  0  0  0  0  0  0  0  0  0
   22.4659   34.3460   70.3752 N   0  0  0  0  0  0  0  0  0  0  0  0
   22.4198   33.0346   70.5369 C   0  0  0  0  0  0  0  0  0  0  0  0
   21.2087   32.7666   71.1921 C   0  0  0  0  0  0  0  0  0  0  0  0
   20.5693   33.9684   71.3955 C   0  0  0  0  0  0  0  0  0  0  0  0
   21.0983   36.3250   70.8692 C   0  0  0  0  0  0  0  0  0  0  0  0
   22.6799   36.8095   68.2846 Cl  0  0  0  0  0  0  0  0  0  0  0  0
   20.9577   37.0449   68.4739 C   0  0  0  0  0  0  0  0  0  0  0  0
   20.3675   36.7942   69.6775 C   0  0  0  0  0  0  0  0  0  0  0  0
   19.0085   36.9965   69.7703 C   0  0  0  0  0  0  0  0  0  0  0  0
   18.2590   37.4323   68.7078 C   0  0  0  0  0  0  0  0  0  0  0  0
   18.8662   37.6824   67.4956 C   0  0  0  0  0  0  0  0  0  0  0  0
   20.2243   37.4823   67.3954 C   0  0  0  0  0  0  0  0  0  0  0  0
   17.0832   33.7820   70.7416 C   0  0  0  0  0  0  0  0  0  0  0  0
   15.8163   34.3574   70.5930 N   0  0  0  0  0  0  0  0  0  0  0  0
   15.5987   35.8278   70.5398 C   0  0  0  0  0  0  0  0  0  0  0  0
   14.1069   35.9985   70.7369 C   0  0  0  0  0  0  0  0  0  0  0  0
   13.3921   35.3712   69.5693 C   0  0  0  0  0  0  0  0  0  0  0  0
   13.5632   33.8679   69.6253 C   0  0  0  0  0  0  0  0  0  0  0  0
   14.6543   33.5160   70.5797 C   0  0  0  0  0  0  0  0  0  0  0  0
   14.4915   32.5147   71.4475 C   0  0  0  0  0  0  0  0  0  0  0  0
   13.3253   31.6751   71.4098 N   0  0  0  0  0  0  0  0  0  0  0  0
   13.3821   30.7511   72.4690 N   0  0  0  0  0  0  0  0  0  0  0  0
   14.5718   30.9852   73.1885 C   0  0  0  0  0  0  0  0  0  0  0  0
   15.0205   30.3977   74.1990 O   0  0  0  0  0  0  0  0  0  0  0  0
   15.2394   32.0813   72.5378 N   0  0  0  0  0  0  0  0  0  0  0  0
   12.5145   31.6527   70.7615 H   0  0  0  0  0  0  0  0  0  0  0  0
   12.6840   30.0051   72.7119 H   0  0  0  0  0  0  0  0  0  0  0  0
   16.1311   32.4890   72.8638 H   0  0  0  0  0  0  0  0  0  0  0  0
 11 12  1  0  0  0
 12 13  2  0  0  0
 12 17  1  0  0  0
 13 14  1  0  0  0
 13 10  1  0  0  0
 14 15  2  0  0  0
 15 16  1  0  0  0
 16 17  2  0  0  0
 10  5  1  0  0  0
  5  6  1  0  0  0
  5  9  1  0  0  0
  6  7  2  0  0  0
  7  8  1  0  0  0
  8  9  2  0  0  0
  9  1  1  0  0  0
  1  2  1  0  0  0
  2  3  2  0  0  0
  2 18  1  0  0  0
 18 19  1  0  0  0
 19 20  1  0  0  0
 19 24  1  0  0  0
 20 21  1  0  0  0
 21 22  1  0  0  0
 22 23  1  0  0  0
 23 24  1  0  0  0
 24 25  2  0  0  0
 25 26  1  0  0  0
 25 30  1  0  0  0
 26 27  1  0  0  0
 27 28  1  0  0  0
 28 29  2  0  0  0
 28 30  1  0  0  0
  1  4  1  0  0  0
 26 31  1  0  0  0
 27 32  1  0  0  0
 30 33  1  0  0  0
M  END
> <minimizedAffinity>
-9.17921

$$$$
1447


 38 41  0  0  0  0  0  0  0  0999 V2000
   21.8785   38.3732   66.5883 C   0  0  0  0  0  0  0  0  0  0  0  0
   21.8717   39.7362   66.4281 N   0  0  0  0  0  0  0  0  0  0  0  0
   22.9313   40.0991   65.7599 N   0  0  0  0  0  0  0  0  0  0  0  0
   23.6815   39.0582   65.4417 N   0  0  0  0  0  0  0  0  0  0  0  0
   23.0557   37.9798   65.9427 C   0  0  0  0  0  0  0  0  0  0  0  0
   24.8781   39.1440   64.6883 C   0  0  0  0  0  0  0  0  0  0  0  0
   25.2511   38.4533   63.5898 N   0  0  0  0  0  0  0  0  0  0  0  0
   26.4337   38.8485   63.1991 O   0  0  0  0  0  0  0  0  0  0  0  0
   26.8861   39.7866   63.9914 N   0  0  0  0  0  0  0  0  0  0  0  0
   25.9456   39.9960   64.9276 C   0  0  0  0  0  0  0  0  0  0  0  0
   26.0602   40.9395   65.9713 N   0  0  0  0  0  0  0  0  0  0  0  0
   26.0091   41.9485   65.7414 H   0  0  0  0  0  0  0  0  0  0  0  0
   26.1936   40.6642   66.9610 H   0  0  0  0  0  0  0  0  0  0  0  0
   20.8195   37.2209   68.6177 N   0  0  0  0  0  0  0  0  0  0  0  0
   20.8623   37.6075   67.2850 C   0  0  0  0  0  0  0  0  0  0  0  0
   19.8701   37.2440   66.5479 O   0  0  0  0  0  0  0  0  0  0  0  0
   21.5319   37.4190   69.3598 H   0  0  0  0  0  0  0  0  0  0  0  0
   18.7213   37.0561   69.6599 C   0  0  0  0  0  0  0  0  0  0  0  0
   19.6781   36.4595   69.0427 N   0  0  0  0  0  0  0  0  0  0  0  0
   16.6246   33.1984   72.6374 Br  0  0  0  0  0  0  0  0  0  0  0  0
   16.4511   34.6635   71.4491 C   0  0  0  0  0  0  0  0  0  0  0  0
   15.2137   35.0714   71.0445 C   0  0  0  0  0  0  0  0  0  0  0  0
   15.1185   36.1506   70.1696 C   0  0  0  0  0  0  0  0  0  0  0  0
   16.2768   36.7838   69.7302 C   0  0  0  0  0  0  0  0  0  0  0  0
   17.5222   36.3805   70.1313 C   0  0  0  0  0  0  0  0  0  0  0  0
   17.6012   35.3120   70.9964 C   0  0  0  0  0  0  0  0  0  0  0  0
   18.8671   34.9125   71.3961 O   0  0  0  0  0  0  0  0  0  0  0  0
   13.4141   36.7429   69.5889 Br  0  0  0  0  0  0  0  0  0  0  0  0
   14.0468   34.4542   71.4710 O   0  0  0  0  0  0  0  0  0  0  0  0
   18.9782   34.1320   72.0311 H   0  0  0  0  0  0  0  0  0  0  0  0
   13.1452   34.7741   71.1569 H   0  0  0  0  0  0  0  0  0  0  0  0
   23.4784   36.5813   65.8221 C   0  0  0  0  0  0  0  0  0  0  0  0
   24.3975   36.1358   66.8728 N   0  0  0  0  0  0  0  0  0  0  0  0
   25.6697   35.7334   66.2416 C   0  0  0  0  0  0  0  0  0  0  0  0
   25.3964   34.8591   65.0680 C   0  0  0  0  0  0  0  0  0  0  0  0
   24.6052   33.8044   65.4520 O   0  0  0  0  0  0  0  0  0  0  0  0
   24.4326   33.6898   66.8064 C   0  0  0  0  0  0  0  0  0  0  0  0
   23.8397   34.9021   67.4761 C   0  0  0  0  0  0  0  0  0  0  0  0
 20 21  1  0  0  0
 21 22  2  0  0  0
 21 26  1  0  0  0
 22 23  1  0  0  0
 22 29  1  0  0  0
 23 24  2  0  0  0
 23 28  1  0  0  0
 24 25  1  0  0  0
 25 26  2  0  0  0
 25 18  1  0  0  0
 26 27  1  0  0  0
 18 19  2  0  0  0
 19 14  1  0  0  0
 14 15  1  0  0  0
 15 16  2  0  0  0
 15  1  1  0  0  0
  1  2  1  0  0  0
  1  5  2  0  0  0
  2  3  2  0  0  0
  3  4  1  0  0  0
  4  5  1  0  0  0
  4  6  1  0  0  0
  5 32  1  0  0  0
 32 33  1  0  0  0
 33 34  1  0  0  0
 33 38  1  0  0  0
 34 35  1  0  0  0
 35 36  1  0  0  0
 36 37  1  0  0  0
 37 38  1  0  0  0
  6  7  2  0  0  0
  6 10  1  0  0  0
  7  8  1  0  0  0
  8  9  1  0  0  0
  9 10  2  0  0  0
 10 11  1  0  0  0
 27 30  1  0  0  0
 14 17  1  0  0  0
 11 12  1  0  0  0
 11 13  1  0  0  0
 29 31  1  0  0  0
M  END
> <minimizedAffinity>
-8.99415

$$$$
1466


 29 32  0  0  0  0  0  0  0  0999 V2000
   15.7247   37.1318   70.1067 N   0  0  0  0  0  0  0  0  0  0  0  0
   16.6939   36.4482   70.6918 N   0  0  0  0  0  0  0  0  0  0  0  0
   17.8345   36.6034   70.0336 N   0  0  0  0  0  0  0  0  0  0  0  0
   17.6318   37.4098   68.9799 C   0  0  0  0  0  0  0  0  0  0  0  0
   16.2976   37.7385   69.0333 C   0  0  0  0  0  0  0  0  0  0  0  0
   18.6056   37.8438   67.9943 C   0  0  0  0  0  0  0  0  0  0  0  0
   19.8501   37.3658   67.8155 N   0  0  0  0  0  0  0  0  0  0  0  0
   20.4386   38.0253   66.8046 C   0  0  0  0  0  0  0  0  0  0  0  0
   19.5296   38.9130   66.3710 N   0  0  0  0  0  0  0  0  0  0  0  0
   18.4599   38.7800   67.0938 O   0  0  0  0  0  0  0  0  0  0  0  0
   21.8048   37.8175   66.2778 C   0  0  0  0  0  0  0  0  0  0  0  0
   22.2508   36.5425   66.0174 C   0  0  0  0  0  0  0  0  0  0  0  0
   23.4927   36.3413   65.5369 N   0  0  0  0  0  0  0  0  0  0  0  0
   24.3555   37.3471   65.2871 C   0  0  0  0  0  0  0  0  0  0  0  0
   23.8980   38.6236   65.5512 C   0  0  0  0  0  0  0  0  0  0  0  0
   22.6422   38.8729   66.0401 C   0  0  0  0  0  0  0  0  0  0  0  0
   14.3164   37.2334   70.5066 C   0  0  0  0  0  0  0  0  0  0  0  0
   13.6117   36.0637   69.8571 C   0  0  0  0  0  0  0  0  0  0  0  0
   13.6733   33.8485   70.9371 C   0  0  0  0  0  0  0  0  0  0  0  0
   12.5084   34.0838   71.4002 O   0  0  0  0  0  0  0  0  0  0  0  0
   14.3182   34.8210   70.1277 N   0  0  0  0  0  0  0  0  0  0  0  0
   15.2670   34.6433   69.7428 H   0  0  0  0  0  0  0  0  0  0  0  0
   17.8845   30.9993   72.6643 Br  0  0  0  0  0  0  0  0  0  0  0  0
   16.0958   31.2038   72.0269 C   0  0  0  0  0  0  0  0  0  0  0  0
   15.3212   30.0769   71.8659 C   0  0  0  0  0  0  0  0  0  0  0  0
   14.0500   30.1887   71.4149 N   0  0  0  0  0  0  0  0  0  0  0  0
   13.5736   31.4158   71.1339 C   0  0  0  0  0  0  0  0  0  0  0  0
   14.2874   32.5718   71.2705 C   0  0  0  0  0  0  0  0  0  0  0  0
   15.5858   32.4680   71.7299 C   0  0  0  0  0  0  0  0  0  0  0  0
 23 24  1  0  0  0
 24 25  2  0  0  0
 24 29  1  0  0  0
 25 26  1  0  0  0
 26 27  2  0  0  0
 27 28  1  0  0  0
 28 29  2  0  0  0
 28 19  1  0  0  0
 19 20  2  0  0  0
 19 21  1  0  0  0
 21 18  1  0  0  0
 18 17  1  0  0  0
 17  1  1  0  0  0
  1  2  1  0  0  0
  1  5  1  0  0  0
  2  3  2  0  0  0
  3  4  1  0  0  0
  4  5  2  0  0  0
  4  6  1  0  0  0
  6  7  2  0  0  0
  6 10  1  0  0  0
  7  8  1  0  0  0
  8  9  2  0  0  0
  8 11  1  0  0  0
  9 10  1  0  0  0
 11 12  2  0  0  0
 11 16  1  0  0  0
 12 13  1  0  0  0
 13 14  2  0  0  0
 14 15  1  0  0  0
 15 16  2  0  0  0
 21 22  1  0  0  0
M  END
> <minimizedAffinity>
-8.58302

$$$$
1471


 31 34  0  0  0  0  0  0  0  0999 V2000
   21.2549   34.7365   70.0581 C   0  0  0  0  0  0  0  0  0  0  0  0
   20.8046   35.3566   68.9253 C   0  0  0  0  0  0  0  0  0  0  0  0
   21.3975   35.2413   67.6974 N   0  0  0  0  0  0  0  0  0  0  0  0
   22.4798   34.4745   67.6130 C   0  0  0  0  0  0  0  0  0  0  0  0
   23.0054   33.8129   68.6915 C   0  0  0  0  0  0  0  0  0  0  0  0
   22.3637   33.9456   69.9861 C   0  0  0  0  0  0  0  0  0  0  0  0
   23.0880   33.1968   70.8388 N   0  0  0  0  0  0  0  0  0  0  0  0
   24.0949   32.6283   70.1976 N   0  0  0  0  0  0  0  0  0  0  0  0
   24.0834   32.9716   68.9031 C   0  0  0  0  0  0  0  0  0  0  0  0
   24.8772   32.6322   67.9733 O   0  0  0  0  0  0  0  0  0  0  0  0
   24.8356   31.9847   70.5940 H   0  0  0  0  0  0  0  0  0  0  0  0
   17.1158   33.7036   71.4410 N   0  0  0  0  0  0  0  0  0  0  0  0
   17.4821   33.7482   72.8322 C   0  0  0  0  0  0  0  0  0  0  0  0
   18.9268   34.1182   73.0567 C   0  0  0  0  0  0  0  0  0  0  0  0
   19.6261   33.9736   71.8083 N   0  0  0  0  0  0  0  0  0  0  0  0
   19.3468   32.8015   71.0193 C   0  0  0  0  0  0  0  0  0  0  0  0
   17.9387   33.0049   70.4427 C   0  0  0  0  0  0  0  0  0  0  0  0
   20.5636   34.9128   71.3252 C   0  0  0  0  0  0  0  0  0  0  0  0
   20.8438   35.9584   71.9817 O   0  0  0  0  0  0  0  0  0  0  0  0
   17.4894   36.4877   70.3593 Cl  0  0  0  0  0  0  0  0  0  0  0  0
   15.9624   35.6038   70.4439 C   0  0  0  0  0  0  0  0  0  0  0  0
   15.9464   34.3299   70.9682 C   0  0  0  0  0  0  0  0  0  0  0  0
   14.7500   33.6682   71.0219 C   0  0  0  0  0  0  0  0  0  0  0  0
   13.5629   34.2274   70.5740 C   0  0  0  0  0  0  0  0  0  0  0  0
   13.6212   35.5231   70.0493 C   0  0  0  0  0  0  0  0  0  0  0  0
   14.8103   36.2062   69.9853 C   0  0  0  0  0  0  0  0  0  0  0  0
   20.8556   35.9762   66.5649 C   0  0  0  0  0  0  0  0  0  0  0  0
   20.6590   37.4127   66.7631 C   0  0  0  0  0  0  0  0  0  0  0  0
   19.3840   38.1065   66.5717 C   0  0  0  0  0  0  0  0  0  0  0  0
   18.5189   38.3027   67.5800 O   0  0  0  0  0  0  0  0  0  0  0  0
   17.2555   38.6967   67.4080 C   0  0  0  0  0  0  0  0  0  0  0  0
 20 21  1  0  0  0
 21 22  2  0  0  0
 21 26  1  0  0  0
 22 23  1  0  0  0
 22 12  1  0  0  0
 23 24  2  0  0  0
 24 25  1  0  0  0
 25 26  2  0  0  0
 12 13  1  0  0  0
 12 17  1  0  0  0
 13 14  1  0  0  0
 14 15  1  0  0  0
 15 16  1  0  0  0
 15 18  1  0  0  0
 16 17  1  0  0  0
 18 19  2  0  0  0
 18  1  1  0  0  0
  1  2  2  0  0  0
  1  6  1  0  0  0
  2  3  1  0  0  0
  3  4  1  0  0  0
  3 27  1  0  0  0
  4  5  2  0  0  0
  5  6  1  0  0  0
  5  9  1  0  0  0
  6  7  2  0  0  0
  7  8  1  0  0  0
  8  9  1  0  0  0
  9 10  2  0  0  0
 27 28  1  0  0  0
 28 29  1  0  0  0
 29 30  1  0  0  0
 30 31  1  0  0  0
  8 11  1  0  0  0
M  END
> <minimizedAffinity>
-8.59086

$$$$
1477


 35 39  0  0  0  0  0  0  0  0999 V2000
   18.3476   34.8480   71.0562 C   0  0  0  0  0  0  0  0  0  0  0  0
   19.5385   35.0278   70.3491 N   0  0  0  0  0  0  0  0  0  0  0  0
   19.9668   33.7093   69.8916 C   0  0  0  0  0  0  0  0  0  0  0  0
   20.9111   33.4381   69.1079 O   0  0  0  0  0  0  0  0  0  0  0  0
   19.1221   32.6864   70.4884 C   0  0  0  0  0  0  0  0  0  0  0  0
   19.2108   31.4269   70.3016 O   0  0  0  0  0  0  0  0  0  0  0  0
   18.1746   33.3824   71.3176 C   0  0  0  0  0  0  0  0  0  0  0  0
   17.2931   32.8137   72.1138 C   0  0  0  0  0  0  0  0  0  0  0  0
   16.4198   33.7061   72.7791 O   0  0  0  0  0  0  0  0  0  0  0  0
   17.1510   31.3914   72.3632 C   0  0  0  0  0  0  0  0  0  0  0  0
   17.9298   30.4942   72.9875 N   0  0  0  0  0  0  0  0  0  0  0  0
   17.4241   29.2524   72.9445 C   0  0  0  0  0  0  0  0  0  0  0  0
   16.2628   29.3507   72.2601 N   0  0  0  0  0  0  0  0  0  0  0  0
   16.0649   30.6197   71.8951 C   0  0  0  0  0  0  0  0  0  0  0  0
   14.9243   31.1531   71.1375 C   0  0  0  0  0  0  0  0  0  0  0  0
   18.0543   28.1756   73.5385 C   0  0  0  0  0  0  0  0  0  0  0  0
   19.2388   28.3815   74.1932 C   0  0  0  0  0  0  0  0  0  0  0  0
   19.7598   29.6606   74.2384 C   0  0  0  0  0  0  0  0  0  0  0  0
   19.1060   30.7104   73.6368 C   0  0  0  0  0  0  0  0  0  0  0  0
   13.2899   34.2560   69.5003 Br  0  0  0  0  0  0  0  0  0  0  0  0
   14.7864   35.3069   70.0074 C   0  0  0  0  0  0  0  0  0  0  0  0
   15.9926   34.7138   70.3090 C   0  0  0  0  0  0  0  0  0  0  0  0
   17.0993   35.4856   70.6870 C   0  0  0  0  0  0  0  0  0  0  0  0
   16.8757   36.8443   70.7265 C   0  0  0  0  0  0  0  0  0  0  0  0
   15.7001   37.4724   70.4348 C   0  0  0  0  0  0  0  0  0  0  0  0
   14.6297   36.6773   70.0667 C   0  0  0  0  0  0  0  0  0  0  0  0
   20.3063   36.2038   70.1593 C   0  0  0  0  0  0  0  0  0  0  0  0
   20.4207   36.8395   68.8488 C   0  0  0  0  0  0  0  0  0  0  0  0
   21.6197   37.5271   68.4690 N   0  0  0  0  0  0  0  0  0  0  0  0
   22.7384   36.7074   68.9348 C   0  0  0  0  0  0  0  0  0  0  0  0
   23.1737   35.6932   67.9265 C   0  0  0  0  0  0  0  0  0  0  0  0
   22.2346   35.5789   66.8900 O   0  0  0  0  0  0  0  0  0  0  0  0
   22.2585   36.7921   66.2392 C   0  0  0  0  0  0  0  0  0  0  0  0
   21.6770   37.8625   67.0863 C   0  0  0  0  0  0  0  0  0  0  0  0
   21.7482   38.4260   69.0221 H   0  0  0  0  0  0  0  0  0  0  0  0
 20 21  1  0  0  0
 21 22  2  0  0  0
 21 26  1  0  0  0
 22 23  1  0  0  0
 23 24  2  0  0  0
 23  1  1  0  0  0
 24 25  1  0  0  0
 25 26  2  0  0  0
  1  2  1  0  0  0
  1  7  1  0  0  0
  2  3  1  0  0  0
  2 27  1  0  0  0
  3  4  2  0  0  0
  3  5  1  0  0  0
  5  6  2  0  0  0
  5  7  1  0  0  0
  7  8  2  0  0  0
  8  9  1  0  0  0
  8 10  1  0  0  0
 10 11  1  0  0  0
 10 14  2  0  0  0
 11 12  1  0  0  0
 11 19  1  0  0  0
 12 13  2  0  0  0
 12 16  1  0  0  0
 13 14  1  0  0  0
 14 15  1  0  0  0
 16 17  2  0  0  0
 17 18  1  0  0  0
 18 19  2  0  0  0
 27 28  1  0  0  0
 28 29  1  0  0  0
 29 30  1  0  0  0
 29 34  1  0  0  0
 30 31  1  0  0  0
 31 32  1  0  0  0
 32 33  1  0  0  0
 33 34  1  0  0  0
 29 35  1  0  0  0
M  CHG 1   9  -1
M  CHG 1  29   1
M  END
> <minimizedAffinity>
-9.42057

$$$$
1486


 31 34  0  0  0  0  0  0  0  0999 V2000
   20.3801   36.4684   70.0897 N   0  0  0  0  0  0  0  0  0  0  0  0
   19.1521   36.9298   70.1574 N   0  0  0  0  0  0  0  0  0  0  0  0
   18.7366   37.3438   68.9512 C   0  0  0  0  0  0  0  0  0  0  0  0
   19.7478   37.1319   68.0963 N   0  0  0  0  0  0  0  0  0  0  0  0
   20.7713   36.5854   68.8163 C   0  0  0  0  0  0  0  0  0  0  0  0
   22.0769   36.1893   68.2915 C   0  0  0  0  0  0  0  0  0  0  0  0
   22.8226   37.3298   67.6399 C   0  0  0  0  0  0  0  0  0  0  0  0
   22.2144   37.7163   66.3098 C   0  0  0  0  0  0  0  0  0  0  0  0
   20.8931   38.4080   66.4440 C   0  0  0  0  0  0  0  0  0  0  0  0
   19.7507   37.4297   66.6776 C   0  0  0  0  0  0  0  0  0  0  0  0
   21.1597   35.9399   71.1690 C   0  0  0  0  0  0  0  0  0  0  0  0
   21.0248   34.4630   71.2778 C   0  0  0  0  0  0  0  0  0  0  0  0
   22.0269   33.7628   70.9739 O   0  0  0  0  0  0  0  0  0  0  0  0
   15.8343   31.6442   73.0740 Br  0  0  0  0  0  0  0  0  0  0  0  0
   17.4523   32.5182   72.5067 C   0  0  0  0  0  0  0  0  0  0  0  0
   18.0348   33.4803   73.3138 C   0  0  0  0  0  0  0  0  0  0  0  0
   19.2046   34.1163   72.9093 C   0  0  0  0  0  0  0  0  0  0  0  0
   19.8083   33.8106   71.7116 C   0  0  0  0  0  0  0  0  0  0  0  0
   19.2021   32.8497   70.9336 C   0  0  0  0  0  0  0  0  0  0  0  0
   18.0478   32.2065   71.3078 C   0  0  0  0  0  0  0  0  0  0  0  0
   17.4335   37.9225   68.5958 C   0  0  0  0  0  0  0  0  0  0  0  0
   16.5331   37.9747   69.7065 N   0  0  0  0  0  0  0  0  0  0  0  0
   16.5896   38.7508   70.3820 H   0  0  0  0  0  0  0  0  0  0  0  0
   15.5337   36.9876   69.9419 C   0  0  0  0  0  0  0  0  0  0  0  0
   14.2680   37.0810   69.4093 C   0  0  0  0  0  0  0  0  0  0  0  0
   13.3156   36.1218   69.6388 C   0  0  0  0  0  0  0  0  0  0  0  0
   13.6192   35.0457   70.4123 C   0  0  0  0  0  0  0  0  0  0  0  0
   14.8846   34.9489   70.9476 C   0  0  0  0  0  0  0  0  0  0  0  0
   15.8510   35.9073   70.7227 C   0  0  0  0  0  0  0  0  0  0  0  0
   12.6844   34.0690   70.6602 O   0  0  0  0  0  0  0  0  0  0  0  0
   12.8541   33.0804   71.6456 C   0  0  0  0  0  0  0  0  0  0  0  0
 14 15  1  0  0  0
 15 16  2  0  0  0
 15 20  1  0  0  0
 16 17  1  0  0  0
 17 18  2  0  0  0
 18 19  1  0  0  0
 18 12  1  0  0  0
 19 20  2  0  0  0
 12 13  2  0  0  0
 12 11  1  0  0  0
 11  1  1  0  0  0
  1  2  1  0  0  0
  1  5  2  0  0  0
  2  3  2  0  0  0
  3  4  1  0  0  0
  3 21  1  0  0  0
  4  5  1  0  0  0
  4 10  1  0  0  0
  5  6  1  0  0  0
  6  7  1  0  0  0
  7  8  1  0  0  0
  8  9  1  0  0  0
  9 10  1  0  0  0
 21 22  1  0  0  0
 22 24  1  0  0  0
 24 25  2  0  0  0
 24 29  1  0  0  0
 25 26  1  0  0  0
 26 27  2  0  0  0
 27 28  1  0  0  0
 27 30  1  0  0  0
 28 29  2  0  0  0
 30 31  1  0  0  0
 22 23  1  0  0  0
M  END
> <minimizedAffinity>
-8.80729

$$$$
1487


 29 32  0  0  0  0  0  0  0  0999 V2000
   21.1239   34.2799   72.1263 N   0  0  0  0  0  0  0  0  0  0  0  0
   20.3779   35.5126   72.0824 C   0  0  0  0  0  0  0  0  0  0  0  0
   20.8258   36.3768   70.9799 C   0  0  0  0  0  0  0  0  0  0  0  0
   21.8999   35.6325   70.3859 N   0  0  0  0  0  0  0  0  0  0  0  0
   23.0238   36.0289   69.5707 C   0  0  0  0  0  0  0  0  0  0  0  0
   23.0734   35.4046   68.2133 C   0  0  0  0  0  0  0  0  0  0  0  0
   22.1054   34.2962   67.9883 C   0  0  0  0  0  0  0  0  0  0  0  0
   22.6278   33.0480   68.7351 C   0  0  0  0  0  0  0  0  0  0  0  0
   22.0108   33.1648   70.1174 C   0  0  0  0  0  0  0  0  0  0  0  0
   21.7173   34.2499   70.7967 C   0  0  0  0  0  0  0  0  0  0  0  0
   21.4070   37.5608   71.5133 O   0  0  0  0  0  0  0  0  0  0  0  0
   21.8930   34.2191   72.7845 H   0  0  0  0  0  0  0  0  0  0  0  0
   21.0264   37.6467   72.4488 H   0  0  0  0  0  0  0  0  0  0  0  0
   16.7665   31.7266   70.9348 Cl  0  0  0  0  0  0  0  0  0  0  0  0
   18.3098   31.8499   71.7661 C   0  0  0  0  0  0  0  0  0  0  0  0
   19.1190   32.9701   71.5952 C   0  0  0  0  0  0  0  0  0  0  0  0
   20.3430   33.0963   72.2045 C   0  0  0  0  0  0  0  0  0  0  0  0
   20.7359   32.0271   73.0185 C   0  0  0  0  0  0  0  0  0  0  0  0
   19.9433   30.8996   73.2019 C   0  0  0  0  0  0  0  0  0  0  0  0
   18.7301   30.8120   72.5730 C   0  0  0  0  0  0  0  0  0  0  0  0
   19.8261   36.8341   70.0454 C   0  0  0  0  0  0  0  0  0  0  0  0
   20.1233   37.2595   68.7506 C   0  0  0  0  0  0  0  0  0  0  0  0
   19.1547   37.6753   67.8473 C   0  0  0  0  0  0  0  0  0  0  0  0
   17.8193   37.6674   68.2503 C   0  0  0  0  0  0  0  0  0  0  0  0
   17.4855   37.2598   69.5096 C   0  0  0  0  0  0  0  0  0  0  0  0
   18.4943   36.8461   70.3941 C   0  0  0  0  0  0  0  0  0  0  0  0
   19.5288   38.0939   66.5501 N   0  0  0  0  0  0  0  0  0  0  0  0
   20.1196   37.2796   65.7742 O   0  0  0  0  0  0  0  0  0  0  0  0
   19.2984   39.3300   66.0738 O   0  0  0  0  0  0  0  0  0  0  0  0
 14 15  1  0  0  0
 15 16  2  0  0  0
 15 20  1  0  0  0
 16 17  1  0  0  0
 17 18  2  0  0  0
 17  1  1  0  0  0
 18 19  1  0  0  0
 19 20  2  0  0  0
  1  2  1  0  0  0
  1 10  1  0  0  0
  2  3  1  0  0  0
  3  4  1  0  0  0
  3 11  1  0  0  0
  3 21  1  0  0  0
  4  5  1  0  0  0
  4 10  1  0  0  0
  5  6  1  0  0  0
  6  7  1  0  0  0
  7  8  1  0  0  0
  8  9  1  0  0  0
  9 10  2  0  0  0
 21 22  2  0  0  0
 21 26  1  0  0  0
 22 23  1  0  0  0
 23 24  2  0  0  0
 23 27  1  0  0  0
 24 25  1  0  0  0
 25 26  2  0  0  0
 27 28  2  0  0  0
 27 29  1  0  0  0
  1 12  1  0  0  0
 11 13  1  0  0  0
M  CHG 1   1   1
M  CHG 1  29  -1
M  END
> <minimizedAffinity>
-8.30119

$$$$
1491


 34 38  0  0  0  0  0  0  0  0999 V2000
   17.4078   38.6877   68.3713 F   0  0  0  0  0  0  0  0  0  0  0  0
   17.3666   37.5810   69.1344 C   0  0  0  0  0  0  0  0  0  0  0  0
   16.0798   37.1241   69.4042 C   0  0  0  0  0  0  0  0  0  0  0  0
   15.8849   35.9948   70.1680 C   0  0  0  0  0  0  0  0  0  0  0  0
   16.9939   35.3397   70.6484 C   0  0  0  0  0  0  0  0  0  0  0  0
   18.2719   35.8115   70.3664 C   0  0  0  0  0  0  0  0  0  0  0  0
   18.4789   36.9335   69.6099 C   0  0  0  0  0  0  0  0  0  0  0  0
   16.7788   34.2361   71.3923 N   0  0  0  0  0  0  0  0  0  0  0  0
   15.5453   33.7753   71.6671 C   0  0  0  0  0  0  0  0  0  0  0  0
   14.4144   34.4088   71.2013 C   0  0  0  0  0  0  0  0  0  0  0  0
   14.5871   35.5391   70.4376 C   0  0  0  0  0  0  0  0  0  0  0  0
   13.6002   36.1632   69.9813 O   0  0  0  0  0  0  0  0  0  0  0  0
   19.7755   37.3807   69.3572 N   0  0  0  0  0  0  0  0  0  0  0  0
   20.2521   37.1844   68.0119 C   0  0  0  0  0  0  0  0  0  0  0  0
   21.6343   37.8582   67.8421 C   0  0  0  0  0  0  0  0  0  0  0  0
   22.4987   37.1720   68.7191 N   0  0  0  0  0  0  0  0  0  0  0  0
   22.1294   37.4736   70.1567 C   0  0  0  0  0  0  0  0  0  0  0  0
   20.7538   36.8919   70.2725 C   0  0  0  0  0  0  0  0  0  0  0  0
   23.5137   36.2958   68.5316 C   0  0  0  0  0  0  0  0  0  0  0  0
   24.1428   35.9241   69.6205 O   0  0  0  0  0  0  0  0  0  0  0  0
   19.7555   38.4386   69.4924 H   0  0  0  0  0  0  0  0  0  0  0  0
   24.0363   35.6905   67.3384 C   0  0  0  0  0  0  0  0  0  0  0  0
   24.6094   36.3783   66.3182 C   0  0  0  0  0  0  0  0  0  0  0  0
   25.1517   35.7455   65.2069 C   0  0  0  0  0  0  0  0  0  0  0  0
   25.1080   34.3775   65.1286 C   0  0  0  0  0  0  0  0  0  0  0  0
   24.5409   33.6372   66.1269 C   0  0  0  0  0  0  0  0  0  0  0  0
   24.0189   34.2866   67.2043 C   0  0  0  0  0  0  0  0  0  0  0  0
   25.8896   36.6824   63.9055 Cl  0  0  0  0  0  0  0  0  0  0  0  0
   13.0686   33.8907   71.5124 C   0  0  0  0  0  0  0  0  0  0  0  0
   12.0320   34.4479   71.1182 O   0  0  0  0  0  0  0  0  0  0  0  0
   12.9766   32.7439   72.2679 O   0  0  0  0  0  0  0  0  0  0  0  0
   17.9742   33.5504   71.8967 C   0  0  0  0  0  0  0  0  0  0  0  0
   17.8714   32.5074   72.9219 C   0  0  0  0  0  0  0  0  0  0  0  0
   18.2626   33.8311   73.4089 C   0  0  0  0  0  0  0  0  0  0  0  0
  1  2  1  0  0  0
  2  3  2  0  0  0
  2  7  1  0  0  0
  3  4  1  0  0  0
  4  5  2  0  0  0
  4 11  1  0  0  0
  5  6  1  0  0  0
  5  8  1  0  0  0
  6  7  2  0  0  0
  7 13  1  0  0  0
 13 14  1  0  0  0
 13 18  1  0  0  0
 14 15  1  0  0  0
 15 16  1  0  0  0
 16 17  1  0  0  0
 16 19  1  0  0  0
 17 18  1  0  0  0
 19 20  2  0  0  0
 19 22  1  0  0  0
 22 23  2  0  0  0
 22 27  1  0  0  0
 23 24  1  0  0  0
 24 25  2  0  0  0
 24 28  1  0  0  0
 25 26  1  0  0  0
 26 27  2  0  0  0
  8  9  1  0  0  0
  8 32  1  0  0  0
  9 10  2  0  0  0
 10 11  1  0  0  0
 10 29  1  0  0  0
 11 12  2  0  0  0
 29 30  2  0  0  0
 29 31  1  0  0  0
 32 33  1  0  0  0
 32 34  1  0  0  0
 33 34  1  0  0  0
 13 21  1  0  0  0
M  CHG 1  13   1
M  END
> <minimizedAffinity>
-10.36772

$$$$
1506


 32 35  0  0  0  0  0  0  0  0999 V2000
   18.5835   31.3051   73.3596 N   0  0  0  0  0  0  0  0  0  0  0  0
   19.5219   31.8353   72.4022 C   0  0  0  0  0  0  0  0  0  0  0  0
   19.7461   31.1995   71.3604 O   0  0  0  0  0  0  0  0  0  0  0  0
   18.4272   31.8926   74.1746 H   0  0  0  0  0  0  0  0  0  0  0  0
   20.2230   33.1203   72.6335 C   0  0  0  0  0  0  0  0  0  0  0  0
   19.1792   34.1805   72.9053 C   0  0  0  0  0  0  0  0  0  0  0  0
   18.4711   34.4564   71.5978 C   0  0  0  0  0  0  0  0  0  0  0  0
   19.4468   35.1496   70.7618 N   0  0  0  0  0  0  0  0  0  0  0  0
   20.8254   34.8042   70.8410 C   0  0  0  0  0  0  0  0  0  0  0  0
   21.1237   33.5190   71.5235 C   0  0  0  0  0  0  0  0  0  0  0  0
   18.9637   36.1544   69.8920 C   0  0  0  0  0  0  0  0  0  0  0  0
   19.6905   36.6522   68.8733 N   0  0  0  0  0  0  0  0  0  0  0  0
   19.2552   37.5910   68.0540 N   0  0  0  0  0  0  0  0  0  0  0  0
   19.8204   38.1929   67.0127 N   0  0  0  0  0  0  0  0  0  0  0  0
   19.0063   39.0723   66.4934 N   0  0  0  0  0  0  0  0  0  0  0  0
   17.8916   39.0544   67.1929 N   0  0  0  0  0  0  0  0  0  0  0  0
   18.0380   38.1339   68.1691 C   0  0  0  0  0  0  0  0  0  0  0  0
   17.2416   37.6648   69.1984 C   0  0  0  0  0  0  0  0  0  0  0  0
   17.6950   36.6829   70.0561 C   0  0  0  0  0  0  0  0  0  0  0  0
   17.9676   30.0766   73.0458 C   0  0  0  0  0  0  0  0  0  0  0  0
   16.6404   30.0063   72.4135 C   0  0  0  0  0  0  0  0  0  0  0  0
   14.9021   31.8593   72.1669 C   0  0  0  0  0  0  0  0  0  0  0  0
   14.1111   31.4575   73.0467 O   0  0  0  0  0  0  0  0  0  0  0  0
   16.0807   31.1879   71.8776 N   0  0  0  0  0  0  0  0  0  0  0  0
   16.6568   31.6942   71.0725 H   0  0  0  0  0  0  0  0  0  0  0  0
   13.1641   36.8178   69.2354 Cl  0  0  0  0  0  0  0  0  0  0  0  0
   13.6827   35.3801   70.1005 C   0  0  0  0  0  0  0  0  0  0  0  0
   13.2143   34.1368   69.7092 C   0  0  0  0  0  0  0  0  0  0  0  0
   13.6265   33.0166   70.3916 C   0  0  0  0  0  0  0  0  0  0  0  0
   14.4953   33.0955   71.4583 C   0  0  0  0  0  0  0  0  0  0  0  0
   14.9445   34.3361   71.8277 C   0  0  0  0  0  0  0  0  0  0  0  0
   14.5467   35.4949   71.1568 C   0  0  0  0  0  0  0  0  0  0  0  0
 26 27  1  0  0  0
 27 28  2  0  0  0
 27 32  1  0  0  0
 28 29  1  0  0  0
 29 30  2  0  0  0
 30 31  1  0  0  0
 30 22  1  0  0  0
 31 32  2  0  0  0
 22 23  2  0  0  0
 22 24  1  0  0  0
 24 21  1  0  0  0
 21 20  1  0  0  0
 20  1  1  0  0  0
  1  2  1  0  0  0
  2  3  2  0  0  0
  2  5  1  0  0  0
  5  6  1  0  0  0
  5 10  1  0  0  0
  6  7  1  0  0  0
  7  8  1  0  0  0
  8  9  1  0  0  0
  8 11  1  0  0  0
  9 10  1  0  0  0
 11 12  2  0  0  0
 11 19  1  0  0  0
 12 13  1  0  0  0
 13 14  1  0  0  0
 13 17  1  0  0  0
 14 15  2  0  0  0
 15 16  1  0  0  0
 16 17  2  0  0  0
 17 18  1  0  0  0
 18 19  2  0  0  0
 24 25  1  0  0  0
  1  4  1  0  0  0
M  END
> <minimizedAffinity>
-9.93194

$$$$
1507


 32 35  0  0  0  0  0  0  0  0999 V2000
   19.0528   35.1037   70.3966 C   0  0  0  0  0  0  0  0  0  0  0  0
   18.9217   34.0164   71.1287 C   0  0  0  0  0  0  0  0  0  0  0  0
   17.6817   33.3766   71.6764 C   0  0  0  0  0  0  0  0  0  0  0  0
   17.9406   31.9995   71.4608 N   0  0  0  0  0  0  0  0  0  0  0  0
   19.3322   31.8428   71.8748 C   0  0  0  0  0  0  0  0  0  0  0  0
   19.8878   30.8082   72.3269 O   0  0  0  0  0  0  0  0  0  0  0  0
   19.9644   33.1394   71.6605 C   0  0  0  0  0  0  0  0  0  0  0  0
   21.1672   33.5117   71.8672 O   0  0  0  0  0  0  0  0  0  0  0  0
   17.9643   35.8658   70.0104 O   0  0  0  0  0  0  0  0  0  0  0  0
   24.5629   37.0239   68.3780 Br  0  0  0  0  0  0  0  0  0  0  0  0
   22.8508   36.4162   69.0081 C   0  0  0  0  0  0  0  0  0  0  0  0
   22.2220   37.0159   70.0749 C   0  0  0  0  0  0  0  0  0  0  0  0
   21.0070   36.6258   70.5643 C   0  0  0  0  0  0  0  0  0  0  0  0
   20.3642   35.5638   69.9557 C   0  0  0  0  0  0  0  0  0  0  0  0
   20.9709   34.9467   68.8860 C   0  0  0  0  0  0  0  0  0  0  0  0
   22.2144   35.3563   68.3954 C   0  0  0  0  0  0  0  0  0  0  0  0
   16.4671   34.0116   71.2874 C   0  0  0  0  0  0  0  0  0  0  0  0
   15.9124   33.7076   70.0677 C   0  0  0  0  0  0  0  0  0  0  0  0
   14.7354   34.2650   69.6294 C   0  0  0  0  0  0  0  0  0  0  0  0
   14.0504   35.1748   70.4218 C   0  0  0  0  0  0  0  0  0  0  0  0
   14.6238   35.4672   71.6435 C   0  0  0  0  0  0  0  0  0  0  0  0
   15.8039   34.9038   72.0750 C   0  0  0  0  0  0  0  0  0  0  0  0
   12.5537   35.8902   69.8775 Cl  0  0  0  0  0  0  0  0  0  0  0  0
   17.1430   30.8718   71.0192 C   0  0  0  0  0  0  0  0  0  0  0  0
   16.7417   29.8779   72.0383 C   0  0  0  0  0  0  0  0  0  0  0  0
   15.2947   29.6489   72.1152 N   0  0  0  0  0  0  0  0  0  0  0  0
   14.5880   30.7896   71.6420 C   0  0  0  0  0  0  0  0  0  0  0  0
   13.7533   31.5189   72.6355 C   0  0  0  0  0  0  0  0  0  0  0  0
   13.2702   30.7584   73.6831 O   0  0  0  0  0  0  0  0  0  0  0  0
   14.4226   30.2786   74.3467 C   0  0  0  0  0  0  0  0  0  0  0  0
   15.0018   29.2363   73.4564 C   0  0  0  0  0  0  0  0  0  0  0  0
   15.1256   28.8154   71.4722 H   0  0  0  0  0  0  0  0  0  0  0  0
 10 11  1  0  0  0
 11 12  2  0  0  0
 11 16  1  0  0  0
 12 13  1  0  0  0
 13 14  2  0  0  0
 14 15  1  0  0  0
 14  1  1  0  0  0
 15 16  2  0  0  0
  1  2  2  0  0  0
  1  9  1  0  0  0
  2  3  1  0  0  0
  2  7  1  0  0  0
  3  4  1  0  0  0
  3 17  1  0  0  0
  4  5  1  0  0  0
  4 24  1  0  0  0
  5  6  2  0  0  0
  5  7  1  0  0  0
  7  8  2  0  0  0
 24 25  1  0  0  0
 25 26  1  0  0  0
 26 27  1  0  0  0
 26 31  1  0  0  0
 27 28  1  0  0  0
 28 29  1  0  0  0
 29 30  1  0  0  0
 30 31  1  0  0  0
 17 18  2  0  0  0
 17 22  1  0  0  0
 18 19  1  0  0  0
 19 20  2  0  0  0
 20 21  1  0  0  0
 20 23  1  0  0  0
 21 22  2  0  0  0
 26 32  1  0  0  0
M  CHG 1   9  -1
M  CHG 1  26   1
M  END
> <minimizedAffinity>
-8.05146

$$$$
1511


 34 37  0  0  0  0  0  0  0  0999 V2000
   22.9221   36.8766   66.8270 N   0  0  0  0  0  0  0  0  0  0  0  0
   22.5148   36.4923   68.0476 C   0  0  0  0  0  0  0  0  0  0  0  0
   22.1182   37.3111   68.9160 O   0  0  0  0  0  0  0  0  0  0  0  0
   22.5955   35.1173   68.1923 C   0  0  0  0  0  0  0  0  0  0  0  0
   23.0605   34.6588   67.0373 C   0  0  0  0  0  0  0  0  0  0  0  0
   23.1391   33.3266   67.1781 N   0  0  0  0  0  0  0  0  0  0  0  0
   22.7329   32.9813   68.3867 N   0  0  0  0  0  0  0  0  0  0  0  0
   22.3936   34.0686   69.0262 N   0  0  0  0  0  0  0  0  0  0  0  0
   23.2641   35.7318   66.1950 C   0  0  0  0  0  0  0  0  0  0  0  0
   23.7060   35.6589   65.0006 O   0  0  0  0  0  0  0  0  0  0  0  0
   23.4646   32.6399   66.4691 H   0  0  0  0  0  0  0  0  0  0  0  0
   22.6803   32.0000   68.7930 H   0  0  0  0  0  0  0  0  0  0  0  0
   23.1368   42.5264   64.3798 Br  0  0  0  0  0  0  0  0  0  0  0  0
   23.0854   40.7686   65.1381 C   0  0  0  0  0  0  0  0  0  0  0  0
   24.2250   39.9945   65.2330 C   0  0  0  0  0  0  0  0  0  0  0  0
   24.1821   38.7179   65.7855 C   0  0  0  0  0  0  0  0  0  0  0  0
   23.0035   38.1774   66.2562 C   0  0  0  0  0  0  0  0  0  0  0  0
   21.8699   38.9540   66.1586 C   0  0  0  0  0  0  0  0  0  0  0  0
   21.9104   40.2203   65.6121 C   0  0  0  0  0  0  0  0  0  0  0  0
   21.8923   34.1784   70.3754 C   0  0  0  0  0  0  0  0  0  0  0  0
   20.3954   34.3799   70.3322 C   0  0  0  0  0  0  0  0  0  0  0  0
   19.6529   33.3944   70.1260 O   0  0  0  0  0  0  0  0  0  0  0  0
   19.8519   35.6588   70.5219 N   0  0  0  0  0  0  0  0  0  0  0  0
   20.5479   36.4554   70.6942 H   0  0  0  0  0  0  0  0  0  0  0  0
   18.4808   35.9831   70.5123 C   0  0  0  0  0  0  0  0  0  0  0  0
   17.4733   35.2406   71.0745 C   0  0  0  0  0  0  0  0  0  0  0  0
   16.1443   35.6054   71.0153 C   0  0  0  0  0  0  0  0  0  0  0  0
   15.8216   36.7742   70.3583 C   0  0  0  0  0  0  0  0  0  0  0  0
   16.8091   37.5534   69.7777 C   0  0  0  0  0  0  0  0  0  0  0  0
   18.1210   37.1713   69.8476 C   0  0  0  0  0  0  0  0  0  0  0  0
   14.4860   37.1610   70.2874 O   0  0  0  0  0  0  0  0  0  0  0  0
   13.6759   36.6549   69.2451 C   0  0  0  0  0  0  0  0  0  0  0  0
   15.1427   34.8307   71.5962 O   0  0  0  0  0  0  0  0  0  0  0  0
   15.2202   33.4097   71.4236 C   0  0  0  0  0  0  0  0  0  0  0  0
 13 14  1  0  0  0
 14 15  2  0  0  0
 14 19  1  0  0  0
 15 16  1  0  0  0
 16 17  2  0  0  0
 17 18  1  0  0  0
 17  1  1  0  0  0
 18 19  2  0  0  0
  1  2  1  0  0  0
  1  9  1  0  0  0
  2  3  2  0  0  0
  2  4  1  0  0  0
  4  5  2  0  0  0
  4  8  1  0  0  0
  5  6  1  0  0  0
  5  9  1  0  0  0
  6  7  1  0  0  0
  7  8  1  0  0  0
  8 20  1  0  0  0
 20 21  1  0  0  0
 21 22  2  0  0  0
 21 23  1  0  0  0
 23 25  1  0  0  0
 25 26  2  0  0  0
 25 30  1  0  0  0
 26 27  1  0  0  0
 27 28  2  0  0  0
 27 33  1  0  0  0
 28 29  1  0  0  0
 28 31  1  0  0  0
 29 30  2  0  0  0
 31 32  1  0  0  0
 33 34  1  0  0  0
  9 10  2  0  0  0
  6 11  1  0  0  0
  7 12  1  0  0  0
 23 24  1  0  0  0
M  END
> <minimizedAffinity>
-9.18543

$$$$
1516


 30 33  0  0  0  0  0  0  0  0999 V2000
   18.6513   37.3580   68.9046 C   0  0  0  0  0  0  0  0  0  0  0  0
   17.8416   37.9066   68.0279 O   0  0  0  0  0  0  0  0  0  0  0  0
   19.8999   37.0308   68.3949 N   0  0  0  0  0  0  0  0  0  0  0  0
   20.9593   36.4568   69.1574 C   0  0  0  0  0  0  0  0  0  0  0  0
   22.2565   36.5594   68.3226 C   0  0  0  0  0  0  0  0  0  0  0  0
   22.0844   35.6139   67.1490 C   0  0  0  0  0  0  0  0  0  0  0  0
   21.9113   34.3051   67.6296 N   0  0  0  0  0  0  0  0  0  0  0  0
   23.0157   33.5003   67.9326 C   0  0  0  0  0  0  0  0  0  0  0  0
   24.2104   33.6143   67.0625 C   0  0  0  0  0  0  0  0  0  0  0  0
   24.2277   34.8368   66.2321 C   0  0  0  0  0  0  0  0  0  0  0  0
   25.1638   35.2236   65.3438 N   0  0  0  0  0  0  0  0  0  0  0  0
   24.7810   36.3920   64.8198 C   0  0  0  0  0  0  0  0  0  0  0  0
   23.6007   36.7399   65.3808 N   0  0  0  0  0  0  0  0  0  0  0  0
   23.2433   35.7855   66.2602 C   0  0  0  0  0  0  0  0  0  0  0  0
   20.7898   36.0135   66.4205 C   0  0  0  0  0  0  0  0  0  0  0  0
   20.1970   37.2787   66.9750 C   0  0  0  0  0  0  0  0  0  0  0  0
   20.9895   33.9999   67.9181 H   0  0  0  0  0  0  0  0  0  0  0  0
   23.0676   37.6017   65.1651 H   0  0  0  0  0  0  0  0  0  0  0  0
   18.0716   37.2073   70.2381 C   0  0  0  0  0  0  0  0  0  0  0  0
   15.4116   36.6481   70.4226 C   0  0  0  0  0  0  0  0  0  0  0  0
   14.4536   37.4608   70.3456 O   0  0  0  0  0  0  0  0  0  0  0  0
   16.7344   36.9256   70.3309 N   0  0  0  0  0  0  0  0  0  0  0  0
   16.4684   38.2718   70.2214 H   0  0  0  0  0  0  0  0  0  0  0  0
   13.7747   30.9559   71.2692 Cl  0  0  0  0  0  0  0  0  0  0  0  0
   14.2662   32.6259   71.0249 C   0  0  0  0  0  0  0  0  0  0  0  0
   13.5453   33.3995   70.1586 C   0  0  0  0  0  0  0  0  0  0  0  0
   13.9312   34.7300   69.9656 C   0  0  0  0  0  0  0  0  0  0  0  0
   15.0103   35.2197   70.6402 C   0  0  0  0  0  0  0  0  0  0  0  0
   15.7271   34.4579   71.4991 C   0  0  0  0  0  0  0  0  0  0  0  0
   15.3451   33.1166   71.7007 C   0  0  0  0  0  0  0  0  0  0  0  0
 24 25  1  0  0  0
 25 26  2  0  0  0
 25 30  1  0  0  0
 26 27  1  0  0  0
 27 28  2  0  0  0
 28 29  1  0  0  0
 28 20  1  0  0  0
 29 30  2  0  0  0
 20 21  2  0  0  0
 20 22  1  0  0  0
 22 19  1  0  0  0
 19  1  1  0  0  0
  1  2  2  0  0  0
  1  3  1  0  0  0
  3  4  1  0  0  0
  3 16  1  0  0  0
  4  5  1  0  0  0
  5  6  1  0  0  0
  6  7  1  0  0  0
  6 14  1  0  0  0
  6 15  1  0  0  0
  7  8  1  0  0  0
  8  9  1  0  0  0
  9 10  1  0  0  0
 10 11  1  0  0  0
 10 14  2  0  0  0
 11 12  2  0  0  0
 12 13  1  0  0  0
 13 14  1  0  0  0
 15 16  1  0  0  0
 22 23  1  0  0  0
  7 17  1  0  0  0
 13 18  1  0  0  0
M  END
> <minimizedAffinity>
-9.69196

$$$$
1518


 31 34  0  0  0  0  0  0  0  0999 V2000
   19.2325   37.0357   69.3320 C   0  0  0  0  0  0  0  0  0  0  0  0
   19.3287   36.6471   70.5218 O   0  0  0  0  0  0  0  0  0  0  0  0
   20.3403   36.9417   68.4575 N   0  0  0  0  0  0  0  0  0  0  0  0
   20.2933   37.3738   67.0752 C   0  0  0  0  0  0  0  0  0  0  0  0
   21.2142   36.4644   66.2754 C   0  0  0  0  0  0  0  0  0  0  0  0
   22.6603   36.6312   66.7409 C   0  0  0  0  0  0  0  0  0  0  0  0
   23.2846   35.3458   66.6188 N   0  0  0  0  0  0  0  0  0  0  0  0
   24.7272   35.4457   66.5601 C   0  0  0  0  0  0  0  0  0  0  0  0
   25.1177   36.0441   65.2106 C   0  0  0  0  0  0  0  0  0  0  0  0
   24.4846   37.3934   65.1548 C   0  0  0  0  0  0  0  0  0  0  0  0
   24.8288   38.5318   64.4817 N   0  0  0  0  0  0  0  0  0  0  0  0
   23.9177   39.4760   64.7758 C   0  0  0  0  0  0  0  0  0  0  0  0
   23.0194   38.9360   65.6188 N   0  0  0  0  0  0  0  0  0  0  0  0
   23.3394   37.6341   65.8797 C   0  0  0  0  0  0  0  0  0  0  0  0
   22.7095   37.0708   68.1887 C   0  0  0  0  0  0  0  0  0  0  0  0
   21.5960   36.3933   68.9314 C   0  0  0  0  0  0  0  0  0  0  0  0
   23.0001   34.7043   67.3850 H   0  0  0  0  0  0  0  0  0  0  0  0
   25.6715   38.5733   63.8657 H   0  0  0  0  0  0  0  0  0  0  0  0
   17.9369   37.5903   68.8801 C   0  0  0  0  0  0  0  0  0  0  0  0
   16.9153   37.6405   69.9717 C   0  0  0  0  0  0  0  0  0  0  0  0
   15.2275   35.8966   70.6186 C   0  0  0  0  0  0  0  0  0  0  0  0
   14.2891   36.7299   70.5438 O   0  0  0  0  0  0  0  0  0  0  0  0
   16.5376   36.2919   70.3471 N   0  0  0  0  0  0  0  0  0  0  0  0
   17.3303   35.6084   70.4031 H   0  0  0  0  0  0  0  0  0  0  0  0
   13.8942   30.2659   72.2287 Cl  0  0  0  0  0  0  0  0  0  0  0  0
   14.3175   31.9063   71.7805 C   0  0  0  0  0  0  0  0  0  0  0  0
   13.4588   32.6110   70.9487 C   0  0  0  0  0  0  0  0  0  0  0  0
   13.7324   33.9123   70.5558 C   0  0  0  0  0  0  0  0  0  0  0  0
   14.8828   34.5283   70.9961 C   0  0  0  0  0  0  0  0  0  0  0  0
   15.7272   33.7969   71.8305 C   0  0  0  0  0  0  0  0  0  0  0  0
   15.4721   32.5131   72.2286 C   0  0  0  0  0  0  0  0  0  0  0  0
 25 26  1  0  0  0
 26 27  2  0  0  0
 26 31  1  0  0  0
 27 28  1  0  0  0
 28 29  2  0  0  0
 29 30  1  0  0  0
 29 21  1  0  0  0
 30 31  2  0  0  0
 21 22  2  0  0  0
 21 23  1  0  0  0
 23 20  1  0  0  0
 20 19  1  0  0  0
 19  1  1  0  0  0
  1  2  2  0  0  0
  1  3  1  0  0  0
  3  4  1  0  0  0
  3 16  1  0  0  0
  4  5  1  0  0  0
  5  6  1  0  0  0
  6  7  1  0  0  0
  6 14  1  0  0  0
  6 15  1  0  0  0
  7  8  1  0  0  0
  8  9  1  0  0  0
  9 10  1  0  0  0
 10 11  1  0  0  0
 10 14  2  0  0  0
 11 12  1  0  0  0
 12 13  2  0  0  0
 13 14  1  0  0  0
 15 16  1  0  0  0
 23 24  1  0  0  0
  7 17  1  0  0  0
 11 18  1  0  0  0
M  END
> <minimizedAffinity>
-9.34486

$$$$
1521


 24 27  0  0  0  0  0  0  0  0999 V2000
   12.9295   34.5893   69.3380 Cl  0  0  0  0  0  0  0  0  0  0  0  0
   14.3428   35.4662   69.8865 C   0  0  0  0  0  0  0  0  0  0  0  0
   15.4724   34.7711   70.2442 C   0  0  0  0  0  0  0  0  0  0  0  0
   15.8054   33.4701   70.2869 N   0  0  0  0  0  0  0  0  0  0  0  0
   17.0681   33.2971   70.7211 C   0  0  0  0  0  0  0  0  0  0  0  0
   17.5510   34.5654   70.9648 C   0  0  0  0  0  0  0  0  0  0  0  0
   16.5735   35.4924   70.6743 C   0  0  0  0  0  0  0  0  0  0  0  0
   16.5017   36.8695   70.7283 C   0  0  0  0  0  0  0  0  0  0  0  0
   15.3856   37.5874   70.3764 C   0  0  0  0  0  0  0  0  0  0  0  0
   14.2816   36.8589   69.9456 C   0  0  0  0  0  0  0  0  0  0  0  0
   18.9488   34.6373   71.4579 C   0  0  0  0  0  0  0  0  0  0  0  0
   19.7104   33.8378   70.5251 N   0  0  0  0  0  0  0  0  0  0  0  0
   19.4233   32.4567   70.5550 C   0  0  0  0  0  0  0  0  0  0  0  0
   18.0015   32.1831   70.9898 C   0  0  0  0  0  0  0  0  0  0  0  0
   15.1883   32.6514   70.0226 H   0  0  0  0  0  0  0  0  0  0  0  0
   21.0348   34.2521   70.3343 C   0  0  0  0  0  0  0  0  0  0  0  0
   21.2412   34.9983   69.0514 C   0  0  0  0  0  0  0  0  0  0  0  0
   20.3549   36.1866   68.9047 C   0  0  0  0  0  0  0  0  0  0  0  0
   21.1293   37.3594   68.6853 N   0  0  0  0  0  0  0  0  0  0  0  0
   22.5152   37.0246   68.7385 C   0  0  0  0  0  0  0  0  0  0  0  0
   22.6332   35.5708   69.0491 C   0  0  0  0  0  0  0  0  0  0  0  0
   21.1577   34.1379   67.9494 O   0  0  0  0  0  0  0  0  0  0  0  0
   20.8743   37.8800   67.8128 H   0  0  0  0  0  0  0  0  0  0  0  0
   20.9014   34.7093   67.1780 H   0  0  0  0  0  0  0  0  0  0  0  0
  1  2  1  0  0  0
  2  3  2  0  0  0
  2 10  1  0  0  0
  3  4  1  0  0  0
  3  7  1  0  0  0
  4  5  1  0  0  0
  5  6  2  0  0  0
  5 14  1  0  0  0
  6  7  1  0  0  0
  6 11  1  0  0  0
  7  8  2  0  0  0
  8  9  1  0  0  0
  9 10  2  0  0  0
 11 12  1  0  0  0
 12 13  1  0  0  0
 12 16  1  0  0  0
 13 14  1  0  0  0
 16 17  1  0  0  0
 17 18  1  0  0  0
 17 21  1  0  0  0
 17 22  1  0  0  0
 18 19  1  0  0  0
 19 20  1  0  0  0
 20 21  1  0  0  0
  4 15  1  0  0  0
 19 23  1  0  0  0
 22 24  1  0  0  0
M  END
> <minimizedAffinity>
-8.06799

$$$$
1523


 25 28  0  0  0  0  0  0  0  0999 V2000
   20.2111   32.2576   70.8235 C   0  0  0  0  0  0  0  0  0  0  0  0
   20.8368   31.2086   70.4381 O   0  0  0  0  0  0  0  0  0  0  0  0
   20.8957   33.4557   71.0305 N   0  0  0  0  0  0  0  0  0  0  0  0
   22.3154   33.5110   70.8155 C   0  0  0  0  0  0  0  0  0  0  0  0
   22.5835   34.4099   69.6402 C   0  0  0  0  0  0  0  0  0  0  0  0
   21.7876   35.5983   69.7561 N   0  0  0  0  0  0  0  0  0  0  0  0
   21.2151   35.8519   71.0927 C   0  0  0  0  0  0  0  0  0  0  0  0
   20.2925   34.6980   71.4600 C   0  0  0  0  0  0  0  0  0  0  0  0
   21.4893   36.5289   68.7608 C   0  0  0  0  0  0  0  0  0  0  0  0
   20.7726   37.5380   69.1519 O   0  0  0  0  0  0  0  0  0  0  0  0
   16.5692   32.4894   71.1251 N   0  0  0  0  0  0  0  0  0  0  0  0
   16.8169   31.2170   71.4532 N   0  0  0  0  0  0  0  0  0  0  0  0
   18.1061   30.9690   71.3921 N   0  0  0  0  0  0  0  0  0  0  0  0
   18.7534   32.0823   71.0189 C   0  0  0  0  0  0  0  0  0  0  0  0
   17.7696   33.0289   70.8550 C   0  0  0  0  0  0  0  0  0  0  0  0
   13.5916   36.5615   69.5006 Br  0  0  0  0  0  0  0  0  0  0  0  0
   13.8513   34.9009   70.4001 C   0  0  0  0  0  0  0  0  0  0  0  0
   15.1204   34.3047   70.4311 C   0  0  0  0  0  0  0  0  0  0  0  0
   15.2946   33.1080   71.0832 C   0  0  0  0  0  0  0  0  0  0  0  0
   14.2163   32.5205   71.6911 C   0  0  0  0  0  0  0  0  0  0  0  0
   12.9452   33.1081   71.6660 C   0  0  0  0  0  0  0  0  0  0  0  0
   12.7809   34.3050   71.0120 C   0  0  0  0  0  0  0  0  0  0  0  0
   21.8528   36.5536   67.3490 C   0  0  0  0  0  0  0  0  0  0  0  0
   20.9024   36.3997   66.2475 C   0  0  0  0  0  0  0  0  0  0  0  0
   21.6474   37.7160   66.4505 C   0  0  0  0  0  0  0  0  0  0  0  0
 16 17  1  0  0  0
 17 18  2  0  0  0
 17 22  1  0  0  0
 18 19  1  0  0  0
 19 20  2  0  0  0
 19 11  1  0  0  0
 20 21  1  0  0  0
 21 22  2  0  0  0
 11 12  1  0  0  0
 11 15  1  0  0  0
 12 13  2  0  0  0
 13 14  1  0  0  0
 14 15  2  0  0  0
 14  1  1  0  0  0
  1  2  2  0  0  0
  1  3  1  0  0  0
  3  4  1  0  0  0
  3  8  1  0  0  0
  4  5  1  0  0  0
  5  6  1  0  0  0
  6  7  1  0  0  0
  6  9  1  0  0  0
  7  8  1  0  0  0
  9 10  2  0  0  0
  9 23  1  0  0  0
 23 24  1  0  0  0
 23 25  1  0  0  0
 24 25  1  0  0  0
M  END
> <minimizedAffinity>
-8.81286

$$$$
1525


 26 29  0  0  0  0  0  0  0  0999 V2000
   15.8839   32.4273   71.2842 N   0  0  0  0  0  0  0  0  0  0  0  0
   17.2023   32.0096   70.9526 C   0  0  0  0  0  0  0  0  0  0  0  0
   17.7998   32.3707   69.9099 O   0  0  0  0  0  0  0  0  0  0  0  0
   17.6512   31.1336   72.0281 C   0  0  0  0  0  0  0  0  0  0  0  0
   16.3628   30.5107   72.5232 C   0  0  0  0  0  0  0  0  0  0  0  0
   15.3045   31.4848   72.1947 C   0  0  0  0  0  0  0  0  0  0  0  0
   14.1188   31.5031   72.6187 O   0  0  0  0  0  0  0  0  0  0  0  0
   15.9938   37.7126   70.4506 Br  0  0  0  0  0  0  0  0  0  0  0  0
   15.2034   35.9846   70.3456 C   0  0  0  0  0  0  0  0  0  0  0  0
   15.8452   34.8601   70.8571 C   0  0  0  0  0  0  0  0  0  0  0  0
   15.2661   33.6112   70.7776 C   0  0  0  0  0  0  0  0  0  0  0  0
   14.0206   33.5471   70.1631 C   0  0  0  0  0  0  0  0  0  0  0  0
   13.3736   34.6405   69.6551 C   0  0  0  0  0  0  0  0  0  0  0  0
   13.9683   35.8756   69.7440 C   0  0  0  0  0  0  0  0  0  0  0  0
   18.4048   31.7307   73.0563 N   0  0  0  0  0  0  0  0  0  0  0  0
   18.1766   33.0892   73.3423 C   0  0  0  0  0  0  0  0  0  0  0  0
   19.2338   33.9279   72.6109 C   0  0  0  0  0  0  0  0  0  0  0  0
   20.3423   33.0777   72.2073 N   0  0  0  0  0  0  0  0  0  0  0  0
   20.7937   31.9664   73.0210 C   0  0  0  0  0  0  0  0  0  0  0  0
   19.6031   31.1637   73.4901 C   0  0  0  0  0  0  0  0  0  0  0  0
   21.0254   33.2967   70.9653 C   0  0  0  0  0  0  0  0  0  0  0  0
   20.5607   34.1873   70.0640 N   0  0  0  0  0  0  0  0  0  0  0  0
   21.2166   34.4007   68.9065 C   0  0  0  0  0  0  0  0  0  0  0  0
   22.3880   33.7182   68.5989 C   0  0  0  0  0  0  0  0  0  0  0  0
   22.8590   32.8075   69.5281 C   0  0  0  0  0  0  0  0  0  0  0  0
   22.1598   32.6394   70.6643 N   0  0  0  0  0  0  0  0  0  0  0  0
  8  9  1  0  0  0
  9 10  2  0  0  0
  9 14  1  0  0  0
 10 11  1  0  0  0
 11 12  2  0  0  0
 11  1  1  0  0  0
 12 13  1  0  0  0
 13 14  2  0  0  0
  1  2  1  0  0  0
  1  6  1  0  0  0
  2  3  2  0  0  0
  2  4  1  0  0  0
  4  5  1  0  0  0
  4 15  1  0  0  0
  5  6  1  0  0  0
  6  7  2  0  0  0
 15 16  1  0  0  0
 15 20  1  0  0  0
 16 17  1  0  0  0
 17 18  1  0  0  0
 18 19  1  0  0  0
 18 21  1  0  0  0
 19 20  1  0  0  0
 21 22  2  0  0  0
 21 26  1  0  0  0
 22 23  1  0  0  0
 23 24  2  0  0  0
 24 25  1  0  0  0
 25 26  2  0  0  0
M  END
> <minimizedAffinity>
-8.31470

$$$$
1531


 27 30  0  0  0  0  0  0  0  0999 V2000
   16.0603   36.1293   70.3501 N   0  0  0  0  0  0  0  0  0  0  0  0
   14.7623   35.8588   70.0050 C   0  0  0  0  0  0  0  0  0  0  0  0
   14.5749   34.5578   70.2400 N   0  0  0  0  0  0  0  0  0  0  0  0
   15.6806   33.9637   70.7190 C   0  0  0  0  0  0  0  0  0  0  0  0
   16.6263   34.9712   70.7874 C   0  0  0  0  0  0  0  0  0  0  0  0
   13.2097   34.1727   69.8982 C   0  0  0  0  0  0  0  0  0  0  0  0
   12.5879   35.4040   69.3072 C   0  0  0  0  0  0  0  0  0  0  0  0
   13.5479   36.5266   69.4772 C   0  0  0  0  0  0  0  0  0  0  0  0
   15.8940   32.5681   71.0995 C   0  0  0  0  0  0  0  0  0  0  0  0
   14.8944   31.6781   71.3989 C   0  0  0  0  0  0  0  0  0  0  0  0
   15.1785   30.3519   71.7548 C   0  0  0  0  0  0  0  0  0  0  0  0
   16.4694   29.8773   71.8226 C   0  0  0  0  0  0  0  0  0  0  0  0
   17.4809   30.7641   71.5245 C   0  0  0  0  0  0  0  0  0  0  0  0
   17.1987   32.0679   71.1738 C   0  0  0  0  0  0  0  0  0  0  0  0
   16.7651   28.5674   72.1736 O   0  0  0  0  0  0  0  0  0  0  0  0
   16.2060   27.9929   73.3414 C   0  0  0  0  0  0  0  0  0  0  0  0
   16.6924   37.4039   70.3076 C   0  0  0  0  0  0  0  0  0  0  0  0
   17.7544   37.6904   69.3719 C   0  0  0  0  0  0  0  0  0  0  0  0
   17.4107   38.5073   68.3951 O   0  0  0  0  0  0  0  0  0  0  0  0
   21.8034   36.7680   66.3261 Cl  0  0  0  0  0  0  0  0  0  0  0  0
   21.0696   36.7938   67.9071 C   0  0  0  0  0  0  0  0  0  0  0  0
   21.8207   36.3956   68.9893 C   0  0  0  0  0  0  0  0  0  0  0  0
   21.2288   36.4207   70.2283 C   0  0  0  0  0  0  0  0  0  0  0  0
   19.8979   36.8462   70.3521 C   0  0  0  0  0  0  0  0  0  0  0  0
   19.1212   37.2479   69.3082 C   0  0  0  0  0  0  0  0  0  0  0  0
   19.7846   37.2003   68.0567 C   0  0  0  0  0  0  0  0  0  0  0  0
   23.4794   35.8667   68.8294 Cl  0  0  0  0  0  0  0  0  0  0  0  0
 20 21  1  0  0  0
 21 22  2  0  0  0
 21 26  1  0  0  0
 22 23  1  0  0  0
 22 27  1  0  0  0
 23 24  2  0  0  0
 24 25  1  0  0  0
 25 26  2  0  0  0
 25 18  1  0  0  0
 18 19  2  0  0  0
 18 17  1  0  0  0
 17  1  1  0  0  0
  1  2  1  0  0  0
  1  5  1  0  0  0
  2  3  2  0  0  0
  2  8  1  0  0  0
  3  4  1  0  0  0
  3  6  1  0  0  0
  4  5  2  0  0  0
  4  9  1  0  0  0
  9 10  2  0  0  0
  9 14  1  0  0  0
 10 11  1  0  0  0
 11 12  2  0  0  0
 12 13  1  0  0  0
 12 15  1  0  0  0
 13 14  2  0  0  0
 15 16  1  0  0  0
  6  7  1  0  0  0
  7  8  1  0  0  0
M  END
> <minimizedAffinity>
-8.89623

$$$$
1533


 28 31  0  0  0  0  0  0  0  0999 V2000
   16.8112   34.2867   71.0822 C   0  0  0  0  0  0  0  0  0  0  0  0
   16.0028   35.3473   70.8248 N   0  0  0  0  0  0  0  0  0  0  0  0
   16.7475   36.3893   70.4402 C   0  0  0  0  0  0  0  0  0  0  0  0
   18.0702   36.0393   70.4318 N   0  0  0  0  0  0  0  0  0  0  0  0
   18.0918   34.7552   70.8258 C   0  0  0  0  0  0  0  0  0  0  0  0
   15.9021   37.5715   70.1607 C   0  0  0  0  0  0  0  0  0  0  0  0
   14.5648   36.9337   69.9048 C   0  0  0  0  0  0  0  0  0  0  0  0
   14.5901   35.7296   70.8176 C   0  0  0  0  0  0  0  0  0  0  0  0
   13.7938   30.9773   73.7730 Cl  0  0  0  0  0  0  0  0  0  0  0  0
   15.1591   31.3437   72.7406 C   0  0  0  0  0  0  0  0  0  0  0  0
   15.9678   30.3198   72.3432 C   0  0  0  0  0  0  0  0  0  0  0  0
   17.0479   30.5791   71.5317 C   0  0  0  0  0  0  0  0  0  0  0  0
   17.2949   31.8942   71.1297 C   0  0  0  0  0  0  0  0  0  0  0  0
   16.4827   32.9324   71.5271 C   0  0  0  0  0  0  0  0  0  0  0  0
   15.4182   32.6482   72.3318 C   0  0  0  0  0  0  0  0  0  0  0  0
   15.6741   28.6522   72.8401 Cl  0  0  0  0  0  0  0  0  0  0  0  0
   19.1829   36.8888   70.1209 C   0  0  0  0  0  0  0  0  0  0  0  0
   19.8462   36.8604   68.8461 C   0  0  0  0  0  0  0  0  0  0  0  0
   19.3694   37.7589   67.9898 O   0  0  0  0  0  0  0  0  0  0  0  0
   20.9162   36.0724   68.2887 C   0  0  0  0  0  0  0  0  0  0  0  0
   21.6485   36.5660   67.1853 C   0  0  0  0  0  0  0  0  0  0  0  0
   22.6819   35.8919   66.5889 C   0  0  0  0  0  0  0  0  0  0  0  0
   23.0040   34.6594   67.1199 C   0  0  0  0  0  0  0  0  0  0  0  0
   22.3056   34.1564   68.1948 C   0  0  0  0  0  0  0  0  0  0  0  0
   21.2534   34.8479   68.7980 C   0  0  0  0  0  0  0  0  0  0  0  0
   23.4022   36.4043   65.4839 N   0  0  0  0  0  0  0  0  0  0  0  0
   23.5622   37.6251   65.3794 O   0  0  0  0  0  0  0  0  0  0  0  0
   23.9281   35.5876   64.5256 O   0  0  0  0  0  0  0  0  0  0  0  0
  9 10  1  0  0  0
 10 11  2  0  0  0
 10 15  1  0  0  0
 11 12  1  0  0  0
 11 16  1  0  0  0
 12 13  2  0  0  0
 13 14  1  0  0  0
 14 15  2  0  0  0
 14  1  1  0  0  0
  1  2  1  0  0  0
  1  5  2  0  0  0
  2  3  2  0  0  0
  2  8  1  0  0  0
  3  4  1  0  0  0
  3  6  1  0  0  0
  4  5  1  0  0  0
  4 17  1  0  0  0
 17 18  1  0  0  0
 18 19  2  0  0  0
 18 20  1  0  0  0
 20 21  2  0  0  0
 20 25  1  0  0  0
 21 22  1  0  0  0
 22 23  2  0  0  0
 22 26  1  0  0  0
 23 24  1  0  0  0
 24 25  2  0  0  0
 26 27  2  0  0  0
 26 28  1  0  0  0
  6  7  1  0  0  0
  7  8  1  0  0  0
M  CHG 1  28  -1
M  END
> <minimizedAffinity>
-9.27682

$$$$
1535


 28 31  0  0  0  0  0  0  0  0999 V2000
   16.8058   34.3087   71.0783 C   0  0  0  0  0  0  0  0  0  0  0  0
   15.9988   35.3616   70.8705 N   0  0  0  0  0  0  0  0  0  0  0  0
   16.7334   36.4198   70.4687 C   0  0  0  0  0  0  0  0  0  0  0  0
   18.0214   36.0359   70.4186 N   0  0  0  0  0  0  0  0  0  0  0  0
   18.1138   34.7277   70.7897 C   0  0  0  0  0  0  0  0  0  0  0  0
   15.8553   37.5923   70.2474 C   0  0  0  0  0  0  0  0  0  0  0  0
   14.5835   36.8851   69.8545 C   0  0  0  0  0  0  0  0  0  0  0  0
   14.5893   35.7690   70.9132 C   0  0  0  0  0  0  0  0  0  0  0  0
   13.8638   30.9970   73.7937 Cl  0  0  0  0  0  0  0  0  0  0  0  0
   15.2140   31.3044   72.7477 C   0  0  0  0  0  0  0  0  0  0  0  0
   16.0238   30.2821   72.3315 C   0  0  0  0  0  0  0  0  0  0  0  0
   17.0787   30.5859   71.5047 C   0  0  0  0  0  0  0  0  0  0  0  0
   17.3072   31.8775   71.1108 C   0  0  0  0  0  0  0  0  0  0  0  0
   16.5004   32.9455   71.5154 C   0  0  0  0  0  0  0  0  0  0  0  0
   15.4666   32.6265   72.3319 C   0  0  0  0  0  0  0  0  0  0  0  0
   15.7407   28.6283   72.8286 Cl  0  0  0  0  0  0  0  0  0  0  0  0
   19.1238   36.8584   70.0797 C   0  0  0  0  0  0  0  0  0  0  0  0
   19.5669   37.0721   68.7321 C   0  0  0  0  0  0  0  0  0  0  0  0
   18.7599   37.8796   68.0735 O   0  0  0  0  0  0  0  0  0  0  0  0
   20.6979   36.5819   67.9804 C   0  0  0  0  0  0  0  0  0  0  0  0
   21.3054   35.3708   68.1727 C   0  0  0  0  0  0  0  0  0  0  0  0
   22.3987   34.9616   67.4034 C   0  0  0  0  0  0  0  0  0  0  0  0
   22.8908   35.7721   66.4316 C   0  0  0  0  0  0  0  0  0  0  0  0
   22.2983   36.9973   66.2163 C   0  0  0  0  0  0  0  0  0  0  0  0
   21.2276   37.4078   66.9630 C   0  0  0  0  0  0  0  0  0  0  0  0
   22.9874   33.6842   67.6546 N   0  0  0  0  0  0  0  0  0  0  0  0
   22.8335   33.1480   68.7656 O   0  0  0  0  0  0  0  0  0  0  0  0
   23.7158   33.0310   66.7128 O   0  0  0  0  0  0  0  0  0  0  0  0
  9 10  1  0  0  0
 10 11  2  0  0  0
 10 15  1  0  0  0
 11 12  1  0  0  0
 11 16  1  0  0  0
 12 13  2  0  0  0
 13 14  1  0  0  0
 14 15  2  0  0  0
 14  1  1  0  0  0
  1  2  1  0  0  0
  1  5  2  0  0  0
  2  3  1  0  0  0
  2  8  1  0  0  0
  3  4  2  0  0  0
  3  6  1  0  0  0
  4  5  1  0  0  0
  4 17  1  0  0  0
 17 18  1  0  0  0
 18 19  2  0  0  0
 18 20  1  0  0  0
 20 21  2  0  0  0
 20 25  1  0  0  0
 21 22  1  0  0  0
 22 23  2  0  0  0
 22 26  1  0  0  0
 23 24  1  0  0  0
 24 25  2  0  0  0
 26 27  2  0  0  0
 26 28  1  0  0  0
  6  7  1  0  0  0
  7  8  1  0  0  0
M  CHG 1  28  -1
M  END
> <minimizedAffinity>
-9.15633

$$$$
1536


 31 34  0  0  0  0  0  0  0  0999 V2000
   21.1063   36.8375   69.4820 S   0  0  0  0  0  0  0  0  0  0  0  0
   20.6206   37.9248   68.5179 O   0  0  0  0  0  0  0  0  0  0  0  0
   21.8223   37.6367   70.5735 O   0  0  0  0  0  0  0  0  0  0  0  0
   19.6640   36.1078   70.1249 C   0  0  0  0  0  0  0  0  0  0  0  0
   18.4115   36.6354   69.7672 C   0  0  0  0  0  0  0  0  0  0  0  0
   17.2343   36.1471   70.2715 C   0  0  0  0  0  0  0  0  0  0  0  0
   17.2580   35.1107   71.1531 C   0  0  0  0  0  0  0  0  0  0  0  0
   18.4508   34.5540   71.5384 C   0  0  0  0  0  0  0  0  0  0  0  0
   19.6358   35.0689   71.0089 C   0  0  0  0  0  0  0  0  0  0  0  0
   21.1269   34.2686   71.4755 Cl  0  0  0  0  0  0  0  0  0  0  0  0
   16.0131   34.6151   71.6755 N   0  0  0  0  0  0  0  0  0  0  0  0
   14.7958   35.2126   71.2639 C   0  0  0  0  0  0  0  0  0  0  0  0
   13.7040   34.6160   71.3680 O   0  0  0  0  0  0  0  0  0  0  0  0
   14.8630   36.5860   70.6993 C   0  0  0  0  0  0  0  0  0  0  0  0
   16.0043   36.6995   69.8915 O   0  0  0  0  0  0  0  0  0  0  0  0
   16.0216   33.8235   72.3488 H   0  0  0  0  0  0  0  0  0  0  0  0
   22.1951   35.8836   68.6841 N   0  0  0  0  0  0  0  0  0  0  0  0
   23.5751   35.9838   68.8173 C   0  0  0  0  0  0  0  0  0  0  0  0
   24.2824   36.8677   67.8410 C   0  0  0  0  0  0  0  0  0  0  0  0
   23.4181   37.0199   66.5913 C   0  0  0  0  0  0  0  0  0  0  0  0
   22.8776   35.6005   66.3531 C   0  0  0  0  0  0  0  0  0  0  0  0
   21.7596   35.4287   67.3691 C   0  0  0  0  0  0  0  0  0  0  0  0
   24.1757   37.5108   65.4530 C   0  0  0  0  0  0  0  0  0  0  0  0
   24.8959   36.7145   64.7957 O   0  0  0  0  0  0  0  0  0  0  0  0
   24.1252   38.8527   65.0619 N   0  0  0  0  0  0  0  0  0  0  0  0
   24.8465   39.3729   63.8947 C   0  0  0  0  0  0  0  0  0  0  0  0
   24.7011   40.8794   63.9412 C   0  0  0  0  0  0  0  0  0  0  0  0
   23.3052   41.2552   63.8258 N   0  0  0  0  0  0  0  0  0  0  0  0
   22.5139   40.6873   64.9028 C   0  0  0  0  0  0  0  0  0  0  0  0
   23.3687   39.8181   65.8087 C   0  0  0  0  0  0  0  0  0  0  0  0
   23.1563   42.6939   63.7838 C   0  0  0  0  0  0  0  0  0  0  0  0
  1  2  2  0  0  0
  1  3  2  0  0  0
  1 17  1  0  0  0
  1  4  1  0  0  0
 17 18  1  0  0  0
 17 22  1  0  0  0
 18 19  1  0  0  0
 19 20  1  0  0  0
 20 21  1  0  0  0
 20 23  1  0  0  0
 21 22  1  0  0  0
 23 24  2  0  0  0
 23 25  1  0  0  0
 25 26  1  0  0  0
 25 30  1  0  0  0
 26 27  1  0  0  0
 27 28  1  0  0  0
 28 29  1  0  0  0
 28 31  1  0  0  0
 29 30  1  0  0  0
  4  5  2  0  0  0
  4  9  1  0  0  0
  5  6  1  0  0  0
  6  7  2  0  0  0
  6 15  1  0  0  0
  7  8  1  0  0  0
  7 11  1  0  0  0
  8  9  2  0  0  0
  9 10  1  0  0  0
 11 12  1  0  0  0
 12 13  2  0  0  0
 12 14  1  0  0  0
 14 15  1  0  0  0
 11 16  1  0  0  0
M  END
> <minimizedAffinity>
-8.99398

$$$$
1539


 34 37  0  0  0  0  0  0  0  0999 V2000
   19.3305   33.5174   72.5930 C   0  0  0  0  0  0  0  0  0  0  0  0
   18.0227   33.0758   72.0917 N   0  0  0  0  0  0  0  0  0  0  0  0
   18.2811   32.5681   70.7905 C   0  0  0  0  0  0  0  0  0  0  0  0
   17.6331   31.6956   70.1896 O   0  0  0  0  0  0  0  0  0  0  0  0
   19.4594   33.2776   70.3024 C   0  0  0  0  0  0  0  0  0  0  0  0
   20.0804   33.1799   69.2027 O   0  0  0  0  0  0  0  0  0  0  0  0
   19.8530   34.2027   71.3754 C   0  0  0  0  0  0  0  0  0  0  0  0
   20.5263   35.3281   71.2376 C   0  0  0  0  0  0  0  0  0  0  0  0
   20.8453   36.0558   72.3874 O   0  0  0  0  0  0  0  0  0  0  0  0
   22.4346   28.4279   73.7541 Cl  0  0  0  0  0  0  0  0  0  0  0  0
   21.5362   29.9061   73.4160 C   0  0  0  0  0  0  0  0  0  0  0  0
   20.2120   30.0418   73.7913 C   0  0  0  0  0  0  0  0  0  0  0  0
   19.5229   31.2044   73.5192 C   0  0  0  0  0  0  0  0  0  0  0  0
   20.0964   32.2783   72.8727 C   0  0  0  0  0  0  0  0  0  0  0  0
   21.4376   32.1227   72.5005 C   0  0  0  0  0  0  0  0  0  0  0  0
   22.1279   30.9638   72.7708 C   0  0  0  0  0  0  0  0  0  0  0  0
   20.9468   35.8472   69.9446 C   0  0  0  0  0  0  0  0  0  0  0  0
   20.0758   36.5105   69.0960 C   0  0  0  0  0  0  0  0  0  0  0  0
   20.4721   36.9773   67.8600 C   0  0  0  0  0  0  0  0  0  0  0  0
   21.7750   36.7961   67.4178 C   0  0  0  0  0  0  0  0  0  0  0  0
   22.6504   36.1384   68.2513 C   0  0  0  0  0  0  0  0  0  0  0  0
   22.2371   35.6695   69.5020 C   0  0  0  0  0  0  0  0  0  0  0  0
   19.5062   37.6801   66.9868 C   0  0  0  0  0  0  0  0  0  0  0  0
   22.1911   37.2622   66.1735 O   0  0  0  0  0  0  0  0  0  0  0  0
   23.3923   37.9757   66.0811 C   0  0  0  0  0  0  0  0  0  0  0  0
   16.7399   33.1451   72.7923 C   0  0  0  0  0  0  0  0  0  0  0  0
   15.9057   34.1715   72.0614 C   0  0  0  0  0  0  0  0  0  0  0  0
   15.2467   33.6260   70.9055 N   0  0  0  0  0  0  0  0  0  0  0  0
   14.7264   34.6633   70.0757 C   0  0  0  0  0  0  0  0  0  0  0  0
   13.2855   34.9992   70.2706 C   0  0  0  0  0  0  0  0  0  0  0  0
   12.4848   33.9507   70.6355 O   0  0  0  0  0  0  0  0  0  0  0  0
   12.9576   33.2580   71.7424 C   0  0  0  0  0  0  0  0  0  0  0  0
   14.2810   32.6580   71.3452 C   0  0  0  0  0  0  0  0  0  0  0  0
   16.0050   33.1314   70.3550 H   0  0  0  0  0  0  0  0  0  0  0  0
 10 11  1  0  0  0
 11 12  2  0  0  0
 11 16  1  0  0  0
 12 13  1  0  0  0
 13 14  2  0  0  0
 14 15  1  0  0  0
 14  1  1  0  0  0
 15 16  2  0  0  0
  1  2  1  0  0  0
  1  7  1  0  0  0
  2  3  1  0  0  0
  2 26  1  0  0  0
  3  4  2  0  0  0
  3  5  1  0  0  0
  5  6  2  0  0  0
  5  7  1  0  0  0
  7  8  2  0  0  0
  8  9  1  0  0  0
  8 17  1  0  0  0
 17 18  2  0  0  0
 17 22  1  0  0  0
 18 19  1  0  0  0
 19 20  2  0  0  0
 19 23  1  0  0  0
 20 21  1  0  0  0
 20 24  1  0  0  0
 21 22  2  0  0  0
 24 25  1  0  0  0
 26 27  1  0  0  0
 27 28  1  0  0  0
 28 29  1  0  0  0
 28 33  1  0  0  0
 29 30  1  0  0  0
 30 31  1  0  0  0
 31 32  1  0  0  0
 32 33  1  0  0  0
 28 34  1  0  0  0
M  CHG 1   9  -1
M  CHG 1  28   1
M  END
> <minimizedAffinity>
-7.85982

$$$$
1548


 24 27  0  0  0  0  0  0  0  0999 V2000
   14.5499   35.0608   71.4113 Cl  0  0  0  0  0  0  0  0  0  0  0  0
   16.0125   35.7881   70.7628 C   0  0  0  0  0  0  0  0  0  0  0  0
   17.2365   35.1590   70.8302 C   0  0  0  0  0  0  0  0  0  0  0  0
   18.3714   35.7266   70.3260 N   0  0  0  0  0  0  0  0  0  0  0  0
   18.3483   36.9348   69.7346 C   0  0  0  0  0  0  0  0  0  0  0  0
   19.4747   37.5007   69.2331 N   0  0  0  0  0  0  0  0  0  0  0  0
   20.6707   36.8782   69.3027 C   0  0  0  0  0  0  0  0  0  0  0  0
   20.7304   35.6507   69.8958 C   0  0  0  0  0  0  0  0  0  0  0  0
   22.0317   34.9151   69.9995 C   0  0  0  0  0  0  0  0  0  0  0  0
   22.8295   35.3977   68.8589 N   0  0  0  0  0  0  0  0  0  0  0  0
   23.1069   36.8053   68.8967 C   0  0  0  0  0  0  0  0  0  0  0  0
   21.8279   37.6037   68.7156 C   0  0  0  0  0  0  0  0  0  0  0  0
   23.2149   34.4678   67.8977 C   0  0  0  0  0  0  0  0  0  0  0  0
   22.8664   33.2461   68.0534 O   0  0  0  0  0  0  0  0  0  0  0  0
   19.5594   35.1002   70.3990 C   0  0  0  0  0  0  0  0  0  0  0  0
   19.6042   33.9791   70.9427 O   0  0  0  0  0  0  0  0  0  0  0  0
   17.1206   37.5751   69.6626 C   0  0  0  0  0  0  0  0  0  0  0  0
   15.9586   37.0275   70.1627 C   0  0  0  0  0  0  0  0  0  0  0  0
   24.0016   34.7550   66.6923 C   0  0  0  0  0  0  0  0  0  0  0  0
   25.2653   34.3461   66.5479 N   0  0  0  0  0  0  0  0  0  0  0  0
   25.9743   34.6122   65.4468 C   0  0  0  0  0  0  0  0  0  0  0  0
   25.4408   35.3261   64.3938 C   0  0  0  0  0  0  0  0  0  0  0  0
   24.1686   35.7290   64.5563 N   0  0  0  0  0  0  0  0  0  0  0  0
   23.4405   35.4771   65.6444 C   0  0  0  0  0  0  0  0  0  0  0  0
  1  2  1  0  0  0
  2  3  2  0  0  0
  2 18  1  0  0  0
  3  4  1  0  0  0
  4  5  1  0  0  0
  4 15  1  0  0  0
  5  6  2  0  0  0
  5 17  1  0  0  0
  6  7  1  0  0  0
  7  8  2  0  0  0
  7 12  1  0  0  0
  8  9  1  0  0  0
  8 15  1  0  0  0
  9 10  1  0  0  0
 10 11  1  0  0  0
 10 13  1  0  0  0
 11 12  1  0  0  0
 13 14  2  0  0  0
 13 19  1  0  0  0
 19 20  2  0  0  0
 19 24  1  0  0  0
 20 21  1  0  0  0
 21 22  2  0  0  0
 22 23  1  0  0  0
 23 24  2  0  0  0
 15 16  2  0  0  0
 17 18  2  0  0  0
M  END
> <minimizedAffinity>
-8.93456

$$$$
1553


 29 32  0  0  0  0  0  0  0  0999 V2000
   14.5853   30.1669   72.2427 C   0  0  0  0  0  0  0  0  0  0  0  0
   15.7182   29.3301   72.1172 N   0  0  0  0  0  0  0  0  0  0  0  0
   15.8601   28.2801   73.0832 C   0  0  0  0  0  0  0  0  0  0  0  0
   15.8002   28.8882   74.4948 C   0  0  0  0  0  0  0  0  0  0  0  0
   14.4289   29.4244   74.5891 C   0  0  0  0  0  0  0  0  0  0  0  0
   13.5163   29.4357   75.6318 C   0  0  0  0  0  0  0  0  0  0  0  0
   12.3864   30.0615   75.1541 C   0  0  0  0  0  0  0  0  0  0  0  0
   12.5804   30.4241   73.8768 N   0  0  0  0  0  0  0  0  0  0  0  0
   13.8473   30.0309   73.5198 C   0  0  0  0  0  0  0  0  0  0  0  0
   11.3127   30.1992   76.0150 C   0  0  0  0  0  0  0  0  0  0  0  0
   11.4193   29.7123   77.2941 C   0  0  0  0  0  0  0  0  0  0  0  0
   12.5501   29.0868   77.7687 C   0  0  0  0  0  0  0  0  0  0  0  0
   13.6392   28.9412   76.9124 C   0  0  0  0  0  0  0  0  0  0  0  0
   15.6662   28.8608   71.1571 H   0  0  0  0  0  0  0  0  0  0  0  0
   16.6352   29.8431   72.1011 H   0  0  0  0  0  0  0  0  0  0  0  0
   11.9233   30.9201   73.2209 H   0  0  0  0  0  0  0  0  0  0  0  0
   13.5318   35.2359   70.7017 Br  0  0  0  0  0  0  0  0  0  0  0  0
   14.6490   33.9082   71.5070 C   0  0  0  0  0  0  0  0  0  0  0  0
   14.2228   32.5779   71.5731 C   0  0  0  0  0  0  0  0  0  0  0  0
   15.0228   31.6077   72.1499 C   0  0  0  0  0  0  0  0  0  0  0  0
   16.2466   31.9997   72.6526 C   0  0  0  0  0  0  0  0  0  0  0  0
   16.6626   33.3230   72.5822 C   0  0  0  0  0  0  0  0  0  0  0  0
   15.8651   34.2853   72.0079 C   0  0  0  0  0  0  0  0  0  0  0  0
   18.3824   33.8127   73.2971 Br  0  0  0  0  0  0  0  0  0  0  0  0
   12.9893   32.3109   71.0399 O   0  0  0  0  0  0  0  0  0  0  0  0
   12.5417   31.4367   70.9975 H   0  0  0  0  0  0  0  0  0  0  0  0
   17.1391   27.5729   72.8705 C   0  0  0  0  0  0  0  0  0  0  0  0
   18.2091   28.1248   73.2359 O   0  0  0  0  0  0  0  0  0  0  0  0
   17.1371   26.3225   72.2747 O   0  0  0  0  0  0  0  0  0  0  0  0
 17 18  1  0  0  0
 18 19  2  0  0  0
 18 23  1  0  0  0
 19 20  1  0  0  0
 19 25  1  0  0  0
 20 21  2  0  0  0
 20  1  1  0  0  0
 21 22  1  0  0  0
 22 23  2  0  0  0
 22 24  1  0  0  0
  1  2  1  0  0  0
  1  9  1  0  0  0
  2  3  1  0  0  0
  3  4  1  0  0  0
  3 27  1  0  0  0
  4  5  1  0  0  0
  5  6  1  0  0  0
  5  9  2  0  0  0
  6  7  2  0  0  0
  6 13  1  0  0  0
  7  8  1  0  0  0
  7 10  1  0  0  0
  8  9  1  0  0  0
 10 11  2  0  0  0
 11 12  1  0  0  0
 12 13  2  0  0  0
 27 28  2  0  0  0
 27 29  1  0  0  0
  2 14  1  0  0  0
  2 15  1  0  0  0
  8 16  1  0  0  0
 25 26  1  0  0  0
M  CHG 1   2   1
M  END
> <minimizedAffinity>
-8.75077

$$$$
1571


 28 31  0  0  0  0  0  0  0  0999 V2000
   18.9890   32.5000   72.6684 O   0  0  0  0  0  0  0  0  0  0  0  0
   18.3125   31.5057   72.0002 C   0  0  0  0  0  0  0  0  0  0  0  0
   18.4888   30.3313   72.4327 O   0  0  0  0  0  0  0  0  0  0  0  0
   17.4235   31.7762   70.8385 C   0  0  0  0  0  0  0  0  0  0  0  0
   16.3530   32.7114   71.1887 N   0  0  0  0  0  0  0  0  0  0  0  0
   16.3050   34.1100   70.9200 C   0  0  0  0  0  0  0  0  0  0  0  0
   17.0901   34.7523   70.1787 O   0  0  0  0  0  0  0  0  0  0  0  0
   15.1606   34.6767   71.6709 C   0  0  0  0  0  0  0  0  0  0  0  0
   14.2168   33.4970   71.6624 C   0  0  0  0  0  0  0  0  0  0  0  0
   13.5292   33.3016   70.3252 C   0  0  0  0  0  0  0  0  0  0  0  0
   13.7927   34.4238   69.3564 C   0  0  0  0  0  0  0  0  0  0  0  0
   13.6142   35.7622   70.0153 C   0  0  0  0  0  0  0  0  0  0  0  0
   14.6076   35.9228   71.1106 C   0  0  0  0  0  0  0  0  0  0  0  0
   15.1616   32.3770   71.8786 C   0  0  0  0  0  0  0  0  0  0  0  0
   14.9664   31.3143   72.5475 O   0  0  0  0  0  0  0  0  0  0  0  0
   20.3516   32.7916   72.5313 C   0  0  0  0  0  0  0  0  0  0  0  0
   21.9259   38.2682   66.4532 Br  0  0  0  0  0  0  0  0  0  0  0  0
   21.5945   36.8080   67.6665 C   0  0  0  0  0  0  0  0  0  0  0  0
   21.3220   37.0385   68.9940 C   0  0  0  0  0  0  0  0  0  0  0  0
   21.0872   36.0451   69.8625 N   0  0  0  0  0  0  0  0  0  0  0  0
   21.1073   34.7489   69.4597 C   0  0  0  0  0  0  0  0  0  0  0  0
   20.8787   33.7244   70.2845 N   0  0  0  0  0  0  0  0  0  0  0  0
   20.6092   33.9086   71.5918 C   0  0  0  0  0  0  0  0  0  0  0  0
   20.5803   35.2136   72.0383 C   0  0  0  0  0  0  0  0  0  0  0  0
   20.8181   36.2646   71.1752 C   0  0  0  0  0  0  0  0  0  0  0  0
   20.8006   37.4725   71.5422 O   0  0  0  0  0  0  0  0  0  0  0  0
   21.3790   34.4753   68.1207 C   0  0  0  0  0  0  0  0  0  0  0  0
   21.6198   35.5058   67.2372 C   0  0  0  0  0  0  0  0  0  0  0  0
 17 18  1  0  0  0
 18 19  2  0  0  0
 18 28  1  0  0  0
 19 20  1  0  0  0
 20 21  1  0  0  0
 20 25  1  0  0  0
 21 22  2  0  0  0
 21 27  1  0  0  0
 22 23  1  0  0  0
 23 24  2  0  0  0
 23 16  1  0  0  0
 24 25  1  0  0  0
 25 26  2  0  0  0
 16  1  1  0  0  0
  1  2  1  0  0  0
  2  3  2  0  0  0
  2  4  1  0  0  0
  4  5  1  0  0  0
  5  6  1  0  0  0
  5 14  1  0  0  0
  6  7  2  0  0  0
  6  8  1  0  0  0
  8  9  1  0  0  0
  8 13  1  0  0  0
  9 10  1  0  0  0
  9 14  1  0  0  0
 10 11  1  0  0  0
 11 12  1  0  0  0
 12 13  1  0  0  0
 14 15  2  0  0  0
 27 28  2  0  0  0
M  END
> <minimizedAffinity>
-8.46523

$$$$
1576


 30 33  0  0  0  0  0  0  0  0999 V2000
   16.1096   33.6706   71.1273 N   0  0  0  0  0  0  0  0  0  0  0  0
   16.7577   32.5859   70.4223 C   0  0  0  0  0  0  0  0  0  0  0  0
   18.0399   32.2231   71.1677 C   0  0  0  0  0  0  0  0  0  0  0  0
   18.6994   33.4400   71.6139 N   0  0  0  0  0  0  0  0  0  0  0  0
   17.9654   34.3493   72.4622 C   0  0  0  0  0  0  0  0  0  0  0  0
   16.5317   33.8787   72.5213 C   0  0  0  0  0  0  0  0  0  0  0  0
   20.0364   33.7466   71.2365 C   0  0  0  0  0  0  0  0  0  0  0  0
   20.6541   32.9219   70.4936 O   0  0  0  0  0  0  0  0  0  0  0  0
   13.3156   32.5629   70.7720 Cl  0  0  0  0  0  0  0  0  0  0  0  0
   13.8215   34.1674   70.3824 C   0  0  0  0  0  0  0  0  0  0  0  0
   15.1353   34.5215   70.6019 C   0  0  0  0  0  0  0  0  0  0  0  0
   15.4779   35.8290   70.2647 C   0  0  0  0  0  0  0  0  0  0  0  0
   14.5490   36.7082   69.7438 C   0  0  0  0  0  0  0  0  0  0  0  0
   13.2532   36.3112   69.5433 C   0  0  0  0  0  0  0  0  0  0  0  0
   12.8870   35.0411   69.8618 C   0  0  0  0  0  0  0  0  0  0  0  0
   20.7506   34.9589   71.6531 C   0  0  0  0  0  0  0  0  0  0  0  0
   21.4416   35.6334   70.5557 N   0  0  0  0  0  0  0  0  0  0  0  0
   22.6989   35.5345   70.1729 N   0  0  0  0  0  0  0  0  0  0  0  0
   22.9834   36.3042   69.1202 C   0  0  0  0  0  0  0  0  0  0  0  0
   21.8097   36.9580   68.7913 C   0  0  0  0  0  0  0  0  0  0  0  0
   20.8694   36.5232   69.6984 C   0  0  0  0  0  0  0  0  0  0  0  0
   19.4587   36.9626   69.7270 C   0  0  0  0  0  0  0  0  0  0  0  0
   24.2867   36.4297   68.4422 C   0  0  0  0  0  0  0  0  0  0  0  0
   25.0553   37.3685   68.7310 O   0  0  0  0  0  0  0  0  0  0  0  0
   24.6445   35.4714   67.4688 N   0  0  0  0  0  0  0  0  0  0  0  0
   23.8117   34.3661   67.0868 C   0  0  0  0  0  0  0  0  0  0  0  0
   24.5174   33.6813   65.9095 C   0  0  0  0  0  0  0  0  0  0  0  0
   24.8120   34.5851   64.9127 O   0  0  0  0  0  0  0  0  0  0  0  0
   25.6706   35.5872   65.2982 C   0  0  0  0  0  0  0  0  0  0  0  0
   25.9382   35.5843   66.7887 C   0  0  0  0  0  0  0  0  0  0  0  0
  9 10  1  0  0  0
 10 11  2  0  0  0
 10 15  1  0  0  0
 11 12  1  0  0  0
 11  1  1  0  0  0
 12 13  2  0  0  0
 13 14  1  0  0  0
 14 15  2  0  0  0
  1  2  1  0  0  0
  1  6  1  0  0  0
  2  3  1  0  0  0
  3  4  1  0  0  0
  4  5  1  0  0  0
  4  7  1  0  0  0
  5  6  1  0  0  0
  7  8  2  0  0  0
  7 16  1  0  0  0
 16 17  1  0  0  0
 17 18  1  0  0  0
 17 21  1  0  0  0
 18 19  2  0  0  0
 19 20  1  0  0  0
 19 23  1  0  0  0
 20 21  2  0  0  0
 21 22  1  0  0  0
 23 24  2  0  0  0
 23 25  1  0  0  0
 25 26  1  0  0  0
 25 30  1  0  0  0
 26 27  1  0  0  0
 27 28  1  0  0  0
 28 29  1  0  0  0
 29 30  1  0  0  0
M  END
> <minimizedAffinity>
-9.14495

$$$$
1581


 27 30  0  0  0  0  0  0  0  0999 V2000
   20.9193   33.7275   70.9163 N   0  0  0  0  0  0  0  0  0  0  0  0
   21.4243   32.9406   71.9626 C   0  0  0  0  0  0  0  0  0  0  0  0
   20.4170   32.1467   72.7262 C   0  0  0  0  0  0  0  0  0  0  0  0
   19.2583   31.8041   71.9144 N   0  0  0  0  0  0  0  0  0  0  0  0
   18.2266   31.0523   72.2954 N   0  0  0  0  0  0  0  0  0  0  0  0
   17.3559   30.9562   71.2865 C   0  0  0  0  0  0  0  0  0  0  0  0
   17.8721   31.6791   70.2406 C   0  0  0  0  0  0  0  0  0  0  0  0
   19.0946   32.2215   70.6494 C   0  0  0  0  0  0  0  0  0  0  0  0
   20.0929   33.0782   69.9622 C   0  0  0  0  0  0  0  0  0  0  0  0
   16.0644   30.2009   71.3047 C   0  0  0  0  0  0  0  0  0  0  0  0
   16.2915   28.9834   71.9671 O   0  0  0  0  0  0  0  0  0  0  0  0
   17.2030   28.9722   72.3804 H   0  0  0  0  0  0  0  0  0  0  0  0
   15.0358   30.9470   72.1508 C   0  0  0  0  0  0  0  0  0  0  0  0
   14.0592   31.6418   71.2136 C   0  0  0  0  0  0  0  0  0  0  0  0
   20.6812   35.0897   71.1541 C   0  0  0  0  0  0  0  0  0  0  0  0
   12.9828   37.1412   69.6474 Cl  0  0  0  0  0  0  0  0  0  0  0  0
   14.5498   36.5068   70.1287 C   0  0  0  0  0  0  0  0  0  0  0  0
   15.6718   37.1163   69.6150 C   0  0  0  0  0  0  0  0  0  0  0  0
   16.8795   36.6240   69.9888 N   0  0  0  0  0  0  0  0  0  0  0  0
   16.9987   35.5828   70.8279 C   0  0  0  0  0  0  0  0  0  0  0  0
   18.1928   35.0888   71.2044 N   0  0  0  0  0  0  0  0  0  0  0  0
   19.3583   35.6003   70.7686 C   0  0  0  0  0  0  0  0  0  0  0  0
   19.2368   36.6736   69.9034 C   0  0  0  0  0  0  0  0  0  0  0  0
   18.0154   37.1780   69.5186 C   0  0  0  0  0  0  0  0  0  0  0  0
   17.9514   38.1654   68.7222 O   0  0  0  0  0  0  0  0  0  0  0  0
   15.8620   34.9601   71.3537 C   0  0  0  0  0  0  0  0  0  0  0  0
   14.6252   35.4350   70.9940 C   0  0  0  0  0  0  0  0  0  0  0  0
 16 17  1  0  0  0
 17 18  2  0  0  0
 17 27  1  0  0  0
 18 19  1  0  0  0
 19 20  1  0  0  0
 19 24  1  0  0  0
 20 21  2  0  0  0
 20 26  1  0  0  0
 21 22  1  0  0  0
 22 23  2  0  0  0
 22 15  1  0  0  0
 23 24  1  0  0  0
 24 25  2  0  0  0
 15  1  1  0  0  0
  1  2  1  0  0  0
  1  9  1  0  0  0
  2  3  1  0  0  0
  3  4  1  0  0  0
  4  5  1  0  0  0
  4  8  1  0  0  0
  5  6  2  0  0  0
  6  7  1  0  0  0
  6 10  1  0  0  0
  7  8  2  0  0  0
  8  9  1  0  0  0
 10 11  1  0  0  0
 10 13  1  0  0  0
 13 14  1  0  0  0
 26 27  2  0  0  0
 11 12  1  0  0  0
M  END
> <minimizedAffinity>
-8.32048

$$$$
1586


 29 32  0  0  0  0  0  0  0  0999 V2000
   17.2692   37.2770   69.4732 C   0  0  0  0  0  0  0  0  0  0  0  0
   16.6028   38.3216   69.0078 O   0  0  0  0  0  0  0  0  0  0  0  0
   16.5422   36.4189   70.3149 N   0  0  0  0  0  0  0  0  0  0  0  0
   17.0705   35.2603   70.9422 C   0  0  0  0  0  0  0  0  0  0  0  0
   16.0384   34.7262   71.9500 C   0  0  0  0  0  0  0  0  0  0  0  0
   14.8518   34.4566   71.1799 N   0  0  0  0  0  0  0  0  0  0  0  0
   14.2447   35.5531   70.5029 C   0  0  0  0  0  0  0  0  0  0  0  0
   15.1392   36.7756   70.5244 C   0  0  0  0  0  0  0  0  0  0  0  0
   14.3193   33.1583   71.1026 C   0  0  0  0  0  0  0  0  0  0  0  0
   13.1280   33.0153   70.7747 O   0  0  0  0  0  0  0  0  0  0  0  0
   15.1939   32.0086   71.4128 C   0  0  0  0  0  0  0  0  0  0  0  0
   15.8806   32.3260   72.6302 N   0  0  0  0  0  0  0  0  0  0  0  0
   16.5338   33.5805   72.7106 C   0  0  0  0  0  0  0  0  0  0  0  0
   17.5605   33.7506   73.4401 O   0  0  0  0  0  0  0  0  0  0  0  0
   15.9151   31.6686   73.4484 H   0  0  0  0  0  0  0  0  0  0  0  0
   22.8681   37.3098   67.2087 Cl  0  0  0  0  0  0  0  0  0  0  0  0
   21.2426   37.2811   67.9087 C   0  0  0  0  0  0  0  0  0  0  0  0
   21.0561   37.0409   69.2313 C   0  0  0  0  0  0  0  0  0  0  0  0
   19.7616   37.0251   69.7522 C   0  0  0  0  0  0  0  0  0  0  0  0
   18.6281   37.2423   69.0085 C   0  0  0  0  0  0  0  0  0  0  0  0
   18.8818   37.4842   67.6468 C   0  0  0  0  0  0  0  0  0  0  0  0
   20.1517   37.5043   67.1095 C   0  0  0  0  0  0  0  0  0  0  0  0
   14.5000   30.7005   71.4029 C   0  0  0  0  0  0  0  0  0  0  0  0
   15.2899   29.7032   72.1432 C   0  0  0  0  0  0  0  0  0  0  0  0
   16.5343   29.2813   71.9063 N   0  0  0  0  0  0  0  0  0  0  0  0
   16.8777   28.3464   72.8405 C   0  0  0  0  0  0  0  0  0  0  0  0
   15.8470   28.1745   73.6709 N   0  0  0  0  0  0  0  0  0  0  0  0
   14.8679   28.9902   73.2664 C   0  0  0  0  0  0  0  0  0  0  0  0
   15.8078   27.5370   74.4707 H   0  0  0  0  0  0  0  0  0  0  0  0
 16 17  1  0  0  0
 17 18  2  0  0  0
 17 22  1  0  0  0
 18 19  1  0  0  0
 19 20  2  0  0  0
 20 21  1  0  0  0
 20  1  1  0  0  0
 21 22  2  0  0  0
  1  2  2  0  0  0
  1  3  1  0  0  0
  3  4  1  0  0  0
  3  8  1  0  0  0
  4  5  1  0  0  0
  5  6  1  0  0  0
  5 13  1  0  0  0
  6  7  1  0  0  0
  6  9  1  0  0  0
  7  8  1  0  0  0
  9 10  2  0  0  0
  9 11  1  0  0  0
 11 12  1  0  0  0
 11 23  1  0  0  0
 12 13  1  0  0  0
 13 14  2  0  0  0
 23 24  1  0  0  0
 24 25  1  0  0  0
 24 28  2  0  0  0
 25 26  2  0  0  0
 26 27  1  0  0  0
 27 28  1  0  0  0
 12 15  1  0  0  0
 27 29  1  0  0  0
M  END
> <minimizedAffinity>
-9.49256

$$$$
1591


 26 29  0  0  0  0  0  0  0  0999 V2000
   21.5528   36.8184   66.8987 Cl  0  0  0  0  0  0  0  0  0  0  0  0
   20.8281   36.1250   68.3319 C   0  0  0  0  0  0  0  0  0  0  0  0
   21.5149   35.2085   69.0767 C   0  0  0  0  0  0  0  0  0  0  0  0
   20.8316   34.7123   70.1902 C   0  0  0  0  0  0  0  0  0  0  0  0
   19.5890   35.1306   70.4774 N   0  0  0  0  0  0  0  0  0  0  0  0
   18.9113   36.0105   69.7751 N   0  0  0  0  0  0  0  0  0  0  0  0
   19.5278   36.5136   68.6975 C   0  0  0  0  0  0  0  0  0  0  0  0
   18.9620   37.3623   67.9621 O   0  0  0  0  0  0  0  0  0  0  0  0
   17.5940   36.4003   70.1504 C   0  0  0  0  0  0  0  0  0  0  0  0
   17.2199   37.7214   70.2949 C   0  0  0  0  0  0  0  0  0  0  0  0
   15.9415   38.0877   70.6579 C   0  0  0  0  0  0  0  0  0  0  0  0
   14.9766   37.1291   70.8943 C   0  0  0  0  0  0  0  0  0  0  0  0
   15.3438   35.8078   70.7511 C   0  0  0  0  0  0  0  0  0  0  0  0
   16.6266   35.4452   70.3868 C   0  0  0  0  0  0  0  0  0  0  0  0
   22.8334   34.7901   68.7788 N   0  0  0  0  0  0  0  0  0  0  0  0
   24.0111   35.4784   69.2809 C   0  0  0  0  0  0  0  0  0  0  0  0
   24.8340   36.0617   68.1614 C   0  0  0  0  0  0  0  0  0  0  0  0
   24.8438   35.0854   67.0996 N   0  0  0  0  0  0  0  0  0  0  0  0
   24.5927   33.7103   67.4449 C   0  0  0  0  0  0  0  0  0  0  0  0
   23.1245   33.6474   67.9200 C   0  0  0  0  0  0  0  0  0  0  0  0
   25.0929   35.4621   65.7580 C   0  0  0  0  0  0  0  0  0  0  0  0
   24.6930   34.8117   64.6277 N   0  0  0  0  0  0  0  0  0  0  0  0
   25.1186   35.4740   63.5706 N   0  0  0  0  0  0  0  0  0  0  0  0
   25.7851   36.5380   64.0000 C   0  0  0  0  0  0  0  0  0  0  0  0
   25.7566   36.5099   65.3065 O   0  0  0  0  0  0  0  0  0  0  0  0
   26.4662   37.6077   63.2009 C   0  0  0  0  0  0  0  0  0  0  0  0
  1  2  1  0  0  0
  2  3  2  0  0  0
  2  7  1  0  0  0
  3  4  1  0  0  0
  3 15  1  0  0  0
  4  5  2  0  0  0
  5  6  1  0  0  0
  6  7  1  0  0  0
  6  9  1  0  0  0
  7  8  2  0  0  0
  9 10  2  0  0  0
  9 14  1  0  0  0
 10 11  1  0  0  0
 11 12  2  0  0  0
 12 13  1  0  0  0
 13 14  2  0  0  0
 15 16  1  0  0  0
 15 20  1  0  0  0
 16 17  1  0  0  0
 17 18  1  0  0  0
 18 19  1  0  0  0
 18 21  1  0  0  0
 19 20  1  0  0  0
 21 22  2  0  0  0
 21 25  1  0  0  0
 22 23  1  0  0  0
 23 24  2  0  0  0
 24 25  1  0  0  0
 24 26  1  0  0  0
M  END
> <minimizedAffinity>
-8.09608

$$$$
1594


 27 30  0  0  0  0  0  0  0  0999 V2000
   20.3433   34.0420   69.9541 C   0  0  0  0  0  0  0  0  0  0  0  0
   20.2711   32.7894   70.2360 O   0  0  0  0  0  0  0  0  0  0  0  0
   19.5464   34.8896   70.6990 N   0  0  0  0  0  0  0  0  0  0  0  0
   19.5077   36.3214   70.5227 C   0  0  0  0  0  0  0  0  0  0  0  0
   18.1784   36.7599   69.9457 C   0  0  0  0  0  0  0  0  0  0  0  0
   17.0802   35.9168   70.5279 C   0  0  0  0  0  0  0  0  0  0  0  0
   17.2745   34.8406   71.3498 C   0  0  0  0  0  0  0  0  0  0  0  0
   16.0311   34.3768   71.6393 N   0  0  0  0  0  0  0  0  0  0  0  0
   15.1106   35.1023   71.0460 N   0  0  0  0  0  0  0  0  0  0  0  0
   15.6985   36.0761   70.3397 C   0  0  0  0  0  0  0  0  0  0  0  0
   15.1483   36.9791   69.6309 O   0  0  0  0  0  0  0  0  0  0  0  0
   18.6362   34.3900   71.7582 C   0  0  0  0  0  0  0  0  0  0  0  0
   15.8810   33.5450   72.2600 H   0  0  0  0  0  0  0  0  0  0  0  0
   25.9735   34.8464   64.9114 Cl  0  0  0  0  0  0  0  0  0  0  0  0
   24.4857   35.0568   65.8156 C   0  0  0  0  0  0  0  0  0  0  0  0
   24.1827   34.2332   66.8760 C   0  0  0  0  0  0  0  0  0  0  0  0
   23.0183   34.4259   67.5557 N   0  0  0  0  0  0  0  0  0  0  0  0
   22.1925   35.4094   67.1821 C   0  0  0  0  0  0  0  0  0  0  0  0
   21.1213   35.4042   67.9914 N   0  0  0  0  0  0  0  0  0  0  0  0
   21.2506   34.4241   68.8857 C   0  0  0  0  0  0  0  0  0  0  0  0
   22.4732   33.7943   68.6038 C   0  0  0  0  0  0  0  0  0  0  0  0
   22.4763   36.2654   66.1038 C   0  0  0  0  0  0  0  0  0  0  0  0
   23.6382   36.0776   65.4213 C   0  0  0  0  0  0  0  0  0  0  0  0
   13.6519   34.9295   71.1043 C   0  0  0  0  0  0  0  0  0  0  0  0
   13.2637   33.5182   70.7282 C   0  0  0  0  0  0  0  0  0  0  0  0
   12.5092   32.8982   71.7169 O   0  0  0  0  0  0  0  0  0  0  0  0
   12.7338   31.9245   71.8072 H   0  0  0  0  0  0  0  0  0  0  0  0
 14 15  1  0  0  0
 15 16  2  0  0  0
 15 23  1  0  0  0
 16 17  1  0  0  0
 17 18  1  0  0  0
 17 21  1  0  0  0
 18 19  2  0  0  0
 18 22  1  0  0  0
 19 20  1  0  0  0
 20 21  2  0  0  0
 20  1  1  0  0  0
  1  2  2  0  0  0
  1  3  1  0  0  0
  3  4  1  0  0  0
  3 12  1  0  0  0
  4  5  1  0  0  0
  5  6  1  0  0  0
  6  7  2  0  0  0
  6 10  1  0  0  0
  7  8  1  0  0  0
  7 12  1  0  0  0
  8  9  1  0  0  0
  9 10  1  0  0  0
  9 24  1  0  0  0
 10 11  2  0  0  0
 24 25  1  0  0  0
 25 26  1  0  0  0
 22 23  2  0  0  0
  8 13  1  0  0  0
 26 27  1  0  0  0
M  END
> <minimizedAffinity>
-8.55424

$$$$
1599


 30 33  0  0  0  0  0  0  0  0999 V2000
   20.5961   35.5037   70.7607 C   0  0  0  0  0  0  0  0  0  0  0  0
   20.8545   36.2979   71.7325 O   0  0  0  0  0  0  0  0  0  0  0  0
   21.5297   35.2669   69.7429 N   0  0  0  0  0  0  0  0  0  0  0  0
   21.2750   34.3924   68.6431 C   0  0  0  0  0  0  0  0  0  0  0  0
   21.8908   34.8771   67.3612 C   0  0  0  0  0  0  0  0  0  0  0  0
   22.1918   36.3593   67.3214 C   0  0  0  0  0  0  0  0  0  0  0  0
   23.0292   36.5107   66.1392 N   0  0  0  0  0  0  0  0  0  0  0  0
   23.2956   37.8366   65.7304 C   0  0  0  0  0  0  0  0  0  0  0  0
   22.4154   38.9145   66.2476 C   0  0  0  0  0  0  0  0  0  0  0  0
   21.0469   38.4042   66.5720 C   0  0  0  0  0  0  0  0  0  0  0  0
   19.8401   38.9548   66.4471 N   0  0  0  0  0  0  0  0  0  0  0  0
   18.9661   38.0313   66.8993 C   0  0  0  0  0  0  0  0  0  0  0  0
   19.6234   36.9214   67.3010 N   0  0  0  0  0  0  0  0  0  0  0  0
   20.9550   37.1415   67.1000 C   0  0  0  0  0  0  0  0  0  0  0  0
   22.9110   36.8696   68.5435 C   0  0  0  0  0  0  0  0  0  0  0  0
   22.8308   35.9257   69.7295 C   0  0  0  0  0  0  0  0  0  0  0  0
   23.9189   35.9916   66.3915 H   0  0  0  0  0  0  0  0  0  0  0  0
   19.1867   36.0685   67.6888 H   0  0  0  0  0  0  0  0  0  0  0  0
   19.2300   34.8692   70.8185 C   0  0  0  0  0  0  0  0  0  0  0  0
   17.2781   36.6555   70.2380 C   0  0  0  0  0  0  0  0  0  0  0  0
   17.3883   37.9084   69.9933 O   0  0  0  0  0  0  0  0  0  0  0  0
   18.2312   35.7831   70.5217 N   0  0  0  0  0  0  0  0  0  0  0  0
   19.1873   36.7794   70.4361 H   0  0  0  0  0  0  0  0  0  0  0  0
   13.8089   32.6705   71.0026 Br  0  0  0  0  0  0  0  0  0  0  0  0
   14.2190   34.4342   70.4717 C   0  0  0  0  0  0  0  0  0  0  0  0
   15.5268   34.8869   70.5570 C   0  0  0  0  0  0  0  0  0  0  0  0
   15.8562   36.1629   70.1841 C   0  0  0  0  0  0  0  0  0  0  0  0
   14.9307   37.0462   69.7150 C   0  0  0  0  0  0  0  0  0  0  0  0
   13.6095   36.5973   69.6250 C   0  0  0  0  0  0  0  0  0  0  0  0
   13.2730   35.3100   69.9996 C   0  0  0  0  0  0  0  0  0  0  0  0
 24 25  1  0  0  0
 25 26  2  0  0  0
 25 30  1  0  0  0
 26 27  1  0  0  0
 27 28  2  0  0  0
 27 20  1  0  0  0
 28 29  1  0  0  0
 29 30  2  0  0  0
 20 21  2  0  0  0
 20 22  1  0  0  0
 22 19  1  0  0  0
 19  1  1  0  0  0
  1  2  2  0  0  0
  1  3  1  0  0  0
  3  4  1  0  0  0
  3 16  1  0  0  0
  4  5  1  0  0  0
  5  6  1  0  0  0
  6  7  1  0  0  0
  6 14  1  0  0  0
  6 15  1  0  0  0
  7  8  1  0  0  0
  8  9  1  0  0  0
  9 10  1  0  0  0
 10 11  1  0  0  0
 10 14  2  0  0  0
 11 12  2  0  0  0
 12 13  1  0  0  0
 13 14  1  0  0  0
 15 16  1  0  0  0
 22 23  1  0  0  0
  7 17  1  0  0  0
 13 18  1  0  0  0
M  END
> <minimizedAffinity>
-9.08897

$$$$
1609


 26 29  0  0  0  0  0  0  0  0999 V2000
   17.4026   32.6836   72.2493 N   0  0  0  0  0  0  0  0  0  0  0  0
   18.3607   32.0665   71.3711 C   0  0  0  0  0  0  0  0  0  0  0  0
   19.5338   31.8536   72.3071 C   0  0  0  0  0  0  0  0  0  0  0  0
   19.5471   33.0952   72.9993 O   0  0  0  0  0  0  0  0  0  0  0  0
   18.1815   33.3591   73.2301 C   0  0  0  0  0  0  0  0  0  0  0  0
   17.7671   34.0938   74.1816 O   0  0  0  0  0  0  0  0  0  0  0  0
   20.6215   31.6955   71.3083 C   0  0  0  0  0  0  0  0  0  0  0  0
   20.4038   32.8920   70.4633 N   0  0  0  0  0  0  0  0  0  0  0  0
   18.9904   33.1070   70.4278 C   0  0  0  0  0  0  0  0  0  0  0  0
   21.4848   33.5660   69.8881 C   0  0  0  0  0  0  0  0  0  0  0  0
   22.6949   33.1447   70.1007 O   0  0  0  0  0  0  0  0  0  0  0  0
   21.4119   34.7409   69.0394 C   0  0  0  0  0  0  0  0  0  0  0  0
   21.2581   36.0318   69.4403 N   0  0  0  0  0  0  0  0  0  0  0  0
   21.2440   36.8126   68.3627 C   0  0  0  0  0  0  0  0  0  0  0  0
   21.3856   36.0522   67.2753 N   0  0  0  0  0  0  0  0  0  0  0  0
   21.4915   34.7663   67.6784 C   0  0  0  0  0  0  0  0  0  0  0  0
   21.1329   36.4582   70.8095 C   0  0  0  0  0  0  0  0  0  0  0  0
   15.9580   32.6864   72.2328 C   0  0  0  0  0  0  0  0  0  0  0  0
   15.3693   32.6161   70.8503 C   0  0  0  0  0  0  0  0  0  0  0  0
   15.8568   37.7999   70.5353 Cl  0  0  0  0  0  0  0  0  0  0  0  0
   14.9507   36.3127   70.2416 C   0  0  0  0  0  0  0  0  0  0  0  0
   15.4761   35.1056   70.6361 C   0  0  0  0  0  0  0  0  0  0  0  0
   14.7898   33.9102   70.4214 C   0  0  0  0  0  0  0  0  0  0  0  0
   13.5634   34.0085   69.7956 C   0  0  0  0  0  0  0  0  0  0  0  0
   13.0429   35.2280   69.4028 C   0  0  0  0  0  0  0  0  0  0  0  0
   13.7253   36.4067   69.6171 C   0  0  0  0  0  0  0  0  0  0  0  0
 20 21  1  0  0  0
 21 22  2  0  0  0
 21 26  1  0  0  0
 22 23  1  0  0  0
 23 24  2  0  0  0
 23 19  1  0  0  0
 24 25  1  0  0  0
 25 26  2  0  0  0
 19 18  1  0  0  0
 18  1  1  0  0  0
  1  2  1  0  0  0
  1  5  1  0  0  0
  2  3  1  0  0  0
  2  9  1  0  0  0
  3  4  1  0  0  0
  3  7  1  0  0  0
  4  5  1  0  0  0
  5  6  2  0  0  0
  7  8  1  0  0  0
  8  9  1  0  0  0
  8 10  1  0  0  0
 10 11  2  0  0  0
 10 12  1  0  0  0
 12 13  1  0  0  0
 12 16  2  0  0  0
 13 14  1  0  0  0
 13 17  1  0  0  0
 14 15  2  0  0  0
 15 16  1  0  0  0
M  END
> <minimizedAffinity>
-8.36545

$$$$
1612


 31 34  0  0  0  0  0  0  0  0999 V2000
   18.3177   31.6979   71.6115 N   0  0  0  0  0  0  0  0  0  0  0  0
   17.7495   30.5936   72.1383 C   0  0  0  0  0  0  0  0  0  0  0  0
   18.5076   30.2331   73.2270 C   0  0  0  0  0  0  0  0  0  0  0  0
   19.4900   31.1066   73.3275 N   0  0  0  0  0  0  0  0  0  0  0  0
   19.3914   32.0266   72.3358 C   0  0  0  0  0  0  0  0  0  0  0  0
   18.1246   29.1323   73.9333 N   0  0  0  0  0  0  0  0  0  0  0  0
   17.0478   28.4157   73.5909 C   0  0  0  0  0  0  0  0  0  0  0  0
   16.7338   27.4043   74.2784 O   0  0  0  0  0  0  0  0  0  0  0  0
   16.2822   28.7322   72.5387 N   0  0  0  0  0  0  0  0  0  0  0  0
   16.6380   29.8217   71.8171 C   0  0  0  0  0  0  0  0  0  0  0  0
   15.9260   30.1228   70.8342 O   0  0  0  0  0  0  0  0  0  0  0  0
   18.9139   28.7355   75.0972 C   0  0  0  0  0  0  0  0  0  0  0  0
   15.4497   28.1458   72.3067 H   0  0  0  0  0  0  0  0  0  0  0  0
   20.2624   33.1589   72.1925 N   0  0  0  0  0  0  0  0  0  0  0  0
   21.6020   32.9269   71.6147 C   0  0  0  0  0  0  0  0  0  0  0  0
   21.8447   33.7823   70.4133 C   0  0  0  0  0  0  0  0  0  0  0  0
   21.0062   34.9587   70.4292 N   0  0  0  0  0  0  0  0  0  0  0  0
   20.6765   35.5230   71.7213 C   0  0  0  0  0  0  0  0  0  0  0  0
   19.9355   34.4913   72.5536 C   0  0  0  0  0  0  0  0  0  0  0  0
   20.5363   35.5359   69.2190 C   0  0  0  0  0  0  0  0  0  0  0  0
   20.8549   35.0401   68.1163 O   0  0  0  0  0  0  0  0  0  0  0  0
   19.6612   36.7322   69.2256 C   0  0  0  0  0  0  0  0  0  0  0  0
   19.6291   37.2754   67.7994 C   0  0  0  0  0  0  0  0  0  0  0  0
   17.7696   32.3905   70.4894 C   0  0  0  0  0  0  0  0  0  0  0  0
   12.8967   33.7240   71.6857 Cl  0  0  0  0  0  0  0  0  0  0  0  0
   14.5657   34.1569   71.3178 C   0  0  0  0  0  0  0  0  0  0  0  0
   15.4609   33.1212   71.0826 C   0  0  0  0  0  0  0  0  0  0  0  0
   16.7604   33.4313   70.7983 C   0  0  0  0  0  0  0  0  0  0  0  0
   17.1449   34.7857   70.7544 C   0  0  0  0  0  0  0  0  0  0  0  0
   16.2431   35.7835   70.9896 C   0  0  0  0  0  0  0  0  0  0  0  0
   14.9227   35.4867   71.2798 C   0  0  0  0  0  0  0  0  0  0  0  0
 25 26  1  0  0  0
 26 27  2  0  0  0
 26 31  1  0  0  0
 27 28  1  0  0  0
 28 29  2  0  0  0
 28 24  1  0  0  0
 29 30  1  0  0  0
 30 31  2  0  0  0
 24  1  1  0  0  0
  1  2  1  0  0  0
  1  5  1  0  0  0
  2  3  2  0  0  0
  2 10  1  0  0  0
  3  4  1  0  0  0
  3  6  1  0  0  0
  4  5  2  0  0  0
  5 14  1  0  0  0
 14 15  1  0  0  0
 14 19  1  0  0  0
 15 16  1  0  0  0
 16 17  1  0  0  0
 17 18  1  0  0  0
 17 20  1  0  0  0
 18 19  1  0  0  0
 20 21  2  0  0  0
 20 22  1  0  0  0
 22 23  1  0  0  0
  6  7  1  0  0  0
  6 12  1  0  0  0
  7  8  2  0  0  0
  7  9  1  0  0  0
  9 10  1  0  0  0
 10 11  2  0  0  0
  9 13  1  0  0  0
M  END
> <minimizedAffinity>
-8.51923

$$$$
1622


 28 31  0  0  0  0  0  0  0  0999 V2000
   19.8299   33.9726   72.0955 C   0  0  0  0  0  0  0  0  0  0  0  0
   20.0779   34.9169   72.8885 O   0  0  0  0  0  0  0  0  0  0  0  0
   18.6172   33.2338   72.1495 N   0  0  0  0  0  0  0  0  0  0  0  0
   17.6349   33.5833   73.1522 C   0  0  0  0  0  0  0  0  0  0  0  0
   16.2812   33.1677   72.6066 C   0  0  0  0  0  0  0  0  0  0  0  0
   16.1921   33.3583   71.1083 C   0  0  0  0  0  0  0  0  0  0  0  0
   14.8124   33.1490   70.7336 N   0  0  0  0  0  0  0  0  0  0  0  0
   14.1197   34.3798   70.8773 C   0  0  0  0  0  0  0  0  0  0  0  0
   12.8671   34.5652   70.9899 O   0  0  0  0  0  0  0  0  0  0  0  0
   15.1248   35.3979   70.8707 N   0  0  0  0  0  0  0  0  0  0  0  0
   16.4029   34.7775   70.7244 C   0  0  0  0  0  0  0  0  0  0  0  0
   17.4601   35.3516   70.3468 O   0  0  0  0  0  0  0  0  0  0  0  0
   14.9302   36.8448   70.9900 C   0  0  0  0  0  0  0  0  0  0  0  0
   17.1347   32.4593   70.3641 C   0  0  0  0  0  0  0  0  0  0  0  0
   18.2950   32.1435   71.2575 C   0  0  0  0  0  0  0  0  0  0  0  0
   14.4187   32.2429   70.4175 H   0  0  0  0  0  0  0  0  0  0  0  0
   21.5210   31.5975   72.7279 Cl  0  0  0  0  0  0  0  0  0  0  0  0
   21.7158   32.6009   71.2841 C   0  0  0  0  0  0  0  0  0  0  0  0
   20.8694   33.6734   71.1059 C   0  0  0  0  0  0  0  0  0  0  0  0
   21.0109   34.4628   69.9858 C   0  0  0  0  0  0  0  0  0  0  0  0
   21.9829   34.1958   69.0451 C   0  0  0  0  0  0  0  0  0  0  0  0
   22.8117   33.1076   69.2659 C   0  0  0  0  0  0  0  0  0  0  0  0
   22.7035   32.2953   70.3702 C   0  0  0  0  0  0  0  0  0  0  0  0
   22.1488   34.9986   67.8773 N   0  0  0  0  0  0  0  0  0  0  0  0
   23.2175   35.1507   67.1345 N   0  0  0  0  0  0  0  0  0  0  0  0
   22.9452   36.0103   66.1097 C   0  0  0  0  0  0  0  0  0  0  0  0
   21.6328   36.4111   66.2277 C   0  0  0  0  0  0  0  0  0  0  0  0
   21.1582   35.7476   67.3628 C   0  0  0  0  0  0  0  0  0  0  0  0
 17 18  1  0  0  0
 18 19  2  0  0  0
 18 23  1  0  0  0
 19 20  1  0  0  0
 19  1  1  0  0  0
 20 21  2  0  0  0
 21 22  1  0  0  0
 21 24  1  0  0  0
 22 23  2  0  0  0
 24 25  1  0  0  0
 24 28  1  0  0  0
 25 26  2  0  0  0
 26 27  1  0  0  0
 27 28  2  0  0  0
  1  2  2  0  0  0
  1  3  1  0  0  0
  3  4  1  0  0  0
  3 15  1  0  0  0
  4  5  1  0  0  0
  5  6  1  0  0  0
  6  7  1  0  0  0
  6 11  1  0  0  0
  6 14  1  0  0  0
  7  8  1  0  0  0
  8  9  2  0  0  0
  8 10  1  0  0  0
 10 11  1  0  0  0
 10 13  1  0  0  0
 11 12  2  0  0  0
 14 15  1  0  0  0
  7 16  1  0  0  0
M  END
> <minimizedAffinity>
-8.19860

$$$$
1624


 32 35  0  0  0  0  0  0  0  0999 V2000
   23.4714   37.0894   66.1101 C   0  0  0  0  0  0  0  0  0  0  0  0
   24.8145   36.8195   66.6549 N   0  0  0  0  0  0  0  0  0  0  0  0
   24.7889   37.0853   68.0510 C   0  0  0  0  0  0  0  0  0  0  0  0
   25.7500   37.3236   68.7852 O   0  0  0  0  0  0  0  0  0  0  0  0
   23.3785   37.0235   68.4820 C   0  0  0  0  0  0  0  0  0  0  0  0
   22.9092   37.2048   69.6513 O   0  0  0  0  0  0  0  0  0  0  0  0
   22.6167   36.7124   67.2835 C   0  0  0  0  0  0  0  0  0  0  0  0
   21.4008   36.2253   67.2902 C   0  0  0  0  0  0  0  0  0  0  0  0
   20.7741   36.0178   66.0651 O   0  0  0  0  0  0  0  0  0  0  0  0
   23.1173   42.8877   64.6126 Cl  0  0  0  0  0  0  0  0  0  0  0  0
   23.1892   41.2054   65.0583 C   0  0  0  0  0  0  0  0  0  0  0  0
   22.1742   40.6034   65.7416 C   0  0  0  0  0  0  0  0  0  0  0  0
   22.2823   39.2607   66.0729 C   0  0  0  0  0  0  0  0  0  0  0  0
   23.3591   38.4977   65.7524 C   0  0  0  0  0  0  0  0  0  0  0  0
   24.3950   39.1171   65.0534 C   0  0  0  0  0  0  0  0  0  0  0  0
   24.3110   40.4480   64.7135 C   0  0  0  0  0  0  0  0  0  0  0  0
   20.6277   35.8693   68.4754 C   0  0  0  0  0  0  0  0  0  0  0  0
   20.8583   34.6027   69.0001 C   0  0  0  0  0  0  0  0  0  0  0  0
   20.1885   34.2109   70.1248 C   0  0  0  0  0  0  0  0  0  0  0  0
   19.2854   35.0485   70.7504 C   0  0  0  0  0  0  0  0  0  0  0  0
   19.0606   36.3034   70.2260 C   0  0  0  0  0  0  0  0  0  0  0  0
   19.7438   36.6883   69.0901 C   0  0  0  0  0  0  0  0  0  0  0  0
   18.4591   34.5073   72.1742 Cl  0  0  0  0  0  0  0  0  0  0  0  0
   25.8876   36.3556   65.8131 C   0  0  0  0  0  0  0  0  0  0  0  0
   25.6130   35.1277   65.0317 C   0  0  0  0  0  0  0  0  0  0  0  0
   25.6013   33.8794   65.6996 N   0  0  0  0  0  0  0  0  0  0  0  0
   24.3637   33.5930   66.3938 C   0  0  0  0  0  0  0  0  0  0  0  0
   24.5476   33.2881   67.8611 C   0  0  0  0  0  0  0  0  0  0  0  0
   25.5268   32.3703   68.1403 O   0  0  0  0  0  0  0  0  0  0  0  0
   26.7142   32.6056   67.4727 C   0  0  0  0  0  0  0  0  0  0  0  0
   26.6305   33.9213   66.7598 C   0  0  0  0  0  0  0  0  0  0  0  0
   25.8951   33.0881   65.1038 H   0  0  0  0  0  0  0  0  0  0  0  0
 10 11  1  0  0  0
 11 12  2  0  0  0
 11 16  1  0  0  0
 12 13  1  0  0  0
 13 14  2  0  0  0
 14 15  1  0  0  0
 14  1  1  0  0  0
 15 16  2  0  0  0
  1  2  1  0  0  0
  1  7  1  0  0  0
  2  3  1  0  0  0
  2 24  1  0  0  0
  3  4  2  0  0  0
  3  5  1  0  0  0
  5  6  2  0  0  0
  5  7  1  0  0  0
  7  8  2  0  0  0
  8  9  1  0  0  0
  8 17  1  0  0  0
 17 18  2  0  0  0
 17 22  1  0  0  0
 18 19  1  0  0  0
 19 20  2  0  0  0
 20 21  1  0  0  0
 20 23  1  0  0  0
 21 22  2  0  0  0
 24 25  1  0  0  0
 25 26  1  0  0  0
 26 27  1  0  0  0
 26 31  1  0  0  0
 27 28  1  0  0  0
 28 29  1  0  0  0
 29 30  1  0  0  0
 30 31  1  0  0  0
 26 32  1  0  0  0
M  CHG 1   9  -1
M  CHG 1  26   1
M  END
> <minimizedAffinity>
-8.67663

$$$$
1630


 39 43  0  0  0  0  0  0  0  0999 V2000
    8.4912   30.2071   77.3876 Cl  0  0  0  0  0  0  0  0  0  0  0  0
   10.1164   29.7347   76.8686 C   0  0  0  0  0  0  0  0  0  0  0  0
   11.1520   29.7286   77.7709 C   0  0  0  0  0  0  0  0  0  0  0  0
   12.4278   29.3578   77.3667 C   0  0  0  0  0  0  0  0  0  0  0  0
   12.7301   28.9856   76.0850 C   0  0  0  0  0  0  0  0  0  0  0  0
   11.6530   29.0006   75.1851 C   0  0  0  0  0  0  0  0  0  0  0  0
   10.3837   29.3667   75.5754 C   0  0  0  0  0  0  0  0  0  0  0  0
   14.1446   28.6627   75.9944 C   0  0  0  0  0  0  0  0  0  0  0  0
   14.2595   27.2529   75.6317 N   0  0  0  0  0  0  0  0  0  0  0  0
   14.6131   27.3024   74.2393 C   0  0  0  0  0  0  0  0  0  0  0  0
   15.6536   28.3989   74.2194 C   0  0  0  0  0  0  0  0  0  0  0  0
   14.9403   29.4639   75.0237 C   0  0  0  0  0  0  0  0  0  0  0  0
   14.2103   30.2371   74.0394 C   0  0  0  0  0  0  0  0  0  0  0  0
   13.2742   31.0370   74.2591 O   0  0  0  0  0  0  0  0  0  0  0  0
   14.7247   29.9483   72.7467 N   0  0  0  0  0  0  0  0  0  0  0  0
   15.7876   29.0015   72.8689 C   0  0  0  0  0  0  0  0  0  0  0  0
   16.6834   28.6915   72.0482 O   0  0  0  0  0  0  0  0  0  0  0  0
   14.6748   28.8687   77.3631 C   0  0  0  0  0  0  0  0  0  0  0  0
   15.8632   28.7031   77.7686 O   0  0  0  0  0  0  0  0  0  0  0  0
   13.6001   29.2957   78.1697 N   0  0  0  0  0  0  0  0  0  0  0  0
   10.8739   30.1265   79.1788 C   0  0  0  0  0  0  0  0  0  0  0  0
   13.3618   26.7643   75.8348 H   0  0  0  0  0  0  0  0  0  0  0  0
   13.6731   29.5254   79.1972 H   0  0  0  0  0  0  0  0  0  0  0  0
   14.3072   30.4790   71.4626 C   0  0  0  0  0  0  0  0  0  0  0  0
   14.4322   31.9461   71.3991 C   0  0  0  0  0  0  0  0  0  0  0  0
   15.6914   32.4790   71.2236 C   0  0  0  0  0  0  0  0  0  0  0  0
   15.8024   33.8614   71.1650 C   0  0  0  0  0  0  0  0  0  0  0  0
   14.7083   34.6724   71.2760 C   0  0  0  0  0  0  0  0  0  0  0  0
   13.4693   34.1024   71.4491 C   0  0  0  0  0  0  0  0  0  0  0  0
   13.2934   32.7378   71.5159 C   0  0  0  0  0  0  0  0  0  0  0  0
   16.7810   31.6409   71.1140 O   0  0  0  0  0  0  0  0  0  0  0  0
   17.9013   31.8873   70.3236 C   0  0  0  0  0  0  0  0  0  0  0  0
   15.1709   25.9802   73.7621 C   0  0  0  0  0  0  0  0  0  0  0  0
   16.5273   25.8178   74.4155 C   0  0  0  0  0  0  0  0  0  0  0  0
   17.5309   25.2675   73.4709 C   0  0  0  0  0  0  0  0  0  0  0  0
   18.2393   24.2819   73.8231 O   0  0  0  0  0  0  0  0  0  0  0  0
   17.6406   25.8914   72.1991 N   0  0  0  0  0  0  0  0  0  0  0  0
   16.7762   26.2315   71.7455 H   0  0  0  0  0  0  0  0  0  0  0  0
   18.6048   25.9710   71.7879 H   0  0  0  0  0  0  0  0  0  0  0  0
  1  2  1  0  0  0
  2  3  2  0  0  0
  2  7  1  0  0  0
  3  4  1  0  0  0
  3 21  1  0  0  0
  4  5  2  0  0  0
  4 20  1  0  0  0
  5  6  1  0  0  0
  5  8  1  0  0  0
  6  7  2  0  0  0
  8  9  1  0  0  0
  8 12  1  0  0  0
  8 18  1  0  0  0
  9 10  1  0  0  0
 10 11  1  0  0  0
 10 33  1  0  0  0
 11 12  1  0  0  0
 11 16  1  0  0  0
 12 13  1  0  0  0
 13 14  2  0  0  0
 13 15  1  0  0  0
 15 16  1  0  0  0
 15 24  1  0  0  0
 16 17  2  0  0  0
 24 25  1  0  0  0
 25 26  2  0  0  0
 25 30  1  0  0  0
 26 27  1  0  0  0
 26 31  1  0  0  0
 27 28  2  0  0  0
 28 29  1  0  0  0
 29 30  2  0  0  0
 31 32  1  0  0  0
 33 34  1  0  0  0
 34 35  1  0  0  0
 35 36  2  0  0  0
 35 37  1  0  0  0
 18 19  2  0  0  0
 18 20  1  0  0  0
  9 22  1  0  0  0
 37 38  1  0  0  0
 37 39  1  0  0  0
 20 23  1  0  0  0
M  END
> <minimizedAffinity>
-8.14498

$$$$
1631


 29 32  0  0  0  0  0  0  0  0999 V2000
   16.2468   32.8284   72.3620 C   0  0  0  0  0  0  0  0  0  0  0  0
   15.9168   31.4385   72.4998 N   0  0  0  0  0  0  0  0  0  0  0  0
   16.6562   30.6527   71.5705 C   0  0  0  0  0  0  0  0  0  0  0  0
   16.4283   29.4580   71.2220 O   0  0  0  0  0  0  0  0  0  0  0  0
   17.7664   31.4868   71.0645 C   0  0  0  0  0  0  0  0  0  0  0  0
   18.6188   31.1182   70.2252 O   0  0  0  0  0  0  0  0  0  0  0  0
   17.6184   32.7652   71.7474 C   0  0  0  0  0  0  0  0  0  0  0  0
   18.5461   33.6984   71.7659 C   0  0  0  0  0  0  0  0  0  0  0  0
   18.2292   34.9022   72.4283 O   0  0  0  0  0  0  0  0  0  0  0  0
   14.4463   37.4693   70.7121 Cl  0  0  0  0  0  0  0  0  0  0  0  0
   14.4262   35.7196   70.7170 C   0  0  0  0  0  0  0  0  0  0  0  0
   15.2880   34.9777   71.4895 C   0  0  0  0  0  0  0  0  0  0  0  0
   15.2968   33.5888   71.5116 C   0  0  0  0  0  0  0  0  0  0  0  0
   14.3712   32.9436   70.6976 C   0  0  0  0  0  0  0  0  0  0  0  0
   13.4967   33.6619   69.9137 C   0  0  0  0  0  0  0  0  0  0  0  0
   13.5260   35.0408   69.9253 C   0  0  0  0  0  0  0  0  0  0  0  0
   14.9882   30.9063   73.4203 C   0  0  0  0  0  0  0  0  0  0  0  0
   15.4738   29.9764   74.2849 N   0  0  0  0  0  0  0  0  0  0  0  0
   14.6987   29.3996   75.2022 C   0  0  0  0  0  0  0  0  0  0  0  0
   13.3752   29.7715   75.2599 C   0  0  0  0  0  0  0  0  0  0  0  0
   12.9049   30.7175   74.3738 C   0  0  0  0  0  0  0  0  0  0  0  0
   13.6940   31.2935   73.4498 N   0  0  0  0  0  0  0  0  0  0  0  0
   16.4900   29.6872   74.2500 H   0  0  0  0  0  0  0  0  0  0  0  0
   19.8625   33.5640   71.1575 C   0  0  0  0  0  0  0  0  0  0  0  0
   20.1119   34.1566   69.9114 C   0  0  0  0  0  0  0  0  0  0  0  0
   21.3556   34.0704   69.3254 C   0  0  0  0  0  0  0  0  0  0  0  0
   22.4077   33.4086   69.9231 C   0  0  0  0  0  0  0  0  0  0  0  0
   22.1838   32.8208   71.1474 C   0  0  0  0  0  0  0  0  0  0  0  0
   20.9230   32.9086   71.7392 C   0  0  0  0  0  0  0  0  0  0  0  0
 10 11  1  0  0  0
 11 12  2  0  0  0
 11 16  1  0  0  0
 12 13  1  0  0  0
 13 14  2  0  0  0
 13  1  1  0  0  0
 14 15  1  0  0  0
 15 16  2  0  0  0
  1  2  1  0  0  0
  1  7  1  0  0  0
  2  3  1  0  0  0
  2 17  1  0  0  0
  3  4  2  0  0  0
  3  5  1  0  0  0
  5  6  2  0  0  0
  5  7  1  0  0  0
  7  8  2  0  0  0
  8  9  1  0  0  0
  8 24  1  0  0  0
 24 25  2  0  0  0
 24 29  1  0  0  0
 25 26  1  0  0  0
 26 27  2  0  0  0
 27 28  1  0  0  0
 28 29  2  0  0  0
 17 18  2  0  0  0
 17 22  1  0  0  0
 18 19  1  0  0  0
 19 20  2  0  0  0
 20 21  1  0  0  0
 21 22  2  0  0  0
 18 23  1  0  0  0
M  CHG 1   9  -1
M  END
> <minimizedAffinity>
-9.06560

$$$$
1637


 29 32  0  0  0  0  0  0  0  0999 V2000
   23.2240   36.0102   67.3561 C   0  0  0  0  0  0  0  0  0  0  0  0
   22.8408   36.8537   68.3212 N   0  0  0  0  0  0  0  0  0  0  0  0
   22.3701   36.4752   69.5057 C   0  0  0  0  0  0  0  0  0  0  0  0
   22.2658   35.0947   69.7405 C   0  0  0  0  0  0  0  0  0  0  0  0
   22.6539   34.2482   68.7635 C   0  0  0  0  0  0  0  0  0  0  0  0
   23.1346   34.7112   67.5756 N   0  0  0  0  0  0  0  0  0  0  0  0
   22.5642   32.8841   68.9977 O   0  0  0  0  0  0  0  0  0  0  0  0
   21.6118   34.7298   70.9998 C   0  0  0  0  0  0  0  0  0  0  0  0
   20.3968   35.4839   71.0348 N   0  0  0  0  0  0  0  0  0  0  0  0
   20.8742   36.8632   71.4930 C   0  0  0  0  0  0  0  0  0  0  0  0
   21.9223   37.3978   70.5822 C   0  0  0  0  0  0  0  0  0  0  0  0
   22.7668   32.4450   69.9015 H   0  0  0  0  0  0  0  0  0  0  0  0
   23.7325   36.6883   65.7984 S   0  0  0  0  0  0  0  0  0  0  0  0
   23.0429   37.9191   65.4811 O   0  0  0  0  0  0  0  0  0  0  0  0
   23.4853   35.6245   64.7715 O   0  0  0  0  0  0  0  0  0  0  0  0
   25.5252   36.8985   65.9313 C   0  0  0  0  0  0  0  0  0  0  0  0
   19.7825   35.8537   69.7086 C   0  0  0  0  0  0  0  0  0  0  0  0
   18.3050   35.6929   70.0764 C   0  0  0  0  0  0  0  0  0  0  0  0
   17.7086   34.5524   70.4500 C   0  0  0  0  0  0  0  0  0  0  0  0
   16.3314   34.4503   70.7859 C   0  0  0  0  0  0  0  0  0  0  0  0
   15.6263   35.6546   70.7028 C   0  0  0  0  0  0  0  0  0  0  0  0
   14.2987   35.6185   71.0139 C   0  0  0  0  0  0  0  0  0  0  0  0
   13.6051   34.4530   71.4084 C   0  0  0  0  0  0  0  0  0  0  0  0
   14.3590   33.2675   71.4827 C   0  0  0  0  0  0  0  0  0  0  0  0
   15.6870   33.3223   71.1655 C   0  0  0  0  0  0  0  0  0  0  0  0
   16.1936   36.7582   70.3559 O   0  0  0  0  0  0  0  0  0  0  0  0
   17.4960   36.8263   70.0401 C   0  0  0  0  0  0  0  0  0  0  0  0
   18.0469   37.9374   69.6832 O   0  0  0  0  0  0  0  0  0  0  0  0
   18.6816   33.1275   70.5903 Cl  0  0  0  0  0  0  0  0  0  0  0  0
 13 14  2  0  0  0
 13 15  2  0  0  0
 13 16  1  0  0  0
 13  1  1  0  0  0
  1  2  2  0  0  0
  1  6  1  0  0  0
  2  3  1  0  0  0
  3  4  2  0  0  0
  3 11  1  0  0  0
  4  5  1  0  0  0
  4  8  1  0  0  0
  5  6  2  0  0  0
  5  7  1  0  0  0
  8  9  1  0  0  0
  9 10  1  0  0  0
  9 17  1  0  0  0
 10 11  1  0  0  0
 17 18  1  0  0  0
 18 19  2  0  0  0
 18 27  1  0  0  0
 19 20  1  0  0  0
 19 29  1  0  0  0
 20 21  2  0  0  0
 20 25  1  0  0  0
 21 22  1  0  0  0
 21 26  1  0  0  0
 22 23  2  0  0  0
 23 24  1  0  0  0
 24 25  2  0  0  0
 26 27  1  0  0  0
 27 28  2  0  0  0
  7 12  1  0  0  0
M  END
> <minimizedAffinity>
-8.86682

$$$$
1638


 38 41  0  0  0  0  0  0  0  0999 V2000
   19.8811   33.9439   71.2467 C   0  0  0  0  0  0  0  0  0  0  0  0
   20.0865   33.1905   70.0985 C   0  0  0  0  0  0  0  0  0  0  0  0
   21.1853   33.4197   69.3298 N   0  0  0  0  0  0  0  0  0  0  0  0
   22.0975   34.3539   69.6299 C   0  0  0  0  0  0  0  0  0  0  0  0
   21.9040   35.0874   70.7400 N   0  0  0  0  0  0  0  0  0  0  0  0
   20.8345   34.8977   71.5313 C   0  0  0  0  0  0  0  0  0  0  0  0
   19.1264   32.2104   69.7883 N   0  0  0  0  0  0  0  0  0  0  0  0
   18.5869   32.1925   68.8984 H   0  0  0  0  0  0  0  0  0  0  0  0
   18.9341   31.4545   70.4774 H   0  0  0  0  0  0  0  0  0  0  0  0
   23.2508   34.5898   68.8255 N   0  0  0  0  0  0  0  0  0  0  0  0
   23.7406   33.6171   67.8794 C   0  0  0  0  0  0  0  0  0  0  0  0
   23.8972   34.1398   66.4784 C   0  0  0  0  0  0  0  0  0  0  0  0
   24.0952   35.6463   66.4461 C   0  0  0  0  0  0  0  0  0  0  0  0
   24.8862   35.9321   67.7342 C   0  0  0  0  0  0  0  0  0  0  0  0
   23.9949   35.8323   68.9268 C   0  0  0  0  0  0  0  0  0  0  0  0
   22.9309   36.3948   66.4559 N   0  0  0  0  0  0  0  0  0  0  0  0
   21.7267   35.9136   65.8998 C   0  0  0  0  0  0  0  0  0  0  0  0
   20.5738   36.5077   66.7265 C   0  0  0  0  0  0  0  0  0  0  0  0
   21.0750   37.7658   67.3822 C   0  0  0  0  0  0  0  0  0  0  0  0
   21.9699   38.5727   66.4764 C   0  0  0  0  0  0  0  0  0  0  0  0
   23.1200   37.7280   65.9534 C   0  0  0  0  0  0  0  0  0  0  0  0
   25.0195   35.9565   65.3319 C   0  0  0  0  0  0  0  0  0  0  0  0
   24.7128   35.6587   64.1282 O   0  0  0  0  0  0  0  0  0  0  0  0
   26.2593   36.5801   65.5096 N   0  0  0  0  0  0  0  0  0  0  0  0
   27.1311   35.9881   65.4320 H   0  0  0  0  0  0  0  0  0  0  0  0
   26.4274   37.5867   65.7074 H   0  0  0  0  0  0  0  0  0  0  0  0
   18.4831   33.6840   72.2693 S   0  0  0  0  0  0  0  0  0  0  0  0
   18.1619   32.2317   72.4095 O   0  0  0  0  0  0  0  0  0  0  0  0
   18.7723   34.3275   73.6017 O   0  0  0  0  0  0  0  0  0  0  0  0
   17.1185   34.5464   71.5433 C   0  0  0  0  0  0  0  0  0  0  0  0
   15.8283   34.1119   71.7689 C   0  0  0  0  0  0  0  0  0  0  0  0
   14.7960   34.8144   71.1836 C   0  0  0  0  0  0  0  0  0  0  0  0
   15.0317   35.9297   70.3863 C   0  0  0  0  0  0  0  0  0  0  0  0
   16.3342   36.3325   70.1852 C   0  0  0  0  0  0  0  0  0  0  0  0
   17.3887   35.6503   70.7572 C   0  0  0  0  0  0  0  0  0  0  0  0
   16.6527   37.7486   69.1742 Cl  0  0  0  0  0  0  0  0  0  0  0  0
   15.6354   33.0116   72.5572 O   0  0  0  0  0  0  0  0  0  0  0  0
   14.7031   31.9946   72.3182 C   0  0  0  0  0  0  0  0  0  0  0  0
 27 28  2  0  0  0
 27 29  2  0  0  0
 27  1  1  0  0  0
 27 30  1  0  0  0
  1  2  2  0  0  0
  1  6  1  0  0  0
  2  3  1  0  0  0
  2  7  1  0  0  0
  3  4  2  0  0  0
  4  5  1  0  0  0
  4 10  1  0  0  0
  5  6  2  0  0  0
 10 11  1  0  0  0
 10 15  1  0  0  0
 11 12  1  0  0  0
 12 13  1  0  0  0
 13 14  1  0  0  0
 13 16  1  0  0  0
 13 22  1  0  0  0
 14 15  1  0  0  0
 16 17  1  0  0  0
 16 21  1  0  0  0
 17 18  1  0  0  0
 18 19  1  0  0  0
 19 20  1  0  0  0
 20 21  1  0  0  0
 22 23  2  0  0  0
 22 24  1  0  0  0
 30 31  2  0  0  0
 30 35  1  0  0  0
 31 32  1  0  0  0
 31 37  1  0  0  0
 32 33  2  0  0  0
 33 34  1  0  0  0
 34 35  2  0  0  0
 34 36  1  0  0  0
 37 38  1  0  0  0
 24 25  1  0  0  0
 24 26  1  0  0  0
  7  8  1  0  0  0
  7  9  1  0  0  0
M  END
> <minimizedAffinity>
-8.80945

$$$$
1651


 23 26  0  0  0  0  0  0  0  0999 V2000
   13.5205   30.3008   73.2178 Cl  0  0  0  0  0  0  0  0  0  0  0  0
   14.1802   31.7838   72.5220 C   0  0  0  0  0  0  0  0  0  0  0  0
   15.5293   32.0405   72.5161 C   0  0  0  0  0  0  0  0  0  0  0  0
   16.0291   33.2267   71.9569 C   0  0  0  0  0  0  0  0  0  0  0  0
   15.1980   34.1590   71.4036 C   0  0  0  0  0  0  0  0  0  0  0  0
   13.8145   33.9033   71.4056 C   0  0  0  0  0  0  0  0  0  0  0  0
   13.3593   32.7330   71.9612 C   0  0  0  0  0  0  0  0  0  0  0  0
   15.9082   35.2777   70.8977 N   0  0  0  0  0  0  0  0  0  0  0  0
   17.2798   35.0296   71.1523 C   0  0  0  0  0  0  0  0  0  0  0  0
   18.2105   35.8256   70.8323 O   0  0  0  0  0  0  0  0  0  0  0  0
   17.4212   33.7229   71.8318 C   0  0  0  0  0  0  0  0  0  0  0  0
   18.0352   34.0007   73.1876 C   0  0  0  0  0  0  0  0  0  0  0  0
   19.4591   34.3821   72.9007 C   0  0  0  0  0  0  0  0  0  0  0  0
   19.9790   35.4362   73.3104 O   0  0  0  0  0  0  0  0  0  0  0  0
   20.2142   33.4547   72.1119 N   0  0  0  0  0  0  0  0  0  0  0  0
   19.5435   32.6355   71.1632 C   0  0  0  0  0  0  0  0  0  0  0  0
   19.9743   31.6797   70.2959 N   0  0  0  0  0  0  0  0  0  0  0  0
   18.9342   31.2200   69.6438 N   0  0  0  0  0  0  0  0  0  0  0  0
   17.8074   31.8328   70.0392 C   0  0  0  0  0  0  0  0  0  0  0  0
   18.1840   32.7547   71.0240 C   0  0  0  0  0  0  0  0  0  0  0  0
   15.3187   36.4506   70.2444 C   0  0  0  0  0  0  0  0  0  0  0  0
   21.2486   33.3703   72.2225 H   0  0  0  0  0  0  0  0  0  0  0  0
   20.9792   31.4009   70.2094 H   0  0  0  0  0  0  0  0  0  0  0  0
  1  2  1  0  0  0
  2  3  2  0  0  0
  2  7  1  0  0  0
  3  4  1  0  0  0
  4  5  2  0  0  0
  4 11  1  0  0  0
  5  6  1  0  0  0
  5  8  1  0  0  0
  6  7  2  0  0  0
  8  9  1  0  0  0
  8 21  1  0  0  0
  9 10  2  0  0  0
  9 11  1  0  0  0
 11 12  1  0  0  0
 11 20  1  0  0  0
 12 13  1  0  0  0
 13 14  2  0  0  0
 13 15  1  0  0  0
 15 16  1  0  0  0
 16 17  1  0  0  0
 16 20  2  0  0  0
 17 18  1  0  0  0
 18 19  2  0  0  0
 19 20  1  0  0  0
 15 22  1  0  0  0
 17 23  1  0  0  0
M  END
> <minimizedAffinity>
-7.60898

$$$$
1657


 33 36  0  0  0  0  0  0  0  0999 V2000
   16.3590   37.3572   69.6770 Cl  0  0  0  0  0  0  0  0  0  0  0  0
   16.0227   35.8573   70.5510 C   0  0  0  0  0  0  0  0  0  0  0  0
   14.7270   35.4060   70.6809 C   0  0  0  0  0  0  0  0  0  0  0  0
   14.4729   34.2533   71.3504 C   0  0  0  0  0  0  0  0  0  0  0  0
   15.5215   33.5151   71.9156 C   0  0  0  0  0  0  0  0  0  0  0  0
   16.8054   33.9844   71.7741 C   0  0  0  0  0  0  0  0  0  0  0  0
   17.0833   35.1614   71.0913 C   0  0  0  0  0  0  0  0  0  0  0  0
   15.2629   32.3043   72.6187 N   0  0  0  0  0  0  0  0  0  0  0  0
   14.0711   31.5384   72.2864 C   0  0  0  0  0  0  0  0  0  0  0  0
   12.9763   32.4800   72.2600 N   0  0  0  0  0  0  0  0  0  0  0  0
   13.1375   33.6927   71.5425 C   0  0  0  0  0  0  0  0  0  0  0  0
   12.1733   34.3319   71.0477 O   0  0  0  0  0  0  0  0  0  0  0  0
   13.8503   30.5198   73.3539 C   0  0  0  0  0  0  0  0  0  0  0  0
   14.6024   29.2301   73.1181 C   0  0  0  0  0  0  0  0  0  0  0  0
   15.9882   29.4655   72.7702 N   0  0  0  0  0  0  0  0  0  0  0  0
   16.3917   30.2047   71.5909 C   0  0  0  0  0  0  0  0  0  0  0  0
   17.6181   30.4436   71.5056 O   0  0  0  0  0  0  0  0  0  0  0  0
   15.5835   30.7218   70.4744 C   0  0  0  0  0  0  0  0  0  0  0  0
   14.1622   30.9573   70.8897 C   0  0  0  0  0  0  0  0  0  0  0  0
   15.9515   32.0239   73.3475 H   0  0  0  0  0  0  0  0  0  0  0  0
   12.0708   32.3144   72.7417 H   0  0  0  0  0  0  0  0  0  0  0  0
   17.0320   28.9988   73.5884 C   0  0  0  0  0  0  0  0  0  0  0  0
   17.7330   27.7642   73.3180 C   0  0  0  0  0  0  0  0  0  0  0  0
   17.0943   27.0422   72.3962 O   0  0  0  0  0  0  0  0  0  0  0  0
   18.8999   27.2525   73.8392 N   0  0  0  0  0  0  0  0  0  0  0  0
   19.3739   25.9309   73.3528 C   0  0  0  0  0  0  0  0  0  0  0  0
   20.8762   26.1421   73.1067 C   0  0  0  0  0  0  0  0  0  0  0  0
   21.1855   27.5212   72.9285 N   0  0  0  0  0  0  0  0  0  0  0  0
   21.0379   28.3499   74.0876 C   0  0  0  0  0  0  0  0  0  0  0  0
   19.7465   27.8501   74.7951 C   0  0  0  0  0  0  0  0  0  0  0  0
   22.3276   27.8101   72.1295 C   0  0  0  0  0  0  0  0  0  0  0  0
   23.2594   28.8342   72.7443 C   0  0  0  0  0  0  0  0  0  0  0  0
   23.1196   26.5895   71.7473 C   0  0  0  0  0  0  0  0  0  0  0  0
  1  2  1  0  0  0
  2  3  2  0  0  0
  2  7  1  0  0  0
  3  4  1  0  0  0
  4  5  2  0  0  0
  4 11  1  0  0  0
  5  6  1  0  0  0
  5  8  1  0  0  0
  6  7  2  0  0  0
  8  9  1  0  0  0
  9 10  1  0  0  0
  9 13  1  0  0  0
  9 19  1  0  0  0
 10 11  1  0  0  0
 11 12  2  0  0  0
 13 14  1  0  0  0
 14 15  1  0  0  0
 15 16  1  0  0  0
 15 22  1  0  0  0
 16 17  2  0  0  0
 16 18  1  0  0  0
 18 19  1  0  0  0
 22 23  1  0  0  0
 23 24  2  0  0  0
 23 25  1  0  0  0
 25 26  1  0  0  0
 25 30  1  0  0  0
 26 27  1  0  0  0
 27 28  1  0  0  0
 28 29  1  0  0  0
 28 31  1  0  0  0
 29 30  1  0  0  0
 31 32  1  0  0  0
 31 33  1  0  0  0
  8 20  1  0  0  0
 10 21  1  0  0  0
M  END
> <minimizedAffinity>
-9.64854

$$$$
1660


 31 34  0  0  0  0  0  0  0  0999 V2000
   14.0556   33.0418   71.1995 N   0  0  0  0  0  0  0  0  0  0  0  0
   12.8972   33.3896   70.7078 N   0  0  0  0  0  0  0  0  0  0  0  0
   12.9090   34.6193   70.1823 C   0  0  0  0  0  0  0  0  0  0  0  0
   14.1959   35.1123   70.3503 C   0  0  0  0  0  0  0  0  0  0  0  0
   14.8856   34.0898   70.9941 C   0  0  0  0  0  0  0  0  0  0  0  0
   16.1691   34.3288   71.2764 N   0  0  0  0  0  0  0  0  0  0  0  0
   16.7613   35.4990   70.9519 C   0  0  0  0  0  0  0  0  0  0  0  0
   16.1223   36.5030   70.3312 N   0  0  0  0  0  0  0  0  0  0  0  0
   14.8143   36.2977   70.0281 C   0  0  0  0  0  0  0  0  0  0  0  0
   14.1744   37.2101   69.4479 O   0  0  0  0  0  0  0  0  0  0  0  0
   15.1471   27.8630   73.9736 Cl  0  0  0  0  0  0  0  0  0  0  0  0
   14.8837   29.3580   73.1349 C   0  0  0  0  0  0  0  0  0  0  0  0
   15.5872   29.7484   72.0183 C   0  0  0  0  0  0  0  0  0  0  0  0
   15.3591   30.9422   71.3619 C   0  0  0  0  0  0  0  0  0  0  0  0
   14.3960   31.8079   71.8112 C   0  0  0  0  0  0  0  0  0  0  0  0
   13.6959   31.4042   72.9356 C   0  0  0  0  0  0  0  0  0  0  0  0
   13.9081   30.2182   73.6041 C   0  0  0  0  0  0  0  0  0  0  0  0
   16.7641   37.7691   69.9639 C   0  0  0  0  0  0  0  0  0  0  0  0
   17.8993   37.5684   69.0461 C   0  0  0  0  0  0  0  0  0  0  0  0
   17.6125   37.7050   67.8046 O   0  0  0  0  0  0  0  0  0  0  0  0
   19.2126   37.2566   69.3895 N   0  0  0  0  0  0  0  0  0  0  0  0
   20.2326   37.0224   68.3553 C   0  0  0  0  0  0  0  0  0  0  0  0
   20.6089   35.5448   68.5274 C   0  0  0  0  0  0  0  0  0  0  0  0
   20.9555   35.2727   69.8975 N   0  0  0  0  0  0  0  0  0  0  0  0
   20.9626   36.3921   70.8207 C   0  0  0  0  0  0  0  0  0  0  0  0
   19.6739   37.1706   70.7572 C   0  0  0  0  0  0  0  0  0  0  0  0
   21.2530   33.9638   70.3357 C   0  0  0  0  0  0  0  0  0  0  0  0
   21.1690   33.0157   69.4697 O   0  0  0  0  0  0  0  0  0  0  0  0
   21.6296   33.5970   71.6080 O   0  0  0  0  0  0  0  0  0  0  0  0
   20.7853   32.7516   72.4128 C   0  0  0  0  0  0  0  0  0  0  0  0
   19.5909   33.6010   72.8089 C   0  0  0  0  0  0  0  0  0  0  0  0
 11 12  1  0  0  0
 12 13  2  0  0  0
 12 17  1  0  0  0
 13 14  1  0  0  0
 14 15  2  0  0  0
 15 16  1  0  0  0
 15  1  1  0  0  0
 16 17  2  0  0  0
  1  2  1  0  0  0
  1  5  1  0  0  0
  2  3  2  0  0  0
  3  4  1  0  0  0
  4  5  2  0  0  0
  4  9  1  0  0  0
  5  6  1  0  0  0
  6  7  2  0  0  0
  7  8  1  0  0  0
  8  9  1  0  0  0
  8 18  1  0  0  0
  9 10  2  0  0  0
 18 19  1  0  0  0
 19 20  2  0  0  0
 19 21  1  0  0  0
 21 22  1  0  0  0
 21 26  1  0  0  0
 22 23  1  0  0  0
 23 24  1  0  0  0
 24 25  1  0  0  0
 24 27  1  0  0  0
 25 26  1  0  0  0
 27 28  2  0  0  0
 27 29  1  0  0  0
 29 30  1  0  0  0
 30 31  1  0  0  0
M  END
> <minimizedAffinity>
-8.55307

$$$$
1666


 30 34  0  0  0  0  0  0  0  0999 V2000
   22.1283   36.6567   67.8298 N   0  0  0  0  0  0  0  0  0  0  0  0
   22.2130   36.7322   69.2645 C   0  0  0  0  0  0  0  0  0  0  0  0
   22.5413   35.3892   69.8753 C   0  0  0  0  0  0  0  0  0  0  0  0
   21.5624   34.3710   69.4184 N   0  0  0  0  0  0  0  0  0  0  0  0
   21.7260   34.2227   67.9793 C   0  0  0  0  0  0  0  0  0  0  0  0
   22.5035   35.3635   67.3463 C   0  0  0  0  0  0  0  0  0  0  0  0
   20.8118   37.4109   67.1101 S   0  0  0  0  0  0  0  0  0  0  0  0
   21.2561   38.7956   66.6562 O   0  0  0  0  0  0  0  0  0  0  0  0
   20.5164   36.6768   65.8014 O   0  0  0  0  0  0  0  0  0  0  0  0
   19.3466   37.4691   68.0038 C   0  0  0  0  0  0  0  0  0  0  0  0
   18.2054   37.9975   67.4510 C   0  0  0  0  0  0  0  0  0  0  0  0
   17.0408   38.0182   68.1975 C   0  0  0  0  0  0  0  0  0  0  0  0
   16.9768   37.5259   69.4883 C   0  0  0  0  0  0  0  0  0  0  0  0
   18.1249   36.9961   70.0389 C   0  0  0  0  0  0  0  0  0  0  0  0
   19.2949   36.9757   69.2879 C   0  0  0  0  0  0  0  0  0  0  0  0
   15.3732   37.5555   70.5192 Br  0  0  0  0  0  0  0  0  0  0  0  0
   21.9937   33.1591   70.0814 C   0  0  0  0  0  0  0  0  0  0  0  0
   21.2945   32.7614   71.3110 C   0  0  0  0  0  0  0  0  0  0  0  0
   19.8971   33.0002   71.4402 N   0  0  0  0  0  0  0  0  0  0  0  0
   19.1869   33.9757   72.1945 C   0  0  0  0  0  0  0  0  0  0  0  0
   19.6051   34.5330   73.2199 O   0  0  0  0  0  0  0  0  0  0  0  0
   17.8712   34.2113   71.5528 C   0  0  0  0  0  0  0  0  0  0  0  0
   17.6182   32.8238   70.9199 C   0  0  0  0  0  0  0  0  0  0  0  0
   16.7159   32.1163   71.8593 C   0  0  0  0  0  0  0  0  0  0  0  0
   16.9979   32.8402   73.1867 C   0  0  0  0  0  0  0  0  0  0  0  0
   16.7954   34.2392   72.5785 C   0  0  0  0  0  0  0  0  0  0  0  0
   15.5027   33.9949   71.8553 C   0  0  0  0  0  0  0  0  0  0  0  0
   15.3330   32.6913   71.6342 C   0  0  0  0  0  0  0  0  0  0  0  0
   18.9269   32.2245   70.7021 C   0  0  0  0  0  0  0  0  0  0  0  0
   19.1391   31.2103   69.9913 O   0  0  0  0  0  0  0  0  0  0  0  0
  7  8  2  0  0  0
  7  9  2  0  0  0
  7  1  1  0  0  0
  7 10  1  0  0  0
  1  2  1  0  0  0
  1  6  1  0  0  0
  2  3  1  0  0  0
  3  4  1  0  0  0
  4  5  1  0  0  0
  4 17  1  0  0  0
  5  6  1  0  0  0
 17 18  1  0  0  0
 18 19  1  0  0  0
 19 20  1  0  0  0
 19 29  1  0  0  0
 20 21  2  0  0  0
 20 22  1  0  0  0
 22 23  1  0  0  0
 22 26  1  0  0  0
 23 24  1  0  0  0
 23 29  1  0  0  0
 24 25  1  0  0  0
 24 28  1  0  0  0
 25 26  1  0  0  0
 26 27  1  0  0  0
 27 28  2  0  0  0
 29 30  2  0  0  0
 10 11  2  0  0  0
 10 15  1  0  0  0
 11 12  1  0  0  0
 12 13  2  0  0  0
 13 14  1  0  0  0
 13 16  1  0  0  0
 14 15  2  0  0  0
M  END
> <minimizedAffinity>
-9.24521

$$$$
1673


 35 38  0  0  0  0  0  0  0  0999 V2000
   22.7588   36.0277   66.4043 C   0  0  0  0  0  0  0  0  0  0  0  0
   21.7270   35.5086   67.3693 C   0  0  0  0  0  0  0  0  0  0  0  0
   22.4053   34.7598   68.3308 N   0  0  0  0  0  0  0  0  0  0  0  0
   23.4149   34.0520   67.5066 C   0  0  0  0  0  0  0  0  0  0  0  0
   23.8811   32.8974   67.7022 O   0  0  0  0  0  0  0  0  0  0  0  0
   23.7729   34.9499   66.4204 C   0  0  0  0  0  0  0  0  0  0  0  0
   24.7652   34.8131   65.6499 O   0  0  0  0  0  0  0  0  0  0  0  0
   20.5855   36.3604   67.5896 C   0  0  0  0  0  0  0  0  0  0  0  0
   19.9125   36.4972   68.7626 C   0  0  0  0  0  0  0  0  0  0  0  0
   18.8344   37.3610   68.8765 C   0  0  0  0  0  0  0  0  0  0  0  0
   18.4328   38.1045   67.7564 C   0  0  0  0  0  0  0  0  0  0  0  0
   19.1100   37.9657   66.5788 C   0  0  0  0  0  0  0  0  0  0  0  0
   20.1686   37.1191   66.4689 C   0  0  0  0  0  0  0  0  0  0  0  0
   17.3653   38.9781   67.8155 O   0  0  0  0  0  0  0  0  0  0  0  0
   18.1440   37.5215   70.0346 O   0  0  0  0  0  0  0  0  0  0  0  0
   17.0719   36.7260   70.4244 C   0  0  0  0  0  0  0  0  0  0  0  0
   15.7386   37.4522   70.4188 C   0  0  0  0  0  0  0  0  0  0  0  0
   23.3490   37.3162   66.7669 C   0  0  0  0  0  0  0  0  0  0  0  0
   23.9058   37.4540   67.9109 O   0  0  0  0  0  0  0  0  0  0  0  0
   23.3874   42.4797   63.3604 Br  0  0  0  0  0  0  0  0  0  0  0  0
   23.3678   40.8668   64.4161 C   0  0  0  0  0  0  0  0  0  0  0  0
   24.3404   39.9112   64.2743 C   0  0  0  0  0  0  0  0  0  0  0  0
   24.3729   38.7310   65.0096 C   0  0  0  0  0  0  0  0  0  0  0  0
   23.3755   38.5085   65.9317 C   0  0  0  0  0  0  0  0  0  0  0  0
   22.3976   39.4823   66.0660 C   0  0  0  0  0  0  0  0  0  0  0  0
   22.3659   40.6485   65.3382 C   0  0  0  0  0  0  0  0  0  0  0  0
   22.3560   34.3927   69.7115 C   0  0  0  0  0  0  0  0  0  0  0  0
   21.3043   33.4333   70.1223 C   0  0  0  0  0  0  0  0  0  0  0  0
   20.3480   33.7389   71.0993 N   0  0  0  0  0  0  0  0  0  0  0  0
   18.9717   33.4914   70.6500 C   0  0  0  0  0  0  0  0  0  0  0  0
   18.7095   32.0521   70.3578 C   0  0  0  0  0  0  0  0  0  0  0  0
   19.7810   31.2913   70.7664 O   0  0  0  0  0  0  0  0  0  0  0  0
   20.0053   31.5636   72.1261 C   0  0  0  0  0  0  0  0  0  0  0  0
   20.6037   32.9419   72.3125 C   0  0  0  0  0  0  0  0  0  0  0  0
   20.3825   34.7114   71.3948 H   0  0  0  0  0  0  0  0  0  0  0  0
 20 21  1  0  0  0
 21 22  2  0  0  0
 21 26  1  0  0  0
 22 23  1  0  0  0
 23 24  2  0  0  0
 24 25  1  0  0  0
 24 18  1  0  0  0
 25 26  2  0  0  0
 18 19  2  0  0  0
 18  1  1  0  0  0
  1  2  1  0  0  0
  1  6  1  0  0  0
  2  3  1  0  0  0
  2  8  1  0  0  0
  3  4  1  0  0  0
  3 27  1  0  0  0
  4  5  2  0  0  0
  4  6  1  0  0  0
  6  7  2  0  0  0
 27 28  1  0  0  0
 28 29  1  0  0  0
 29 30  1  0  0  0
 29 34  1  0  0  0
 30 31  1  0  0  0
 31 32  1  0  0  0
 32 33  1  0  0  0
 33 34  1  0  0  0
  8  9  2  0  0  0
  8 13  1  0  0  0
  9 10  1  0  0  0
 10 11  2  0  0  0
 10 15  1  0  0  0
 11 12  1  0  0  0
 11 14  1  0  0  0
 12 13  2  0  0  0
 15 16  1  0  0  0
 16 17  1  0  0  0
 29 35  1  0  0  0
M  CHG 1  14  -1
M  CHG 1  29   1
M  END
> <minimizedAffinity>
-8.54828

$$$$
1676


 25 28  0  0  0  0  0  0  0  0999 V2000
   16.6793   37.0124   70.2310 C   0  0  0  0  0  0  0  0  0  0  0  0
   16.3074   38.1111   70.6859 O   0  0  0  0  0  0  0  0  0  0  0  0
   15.8075   35.8991   70.3347 N   0  0  0  0  0  0  0  0  0  0  0  0
   16.1033   34.9822   69.9620 H   0  0  0  0  0  0  0  0  0  0  0  0
   21.5649   34.8979   70.2559 Br  0  0  0  0  0  0  0  0  0  0  0  0
   20.2033   36.0318   69.5384 C   0  0  0  0  0  0  0  0  0  0  0  0
   20.4445   36.7916   68.4140 C   0  0  0  0  0  0  0  0  0  0  0  0
   19.4785   37.6136   67.8816 C   0  0  0  0  0  0  0  0  0  0  0  0
   19.4325   38.4500   66.8169 N   0  0  0  0  0  0  0  0  0  0  0  0
   18.2272   38.9887   66.7882 N   0  0  0  0  0  0  0  0  0  0  0  0
   17.4850   38.5550   67.7688 N   0  0  0  0  0  0  0  0  0  0  0  0
   18.2455   37.6818   68.4827 C   0  0  0  0  0  0  0  0  0  0  0  0
   17.9974   36.9221   69.6126 C   0  0  0  0  0  0  0  0  0  0  0  0
   18.9756   36.0946   70.1439 C   0  0  0  0  0  0  0  0  0  0  0  0
   16.5032   38.7668   68.0408 H   0  0  0  0  0  0  0  0  0  0  0  0
   14.5095   36.0180   70.9523 C   0  0  0  0  0  0  0  0  0  0  0  0
   13.9737   34.6396   71.2290 C   0  0  0  0  0  0  0  0  0  0  0  0
   14.6861   33.5319   71.4895 N   0  0  0  0  0  0  0  0  0  0  0  0
   13.8693   32.4752   71.6886 C   0  0  0  0  0  0  0  0  0  0  0  0
   12.6227   32.9422   71.5478 N   0  0  0  0  0  0  0  0  0  0  0  0
   12.6833   34.2532   71.2686 N   0  0  0  0  0  0  0  0  0  0  0  0
   14.5312   31.1759   71.9887 C   0  0  0  0  0  0  0  0  0  0  0  0
   15.4479   31.4734   73.1841 C   0  0  0  0  0  0  0  0  0  0  0  0
   16.3758   32.6149   72.9257 C   0  0  0  0  0  0  0  0  0  0  0  0
   16.1055   33.2750   71.5910 C   0  0  0  0  0  0  0  0  0  0  0  0
  5  6  1  0  0  0
  6  7  2  0  0  0
  6 14  1  0  0  0
  7  8  1  0  0  0
  8  9  1  0  0  0
  8 12  2  0  0  0
  9 10  2  0  0  0
 10 11  1  0  0  0
 11 12  1  0  0  0
 12 13  1  0  0  0
 13 14  2  0  0  0
 13  1  1  0  0  0
  1  2  2  0  0  0
  1  3  1  0  0  0
  3 16  1  0  0  0
 16 17  1  0  0  0
 17 18  1  0  0  0
 17 21  2  0  0  0
 18 19  1  0  0  0
 18 25  1  0  0  0
 19 20  2  0  0  0
 19 22  1  0  0  0
 20 21  1  0  0  0
 22 23  1  0  0  0
 23 24  1  0  0  0
 24 25  1  0  0  0
 11 15  1  0  0  0
  3  4  1  0  0  0
M  END
> <minimizedAffinity>
-8.78322

$$$$
1687


 27 30  0  0  0  0  0  0  0  0999 V2000
   18.0097   37.3246   69.1262 N   0  0  0  0  0  0  0  0  0  0  0  0
   18.4626   36.6009   70.1747 C   0  0  0  0  0  0  0  0  0  0  0  0
   19.7526   36.1212   70.2317 C   0  0  0  0  0  0  0  0  0  0  0  0
   20.6707   36.3958   69.1332 C   0  0  0  0  0  0  0  0  0  0  0  0
   21.8332   35.8141   69.4612 N   0  0  0  0  0  0  0  0  0  0  0  0
   21.7301   35.2061   70.6534 N   0  0  0  0  0  0  0  0  0  0  0  0
   20.4881   35.3802   71.1313 C   0  0  0  0  0  0  0  0  0  0  0  0
   20.0879   34.9266   72.2274 O   0  0  0  0  0  0  0  0  0  0  0  0
   20.1735   37.1391   68.0758 C   0  0  0  0  0  0  0  0  0  0  0  0
   18.8745   37.5627   68.1297 C   0  0  0  0  0  0  0  0  0  0  0  0
   22.5336   34.6893   71.0925 H   0  0  0  0  0  0  0  0  0  0  0  0
   21.0631   37.4339   66.9581 C   0  0  0  0  0  0  0  0  0  0  0  0
   21.4555   38.6156   66.7853 O   0  0  0  0  0  0  0  0  0  0  0  0
   21.4806   36.4581   66.0925 O   0  0  0  0  0  0  0  0  0  0  0  0
   22.8571   36.2307   65.8361 C   0  0  0  0  0  0  0  0  0  0  0  0
   16.6369   37.8172   69.0986 C   0  0  0  0  0  0  0  0  0  0  0  0
   15.9704   37.4111   70.3948 C   0  0  0  0  0  0  0  0  0  0  0  0
   13.8768   30.7934   71.4160 Cl  0  0  0  0  0  0  0  0  0  0  0  0
   14.2127   32.4872   71.0592 C   0  0  0  0  0  0  0  0  0  0  0  0
   13.3119   33.2866   70.3877 C   0  0  0  0  0  0  0  0  0  0  0  0
   13.6282   34.6066   70.1356 C   0  0  0  0  0  0  0  0  0  0  0  0
   12.9678   35.6203   69.5124 N   0  0  0  0  0  0  0  0  0  0  0  0
   13.7349   36.7241   69.5410 C   0  0  0  0  0  0  0  0  0  0  0  0
   14.8984   36.4641   70.1739 N   0  0  0  0  0  0  0  0  0  0  0  0
   14.8242   35.1701   70.5330 C   0  0  0  0  0  0  0  0  0  0  0  0
   15.7290   34.3811   71.2042 C   0  0  0  0  0  0  0  0  0  0  0  0
   15.4060   33.0624   71.4520 C   0  0  0  0  0  0  0  0  0  0  0  0
 18 19  1  0  0  0
 19 20  2  0  0  0
 19 27  1  0  0  0
 20 21  1  0  0  0
 21 22  1  0  0  0
 21 25  2  0  0  0
 22 23  2  0  0  0
 23 24  1  0  0  0
 24 25  1  0  0  0
 24 17  1  0  0  0
 25 26  1  0  0  0
 26 27  2  0  0  0
 17 16  1  0  0  0
 16  1  1  0  0  0
  1  2  1  0  0  0
  1 10  1  0  0  0
  2  3  2  0  0  0
  3  4  1  0  0  0
  3  7  1  0  0  0
  4  5  2  0  0  0
  4  9  1  0  0  0
  5  6  1  0  0  0
  6  7  1  0  0  0
  7  8  2  0  0  0
  9 10  2  0  0  0
  9 12  1  0  0  0
 12 13  2  0  0  0
 12 14  1  0  0  0
 14 15  1  0  0  0
  6 11  1  0  0  0
M  END
> <minimizedAffinity>
-8.41241

$$$$
1689


 32 35  0  0  0  0  0  0  0  0999 V2000
   18.4591   37.5263   68.6605 C   0  0  0  0  0  0  0  0  0  0  0  0
   17.8308   37.8259   67.6157 O   0  0  0  0  0  0  0  0  0  0  0  0
   19.8184   37.1663   68.5463 N   0  0  0  0  0  0  0  0  0  0  0  0
   20.7791   36.7692   69.5549 C   0  0  0  0  0  0  0  0  0  0  0  0
   21.5314   35.6959   68.9049 C   0  0  0  0  0  0  0  0  0  0  0  0
   21.1563   35.7142   67.4213 C   0  0  0  0  0  0  0  0  0  0  0  0
   20.5556   37.1314   67.3103 C   0  0  0  0  0  0  0  0  0  0  0  0
   22.2387   35.5745   66.5893 O   0  0  0  0  0  0  0  0  0  0  0  0
   22.5903   36.4771   66.3850 H   0  0  0  0  0  0  0  0  0  0  0  0
   21.5416   34.3819   69.4187 N   0  0  0  0  0  0  0  0  0  0  0  0
   20.4253   33.9532   70.0677 C   0  0  0  0  0  0  0  0  0  0  0  0
   20.3356   32.6875   70.6019 C   0  0  0  0  0  0  0  0  0  0  0  0
   21.3897   31.8116   70.4891 C   0  0  0  0  0  0  0  0  0  0  0  0
   21.3338   30.6406   70.9716 O   0  0  0  0  0  0  0  0  0  0  0  0
   22.4905   32.2342   69.8487 N   0  0  0  0  0  0  0  0  0  0  0  0
   22.5195   33.4729   69.3512 C   0  0  0  0  0  0  0  0  0  0  0  0
   23.5669   33.8116   68.7639 O   0  0  0  0  0  0  0  0  0  0  0  0
   19.0976   32.2294   71.3136 C   0  0  0  0  0  0  0  0  0  0  0  0
   23.3236   31.5754   69.7492 H   0  0  0  0  0  0  0  0  0  0  0  0
   17.7362   37.5667   69.9486 C   0  0  0  0  0  0  0  0  0  0  0  0
   16.2560   37.6008   69.7174 C   0  0  0  0  0  0  0  0  0  0  0  0
   14.4841   30.4440   71.8163 Cl  0  0  0  0  0  0  0  0  0  0  0  0
   14.3457   32.1501   71.4659 C   0  0  0  0  0  0  0  0  0  0  0  0
   15.4519   32.8591   71.0167 C   0  0  0  0  0  0  0  0  0  0  0  0
   15.3587   34.2110   70.7323 C   0  0  0  0  0  0  0  0  0  0  0  0
   16.2176   35.1461   70.2973 N   0  0  0  0  0  0  0  0  0  0  0  0
   15.6091   36.3583   70.1795 C   0  0  0  0  0  0  0  0  0  0  0  0
   14.3246   36.1320   70.5640 N   0  0  0  0  0  0  0  0  0  0  0  0
   14.1527   34.8475   70.9009 C   0  0  0  0  0  0  0  0  0  0  0  0
   13.0580   34.1385   71.3472 C   0  0  0  0  0  0  0  0  0  0  0  0
   13.1340   32.7837   71.6363 C   0  0  0  0  0  0  0  0  0  0  0  0
   17.2208   34.9145   70.0905 H   0  0  0  0  0  0  0  0  0  0  0  0
 22 23  1  0  0  0
 23 24  2  0  0  0
 23 31  1  0  0  0
 24 25  1  0  0  0
 25 26  1  0  0  0
 25 29  2  0  0  0
 26 27  1  0  0  0
 27 28  2  0  0  0
 27 21  1  0  0  0
 28 29  1  0  0  0
 29 30  1  0  0  0
 30 31  2  0  0  0
 21 20  1  0  0  0
 20  1  1  0  0  0
  1  2  2  0  0  0
  1  3  1  0  0  0
  3  4  1  0  0  0
  3  7  1  0  0  0
  4  5  1  0  0  0
  5  6  1  0  0  0
  5 10  1  0  0  0
  6  7  1  0  0  0
  6  8  1  0  0  0
 10 11  1  0  0  0
 10 16  1  0  0  0
 11 12  2  0  0  0
 12 13  1  0  0  0
 12 18  1  0  0  0
 13 14  2  0  0  0
 13 15  1  0  0  0
 15 16  1  0  0  0
 16 17  2  0  0  0
 26 32  1  0  0  0
  8  9  1  0  0  0
 15 19  1  0  0  0
M  END
> <minimizedAffinity>
-9.23177

$$$$
1690


 34 37  0  0  0  0  0  0  0  0999 V2000
   21.1687   35.5065   70.6937 C   0  0  0  0  0  0  0  0  0  0  0  0
   21.3817   36.5258   71.3990 O   0  0  0  0  0  0  0  0  0  0  0  0
   20.5014   34.3675   71.2353 N   0  0  0  0  0  0  0  0  0  0  0  0
   20.2235   33.1628   70.4858 C   0  0  0  0  0  0  0  0  0  0  0  0
   18.8579   32.5825   70.8924 C   0  0  0  0  0  0  0  0  0  0  0  0
   18.0446   33.7290   71.3873 C   0  0  0  0  0  0  0  0  0  0  0  0
   18.5763   34.1736   72.7306 C   0  0  0  0  0  0  0  0  0  0  0  0
   20.0692   34.4031   72.6161 C   0  0  0  0  0  0  0  0  0  0  0  0
   18.3343   32.0222   69.7178 O   0  0  0  0  0  0  0  0  0  0  0  0
   19.1247   31.5044   71.8947 C   0  0  0  0  0  0  0  0  0  0  0  0
   18.6289   31.0577   69.6578 H   0  0  0  0  0  0  0  0  0  0  0  0
   16.6356   33.5516   71.3669 N   0  0  0  0  0  0  0  0  0  0  0  0
   16.0005   32.5610   72.0104 C   0  0  0  0  0  0  0  0  0  0  0  0
   14.6193   32.4187   71.9677 C   0  0  0  0  0  0  0  0  0  0  0  0
   13.8768   33.3216   71.2429 C   0  0  0  0  0  0  0  0  0  0  0  0
   12.6132   33.1961   71.2011 O   0  0  0  0  0  0  0  0  0  0  0  0
   14.5142   34.3103   70.6002 N   0  0  0  0  0  0  0  0  0  0  0  0
   15.8530   34.4053   70.6733 C   0  0  0  0  0  0  0  0  0  0  0  0
   16.4581   35.3520   70.0572 O   0  0  0  0  0  0  0  0  0  0  0  0
   13.9638   31.2879   72.7110 C   0  0  0  0  0  0  0  0  0  0  0  0
   13.9634   35.0005   70.0486 H   0  0  0  0  0  0  0  0  0  0  0  0
   21.6056   35.4601   69.2877 C   0  0  0  0  0  0  0  0  0  0  0  0
   20.6235   36.2078   68.4327 C   0  0  0  0  0  0  0  0  0  0  0  0
   25.7376   39.6757   63.8791 Cl  0  0  0  0  0  0  0  0  0  0  0  0
   24.3103   39.3598   64.8386 C   0  0  0  0  0  0  0  0  0  0  0  0
   24.1184   38.1651   65.5106 C   0  0  0  0  0  0  0  0  0  0  0  0
   22.9930   37.9260   66.2627 C   0  0  0  0  0  0  0  0  0  0  0  0
   22.5773   36.8817   66.9910 N   0  0  0  0  0  0  0  0  0  0  0  0
   21.3661   37.1434   67.5545 C   0  0  0  0  0  0  0  0  0  0  0  0
   21.0606   38.3672   67.1503 N   0  0  0  0  0  0  0  0  0  0  0  0
   22.0126   38.8818   66.3666 C   0  0  0  0  0  0  0  0  0  0  0  0
   22.1799   40.0790   65.7069 C   0  0  0  0  0  0  0  0  0  0  0  0
   23.3188   40.3185   64.9480 C   0  0  0  0  0  0  0  0  0  0  0  0
   23.0911   35.9688   67.1306 H   0  0  0  0  0  0  0  0  0  0  0  0
 24 25  1  0  0  0
 25 26  2  0  0  0
 25 33  1  0  0  0
 26 27  1  0  0  0
 27 28  1  0  0  0
 27 31  2  0  0  0
 28 29  1  0  0  0
 29 30  2  0  0  0
 29 23  1  0  0  0
 30 31  1  0  0  0
 31 32  1  0  0  0
 32 33  2  0  0  0
 23 22  1  0  0  0
 22  1  1  0  0  0
  1  2  2  0  0  0
  1  3  1  0  0  0
  3  4  1  0  0  0
  3  8  1  0  0  0
  4  5  1  0  0  0
  5  6  1  0  0  0
  5  9  1  0  0  0
  5 10  1  0  0  0
  6  7  1  0  0  0
  6 12  1  0  0  0
  7  8  1  0  0  0
 12 13  1  0  0  0
 12 18  1  0  0  0
 13 14  2  0  0  0
 14 15  1  0  0  0
 14 20  1  0  0  0
 15 16  2  0  0  0
 15 17  1  0  0  0
 17 18  1  0  0  0
 18 19  2  0  0  0
 28 34  1  0  0  0
 17 21  1  0  0  0
  9 11  1  0  0  0
M  END
> <minimizedAffinity>
-9.45399

$$$$
1691


 35 39  0  0  0  0  0  0  0  0999 V2000
   21.4073   36.9363   70.4585 C   0  0  0  0  0  0  0  0  0  0  0  0
   21.9184   37.9153   71.0354 O   0  0  0  0  0  0  0  0  0  0  0  0
   22.1530   36.2001   69.5238 N   0  0  0  0  0  0  0  0  0  0  0  0
   23.4894   36.3516   69.0424 C   0  0  0  0  0  0  0  0  0  0  0  0
   23.3858   36.0766   67.5229 C   0  0  0  0  0  0  0  0  0  0  0  0
   22.3234   35.0352   67.5279 C   0  0  0  0  0  0  0  0  0  0  0  0
   21.6283   35.0297   68.8472 C   0  0  0  0  0  0  0  0  0  0  0  0
   22.8130   33.7459   67.3217 O   0  0  0  0  0  0  0  0  0  0  0  0
   23.8110   33.7252   67.3358 H   0  0  0  0  0  0  0  0  0  0  0  0
   23.0202   37.2963   66.8605 N   0  0  0  0  0  0  0  0  0  0  0  0
   23.7384   38.0046   65.9732 C   0  0  0  0  0  0  0  0  0  0  0  0
   22.9863   39.1313   65.5826 C   0  0  0  0  0  0  0  0  0  0  0  0
   21.8295   39.0574   66.2604 N   0  0  0  0  0  0  0  0  0  0  0  0
   21.8330   37.9695   67.0268 C   0  0  0  0  0  0  0  0  0  0  0  0
   23.4806   40.0403   64.6745 C   0  0  0  0  0  0  0  0  0  0  0  0
   22.7845   41.0378   64.3448 O   0  0  0  0  0  0  0  0  0  0  0  0
   24.7006   39.8165   64.1728 N   0  0  0  0  0  0  0  0  0  0  0  0
   25.4054   38.7480   64.5475 C   0  0  0  0  0  0  0  0  0  0  0  0
   26.5528   38.5523   64.0665 O   0  0  0  0  0  0  0  0  0  0  0  0
   24.9639   37.8147   65.4452 N   0  0  0  0  0  0  0  0  0  0  0  0
   25.7745   36.6938   65.8019 C   0  0  0  0  0  0  0  0  0  0  0  0
   25.2538   40.7655   63.2039 C   0  0  0  0  0  0  0  0  0  0  0  0
   20.0184   36.5618   70.7660 C   0  0  0  0  0  0  0  0  0  0  0  0
   19.0637   37.2345   69.8054 C   0  0  0  0  0  0  0  0  0  0  0  0
   12.9182   33.0708   71.8152 Cl  0  0  0  0  0  0  0  0  0  0  0  0
   13.9464   34.3234   71.1296 C   0  0  0  0  0  0  0  0  0  0  0  0
   15.3132   34.2987   71.2802 C   0  0  0  0  0  0  0  0  0  0  0  0
   16.0936   35.3113   70.7211 C   0  0  0  0  0  0  0  0  0  0  0  0
   17.4150   35.5521   70.6989 N   0  0  0  0  0  0  0  0  0  0  0  0
   17.6867   36.6793   70.0181 C   0  0  0  0  0  0  0  0  0  0  0  0
   16.5091   37.1506   69.6074 N   0  0  0  0  0  0  0  0  0  0  0  0
   15.5097   36.3419   70.0163 C   0  0  0  0  0  0  0  0  0  0  0  0
   14.1394   36.3667   69.8669 C   0  0  0  0  0  0  0  0  0  0  0  0
   13.3711   35.3479   70.4307 C   0  0  0  0  0  0  0  0  0  0  0  0
   18.1189   34.9195   71.1659 H   0  0  0  0  0  0  0  0  0  0  0  0
 25 26  1  0  0  0
 26 27  2  0  0  0
 26 34  1  0  0  0
 27 28  1  0  0  0
 28 29  1  0  0  0
 28 32  2  0  0  0
 29 30  1  0  0  0
 30 31  2  0  0  0
 30 24  1  0  0  0
 31 32  1  0  0  0
 32 33  1  0  0  0
 33 34  2  0  0  0
 24 23  1  0  0  0
 23  1  1  0  0  0
  1  2  2  0  0  0
  1  3  1  0  0  0
  3  4  1  0  0  0
  3  7  1  0  0  0
  4  5  1  0  0  0
  5  6  1  0  0  0
  5 10  1  0  0  0
  6  7  1  0  0  0
  6  8  1  0  0  0
 10 11  1  0  0  0
 10 14  1  0  0  0
 11 12  2  0  0  0
 11 20  1  0  0  0
 12 13  1  0  0  0
 12 15  1  0  0  0
 13 14  2  0  0  0
 15 16  2  0  0  0
 15 17  1  0  0  0
 17 18  1  0  0  0
 17 22  1  0  0  0
 18 19  2  0  0  0
 18 20  1  0  0  0
 20 21  1  0  0  0
 29 35  1  0  0  0
  8  9  1  0  0  0
M  END
> <minimizedAffinity>
-9.85860

$$$$
1699


 31 34  0  0  0  0  0  0  0  0999 V2000
   13.5417   33.9024   69.1206 Cl  0  0  0  0  0  0  0  0  0  0  0  0
   14.7366   33.8700   70.3762 C   0  0  0  0  0  0  0  0  0  0  0  0
   16.0598   34.1901   70.1088 C   0  0  0  0  0  0  0  0  0  0  0  0
   17.0220   34.1690   71.0979 C   0  0  0  0  0  0  0  0  0  0  0  0
   16.6356   33.8210   72.3621 C   0  0  0  0  0  0  0  0  0  0  0  0
   15.3122   33.4930   72.6722 C   0  0  0  0  0  0  0  0  0  0  0  0
   14.3774   33.5246   71.6612 C   0  0  0  0  0  0  0  0  0  0  0  0
   17.7614   33.8367   73.2297 N   0  0  0  0  0  0  0  0  0  0  0  0
   18.8998   34.2087   72.4681 C   0  0  0  0  0  0  0  0  0  0  0  0
   20.0575   34.2683   72.9956 O   0  0  0  0  0  0  0  0  0  0  0  0
   18.4521   34.4698   71.1064 C   0  0  0  0  0  0  0  0  0  0  0  0
   18.7212   35.8498   70.6933 N   0  0  0  0  0  0  0  0  0  0  0  0
   20.1441   35.7934   70.4440 C   0  0  0  0  0  0  0  0  0  0  0  0
   20.4032   34.4784   69.7834 C   0  0  0  0  0  0  0  0  0  0  0  0
   19.1419   33.7070   70.0306 C   0  0  0  0  0  0  0  0  0  0  0  0
   19.5222   32.3210   70.3988 C   0  0  0  0  0  0  0  0  0  0  0  0
   18.6545   31.4201   70.5391 O   0  0  0  0  0  0  0  0  0  0  0  0
   20.9336   32.2831   70.5327 N   0  0  0  0  0  0  0  0  0  0  0  0
   21.3985   33.6379   70.5238 C   0  0  0  0  0  0  0  0  0  0  0  0
   22.4343   34.0883   71.0237 O   0  0  0  0  0  0  0  0  0  0  0  0
   17.7580   33.6132   74.2688 H   0  0  0  0  0  0  0  0  0  0  0  0
   18.2426   35.9592   69.7711 H   0  0  0  0  0  0  0  0  0  0  0  0
   20.6348   36.9678   69.6367 C   0  0  0  0  0  0  0  0  0  0  0  0
   22.0121   37.0478   69.7998 O   0  0  0  0  0  0  0  0  0  0  0  0
   20.2908   36.8502   68.1743 C   0  0  0  0  0  0  0  0  0  0  0  0
   22.5106   36.7095   69.0126 H   0  0  0  0  0  0  0  0  0  0  0  0
   21.7413   31.1285   70.6472 C   0  0  0  0  0  0  0  0  0  0  0  0
   22.4385   30.8583   71.9220 C   0  0  0  0  0  0  0  0  0  0  0  0
   21.8208   29.8925   72.8582 C   0  0  0  0  0  0  0  0  0  0  0  0
   20.4440   29.7538   72.7718 O   0  0  0  0  0  0  0  0  0  0  0  0
   19.8747   30.5529   73.7925 C   0  0  0  0  0  0  0  0  0  0  0  0
  1  2  1  0  0  0
  2  3  2  0  0  0
  2  7  1  0  0  0
  3  4  1  0  0  0
  4  5  2  0  0  0
  4 11  1  0  0  0
  5  6  1  0  0  0
  5  8  1  0  0  0
  6  7  2  0  0  0
  8  9  1  0  0  0
  9 10  2  0  0  0
  9 11  1  0  0  0
 11 12  1  0  0  0
 11 15  1  0  0  0
 12 13  1  0  0  0
 13 14  1  0  0  0
 13 23  1  0  0  0
 14 15  1  0  0  0
 14 19  1  0  0  0
 15 16  1  0  0  0
 16 17  2  0  0  0
 16 18  1  0  0  0
 18 19  1  0  0  0
 18 27  1  0  0  0
 19 20  2  0  0  0
 27 28  1  0  0  0
 28 29  1  0  0  0
 29 30  1  0  0  0
 30 31  1  0  0  0
 23 24  1  0  0  0
 23 25  1  0  0  0
  8 21  1  0  0  0
 12 22  1  0  0  0
 24 26  1  0  0  0
M  END
> <minimizedAffinity>
-7.25399

$$$$
1706


 25 28  0  0  0  0  0  0  0  0999 V2000
   15.3930   32.0751   73.2761 F   0  0  0  0  0  0  0  0  0  0  0  0
   16.1095   32.9164   72.4575 C   0  0  0  0  0  0  0  0  0  0  0  0
   17.5083   32.8822   72.5209 C   0  0  0  0  0  0  0  0  0  0  0  0
   18.2363   33.7073   71.7186 C   0  0  0  0  0  0  0  0  0  0  0  0
   17.5909   34.5841   70.8357 C   0  0  0  0  0  0  0  0  0  0  0  0
   16.2240   34.5966   70.7941 C   0  0  0  0  0  0  0  0  0  0  0  0
   15.4699   33.7731   71.5951 C   0  0  0  0  0  0  0  0  0  0  0  0
   13.7024   33.7934   71.5367 Cl  0  0  0  0  0  0  0  0  0  0  0  0
   19.6802   33.4715   71.9815 C   0  0  0  0  0  0  0  0  0  0  0  0
   20.2875   34.6910   72.4126 N   0  0  0  0  0  0  0  0  0  0  0  0
   20.7968   35.6203   71.4814 C   0  0  0  0  0  0  0  0  0  0  0  0
   21.0704   36.9064   71.8222 N   0  0  0  0  0  0  0  0  0  0  0  0
   21.5527   37.8255   70.9799 C   0  0  0  0  0  0  0  0  0  0  0  0
   21.8027   37.4686   69.6593 C   0  0  0  0  0  0  0  0  0  0  0  0
   21.5541   36.1936   69.2346 C   0  0  0  0  0  0  0  0  0  0  0  0
   21.0573   35.2982   70.1569 C   0  0  0  0  0  0  0  0  0  0  0  0
   20.7579   33.9077   69.8020 C   0  0  0  0  0  0  0  0  0  0  0  0
   20.9821   33.5660   68.5911 O   0  0  0  0  0  0  0  0  0  0  0  0
   20.2510   32.9871   70.7368 N   0  0  0  0  0  0  0  0  0  0  0  0
   19.7002   32.4312   73.0157 C   0  0  0  0  0  0  0  0  0  0  0  0
   20.7355   31.9014   73.5645 O   0  0  0  0  0  0  0  0  0  0  0  0
   18.3776   32.0817   73.3330 N   0  0  0  0  0  0  0  0  0  0  0  0
   20.3718   34.9280   73.4314 H   0  0  0  0  0  0  0  0  0  0  0  0
   20.3057   31.9717   70.4915 H   0  0  0  0  0  0  0  0  0  0  0  0
   18.0235   31.3727   74.0285 H   0  0  0  0  0  0  0  0  0  0  0  0
  1  2  1  0  0  0
  2  3  2  0  0  0
  2  7  1  0  0  0
  3  4  1  0  0  0
  3 22  1  0  0  0
  4  5  2  0  0  0
  4  9  1  0  0  0
  5  6  1  0  0  0
  6  7  2  0  0  0
  7  8  1  0  0  0
  9 10  1  0  0  0
  9 19  1  0  0  0
  9 20  1  0  0  0
 10 11  1  0  0  0
 11 12  2  0  0  0
 11 16  1  0  0  0
 12 13  1  0  0  0
 13 14  2  0  0  0
 14 15  1  0  0  0
 15 16  2  0  0  0
 16 17  1  0  0  0
 17 18  2  0  0  0
 17 19  1  0  0  0
 20 21  2  0  0  0
 20 22  1  0  0  0
 10 23  1  0  0  0
 19 24  1  0  0  0
 22 25  1  0  0  0
M  END
> <minimizedAffinity>
-8.08182

$$$$
1711


 30 33  0  0  0  0  0  0  0  0999 V2000
   26.5111   36.2218   65.8349 N   0  0  0  0  0  0  0  0  0  0  0  0
   26.6356   37.2181   66.8403 C   0  0  0  0  0  0  0  0  0  0  0  0
   26.0670   36.7979   68.1721 C   0  0  0  0  0  0  0  0  0  0  0  0
   24.9344   35.9195   68.0364 N   0  0  0  0  0  0  0  0  0  0  0  0
   25.0333   34.7678   67.1723 C   0  0  0  0  0  0  0  0  0  0  0  0
   26.2537   34.9148   66.3174 C   0  0  0  0  0  0  0  0  0  0  0  0
   23.7166   36.1437   68.7246 C   0  0  0  0  0  0  0  0  0  0  0  0
   23.6226   37.1358   69.4730 O   0  0  0  0  0  0  0  0  0  0  0  0
   25.7678   36.6820   64.4018 S   0  0  0  0  0  0  0  0  0  0  0  0
   26.7695   36.5304   63.2653 O   0  0  0  0  0  0  0  0  0  0  0  0
   24.6664   35.6866   64.0902 O   0  0  0  0  0  0  0  0  0  0  0  0
   25.0665   38.2552   64.3913 C   0  0  0  0  0  0  0  0  0  0  0  0
   24.0300   38.5532   65.2602 C   0  0  0  0  0  0  0  0  0  0  0  0
   23.4329   39.7970   65.2938 C   0  0  0  0  0  0  0  0  0  0  0  0
   23.9016   40.7636   64.4227 C   0  0  0  0  0  0  0  0  0  0  0  0
   24.9344   40.4524   63.5622 C   0  0  0  0  0  0  0  0  0  0  0  0
   25.5405   39.2138   63.5183 C   0  0  0  0  0  0  0  0  0  0  0  0
   23.1136   42.5211   64.4171 Br  0  0  0  0  0  0  0  0  0  0  0  0
   22.5566   35.2360   68.5803 C   0  0  0  0  0  0  0  0  0  0  0  0
   21.3339   35.9728   68.4464 N   0  0  0  0  0  0  0  0  0  0  0  0
   20.8037   36.6566   67.3188 C   0  0  0  0  0  0  0  0  0  0  0  0
   21.3677   36.7164   66.2043 O   0  0  0  0  0  0  0  0  0  0  0  0
   19.5306   37.2471   67.6969 C   0  0  0  0  0  0  0  0  0  0  0  0
   19.2697   36.9462   69.0128 C   0  0  0  0  0  0  0  0  0  0  0  0
   18.0990   37.4085   69.5988 C   0  0  0  0  0  0  0  0  0  0  0  0
   17.1946   38.1584   68.8990 C   0  0  0  0  0  0  0  0  0  0  0  0
   17.4463   38.4708   67.5634 C   0  0  0  0  0  0  0  0  0  0  0  0
   18.6212   37.9990   66.9972 C   0  0  0  0  0  0  0  0  0  0  0  0
   20.3853   36.1481   69.5051 C   0  0  0  0  0  0  0  0  0  0  0  0
   20.4378   35.7156   70.6862 O   0  0  0  0  0  0  0  0  0  0  0  0
  9 10  2  0  0  0
  9 11  2  0  0  0
  9  1  1  0  0  0
  9 12  1  0  0  0
  1  2  1  0  0  0
  1  6  1  0  0  0
  2  3  1  0  0  0
  3  4  1  0  0  0
  4  5  1  0  0  0
  4  7  1  0  0  0
  5  6  1  0  0  0
  7  8  2  0  0  0
  7 19  1  0  0  0
 19 20  1  0  0  0
 20 21  1  0  0  0
 20 29  1  0  0  0
 21 22  2  0  0  0
 21 23  1  0  0  0
 23 24  2  0  0  0
 23 28  1  0  0  0
 24 25  1  0  0  0
 24 29  1  0  0  0
 25 26  2  0  0  0
 26 27  1  0  0  0
 27 28  2  0  0  0
 29 30  2  0  0  0
 12 13  2  0  0  0
 12 17  1  0  0  0
 13 14  1  0  0  0
 14 15  2  0  0  0
 15 16  1  0  0  0
 15 18  1  0  0  0
 16 17  2  0  0  0
M  END
> <minimizedAffinity>
-8.97020

$$$$
1718


 34 38  0  0  0  0  0  0  0  0999 V2000
   16.6231   27.0265   72.6763 Cl  0  0  0  0  0  0  0  0  0  0  0  0
   15.8133   28.4774   73.2221 C   0  0  0  0  0  0  0  0  0  0  0  0
   16.1465   29.6717   72.5820 C   0  0  0  0  0  0  0  0  0  0  0  0
   15.5304   30.8362   72.9831 C   0  0  0  0  0  0  0  0  0  0  0  0
   14.5969   30.7610   74.0186 C   0  0  0  0  0  0  0  0  0  0  0  0
   14.2746   29.5767   74.6453 C   0  0  0  0  0  0  0  0  0  0  0  0
   14.8915   28.4110   74.2423 C   0  0  0  0  0  0  0  0  0  0  0  0
   16.0104   31.9745   72.1997 C   0  0  0  0  0  0  0  0  0  0  0  0
   14.9420   32.6848   71.5224 N   0  0  0  0  0  0  0  0  0  0  0  0
   15.4772   34.0129   71.2546 C   0  0  0  0  0  0  0  0  0  0  0  0
   16.4008   34.3334   72.3974 C   0  0  0  0  0  0  0  0  0  0  0  0
   16.7306   33.0075   73.0371 C   0  0  0  0  0  0  0  0  0  0  0  0
   18.2047   32.8633   72.9362 C   0  0  0  0  0  0  0  0  0  0  0  0
   18.7883   31.7926   73.2631 O   0  0  0  0  0  0  0  0  0  0  0  0
   18.7662   34.0679   72.4430 N   0  0  0  0  0  0  0  0  0  0  0  0
   17.7142   34.8026   71.8354 C   0  0  0  0  0  0  0  0  0  0  0  0
   17.7933   35.7122   70.9622 O   0  0  0  0  0  0  0  0  0  0  0  0
   16.9845   31.3955   71.2609 C   0  0  0  0  0  0  0  0  0  0  0  0
   17.6655   32.0132   70.3630 O   0  0  0  0  0  0  0  0  0  0  0  0
   17.0391   30.0047   71.5267 N   0  0  0  0  0  0  0  0  0  0  0  0
   14.0743   32.7320   72.1022 H   0  0  0  0  0  0  0  0  0  0  0  0
   17.6499   29.3066   71.0217 H   0  0  0  0  0  0  0  0  0  0  0  0
   20.1232   34.4663   72.5421 C   0  0  0  0  0  0  0  0  0  0  0  0
   20.9177   34.4868   71.2971 C   0  0  0  0  0  0  0  0  0  0  0  0
   20.9722   35.7115   70.6495 O   0  0  0  0  0  0  0  0  0  0  0  0
   21.8612   35.4258   69.6127 C   0  0  0  0  0  0  0  0  0  0  0  0
   21.3919   34.0750   69.0576 C   0  0  0  0  0  0  0  0  0  0  0  0
   20.5192   33.5552   70.2126 C   0  0  0  0  0  0  0  0  0  0  0  0
   14.3391   34.9850   71.1490 C   0  0  0  0  0  0  0  0  0  0  0  0
   13.2087   34.2671   70.4784 C   0  0  0  0  0  0  0  0  0  0  0  0
   12.2669   33.8842   71.2189 O   0  0  0  0  0  0  0  0  0  0  0  0
   13.1811   34.0207   69.0821 N   0  0  0  0  0  0  0  0  0  0  0  0
   12.9843   34.8203   68.4488 H   0  0  0  0  0  0  0  0  0  0  0  0
   13.3461   33.0901   68.6507 H   0  0  0  0  0  0  0  0  0  0  0  0
  1  2  1  0  0  0
  2  3  2  0  0  0
  2  7  1  0  0  0
  3  4  1  0  0  0
  3 20  1  0  0  0
  4  5  2  0  0  0
  4  8  1  0  0  0
  5  6  1  0  0  0
  6  7  2  0  0  0
  8  9  1  0  0  0
  8 12  1  0  0  0
  8 18  1  0  0  0
  9 10  1  0  0  0
 10 11  1  0  0  0
 10 29  1  0  0  0
 11 12  1  0  0  0
 11 16  1  0  0  0
 12 13  1  0  0  0
 13 14  2  0  0  0
 13 15  1  0  0  0
 15 16  1  0  0  0
 15 23  1  0  0  0
 16 17  2  0  0  0
 23 24  1  0  0  0
 24 25  1  0  0  0
 24 28  1  0  0  0
 25 26  1  0  0  0
 26 27  1  0  0  0
 27 28  1  0  0  0
 29 30  1  0  0  0
 30 31  2  0  0  0
 30 32  1  0  0  0
 18 19  2  0  0  0
 18 20  1  0  0  0
  9 21  1  0  0  0
 32 33  1  0  0  0
 32 34  1  0  0  0
 20 22  1  0  0  0
M  END
> <minimizedAffinity>
-9.10239

$$$$
1721


 28 31  0  0  0  0  0  0  0  0999 V2000
   20.9282   34.5864   70.8122 C   0  0  0  0  0  0  0  0  0  0  0  0
   20.0790   34.0256   71.8514 C   0  0  0  0  0  0  0  0  0  0  0  0
   20.0389   34.8032   72.9552 O   0  0  0  0  0  0  0  0  0  0  0  0
   19.3349   32.8800   71.9099 N   0  0  0  0  0  0  0  0  0  0  0  0
   19.2646   31.8211   70.9618 C   0  0  0  0  0  0  0  0  0  0  0  0
   17.8701   31.6975   70.3518 C   0  0  0  0  0  0  0  0  0  0  0  0
   16.9644   32.1265   71.3785 N   0  0  0  0  0  0  0  0  0  0  0  0
   17.2947   31.8094   72.7374 C   0  0  0  0  0  0  0  0  0  0  0  0
   18.4555   32.7291   73.1311 C   0  0  0  0  0  0  0  0  0  0  0  0
   15.7809   32.8332   71.1001 C   0  0  0  0  0  0  0  0  0  0  0  0
   14.5676   32.4178   71.5670 N   0  0  0  0  0  0  0  0  0  0  0  0
   13.4207   33.0336   71.3415 C   0  0  0  0  0  0  0  0  0  0  0  0
   13.3557   34.1760   70.5942 C   0  0  0  0  0  0  0  0  0  0  0  0
   14.5552   34.6544   70.0874 C   0  0  0  0  0  0  0  0  0  0  0  0
   15.7465   33.9916   70.3382 C   0  0  0  0  0  0  0  0  0  0  0  0
   20.9115   35.9947   70.6823 N   0  0  0  0  0  0  0  0  0  0  0  0
   21.5821   36.5801   71.1879 H   0  0  0  0  0  0  0  0  0  0  0  0
   16.1972   37.8838   70.0241 Cl  0  0  0  0  0  0  0  0  0  0  0  0
   17.7977   37.4947   69.4508 C   0  0  0  0  0  0  0  0  0  0  0  0
   18.1759   37.7574   68.2070 N   0  0  0  0  0  0  0  0  0  0  0  0
   19.3795   37.4938   67.6876 C   0  0  0  0  0  0  0  0  0  0  0  0
   19.9673   37.6656   66.4927 N   0  0  0  0  0  0  0  0  0  0  0  0
   21.2263   37.1993   66.5480 C   0  0  0  0  0  0  0  0  0  0  0  0
   21.4094   36.7353   67.7985 N   0  0  0  0  0  0  0  0  0  0  0  0
   20.3025   36.8929   68.5393 C   0  0  0  0  0  0  0  0  0  0  0  0
   19.9212   36.6169   69.8304 C   0  0  0  0  0  0  0  0  0  0  0  0
   18.6936   36.9118   70.2789 N   0  0  0  0  0  0  0  0  0  0  0  0
   22.2821   36.2966   68.1968 H   0  0  0  0  0  0  0  0  0  0  0  0
 18 19  1  0  0  0
 19 20  2  0  0  0
 19 27  1  0  0  0
 20 21  1  0  0  0
 21 22  1  0  0  0
 21 25  2  0  0  0
 22 23  2  0  0  0
 23 24  1  0  0  0
 24 25  1  0  0  0
 25 26  1  0  0  0
 26 27  2  0  0  0
 26 16  1  0  0  0
 16  1  1  0  0  0
  1  2  1  0  0  0
  2  3  2  0  0  0
  2  4  1  0  0  0
  4  5  1  0  0  0
  4  9  1  0  0  0
  5  6  1  0  0  0
  6  7  1  0  0  0
  7  8  1  0  0  0
  7 10  1  0  0  0
  8  9  1  0  0  0
 10 11  2  0  0  0
 10 15  1  0  0  0
 11 12  1  0  0  0
 12 13  2  0  0  0
 13 14  1  0  0  0
 14 15  2  0  0  0
 24 28  1  0  0  0
 16 17  1  0  0  0
M  END
> <minimizedAffinity>
-8.38768

$$$$
1726


 30 33  0  0  0  0  0  0  0  0999 V2000
   22.0531   35.9527   69.9905 C   0  0  0  0  0  0  0  0  0  0  0  0
   22.5873   35.6843   68.6696 N   0  0  0  0  0  0  0  0  0  0  0  0
   21.4915   35.3087   67.8402 C   0  0  0  0  0  0  0  0  0  0  0  0
   21.3914   36.0428   66.5405 C   0  0  0  0  0  0  0  0  0  0  0  0
   20.9415   37.4555   66.6618 C   0  0  0  0  0  0  0  0  0  0  0  0
   21.9295   38.4385   66.3158 N   0  0  0  0  0  0  0  0  0  0  0  0
   23.2587   38.2250   66.3313 C   0  0  0  0  0  0  0  0  0  0  0  0
   24.1984   39.1593   66.0032 C   0  0  0  0  0  0  0  0  0  0  0  0
   23.7760   40.4175   65.6249 C   0  0  0  0  0  0  0  0  0  0  0  0
   22.4203   40.6438   65.6061 C   0  0  0  0  0  0  0  0  0  0  0  0
   21.5015   39.6792   65.9437 C   0  0  0  0  0  0  0  0  0  0  0  0
   20.2672   39.9232   65.9151 O   0  0  0  0  0  0  0  0  0  0  0  0
   23.6544   36.8285   66.7551 C   0  0  0  0  0  0  0  0  0  0  0  0
   23.4128   36.7335   68.2093 C   0  0  0  0  0  0  0  0  0  0  0  0
   22.7844   35.9311   65.9093 C   0  0  0  0  0  0  0  0  0  0  0  0
   23.2010   34.8220   68.7920 H   0  0  0  0  0  0  0  0  0  0  0  0
   21.7219   37.3908   70.2296 C   0  0  0  0  0  0  0  0  0  0  0  0
   22.6508   37.9514   71.1043 O   0  0  0  0  0  0  0  0  0  0  0  0
   22.3875   37.6431   72.0175 H   0  0  0  0  0  0  0  0  0  0  0  0
   20.3126   37.4232   70.8199 C   0  0  0  0  0  0  0  0  0  0  0  0
   19.5901   36.4074   70.1865 O   0  0  0  0  0  0  0  0  0  0  0  0
   17.4583   37.8634   68.6385 Br  0  0  0  0  0  0  0  0  0  0  0  0
   17.2372   36.4653   69.9133 C   0  0  0  0  0  0  0  0  0  0  0  0
   18.3611   35.9364   70.5070 C   0  0  0  0  0  0  0  0  0  0  0  0
   18.1845   34.9265   71.4265 C   0  0  0  0  0  0  0  0  0  0  0  0
   16.9062   34.4566   71.7436 C   0  0  0  0  0  0  0  0  0  0  0  0
   15.7979   35.0080   71.1299 C   0  0  0  0  0  0  0  0  0  0  0  0
   15.9564   36.0088   70.2168 C   0  0  0  0  0  0  0  0  0  0  0  0
   14.4197   34.5228   71.4513 C   0  0  0  0  0  0  0  0  0  0  0  0
   19.7178   34.1741   72.2659 Br  0  0  0  0  0  0  0  0  0  0  0  0
 22 23  1  0  0  0
 23 24  2  0  0  0
 23 28  1  0  0  0
 24 25  1  0  0  0
 24 21  1  0  0  0
 25 26  2  0  0  0
 25 30  1  0  0  0
 26 27  1  0  0  0
 27 28  2  0  0  0
 27 29  1  0  0  0
 21 20  1  0  0  0
 20 17  1  0  0  0
 17 18  1  0  0  0
 17  1  1  0  0  0
  1  2  1  0  0  0
  2  3  1  0  0  0
  2 14  1  0  0  0
  3  4  1  0  0  0
  4  5  1  0  0  0
  4 15  1  0  0  0
  5  6  1  0  0  0
  6  7  1  0  0  0
  6 11  1  0  0  0
  7  8  2  0  0  0
  7 13  1  0  0  0
  8  9  1  0  0  0
  9 10  2  0  0  0
 10 11  1  0  0  0
 11 12  2  0  0  0
 13 14  1  0  0  0
 13 15  1  0  0  0
 18 19  1  0  0  0
  2 16  1  0  0  0
M  CHG 1   2   1
M  END
> <minimizedAffinity>
-8.65085

$$$$
1732


 28 31  0  0  0  0  0  0  0  0999 V2000
   19.1168   34.0097   72.1058 N   0  0  0  0  0  0  0  0  0  0  0  0
   18.7580   33.8892   73.3733 N   0  0  0  0  0  0  0  0  0  0  0  0
   17.4370   33.7799   73.4609 N   0  0  0  0  0  0  0  0  0  0  0  0
   16.9280   33.8318   72.2120 C   0  0  0  0  0  0  0  0  0  0  0  0
   17.9944   33.9732   71.4077 N   0  0  0  0  0  0  0  0  0  0  0  0
   15.5251   33.7504   71.8331 C   0  0  0  0  0  0  0  0  0  0  0  0
   14.9400   32.5066   71.7811 C   0  0  0  0  0  0  0  0  0  0  0  0
   13.6052   32.4301   71.4199 C   0  0  0  0  0  0  0  0  0  0  0  0
   12.8648   33.5448   71.1172 C   0  0  0  0  0  0  0  0  0  0  0  0
   13.4502   34.7939   71.1683 C   0  0  0  0  0  0  0  0  0  0  0  0
   14.7839   34.8683   71.5300 C   0  0  0  0  0  0  0  0  0  0  0  0
   15.6444   31.3026   72.0817 N   0  0  0  0  0  0  0  0  0  0  0  0
   16.3473   30.6116   71.1933 N   0  0  0  0  0  0  0  0  0  0  0  0
   16.8673   29.5617   71.7891 N   0  0  0  0  0  0  0  0  0  0  0  0
   16.4915   29.5848   73.0657 N   0  0  0  0  0  0  0  0  0  0  0  0
   15.7232   30.6790   73.2485 C   0  0  0  0  0  0  0  0  0  0  0  0
   20.4831   34.1534   71.5780 C   0  0  0  0  0  0  0  0  0  0  0  0
   19.9006   36.0305   70.0079 N   0  0  0  0  0  0  0  0  0  0  0  0
   20.4609   34.7718   70.2262 C   0  0  0  0  0  0  0  0  0  0  0  0
   20.9656   34.1106   69.3002 O   0  0  0  0  0  0  0  0  0  0  0  0
   19.4964   36.5084   70.8680 H   0  0  0  0  0  0  0  0  0  0  0  0
   17.1294   37.2198   69.6332 Br  0  0  0  0  0  0  0  0  0  0  0  0
   18.5986   37.3784   68.4497 C   0  0  0  0  0  0  0  0  0  0  0  0
   19.7965   36.7550   68.8017 C   0  0  0  0  0  0  0  0  0  0  0  0
   20.8248   36.9134   67.8916 C   0  0  0  0  0  0  0  0  0  0  0  0
   20.6803   37.6401   66.7073 C   0  0  0  0  0  0  0  0  0  0  0  0
   19.4762   38.2304   66.4163 C   0  0  0  0  0  0  0  0  0  0  0  0
   18.4236   38.1001   67.2945 C   0  0  0  0  0  0  0  0  0  0  0  0
 22 23  1  0  0  0
 23 24  2  0  0  0
 23 28  1  0  0  0
 24 25  1  0  0  0
 24 18  1  0  0  0
 25 26  2  0  0  0
 26 27  1  0  0  0
 27 28  2  0  0  0
 18 19  1  0  0  0
 19 20  2  0  0  0
 19 17  1  0  0  0
 17  1  1  0  0  0
  1  2  1  0  0  0
  1  5  1  0  0  0
  2  3  2  0  0  0
  3  4  1  0  0  0
  4  5  2  0  0  0
  4  6  1  0  0  0
  6  7  1  0  0  0
  6 11  2  0  0  0
  7  8  2  0  0  0
  7 12  1  0  0  0
  8  9  1  0  0  0
  9 10  2  0  0  0
 10 11  1  0  0  0
 12 13  1  0  0  0
 12 16  1  0  0  0
 13 14  2  0  0  0
 14 15  1  0  0  0
 15 16  2  0  0  0
 18 21  1  0  0  0
M  END
> <minimizedAffinity>
-8.93664

$$$$
1736


 35 39  0  0  0  0  0  0  0  0999 V2000
   20.3544   30.4579   74.3248 Cl  0  0  0  0  0  0  0  0  0  0  0  0
   19.7078   28.8245   74.0999 C   0  0  0  0  0  0  0  0  0  0  0  0
   18.4131   28.5252   74.4441 C   0  0  0  0  0  0  0  0  0  0  0  0
   17.9211   27.2596   74.2667 C   0  0  0  0  0  0  0  0  0  0  0  0
   18.7360   26.2892   73.7406 C   0  0  0  0  0  0  0  0  0  0  0  0
   20.0554   26.5633   73.3811 C   0  0  0  0  0  0  0  0  0  0  0  0
   20.5201   27.8452   73.5717 C   0  0  0  0  0  0  0  0  0  0  0  0
   18.0564   25.0521   73.6354 N   0  0  0  0  0  0  0  0  0  0  0  0
   16.7421   25.2698   74.1265 C   0  0  0  0  0  0  0  0  0  0  0  0
   15.8402   24.4078   74.1996 O   0  0  0  0  0  0  0  0  0  0  0  0
   16.5889   26.6762   74.5447 C   0  0  0  0  0  0  0  0  0  0  0  0
   16.2120   26.8035   75.9312 N   0  0  0  0  0  0  0  0  0  0  0  0
   15.3152   27.9111   76.0393 C   0  0  0  0  0  0  0  0  0  0  0  0
   14.5284   27.9665   74.7505 C   0  0  0  0  0  0  0  0  0  0  0  0
   15.4849   27.3158   73.7840 C   0  0  0  0  0  0  0  0  0  0  0  0
   15.9214   28.3784   72.8453 C   0  0  0  0  0  0  0  0  0  0  0  0
   16.9406   28.4163   72.1106 O   0  0  0  0  0  0  0  0  0  0  0  0
   14.9180   29.4113   72.9278 N   0  0  0  0  0  0  0  0  0  0  0  0
   14.3311   29.3487   74.2439 C   0  0  0  0  0  0  0  0  0  0  0  0
   13.7539   30.2777   74.8663 O   0  0  0  0  0  0  0  0  0  0  0  0
   18.4153   24.1216   73.2702 H   0  0  0  0  0  0  0  0  0  0  0  0
   17.0448   26.9107   76.5189 H   0  0  0  0  0  0  0  0  0  0  0  0
   14.4074   27.7859   77.2441 C   0  0  0  0  0  0  0  0  0  0  0  0
   13.0938   27.8645   76.7903 O   0  0  0  0  0  0  0  0  0  0  0  0
   14.6428   29.0297   78.0947 C   0  0  0  0  0  0  0  0  0  0  0  0
   12.8700   28.8012   76.5891 H   0  0  0  0  0  0  0  0  0  0  0  0
   14.5503   30.3511   71.8901 C   0  0  0  0  0  0  0  0  0  0  0  0
   15.2409   31.6566   72.1134 C   0  0  0  0  0  0  0  0  0  0  0  0
   14.7738   32.8124   71.5243 C   0  0  0  0  0  0  0  0  0  0  0  0
   15.4313   34.0102   71.7473 C   0  0  0  0  0  0  0  0  0  0  0  0
   16.5526   34.0908   72.5497 C   0  0  0  0  0  0  0  0  0  0  0  0
   17.0277   32.9420   73.1427 C   0  0  0  0  0  0  0  0  0  0  0  0
   16.3652   31.7581   72.9134 C   0  0  0  0  0  0  0  0  0  0  0  0
   13.6383   32.7289   70.7122 O   0  0  0  0  0  0  0  0  0  0  0  0
   13.3826   33.7949   69.7916 C   0  0  0  0  0  0  0  0  0  0  0  0
  1  2  1  0  0  0
  2  3  2  0  0  0
  2  7  1  0  0  0
  3  4  1  0  0  0
  4  5  2  0  0  0
  4 11  1  0  0  0
  5  6  1  0  0  0
  5  8  1  0  0  0
  6  7  2  0  0  0
  8  9  1  0  0  0
  9 10  2  0  0  0
  9 11  1  0  0  0
 11 12  1  0  0  0
 11 15  1  0  0  0
 12 13  1  0  0  0
 13 14  1  0  0  0
 13 23  1  0  0  0
 14 15  1  0  0  0
 14 19  1  0  0  0
 15 16  1  0  0  0
 16 17  2  0  0  0
 16 18  1  0  0  0
 18 19  1  0  0  0
 18 27  1  0  0  0
 19 20  2  0  0  0
 27 28  1  0  0  0
 28 29  2  0  0  0
 28 33  1  0  0  0
 29 30  1  0  0  0
 29 34  1  0  0  0
 30 31  2  0  0  0
 31 32  1  0  0  0
 32 33  2  0  0  0
 34 35  1  0  0  0
 23 24  1  0  0  0
 23 25  1  0  0  0
  8 21  1  0  0  0
 12 22  1  0  0  0
 24 26  1  0  0  0
M  END
> <minimizedAffinity>
-7.54420

$$$$
1741


 28 31  0  0  0  0  0  0  0  0999 V2000
   18.2778   31.7448   71.9209 C   0  0  0  0  0  0  0  0  0  0  0  0
   17.9322   30.9372   71.0362 O   0  0  0  0  0  0  0  0  0  0  0  0
   19.5752   32.2772   71.9271 N   0  0  0  0  0  0  0  0  0  0  0  0
   20.5756   31.9461   70.9365 C   0  0  0  0  0  0  0  0  0  0  0  0
   21.1051   33.2604   70.3872 C   0  0  0  0  0  0  0  0  0  0  0  0
   20.3724   34.3572   70.8662 N   0  0  0  0  0  0  0  0  0  0  0  0
   20.2395   34.5667   72.2492 C   0  0  0  0  0  0  0  0  0  0  0  0
   20.0256   33.2308   72.9522 C   0  0  0  0  0  0  0  0  0  0  0  0
   17.2778   32.1314   72.9738 C   0  0  0  0  0  0  0  0  0  0  0  0
   13.2589   36.7704   69.3472 Br  0  0  0  0  0  0  0  0  0  0  0  0
   14.1793   35.3999   70.3235 C   0  0  0  0  0  0  0  0  0  0  0  0
   13.5160   34.2145   70.6483 C   0  0  0  0  0  0  0  0  0  0  0  0
   14.2047   33.2348   71.3562 C   0  0  0  0  0  0  0  0  0  0  0  0
   15.5139   33.4009   71.7433 C   0  0  0  0  0  0  0  0  0  0  0  0
   15.9516   32.2994   72.4187 N   0  0  0  0  0  0  0  0  0  0  0  0
   14.9109   31.4582   72.4460 C   0  0  0  0  0  0  0  0  0  0  0  0
   13.8121   31.9920   71.8036 C   0  0  0  0  0  0  0  0  0  0  0  0
   16.1735   34.5657   71.4264 C   0  0  0  0  0  0  0  0  0  0  0  0
   15.4911   35.5498   70.7189 C   0  0  0  0  0  0  0  0  0  0  0  0
   19.6310   35.1433   69.9700 C   0  0  0  0  0  0  0  0  0  0  0  0
   20.3572   36.3308   69.4474 C   0  0  0  0  0  0  0  0  0  0  0  0
   20.2112   37.4036   70.0854 O   0  0  0  0  0  0  0  0  0  0  0  0
   21.1737   36.3083   68.3066 N   0  0  0  0  0  0  0  0  0  0  0  0
   21.8397   37.5150   67.8583 C   0  0  0  0  0  0  0  0  0  0  0  0
   23.3140   37.1911   67.7364 C   0  0  0  0  0  0  0  0  0  0  0  0
   23.4057   36.2504   66.7002 O   0  0  0  0  0  0  0  0  0  0  0  0
   22.8290   35.0525   67.0487 C   0  0  0  0  0  0  0  0  0  0  0  0
   21.4136   35.1245   67.5057 C   0  0  0  0  0  0  0  0  0  0  0  0
 10 11  1  0  0  0
 11 12  2  0  0  0
 11 19  1  0  0  0
 12 13  1  0  0  0
 13 14  2  0  0  0
 13 17  1  0  0  0
 14 15  1  0  0  0
 14 18  1  0  0  0
 15 16  1  0  0  0
 15  9  1  0  0  0
 16 17  2  0  0  0
  9  1  1  0  0  0
  1  2  2  0  0  0
  1  3  1  0  0  0
  3  4  1  0  0  0
  3  8  1  0  0  0
  4  5  1  0  0  0
  5  6  1  0  0  0
  6  7  1  0  0  0
  6 20  1  0  0  0
  7  8  1  0  0  0
 20 21  1  0  0  0
 21 22  2  0  0  0
 21 23  1  0  0  0
 23 24  1  0  0  0
 23 28  1  0  0  0
 24 25  1  0  0  0
 25 26  1  0  0  0
 26 27  1  0  0  0
 27 28  1  0  0  0
 18 19  2  0  0  0
M  END
> <minimizedAffinity>
-8.56789

$$$$
1744


 34 37  0  0  0  0  0  0  0  0999 V2000
   17.2791   32.5555   71.5639 N   0  0  0  0  0  0  0  0  0  0  0  0
   17.5019   32.5223   72.9727 C   0  0  0  0  0  0  0  0  0  0  0  0
   16.6568   32.9026   73.8194 O   0  0  0  0  0  0  0  0  0  0  0  0
   18.7530   32.0280   73.4458 N   0  0  0  0  0  0  0  0  0  0  0  0
   19.7387   31.5850   72.5003 C   0  0  0  0  0  0  0  0  0  0  0  0
   20.7257   30.9400   72.9892 O   0  0  0  0  0  0  0  0  0  0  0  0
   19.6300   31.8520   71.0544 C   0  0  0  0  0  0  0  0  0  0  0  0
   18.2391   32.1170   70.6117 C   0  0  0  0  0  0  0  0  0  0  0  0
   17.9568   31.9449   69.4005 O   0  0  0  0  0  0  0  0  0  0  0  0
   18.9839   31.9761   74.4715 H   0  0  0  0  0  0  0  0  0  0  0  0
   14.5960   36.5673   69.7338 Cl  0  0  0  0  0  0  0  0  0  0  0  0
   14.7137   34.9043   70.2432 C   0  0  0  0  0  0  0  0  0  0  0  0
   15.8993   34.3818   70.6969 C   0  0  0  0  0  0  0  0  0  0  0  0
   16.0304   33.0684   71.1138 C   0  0  0  0  0  0  0  0  0  0  0  0
   14.9290   32.2689   71.0692 C   0  0  0  0  0  0  0  0  0  0  0  0
   13.7036   32.7489   70.6173 C   0  0  0  0  0  0  0  0  0  0  0  0
   13.6149   34.0645   70.2096 C   0  0  0  0  0  0  0  0  0  0  0  0
   20.5241   33.0034   70.6591 C   0  0  0  0  0  0  0  0  0  0  0  0
   20.6954   34.0916   71.3873 C   0  0  0  0  0  0  0  0  0  0  0  0
   21.6383   34.9315   70.6156 C   0  0  0  0  0  0  0  0  0  0  0  0
   22.3960   33.9339   69.8817 N   0  0  0  0  0  0  0  0  0  0  0  0
   21.3290   33.0910   69.4838 N   0  0  0  0  0  0  0  0  0  0  0  0
   22.9557   34.2936   69.1043 H   0  0  0  0  0  0  0  0  0  0  0  0
   21.1144   32.6234   68.6031 H   0  0  0  0  0  0  0  0  0  0  0  0
   20.9028   35.8276   69.6802 C   0  0  0  0  0  0  0  0  0  0  0  0
   21.3347   36.1860   68.4351 C   0  0  0  0  0  0  0  0  0  0  0  0
   20.5953   36.9900   67.5902 C   0  0  0  0  0  0  0  0  0  0  0  0
   19.3614   37.4716   67.9877 C   0  0  0  0  0  0  0  0  0  0  0  0
   18.9230   37.0997   69.2690 C   0  0  0  0  0  0  0  0  0  0  0  0
   19.6732   36.2991   70.0977 C   0  0  0  0  0  0  0  0  0  0  0  0
   21.0865   37.3312   66.3178 O   0  0  0  0  0  0  0  0  0  0  0  0
   21.9932   36.9674   66.0435 H   0  0  0  0  0  0  0  0  0  0  0  0
   18.5957   38.2697   67.1725 O   0  0  0  0  0  0  0  0  0  0  0  0
   17.2652   38.6125   67.5002 C   0  0  0  0  0  0  0  0  0  0  0  0
 11 12  1  0  0  0
 12 13  2  0  0  0
 12 17  1  0  0  0
 13 14  1  0  0  0
 14 15  2  0  0  0
 14  1  1  0  0  0
 15 16  1  0  0  0
 16 17  2  0  0  0
  1  2  1  0  0  0
  1  8  1  0  0  0
  2  3  2  0  0  0
  2  4  1  0  0  0
  4  5  1  0  0  0
  5  6  2  0  0  0
  5  7  1  0  0  0
  7  8  1  0  0  0
  7 18  1  0  0  0
  8  9  2  0  0  0
 18 19  2  0  0  0
 18 22  1  0  0  0
 19 20  1  0  0  0
 20 21  1  0  0  0
 20 25  1  0  0  0
 21 22  1  0  0  0
 25 26  2  0  0  0
 25 30  1  0  0  0
 26 27  1  0  0  0
 27 28  2  0  0  0
 27 31  1  0  0  0
 28 29  1  0  0  0
 28 33  1  0  0  0
 29 30  2  0  0  0
 33 34  1  0  0  0
  4 10  1  0  0  0
 21 23  1  0  0  0
 22 24  1  0  0  0
 31 32  1  0  0  0
M  END
> <minimizedAffinity>
-8.97521

$$$$
1745


 34 37  0  0  0  0  0  0  0  0999 V2000
   17.6374   32.8372   71.5130 N   0  0  0  0  0  0  0  0  0  0  0  0
   18.1568   32.9380   72.8291 C   0  0  0  0  0  0  0  0  0  0  0  0
   17.4223   33.1740   73.7979 O   0  0  0  0  0  0  0  0  0  0  0  0
   19.5627   32.7677   73.0595 N   0  0  0  0  0  0  0  0  0  0  0  0
   20.4551   32.4926   71.9813 C   0  0  0  0  0  0  0  0  0  0  0  0
   21.5518   31.9327   72.1523 O   0  0  0  0  0  0  0  0  0  0  0  0
   20.0409   32.9016   70.5923 C   0  0  0  0  0  0  0  0  0  0  0  0
   18.6062   32.5640   70.4775 C   0  0  0  0  0  0  0  0  0  0  0  0
   18.1442   31.9974   69.4225 O   0  0  0  0  0  0  0  0  0  0  0  0
   19.9185   32.8457   74.0208 H   0  0  0  0  0  0  0  0  0  0  0  0
   14.0827   35.8902   69.5139 Cl  0  0  0  0  0  0  0  0  0  0  0  0
   14.5214   34.3664   70.2374 C   0  0  0  0  0  0  0  0  0  0  0  0
   15.8357   34.1499   70.5876 C   0  0  0  0  0  0  0  0  0  0  0  0
   16.2620   32.9533   71.1761 C   0  0  0  0  0  0  0  0  0  0  0  0
   15.2954   32.0053   71.3852 C   0  0  0  0  0  0  0  0  0  0  0  0
   13.9782   32.2133   71.0371 C   0  0  0  0  0  0  0  0  0  0  0  0
   13.5624   33.4122   70.4515 C   0  0  0  0  0  0  0  0  0  0  0  0
   20.3185   34.3573   70.4065 C   0  0  0  0  0  0  0  0  0  0  0  0
   21.1545   34.9434   69.5743 C   0  0  0  0  0  0  0  0  0  0  0  0
   21.0665   36.4165   69.7708 C   0  0  0  0  0  0  0  0  0  0  0  0
   20.5583   36.4756   71.1651 N   0  0  0  0  0  0  0  0  0  0  0  0
   19.6832   35.3818   71.1828 N   0  0  0  0  0  0  0  0  0  0  0  0
   21.3483   36.3693   71.8319 H   0  0  0  0  0  0  0  0  0  0  0  0
   18.7821   35.3035   71.6420 H   0  0  0  0  0  0  0  0  0  0  0  0
   19.9673   36.9538   68.9236 C   0  0  0  0  0  0  0  0  0  0  0  0
   18.6985   37.2519   69.4649 C   0  0  0  0  0  0  0  0  0  0  0  0
   17.6751   37.7763   68.7378 C   0  0  0  0  0  0  0  0  0  0  0  0
   17.8619   38.0419   67.3943 C   0  0  0  0  0  0  0  0  0  0  0  0
   19.0866   37.7628   66.8328 C   0  0  0  0  0  0  0  0  0  0  0  0
   20.1137   37.2318   67.5812 C   0  0  0  0  0  0  0  0  0  0  0  0
   16.8269   38.5796   66.6361 O   0  0  0  0  0  0  0  0  0  0  0  0
   15.9408   38.7736   67.0838 H   0  0  0  0  0  0  0  0  0  0  0  0
   16.4315   38.0500   69.3252 O   0  0  0  0  0  0  0  0  0  0  0  0
   16.3374   38.1619   70.7285 C   0  0  0  0  0  0  0  0  0  0  0  0
 11 12  1  0  0  0
 12 13  2  0  0  0
 12 17  1  0  0  0
 13 14  1  0  0  0
 14 15  2  0  0  0
 14  1  1  0  0  0
 15 16  1  0  0  0
 16 17  2  0  0  0
  1  2  1  0  0  0
  1  8  1  0  0  0
  2  3  2  0  0  0
  2  4  1  0  0  0
  4  5  1  0  0  0
  5  6  2  0  0  0
  5  7  1  0  0  0
  7  8  1  0  0  0
  7 18  1  0  0  0
  8  9  2  0  0  0
 18 19  2  0  0  0
 18 22  1  0  0  0
 19 20  1  0  0  0
 20 21  1  0  0  0
 20 25  1  0  0  0
 21 22  1  0  0  0
 25 26  2  0  0  0
 25 30  1  0  0  0
 26 27  1  0  0  0
 27 28  2  0  0  0
 27 33  1  0  0  0
 28 29  1  0  0  0
 28 31  1  0  0  0
 29 30  2  0  0  0
 33 34  1  0  0  0
  4 10  1  0  0  0
 21 23  1  0  0  0
 22 24  1  0  0  0
 31 32  1  0  0  0
M  END
> <minimizedAffinity>
-9.52272

$$$$
1750


 27 30  0  0  0  0  0  0  0  0999 V2000
   22.6477   35.8318   67.6796 N   0  0  0  0  0  0  0  0  0  0  0  0
   21.9830   34.5650   67.7041 C   0  0  0  0  0  0  0  0  0  0  0  0
   20.8383   34.5264   68.6984 C   0  0  0  0  0  0  0  0  0  0  0  0
   21.2939   35.0549   69.9564 N   0  0  0  0  0  0  0  0  0  0  0  0
   22.6993   35.3825   70.0902 C   0  0  0  0  0  0  0  0  0  0  0  0
   23.0531   36.3176   68.9545 C   0  0  0  0  0  0  0  0  0  0  0  0
   20.4261   35.2673   71.0660 C   0  0  0  0  0  0  0  0  0  0  0  0
   20.8475   35.7303   72.1511 O   0  0  0  0  0  0  0  0  0  0  0  0
   19.0003   34.9462   70.9687 C   0  0  0  0  0  0  0  0  0  0  0  0
   18.0054   35.7959   70.5926 N   0  0  0  0  0  0  0  0  0  0  0  0
   16.8353   35.1395   70.6259 C   0  0  0  0  0  0  0  0  0  0  0  0
   17.0942   33.8929   71.0193 N   0  0  0  0  0  0  0  0  0  0  0  0
   18.4086   33.7486   71.2354 C   0  0  0  0  0  0  0  0  0  0  0  0
   16.0716   33.0236   71.1339 C   0  0  0  0  0  0  0  0  0  0  0  0
   14.7669   33.3374   70.8702 C   0  0  0  0  0  0  0  0  0  0  0  0
   14.4771   34.6335   70.4590 C   0  0  0  0  0  0  0  0  0  0  0  0
   15.5302   35.5131   70.3456 C   0  0  0  0  0  0  0  0  0  0  0  0
   13.4549   32.1749   71.0314 Cl  0  0  0  0  0  0  0  0  0  0  0  0
   21.9748   36.9904   66.6497 S   0  0  0  0  0  0  0  0  0  0  0  0
   20.8269   36.4003   65.8971 O   0  0  0  0  0  0  0  0  0  0  0  0
   21.4603   38.1311   67.4820 O   0  0  0  0  0  0  0  0  0  0  0  0
   23.0878   37.6449   65.5164 N   0  0  0  0  0  0  0  0  0  0  0  0
   24.3265   36.8911   65.4607 C   0  0  0  0  0  0  0  0  0  0  0  0
   25.3910   37.8203   64.9276 C   0  0  0  0  0  0  0  0  0  0  0  0
   24.8719   38.7224   64.0051 O   0  0  0  0  0  0  0  0  0  0  0  0
   24.0008   39.6420   64.5850 C   0  0  0  0  0  0  0  0  0  0  0  0
   23.4531   39.0095   65.8487 C   0  0  0  0  0  0  0  0  0  0  0  0
 19 20  2  0  0  0
 19 21  2  0  0  0
 19  1  1  0  0  0
 19 22  1  0  0  0
  1  2  1  0  0  0
  1  6  1  0  0  0
  2  3  1  0  0  0
  3  4  1  0  0  0
  4  5  1  0  0  0
  4  7  1  0  0  0
  5  6  1  0  0  0
  7  8  2  0  0  0
  7  9  1  0  0  0
  9 10  1  0  0  0
  9 13  2  0  0  0
 10 11  2  0  0  0
 11 12  1  0  0  0
 11 17  1  0  0  0
 12 13  1  0  0  0
 12 14  1  0  0  0
 14 15  2  0  0  0
 15 16  1  0  0  0
 15 18  1  0  0  0
 16 17  2  0  0  0
 22 23  1  0  0  0
 22 27  1  0  0  0
 23 24  1  0  0  0
 24 25  1  0  0  0
 25 26  1  0  0  0
 26 27  1  0  0  0
M  END
> <minimizedAffinity>
-8.40581

$$$$
1758


 28 32  0  0  0  0  0  0  0  0999 V2000
   18.7330   36.6199   69.6552 N   0  0  0  0  0  0  0  0  0  0  0  0
   17.7072   37.4515   69.6650 N   0  0  0  0  0  0  0  0  0  0  0  0
   16.6505   36.9346   70.3240 C   0  0  0  0  0  0  0  0  0  0  0  0
   15.4688   37.4620   70.5388 C   0  0  0  0  0  0  0  0  0  0  0  0
   17.0384   35.6838   70.7622 C   0  0  0  0  0  0  0  0  0  0  0  0
   16.2873   34.8224   71.4649 C   0  0  0  0  0  0  0  0  0  0  0  0
   18.3364   35.5262   70.3277 C   0  0  0  0  0  0  0  0  0  0  0  0
   19.0513   34.5114   70.5263 O   0  0  0  0  0  0  0  0  0  0  0  0
   17.6933   38.4006   69.2220 H   0  0  0  0  0  0  0  0  0  0  0  0
   24.2222   37.6060   66.6644 I   0  0  0  0  0  0  0  0  0  0  0  0
   22.4138   37.2786   67.6919 C   0  0  0  0  0  0  0  0  0  0  0  0
   22.3686   37.1868   69.0681 C   0  0  0  0  0  0  0  0  0  0  0  0
   21.1717   36.9695   69.7523 C   0  0  0  0  0  0  0  0  0  0  0  0
   20.0189   36.8453   69.0445 C   0  0  0  0  0  0  0  0  0  0  0  0
   20.0767   36.9389   67.6656 C   0  0  0  0  0  0  0  0  0  0  0  0
   21.2479   37.1531   66.9716 C   0  0  0  0  0  0  0  0  0  0  0  0
   16.8982   33.5857   71.8088 N   0  0  0  0  0  0  0  0  0  0  0  0
   17.9181   33.4635   71.9654 H   0  0  0  0  0  0  0  0  0  0  0  0
   16.0564   32.4092   71.9543 C   0  0  0  0  0  0  0  0  0  0  0  0
   16.1967   31.8418   73.3587 C   0  0  0  0  0  0  0  0  0  0  0  0
   15.3135   30.7176   73.5024 N   0  0  0  0  0  0  0  0  0  0  0  0
   15.7176   29.7180   72.5193 C   0  0  0  0  0  0  0  0  0  0  0  0
   15.5572   30.2026   71.1771 N   0  0  0  0  0  0  0  0  0  0  0  0
   14.1964   30.6370   70.9519 C   0  0  0  0  0  0  0  0  0  0  0  0
   13.7842   31.6394   71.8977 N   0  0  0  0  0  0  0  0  0  0  0  0
   13.9591   31.1627   73.2660 C   0  0  0  0  0  0  0  0  0  0  0  0
   14.6141   32.8109   71.7364 C   0  0  0  0  0  0  0  0  0  0  0  0
   16.4372   31.3281   70.9880 C   0  0  0  0  0  0  0  0  0  0  0  0
 10 11  1  0  0  0
 11 12  2  0  0  0
 11 16  1  0  0  0
 12 13  1  0  0  0
 13 14  2  0  0  0
 14 15  1  0  0  0
 14  1  1  0  0  0
 15 16  2  0  0  0
  1  2  1  0  0  0
  1  7  1  0  0  0
  2  3  1  0  0  0
  3  4  2  0  0  0
  3  5  1  0  0  0
  5  6  2  0  0  0
  5  7  1  0  0  0
  6 17  1  0  0  0
 17 19  1  0  0  0
 19 20  1  0  0  0
 19 27  1  0  0  0
 19 28  1  0  0  0
 20 21  1  0  0  0
 21 22  1  0  0  0
 21 26  1  0  0  0
 22 23  1  0  0  0
 23 24  1  0  0  0
 23 28  1  0  0  0
 24 25  1  0  0  0
 25 26  1  0  0  0
 25 27  1  0  0  0
  7  8  2  0  0  0
  2  9  1  0  0  0
 17 18  1  0  0  0
M  END
> <minimizedAffinity>
-8.42729

$$$$
1764


 34 37  0  0  0  0  0  0  0  0999 V2000
   21.0502   34.8936   69.0770 N   0  0  0  0  0  0  0  0  0  0  0  0
   21.3194   36.2372   69.2529 C   0  0  0  0  0  0  0  0  0  0  0  0
   22.4580   36.5596   68.2749 C   0  0  0  0  0  0  0  0  0  0  0  0
   22.0948   35.6917   67.0902 C   0  0  0  0  0  0  0  0  0  0  0  0
   21.3578   34.5229   67.6987 C   0  0  0  0  0  0  0  0  0  0  0  0
   20.0945   37.0327   68.8347 C   0  0  0  0  0  0  0  0  0  0  0  0
   20.2802   37.8804   67.9516 O   0  0  0  0  0  0  0  0  0  0  0  0
   18.8569   36.7738   69.4488 N   0  0  0  0  0  0  0  0  0  0  0  0
   18.7383   36.0627   70.1984 H   0  0  0  0  0  0  0  0  0  0  0  0
   17.6821   37.5130   69.0558 C   0  0  0  0  0  0  0  0  0  0  0  0
   16.6201   37.6271   70.0811 C   0  0  0  0  0  0  0  0  0  0  0  0
   15.5909   36.6497   70.0408 N   0  0  0  0  0  0  0  0  0  0  0  0
   14.2739   37.1244   70.3159 C   0  0  0  0  0  0  0  0  0  0  0  0
   13.3187   36.4098   69.3812 C   0  0  0  0  0  0  0  0  0  0  0  0
   13.5537   34.9173   69.4902 C   0  0  0  0  0  0  0  0  0  0  0  0
   13.6279   34.5548   70.9491 C   0  0  0  0  0  0  0  0  0  0  0  0
   14.9346   34.8385   71.5909 C   0  0  0  0  0  0  0  0  0  0  0  0
   15.9670   35.4569   70.7254 C   0  0  0  0  0  0  0  0  0  0  0  0
   21.3500   33.6933   70.1840 S   0  0  0  0  0  0  0  0  0  0  0  0
   22.5748   33.9823   71.0499 O   0  0  0  0  0  0  0  0  0  0  0  0
   21.7418   32.4242   69.4243 O   0  0  0  0  0  0  0  0  0  0  0  0
   20.0118   33.2784   71.2136 C   0  0  0  0  0  0  0  0  0  0  0  0
   19.3391   32.0652   70.9909 C   0  0  0  0  0  0  0  0  0  0  0  0
   18.2401   31.6652   71.6959 C   0  0  0  0  0  0  0  0  0  0  0  0
   17.7783   32.5179   72.6821 C   0  0  0  0  0  0  0  0  0  0  0  0
   18.3828   33.7088   72.9519 C   0  0  0  0  0  0  0  0  0  0  0  0
   19.4986   34.0666   72.2044 C   0  0  0  0  0  0  0  0  0  0  0  0
   20.2793   35.5583   72.6801 Cl  0  0  0  0  0  0  0  0  0  0  0  0
   16.6268   32.1071   73.4351 N   0  0  0  0  0  0  0  0  0  0  0  0
   16.0088   30.8552   73.1467 C   0  0  0  0  0  0  0  0  0  0  0  0
   14.8123   30.6701   73.4312 O   0  0  0  0  0  0  0  0  0  0  0  0
   16.8495   29.8131   72.5063 C   0  0  0  0  0  0  0  0  0  0  0  0
   17.5806   30.4665   71.4720 O   0  0  0  0  0  0  0  0  0  0  0  0
   16.2648   32.7443   74.1869 H   0  0  0  0  0  0  0  0  0  0  0  0
 19 20  2  0  0  0
 19 21  2  0  0  0
 19  1  1  0  0  0
 19 22  1  0  0  0
  1  2  1  0  0  0
  1  5  1  0  0  0
  2  3  1  0  0  0
  2  6  1  0  0  0
  3  4  1  0  0  0
  4  5  1  0  0  0
  6  7  2  0  0  0
  6  8  1  0  0  0
  8 10  1  0  0  0
 10 11  1  0  0  0
 11 12  1  0  0  0
 12 13  1  0  0  0
 12 18  1  0  0  0
 13 14  1  0  0  0
 14 15  1  0  0  0
 15 16  1  0  0  0
 16 17  1  0  0  0
 17 18  1  0  0  0
 22 23  2  0  0  0
 22 27  1  0  0  0
 23 24  1  0  0  0
 24 25  2  0  0  0
 24 33  1  0  0  0
 25 26  1  0  0  0
 25 29  1  0  0  0
 26 27  2  0  0  0
 27 28  1  0  0  0
 29 30  1  0  0  0
 30 31  2  0  0  0
 30 32  1  0  0  0
 32 33  1  0  0  0
  8  9  1  0  0  0
 29 34  1  0  0  0
M  END
> <minimizedAffinity>
-8.84113

$$$$
1781


 24 27  0  0  0  0  0  0  0  0999 V2000
   18.7959   34.0654   70.7075 C   0  0  0  0  0  0  0  0  0  0  0  0
   18.6536   32.8282   70.3022 O   0  0  0  0  0  0  0  0  0  0  0  0
   20.0548   34.3743   71.2000 N   0  0  0  0  0  0  0  0  0  0  0  0
   20.5741   35.5697   71.7759 C   0  0  0  0  0  0  0  0  0  0  0  0
   21.3752   36.2423   70.6428 C   0  0  0  0  0  0  0  0  0  0  0  0
   22.1053   35.1725   69.9377 N   0  0  0  0  0  0  0  0  0  0  0  0
   22.4064   33.9743   70.6670 C   0  0  0  0  0  0  0  0  0  0  0  0
   21.1057   33.3091   71.0763 C   0  0  0  0  0  0  0  0  0  0  0  0
   22.4855   35.3637   68.5774 C   0  0  0  0  0  0  0  0  0  0  0  0
   23.4471   34.6047   68.0069 N   0  0  0  0  0  0  0  0  0  0  0  0
   23.8267   34.7550   66.7505 N   0  0  0  0  0  0  0  0  0  0  0  0
   23.2845   35.6756   65.9412 C   0  0  0  0  0  0  0  0  0  0  0  0
   23.8541   35.6146   64.7123 N   0  0  0  0  0  0  0  0  0  0  0  0
   24.7555   34.6509   64.7545 N   0  0  0  0  0  0  0  0  0  0  0  0
   24.7565   34.1138   65.9876 C   0  0  0  0  0  0  0  0  0  0  0  0
   22.2912   36.4931   66.4526 C   0  0  0  0  0  0  0  0  0  0  0  0
   21.9148   36.3163   67.7634 C   0  0  0  0  0  0  0  0  0  0  0  0
   13.6367   37.1485   69.9975 Cl  0  0  0  0  0  0  0  0  0  0  0  0
   15.1592   36.2729   70.2116 C   0  0  0  0  0  0  0  0  0  0  0  0
   15.1671   34.9368   70.5270 C   0  0  0  0  0  0  0  0  0  0  0  0
   16.3529   34.2596   70.6936 C   0  0  0  0  0  0  0  0  0  0  0  0
   17.6101   34.8602   70.5585 C   0  0  0  0  0  0  0  0  0  0  0  0
   17.5721   36.1990   70.2418 C   0  0  0  0  0  0  0  0  0  0  0  0
   16.3672   36.9040   70.0690 C   0  0  0  0  0  0  0  0  0  0  0  0
 18 19  1  0  0  0
 19 20  2  0  0  0
 19 24  1  0  0  0
 20 21  1  0  0  0
 21 22  2  0  0  0
 22 23  1  0  0  0
 22  1  1  0  0  0
 23 24  2  0  0  0
  1  2  2  0  0  0
  1  3  1  0  0  0
  3  4  1  0  0  0
  3  8  1  0  0  0
  4  5  1  0  0  0
  5  6  1  0  0  0
  6  7  1  0  0  0
  6  9  1  0  0  0
  7  8  1  0  0  0
  9 10  2  0  0  0
  9 17  1  0  0  0
 10 11  1  0  0  0
 11 12  1  0  0  0
 11 15  1  0  0  0
 12 13  2  0  0  0
 12 16  1  0  0  0
 13 14  1  0  0  0
 14 15  2  0  0  0
 16 17  2  0  0  0
M  END
> <minimizedAffinity>
-8.71025

$$$$
1788


 30 33  0  0  0  0  0  0  0  0999 V2000
   21.1757   35.2913   69.6046 N   0  0  0  0  0  0  0  0  0  0  0  0
   20.0387   35.8828   69.5019 N   0  0  0  0  0  0  0  0  0  0  0  0
   19.1123   35.3619   70.3912 C   0  0  0  0  0  0  0  0  0  0  0  0
   19.7399   34.4081   71.0530 N   0  0  0  0  0  0  0  0  0  0  0  0
   21.0246   34.3718   70.5605 C   0  0  0  0  0  0  0  0  0  0  0  0
   21.8935   33.5753   70.9754 O   0  0  0  0  0  0  0  0  0  0  0  0
   26.0653   36.4786   66.3178 Cl  0  0  0  0  0  0  0  0  0  0  0  0
   24.6359   36.1276   67.2707 C   0  0  0  0  0  0  0  0  0  0  0  0
   23.7372   35.1338   66.9314 C   0  0  0  0  0  0  0  0  0  0  0  0
   22.6122   34.8630   67.6913 C   0  0  0  0  0  0  0  0  0  0  0  0
   22.3377   35.5852   68.8358 C   0  0  0  0  0  0  0  0  0  0  0  0
   23.2271   36.5796   69.1850 C   0  0  0  0  0  0  0  0  0  0  0  0
   24.3587   36.8510   68.4203 C   0  0  0  0  0  0  0  0  0  0  0  0
   17.7464   35.8810   70.4154 C   0  0  0  0  0  0  0  0  0  0  0  0
   17.5507   37.2326   70.1038 C   0  0  0  0  0  0  0  0  0  0  0  0
   16.3356   37.8585   70.1478 C   0  0  0  0  0  0  0  0  0  0  0  0
   15.1950   37.1582   70.5175 C   0  0  0  0  0  0  0  0  0  0  0  0
   15.3740   35.8389   70.8258 C   0  0  0  0  0  0  0  0  0  0  0  0
   16.6188   35.2045   70.7796 C   0  0  0  0  0  0  0  0  0  0  0  0
   19.2302   33.4832   72.0157 C   0  0  0  0  0  0  0  0  0  0  0  0
   18.4403   32.3660   71.4638 C   0  0  0  0  0  0  0  0  0  0  0  0
   18.9828   31.8278   70.4109 O   0  0  0  0  0  0  0  0  0  0  0  0
   17.2483   31.8073   71.8676 N   0  0  0  0  0  0  0  0  0  0  0  0
   16.4441   32.2569   72.9722 C   0  0  0  0  0  0  0  0  0  0  0  0
   15.1452   31.4439   73.1163 C   0  0  0  0  0  0  0  0  0  0  0  0
   15.4798   30.0179   73.1792 N   0  0  0  0  0  0  0  0  0  0  0  0
   16.4254   29.6100   72.1666 C   0  0  0  0  0  0  0  0  0  0  0  0
   16.9301   28.4645   72.1983 O   0  0  0  0  0  0  0  0  0  0  0  0
   16.7208   30.6392   71.1411 C   0  0  0  0  0  0  0  0  0  0  0  0
   15.0865   29.3722   73.8689 H   0  0  0  0  0  0  0  0  0  0  0  0
  7  8  1  0  0  0
  8  9  2  0  0  0
  8 13  1  0  0  0
  9 10  1  0  0  0
 10 11  2  0  0  0
 11 12  1  0  0  0
 11  1  1  0  0  0
 12 13  2  0  0  0
  1  2  1  0  0  0
  1  5  1  0  0  0
  2  3  2  0  0  0
  3  4  1  0  0  0
  3 14  1  0  0  0
  4  5  1  0  0  0
  4 20  1  0  0  0
  5  6  2  0  0  0
 20 21  1  0  0  0
 21 22  2  0  0  0
 21 23  1  0  0  0
 23 24  1  0  0  0
 23 29  1  0  0  0
 24 25  1  0  0  0
 25 26  1  0  0  0
 26 27  1  0  0  0
 27 28  2  0  0  0
 27 29  1  0  0  0
 14 15  2  0  0  0
 14 19  1  0  0  0
 15 16  1  0  0  0
 16 17  2  0  0  0
 17 18  1  0  0  0
 18 19  2  0  0  0
 26 30  1  0  0  0
M  END
> <minimizedAffinity>
-9.24667

$$$$
1789


 29 32  0  0  0  0  0  0  0  0999 V2000
   18.9716   35.4786   70.6720 N   0  0  0  0  0  0  0  0  0  0  0  0
   19.4211   34.8037   71.7032 N   0  0  0  0  0  0  0  0  0  0  0  0
   20.7296   34.6548   71.5206 N   0  0  0  0  0  0  0  0  0  0  0  0
   21.1223   35.2354   70.3706 C   0  0  0  0  0  0  0  0  0  0  0  0
   20.0025   35.7490   69.8511 C   0  0  0  0  0  0  0  0  0  0  0  0
   20.4032   36.3474   68.6649 C   0  0  0  0  0  0  0  0  0  0  0  0
   19.6251   36.9431   67.8863 O   0  0  0  0  0  0  0  0  0  0  0  0
   21.7215   36.2118   68.4567 N   0  0  0  0  0  0  0  0  0  0  0  0
   22.1709   35.5187   69.5193 C   0  0  0  0  0  0  0  0  0  0  0  0
   23.3760   35.1769   69.7104 O   0  0  0  0  0  0  0  0  0  0  0  0
   18.8562   34.4421   72.5278 H   0  0  0  0  0  0  0  0  0  0  0  0
   21.3455   34.1480   72.2005 H   0  0  0  0  0  0  0  0  0  0  0  0
   13.2711   36.9913   69.8114 Cl  0  0  0  0  0  0  0  0  0  0  0  0
   14.9647   36.5628   70.0635 C   0  0  0  0  0  0  0  0  0  0  0  0
   15.9745   37.4806   70.0036 C   0  0  0  0  0  0  0  0  0  0  0  0
   17.3081   37.1842   70.1948 C   0  0  0  0  0  0  0  0  0  0  0  0
   17.6278   35.8573   70.4650 C   0  0  0  0  0  0  0  0  0  0  0  0
   16.5974   34.9102   70.5275 C   0  0  0  0  0  0  0  0  0  0  0  0
   15.2903   35.2557   70.3303 C   0  0  0  0  0  0  0  0  0  0  0  0
   22.5138   36.6801   67.3693 C   0  0  0  0  0  0  0  0  0  0  0  0
   23.0446   35.8400   66.4101 C   0  0  0  0  0  0  0  0  0  0  0  0
   23.8100   36.3015   65.3595 C   0  0  0  0  0  0  0  0  0  0  0  0
   24.0856   37.6459   65.2200 C   0  0  0  0  0  0  0  0  0  0  0  0
   23.5625   38.4971   66.1705 C   0  0  0  0  0  0  0  0  0  0  0  0
   22.7951   38.0247   67.2199 C   0  0  0  0  0  0  0  0  0  0  0  0
   24.8599   38.1022   64.1563 O   0  0  0  0  0  0  0  0  0  0  0  0
   26.1845   38.5185   64.2855 C   0  0  0  0  0  0  0  0  0  0  0  0
   24.3448   35.4547   64.3936 O   0  0  0  0  0  0  0  0  0  0  0  0
   25.4671   34.6748   64.7623 C   0  0  0  0  0  0  0  0  0  0  0  0
 13 14  1  0  0  0
 14 15  2  0  0  0
 14 19  1  0  0  0
 15 16  1  0  0  0
 16 17  2  0  0  0
 17 18  1  0  0  0
 17  1  1  0  0  0
 18 19  2  0  0  0
  1  2  1  0  0  0
  1  5  1  0  0  0
  2  3  1  0  0  0
  3  4  1  0  0  0
  4  5  2  0  0  0
  4  9  1  0  0  0
  5  6  1  0  0  0
  6  7  2  0  0  0
  6  8  1  0  0  0
  8  9  1  0  0  0
  8 20  1  0  0  0
  9 10  2  0  0  0
 20 21  2  0  0  0
 20 25  1  0  0  0
 21 22  1  0  0  0
 22 23  2  0  0  0
 22 28  1  0  0  0
 23 24  1  0  0  0
 23 26  1  0  0  0
 24 25  2  0  0  0
 26 27  1  0  0  0
 28 29  1  0  0  0
  2 11  1  0  0  0
  3 12  1  0  0  0
M  END
> <minimizedAffinity>
-8.32256

$$$$
1790


 29 32  0  0  0  0  0  0  0  0999 V2000
   20.2518   36.6839   70.6175 N   0  0  0  0  0  0  0  0  0  0  0  0
   20.6094   37.6381   71.4537 N   0  0  0  0  0  0  0  0  0  0  0  0
   21.8690   37.9317   71.1566 N   0  0  0  0  0  0  0  0  0  0  0  0
   22.3236   37.1777   70.1411 C   0  0  0  0  0  0  0  0  0  0  0  0
   21.2881   36.3892   69.8073 C   0  0  0  0  0  0  0  0  0  0  0  0
   21.7582   35.6152   68.7633 C   0  0  0  0  0  0  0  0  0  0  0  0
   21.0403   34.7439   68.1885 O   0  0  0  0  0  0  0  0  0  0  0  0
   23.0331   35.9071   68.4569 N   0  0  0  0  0  0  0  0  0  0  0  0
   23.3863   36.8800   69.3137 C   0  0  0  0  0  0  0  0  0  0  0  0
   24.5301   37.4246   69.3387 O   0  0  0  0  0  0  0  0  0  0  0  0
   20.0032   38.0630   72.1956 H   0  0  0  0  0  0  0  0  0  0  0  0
   22.4380   38.6549   71.6473 H   0  0  0  0  0  0  0  0  0  0  0  0
   14.8602   34.0721   70.3959 Cl  0  0  0  0  0  0  0  0  0  0  0  0
   16.4406   34.8637   70.4522 C   0  0  0  0  0  0  0  0  0  0  0  0
   17.5401   34.1748   70.9215 C   0  0  0  0  0  0  0  0  0  0  0  0
   18.7827   34.7486   70.9817 C   0  0  0  0  0  0  0  0  0  0  0  0
   18.9814   36.0574   70.5692 C   0  0  0  0  0  0  0  0  0  0  0  0
   17.8668   36.7334   70.1011 C   0  0  0  0  0  0  0  0  0  0  0  0
   16.6144   36.1587   70.0389 C   0  0  0  0  0  0  0  0  0  0  0  0
   23.7993   35.2845   67.4281 C   0  0  0  0  0  0  0  0  0  0  0  0
   23.8708   35.7988   66.1493 C   0  0  0  0  0  0  0  0  0  0  0  0
   24.6057   35.2148   65.1378 C   0  0  0  0  0  0  0  0  0  0  0  0
   25.3025   34.0586   65.4194 C   0  0  0  0  0  0  0  0  0  0  0  0
   25.2669   33.4996   66.6803 C   0  0  0  0  0  0  0  0  0  0  0  0
   24.5113   34.1249   67.6675 C   0  0  0  0  0  0  0  0  0  0  0  0
   25.9815   32.3344   66.9259 O   0  0  0  0  0  0  0  0  0  0  0  0
   26.7309   32.1558   68.0963 C   0  0  0  0  0  0  0  0  0  0  0  0
   24.6457   35.7802   63.8486 O   0  0  0  0  0  0  0  0  0  0  0  0
   25.6879   36.6713   63.5256 C   0  0  0  0  0  0  0  0  0  0  0  0
 13 14  1  0  0  0
 14 15  2  0  0  0
 14 19  1  0  0  0
 15 16  1  0  0  0
 16 17  2  0  0  0
 17 18  1  0  0  0
 17  1  1  0  0  0
 18 19  2  0  0  0
  1  2  1  0  0  0
  1  5  1  0  0  0
  2  3  1  0  0  0
  3  4  1  0  0  0
  4  5  2  0  0  0
  4  9  1  0  0  0
  5  6  1  0  0  0
  6  7  2  0  0  0
  6  8  1  0  0  0
  8  9  1  0  0  0
  8 20  1  0  0  0
  9 10  2  0  0  0
 20 21  2  0  0  0
 20 25  1  0  0  0
 21 22  1  0  0  0
 22 23  2  0  0  0
 22 28  1  0  0  0
 23 24  1  0  0  0
 24 25  2  0  0  0
 24 26  1  0  0  0
 26 27  1  0  0  0
 28 29  1  0  0  0
  2 11  1  0  0  0
  3 12  1  0  0  0
M  END
> <minimizedAffinity>
-8.20804

$$$$
1801


 26 29  0  0  0  0  0  0  0  0999 V2000
   15.6464   29.3889   72.2069 Cl  0  0  0  0  0  0  0  0  0  0  0  0
   15.2334   31.0031   71.6295 C   0  0  0  0  0  0  0  0  0  0  0  0
   16.2149   31.9686   71.4914 C   0  0  0  0  0  0  0  0  0  0  0  0
   15.9079   33.2240   71.0442 C   0  0  0  0  0  0  0  0  0  0  0  0
   14.5903   33.4740   70.7435 C   0  0  0  0  0  0  0  0  0  0  0  0
   13.5993   32.5362   70.8706 C   0  0  0  0  0  0  0  0  0  0  0  0
   13.9241   31.2687   71.3245 C   0  0  0  0  0  0  0  0  0  0  0  0
   14.2217   34.8186   70.2580 C   0  0  0  0  0  0  0  0  0  0  0  0
   13.1036   35.3469   69.9030 N   0  0  0  0  0  0  0  0  0  0  0  0
   13.2542   36.7148   69.4983 C   0  0  0  0  0  0  0  0  0  0  0  0
   14.7118   37.0010   69.6542 C   0  0  0  0  0  0  0  0  0  0  0  0
   15.2729   35.7622   70.1388 N   0  0  0  0  0  0  0  0  0  0  0  0
   16.6336   35.4471   70.4674 C   0  0  0  0  0  0  0  0  0  0  0  0
   17.7666   36.1639   70.4337 N   0  0  0  0  0  0  0  0  0  0  0  0
   18.7842   35.4244   70.8381 N   0  0  0  0  0  0  0  0  0  0  0  0
   18.2627   34.2203   71.1292 C   0  0  0  0  0  0  0  0  0  0  0  0
   18.9367   33.2483   71.5484 O   0  0  0  0  0  0  0  0  0  0  0  0
   16.9211   34.2087   70.9063 N   0  0  0  0  0  0  0  0  0  0  0  0
   20.1875   35.8076   70.9548 C   0  0  0  0  0  0  0  0  0  0  0  0
   20.5469   36.6675   69.8027 C   0  0  0  0  0  0  0  0  0  0  0  0
   21.2430   37.7010   70.0100 O   0  0  0  0  0  0  0  0  0  0  0  0
   20.1420   36.3790   68.4730 N   0  0  0  0  0  0  0  0  0  0  0  0
   19.5696   35.5239   68.3208 H   0  0  0  0  0  0  0  0  0  0  0  0
   20.5168   37.2488   67.3809 C   0  0  0  0  0  0  0  0  0  0  0  0
   21.1145   36.4368   66.2286 C   0  0  0  0  0  0  0  0  0  0  0  0
   19.2267   37.8488   66.8388 C   0  0  0  0  0  0  0  0  0  0  0  0
  1  2  1  0  0  0
  2  3  2  0  0  0
  2  7  1  0  0  0
  3  4  1  0  0  0
  4  5  2  0  0  0
  4 18  1  0  0  0
  5  6  1  0  0  0
  5  8  1  0  0  0
  6  7  2  0  0  0
  8  9  2  0  0  0
  8 12  1  0  0  0
  9 10  1  0  0  0
 10 11  1  0  0  0
 11 12  1  0  0  0
 12 13  1  0  0  0
 13 14  2  0  0  0
 13 18  1  0  0  0
 14 15  1  0  0  0
 15 16  1  0  0  0
 15 19  1  0  0  0
 16 17  2  0  0  0
 16 18  1  0  0  0
 19 20  1  0  0  0
 20 21  2  0  0  0
 20 22  1  0  0  0
 22 24  1  0  0  0
 24 25  1  0  0  0
 24 26  1  0  0  0
 22 23  1  0  0  0
M  END
> <minimizedAffinity>
-8.53181

$$$$
1802


 27 30  0  0  0  0  0  0  0  0999 V2000
   13.3650   36.8696   69.5729 Cl  0  0  0  0  0  0  0  0  0  0  0  0
   14.5071   35.7598   70.3355 C   0  0  0  0  0  0  0  0  0  0  0  0
   15.8698   36.0583   70.2580 C   0  0  0  0  0  0  0  0  0  0  0  0
   16.8164   35.2389   70.8388 C   0  0  0  0  0  0  0  0  0  0  0  0
   16.3464   34.1173   71.4930 C   0  0  0  0  0  0  0  0  0  0  0  0
   15.0345   33.7908   71.5913 C   0  0  0  0  0  0  0  0  0  0  0  0
   14.0799   34.6311   70.9980 C   0  0  0  0  0  0  0  0  0  0  0  0
   17.3787   33.2497   72.1153 C   0  0  0  0  0  0  0  0  0  0  0  0
   17.2782   32.1442   72.7890 N   0  0  0  0  0  0  0  0  0  0  0  0
   18.5841   31.6736   73.1897 C   0  0  0  0  0  0  0  0  0  0  0  0
   19.5869   32.6753   72.6730 C   0  0  0  0  0  0  0  0  0  0  0  0
   18.7253   33.6276   71.9916 N   0  0  0  0  0  0  0  0  0  0  0  0
   19.1302   34.8055   71.2966 C   0  0  0  0  0  0  0  0  0  0  0  0
   20.3457   35.3466   71.0717 N   0  0  0  0  0  0  0  0  0  0  0  0
   20.1989   36.4705   70.3735 N   0  0  0  0  0  0  0  0  0  0  0  0
   18.8876   36.5983   70.1837 C   0  0  0  0  0  0  0  0  0  0  0  0
   18.3361   37.5476   69.5602 O   0  0  0  0  0  0  0  0  0  0  0  0
   18.1921   35.5719   70.7476 N   0  0  0  0  0  0  0  0  0  0  0  0
   21.2690   37.3701   69.9335 C   0  0  0  0  0  0  0  0  0  0  0  0
   21.4459   36.9803   68.4331 C   0  0  0  0  0  0  0  0  0  0  0  0
   21.3837   38.0553   67.7388 O   0  0  0  0  0  0  0  0  0  0  0  0
   21.6176   35.7014   68.0722 N   0  0  0  0  0  0  0  0  0  0  0  0
   21.7947   36.0867   66.7825 H   0  0  0  0  0  0  0  0  0  0  0  0
   21.7939   34.3866   67.7009 C   0  0  0  0  0  0  0  0  0  0  0  0
   23.1855   33.8552   68.0643 C   0  0  0  0  0  0  0  0  0  0  0  0
   23.6850   33.0372   67.0792 O   0  0  0  0  0  0  0  0  0  0  0  0
   24.4671   33.6520   66.1449 C   0  0  0  0  0  0  0  0  0  0  0  0
  1  2  1  0  0  0
  2  3  2  0  0  0
  2  7  1  0  0  0
  3  4  1  0  0  0
  4  5  2  0  0  0
  4 18  1  0  0  0
  5  6  1  0  0  0
  5  8  1  0  0  0
  6  7  2  0  0  0
  8  9  2  0  0  0
  8 12  1  0  0  0
  9 10  1  0  0  0
 10 11  1  0  0  0
 11 12  1  0  0  0
 12 13  1  0  0  0
 13 14  2  0  0  0
 13 18  1  0  0  0
 14 15  1  0  0  0
 15 16  1  0  0  0
 15 19  1  0  0  0
 16 17  2  0  0  0
 16 18  1  0  0  0
 19 20  1  0  0  0
 20 21  2  0  0  0
 20 22  1  0  0  0
 22 24  1  0  0  0
 24 25  1  0  0  0
 25 26  1  0  0  0
 26 27  1  0  0  0
 22 23  1  0  0  0
M  END
> <minimizedAffinity>
-8.06680

$$$$
1804


 26 30  0  0  0  0  0  0  0  0999 V2000
   13.0058   36.8411   69.4331 Cl  0  0  0  0  0  0  0  0  0  0  0  0
   13.7370   35.3652   70.0250 C   0  0  0  0  0  0  0  0  0  0  0  0
   15.0957   35.2399   70.2623 C   0  0  0  0  0  0  0  0  0  0  0  0
   15.6579   34.0745   70.7281 C   0  0  0  0  0  0  0  0  0  0  0  0
   14.8018   33.0235   70.9517 C   0  0  0  0  0  0  0  0  0  0  0  0
   13.4460   33.0917   70.7338 C   0  0  0  0  0  0  0  0  0  0  0  0
   12.9062   34.2899   70.2602 C   0  0  0  0  0  0  0  0  0  0  0  0
   15.3696   31.7563   71.4509 C   0  0  0  0  0  0  0  0  0  0  0  0
   14.8204   30.6339   71.7423 N   0  0  0  0  0  0  0  0  0  0  0  0
   15.7792   29.6647   72.2008 C   0  0  0  0  0  0  0  0  0  0  0  0
   17.0885   30.3854   72.1516 C   0  0  0  0  0  0  0  0  0  0  0  0
   16.7641   31.7022   71.6697 N   0  0  0  0  0  0  0  0  0  0  0  0
   17.6149   32.8395   71.4174 C   0  0  0  0  0  0  0  0  0  0  0  0
   18.9431   33.0218   71.5479 N   0  0  0  0  0  0  0  0  0  0  0  0
   19.2536   34.2550   71.1858 N   0  0  0  0  0  0  0  0  0  0  0  0
   18.0924   34.8285   70.8295 C   0  0  0  0  0  0  0  0  0  0  0  0
   18.0159   36.0232   70.4238 O   0  0  0  0  0  0  0  0  0  0  0  0
   17.0561   33.9729   70.9622 N   0  0  0  0  0  0  0  0  0  0  0  0
   20.5853   34.8784   71.1711 C   0  0  0  0  0  0  0  0  0  0  0  0
   21.2620   34.4913   69.9053 C   0  0  0  0  0  0  0  0  0  0  0  0
   21.8067   33.3590   69.8811 O   0  0  0  0  0  0  0  0  0  0  0  0
   21.2976   35.3525   68.7759 N   0  0  0  0  0  0  0  0  0  0  0  0
   21.9423   35.0313   67.5169 C   0  0  0  0  0  0  0  0  0  0  0  0
   21.9041   36.2872   66.6882 C   0  0  0  0  0  0  0  0  0  0  0  0
   21.7245   37.3564   67.7461 C   0  0  0  0  0  0  0  0  0  0  0  0
   20.7140   36.6691   68.6707 C   0  0  0  0  0  0  0  0  0  0  0  0
  1  2  1  0  0  0
  2  3  2  0  0  0
  2  7  1  0  0  0
  3  4  1  0  0  0
  4  5  2  0  0  0
  4 18  1  0  0  0
  5  6  1  0  0  0
  5  8  1  0  0  0
  6  7  2  0  0  0
  8  9  2  0  0  0
  8 12  1  0  0  0
  9 10  1  0  0  0
 10 11  1  0  0  0
 11 12  1  0  0  0
 12 13  1  0  0  0
 13 14  2  0  0  0
 13 18  1  0  0  0
 14 15  1  0  0  0
 15 16  1  0  0  0
 15 19  1  0  0  0
 16 17  2  0  0  0
 16 18  1  0  0  0
 19 20  1  0  0  0
 20 21  2  0  0  0
 20 22  1  0  0  0
 22 23  1  0  0  0
 22 26  1  0  0  0
 23 24  1  0  0  0
 24 25  1  0  0  0
 25 26  1  0  0  0
M  END
> <minimizedAffinity>
-8.99731

$$$$
1806


 32 35  0  0  0  0  0  0  0  0999 V2000
   21.3025   34.4385   70.3482 N   0  0  0  0  0  0  0  0  0  0  0  0
   22.2201   34.7896   69.2841 C   0  0  0  0  0  0  0  0  0  0  0  0
   21.9364   36.2518   68.9036 C   0  0  0  0  0  0  0  0  0  0  0  0
   20.7808   36.7602   69.5593 N   0  0  0  0  0  0  0  0  0  0  0  0
   20.8796   36.7939   71.0175 C   0  0  0  0  0  0  0  0  0  0  0  0
   21.1594   35.3737   71.4471 C   0  0  0  0  0  0  0  0  0  0  0  0
   12.5462   33.5268   71.7380 Cl  0  0  0  0  0  0  0  0  0  0  0  0
   14.2814   33.6614   71.4590 C   0  0  0  0  0  0  0  0  0  0  0  0
   15.0758   32.5774   71.2444 C   0  0  0  0  0  0  0  0  0  0  0  0
   16.4314   32.7311   71.0301 C   0  0  0  0  0  0  0  0  0  0  0  0
   17.0015   33.9785   71.0288 C   0  0  0  0  0  0  0  0  0  0  0  0
   16.1994   35.0689   71.2456 C   0  0  0  0  0  0  0  0  0  0  0  0
   14.8408   34.9188   71.4604 C   0  0  0  0  0  0  0  0  0  0  0  0
   18.4166   34.1776   70.8093 N   0  0  0  0  0  0  0  0  0  0  0  0
   19.2808   33.0815   70.5820 C   0  0  0  0  0  0  0  0  0  0  0  0
   20.5696   33.2214   70.3784 C   0  0  0  0  0  0  0  0  0  0  0  0
   18.7008   31.7577   70.5787 N   0  0  0  0  0  0  0  0  0  0  0  0
   17.3113   31.5946   70.7980 C   0  0  0  0  0  0  0  0  0  0  0  0
   16.7756   30.4336   70.7996 O   0  0  0  0  0  0  0  0  0  0  0  0
   18.7913   35.1422   70.8189 H   0  0  0  0  0  0  0  0  0  0  0  0
   19.3060   30.9288   70.4155 H   0  0  0  0  0  0  0  0  0  0  0  0
   19.5602   37.2135   68.9998 C   0  0  0  0  0  0  0  0  0  0  0  0
   18.4464   37.2632   69.8207 N   0  0  0  0  0  0  0  0  0  0  0  0
   17.2409   37.6561   69.4144 C   0  0  0  0  0  0  0  0  0  0  0  0
   17.0910   38.0342   68.1092 C   0  0  0  0  0  0  0  0  0  0  0  0
   18.1684   37.9989   67.2696 C   0  0  0  0  0  0  0  0  0  0  0  0
   19.4471   37.5851   67.6936 C   0  0  0  0  0  0  0  0  0  0  0  0
   20.5609   37.5901   66.7947 C   0  0  0  0  0  0  0  0  0  0  0  0
   21.3509   38.5179   66.6352 O   0  0  0  0  0  0  0  0  0  0  0  0
   20.7974   36.4322   66.0035 N   0  0  0  0  0  0  0  0  0  0  0  0
   21.1095   35.5382   66.4452 H   0  0  0  0  0  0  0  0  0  0  0  0
   20.6774   36.4066   64.9669 H   0  0  0  0  0  0  0  0  0  0  0  0
  7  8  1  0  0  0
  8  9  2  0  0  0
  8 13  1  0  0  0
  9 10  1  0  0  0
 10 11  2  0  0  0
 10 18  1  0  0  0
 11 12  1  0  0  0
 11 14  1  0  0  0
 12 13  2  0  0  0
 14 15  1  0  0  0
 15 16  2  0  0  0
 15 17  1  0  0  0
 16  1  1  0  0  0
  1  2  1  0  0  0
  1  6  1  0  0  0
  2  3  1  0  0  0
  3  4  1  0  0  0
  4  5  1  0  0  0
  4 22  1  0  0  0
  5  6  1  0  0  0
 22 23  2  0  0  0
 22 27  1  0  0  0
 23 24  1  0  0  0
 24 25  2  0  0  0
 25 26  1  0  0  0
 26 27  2  0  0  0
 27 28  1  0  0  0
 28 29  2  0  0  0
 28 30  1  0  0  0
 17 18  1  0  0  0
 18 19  2  0  0  0
 14 20  1  0  0  0
 30 31  1  0  0  0
 30 32  1  0  0  0
 17 21  1  0  0  0
M  END
> <minimizedAffinity>
-9.56716

$$$$
1808


 24 28  0  0  0  0  0  0  0  0999 V2000
   19.7220   36.5318   70.0270 N   0  0  0  0  0  0  0  0  0  0  0  0
   20.0853   37.2161   68.8382 C   0  0  0  0  0  0  0  0  0  0  0  0
   19.2677   37.7820   68.0733 O   0  0  0  0  0  0  0  0  0  0  0  0
   21.5613   37.1451   68.6678 C   0  0  0  0  0  0  0  0  0  0  0  0
   21.9758   36.0025   67.7929 C   0  0  0  0  0  0  0  0  0  0  0  0
   23.2293   35.6866   68.3624 O   0  0  0  0  0  0  0  0  0  0  0  0
   22.7545   35.3895   69.6647 C   0  0  0  0  0  0  0  0  0  0  0  0
   22.0844   36.6707   70.0244 C   0  0  0  0  0  0  0  0  0  0  0  0
   20.8783   36.4077   70.8545 C   0  0  0  0  0  0  0  0  0  0  0  0
   20.8982   36.1305   72.0567 O   0  0  0  0  0  0  0  0  0  0  0  0
   21.7089   34.3916   69.3189 C   0  0  0  0  0  0  0  0  0  0  0  0
   21.1847   34.8224   68.1754 C   0  0  0  0  0  0  0  0  0  0  0  0
   14.0714   34.5364   71.1271 Br  0  0  0  0  0  0  0  0  0  0  0  0
   15.8268   35.1665   70.7814 C   0  0  0  0  0  0  0  0  0  0  0  0
   16.0168   36.4797   70.4254 C   0  0  0  0  0  0  0  0  0  0  0  0
   17.3022   36.9103   70.1814 C   0  0  0  0  0  0  0  0  0  0  0  0
   18.3892   36.0703   70.2814 C   0  0  0  0  0  0  0  0  0  0  0  0
   18.1988   34.7433   70.6418 C   0  0  0  0  0  0  0  0  0  0  0  0
   16.8944   34.3108   70.8893 C   0  0  0  0  0  0  0  0  0  0  0  0
   22.0575   36.2989   66.3573 C   0  0  0  0  0  0  0  0  0  0  0  0
   23.1313   35.7283   65.7306 O   0  0  0  0  0  0  0  0  0  0  0  0
   24.0126   36.7186   65.3751 C   0  0  0  0  0  0  0  0  0  0  0  0
   23.4043   38.0065   65.8238 C   0  0  0  0  0  0  0  0  0  0  0  0
   22.0893   37.6599   66.1127 O   0  0  0  0  0  0  0  0  0  0  0  0
 13 14  1  0  0  0
 14 15  2  0  0  0
 14 19  1  0  0  0
 15 16  1  0  0  0
 16 17  2  0  0  0
 17 18  1  0  0  0
 17  1  1  0  0  0
 18 19  2  0  0  0
  1  2  1  0  0  0
  1  9  1  0  0  0
  2  3  2  0  0  0
  2  4  1  0  0  0
  4  5  1  0  0  0
  4  8  1  0  0  0
  5  6  1  0  0  0
  5 12  1  0  0  0
  5 20  1  0  0  0
  6  7  1  0  0  0
  7  8  1  0  0  0
  7 11  1  0  0  0
  8  9  1  0  0  0
  9 10  2  0  0  0
 11 12  2  0  0  0
 20 21  1  0  0  0
 20 24  1  0  0  0
 21 22  1  0  0  0
 22 23  1  0  0  0
 23 24  1  0  0  0
M  END
> <minimizedAffinity>
-8.44416

$$$$
1810


 32 35  0  0  0  0  0  0  0  0999 V2000
   22.5459   35.8960   67.9241 N   0  0  0  0  0  0  0  0  0  0  0  0
   22.8600   36.5907   69.1472 C   0  0  0  0  0  0  0  0  0  0  0  0
   22.0801   35.9353   70.2628 C   0  0  0  0  0  0  0  0  0  0  0  0
   21.5246   34.6927   69.7920 N   0  0  0  0  0  0  0  0  0  0  0  0
   22.2921   33.7811   68.9513 C   0  0  0  0  0  0  0  0  0  0  0  0
   23.1660   34.5881   67.9885 C   0  0  0  0  0  0  0  0  0  0  0  0
   20.2067   34.3415   70.1353 C   0  0  0  0  0  0  0  0  0  0  0  0
   19.7430   33.2152   69.7422 O   0  0  0  0  0  0  0  0  0  0  0  0
   19.3619   35.2657   70.9397 C   0  0  0  0  0  0  0  0  0  0  0  0
   17.8982   35.1309   70.6326 C   0  0  0  0  0  0  0  0  0  0  0  0
   17.3329   34.3787   71.7484 N   0  0  0  0  0  0  0  0  0  0  0  0
   18.3641   34.0029   72.6422 C   0  0  0  0  0  0  0  0  0  0  0  0
   18.2944   33.0422   73.4460 O   0  0  0  0  0  0  0  0  0  0  0  0
   19.4655   34.9614   72.4087 C   0  0  0  0  0  0  0  0  0  0  0  0
   15.9301   34.0670   71.9007 C   0  0  0  0  0  0  0  0  0  0  0  0
   15.0788   34.9206   71.0384 C   0  0  0  0  0  0  0  0  0  0  0  0
   14.0030   34.3505   70.3740 C   0  0  0  0  0  0  0  0  0  0  0  0
   13.1648   35.0836   69.5510 C   0  0  0  0  0  0  0  0  0  0  0  0
   13.4396   36.4284   69.4082 C   0  0  0  0  0  0  0  0  0  0  0  0
   14.5046   37.0293   70.0567 C   0  0  0  0  0  0  0  0  0  0  0  0
   15.3320   36.2663   70.8796 C   0  0  0  0  0  0  0  0  0  0  0  0
   13.7090   32.6472   70.5948 Cl  0  0  0  0  0  0  0  0  0  0  0  0
   23.0591   36.7886   66.5474 S   0  0  0  0  0  0  0  0  0  0  0  0
   23.1036   35.9302   65.3154 O   0  0  0  0  0  0  0  0  0  0  0  0
   24.4898   37.2083   66.8100 O   0  0  0  0  0  0  0  0  0  0  0  0
   22.0925   38.2124   66.3090 C   0  0  0  0  0  0  0  0  0  0  0  0
   22.4390   39.4768   65.8887 C   0  0  0  0  0  0  0  0  0  0  0  0
   21.3004   40.2355   65.8796 N   0  0  0  0  0  0  0  0  0  0  0  0
   20.3342   39.4904   66.2645 O   0  0  0  0  0  0  0  0  0  0  0  0
   20.7310   38.2706   66.5382 C   0  0  0  0  0  0  0  0  0  0  0  0
   19.8218   37.2006   67.0039 C   0  0  0  0  0  0  0  0  0  0  0  0
   23.7997   39.9062   65.5134 C   0  0  0  0  0  0  0  0  0  0  0  0
 23 24  2  0  0  0
 23 25  2  0  0  0
 23  1  1  0  0  0
 23 26  1  0  0  0
  1  2  1  0  0  0
  1  6  1  0  0  0
  2  3  1  0  0  0
  3  4  1  0  0  0
  4  5  1  0  0  0
  4  7  1  0  0  0
  5  6  1  0  0  0
  7  8  2  0  0  0
  7  9  1  0  0  0
  9 10  1  0  0  0
  9 14  1  0  0  0
 10 11  1  0  0  0
 11 12  1  0  0  0
 11 15  1  0  0  0
 12 13  2  0  0  0
 12 14  1  0  0  0
 15 16  1  0  0  0
 16 17  2  0  0  0
 16 21  1  0  0  0
 17 18  1  0  0  0
 17 22  1  0  0  0
 18 19  2  0  0  0
 19 20  1  0  0  0
 20 21  2  0  0  0
 26 27  1  0  0  0
 26 30  2  0  0  0
 27 28  2  0  0  0
 27 32  1  0  0  0
 28 29  1  0  0  0
 29 30  1  0  0  0
 30 31  1  0  0  0
M  END
> <minimizedAffinity>
-9.83547

$$$$
1816


 36 39  0  0  0  0  0  0  0  0999 V2000
   21.2571   36.3719   68.2975 C   0  0  0  0  0  0  0  0  0  0  0  0
   20.4611   35.7710   67.4964 O   0  0  0  0  0  0  0  0  0  0  0  0
   22.6156   36.1883   68.1107 N   0  0  0  0  0  0  0  0  0  0  0  0
   23.1630   35.3665   67.0767 C   0  0  0  0  0  0  0  0  0  0  0  0
   23.9949   34.2677   67.7412 C   0  0  0  0  0  0  0  0  0  0  0  0
   24.9729   34.8608   68.5891 N   0  0  0  0  0  0  0  0  0  0  0  0
   24.9638   36.3367   68.6768 C   0  0  0  0  0  0  0  0  0  0  0  0
   23.5697   36.8395   68.9787 C   0  0  0  0  0  0  0  0  0  0  0  0
   25.9349   34.1629   69.3494 C   0  0  0  0  0  0  0  0  0  0  0  0
   26.7359   34.9612   70.0475 O   0  0  0  0  0  0  0  0  0  0  0  0
   26.2017   32.7646   69.5034 C   0  0  0  0  0  0  0  0  0  0  0  0
   26.3136   32.2178   70.8070 C   0  0  0  0  0  0  0  0  0  0  0  0
   26.5732   30.8868   70.9968 C   0  0  0  0  0  0  0  0  0  0  0  0
   26.6678   30.4266   72.1650 O   0  0  0  0  0  0  0  0  0  0  0  0
   26.7368   30.0298   69.9804 N   0  0  0  0  0  0  0  0  0  0  0  0
   26.6320   30.5437   68.7543 C   0  0  0  0  0  0  0  0  0  0  0  0
   26.7798   29.7696   67.7526 O   0  0  0  0  0  0  0  0  0  0  0  0
   26.3710   31.8787   68.5282 N   0  0  0  0  0  0  0  0  0  0  0  0
   27.0126   28.6290   70.2013 C   0  0  0  0  0  0  0  0  0  0  0  0
   26.3046   32.1772   67.5355 H   0  0  0  0  0  0  0  0  0  0  0  0
   20.6462   37.2163   69.3610 C   0  0  0  0  0  0  0  0  0  0  0  0
   12.9672   36.5515   69.6726 Cl  0  0  0  0  0  0  0  0  0  0  0  0
   14.5893   36.1097   70.1542 C   0  0  0  0  0  0  0  0  0  0  0  0
   15.7145   36.7299   69.6196 C   0  0  0  0  0  0  0  0  0  0  0  0
   16.9878   36.3794   69.9984 C   0  0  0  0  0  0  0  0  0  0  0  0
   17.1455   35.3853   70.9359 C   0  0  0  0  0  0  0  0  0  0  0  0
   16.0100   34.7638   71.4724 C   0  0  0  0  0  0  0  0  0  0  0  0
   14.7347   35.1138   71.0923 C   0  0  0  0  0  0  0  0  0  0  0  0
   18.3548   35.0412   71.3074 O   0  0  0  0  0  0  0  0  0  0  0  0
   19.4344   35.6042   70.8220 C   0  0  0  0  0  0  0  0  0  0  0  0
   20.5955   35.2417   71.2092 O   0  0  0  0  0  0  0  0  0  0  0  0
   19.3897   36.6200   69.8685 C   0  0  0  0  0  0  0  0  0  0  0  0
   18.1267   36.9940   69.4687 C   0  0  0  0  0  0  0  0  0  0  0  0
   17.9491   38.0505   68.4775 C   0  0  0  0  0  0  0  0  0  0  0  0
   13.6002   34.4835   71.6362 O   0  0  0  0  0  0  0  0  0  0  0  0
   13.2108   33.1889   71.2489 C   0  0  0  0  0  0  0  0  0  0  0  0
 22 23  1  0  0  0
 23 24  2  0  0  0
 23 28  1  0  0  0
 24 25  1  0  0  0
 25 26  2  0  0  0
 25 33  1  0  0  0
 26 27  1  0  0  0
 26 29  1  0  0  0
 27 28  2  0  0  0
 28 35  1  0  0  0
 35 36  1  0  0  0
 29 30  1  0  0  0
 30 31  2  0  0  0
 30 32  1  0  0  0
 32 33  2  0  0  0
 32 21  1  0  0  0
 33 34  1  0  0  0
 21  1  1  0  0  0
  1  2  2  0  0  0
  1  3  1  0  0  0
  3  4  1  0  0  0
  3  8  1  0  0  0
  4  5  1  0  0  0
  5  6  1  0  0  0
  6  7  1  0  0  0
  6  9  1  0  0  0
  7  8  1  0  0  0
  9 10  2  0  0  0
  9 11  1  0  0  0
 11 12  2  0  0  0
 11 18  1  0  0  0
 12 13  1  0  0  0
 13 14  2  0  0  0
 13 15  1  0  0  0
 15 16  1  0  0  0
 15 19  1  0  0  0
 16 17  2  0  0  0
 16 18  1  0  0  0
 18 20  1  0  0  0
M  END
> <minimizedAffinity>
-9.85933

$$$$
1822


 24 27  0  0  0  0  0  0  0  0999 V2000
   23.9450   36.4507   69.0830 Cl  0  0  0  0  0  0  0  0  0  0  0  0
   22.4093   35.7387   69.5666 C   0  0  0  0  0  0  0  0  0  0  0  0
   22.4047   34.4396   70.0228 C   0  0  0  0  0  0  0  0  0  0  0  0
   21.2284   33.9066   70.3892 N   0  0  0  0  0  0  0  0  0  0  0  0
   20.0591   34.5958   70.3271 C   0  0  0  0  0  0  0  0  0  0  0  0
   20.0517   35.8644   69.8844 N   0  0  0  0  0  0  0  0  0  0  0  0
   18.8030   36.3202   69.9153 N   0  0  0  0  0  0  0  0  0  0  0  0
   17.9715   35.3647   70.3774 C   0  0  0  0  0  0  0  0  0  0  0  0
   18.7803   34.3039   70.6252 N   0  0  0  0  0  0  0  0  0  0  0  0
   21.2219   36.4341   69.5052 C   0  0  0  0  0  0  0  0  0  0  0  0
   21.2174   37.6349   69.0862 O   0  0  0  0  0  0  0  0  0  0  0  0
   23.6887   33.6638   70.0974 C   0  0  0  0  0  0  0  0  0  0  0  0
   21.2183   32.9184   70.7364 H   0  0  0  0  0  0  0  0  0  0  0  0
   16.5610   35.4468   70.5628 N   0  0  0  0  0  0  0  0  0  0  0  0
   15.7144   36.4764   70.0708 C   0  0  0  0  0  0  0  0  0  0  0  0
   15.9389   37.2904   69.1380 O   0  0  0  0  0  0  0  0  0  0  0  0
   14.4314   36.4735   70.8530 C   0  0  0  0  0  0  0  0  0  0  0  0
   14.4354   35.2017   71.6233 C   0  0  0  0  0  0  0  0  0  0  0  0
   13.3334   34.2306   71.2384 C   0  0  0  0  0  0  0  0  0  0  0  0
   13.3723   34.1153   69.7451 C   0  0  0  0  0  0  0  0  0  0  0  0
   13.3404   35.2617   69.0900 C   0  0  0  0  0  0  0  0  0  0  0  0
   13.2697   36.5119   69.8835 C   0  0  0  0  0  0  0  0  0  0  0  0
   15.7077   34.5509   71.2580 C   0  0  0  0  0  0  0  0  0  0  0  0
   16.0174   33.3441   71.5243 O   0  0  0  0  0  0  0  0  0  0  0  0
  1  2  1  0  0  0
  2  3  2  0  0  0
  2 10  1  0  0  0
  3  4  1  0  0  0
  3 12  1  0  0  0
  4  5  1  0  0  0
  5  6  1  0  0  0
  5  9  2  0  0  0
  6  7  1  0  0  0
  6 10  1  0  0  0
  7  8  2  0  0  0
  8  9  1  0  0  0
  8 14  1  0  0  0
 14 15  1  0  0  0
 14 23  1  0  0  0
 15 16  2  0  0  0
 15 17  1  0  0  0
 17 18  1  0  0  0
 17 22  1  0  0  0
 18 19  1  0  0  0
 18 23  1  0  0  0
 19 20  1  0  0  0
 20 21  2  0  0  0
 21 22  1  0  0  0
 23 24  2  0  0  0
 10 11  2  0  0  0
  4 13  1  0  0  0
M  END
> <minimizedAffinity>
-8.46552

$$$$
1825


 29 32  0  0  0  0  0  0  0  0999 V2000
   16.5053   36.3832   70.3015 N   0  0  0  0  0  0  0  0  0  0  0  0
   15.1565   36.2323   70.1429 C   0  0  0  0  0  0  0  0  0  0  0  0
   14.8237   34.9560   70.3974 N   0  0  0  0  0  0  0  0  0  0  0  0
   15.9114   34.2469   70.7246 C   0  0  0  0  0  0  0  0  0  0  0  0
   16.9579   35.1784   70.6549 C   0  0  0  0  0  0  0  0  0  0  0  0
   13.3803   34.8039   70.2152 C   0  0  0  0  0  0  0  0  0  0  0  0
   12.9477   36.0300   69.4338 C   0  0  0  0  0  0  0  0  0  0  0  0
   13.9673   37.0506   69.7949 C   0  0  0  0  0  0  0  0  0  0  0  0
   16.1010   32.8493   71.0773 C   0  0  0  0  0  0  0  0  0  0  0  0
   15.0751   32.0456   71.4915 C   0  0  0  0  0  0  0  0  0  0  0  0
   15.2367   30.7100   71.8112 C   0  0  0  0  0  0  0  0  0  0  0  0
   16.4822   30.1068   71.7264 C   0  0  0  0  0  0  0  0  0  0  0  0
   17.5140   30.9126   71.3096 C   0  0  0  0  0  0  0  0  0  0  0  0
   17.3528   32.2465   70.9903 C   0  0  0  0  0  0  0  0  0  0  0  0
   16.6820   28.7727   72.0390 O   0  0  0  0  0  0  0  0  0  0  0  0
   16.0358   28.1336   73.1243 C   0  0  0  0  0  0  0  0  0  0  0  0
   17.2403   37.6384   70.0878 C   0  0  0  0  0  0  0  0  0  0  0  0
   19.5221   36.9420   69.2346 N   0  0  0  0  0  0  0  0  0  0  0  0
   18.2464   37.4176   68.9771 C   0  0  0  0  0  0  0  0  0  0  0  0
   17.8407   37.6963   67.8436 O   0  0  0  0  0  0  0  0  0  0  0  0
   19.7527   36.7340   70.2536 H   0  0  0  0  0  0  0  0  0  0  0  0
   23.0153   33.6291   67.3961 Cl  0  0  0  0  0  0  0  0  0  0  0  0
   22.1930   35.1750   67.3951 C   0  0  0  0  0  0  0  0  0  0  0  0
   21.1923   35.4646   68.2944 C   0  0  0  0  0  0  0  0  0  0  0  0
   20.5334   36.7132   68.2809 C   0  0  0  0  0  0  0  0  0  0  0  0
   20.9516   37.6000   67.3322 C   0  0  0  0  0  0  0  0  0  0  0  0
   21.9763   37.3077   66.4099 C   0  0  0  0  0  0  0  0  0  0  0  0
   22.5967   36.0854   66.4464 C   0  0  0  0  0  0  0  0  0  0  0  0
   20.8068   34.4487   69.2895 C   0  0  0  0  0  0  0  0  0  0  0  0
 22 23  1  0  0  0
 23 24  2  0  0  0
 23 28  1  0  0  0
 24 25  1  0  0  0
 24 29  1  0  0  0
 25 26  2  0  0  0
 25 18  1  0  0  0
 26 27  1  0  0  0
 27 28  2  0  0  0
 18 19  1  0  0  0
 19 20  2  0  0  0
 19 17  1  0  0  0
 17  1  1  0  0  0
  1  2  1  0  0  0
  1  5  1  0  0  0
  2  3  2  0  0  0
  2  8  1  0  0  0
  3  4  1  0  0  0
  3  6  1  0  0  0
  4  5  2  0  0  0
  4  9  1  0  0  0
  9 10  2  0  0  0
  9 14  1  0  0  0
 10 11  1  0  0  0
 11 12  2  0  0  0
 12 13  1  0  0  0
 12 15  1  0  0  0
 13 14  2  0  0  0
 15 16  1  0  0  0
  6  7  1  0  0  0
  7  8  1  0  0  0
 18 21  1  0  0  0
M  END
> <minimizedAffinity>
-9.18933

$$$$
1835


 36 39  0  0  0  0  0  0  0  0999 V2000
   20.2757   36.7105   69.4867 C   0  0  0  0  0  0  0  0  0  0  0  0
   21.2770   35.8171   69.4630 N   0  0  0  0  0  0  0  0  0  0  0  0
   22.1037   36.2123   68.4795 C   0  0  0  0  0  0  0  0  0  0  0  0
   23.2659   35.7118   67.9947 N   0  0  0  0  0  0  0  0  0  0  0  0
   23.9243   36.3017   66.9780 C   0  0  0  0  0  0  0  0  0  0  0  0
   23.4297   37.4237   66.4118 N   0  0  0  0  0  0  0  0  0  0  0  0
   22.2806   37.9812   66.8372 C   0  0  0  0  0  0  0  0  0  0  0  0
   21.6246   37.3580   67.8809 C   0  0  0  0  0  0  0  0  0  0  0  0
   20.4745   37.6499   68.5321 N   0  0  0  0  0  0  0  0  0  0  0  0
   21.7881   39.1558   66.2237 N   0  0  0  0  0  0  0  0  0  0  0  0
   22.3205   40.0429   66.2350 H   0  0  0  0  0  0  0  0  0  0  0  0
   20.8674   39.1281   65.7506 H   0  0  0  0  0  0  0  0  0  0  0  0
   21.5014   34.6563   70.2743 C   0  0  0  0  0  0  0  0  0  0  0  0
   20.6731   34.6143   71.3929 O   0  0  0  0  0  0  0  0  0  0  0  0
   20.8351   33.2921   71.8052 C   0  0  0  0  0  0  0  0  0  0  0  0
   20.4805   32.5467   70.5273 C   0  0  0  0  0  0  0  0  0  0  0  0
   21.2175   33.3811   69.5000 C   0  0  0  0  0  0  0  0  0  0  0  0
   22.3968   32.7001   69.1903 O   0  0  0  0  0  0  0  0  0  0  0  0
   20.9336   31.2351   70.5517 O   0  0  0  0  0  0  0  0  0  0  0  0
   23.1684   33.0609   69.6712 H   0  0  0  0  0  0  0  0  0  0  0  0
   21.5314   31.1421   71.3416 H   0  0  0  0  0  0  0  0  0  0  0  0
   19.9206   32.9220   72.9415 C   0  0  0  0  0  0  0  0  0  0  0  0
   19.2840   31.7204   72.7523 O   0  0  0  0  0  0  0  0  0  0  0  0
   19.2827   31.4473   71.8091 H   0  0  0  0  0  0  0  0  0  0  0  0
   19.1677   36.6860   70.3751 N   0  0  0  0  0  0  0  0  0  0  0  0
   19.2588   37.0149   71.3657 H   0  0  0  0  0  0  0  0  0  0  0  0
   17.1318   35.7312   70.8770 C   0  0  0  0  0  0  0  0  0  0  0  0
   17.9085   36.2250   69.9843 N   0  0  0  0  0  0  0  0  0  0  0  0
   16.9259   32.7860   70.4804 Cl  0  0  0  0  0  0  0  0  0  0  0  0
   15.5687   33.8802   70.3489 C   0  0  0  0  0  0  0  0  0  0  0  0
   15.7947   35.2237   70.5556 C   0  0  0  0  0  0  0  0  0  0  0  0
   14.7219   36.0824   70.4505 C   0  0  0  0  0  0  0  0  0  0  0  0
   13.4479   35.6219   70.1481 C   0  0  0  0  0  0  0  0  0  0  0  0
   13.2129   34.2784   69.9393 C   0  0  0  0  0  0  0  0  0  0  0  0
   14.2857   33.4197   70.0443 C   0  0  0  0  0  0  0  0  0  0  0  0
   15.0048   37.7995   70.7136 Cl  0  0  0  0  0  0  0  0  0  0  0  0
 29 30  1  0  0  0
 30 31  2  0  0  0
 30 35  1  0  0  0
 31 32  1  0  0  0
 31 27  1  0  0  0
 32 33  2  0  0  0
 32 36  1  0  0  0
 33 34  1  0  0  0
 34 35  2  0  0  0
 27 28  2  0  0  0
 28 25  1  0  0  0
 25  1  1  0  0  0
  1  2  1  0  0  0
  1  9  2  0  0  0
  2  3  1  0  0  0
  2 13  1  0  0  0
  3  4  2  0  0  0
  3  8  1  0  0  0
  4  5  1  0  0  0
  5  6  2  0  0  0
  6  7  1  0  0  0
  7  8  2  0  0  0
  7 10  1  0  0  0
  8  9  1  0  0  0
 13 14  1  0  0  0
 13 17  1  0  0  0
 14 15  1  0  0  0
 15 16  1  0  0  0
 15 22  1  0  0  0
 16 17  1  0  0  0
 16 19  1  0  0  0
 17 18  1  0  0  0
 22 23  1  0  0  0
 25 26  1  0  0  0
 10 11  1  0  0  0
 10 12  1  0  0  0
 18 20  1  0  0  0
 19 21  1  0  0  0
 23 24  1  0  0  0
M  END
> <minimizedAffinity>
-8.72107

$$$$
1837


 29 32  0  0  0  0  0  0  0  0999 V2000
   21.3019   35.0367   69.7936 N   0  0  0  0  0  0  0  0  0  0  0  0
   22.3533   36.0753   69.7976 C   0  0  0  0  0  0  0  0  0  0  0  0
   21.5832   37.3198   69.3094 C   0  0  0  0  0  0  0  0  0  0  0  0
   20.6447   36.7609   68.3245 N   0  0  0  0  0  0  0  0  0  0  0  0
   21.1799   35.7200   67.5049 C   0  0  0  0  0  0  0  0  0  0  0  0
   21.3147   34.4893   68.4161 C   0  0  0  0  0  0  0  0  0  0  0  0
   19.3366   37.2638   68.2790 C   0  0  0  0  0  0  0  0  0  0  0  0
   18.9474   38.0857   67.2566 N   0  0  0  0  0  0  0  0  0  0  0  0
   17.7284   38.6130   67.1508 C   0  0  0  0  0  0  0  0  0  0  0  0
   16.8106   38.3412   68.0849 N   0  0  0  0  0  0  0  0  0  0  0  0
   17.0685   37.5553   69.1251 C   0  0  0  0  0  0  0  0  0  0  0  0
   16.3485   37.1317   70.1831 N   0  0  0  0  0  0  0  0  0  0  0  0
   17.1407   36.3674   70.8913 N   0  0  0  0  0  0  0  0  0  0  0  0
   18.3366   36.2871   70.3286 N   0  0  0  0  0  0  0  0  0  0  0  0
   18.3521   37.0091   69.2241 C   0  0  0  0  0  0  0  0  0  0  0  0
   14.9701   37.4337   70.5188 C   0  0  0  0  0  0  0  0  0  0  0  0
   14.0077   36.6440   69.6589 C   0  0  0  0  0  0  0  0  0  0  0  0
   21.6337   33.9703   70.7208 C   0  0  0  0  0  0  0  0  0  0  0  0
   19.2013   33.7451   71.4322 N   0  0  0  0  0  0  0  0  0  0  0  0
   20.3675   33.1696   70.9194 C   0  0  0  0  0  0  0  0  0  0  0  0
   20.3820   31.9507   70.6117 O   0  0  0  0  0  0  0  0  0  0  0  0
   19.2694   34.7736   71.7116 H   0  0  0  0  0  0  0  0  0  0  0  0
   13.9112   31.1676   72.5393 Cl  0  0  0  0  0  0  0  0  0  0  0  0
   15.4604   31.9175   72.2183 C   0  0  0  0  0  0  0  0  0  0  0  0
   16.3700   32.1634   73.2367 C   0  0  0  0  0  0  0  0  0  0  0  0
   17.5759   32.7527   72.9580 C   0  0  0  0  0  0  0  0  0  0  0  0
   17.9513   33.1323   71.6606 C   0  0  0  0  0  0  0  0  0  0  0  0
   17.0385   32.8813   70.6749 C   0  0  0  0  0  0  0  0  0  0  0  0
   15.8128   32.2840   70.9425 C   0  0  0  0  0  0  0  0  0  0  0  0
 23 24  1  0  0  0
 24 25  2  0  0  0
 24 29  1  0  0  0
 25 26  1  0  0  0
 26 27  2  0  0  0
 27 28  1  0  0  0
 27 19  1  0  0  0
 28 29  2  0  0  0
 19 20  1  0  0  0
 20 21  2  0  0  0
 20 18  1  0  0  0
 18  1  1  0  0  0
  1  2  1  0  0  0
  1  6  1  0  0  0
  2  3  1  0  0  0
  3  4  1  0  0  0
  4  5  1  0  0  0
  4  7  1  0  0  0
  5  6  1  0  0  0
  7  8  2  0  0  0
  7 15  1  0  0  0
  8  9  1  0  0  0
  9 10  2  0  0  0
 10 11  1  0  0  0
 11 12  1  0  0  0
 11 15  2  0  0  0
 12 13  1  0  0  0
 12 16  1  0  0  0
 13 14  2  0  0  0
 14 15  1  0  0  0
 16 17  1  0  0  0
 19 22  1  0  0  0
M  END
> <minimizedAffinity>
-7.80998

$$$$
1846


 31 34  0  0  0  0  0  0  0  0999 V2000
   17.7958   37.7513   69.0768 N   0  0  0  0  0  0  0  0  0  0  0  0
   17.7094   38.1535   67.7897 C   0  0  0  0  0  0  0  0  0  0  0  0
   18.7629   38.0151   66.9575 N   0  0  0  0  0  0  0  0  0  0  0  0
   19.9287   37.4838   67.3436 C   0  0  0  0  0  0  0  0  0  0  0  0
   20.9826   37.3414   66.5231 N   0  0  0  0  0  0  0  0  0  0  0  0
   22.1635   36.8122   66.8852 C   0  0  0  0  0  0  0  0  0  0  0  0
   22.2709   36.4004   68.1778 N   0  0  0  0  0  0  0  0  0  0  0  0
   21.2421   36.5239   69.0314 C   0  0  0  0  0  0  0  0  0  0  0  0
   20.0344   37.0688   68.6489 C   0  0  0  0  0  0  0  0  0  0  0  0
   18.9655   37.2045   69.5110 C   0  0  0  0  0  0  0  0  0  0  0  0
   19.1238   36.8067   70.6915 O   0  0  0  0  0  0  0  0  0  0  0  0
   23.2510   36.6807   65.9895 N   0  0  0  0  0  0  0  0  0  0  0  0
   23.8317   37.8791   65.4303 C   0  0  0  0  0  0  0  0  0  0  0  0
   25.3494   37.7132   65.3791 C   0  0  0  0  0  0  0  0  0  0  0  0
   25.7165   36.4975   64.8062 O   0  0  0  0  0  0  0  0  0  0  0  0
   25.3322   35.5015   65.7043 C   0  0  0  0  0  0  0  0  0  0  0  0
   23.8095   35.4049   65.6061 C   0  0  0  0  0  0  0  0  0  0  0  0
   16.7296   37.8626   70.0213 C   0  0  0  0  0  0  0  0  0  0  0  0
   16.3668   35.5664   71.0267 N   0  0  0  0  0  0  0  0  0  0  0  0
   15.9472   36.5862   70.1578 C   0  0  0  0  0  0  0  0  0  0  0  0
   14.9230   36.4977   69.4628 O   0  0  0  0  0  0  0  0  0  0  0  0
   17.2667   35.7217   71.5943 H   0  0  0  0  0  0  0  0  0  0  0  0
   16.8631   30.4900   71.3542 Cl  0  0  0  0  0  0  0  0  0  0  0  0
   15.8389   31.9105   71.3652 C   0  0  0  0  0  0  0  0  0  0  0  0
   14.4814   31.7854   71.5378 C   0  0  0  0  0  0  0  0  0  0  0  0
   13.7513   32.9481   71.5324 C   0  0  0  0  0  0  0  0  0  0  0  0
   14.3216   34.2117   71.3644 C   0  0  0  0  0  0  0  0  0  0  0  0
   15.6748   34.3469   71.1916 C   0  0  0  0  0  0  0  0  0  0  0  0
   16.4102   33.1469   71.1987 C   0  0  0  0  0  0  0  0  0  0  0  0
   13.8732   30.5342   71.7093 O   0  0  0  0  0  0  0  0  0  0  0  0
   13.7538   29.9829   73.0004 C   0  0  0  0  0  0  0  0  0  0  0  0
 23 24  1  0  0  0
 24 25  2  0  0  0
 24 29  1  0  0  0
 25 26  1  0  0  0
 25 30  1  0  0  0
 26 27  2  0  0  0
 27 28  1  0  0  0
 28 29  2  0  0  0
 28 19  1  0  0  0
 19 20  1  0  0  0
 20 21  2  0  0  0
 20 18  1  0  0  0
 18  1  1  0  0  0
  1  2  1  0  0  0
  1 10  1  0  0  0
  2  3  2  0  0  0
  3  4  1  0  0  0
  4  5  2  0  0  0
  4  9  1  0  0  0
  5  6  1  0  0  0
  6  7  2  0  0  0
  6 12  1  0  0  0
  7  8  1  0  0  0
  8  9  2  0  0  0
  9 10  1  0  0  0
 10 11  2  0  0  0
 12 13  1  0  0  0
 12 17  1  0  0  0
 13 14  1  0  0  0
 14 15  1  0  0  0
 15 16  1  0  0  0
 16 17  1  0  0  0
 30 31  1  0  0  0
 19 22  1  0  0  0
M  END
> <minimizedAffinity>
-8.62796

$$$$
1850


 24 27  0  0  0  0  0  0  0  0999 V2000
   13.7386   32.4500   70.6362 Cl  0  0  0  0  0  0  0  0  0  0  0  0
   13.8641   34.1631   70.2616 C   0  0  0  0  0  0  0  0  0  0  0  0
   15.0578   34.8333   70.4402 C   0  0  0  0  0  0  0  0  0  0  0  0
   15.1564   36.1648   70.1493 C   0  0  0  0  0  0  0  0  0  0  0  0
   14.0394   36.8157   69.6769 C   0  0  0  0  0  0  0  0  0  0  0  0
   12.8384   36.1664   69.4920 C   0  0  0  0  0  0  0  0  0  0  0  0
   12.7495   34.8214   69.7884 C   0  0  0  0  0  0  0  0  0  0  0  0
   16.4013   36.9527   70.3137 C   0  0  0  0  0  0  0  0  0  0  0  0
   17.4570   36.0210   70.6275 N   0  0  0  0  0  0  0  0  0  0  0  0
   17.1649   35.0202   71.6267 C   0  0  0  0  0  0  0  0  0  0  0  0
   16.2034   34.0307   70.9577 C   0  0  0  0  0  0  0  0  0  0  0  0
   18.7252   36.0615   70.0023 C   0  0  0  0  0  0  0  0  0  0  0  0
   19.6037   35.2180   70.3219 O   0  0  0  0  0  0  0  0  0  0  0  0
   19.0927   37.0595   68.9705 C   0  0  0  0  0  0  0  0  0  0  0  0
   20.4301   37.4420   69.0593 O   0  0  0  0  0  0  0  0  0  0  0  0
   21.3646   37.2486   68.0505 C   0  0  0  0  0  0  0  0  0  0  0  0
   21.8001   38.3101   67.3451 N   0  0  0  0  0  0  0  0  0  0  0  0
   22.6936   38.1913   66.3666 N   0  0  0  0  0  0  0  0  0  0  0  0
   23.2206   37.0102   66.0175 C   0  0  0  0  0  0  0  0  0  0  0  0
   24.0894   37.1960   65.0046 N   0  0  0  0  0  0  0  0  0  0  0  0
   24.0912   38.4795   64.7386 N   0  0  0  0  0  0  0  0  0  0  0  0
   23.2423   39.1184   65.5607 C   0  0  0  0  0  0  0  0  0  0  0  0
   22.7942   35.8914   66.7245 C   0  0  0  0  0  0  0  0  0  0  0  0
   21.8716   36.0125   67.7353 C   0  0  0  0  0  0  0  0  0  0  0  0
  1  2  1  0  0  0
  2  3  2  0  0  0
  2  7  1  0  0  0
  3  4  1  0  0  0
  3 11  1  0  0  0
  4  5  2  0  0  0
  4  8  1  0  0  0
  5  6  1  0  0  0
  6  7  2  0  0  0
  8  9  1  0  0  0
  9 10  1  0  0  0
  9 12  1  0  0  0
 10 11  1  0  0  0
 12 13  2  0  0  0
 12 14  1  0  0  0
 14 15  1  0  0  0
 15 16  1  0  0  0
 16 17  2  0  0  0
 16 24  1  0  0  0
 17 18  1  0  0  0
 18 19  1  0  0  0
 18 22  1  0  0  0
 19 20  2  0  0  0
 19 23  1  0  0  0
 20 21  1  0  0  0
 21 22  2  0  0  0
 23 24  2  0  0  0
M  END
> <minimizedAffinity>
-9.10394

$$$$
1852


 26 29  0  0  0  0  0  0  0  0999 V2000
   20.9497   35.8178   70.8026 S   0  0  0  0  0  0  0  0  0  0  0  0
   21.4843   36.9768   71.5735 O   0  0  0  0  0  0  0  0  0  0  0  0
   21.1788   34.5591   71.5974 O   0  0  0  0  0  0  0  0  0  0  0  0
   19.2318   36.0180   70.5477 C   0  0  0  0  0  0  0  0  0  0  0  0
   18.3490   35.0242   70.9209 C   0  0  0  0  0  0  0  0  0  0  0  0
   16.9807   35.1327   70.7408 C   0  0  0  0  0  0  0  0  0  0  0  0
   16.4520   36.2743   70.1668 C   0  0  0  0  0  0  0  0  0  0  0  0
   17.3348   37.2573   69.7996 C   0  0  0  0  0  0  0  0  0  0  0  0
   18.6976   37.1528   69.9772 C   0  0  0  0  0  0  0  0  0  0  0  0
   15.0770   36.3421   70.0066 O   0  0  0  0  0  0  0  0  0  0  0  0
   14.2462   35.1996   69.9009 C   0  0  0  0  0  0  0  0  0  0  0  0
   14.7785   34.0083   70.6521 C   0  0  0  0  0  0  0  0  0  0  0  0
   16.0918   34.1494   71.1086 O   0  0  0  0  0  0  0  0  0  0  0  0
   21.8001   35.6535   69.3149 N   0  0  0  0  0  0  0  0  0  0  0  0
   22.3039   36.8994   68.8291 C   0  0  0  0  0  0  0  0  0  0  0  0
   21.8980   37.0210   67.3704 C   0  0  0  0  0  0  0  0  0  0  0  0
   20.6366   36.1833   67.3309 C   0  0  0  0  0  0  0  0  0  0  0  0
   21.0180   35.0458   68.2855 C   0  0  0  0  0  0  0  0  0  0  0  0
   21.5408   38.3727   67.1353 O   0  0  0  0  0  0  0  0  0  0  0  0
   22.2002   39.1554   66.2012 C   0  0  0  0  0  0  0  0  0  0  0  0
   21.5686   40.3094   65.8391 N   0  0  0  0  0  0  0  0  0  0  0  0
   22.1843   41.0893   64.9355 C   0  0  0  0  0  0  0  0  0  0  0  0
   23.4045   40.7608   64.3797 C   0  0  0  0  0  0  0  0  0  0  0  0
   23.9971   39.5798   64.7842 C   0  0  0  0  0  0  0  0  0  0  0  0
   23.3780   38.7967   65.6935 N   0  0  0  0  0  0  0  0  0  0  0  0
   24.1955   41.7873   63.2012 Cl  0  0  0  0  0  0  0  0  0  0  0  0
  1  2  2  0  0  0
  1  3  2  0  0  0
  1 14  1  0  0  0
  1  4  1  0  0  0
 14 15  1  0  0  0
 14 18  1  0  0  0
 15 16  1  0  0  0
 16 17  1  0  0  0
 16 19  1  0  0  0
 17 18  1  0  0  0
 19 20  1  0  0  0
 20 21  2  0  0  0
 20 25  1  0  0  0
 21 22  1  0  0  0
 22 23  2  0  0  0
 23 24  1  0  0  0
 23 26  1  0  0  0
 24 25  2  0  0  0
  4  5  2  0  0  0
  4  9  1  0  0  0
  5  6  1  0  0  0
  6  7  2  0  0  0
  6 13  1  0  0  0
  7  8  1  0  0  0
  7 10  1  0  0  0
  8  9  2  0  0  0
 10 11  1  0  0  0
 11 12  1  0  0  0
 12 13  1  0  0  0
M  END
> <minimizedAffinity>
-8.20638

$$$$
1856


 31 34  0  0  0  0  0  0  0  0999 V2000
   18.1356   36.3970   69.9931 C   0  0  0  0  0  0  0  0  0  0  0  0
   18.9383   35.5913   70.7053 N   0  0  0  0  0  0  0  0  0  0  0  0
   18.5043   34.4975   71.3854 C   0  0  0  0  0  0  0  0  0  0  0  0
   17.1684   34.2606   71.2993 N   0  0  0  0  0  0  0  0  0  0  0  0
   16.3170   35.0303   70.6039 C   0  0  0  0  0  0  0  0  0  0  0  0
   16.8182   36.0802   69.9659 N   0  0  0  0  0  0  0  0  0  0  0  0
   14.9372   34.7239   70.5577 N   0  0  0  0  0  0  0  0  0  0  0  0
   14.3856   33.4754   71.0434 C   0  0  0  0  0  0  0  0  0  0  0  0
   12.9742   33.6993   71.5415 C   0  0  0  0  0  0  0  0  0  0  0  0
   12.1387   34.2452   70.6042 O   0  0  0  0  0  0  0  0  0  0  0  0
   12.8020   34.7968   69.5155 C   0  0  0  0  0  0  0  0  0  0  0  0
   13.9571   35.6649   70.0064 C   0  0  0  0  0  0  0  0  0  0  0  0
   19.3739   33.6721   72.1230 N   0  0  0  0  0  0  0  0  0  0  0  0
   18.8677   32.8202   73.1570 C   0  0  0  0  0  0  0  0  0  0  0  0
   19.3605   31.4139   72.8596 C   0  0  0  0  0  0  0  0  0  0  0  0
   20.7622   31.4716   72.8337 O   0  0  0  0  0  0  0  0  0  0  0  0
   21.1935   32.1926   71.7201 C   0  0  0  0  0  0  0  0  0  0  0  0
   20.7812   33.6631   71.8603 C   0  0  0  0  0  0  0  0  0  0  0  0
   18.6382   37.5294   69.2989 N   0  0  0  0  0  0  0  0  0  0  0  0
   18.0637   38.3873   69.1819 H   0  0  0  0  0  0  0  0  0  0  0  0
   20.0922   36.9170   67.5993 C   0  0  0  0  0  0  0  0  0  0  0  0
   19.9206   37.5310   68.7499 N   0  0  0  0  0  0  0  0  0  0  0  0
   24.3312   34.0040   66.2781 Br  0  0  0  0  0  0  0  0  0  0  0  0
   23.3618   35.6446   66.3632 C   0  0  0  0  0  0  0  0  0  0  0  0
   22.1228   35.6850   66.9295 C   0  0  0  0  0  0  0  0  0  0  0  0
   21.4131   36.8942   66.9910 C   0  0  0  0  0  0  0  0  0  0  0  0
   21.9903   38.0210   66.4712 C   0  0  0  0  0  0  0  0  0  0  0  0
   23.2671   37.9721   65.8886 C   0  0  0  0  0  0  0  0  0  0  0  0
   23.9418   36.7790   65.8405 C   0  0  0  0  0  0  0  0  0  0  0  0
   21.3384   39.2379   66.5038 O   0  0  0  0  0  0  0  0  0  0  0  0
   20.4299   39.3862   66.8926 H   0  0  0  0  0  0  0  0  0  0  0  0
 23 24  1  0  0  0
 24 25  2  0  0  0
 24 29  1  0  0  0
 25 26  1  0  0  0
 26 27  2  0  0  0
 26 21  1  0  0  0
 27 28  1  0  0  0
 27 30  1  0  0  0
 28 29  2  0  0  0
 21 22  2  0  0  0
 22 19  1  0  0  0
 19  1  1  0  0  0
  1  2  2  0  0  0
  1  6  1  0  0  0
  2  3  1  0  0  0
  3  4  2  0  0  0
  3 13  1  0  0  0
  4  5  1  0  0  0
  5  6  2  0  0  0
  5  7  1  0  0  0
  7  8  1  0  0  0
  7 12  1  0  0  0
  8  9  1  0  0  0
  9 10  1  0  0  0
 10 11  1  0  0  0
 11 12  1  0  0  0
 13 14  1  0  0  0
 13 18  1  0  0  0
 14 15  1  0  0  0
 15 16  1  0  0  0
 16 17  1  0  0  0
 17 18  1  0  0  0
 30 31  1  0  0  0
 19 20  1  0  0  0
M  END
> <minimizedAffinity>
-8.69077

$$$$
1863


 33 36  0  0  0  0  0  0  0  0999 V2000
   17.4145   35.5813   70.6769 N   0  0  0  0  0  0  0  0  0  0  0  0
   16.0673   35.4260   70.5569 C   0  0  0  0  0  0  0  0  0  0  0  0
   15.7850   34.0985   70.7443 C   0  0  0  0  0  0  0  0  0  0  0  0
   16.9543   33.5003   70.9685 N   0  0  0  0  0  0  0  0  0  0  0  0
   17.9763   34.3966   70.9300 C   0  0  0  0  0  0  0  0  0  0  0  0
   14.5051   33.6975   70.6557 N   0  0  0  0  0  0  0  0  0  0  0  0
   13.4998   34.5729   70.3848 C   0  0  0  0  0  0  0  0  0  0  0  0
   12.2865   34.2029   70.2988 O   0  0  0  0  0  0  0  0  0  0  0  0
   13.7461   35.8801   70.1951 N   0  0  0  0  0  0  0  0  0  0  0  0
   15.0165   36.2980   70.2808 C   0  0  0  0  0  0  0  0  0  0  0  0
   15.2127   37.5200   70.0973 O   0  0  0  0  0  0  0  0  0  0  0  0
   14.1583   32.3127   70.8402 C   0  0  0  0  0  0  0  0  0  0  0  0
   12.9564   36.5620   69.9840 H   0  0  0  0  0  0  0  0  0  0  0  0
   19.3680   34.0525   71.0925 N   0  0  0  0  0  0  0  0  0  0  0  0
   19.7522   32.7676   70.5553 C   0  0  0  0  0  0  0  0  0  0  0  0
   21.2278   32.4805   70.6665 C   0  0  0  0  0  0  0  0  0  0  0  0
   21.9302   33.6313   70.2289 N   0  0  0  0  0  0  0  0  0  0  0  0
   21.7122   34.7528   71.0801 C   0  0  0  0  0  0  0  0  0  0  0  0
   20.3608   34.8521   71.7242 C   0  0  0  0  0  0  0  0  0  0  0  0
   21.6853   33.8842   68.8439 C   0  0  0  0  0  0  0  0  0  0  0  0
   22.9108   33.8479   67.9931 C   0  0  0  0  0  0  0  0  0  0  0  0
   23.0769   33.0704   67.0401 O   0  0  0  0  0  0  0  0  0  0  0  0
   23.9261   34.7958   68.3520 N   0  0  0  0  0  0  0  0  0  0  0  0
   24.6079   34.6065   69.1209 H   0  0  0  0  0  0  0  0  0  0  0  0
   23.9765   35.6734   67.8392 H   0  0  0  0  0  0  0  0  0  0  0  0
   18.0681   36.8426   70.5693 C   0  0  0  0  0  0  0  0  0  0  0  0
   21.7223   36.9191   66.8319 Cl  0  0  0  0  0  0  0  0  0  0  0  0
   20.1222   37.3128   67.4543 C   0  0  0  0  0  0  0  0  0  0  0  0
   19.6932   36.9620   68.7032 C   0  0  0  0  0  0  0  0  0  0  0  0
   18.4141   37.2730   69.1891 C   0  0  0  0  0  0  0  0  0  0  0  0
   17.5802   37.9590   68.3595 C   0  0  0  0  0  0  0  0  0  0  0  0
   18.0114   38.3182   67.0910 C   0  0  0  0  0  0  0  0  0  0  0  0
   19.2716   38.0077   66.6215 C   0  0  0  0  0  0  0  0  0  0  0  0
 27 28  1  0  0  0
 28 29  2  0  0  0
 28 33  1  0  0  0
 29 30  1  0  0  0
 30 31  2  0  0  0
 30 26  1  0  0  0
 31 32  1  0  0  0
 32 33  2  0  0  0
 26  1  1  0  0  0
  1  2  1  0  0  0
  1  5  1  0  0  0
  2  3  2  0  0  0
  2 10  1  0  0  0
  3  4  1  0  0  0
  3  6  1  0  0  0
  4  5  2  0  0  0
  5 14  1  0  0  0
 14 15  1  0  0  0
 14 19  1  0  0  0
 15 16  1  0  0  0
 16 17  1  0  0  0
 17 18  1  0  0  0
 17 20  1  0  0  0
 18 19  1  0  0  0
 20 21  1  0  0  0
 21 22  2  0  0  0
 21 23  1  0  0  0
  6  7  1  0  0  0
  6 12  1  0  0  0
  7  8  2  0  0  0
  7  9  1  0  0  0
  9 10  1  0  0  0
 10 11  2  0  0  0
 23 24  1  0  0  0
 23 25  1  0  0  0
  9 13  1  0  0  0
M  END
> <minimizedAffinity>
-8.82801

$$$$
1865


 29 32  0  0  0  0  0  0  0  0999 V2000
   20.1888   34.0651   71.8488 N   0  0  0  0  0  0  0  0  0  0  0  0
   21.1034   33.0267   71.4665 C   0  0  0  0  0  0  0  0  0  0  0  0
   22.2795   33.2245   71.0148 O   0  0  0  0  0  0  0  0  0  0  0  0
   20.4834   31.7608   71.6762 N   0  0  0  0  0  0  0  0  0  0  0  0
   19.0615   32.0226   71.6976 C   0  0  0  0  0  0  0  0  0  0  0  0
   18.6161   32.1608   70.2538 C   0  0  0  0  0  0  0  0  0  0  0  0
   17.2614   32.8586   70.2947 C   0  0  0  0  0  0  0  0  0  0  0  0
   16.4011   32.2163   71.2701 N   0  0  0  0  0  0  0  0  0  0  0  0
   16.8385   31.0106   71.9227 C   0  0  0  0  0  0  0  0  0  0  0  0
   18.2533   31.0185   72.4010 C   0  0  0  0  0  0  0  0  0  0  0  0
   15.1329   32.7779   71.5699 C   0  0  0  0  0  0  0  0  0  0  0  0
   14.3847   32.2122   72.4301 O   0  0  0  0  0  0  0  0  0  0  0  0
   19.0168   33.3836   72.2880 C   0  0  0  0  0  0  0  0  0  0  0  0
   18.1512   33.9104   73.0376 O   0  0  0  0  0  0  0  0  0  0  0  0
   20.9498   30.8413   71.7892 H   0  0  0  0  0  0  0  0  0  0  0  0
   14.6211   33.9843   70.9427 C   0  0  0  0  0  0  0  0  0  0  0  0
   15.0434   35.2173   71.2853 N   0  0  0  0  0  0  0  0  0  0  0  0
   14.5262   36.2911   70.6632 C   0  0  0  0  0  0  0  0  0  0  0  0
   13.5696   36.1850   69.6763 C   0  0  0  0  0  0  0  0  0  0  0  0
   13.1464   34.9593   69.3325 N   0  0  0  0  0  0  0  0  0  0  0  0
   13.6670   33.8695   69.9589 C   0  0  0  0  0  0  0  0  0  0  0  0
   20.3922   35.4944   71.8063 C   0  0  0  0  0  0  0  0  0  0  0  0
   16.9847   38.0658   68.7677 Cl  0  0  0  0  0  0  0  0  0  0  0  0
   18.5189   37.2672   69.0490 C   0  0  0  0  0  0  0  0  0  0  0  0
   18.8612   36.7093   70.2632 C   0  0  0  0  0  0  0  0  0  0  0  0
   20.0643   36.0810   70.4896 C   0  0  0  0  0  0  0  0  0  0  0  0
   20.9859   35.9936   69.4717 C   0  0  0  0  0  0  0  0  0  0  0  0
   20.6599   36.5483   68.2463 C   0  0  0  0  0  0  0  0  0  0  0  0
   19.4496   37.1754   68.0332 C   0  0  0  0  0  0  0  0  0  0  0  0
 23 24  1  0  0  0
 24 25  2  0  0  0
 24 29  1  0  0  0
 25 26  1  0  0  0
 26 27  2  0  0  0
 26 22  1  0  0  0
 27 28  1  0  0  0
 28 29  2  0  0  0
 22  1  1  0  0  0
  1  2  1  0  0  0
  1 13  1  0  0  0
  2  3  2  0  0  0
  2  4  1  0  0  0
  4  5  1  0  0  0
  5  6  1  0  0  0
  5 10  1  0  0  0
  5 13  1  0  0  0
  6  7  1  0  0  0
  7  8  1  0  0  0
  8  9  1  0  0  0
  8 11  1  0  0  0
  9 10  1  0  0  0
 11 12  2  0  0  0
 11 16  1  0  0  0
 16 17  2  0  0  0
 16 21  1  0  0  0
 17 18  1  0  0  0
 18 19  2  0  0  0
 19 20  1  0  0  0
 20 21  2  0  0  0
 13 14  2  0  0  0
  4 15  1  0  0  0
M  END
> <minimizedAffinity>
-8.82735

$$$$
1871


 28 31  0  0  0  0  0  0  0  0999 V2000
   20.2621   35.4871   71.1154 C   0  0  0  0  0  0  0  0  0  0  0  0
   18.8850   35.1814   71.1339 N   0  0  0  0  0  0  0  0  0  0  0  0
   18.1637   36.1054   70.3654 C   0  0  0  0  0  0  0  0  0  0  0  0
   16.9365   36.4440   70.0548 C   0  0  0  0  0  0  0  0  0  0  0  0
   16.6520   37.5572   69.1423 C   0  0  0  0  0  0  0  0  0  0  0  0
   17.7019   38.0936   68.2852 C   0  0  0  0  0  0  0  0  0  0  0  0
   19.0786   37.5206   68.5123 C   0  0  0  0  0  0  0  0  0  0  0  0
   19.1995   36.9665   69.8134 N   0  0  0  0  0  0  0  0  0  0  0  0
   20.1751   37.0072   70.8953 C   0  0  0  0  0  0  0  0  0  0  0  0
   21.4183   37.6633   70.4619 C   0  0  0  0  0  0  0  0  0  0  0  0
   20.7951   35.3306   72.3742 O   0  0  0  0  0  0  0  0  0  0  0  0
   18.5988   35.5292   72.1577 H   0  0  0  0  0  0  0  0  0  0  0  0
   21.7384   35.0913   72.4289 H   0  0  0  0  0  0  0  0  0  0  0  0
   23.7493   33.1031   66.8639 Cl  0  0  0  0  0  0  0  0  0  0  0  0
   22.7501   33.7787   68.1368 C   0  0  0  0  0  0  0  0  0  0  0  0
   23.0575   33.6040   69.4788 C   0  0  0  0  0  0  0  0  0  0  0  0
   22.2138   34.1741   70.4302 C   0  0  0  0  0  0  0  0  0  0  0  0
   21.1018   34.8929   70.0779 C   0  0  0  0  0  0  0  0  0  0  0  0
   20.7905   35.0693   68.7409 C   0  0  0  0  0  0  0  0  0  0  0  0
   21.6254   34.5051   67.7976 C   0  0  0  0  0  0  0  0  0  0  0  0
   18.5137   33.8441   71.2286 C   0  0  0  0  0  0  0  0  0  0  0  0
   18.0381   33.4056   72.4536 C   0  0  0  0  0  0  0  0  0  0  0  0
   17.6497   32.1078   72.6821 C   0  0  0  0  0  0  0  0  0  0  0  0
   17.7084   31.1328   71.6809 C   0  0  0  0  0  0  0  0  0  0  0  0
   18.1842   31.5943   70.4787 C   0  0  0  0  0  0  0  0  0  0  0  0
   18.5704   32.8933   70.2579 C   0  0  0  0  0  0  0  0  0  0  0  0
   17.3113   29.8316   71.9209 O   0  0  0  0  0  0  0  0  0  0  0  0
   16.0003   29.5756   72.3578 C   0  0  0  0  0  0  0  0  0  0  0  0
 14 15  1  0  0  0
 15 16  2  0  0  0
 15 20  1  0  0  0
 16 17  1  0  0  0
 17 18  2  0  0  0
 18 19  1  0  0  0
 18  1  1  0  0  0
 19 20  2  0  0  0
  1  2  1  0  0  0
  1  9  1  0  0  0
  1 11  1  0  0  0
  2  3  1  0  0  0
  2 21  1  0  0  0
  3  4  2  0  0  0
  3  8  1  0  0  0
  4  5  1  0  0  0
  5  6  1  0  0  0
  6  7  1  0  0  0
  7  8  1  0  0  0
  8  9  1  0  0  0
  9 10  1  0  0  0
 21 22  2  0  0  0
 21 26  1  0  0  0
 22 23  1  0  0  0
 23 24  2  0  0  0
 24 25  1  0  0  0
 24 27  1  0  0  0
 25 26  2  0  0  0
 27 28  1  0  0  0
  2 12  1  0  0  0
 11 13  1  0  0  0
M  CHG 1   2   1
M  END
> <minimizedAffinity>
-8.28361

$$$$
1893


 28 31  0  0  0  0  0  0  0  0999 V2000
   15.0290   33.3664   71.2973 N   0  0  0  0  0  0  0  0  0  0  0  0
   15.7299   34.5245   71.3085 C   0  0  0  0  0  0  0  0  0  0  0  0
   16.8627   34.6552   71.8418 O   0  0  0  0  0  0  0  0  0  0  0  0
   15.0344   35.5312   70.6599 C   0  0  0  0  0  0  0  0  0  0  0  0
   13.9006   34.9851   70.2502 C   0  0  0  0  0  0  0  0  0  0  0  0
   13.2255   35.9688   69.6187 N   0  0  0  0  0  0  0  0  0  0  0  0
   13.9584   37.0898   69.6577 N   0  0  0  0  0  0  0  0  0  0  0  0
   15.0835   36.8271   70.3024 N   0  0  0  0  0  0  0  0  0  0  0  0
   13.8951   33.6615   70.6386 C   0  0  0  0  0  0  0  0  0  0  0  0
   12.9547   32.8730   70.3971 O   0  0  0  0  0  0  0  0  0  0  0  0
   12.2922   35.8655   69.1793 H   0  0  0  0  0  0  0  0  0  0  0  0
   13.7253   38.0260   69.2641 H   0  0  0  0  0  0  0  0  0  0  0  0
   16.7148   28.1485   73.6364 Cl  0  0  0  0  0  0  0  0  0  0  0  0
   16.1954   29.7005   72.9687 C   0  0  0  0  0  0  0  0  0  0  0  0
   15.2944   30.4962   73.6449 C   0  0  0  0  0  0  0  0  0  0  0  0
   14.9258   31.6998   73.0723 C   0  0  0  0  0  0  0  0  0  0  0  0
   15.4206   32.1328   71.8600 C   0  0  0  0  0  0  0  0  0  0  0  0
   16.3206   31.3090   71.2141 C   0  0  0  0  0  0  0  0  0  0  0  0
   16.7198   30.0892   71.7529 C   0  0  0  0  0  0  0  0  0  0  0  0
   16.1650   37.7504   70.5731 C   0  0  0  0  0  0  0  0  0  0  0  0
   17.2836   37.6346   69.6048 C   0  0  0  0  0  0  0  0  0  0  0  0
   18.5047   37.0697   69.8983 C   0  0  0  0  0  0  0  0  0  0  0  0
   19.5424   36.9630   68.9939 C   0  0  0  0  0  0  0  0  0  0  0  0
   19.3618   37.4458   67.7204 C   0  0  0  0  0  0  0  0  0  0  0  0
   18.1576   38.0180   67.3834 C   0  0  0  0  0  0  0  0  0  0  0  0
   17.1330   38.1124   68.3107 C   0  0  0  0  0  0  0  0  0  0  0  0
   20.7456   36.3703   69.3968 O   0  0  0  0  0  0  0  0  0  0  0  0
   21.0068   36.0794   70.7549 C   0  0  0  0  0  0  0  0  0  0  0  0
 13 14  1  0  0  0
 14 15  2  0  0  0
 14 19  1  0  0  0
 15 16  1  0  0  0
 16 17  2  0  0  0
 17 18  1  0  0  0
 17  1  1  0  0  0
 18 19  2  0  0  0
  1  2  1  0  0  0
  1  9  1  0  0  0
  2  3  2  0  0  0
  2  4  1  0  0  0
  4  5  2  0  0  0
  4  8  1  0  0  0
  5  6  1  0  0  0
  5  9  1  0  0  0
  6  7  1  0  0  0
  7  8  1  0  0  0
  8 20  1  0  0  0
 20 21  1  0  0  0
 21 22  2  0  0  0
 21 26  1  0  0  0
 22 23  1  0  0  0
 23 24  2  0  0  0
 23 27  1  0  0  0
 24 25  1  0  0  0
 25 26  2  0  0  0
 27 28  1  0  0  0
  9 10  2  0  0  0
  6 11  1  0  0  0
  7 12  1  0  0  0
M  END
> <minimizedAffinity>
-9.02687

$$$$
1894


 26 29  0  0  0  0  0  0  0  0999 V2000
   15.0303   33.3795   71.3094 N   0  0  0  0  0  0  0  0  0  0  0  0
   15.7482   34.5253   71.2992 C   0  0  0  0  0  0  0  0  0  0  0  0
   16.8906   34.6397   71.7906 O   0  0  0  0  0  0  0  0  0  0  0  0
   15.0480   35.5436   70.6748 C   0  0  0  0  0  0  0  0  0  0  0  0
   13.8795   35.0052   70.2970 C   0  0  0  0  0  0  0  0  0  0  0  0
   13.2091   36.0008   69.6907 N   0  0  0  0  0  0  0  0  0  0  0  0
   13.9420   37.0992   69.7008 N   0  0  0  0  0  0  0  0  0  0  0  0
   15.0804   36.8344   70.3049 N   0  0  0  0  0  0  0  0  0  0  0  0
   13.8827   33.6838   70.6908 C   0  0  0  0  0  0  0  0  0  0  0  0
   12.9345   32.8751   70.4948 O   0  0  0  0  0  0  0  0  0  0  0  0
   12.2594   35.9497   69.2677 H   0  0  0  0  0  0  0  0  0  0  0  0
   13.6677   38.0416   69.2932 H   0  0  0  0  0  0  0  0  0  0  0  0
   16.6553   28.0685   73.6073 Cl  0  0  0  0  0  0  0  0  0  0  0  0
   16.1752   29.6262   72.9393 C   0  0  0  0  0  0  0  0  0  0  0  0
   16.6522   30.0562   71.7192 C   0  0  0  0  0  0  0  0  0  0  0  0
   16.2768   31.2779   71.1932 C   0  0  0  0  0  0  0  0  0  0  0  0
   15.4122   32.1201   71.8595 C   0  0  0  0  0  0  0  0  0  0  0  0
   14.9384   31.6800   73.0820 C   0  0  0  0  0  0  0  0  0  0  0  0
   15.3087   30.4605   73.6153 C   0  0  0  0  0  0  0  0  0  0  0  0
   16.1737   37.7476   70.5423 C   0  0  0  0  0  0  0  0  0  0  0  0
   17.2493   37.6649   69.5310 C   0  0  0  0  0  0  0  0  0  0  0  0
   17.0410   38.1757   68.2733 C   0  0  0  0  0  0  0  0  0  0  0  0
   18.0538   38.0851   67.3467 C   0  0  0  0  0  0  0  0  0  0  0  0
   19.2658   37.4947   67.6566 C   0  0  0  0  0  0  0  0  0  0  0  0
   19.4756   36.9818   68.9166 C   0  0  0  0  0  0  0  0  0  0  0  0
   18.4591   37.0802   69.8260 C   0  0  0  0  0  0  0  0  0  0  0  0
 13 14  1  0  0  0
 14 15  2  0  0  0
 14 19  1  0  0  0
 15 16  1  0  0  0
 16 17  2  0  0  0
 17 18  1  0  0  0
 17  1  1  0  0  0
 18 19  2  0  0  0
  1  2  1  0  0  0
  1  9  1  0  0  0
  2  3  2  0  0  0
  2  4  1  0  0  0
  4  5  2  0  0  0
  4  8  1  0  0  0
  5  6  1  0  0  0
  5  9  1  0  0  0
  6  7  1  0  0  0
  7  8  1  0  0  0
  8 20  1  0  0  0
 20 21  1  0  0  0
 21 22  2  0  0  0
 21 26  1  0  0  0
 22 23  1  0  0  0
 23 24  2  0  0  0
 24 25  1  0  0  0
 25 26  2  0  0  0
  9 10  2  0  0  0
  6 11  1  0  0  0
  7 12  1  0  0  0
M  END
> <minimizedAffinity>
-9.06248

$$$$
1895


 32 35  0  0  0  0  0  0  0  0999 V2000
   21.1225   34.4566   70.1159 N   0  0  0  0  0  0  0  0  0  0  0  0
   19.7552   34.1879   70.3382 C   0  0  0  0  0  0  0  0  0  0  0  0
   19.5624   32.6613   70.2238 C   0  0  0  0  0  0  0  0  0  0  0  0
   20.2367   32.1533   71.3911 N   0  0  0  0  0  0  0  0  0  0  0  0
   21.6983   32.3749   71.3343 C   0  0  0  0  0  0  0  0  0  0  0  0
   22.0908   33.6744   70.7619 C   0  0  0  0  0  0  0  0  0  0  0  0
   19.7092   31.5117   72.5100 C   0  0  0  0  0  0  0  0  0  0  0  0
   20.6292   31.1893   73.3987 O   0  0  0  0  0  0  0  0  0  0  0  0
   21.5096   36.1110   69.9465 S   0  0  0  0  0  0  0  0  0  0  0  0
   21.5570   36.8626   71.2177 O   0  0  0  0  0  0  0  0  0  0  0  0
   22.8595   36.2091   69.2767 O   0  0  0  0  0  0  0  0  0  0  0  0
   20.2985   36.8260   68.8684 C   0  0  0  0  0  0  0  0  0  0  0  0
   18.7035   37.3245   69.1966 S   0  0  0  0  0  0  0  0  0  0  0  0
   18.2646   37.8765   67.6474 C   0  0  0  0  0  0  0  0  0  0  0  0
   19.3937   37.6529   66.9038 C   0  0  0  0  0  0  0  0  0  0  0  0
   20.4443   37.1082   67.5423 C   0  0  0  0  0  0  0  0  0  0  0  0
   16.7228   38.5710   67.1226 Cl  0  0  0  0  0  0  0  0  0  0  0  0
   18.3866   31.1202   72.9241 C   0  0  0  0  0  0  0  0  0  0  0  0
   17.3088   32.0399   72.7226 N   0  0  0  0  0  0  0  0  0  0  0  0
   17.2797   33.3981   73.1646 C   0  0  0  0  0  0  0  0  0  0  0  0
   18.2286   33.9481   73.8204 O   0  0  0  0  0  0  0  0  0  0  0  0
   16.0577   33.9705   72.7504 N   0  0  0  0  0  0  0  0  0  0  0  0
   15.4865   33.1215   71.7164 C   0  0  0  0  0  0  0  0  0  0  0  0
   14.0030   33.0105   71.7669 C   0  0  0  0  0  0  0  0  0  0  0  0
   13.5015   32.8605   70.3265 C   0  0  0  0  0  0  0  0  0  0  0  0
   13.6519   34.2276   69.6873 C   0  0  0  0  0  0  0  0  0  0  0  0
   15.0347   34.7594   69.9746 C   0  0  0  0  0  0  0  0  0  0  0  0
   15.9877   33.6483   70.3907 C   0  0  0  0  0  0  0  0  0  0  0  0
   13.4993   31.7975   72.5142 C   0  0  0  0  0  0  0  0  0  0  0  0
   16.0832   31.7890   72.0312 C   0  0  0  0  0  0  0  0  0  0  0  0
   15.6096   30.6718   71.7473 O   0  0  0  0  0  0  0  0  0  0  0  0
   15.6242   34.8375   73.1028 H   0  0  0  0  0  0  0  0  0  0  0  0
  9 10  2  0  0  0
  9 11  2  0  0  0
  9  1  1  0  0  0
  9 12  1  0  0  0
  1  2  1  0  0  0
  1  6  1  0  0  0
  2  3  1  0  0  0
  3  4  1  0  0  0
  4  5  1  0  0  0
  4  7  1  0  0  0
  5  6  1  0  0  0
  7  8  2  0  0  0
  7 18  1  0  0  0
 18 19  1  0  0  0
 19 20  1  0  0  0
 19 30  1  0  0  0
 20 21  2  0  0  0
 20 22  1  0  0  0
 22 23  1  0  0  0
 23 24  1  0  0  0
 23 28  1  0  0  0
 23 30  1  0  0  0
 24 25  1  0  0  0
 24 29  1  0  0  0
 25 26  1  0  0  0
 26 27  1  0  0  0
 27 28  1  0  0  0
 30 31  2  0  0  0
 12 13  1  0  0  0
 12 16  2  0  0  0
 13 14  1  0  0  0
 14 15  2  0  0  0
 14 17  1  0  0  0
 15 16  1  0  0  0
 22 32  1  0  0  0
M  END
> <minimizedAffinity>
-9.28441

$$$$
1906


 33 36  0  0  0  0  0  0  0  0999 V2000
   16.7100   31.8049   71.9691 C   0  0  0  0  0  0  0  0  0  0  0  0
   15.5976   32.4151   72.5667 O   0  0  0  0  0  0  0  0  0  0  0  0
   14.3886   31.9702   72.1063 C   0  0  0  0  0  0  0  0  0  0  0  0
   14.0464   30.5566   72.5317 C   0  0  0  0  0  0  0  0  0  0  0  0
   15.3427   29.8359   72.4453 N   0  0  0  0  0  0  0  0  0  0  0  0
   16.2666   30.3953   71.5359 C   0  0  0  0  0  0  0  0  0  0  0  0
   15.5201   28.7197   73.2361 C   0  0  0  0  0  0  0  0  0  0  0  0
   14.5699   28.3206   74.0284 O   0  0  0  0  0  0  0  0  0  0  0  0
   16.7047   27.9176   73.2723 C   0  0  0  0  0  0  0  0  0  0  0  0
   16.8565   26.7873   72.5818 N   0  0  0  0  0  0  0  0  0  0  0  0
   17.9690   26.0273   72.6105 C   0  0  0  0  0  0  0  0  0  0  0  0
   19.0398   26.4197   73.3979 C   0  0  0  0  0  0  0  0  0  0  0  0
   18.9258   27.5371   74.0970 N   0  0  0  0  0  0  0  0  0  0  0  0
   17.8072   28.2794   74.0538 C   0  0  0  0  0  0  0  0  0  0  0  0
   20.2384   25.5453   73.3914 C   0  0  0  0  0  0  0  0  0  0  0  0
   16.9578   32.5626   70.6961 C   0  0  0  0  0  0  0  0  0  0  0  0
   16.9342   33.8759   70.6691 O   0  0  0  0  0  0  0  0  0  0  0  0
   12.7654   36.5545   69.5251 Cl  0  0  0  0  0  0  0  0  0  0  0  0
   14.4814   36.3989   69.9014 C   0  0  0  0  0  0  0  0  0  0  0  0
   15.0087   35.1584   70.1371 C   0  0  0  0  0  0  0  0  0  0  0  0
   16.3394   35.0081   70.4323 C   0  0  0  0  0  0  0  0  0  0  0  0
   17.1288   36.1737   70.4839 C   0  0  0  0  0  0  0  0  0  0  0  0
   16.5892   37.3945   70.2475 C   0  0  0  0  0  0  0  0  0  0  0  0
   15.2591   37.5408   69.9514 C   0  0  0  0  0  0  0  0  0  0  0  0
   17.7974   31.7741   72.9428 C   0  0  0  0  0  0  0  0  0  0  0  0
   19.1692   31.6134   72.4572 C   0  0  0  0  0  0  0  0  0  0  0  0
   19.5967   30.4995   72.0999 O   0  0  0  0  0  0  0  0  0  0  0  0
   20.0622   32.7200   72.3760 N   0  0  0  0  0  0  0  0  0  0  0  0
   19.6507   34.0619   72.7741 C   0  0  0  0  0  0  0  0  0  0  0  0
   20.0829   35.0045   71.6709 C   0  0  0  0  0  0  0  0  0  0  0  0
   21.4658   34.8919   71.4975 O   0  0  0  0  0  0  0  0  0  0  0  0
   21.7414   33.6523   70.9218 C   0  0  0  0  0  0  0  0  0  0  0  0
   21.4205   32.5675   71.8980 C   0  0  0  0  0  0  0  0  0  0  0  0
 18 19  1  0  0  0
 19 20  2  0  0  0
 19 24  1  0  0  0
 20 21  1  0  0  0
 21 22  2  0  0  0
 21 17  1  0  0  0
 22 23  1  0  0  0
 23 24  2  0  0  0
 17 16  1  0  0  0
 16  1  1  0  0  0
  1  2  1  0  0  0
  1  6  1  0  0  0
  1 25  1  0  0  0
  2  3  1  0  0  0
  3  4  1  0  0  0
  4  5  1  0  0  0
  5  6  1  0  0  0
  5  7  1  0  0  0
  7  8  2  0  0  0
  7  9  1  0  0  0
  9 10  2  0  0  0
  9 14  1  0  0  0
 10 11  1  0  0  0
 11 12  2  0  0  0
 12 13  1  0  0  0
 12 15  1  0  0  0
 13 14  2  0  0  0
 25 26  1  0  0  0
 26 27  2  0  0  0
 26 28  1  0  0  0
 28 29  1  0  0  0
 28 33  1  0  0  0
 29 30  1  0  0  0
 30 31  1  0  0  0
 31 32  1  0  0  0
 32 33  1  0  0  0
M  END
> <minimizedAffinity>
-8.60121

$$$$
1913


 29 32  0  0  0  0  0  0  0  0999 V2000
   17.5131   33.2819   71.5002 N   0  0  0  0  0  0  0  0  0  0  0  0
   18.0238   32.5146   70.3875 C   0  0  0  0  0  0  0  0  0  0  0  0
   19.0648   31.5036   70.7865 C   0  0  0  0  0  0  0  0  0  0  0  0
   20.0379   32.1344   71.7209 C   0  0  0  0  0  0  0  0  0  0  0  0
   19.3473   32.5257   72.9818 C   0  0  0  0  0  0  0  0  0  0  0  0
   18.0241   33.1822   72.8326 C   0  0  0  0  0  0  0  0  0  0  0  0
   16.0170   38.0091   70.4003 Cl  0  0  0  0  0  0  0  0  0  0  0  0
   15.6789   36.3465   70.7544 C   0  0  0  0  0  0  0  0  0  0  0  0
   14.4155   35.9207   70.8114 N   0  0  0  0  0  0  0  0  0  0  0  0
   14.0990   34.6509   71.0808 C   0  0  0  0  0  0  0  0  0  0  0  0
   12.9397   34.0125   71.1799 N   0  0  0  0  0  0  0  0  0  0  0  0
   13.2557   32.7421   71.4626 C   0  0  0  0  0  0  0  0  0  0  0  0
   14.5803   32.5613   71.5429 N   0  0  0  0  0  0  0  0  0  0  0  0
   15.1522   33.7532   71.3073 C   0  0  0  0  0  0  0  0  0  0  0  0
   16.4530   34.1779   71.2516 C   0  0  0  0  0  0  0  0  0  0  0  0
   16.6849   35.4939   70.9703 N   0  0  0  0  0  0  0  0  0  0  0  0
   15.1115   31.6813   71.7422 H   0  0  0  0  0  0  0  0  0  0  0  0
   20.8226   33.1974   71.0908 C   0  0  0  0  0  0  0  0  0  0  0  0
   20.9521   34.2870   71.7004 O   0  0  0  0  0  0  0  0  0  0  0  0
   21.4403   33.0580   69.8309 N   0  0  0  0  0  0  0  0  0  0  0  0
   21.3318   32.1365   69.3154 H   0  0  0  0  0  0  0  0  0  0  0  0
   22.2171   34.0981   69.1973 C   0  0  0  0  0  0  0  0  0  0  0  0
   21.7230   34.4711   67.8292 C   0  0  0  0  0  0  0  0  0  0  0  0
   21.5162   35.9042   67.7215 N   0  0  0  0  0  0  0  0  0  0  0  0
   21.1293   36.5064   68.9526 C   0  0  0  0  0  0  0  0  0  0  0  0
   19.6770   36.9364   68.8992 C   0  0  0  0  0  0  0  0  0  0  0  0
   19.5613   37.9038   67.9324 O   0  0  0  0  0  0  0  0  0  0  0  0
   20.0308   37.5748   66.6886 C   0  0  0  0  0  0  0  0  0  0  0  0
   20.7593   36.2803   66.5820 C   0  0  0  0  0  0  0  0  0  0  0  0
  7  8  1  0  0  0
  8  9  2  0  0  0
  8 16  1  0  0  0
  9 10  1  0  0  0
 10 11  1  0  0  0
 10 14  2  0  0  0
 11 12  2  0  0  0
 12 13  1  0  0  0
 13 14  1  0  0  0
 14 15  1  0  0  0
 15 16  2  0  0  0
 15  1  1  0  0  0
  1  2  1  0  0  0
  1  6  1  0  0  0
  2  3  1  0  0  0
  3  4  1  0  0  0
  4  5  1  0  0  0
  4 18  1  0  0  0
  5  6  1  0  0  0
 18 19  2  0  0  0
 18 20  1  0  0  0
 20 22  1  0  0  0
 22 23  1  0  0  0
 23 24  1  0  0  0
 24 25  1  0  0  0
 24 29  1  0  0  0
 25 26  1  0  0  0
 26 27  1  0  0  0
 27 28  1  0  0  0
 28 29  1  0  0  0
 13 17  1  0  0  0
 20 21  1  0  0  0
M  END
> <minimizedAffinity>
-7.79698

$$$$
1927


 36 39  0  0  0  0  0  0  0  0999 V2000
   21.8626   33.6950   70.7722 C   0  0  0  0  0  0  0  0  0  0  0  0
   22.3738   36.8267   66.6194 C   0  0  0  0  0  0  0  0  0  0  0  0
   21.7593   36.9024   68.0152 C   0  0  0  0  0  0  0  0  0  0  0  0
   21.1716   35.5223   68.2266 C   0  0  0  0  0  0  0  0  0  0  0  0
   22.2076   34.5569   68.3378 N   0  0  0  0  0  0  0  0  0  0  0  0
   23.1413   34.4732   67.1843 C   0  0  0  0  0  0  0  0  0  0  0  0
   23.4305   35.7889   66.5453 C   0  0  0  0  0  0  0  0  0  0  0  0
   22.4301   33.7100   69.4155 C   0  0  0  0  0  0  0  0  0  0  0  0
   23.2845   32.7400   69.2136 O   0  0  0  0  0  0  0  0  0  0  0  0
   21.2871   36.3638   65.8107 O   0  0  0  0  0  0  0  0  0  0  0  0
   21.6812   35.7512   65.1413 H   0  0  0  0  0  0  0  0  0  0  0  0
   23.4620   42.4551   64.6114 Cl  0  0  0  0  0  0  0  0  0  0  0  0
   23.1751   40.8008   65.2114 C   0  0  0  0  0  0  0  0  0  0  0  0
   21.9521   40.4344   65.7192 C   0  0  0  0  0  0  0  0  0  0  0  0
   21.7283   39.1373   66.1806 C   0  0  0  0  0  0  0  0  0  0  0  0
   22.7259   38.1541   66.1484 C   0  0  0  0  0  0  0  0  0  0  0  0
   23.9347   38.5570   65.6336 C   0  0  0  0  0  0  0  0  0  0  0  0
   24.1706   39.8384   65.1738 C   0  0  0  0  0  0  0  0  0  0  0  0
   20.4882   33.4840   70.9049 N   0  0  0  0  0  0  0  0  0  0  0  0
   19.5374   34.4813   71.2829 C   0  0  0  0  0  0  0  0  0  0  0  0
   20.0265   35.6159   71.5266 O   0  0  0  0  0  0  0  0  0  0  0  0
   20.0481   32.5584   70.6548 H   0  0  0  0  0  0  0  0  0  0  0  0
   18.1345   34.1804   71.3644 C   0  0  0  0  0  0  0  0  0  0  0  0
   17.0957   34.8694   71.0242 C   0  0  0  0  0  0  0  0  0  0  0  0
   17.1733   36.1814   70.4621 N   0  0  0  0  0  0  0  0  0  0  0  0
   16.0231   36.9022   70.0784 N   0  0  0  0  0  0  0  0  0  0  0  0
   14.7354   36.3511   70.2343 C   0  0  0  0  0  0  0  0  0  0  0  0
   13.7301   37.0308   69.8747 O   0  0  0  0  0  0  0  0  0  0  0  0
   14.6105   35.0219   70.8000 C   0  0  0  0  0  0  0  0  0  0  0  0
   15.7278   34.3126   71.1768 C   0  0  0  0  0  0  0  0  0  0  0  0
   15.5288   33.0572   71.6755 C   0  0  0  0  0  0  0  0  0  0  0  0
   14.2582   32.4851   71.8096 C   0  0  0  0  0  0  0  0  0  0  0  0
   13.1794   33.2307   71.4207 C   0  0  0  0  0  0  0  0  0  0  0  0
   13.3312   34.5162   70.9072 C   0  0  0  0  0  0  0  0  0  0  0  0
   18.0989   36.6517   70.3185 H   0  0  0  0  0  0  0  0  0  0  0  0
   16.1136   37.8594   69.6646 H   0  0  0  0  0  0  0  0  0  0  0  0
 12 13  1  0  0  0
 13 14  2  0  0  0
 13 18  1  0  0  0
 14 15  1  0  0  0
 15 16  2  0  0  0
 16 17  1  0  0  0
 16  2  1  0  0  0
 17 18  2  0  0  0
  2  3  1  0  0  0
  2  7  1  0  0  0
  2 10  1  0  0  0
  3  4  1  0  0  0
  4  5  1  0  0  0
  5  6  1  0  0  0
  5  8  1  0  0  0
  6  7  1  0  0  0
  8  9  2  0  0  0
  8  1  1  0  0  0
  1 19  1  0  0  0
 19 20  1  0  0  0
 20 21  2  0  0  0
 20 23  1  0  0  0
 23 24  2  0  0  0
 24 25  1  0  0  0
 24 30  1  0  0  0
 25 26  1  0  0  0
 26 27  1  0  0  0
 27 28  2  0  0  0
 27 29  1  0  0  0
 29 30  2  0  0  0
 29 34  1  0  0  0
 30 31  1  0  0  0
 31 32  2  0  0  0
 32 33  1  0  0  0
 33 34  2  0  0  0
 19 22  1  0  0  0
 25 35  1  0  0  0
 26 36  1  0  0  0
 10 11  1  0  0  0
M  END
> <minimizedAffinity>
-10.33371

$$$$
1928


 28 31  0  0  0  0  0  0  0  0999 V2000
   16.1385   36.3331   70.6418 N   0  0  0  0  0  0  0  0  0  0  0  0
   14.8752   35.9654   70.3432 C   0  0  0  0  0  0  0  0  0  0  0  0
   14.4287   34.6974   70.6159 C   0  0  0  0  0  0  0  0  0  0  0  0
   15.3429   33.7350   71.2407 C   0  0  0  0  0  0  0  0  0  0  0  0
   14.6468   32.5874   71.3908 N   0  0  0  0  0  0  0  0  0  0  0  0
   13.4249   32.7538   70.9273 N   0  0  0  0  0  0  0  0  0  0  0  0
   13.2367   33.9939   70.4526 C   0  0  0  0  0  0  0  0  0  0  0  0
   12.1947   34.4737   69.9452 O   0  0  0  0  0  0  0  0  0  0  0  0
   16.6240   34.1567   71.5278 C   0  0  0  0  0  0  0  0  0  0  0  0
   16.9525   35.4447   71.2085 C   0  0  0  0  0  0  0  0  0  0  0  0
   12.6984   32.0145   70.9319 H   0  0  0  0  0  0  0  0  0  0  0  0
   17.5638   33.2251   72.1507 C   0  0  0  0  0  0  0  0  0  0  0  0
   17.4980   32.9739   73.3620 O   0  0  0  0  0  0  0  0  0  0  0  0
   18.5506   32.6011   71.4059 O   0  0  0  0  0  0  0  0  0  0  0  0
   18.2997   31.8910   70.2164 C   0  0  0  0  0  0  0  0  0  0  0  0
   16.5608   37.6993   70.3278 C   0  0  0  0  0  0  0  0  0  0  0  0
   19.3017   37.3157   67.9794 C   0  0  0  0  0  0  0  0  0  0  0  0
   18.4045   38.0647   67.3208 N   0  0  0  0  0  0  0  0  0  0  0  0
   17.3614   38.2750   68.0662 O   0  0  0  0  0  0  0  0  0  0  0  0
   17.5372   37.6808   69.2210 C   0  0  0  0  0  0  0  0  0  0  0  0
   18.7535   37.0741   69.1787 N   0  0  0  0  0  0  0  0  0  0  0  0
   24.6334   35.5357   65.8081 Cl  0  0  0  0  0  0  0  0  0  0  0  0
   23.0800   36.0488   66.4446 C   0  0  0  0  0  0  0  0  0  0  0  0
   22.3582   35.2453   67.3085 C   0  0  0  0  0  0  0  0  0  0  0  0
   21.1367   35.6670   67.7985 C   0  0  0  0  0  0  0  0  0  0  0  0
   20.5898   36.8817   67.4571 C   0  0  0  0  0  0  0  0  0  0  0  0
   21.3050   37.6873   66.5947 C   0  0  0  0  0  0  0  0  0  0  0  0
   22.5312   37.2751   66.0976 C   0  0  0  0  0  0  0  0  0  0  0  0
 22 23  1  0  0  0
 23 24  2  0  0  0
 23 28  1  0  0  0
 24 25  1  0  0  0
 25 26  2  0  0  0
 26 27  1  0  0  0
 26 17  1  0  0  0
 27 28  2  0  0  0
 17 18  2  0  0  0
 17 21  1  0  0  0
 18 19  1  0  0  0
 19 20  1  0  0  0
 20 21  2  0  0  0
 20 16  1  0  0  0
 16  1  1  0  0  0
  1  2  1  0  0  0
  1 10  1  0  0  0
  2  3  2  0  0  0
  3  4  1  0  0  0
  3  7  1  0  0  0
  4  5  2  0  0  0
  4  9  1  0  0  0
  5  6  1  0  0  0
  6  7  1  0  0  0
  7  8  2  0  0  0
  9 10  2  0  0  0
  9 12  1  0  0  0
 12 13  2  0  0  0
 12 14  1  0  0  0
 14 15  1  0  0  0
  6 11  1  0  0  0
M  END
> <minimizedAffinity>
-8.67015

$$$$
1930


 34 37  0  0  0  0  0  0  0  0999 V2000
   18.1171   37.1060   69.9764 C   0  0  0  0  0  0  0  0  0  0  0  0
   17.9391   38.0543   69.1695 O   0  0  0  0  0  0  0  0  0  0  0  0
   19.4146   36.6023   70.1819 N   0  0  0  0  0  0  0  0  0  0  0  0
   20.5855   37.1407   69.4888 C   0  0  0  0  0  0  0  0  0  0  0  0
   21.0877   36.0108   68.6120 C   0  0  0  0  0  0  0  0  0  0  0  0
   21.3595   34.7714   69.4319 C   0  0  0  0  0  0  0  0  0  0  0  0
   21.1354   35.0572   70.9215 C   0  0  0  0  0  0  0  0  0  0  0  0
   19.6960   35.5107   71.0980 C   0  0  0  0  0  0  0  0  0  0  0  0
   20.4465   33.7292   69.1380 O   0  0  0  0  0  0  0  0  0  0  0  0
   22.7271   34.1951   69.2227 C   0  0  0  0  0  0  0  0  0  0  0  0
   20.8107   32.9217   69.5767 H   0  0  0  0  0  0  0  0  0  0  0  0
   22.1328   36.3742   67.7215 N   0  0  0  0  0  0  0  0  0  0  0  0
   23.3450   36.8053   68.1788 C   0  0  0  0  0  0  0  0  0  0  0  0
   24.3603   37.1594   67.3158 C   0  0  0  0  0  0  0  0  0  0  0  0
   24.1542   37.0785   65.9565 C   0  0  0  0  0  0  0  0  0  0  0  0
   25.0695   37.3974   65.1237 O   0  0  0  0  0  0  0  0  0  0  0  0
   22.9580   36.6537   65.5139 N   0  0  0  0  0  0  0  0  0  0  0  0
   21.9834   36.3143   66.4066 C   0  0  0  0  0  0  0  0  0  0  0  0
   20.8909   35.9256   65.9363 O   0  0  0  0  0  0  0  0  0  0  0  0
   25.6889   37.6312   67.7794 C   0  0  0  0  0  0  0  0  0  0  0  0
   22.7986   36.5907   64.4913 H   0  0  0  0  0  0  0  0  0  0  0  0
   16.9456   36.5430   70.6905 C   0  0  0  0  0  0  0  0  0  0  0  0
   16.0625   35.7058   69.8241 C   0  0  0  0  0  0  0  0  0  0  0  0
   16.1018   28.5483   72.7088 Cl  0  0  0  0  0  0  0  0  0  0  0  0
   15.6047   30.0951   72.0397 C   0  0  0  0  0  0  0  0  0  0  0  0
   16.4929   31.0908   71.7216 C   0  0  0  0  0  0  0  0  0  0  0  0
   16.0922   32.3085   71.1939 C   0  0  0  0  0  0  0  0  0  0  0  0
   16.7098   33.4344   70.7991 N   0  0  0  0  0  0  0  0  0  0  0  0
   15.8231   34.3399   70.3518 C   0  0  0  0  0  0  0  0  0  0  0  0
   14.6063   33.7360   70.4808 N   0  0  0  0  0  0  0  0  0  0  0  0
   14.7426   32.5054   70.9883 C   0  0  0  0  0  0  0  0  0  0  0  0
   13.8158   31.5312   71.2939 C   0  0  0  0  0  0  0  0  0  0  0  0
   14.2626   30.3247   71.8220 C   0  0  0  0  0  0  0  0  0  0  0  0
   13.3661   34.4065   70.0948 C   0  0  0  0  0  0  0  0  0  0  0  0
 24 25  1  0  0  0
 25 26  2  0  0  0
 25 33  1  0  0  0
 26 27  1  0  0  0
 27 28  1  0  0  0
 27 31  2  0  0  0
 28 29  2  0  0  0
 29 30  1  0  0  0
 29 23  1  0  0  0
 30 31  1  0  0  0
 30 34  1  0  0  0
 31 32  1  0  0  0
 32 33  2  0  0  0
 23 22  1  0  0  0
 22  1  1  0  0  0
  1  2  2  0  0  0
  1  3  1  0  0  0
  3  4  1  0  0  0
  3  8  1  0  0  0
  4  5  1  0  0  0
  5  6  1  0  0  0
  5 12  1  0  0  0
  6  7  1  0  0  0
  6  9  1  0  0  0
  6 10  1  0  0  0
  7  8  1  0  0  0
 12 13  1  0  0  0
 12 18  1  0  0  0
 13 14  2  0  0  0
 14 15  1  0  0  0
 14 20  1  0  0  0
 15 16  2  0  0  0
 15 17  1  0  0  0
 17 18  1  0  0  0
 18 19  2  0  0  0
  9 11  1  0  0  0
 17 21  1  0  0  0
M  END
> <minimizedAffinity>
-9.27568

$$$$
1936


 25 28  0  0  0  0  0  0  0  0999 V2000
   18.7680   37.2205   70.3935 N   0  0  0  0  0  0  0  0  0  0  0  0
   19.8841   36.7592   69.6697 C   0  0  0  0  0  0  0  0  0  0  0  0
   19.7418   36.5669   68.4501 O   0  0  0  0  0  0  0  0  0  0  0  0
   18.8656   37.3884   71.4221 H   0  0  0  0  0  0  0  0  0  0  0  0
   21.1926   36.5004   70.2952 C   0  0  0  0  0  0  0  0  0  0  0  0
   22.3660   37.1103   69.6335 C   0  0  0  0  0  0  0  0  0  0  0  0
   21.8997   37.7755   70.8677 C   0  0  0  0  0  0  0  0  0  0  0  0
   21.3499   35.3830   71.1773 N   0  0  0  0  0  0  0  0  0  0  0  0
   21.9378   34.2263   70.6268 C   0  0  0  0  0  0  0  0  0  0  0  0
   20.8127   33.2765   70.2342 C   0  0  0  0  0  0  0  0  0  0  0  0
   20.1929   32.7891   71.3603 O   0  0  0  0  0  0  0  0  0  0  0  0
   20.1914   33.6406   72.4371 C   0  0  0  0  0  0  0  0  0  0  0  0
   20.2710   35.0982   72.0312 C   0  0  0  0  0  0  0  0  0  0  0  0
   17.4798   37.4723   69.7740 C   0  0  0  0  0  0  0  0  0  0  0  0
   13.9297   30.8577   71.6289 Cl  0  0  0  0  0  0  0  0  0  0  0  0
   14.2143   32.5283   71.1454 C   0  0  0  0  0  0  0  0  0  0  0  0
   15.4904   33.0510   71.0205 C   0  0  0  0  0  0  0  0  0  0  0  0
   15.7564   34.3503   70.6464 C   0  0  0  0  0  0  0  0  0  0  0  0
   16.8612   35.0923   70.4542 N   0  0  0  0  0  0  0  0  0  0  0  0
   16.5348   36.3444   70.0824 C   0  0  0  0  0  0  0  0  0  0  0  0
   15.1930   36.3724   70.0460 N   0  0  0  0  0  0  0  0  0  0  0  0
   14.6627   35.1795   70.3808 C   0  0  0  0  0  0  0  0  0  0  0  0
   13.3894   34.6734   70.5013 C   0  0  0  0  0  0  0  0  0  0  0  0
   13.1448   33.3767   70.8749 C   0  0  0  0  0  0  0  0  0  0  0  0
   14.6328   37.2162   69.7877 H   0  0  0  0  0  0  0  0  0  0  0  0
 15 16  1  0  0  0
 16 17  2  0  0  0
 16 24  1  0  0  0
 17 18  1  0  0  0
 18 19  1  0  0  0
 18 22  2  0  0  0
 19 20  2  0  0  0
 20 21  1  0  0  0
 20 14  1  0  0  0
 21 22  1  0  0  0
 22 23  1  0  0  0
 23 24  2  0  0  0
 14  1  1  0  0  0
  1  2  1  0  0  0
  2  3  2  0  0  0
  2  5  1  0  0  0
  5  6  1  0  0  0
  5  7  1  0  0  0
  5  8  1  0  0  0
  6  7  1  0  0  0
  8  9  1  0  0  0
  8 13  1  0  0  0
  9 10  1  0  0  0
 10 11  1  0  0  0
 11 12  1  0  0  0
 12 13  1  0  0  0
 21 25  1  0  0  0
  1  4  1  0  0  0
M  END
> <minimizedAffinity>
-7.39107

$$$$
1937


 31 34  0  0  0  0  0  0  0  0999 V2000
   20.4739   33.4282   70.9824 N   0  0  0  0  0  0  0  0  0  0  0  0
   20.2754   34.6823   71.5453 C   0  0  0  0  0  0  0  0  0  0  0  0
   21.3664   35.6524   70.9215 C   0  0  0  0  0  0  0  0  0  0  0  0
   21.5531   35.0458   69.6303 N   0  0  0  0  0  0  0  0  0  0  0  0
   22.4942   33.8915   69.7214 C   0  0  0  0  0  0  0  0  0  0  0  0
   21.9458   33.1249   70.8920 C   0  0  0  0  0  0  0  0  0  0  0  0
   21.0268   35.5009   68.4586 C   0  0  0  0  0  0  0  0  0  0  0  0
   20.8722   34.6563   67.5111 O   0  0  0  0  0  0  0  0  0  0  0  0
   20.6163   36.8986   68.1149 C   0  0  0  0  0  0  0  0  0  0  0  0
   21.8103   37.6984   68.4010 O   0  0  0  0  0  0  0  0  0  0  0  0
   22.9863   36.9678   68.0629 C   0  0  0  0  0  0  0  0  0  0  0  0
   22.9185   36.1340   66.9782 C   0  0  0  0  0  0  0  0  0  0  0  0
   24.0117   35.3744   66.5759 C   0  0  0  0  0  0  0  0  0  0  0  0
   25.1699   35.5113   67.3325 C   0  0  0  0  0  0  0  0  0  0  0  0
   25.2741   36.3469   68.4226 C   0  0  0  0  0  0  0  0  0  0  0  0
   24.1667   37.0862   68.7881 C   0  0  0  0  0  0  0  0  0  0  0  0
   21.7212   36.0452   66.2593 O   0  0  0  0  0  0  0  0  0  0  0  0
   20.6005   36.9136   66.5625 C   0  0  0  0  0  0  0  0  0  0  0  0
   19.8459   32.2295   71.4842 C   0  0  0  0  0  0  0  0  0  0  0  0
   17.4222   32.8550   71.4042 N   0  0  0  0  0  0  0  0  0  0  0  0
   18.4692   32.1416   70.8170 C   0  0  0  0  0  0  0  0  0  0  0  0
   18.3333   31.4852   69.8176 O   0  0  0  0  0  0  0  0  0  0  0  0
   17.6227   33.1966   72.4107 H   0  0  0  0  0  0  0  0  0  0  0  0
   16.1265   33.0791   70.8730 C   0  0  0  0  0  0  0  0  0  0  0  0
   13.3922   33.6272   69.9484 Cl  0  0  0  0  0  0  0  0  0  0  0  0
   14.5868   34.8802   70.1857 C   0  0  0  0  0  0  0  0  0  0  0  0
   15.8833   34.5007   70.5134 C   0  0  0  0  0  0  0  0  0  0  0  0
   16.8017   35.5094   70.6379 C   0  0  0  0  0  0  0  0  0  0  0  0
   16.4412   36.8393   70.4563 C   0  0  0  0  0  0  0  0  0  0  0  0
   15.1271   37.2278   70.1236 C   0  0  0  0  0  0  0  0  0  0  0  0
   14.2404   36.1778   69.9947 C   0  0  0  0  0  0  0  0  0  0  0  0
 25 26  1  0  0  0
 26 27  2  0  0  0
 26 31  1  0  0  0
 27 28  1  0  0  0
 27 24  1  0  0  0
 28 29  2  0  0  0
 29 30  1  0  0  0
 30 31  2  0  0  0
 24 20  1  0  0  0
 20 21  1  0  0  0
 21 22  2  0  0  0
 21 19  1  0  0  0
 19  1  1  0  0  0
  1  2  1  0  0  0
  1  6  1  0  0  0
  2  3  1  0  0  0
  3  4  1  0  0  0
  4  5  1  0  0  0
  4  7  1  0  0  0
  5  6  1  0  0  0
  7  8  2  0  0  0
  7  9  1  0  0  0
  9 10  1  0  0  0
  9 18  1  0  0  0
 10 11  1  0  0  0
 11 12  2  0  0  0
 11 16  1  0  0  0
 12 13  1  0  0  0
 12 17  1  0  0  0
 13 14  2  0  0  0
 14 15  1  0  0  0
 15 16  2  0  0  0
 17 18  1  0  0  0
 20 23  1  0  0  0
M  END
> <minimizedAffinity>
-8.69822

$$$$
1939


 28 31  0  0  0  0  0  0  0  0999 V2000
   17.3090   35.7064   70.6705 N   0  0  0  0  0  0  0  0  0  0  0  0
   15.9580   35.5967   70.4893 C   0  0  0  0  0  0  0  0  0  0  0  0
   15.5676   34.2980   70.6675 C   0  0  0  0  0  0  0  0  0  0  0  0
   16.6901   33.6512   70.9516 N   0  0  0  0  0  0  0  0  0  0  0  0
   17.7756   34.4908   70.9600 C   0  0  0  0  0  0  0  0  0  0  0  0
   14.2822   33.9217   70.5373 N   0  0  0  0  0  0  0  0  0  0  0  0
   13.3383   34.8462   70.2196 C   0  0  0  0  0  0  0  0  0  0  0  0
   12.1561   34.4503   70.1095 O   0  0  0  0  0  0  0  0  0  0  0  0
   13.6726   36.1346   70.0345 N   0  0  0  0  0  0  0  0  0  0  0  0
   14.9571   36.4981   70.1663 C   0  0  0  0  0  0  0  0  0  0  0  0
   15.2173   37.7076   69.9823 O   0  0  0  0  0  0  0  0  0  0  0  0
   13.9556   32.5219   70.7449 C   0  0  0  0  0  0  0  0  0  0  0  0
   12.9116   36.8030   69.7927 H   0  0  0  0  0  0  0  0  0  0  0  0
   19.0855   34.0344   71.2250 N   0  0  0  0  0  0  0  0  0  0  0  0
   19.6020   34.2049   72.5764 C   0  0  0  0  0  0  0  0  0  0  0  0
   20.4574   32.9433   72.7929 C   0  0  0  0  0  0  0  0  0  0  0  0
   19.9068   31.8014   72.0977 N   0  0  0  0  0  0  0  0  0  0  0  0
   19.9503   31.9142   70.6556 C   0  0  0  0  0  0  0  0  0  0  0  0
   20.0026   33.4037   70.3488 C   0  0  0  0  0  0  0  0  0  0  0  0
   20.4823   30.9851   72.3643 H   0  0  0  0  0  0  0  0  0  0  0  0
   18.0098   36.9570   70.5446 C   0  0  0  0  0  0  0  0  0  0  0  0
   22.0660   37.5292   66.1249 Cl  0  0  0  0  0  0  0  0  0  0  0  0
   20.8640   37.3537   67.3846 C   0  0  0  0  0  0  0  0  0  0  0  0
   21.2795   37.0562   68.6479 C   0  0  0  0  0  0  0  0  0  0  0  0
   20.3501   36.9081   69.6821 C   0  0  0  0  0  0  0  0  0  0  0  0
   19.0154   37.0491   69.4893 C   0  0  0  0  0  0  0  0  0  0  0  0
   18.6215   37.3559   68.1777 C   0  0  0  0  0  0  0  0  0  0  0  0
   19.5176   37.5056   67.1453 C   0  0  0  0  0  0  0  0  0  0  0  0
 22 23  1  0  0  0
 23 24  2  0  0  0
 23 28  1  0  0  0
 24 25  1  0  0  0
 25 26  2  0  0  0
 26 27  1  0  0  0
 26 21  1  0  0  0
 27 28  2  0  0  0
 21  1  1  0  0  0
  1  2  1  0  0  0
  1  5  1  0  0  0
  2  3  2  0  0  0
  2 10  1  0  0  0
  3  4  1  0  0  0
  3  6  1  0  0  0
  4  5  2  0  0  0
  5 14  1  0  0  0
 14 15  1  0  0  0
 14 19  1  0  0  0
 15 16  1  0  0  0
 16 17  1  0  0  0
 17 18  1  0  0  0
 18 19  1  0  0  0
  6  7  1  0  0  0
  6 12  1  0  0  0
  7  8  2  0  0  0
  7  9  1  0  0  0
  9 10  1  0  0  0
 10 11  2  0  0  0
 17 20  1  0  0  0
  9 13  1  0  0  0
M  END
> <minimizedAffinity>
-8.29705

$$$$
1940


 30 33  0  0  0  0  0  0  0  0999 V2000
   16.4018   32.8077   72.8032 C   0  0  0  0  0  0  0  0  0  0  0  0
   15.8684   31.4435   72.6998 N   0  0  0  0  0  0  0  0  0  0  0  0
   16.1598   31.0245   71.3790 C   0  0  0  0  0  0  0  0  0  0  0  0
   15.5082   30.2008   70.6943 O   0  0  0  0  0  0  0  0  0  0  0  0
   17.3781   31.7429   70.9603 C   0  0  0  0  0  0  0  0  0  0  0  0
   17.9760   31.6657   69.8631 O   0  0  0  0  0  0  0  0  0  0  0  0
   17.7313   32.5674   72.1076 C   0  0  0  0  0  0  0  0  0  0  0  0
   18.9047   32.9770   72.4442 C   0  0  0  0  0  0  0  0  0  0  0  0
   19.0958   33.7539   73.5855 O   0  0  0  0  0  0  0  0  0  0  0  0
   13.4545   36.6259   69.1827 Cl  0  0  0  0  0  0  0  0  0  0  0  0
   14.2685   35.4908   70.2301 C   0  0  0  0  0  0  0  0  0  0  0  0
   13.6407   34.3774   70.7457 C   0  0  0  0  0  0  0  0  0  0  0  0
   14.3444   33.5214   71.5704 C   0  0  0  0  0  0  0  0  0  0  0  0
   15.6584   33.7276   71.9068 C   0  0  0  0  0  0  0  0  0  0  0  0
   16.2779   34.8594   71.3760 C   0  0  0  0  0  0  0  0  0  0  0  0
   15.5819   35.7171   70.5530 C   0  0  0  0  0  0  0  0  0  0  0  0
   20.0732   32.6409   71.6368 C   0  0  0  0  0  0  0  0  0  0  0  0
   20.7664   31.5636   71.5308 O   0  0  0  0  0  0  0  0  0  0  0  0
   21.7380   31.7149   70.6770 C   0  0  0  0  0  0  0  0  0  0  0  0
   21.6983   32.9878   70.1677 C   0  0  0  0  0  0  0  0  0  0  0  0
   20.6344   33.5936   70.7760 C   0  0  0  0  0  0  0  0  0  0  0  0
   15.1797   30.7078   73.7506 C   0  0  0  0  0  0  0  0  0  0  0  0
   15.5442   29.2574   73.8270 C   0  0  0  0  0  0  0  0  0  0  0  0
   16.7675   28.9505   74.4852 N   0  0  0  0  0  0  0  0  0  0  0  0
   16.7249   27.9264   75.4789 C   0  0  0  0  0  0  0  0  0  0  0  0
   16.3668   26.5630   74.9327 C   0  0  0  0  0  0  0  0  0  0  0  0
   17.2522   26.1831   73.9297 O   0  0  0  0  0  0  0  0  0  0  0  0
   17.3949   27.1667   72.9565 C   0  0  0  0  0  0  0  0  0  0  0  0
   17.7932   28.5062   73.5190 C   0  0  0  0  0  0  0  0  0  0  0  0
   17.1207   29.8200   74.9418 H   0  0  0  0  0  0  0  0  0  0  0  0
 10 11  1  0  0  0
 11 12  2  0  0  0
 11 16  1  0  0  0
 12 13  1  0  0  0
 13 14  2  0  0  0
 14 15  1  0  0  0
 14  1  1  0  0  0
 15 16  2  0  0  0
  1  2  1  0  0  0
  1  7  1  0  0  0
  2  3  1  0  0  0
  2 22  1  0  0  0
  3  4  2  0  0  0
  3  5  1  0  0  0
  5  6  2  0  0  0
  5  7  1  0  0  0
  7  8  2  0  0  0
  8  9  1  0  0  0
  8 17  1  0  0  0
 17 18  1  0  0  0
 17 21  2  0  0  0
 18 19  1  0  0  0
 19 20  2  0  0  0
 20 21  1  0  0  0
 22 23  1  0  0  0
 23 24  1  0  0  0
 24 25  1  0  0  0
 24 29  1  0  0  0
 25 26  1  0  0  0
 26 27  1  0  0  0
 27 28  1  0  0  0
 28 29  1  0  0  0
 24 30  1  0  0  0
M  CHG 1   9  -1
M  CHG 1  24   1
M  END
> <minimizedAffinity>
-7.92146

$$$$
1941


 22 25  0  0  0  0  0  0  0  0999 V2000
   21.2483   35.3696   69.3362 N   0  0  0  0  0  0  0  0  0  0  0  0
   22.0422   34.5319   68.4836 C   0  0  0  0  0  0  0  0  0  0  0  0
   22.4457   33.3772   68.8592 O   0  0  0  0  0  0  0  0  0  0  0  0
   22.2748   35.2163   67.2016 C   0  0  0  0  0  0  0  0  0  0  0  0
   22.0144   36.6645   67.5388 C   0  0  0  0  0  0  0  0  0  0  0  0
   23.2946   37.4502   67.3544 C   0  0  0  0  0  0  0  0  0  0  0  0
   23.5701   37.4298   65.8437 C   0  0  0  0  0  0  0  0  0  0  0  0
   23.8198   35.9880   65.5071 C   0  0  0  0  0  0  0  0  0  0  0  0
   24.1482   35.6688   64.3964 O   0  0  0  0  0  0  0  0  0  0  0  0
   23.6329   35.0012   66.6269 C   0  0  0  0  0  0  0  0  0  0  0  0
   24.7115   35.3469   67.6597 C   0  0  0  0  0  0  0  0  0  0  0  0
   24.4644   36.7850   68.0256 C   0  0  0  0  0  0  0  0  0  0  0  0
   25.1839   37.3364   68.8121 O   0  0  0  0  0  0  0  0  0  0  0  0
   21.4756   36.7018   68.8974 C   0  0  0  0  0  0  0  0  0  0  0  0
   21.2509   37.7370   69.5640 O   0  0  0  0  0  0  0  0  0  0  0  0
   17.5395   33.7248   73.7604 Cl  0  0  0  0  0  0  0  0  0  0  0  0
   18.6347   34.2050   72.4695 C   0  0  0  0  0  0  0  0  0  0  0  0
   18.1631   34.7154   71.2852 C   0  0  0  0  0  0  0  0  0  0  0  0
   19.0264   35.0886   70.2802 C   0  0  0  0  0  0  0  0  0  0  0  0
   20.3981   34.9714   70.4052 C   0  0  0  0  0  0  0  0  0  0  0  0
   20.8520   34.4583   71.6002 C   0  0  0  0  0  0  0  0  0  0  0  0
   20.0064   34.0791   72.6169 C   0  0  0  0  0  0  0  0  0  0  0  0
 16 17  1  0  0  0
 17 18  2  0  0  0
 17 22  1  0  0  0
 18 19  1  0  0  0
 19 20  2  0  0  0
 20 21  1  0  0  0
 20  1  1  0  0  0
 21 22  2  0  0  0
  1  2  1  0  0  0
  1 14  1  0  0  0
  2  3  2  0  0  0
  2  4  1  0  0  0
  4  5  1  0  0  0
  4 10  1  0  0  0
  5  6  1  0  0  0
  5 14  1  0  0  0
  6  7  1  0  0  0
  6 12  1  0  0  0
  7  8  1  0  0  0
  8  9  2  0  0  0
  8 10  1  0  0  0
 10 11  1  0  0  0
 11 12  1  0  0  0
 12 13  2  0  0  0
 14 15  2  0  0  0
M  END
> <minimizedAffinity>
-8.26047

$$$$
1943


 34 38  0  0  0  0  0  0  0  0999 V2000
   19.8609   36.3340   69.8203 N   0  0  0  0  0  0  0  0  0  0  0  0
   20.4701   36.8982   68.6385 C   0  0  0  0  0  0  0  0  0  0  0  0
   19.8707   37.3939   67.6800 O   0  0  0  0  0  0  0  0  0  0  0  0
   21.9317   36.7981   68.7446 C   0  0  0  0  0  0  0  0  0  0  0  0
   22.6411   36.2694   67.5208 C   0  0  0  0  0  0  0  0  0  0  0  0
   22.7726   34.8401   67.6706 N   0  0  0  0  0  0  0  0  0  0  0  0
   21.8979   34.4643   68.7635 C   0  0  0  0  0  0  0  0  0  0  0  0
   22.0833   35.6394   69.7022 C   0  0  0  0  0  0  0  0  0  0  0  0
   20.9497   35.8468   70.6221 C   0  0  0  0  0  0  0  0  0  0  0  0
   20.9974   35.6268   71.8350 O   0  0  0  0  0  0  0  0  0  0  0  0
   23.9815   36.9515   67.5283 C   0  0  0  0  0  0  0  0  0  0  0  0
   24.0017   37.8332   66.4851 C   0  0  0  0  0  0  0  0  0  0  0  0
   25.0993   38.6766   66.2517 C   0  0  0  0  0  0  0  0  0  0  0  0
   26.1986   38.6283   67.0834 C   0  0  0  0  0  0  0  0  0  0  0  0
   26.1807   37.7428   68.1276 C   0  0  0  0  0  0  0  0  0  0  0  0
   25.0937   36.9217   68.3440 C   0  0  0  0  0  0  0  0  0  0  0  0
   22.8399   37.6989   65.6824 N   0  0  0  0  0  0  0  0  0  0  0  0
   22.0535   36.6666   66.2573 C   0  0  0  0  0  0  0  0  0  0  0  0
   21.0263   36.2050   65.7168 O   0  0  0  0  0  0  0  0  0  0  0  0
   22.4745   34.3970   66.7694 H   0  0  0  0  0  0  0  0  0  0  0  0
   22.6026   38.2653   64.8112 H   0  0  0  0  0  0  0  0  0  0  0  0
   14.0900   35.9456   71.2887 Cl  0  0  0  0  0  0  0  0  0  0  0  0
   15.7892   36.0582   70.8657 C   0  0  0  0  0  0  0  0  0  0  0  0
   16.2891   37.2303   70.3524 C   0  0  0  0  0  0  0  0  0  0  0  0
   17.6351   37.3048   70.0133 C   0  0  0  0  0  0  0  0  0  0  0  0
   18.5069   36.2616   70.1645 C   0  0  0  0  0  0  0  0  0  0  0  0
   17.9789   35.1036   70.6812 C   0  0  0  0  0  0  0  0  0  0  0  0
   16.6286   34.9997   71.0309 C   0  0  0  0  0  0  0  0  0  0  0  0
   22.3190   33.1729   69.4146 C   0  0  0  0  0  0  0  0  0  0  0  0
   23.7637   33.0094   69.5441 C   0  0  0  0  0  0  0  0  0  0  0  0
   24.4675   32.7760   68.5431 O   0  0  0  0  0  0  0  0  0  0  0  0
   24.3762   33.1149   70.8146 N   0  0  0  0  0  0  0  0  0  0  0  0
   23.8543   33.2506   71.7139 H   0  0  0  0  0  0  0  0  0  0  0  0
   25.4276   33.0616   70.9518 H   0  0  0  0  0  0  0  0  0  0  0  0
 22 23  1  0  0  0
 23 24  2  0  0  0
 23 28  1  0  0  0
 24 25  1  0  0  0
 25 26  2  0  0  0
 26 27  1  0  0  0
 26  1  1  0  0  0
 27 28  2  0  0  0
  1  2  1  0  0  0
  1  9  1  0  0  0
  2  3  2  0  0  0
  2  4  1  0  0  0
  4  5  1  0  0  0
  4  8  1  0  0  0
  5  6  1  0  0  0
  5 11  1  0  0  0
  5 18  1  0  0  0
  6  7  1  0  0  0
  7  8  1  0  0  0
  7 29  1  0  0  0
  8  9  1  0  0  0
  9 10  2  0  0  0
 29 30  1  0  0  0
 30 31  2  0  0  0
 30 32  1  0  0  0
 11 12  1  0  0  0
 11 16  2  0  0  0
 12 13  2  0  0  0
 12 17  1  0  0  0
 13 14  1  0  0  0
 14 15  2  0  0  0
 15 16  1  0  0  0
 17 18  1  0  0  0
 18 19  2  0  0  0
  6 20  1  0  0  0
 32 33  1  0  0  0
 32 34  1  0  0  0
 17 21  1  0  0  0
M  END
> <minimizedAffinity>
-9.23681

$$$$
1945


 24 27  0  0  0  0  0  0  0  0999 V2000
   14.4055   35.2982   71.5795 Cl  0  0  0  0  0  0  0  0  0  0  0  0
   16.0352   35.6103   71.0160 C   0  0  0  0  0  0  0  0  0  0  0  0
   17.0966   34.8184   71.3898 C   0  0  0  0  0  0  0  0  0  0  0  0
   18.3917   35.0790   70.9337 C   0  0  0  0  0  0  0  0  0  0  0  0
   18.5838   36.1615   70.0881 C   0  0  0  0  0  0  0  0  0  0  0  0
   17.5336   36.9614   69.7056 C   0  0  0  0  0  0  0  0  0  0  0  0
   16.2677   36.6960   70.1615 C   0  0  0  0  0  0  0  0  0  0  0  0
   19.9318   36.4742   69.5809 C   0  0  0  0  0  0  0  0  0  0  0  0
   20.3795   37.3983   68.8009 N   0  0  0  0  0  0  0  0  0  0  0  0
   21.7971   37.2988   68.5861 C   0  0  0  0  0  0  0  0  0  0  0  0
   22.2081   36.1048   69.3909 C   0  0  0  0  0  0  0  0  0  0  0  0
   20.9901   35.6313   69.9922 N   0  0  0  0  0  0  0  0  0  0  0  0
   20.7608   34.5285   70.8600 C   0  0  0  0  0  0  0  0  0  0  0  0
   21.6920   33.7628   71.2382 O   0  0  0  0  0  0  0  0  0  0  0  0
   19.4453   34.2211   71.3565 N   0  0  0  0  0  0  0  0  0  0  0  0
   19.2343   33.0861   72.2442 C   0  0  0  0  0  0  0  0  0  0  0  0
   18.4551   32.0205   71.5733 C   0  0  0  0  0  0  0  0  0  0  0  0
   18.8267   31.6421   70.4356 O   0  0  0  0  0  0  0  0  0  0  0  0
   17.3171   31.4114   72.1540 N   0  0  0  0  0  0  0  0  0  0  0  0
   17.0227   31.7351   73.0975 H   0  0  0  0  0  0  0  0  0  0  0  0
   16.5756   30.3739   71.4787 C   0  0  0  0  0  0  0  0  0  0  0  0
   15.1723   30.8418   71.1979 C   0  0  0  0  0  0  0  0  0  0  0  0
   14.4546   31.6547   72.2166 C   0  0  0  0  0  0  0  0  0  0  0  0
   14.0748   30.2364   72.0218 C   0  0  0  0  0  0  0  0  0  0  0  0
  1  2  1  0  0  0
  2  3  2  0  0  0
  2  7  1  0  0  0
  3  4  1  0  0  0
  4  5  2  0  0  0
  4 15  1  0  0  0
  5  6  1  0  0  0
  5  8  1  0  0  0
  6  7  2  0  0  0
  8  9  2  0  0  0
  8 12  1  0  0  0
  9 10  1  0  0  0
 10 11  1  0  0  0
 11 12  1  0  0  0
 12 13  1  0  0  0
 13 14  2  0  0  0
 13 15  1  0  0  0
 15 16  1  0  0  0
 16 17  1  0  0  0
 17 18  2  0  0  0
 17 19  1  0  0  0
 19 21  1  0  0  0
 21 22  1  0  0  0
 22 23  1  0  0  0
 22 24  1  0  0  0
 23 24  1  0  0  0
 19 20  1  0  0  0
M  END
> <minimizedAffinity>
-7.72503

$$$$
1956


 35 38  0  0  0  0  0  0  0  0999 V2000
   21.1788   35.8080   70.7406 C   0  0  0  0  0  0  0  0  0  0  0  0
   21.0285   34.5174   70.9875 C   0  0  0  0  0  0  0  0  0  0  0  0
   20.3545   33.9339   72.2037 C   0  0  0  0  0  0  0  0  0  0  0  0
   20.7041   32.5427   72.2054 N   0  0  0  0  0  0  0  0  0  0  0  0
   21.2971   32.1727   70.9692 C   0  0  0  0  0  0  0  0  0  0  0  0
   21.5899   31.0279   70.5946 O   0  0  0  0  0  0  0  0  0  0  0  0
   21.5030   33.4232   70.2018 C   0  0  0  0  0  0  0  0  0  0  0  0
   22.0142   33.4737   69.0584 O   0  0  0  0  0  0  0  0  0  0  0  0
   20.6604   36.6907   71.7178 O   0  0  0  0  0  0  0  0  0  0  0  0
   23.7494   37.7910   65.6625 Cl  0  0  0  0  0  0  0  0  0  0  0  0
   22.9777   37.2299   67.1281 C   0  0  0  0  0  0  0  0  0  0  0  0
   21.6154   37.0976   67.2526 C   0  0  0  0  0  0  0  0  0  0  0  0
   21.0567   36.6507   68.4319 C   0  0  0  0  0  0  0  0  0  0  0  0
   21.8291   36.3124   69.5517 C   0  0  0  0  0  0  0  0  0  0  0  0
   23.1878   36.4527   69.3973 C   0  0  0  0  0  0  0  0  0  0  0  0
   23.7588   36.9068   68.2007 C   0  0  0  0  0  0  0  0  0  0  0  0
   18.8968   34.1849   72.0385 C   0  0  0  0  0  0  0  0  0  0  0  0
   18.4053   34.5878   70.8303 C   0  0  0  0  0  0  0  0  0  0  0  0
   17.0647   34.8033   70.6843 C   0  0  0  0  0  0  0  0  0  0  0  0
   16.1828   34.6258   71.7281 C   0  0  0  0  0  0  0  0  0  0  0  0
   16.6787   34.2184   72.9527 C   0  0  0  0  0  0  0  0  0  0  0  0
   18.0410   34.0003   73.0954 C   0  0  0  0  0  0  0  0  0  0  0  0
   14.8186   34.8479   71.5713 O   0  0  0  0  0  0  0  0  0  0  0  0
   13.9596   33.7071   71.4309 C   0  0  0  0  0  0  0  0  0  0  0  0
   13.5949   33.5477   69.9571 C   0  0  0  0  0  0  0  0  0  0  0  0
   13.0071   34.8752   69.5001 C   0  0  0  0  0  0  0  0  0  0  0  0
   20.4993   31.6257   73.3219 C   0  0  0  0  0  0  0  0  0  0  0  0
   19.8373   30.3823   72.8369 C   0  0  0  0  0  0  0  0  0  0  0  0
   18.3899   30.4021   73.1055 N   0  0  0  0  0  0  0  0  0  0  0  0
   18.0160   29.1149   73.6050 C   0  0  0  0  0  0  0  0  0  0  0  0
   16.5061   28.8964   73.5423 C   0  0  0  0  0  0  0  0  0  0  0  0
   16.1436   29.0605   72.1932 O   0  0  0  0  0  0  0  0  0  0  0  0
   16.2757   30.4006   71.8952 C   0  0  0  0  0  0  0  0  0  0  0  0
   17.7488   30.7541   71.8574 C   0  0  0  0  0  0  0  0  0  0  0  0
   18.1614   31.1341   73.8278 H   0  0  0  0  0  0  0  0  0  0  0  0
 10 11  1  0  0  0
 11 12  2  0  0  0
 11 16  1  0  0  0
 12 13  1  0  0  0
 13 14  2  0  0  0
 14 15  1  0  0  0
 14  1  1  0  0  0
 15 16  2  0  0  0
  1  2  2  0  0  0
  1  9  1  0  0  0
  2  3  1  0  0  0
  2  7  1  0  0  0
  3  4  1  0  0  0
  3 17  1  0  0  0
  4  5  1  0  0  0
  4 27  1  0  0  0
  5  6  2  0  0  0
  5  7  1  0  0  0
  7  8  2  0  0  0
 27 28  1  0  0  0
 28 29  1  0  0  0
 29 30  1  0  0  0
 29 34  1  0  0  0
 30 31  1  0  0  0
 31 32  1  0  0  0
 32 33  1  0  0  0
 33 34  1  0  0  0
 17 18  2  0  0  0
 17 22  1  0  0  0
 18 19  1  0  0  0
 19 20  2  0  0  0
 20 21  1  0  0  0
 20 23  1  0  0  0
 21 22  2  0  0  0
 23 24  1  0  0  0
 24 25  1  0  0  0
 25 26  1  0  0  0
 29 35  1  0  0  0
M  CHG 1   9  -1
M  CHG 1  29   1
M  END
> <minimizedAffinity>
-8.37976

$$$$
1957


 36 40  0  0  0  0  0  0  0  0999 V2000
   15.4964   30.5776   73.2574 C   0  0  0  0  0  0  0  0  0  0  0  0
   14.8604   31.8505   72.9428 N   0  0  0  0  0  0  0  0  0  0  0  0
   15.7178   32.5191   71.9845 C   0  0  0  0  0  0  0  0  0  0  0  0
   16.2869   31.3727   71.1996 C   0  0  0  0  0  0  0  0  0  0  0  0
   16.4848   30.2739   72.1951 C   0  0  0  0  0  0  0  0  0  0  0  0
   17.8970   30.3872   72.6528 C   0  0  0  0  0  0  0  0  0  0  0  0
   18.4034   29.8351   73.6583 O   0  0  0  0  0  0  0  0  0  0  0  0
   18.5623   31.2559   71.7097 N   0  0  0  0  0  0  0  0  0  0  0  0
   17.6497   31.6019   70.6888 C   0  0  0  0  0  0  0  0  0  0  0  0
   17.9224   32.0321   69.5414 O   0  0  0  0  0  0  0  0  0  0  0  0
   14.9602   33.4542   71.1175 C   0  0  0  0  0  0  0  0  0  0  0  0
   15.4692   34.7097   71.3515 C   0  0  0  0  0  0  0  0  0  0  0  0
   14.9363   35.7887   70.6596 C   0  0  0  0  0  0  0  0  0  0  0  0
   13.9181   35.5741   69.7610 C   0  0  0  0  0  0  0  0  0  0  0  0
   13.3994   34.3137   69.5174 C   0  0  0  0  0  0  0  0  0  0  0  0
   13.9374   33.2509   70.2125 C   0  0  0  0  0  0  0  0  0  0  0  0
   16.5195   34.6661   72.3346 N   0  0  0  0  0  0  0  0  0  0  0  0
   16.6735   33.3162   72.7331 C   0  0  0  0  0  0  0  0  0  0  0  0
   17.4969   32.9348   73.5808 O   0  0  0  0  0  0  0  0  0  0  0  0
   14.7262   32.4077   73.7934 H   0  0  0  0  0  0  0  0  0  0  0  0
   17.0383   35.5157   72.6537 H   0  0  0  0  0  0  0  0  0  0  0  0
   14.3770   29.5782   73.3740 C   0  0  0  0  0  0  0  0  0  0  0  0
   13.3160   29.8292   72.5435 O   0  0  0  0  0  0  0  0  0  0  0  0
   13.6103   29.6667   71.6109 H   0  0  0  0  0  0  0  0  0  0  0  0
   12.4034   28.8561   79.0677 Cl  0  0  0  0  0  0  0  0  0  0  0  0
   12.9807   29.0699   77.4236 C   0  0  0  0  0  0  0  0  0  0  0  0
   14.3024   28.8666   77.0772 C   0  0  0  0  0  0  0  0  0  0  0  0
   14.7427   29.0363   75.7907 C   0  0  0  0  0  0  0  0  0  0  0  0
   13.8760   29.4221   74.7692 C   0  0  0  0  0  0  0  0  0  0  0  0
   12.5591   29.6268   75.1009 C   0  0  0  0  0  0  0  0  0  0  0  0
   12.1432   29.4498   76.3989 C   0  0  0  0  0  0  0  0  0  0  0  0
   19.9222   31.6972   71.8119 C   0  0  0  0  0  0  0  0  0  0  0  0
   20.2596   32.9404   71.0779 C   0  0  0  0  0  0  0  0  0  0  0  0
   20.4101   34.1788   71.8896 C   0  0  0  0  0  0  0  0  0  0  0  0
   19.3902   35.0988   71.6852 O   0  0  0  0  0  0  0  0  0  0  0  0
   19.4466   35.5700   70.3567 C   0  0  0  0  0  0  0  0  0  0  0  0
 25 26  1  0  0  0
 26 27  2  0  0  0
 26 31  1  0  0  0
 27 28  1  0  0  0
 28 29  2  0  0  0
 29 30  1  0  0  0
 29 22  1  0  0  0
 30 31  2  0  0  0
 22 23  1  0  0  0
 22  1  1  0  0  0
  1  2  1  0  0  0
  1  5  1  0  0  0
  2  3  1  0  0  0
  3  4  1  0  0  0
  3 11  1  0  0  0
  3 18  1  0  0  0
  4  5  1  0  0  0
  4  9  1  0  0  0
  5  6  1  0  0  0
  6  7  2  0  0  0
  6  8  1  0  0  0
  8  9  1  0  0  0
  8 32  1  0  0  0
  9 10  2  0  0  0
 32 33  1  0  0  0
 33 34  1  0  0  0
 34 35  1  0  0  0
 35 36  1  0  0  0
 11 12  1  0  0  0
 11 16  2  0  0  0
 12 13  2  0  0  0
 12 17  1  0  0  0
 13 14  1  0  0  0
 14 15  2  0  0  0
 15 16  1  0  0  0
 17 18  1  0  0  0
 18 19  2  0  0  0
 23 24  1  0  0  0
  2 20  1  0  0  0
 17 21  1  0  0  0
M  END
> <minimizedAffinity>
-8.88773

$$$$
1958


 28 31  0  0  0  0  0  0  0  0999 V2000
   17.8291   32.1970   70.6235 C   0  0  0  0  0  0  0  0  0  0  0  0
   17.8398   31.6884   69.4492 O   0  0  0  0  0  0  0  0  0  0  0  0
   19.0007   32.6559   71.2422 N   0  0  0  0  0  0  0  0  0  0  0  0
   18.9961   33.2248   72.5525 C   0  0  0  0  0  0  0  0  0  0  0  0
   20.1127   34.1969   72.8107 C   0  0  0  0  0  0  0  0  0  0  0  0
   20.5902   34.7776   71.5326 C   0  0  0  0  0  0  0  0  0  0  0  0
   20.6803   34.0003   70.3928 C   0  0  0  0  0  0  0  0  0  0  0  0
   21.1156   34.5133   69.2366 N   0  0  0  0  0  0  0  0  0  0  0  0
   21.4899   35.8038   69.1053 C   0  0  0  0  0  0  0  0  0  0  0  0
   21.4031   36.5695   70.2195 N   0  0  0  0  0  0  0  0  0  0  0  0
   20.9725   36.1001   71.4031 C   0  0  0  0  0  0  0  0  0  0  0  0
   20.8957   36.9119   72.5256 O   0  0  0  0  0  0  0  0  0  0  0  0
   20.2534   32.5595   70.5457 C   0  0  0  0  0  0  0  0  0  0  0  0
   20.2422   37.6971   72.5856 H   0  0  0  0  0  0  0  0  0  0  0  0
   21.9379   36.2942   67.8669 N   0  0  0  0  0  0  0  0  0  0  0  0
   23.1584   35.8157   67.2890 C   0  0  0  0  0  0  0  0  0  0  0  0
   23.0508   36.0781   65.7798 C   0  0  0  0  0  0  0  0  0  0  0  0
   22.9505   37.4211   65.5157 O   0  0  0  0  0  0  0  0  0  0  0  0
   22.0442   38.1180   66.2677 C   0  0  0  0  0  0  0  0  0  0  0  0
   21.1743   37.2840   67.1671 C   0  0  0  0  0  0  0  0  0  0  0  0
   16.4975   32.2774   71.3053 C   0  0  0  0  0  0  0  0  0  0  0  0
   13.1867   36.9145   69.3259 Cl  0  0  0  0  0  0  0  0  0  0  0  0
   14.1559   35.5759   69.9014 C   0  0  0  0  0  0  0  0  0  0  0  0
   15.4864   35.7665   70.2603 C   0  0  0  0  0  0  0  0  0  0  0  0
   16.2390   34.7042   70.7121 C   0  0  0  0  0  0  0  0  0  0  0  0
   15.7214   33.4317   70.8250 C   0  0  0  0  0  0  0  0  0  0  0  0
   14.4044   33.2351   70.4716 C   0  0  0  0  0  0  0  0  0  0  0  0
   13.6506   34.2953   70.0206 C   0  0  0  0  0  0  0  0  0  0  0  0
 22 23  1  0  0  0
 23 24  2  0  0  0
 23 28  1  0  0  0
 24 25  1  0  0  0
 25 26  2  0  0  0
 26 27  1  0  0  0
 26 21  1  0  0  0
 27 28  2  0  0  0
 21  1  1  0  0  0
  1  2  2  0  0  0
  1  3  1  0  0  0
  3  4  1  0  0  0
  3 13  1  0  0  0
  4  5  1  0  0  0
  5  6  1  0  0  0
  6  7  2  0  0  0
  6 11  1  0  0  0
  7  8  1  0  0  0
  7 13  1  0  0  0
  8  9  2  0  0  0
  9 10  1  0  0  0
  9 15  1  0  0  0
 10 11  2  0  0  0
 11 12  1  0  0  0
 15 16  1  0  0  0
 15 20  1  0  0  0
 16 17  1  0  0  0
 17 18  1  0  0  0
 18 19  1  0  0  0
 19 20  1  0  0  0
 12 14  1  0  0  0
M  END
> <minimizedAffinity>
-8.84286

$$$$
1960


 28 31  0  0  0  0  0  0  0  0999 V2000
   18.1293   32.5511   71.2044 C   0  0  0  0  0  0  0  0  0  0  0  0
   17.9469   31.8966   70.1441 O   0  0  0  0  0  0  0  0  0  0  0  0
   19.4359   32.9409   71.5382 N   0  0  0  0  0  0  0  0  0  0  0  0
   20.5772   32.5946   70.6729 C   0  0  0  0  0  0  0  0  0  0  0  0
   21.5402   33.7720   70.6678 C   0  0  0  0  0  0  0  0  0  0  0  0
   20.7485   34.9578   70.9266 N   0  0  0  0  0  0  0  0  0  0  0  0
   20.2701   35.1006   72.2912 C   0  0  0  0  0  0  0  0  0  0  0  0
   19.7940   33.7038   72.7257 C   0  0  0  0  0  0  0  0  0  0  0  0
   20.4515   35.9020   69.9099 C   0  0  0  0  0  0  0  0  0  0  0  0
   19.2899   36.6493   69.9761 C   0  0  0  0  0  0  0  0  0  0  0  0
   19.0221   37.5412   68.9782 N   0  0  0  0  0  0  0  0  0  0  0  0
   19.8224   37.7251   67.9463 N   0  0  0  0  0  0  0  0  0  0  0  0
   20.9886   37.0199   67.8173 C   0  0  0  0  0  0  0  0  0  0  0  0
   21.2516   36.1313   68.8155 C   0  0  0  0  0  0  0  0  0  0  0  0
   21.7974   37.2649   66.6856 N   0  0  0  0  0  0  0  0  0  0  0  0
   22.3755   36.1692   65.9301 C   0  0  0  0  0  0  0  0  0  0  0  0
   23.8417   36.4587   65.6052 C   0  0  0  0  0  0  0  0  0  0  0  0
   24.0108   37.7371   65.1119 O   0  0  0  0  0  0  0  0  0  0  0  0
   23.6368   38.6323   66.1025 C   0  0  0  0  0  0  0  0  0  0  0  0
   22.1025   38.5924   66.2180 C   0  0  0  0  0  0  0  0  0  0  0  0
   16.9429   32.8632   72.0240 C   0  0  0  0  0  0  0  0  0  0  0  0
   13.2802   36.7871   69.2732 Cl  0  0  0  0  0  0  0  0  0  0  0  0
   14.3413   35.6636   70.0664 C   0  0  0  0  0  0  0  0  0  0  0  0
   14.0043   34.3128   70.1681 C   0  0  0  0  0  0  0  0  0  0  0  0
   14.8537   33.4242   70.8014 C   0  0  0  0  0  0  0  0  0  0  0  0
   16.0599   33.8523   71.3500 C   0  0  0  0  0  0  0  0  0  0  0  0
   16.3937   35.1747   71.2531 C   0  0  0  0  0  0  0  0  0  0  0  0
   15.5361   36.0693   70.6133 C   0  0  0  0  0  0  0  0  0  0  0  0
 22 23  1  0  0  0
 23 24  2  0  0  0
 23 28  1  0  0  0
 24 25  1  0  0  0
 25 26  2  0  0  0
 26 27  1  0  0  0
 26 21  1  0  0  0
 27 28  2  0  0  0
 21  1  1  0  0  0
  1  2  2  0  0  0
  1  3  1  0  0  0
  3  4  1  0  0  0
  3  8  1  0  0  0
  4  5  1  0  0  0
  5  6  1  0  0  0
  6  7  1  0  0  0
  6  9  1  0  0  0
  7  8  1  0  0  0
  9 10  2  0  0  0
  9 14  1  0  0  0
 10 11  1  0  0  0
 11 12  2  0  0  0
 12 13  1  0  0  0
 13 14  2  0  0  0
 13 15  1  0  0  0
 15 16  1  0  0  0
 15 20  1  0  0  0
 16 17  1  0  0  0
 17 18  1  0  0  0
 18 19  1  0  0  0
 19 20  1  0  0  0
M  END
> <minimizedAffinity>
-9.37215

$$$$
1966


 27 30  0  0  0  0  0  0  0  0999 V2000
   14.4740   35.9384   70.1029 C   0  0  0  0  0  0  0  0  0  0  0  0
   13.3498   36.1191   69.4919 O   0  0  0  0  0  0  0  0  0  0  0  0
   15.4600   36.8879   70.1984 N   0  0  0  0  0  0  0  0  0  0  0  0
   14.7041   37.7665   69.4733 H   0  0  0  0  0  0  0  0  0  0  0  0
   16.1867   34.8037   72.4649 F   0  0  0  0  0  0  0  0  0  0  0  0
   15.2972   34.1022   71.7205 C   0  0  0  0  0  0  0  0  0  0  0  0
   15.0542   32.7740   71.9404 N   0  0  0  0  0  0  0  0  0  0  0  0
   14.1357   32.4257   71.0253 C   0  0  0  0  0  0  0  0  0  0  0  0
   13.8276   33.4954   70.2741 N   0  0  0  0  0  0  0  0  0  0  0  0
   14.5351   34.5681   70.6787 C   0  0  0  0  0  0  0  0  0  0  0  0
   13.7105   31.1197   71.0272 C   0  0  0  0  0  0  0  0  0  0  0  0
   14.1962   30.1743   71.9325 C   0  0  0  0  0  0  0  0  0  0  0  0
   15.1321   30.5671   72.8515 C   0  0  0  0  0  0  0  0  0  0  0  0
   15.5464   31.8941   72.8281 C   0  0  0  0  0  0  0  0  0  0  0  0
   15.7855   29.4277   74.0282 Cl  0  0  0  0  0  0  0  0  0  0  0  0
   16.4404   37.8314   70.2923 C   0  0  0  0  0  0  0  0  0  0  0  0
   17.3410   37.9585   69.0894 C   0  0  0  0  0  0  0  0  0  0  0  0
   18.5459   37.3989   68.9544 N   0  0  0  0  0  0  0  0  0  0  0  0
   19.0169   37.7373   67.7663 N   0  0  0  0  0  0  0  0  0  0  0  0
   18.1463   38.4968   67.1372 N   0  0  0  0  0  0  0  0  0  0  0  0
   17.1095   38.6290   67.9652 N   0  0  0  0  0  0  0  0  0  0  0  0
   19.1378   36.5814   69.9659 C   0  0  0  0  0  0  0  0  0  0  0  0
   20.2875   37.0478   70.5945 C   0  0  0  0  0  0  0  0  0  0  0  0
   20.9226   36.2938   71.5737 C   0  0  0  0  0  0  0  0  0  0  0  0
   20.4343   35.0597   71.9529 C   0  0  0  0  0  0  0  0  0  0  0  0
   19.2942   34.6043   71.3259 C   0  0  0  0  0  0  0  0  0  0  0  0
   18.6598   35.3521   70.3500 C   0  0  0  0  0  0  0  0  0  0  0  0
  5  6  1  0  0  0
  6  7  1  0  0  0
  6 10  2  0  0  0
  7  8  1  0  0  0
  7 14  1  0  0  0
  8  9  2  0  0  0
  8 11  1  0  0  0
  9 10  1  0  0  0
 10  1  1  0  0  0
  1  2  2  0  0  0
  1  3  1  0  0  0
  3 16  1  0  0  0
 16 17  1  0  0  0
 17 18  1  0  0  0
 17 21  2  0  0  0
 18 19  1  0  0  0
 18 22  1  0  0  0
 19 20  2  0  0  0
 20 21  1  0  0  0
 22 23  2  0  0  0
 22 27  1  0  0  0
 23 24  1  0  0  0
 24 25  2  0  0  0
 25 26  1  0  0  0
 26 27  2  0  0  0
 11 12  2  0  0  0
 12 13  1  0  0  0
 13 14  2  0  0  0
 13 15  1  0  0  0
  3  4  1  0  0  0
M  END
> <minimizedAffinity>
-8.92344

$$$$
1969


 26 29  0  0  0  0  0  0  0  0999 V2000
   20.8278   33.3313   70.6330 C   0  0  0  0  0  0  0  0  0  0  0  0
   21.6085   32.7318   69.6496 O   0  0  0  0  0  0  0  0  0  0  0  0
   21.2134   34.6118   70.8478 N   0  0  0  0  0  0  0  0  0  0  0  0
   20.6690   35.6500   71.6718 C   0  0  0  0  0  0  0  0  0  0  0  0
   21.0621   37.0223   71.0870 C   0  0  0  0  0  0  0  0  0  0  0  0
   21.1031   36.7864   69.6368 N   0  0  0  0  0  0  0  0  0  0  0  0
   22.1674   36.0060   69.0984 C   0  0  0  0  0  0  0  0  0  0  0  0
   22.4858   35.0044   70.1616 C   0  0  0  0  0  0  0  0  0  0  0  0
   20.0507   37.2252   68.8416 C   0  0  0  0  0  0  0  0  0  0  0  0
   18.7727   37.4160   69.3794 N   0  0  0  0  0  0  0  0  0  0  0  0
   17.7400   37.8416   68.7414 C   0  0  0  0  0  0  0  0  0  0  0  0
   17.7976   38.1841   67.3815 C   0  0  0  0  0  0  0  0  0  0  0  0
   19.0605   37.9914   66.8370 C   0  0  0  0  0  0  0  0  0  0  0  0
   20.0498   37.5593   67.5245 N   0  0  0  0  0  0  0  0  0  0  0  0
   17.4826   32.4148   71.0457 N   0  0  0  0  0  0  0  0  0  0  0  0
   17.9769   31.2432   71.3835 N   0  0  0  0  0  0  0  0  0  0  0  0
   19.1526   31.3639   71.2923 N   0  0  0  0  0  0  0  0  0  0  0  0
   19.9151   32.2607   70.9925 C   0  0  0  0  0  0  0  0  0  0  0  0
   18.5115   33.1755   70.7825 C   0  0  0  0  0  0  0  0  0  0  0  0
   13.1614   34.8643   69.3604 Cl  0  0  0  0  0  0  0  0  0  0  0  0
   14.0428   33.7085   70.3091 C   0  0  0  0  0  0  0  0  0  0  0  0
   15.4227   33.5562   70.2659 C   0  0  0  0  0  0  0  0  0  0  0  0
   16.0546   32.6436   71.0371 C   0  0  0  0  0  0  0  0  0  0  0  0
   15.2594   31.8759   71.8639 C   0  0  0  0  0  0  0  0  0  0  0  0
   13.9122   31.9789   71.9495 C   0  0  0  0  0  0  0  0  0  0  0  0
   13.2637   32.8891   71.1888 C   0  0  0  0  0  0  0  0  0  0  0  0
 20 21  1  0  0  0
 21 22  2  0  0  0
 21 26  1  0  0  0
 22 23  1  0  0  0
 23 24  2  0  0  0
 23 15  1  0  0  0
 24 25  1  0  0  0
 25 26  2  0  0  0
 15 16  1  0  0  0
 15 19  1  0  0  0
 16 17  2  0  0  0
 17 18  1  0  0  0
 18 19  2  0  0  0
 18  1  1  0  0  0
  1  2  2  0  0  0
  1  3  1  0  0  0
  3  4  1  0  0  0
  3  8  1  0  0  0
  4  5  1  0  0  0
  5  6  1  0  0  0
  6  7  1  0  0  0
  6  9  1  0  0  0
  7  8  1  0  0  0
  9 10  2  0  0  0
  9 14  1  0  0  0
 10 11  1  0  0  0
 11 12  2  0  0  0
 12 13  1  0  0  0
 13 14  2  0  0  0
M  END
> <minimizedAffinity>
-8.93303

$$$$
1971


 22 25  0  0  0  0  0  0  0  0999 V2000
   17.4387   33.4598   70.7309 N   0  0  0  0  0  0  0  0  0  0  0  0
   18.4150   32.4260   70.5044 C   0  0  0  0  0  0  0  0  0  0  0  0
   18.1581   31.1995   70.4686 O   0  0  0  0  0  0  0  0  0  0  0  0
   19.7347   33.0254   70.3256 C   0  0  0  0  0  0  0  0  0  0  0  0
   20.6829   32.8328   71.4627 C   0  0  0  0  0  0  0  0  0  0  0  0
   21.5114   33.9706   71.2914 O   0  0  0  0  0  0  0  0  0  0  0  0
   20.4909   34.9410   71.4652 C   0  0  0  0  0  0  0  0  0  0  0  0
   19.5282   34.5480   70.3721 C   0  0  0  0  0  0  0  0  0  0  0  0
   18.1439   34.6922   70.8276 C   0  0  0  0  0  0  0  0  0  0  0  0
   17.6246   35.7540   71.2502 O   0  0  0  0  0  0  0  0  0  0  0  0
   19.9153   34.5013   72.7535 C   0  0  0  0  0  0  0  0  0  0  0  0
   20.0699   33.1575   72.7698 C   0  0  0  0  0  0  0  0  0  0  0  0
   12.6874   34.7264   69.0633 Cl  0  0  0  0  0  0  0  0  0  0  0  0
   13.7824   33.8695   70.1260 C   0  0  0  0  0  0  0  0  0  0  0  0
   15.1500   33.9999   70.0121 C   0  0  0  0  0  0  0  0  0  0  0  0
   16.0273   33.3274   70.8479 C   0  0  0  0  0  0  0  0  0  0  0  0
   15.4698   32.5101   71.8110 C   0  0  0  0  0  0  0  0  0  0  0  0
   14.0921   32.3780   71.9265 C   0  0  0  0  0  0  0  0  0  0  0  0
   13.2264   33.0531   71.0900 C   0  0  0  0  0  0  0  0  0  0  0  0
   21.4637   31.5668   71.4327 C   0  0  0  0  0  0  0  0  0  0  0  0
   21.2258   30.9064   70.2342 O   0  0  0  0  0  0  0  0  0  0  0  0
   20.5741   31.4071   69.6911 H   0  0  0  0  0  0  0  0  0  0  0  0
 13 14  1  0  0  0
 14 15  2  0  0  0
 14 19  1  0  0  0
 15 16  1  0  0  0
 16 17  2  0  0  0
 16  1  1  0  0  0
 17 18  1  0  0  0
 18 19  2  0  0  0
  1  2  1  0  0  0
  1  9  1  0  0  0
  2  3  2  0  0  0
  2  4  1  0  0  0
  4  5  1  0  0  0
  4  8  1  0  0  0
  5  6  1  0  0  0
  5 12  1  0  0  0
  5 20  1  0  0  0
  6  7  1  0  0  0
  7  8  1  0  0  0
  7 11  1  0  0  0
  8  9  1  0  0  0
  9 10  2  0  0  0
 11 12  2  0  0  0
 20 21  1  0  0  0
 21 22  1  0  0  0
M  END
> <minimizedAffinity>
-8.10910

$$$$
1973


 24 27  0  0  0  0  0  0  0  0999 V2000
   13.1018   36.8544   69.5722 Cl  0  0  0  0  0  0  0  0  0  0  0  0
   14.6547   36.1924   70.0812 C   0  0  0  0  0  0  0  0  0  0  0  0
   15.8482   36.8191   69.7875 C   0  0  0  0  0  0  0  0  0  0  0  0
   17.0510   36.3266   70.1703 N   0  0  0  0  0  0  0  0  0  0  0  0
   17.1543   35.1805   70.8685 C   0  0  0  0  0  0  0  0  0  0  0  0
   18.3514   34.6708   71.2608 N   0  0  0  0  0  0  0  0  0  0  0  0
   19.5197   35.2754   70.9785 C   0  0  0  0  0  0  0  0  0  0  0  0
   19.4303   36.4614   70.2570 C   0  0  0  0  0  0  0  0  0  0  0  0
   20.7199   37.1305   69.9438 C   0  0  0  0  0  0  0  0  0  0  0  0
   21.6058   36.0587   69.4750 N   0  0  0  0  0  0  0  0  0  0  0  0
   21.9169   35.0031   70.3970 C   0  0  0  0  0  0  0  0  0  0  0  0
   20.8345   34.7303   71.4030 C   0  0  0  0  0  0  0  0  0  0  0  0
   22.1197   36.0739   68.1597 C   0  0  0  0  0  0  0  0  0  0  0  0
   21.7698   37.0496   67.4131 O   0  0  0  0  0  0  0  0  0  0  0  0
   18.2028   36.9545   69.8730 C   0  0  0  0  0  0  0  0  0  0  0  0
   18.1482   38.0424   69.2132 O   0  0  0  0  0  0  0  0  0  0  0  0
   15.9672   34.5350   71.1731 C   0  0  0  0  0  0  0  0  0  0  0  0
   14.7306   35.0159   70.7956 C   0  0  0  0  0  0  0  0  0  0  0  0
   23.0252   35.0264   67.6375 C   0  0  0  0  0  0  0  0  0  0  0  0
   24.3149   34.9408   68.4238 C   0  0  0  0  0  0  0  0  0  0  0  0
   24.7361   36.3809   68.6856 C   0  0  0  0  0  0  0  0  0  0  0  0
   24.4592   37.1721   67.5720 O   0  0  0  0  0  0  0  0  0  0  0  0
   24.5676   36.4387   66.3826 C   0  0  0  0  0  0  0  0  0  0  0  0
   23.4405   35.4370   66.2169 C   0  0  0  0  0  0  0  0  0  0  0  0
  1  2  1  0  0  0
  2  3  2  0  0  0
  2 18  1  0  0  0
  3  4  1  0  0  0
  4  5  1  0  0  0
  4 15  1  0  0  0
  5  6  2  0  0  0
  5 17  1  0  0  0
  6  7  1  0  0  0
  7  8  2  0  0  0
  7 12  1  0  0  0
  8  9  1  0  0  0
  8 15  1  0  0  0
  9 10  1  0  0  0
 10 11  1  0  0  0
 10 13  1  0  0  0
 11 12  1  0  0  0
 13 14  2  0  0  0
 13 19  1  0  0  0
 19 20  1  0  0  0
 19 24  1  0  0  0
 20 21  1  0  0  0
 21 22  1  0  0  0
 22 23  1  0  0  0
 23 24  1  0  0  0
 15 16  2  0  0  0
 17 18  2  0  0  0
M  END
> <minimizedAffinity>
-8.37276

$$$$
1974


 26 29  0  0  0  0  0  0  0  0999 V2000
   20.6078   34.7067   70.9748 F   0  0  0  0  0  0  0  0  0  0  0  0
   19.2660   34.8071   71.1318 C   0  0  0  0  0  0  0  0  0  0  0  0
   18.5879   35.7752   70.4068 C   0  0  0  0  0  0  0  0  0  0  0  0
   17.2242   35.9359   70.5154 C   0  0  0  0  0  0  0  0  0  0  0  0
   16.5451   35.0939   71.3795 C   0  0  0  0  0  0  0  0  0  0  0  0
   17.2160   34.1329   72.0990 C   0  0  0  0  0  0  0  0  0  0  0  0
   18.5781   33.9778   71.9861 C   0  0  0  0  0  0  0  0  0  0  0  0
   14.8077   35.2945   71.5216 Cl  0  0  0  0  0  0  0  0  0  0  0  0
   16.7509   37.0069   69.6628 C   0  0  0  0  0  0  0  0  0  0  0  0
   15.5799   37.4237   69.5116 O   0  0  0  0  0  0  0  0  0  0  0  0
   17.9382   37.5223   68.9932 C   0  0  0  0  0  0  0  0  0  0  0  0
   17.9520   38.4761   68.1537 O   0  0  0  0  0  0  0  0  0  0  0  0
   19.0429   36.7625   69.4577 N   0  0  0  0  0  0  0  0  0  0  0  0
   20.4298   36.9182   69.0701 C   0  0  0  0  0  0  0  0  0  0  0  0
   20.6999   36.4845   67.7156 N   0  0  0  0  0  0  0  0  0  0  0  0
   21.3666   37.5008   66.9763 C   0  0  0  0  0  0  0  0  0  0  0  0
   22.5069   37.0427   66.1371 C   0  0  0  0  0  0  0  0  0  0  0  0
   23.3073   36.0188   66.7565 N   0  0  0  0  0  0  0  0  0  0  0  0
   22.7520   35.2911   67.8738 C   0  0  0  0  0  0  0  0  0  0  0  0
   21.2629   35.1802   67.6244 C   0  0  0  0  0  0  0  0  0  0  0  0
   24.6104   35.7018   66.3105 C   0  0  0  0  0  0  0  0  0  0  0  0
   25.6586   35.7089   67.1508 N   0  0  0  0  0  0  0  0  0  0  0  0
   26.9101   35.4112   66.7500 C   0  0  0  0  0  0  0  0  0  0  0  0
   27.1621   35.0813   65.4321 C   0  0  0  0  0  0  0  0  0  0  0  0
   26.1183   35.0717   64.5875 N   0  0  0  0  0  0  0  0  0  0  0  0
   24.8670   35.3693   64.9864 C   0  0  0  0  0  0  0  0  0  0  0  0
  1  2  1  0  0  0
  2  3  2  0  0  0
  2  7  1  0  0  0
  3  4  1  0  0  0
  3 13  1  0  0  0
  4  5  2  0  0  0
  4  9  1  0  0  0
  5  6  1  0  0  0
  5  8  1  0  0  0
  6  7  2  0  0  0
  9 10  2  0  0  0
  9 11  1  0  0  0
 11 12  2  0  0  0
 11 13  1  0  0  0
 13 14  1  0  0  0
 14 15  1  0  0  0
 15 16  1  0  0  0
 15 20  1  0  0  0
 16 17  1  0  0  0
 17 18  1  0  0  0
 18 19  1  0  0  0
 18 21  1  0  0  0
 19 20  1  0  0  0
 21 22  2  0  0  0
 21 26  1  0  0  0
 22 23  1  0  0  0
 23 24  2  0  0  0
 24 25  1  0  0  0
 25 26  2  0  0  0
M  END
> <minimizedAffinity>
-8.32543

$$$$
1976


 26 29  0  0  0  0  0  0  0  0999 V2000
   15.5166   33.4175   71.2370 C   0  0  0  0  0  0  0  0  0  0  0  0
   14.8398   33.2513   70.1631 O   0  0  0  0  0  0  0  0  0  0  0  0
   16.1323   32.3284   71.9080 N   0  0  0  0  0  0  0  0  0  0  0  0
   16.8749   32.5733   73.0938 C   0  0  0  0  0  0  0  0  0  0  0  0
   18.2224   31.8513   72.9675 C   0  0  0  0  0  0  0  0  0  0  0  0
   17.8134   30.3947   72.9117 C   0  0  0  0  0  0  0  0  0  0  0  0
   16.7245   30.0266   72.1489 C   0  0  0  0  0  0  0  0  0  0  0  0
   16.3658   28.7113   72.1228 N   0  0  0  0  0  0  0  0  0  0  0  0
   17.0279   27.7651   72.8069 C   0  0  0  0  0  0  0  0  0  0  0  0
   18.0868   28.1415   73.5457 N   0  0  0  0  0  0  0  0  0  0  0  0
   18.4965   29.4431   73.6125 C   0  0  0  0  0  0  0  0  0  0  0  0
   19.5850   29.8327   74.3716 O   0  0  0  0  0  0  0  0  0  0  0  0
   15.9670   31.0223   71.3655 C   0  0  0  0  0  0  0  0  0  0  0  0
   20.4052   30.1759   73.8858 H   0  0  0  0  0  0  0  0  0  0  0  0
   15.6353   34.8162   71.7614 C   0  0  0  0  0  0  0  0  0  0  0  0
   14.8576   37.4198   70.4710 Cl  0  0  0  0  0  0  0  0  0  0  0  0
   16.4705   36.7627   70.3922 C   0  0  0  0  0  0  0  0  0  0  0  0
   17.4899   37.4206   69.7222 C   0  0  0  0  0  0  0  0  0  0  0  0
   18.7738   36.9129   69.6495 C   0  0  0  0  0  0  0  0  0  0  0  0
   19.0225   35.7070   70.2774 C   0  0  0  0  0  0  0  0  0  0  0  0
   17.9941   35.0648   70.9411 C   0  0  0  0  0  0  0  0  0  0  0  0
   16.7035   35.5569   71.0241 C   0  0  0  0  0  0  0  0  0  0  0  0
   20.3040   35.2016   70.2054 O   0  0  0  0  0  0  0  0  0  0  0  0
   21.4556   35.9569   69.8887 C   0  0  0  0  0  0  0  0  0  0  0  0
   21.1738   37.2657   69.2400 C   0  0  0  0  0  0  0  0  0  0  0  0
   19.8169   37.5239   68.9999 O   0  0  0  0  0  0  0  0  0  0  0  0
 16 17  1  0  0  0
 17 18  2  0  0  0
 17 22  1  0  0  0
 18 19  1  0  0  0
 19 20  2  0  0  0
 19 26  1  0  0  0
 20 21  1  0  0  0
 20 23  1  0  0  0
 21 22  2  0  0  0
 22 15  1  0  0  0
 15  1  1  0  0  0
  1  2  2  0  0  0
  1  3  1  0  0  0
  3  4  1  0  0  0
  3 13  1  0  0  0
  4  5  1  0  0  0
  5  6  1  0  0  0
  6  7  2  0  0  0
  6 11  1  0  0  0
  7  8  1  0  0  0
  7 13  1  0  0  0
  8  9  2  0  0  0
  9 10  1  0  0  0
 10 11  2  0  0  0
 11 12  1  0  0  0
 23 24  1  0  0  0
 24 25  1  0  0  0
 25 26  1  0  0  0
 12 14  1  0  0  0
M  END
> <minimizedAffinity>
-8.95553

$$$$
1982


 25 28  0  0  0  0  0  0  0  0999 V2000
   21.1689   35.8768   70.9621 Cl  0  0  0  0  0  0  0  0  0  0  0  0
   19.4365   35.9127   70.7120 C   0  0  0  0  0  0  0  0  0  0  0  0
   18.5917   34.9413   71.2074 C   0  0  0  0  0  0  0  0  0  0  0  0
   17.2250   34.9564   71.0170 C   0  0  0  0  0  0  0  0  0  0  0  0
   16.6929   36.0052   70.2915 C   0  0  0  0  0  0  0  0  0  0  0  0
   17.5273   36.9831   69.7913 C   0  0  0  0  0  0  0  0  0  0  0  0
   18.8941   36.9670   69.9814 C   0  0  0  0  0  0  0  0  0  0  0  0
   15.2301   36.0434   70.0755 C   0  0  0  0  0  0  0  0  0  0  0  0
   14.5018   36.8762   69.4594 N   0  0  0  0  0  0  0  0  0  0  0  0
   13.0934   36.5420   69.4819 C   0  0  0  0  0  0  0  0  0  0  0  0
   13.0139   35.2722   70.2645 C   0  0  0  0  0  0  0  0  0  0  0  0
   14.4006   35.0189   70.6057 N   0  0  0  0  0  0  0  0  0  0  0  0
   15.0302   33.9714   71.3438 C   0  0  0  0  0  0  0  0  0  0  0  0
   14.5095   32.8899   71.9508 N   0  0  0  0  0  0  0  0  0  0  0  0
   15.4567   32.1691   72.5261 N   0  0  0  0  0  0  0  0  0  0  0  0
   16.6105   32.8313   72.2643 C   0  0  0  0  0  0  0  0  0  0  0  0
   17.7295   32.4369   72.6579 O   0  0  0  0  0  0  0  0  0  0  0  0
   16.3738   33.9386   71.5415 N   0  0  0  0  0  0  0  0  0  0  0  0
   15.2930   30.9373   73.2739 C   0  0  0  0  0  0  0  0  0  0  0  0
   15.4613   29.7437   72.3231 C   0  0  0  0  0  0  0  0  0  0  0  0
   16.6659   28.9605   72.6961 C   0  0  0  0  0  0  0  0  0  0  0  0
   16.9344   27.8167   72.2505 O   0  0  0  0  0  0  0  0  0  0  0  0
   17.5749   29.5411   73.6173 N   0  0  0  0  0  0  0  0  0  0  0  0
   17.2807   30.1126   74.4300 H   0  0  0  0  0  0  0  0  0  0  0  0
   18.5917   29.3810   73.4617 H   0  0  0  0  0  0  0  0  0  0  0  0
  1  2  1  0  0  0
  2  3  2  0  0  0
  2  7  1  0  0  0
  3  4  1  0  0  0
  4  5  2  0  0  0
  4 18  1  0  0  0
  5  6  1  0  0  0
  5  8  1  0  0  0
  6  7  2  0  0  0
  8  9  2  0  0  0
  8 12  1  0  0  0
  9 10  1  0  0  0
 10 11  1  0  0  0
 11 12  1  0  0  0
 12 13  1  0  0  0
 13 14  2  0  0  0
 13 18  1  0  0  0
 14 15  1  0  0  0
 15 16  1  0  0  0
 15 19  1  0  0  0
 16 17  2  0  0  0
 16 18  1  0  0  0
 19 20  1  0  0  0
 20 21  1  0  0  0
 21 22  2  0  0  0
 21 23  1  0  0  0
 23 24  1  0  0  0
 23 25  1  0  0  0
M  END
> <minimizedAffinity>
-8.17218

$$$$
1986


 30 33  0  0  0  0  0  0  0  0999 V2000
   20.0506   35.6024   69.6274 Cl  0  0  0  0  0  0  0  0  0  0  0  0
   20.5967   36.7113   68.3815 C   0  0  0  0  0  0  0  0  0  0  0  0
   21.9313   37.0433   68.2614 C   0  0  0  0  0  0  0  0  0  0  0  0
   22.3679   37.9290   67.2676 C   0  0  0  0  0  0  0  0  0  0  0  0
   21.4079   38.4398   66.4324 C   0  0  0  0  0  0  0  0  0  0  0  0
   20.0538   38.1002   66.5580 C   0  0  0  0  0  0  0  0  0  0  0  0
   19.6344   37.2282   67.5388 C   0  0  0  0  0  0  0  0  0  0  0  0
   21.8161   39.3215   65.4356 O   0  0  0  0  0  0  0  0  0  0  0  0
   23.1343   39.7026   65.2521 C   0  0  0  0  0  0  0  0  0  0  0  0
   24.1033   39.1855   66.0976 C   0  0  0  0  0  0  0  0  0  0  0  0
   23.8064   38.2498   67.1880 C   0  0  0  0  0  0  0  0  0  0  0  0
   25.4031   39.5938   65.8735 C   0  0  0  0  0  0  0  0  0  0  0  0
   26.3354   39.1523   66.6177 O   0  0  0  0  0  0  0  0  0  0  0  0
   25.7732   40.4461   64.9049 N   0  0  0  0  0  0  0  0  0  0  0  0
   24.7917   40.9256   64.1026 C   0  0  0  0  0  0  0  0  0  0  0  0
   25.1611   41.7241   63.1999 O   0  0  0  0  0  0  0  0  0  0  0  0
   23.5108   40.5551   64.2838 N   0  0  0  0  0  0  0  0  0  0  0  0
   22.5198   41.1123   63.3853 C   0  0  0  0  0  0  0  0  0  0  0  0
   27.1674   40.8448   64.7096 C   0  0  0  0  0  0  0  0  0  0  0  0
   24.5750   36.9802   66.9733 C   0  0  0  0  0  0  0  0  0  0  0  0
   25.3611   36.4524   67.9738 C   0  0  0  0  0  0  0  0  0  0  0  0
   26.0554   35.3005   67.7661 N   0  0  0  0  0  0  0  0  0  0  0  0
   25.9831   34.6595   66.5727 C   0  0  0  0  0  0  0  0  0  0  0  0
   26.6418   33.5934   66.4157 O   0  0  0  0  0  0  0  0  0  0  0  0
   25.2257   35.1500   65.5788 N   0  0  0  0  0  0  0  0  0  0  0  0
   24.5365   36.2893   65.7786 C   0  0  0  0  0  0  0  0  0  0  0  0
   23.8417   36.7293   64.8515 O   0  0  0  0  0  0  0  0  0  0  0  0
   25.1715   34.4354   64.3071 C   0  0  0  0  0  0  0  0  0  0  0  0
   26.8681   34.7916   68.8663 C   0  0  0  0  0  0  0  0  0  0  0  0
   25.4364   37.0949   69.1781 O   0  0  0  0  0  0  0  0  0  0  0  0
  1  2  1  0  0  0
  2  3  2  0  0  0
  2  7  1  0  0  0
  3  4  1  0  0  0
  4  5  2  0  0  0
  4 11  1  0  0  0
  5  6  1  0  0  0
  5  8  1  0  0  0
  6  7  2  0  0  0
  8  9  1  0  0  0
  9 10  2  0  0  0
  9 17  1  0  0  0
 10 11  1  0  0  0
 10 12  1  0  0  0
 11 20  1  0  0  0
 20 21  2  0  0  0
 20 26  1  0  0  0
 21 22  1  0  0  0
 21 30  1  0  0  0
 22 23  1  0  0  0
 22 29  1  0  0  0
 23 24  2  0  0  0
 23 25  1  0  0  0
 25 26  1  0  0  0
 25 28  1  0  0  0
 26 27  2  0  0  0
 12 13  2  0  0  0
 12 14  1  0  0  0
 14 15  1  0  0  0
 14 19  1  0  0  0
 15 16  2  0  0  0
 15 17  1  0  0  0
 17 18  1  0  0  0
M  CHG 1  30  -1
M  END
> <minimizedAffinity>
-7.27546

$$$$
1991


 31 34  0  0  0  0  0  0  0  0999 V2000
   12.7075   36.8515   69.7570 Cl  0  0  0  0  0  0  0  0  0  0  0  0
   14.2298   36.0218   69.9722 C   0  0  0  0  0  0  0  0  0  0  0  0
   15.3804   36.7173   70.2699 C   0  0  0  0  0  0  0  0  0  0  0  0
   16.5661   36.0500   70.4346 C   0  0  0  0  0  0  0  0  0  0  0  0
   16.6005   34.6568   70.2995 C   0  0  0  0  0  0  0  0  0  0  0  0
   15.4478   33.9488   69.9996 C   0  0  0  0  0  0  0  0  0  0  0  0
   14.2849   34.6516   69.8422 C   0  0  0  0  0  0  0  0  0  0  0  0
   17.7124   33.8397   70.4338 O   0  0  0  0  0  0  0  0  0  0  0  0
   18.8961   34.1041   71.1487 C   0  0  0  0  0  0  0  0  0  0  0  0
   19.6686   35.2446   70.5700 C   0  0  0  0  0  0  0  0  0  0  0  0
   18.8832   36.3597   70.1347 N   0  0  0  0  0  0  0  0  0  0  0  0
   17.7161   36.9345   70.7521 C   0  0  0  0  0  0  0  0  0  0  0  0
   19.2765   37.0212   68.9213 C   0  0  0  0  0  0  0  0  0  0  0  0
   18.5786   37.9999   68.5574 O   0  0  0  0  0  0  0  0  0  0  0  0
   18.5672   34.3051   72.6197 C   0  0  0  0  0  0  0  0  0  0  0  0
   18.6598   32.9847   73.3638 C   0  0  0  0  0  0  0  0  0  0  0  0
   19.9513   32.4986   73.4194 O   0  0  0  0  0  0  0  0  0  0  0  0
   20.6926   32.9316   72.3260 C   0  0  0  0  0  0  0  0  0  0  0  0
   19.8095   32.8767   71.0946 C   0  0  0  0  0  0  0  0  0  0  0  0
   20.4334   36.5789   68.1449 C   0  0  0  0  0  0  0  0  0  0  0  0
   21.5554   37.4420   68.0831 N   0  0  0  0  0  0  0  0  0  0  0  0
   22.1606   37.4566   66.7487 C   0  0  0  0  0  0  0  0  0  0  0  0
   22.6189   36.0829   66.4307 C   0  0  0  0  0  0  0  0  0  0  0  0
   23.3847   35.3713   67.4952 C   0  0  0  0  0  0  0  0  0  0  0  0
   23.3620   35.9569   68.8517 C   0  0  0  0  0  0  0  0  0  0  0  0
   22.5956   37.2085   69.0542 C   0  0  0  0  0  0  0  0  0  0  0  0
   23.0501   33.9266   67.5351 C   0  0  0  0  0  0  0  0  0  0  0  0
   23.6015   33.1486   66.7306 O   0  0  0  0  0  0  0  0  0  0  0  0
   22.1146   33.4438   68.4753 N   0  0  0  0  0  0  0  0  0  0  0  0
   22.5233   32.9035   69.2938 H   0  0  0  0  0  0  0  0  0  0  0  0
   21.0954   33.5645   68.4415 H   0  0  0  0  0  0  0  0  0  0  0  0
  1  2  1  0  0  0
  2  3  2  0  0  0
  2  7  1  0  0  0
  3  4  1  0  0  0
  4  5  2  0  0  0
  4 12  1  0  0  0
  5  6  1  0  0  0
  5  8  1  0  0  0
  6  7  2  0  0  0
  8  9  1  0  0  0
  9 10  1  0  0  0
  9 15  1  0  0  0
  9 19  1  0  0  0
 10 11  1  0  0  0
 11 12  1  0  0  0
 11 13  1  0  0  0
 13 14  2  0  0  0
 13 20  1  0  0  0
 20 21  1  0  0  0
 21 22  1  0  0  0
 21 26  1  0  0  0
 22 23  1  0  0  0
 23 24  1  0  0  0
 24 25  1  0  0  0
 24 27  1  0  0  0
 25 26  1  0  0  0
 27 28  2  0  0  0
 27 29  1  0  0  0
 15 16  1  0  0  0
 16 17  1  0  0  0
 17 18  1  0  0  0
 18 19  1  0  0  0
 29 30  1  0  0  0
 29 31  1  0  0  0
M  END
> <minimizedAffinity>
-8.99765

$$$$
2003


 28 31  0  0  0  0  0  0  0  0999 V2000
   23.5449   34.4656   67.9938 N   0  0  0  0  0  0  0  0  0  0  0  0
   22.1859   34.5172   67.5496 C   0  0  0  0  0  0  0  0  0  0  0  0
   21.2221   34.9433   68.6252 C   0  0  0  0  0  0  0  0  0  0  0  0
   21.7856   35.9415   69.5047 N   0  0  0  0  0  0  0  0  0  0  0  0
   23.1065   36.4886   69.3434 C   0  0  0  0  0  0  0  0  0  0  0  0
   24.0540   35.6645   68.5578 C   0  0  0  0  0  0  0  0  0  0  0  0
   20.9901   36.4086   70.5858 C   0  0  0  0  0  0  0  0  0  0  0  0
   21.4301   37.2898   71.3973 O   0  0  0  0  0  0  0  0  0  0  0  0
   19.6390   35.8918   70.8030 C   0  0  0  0  0  0  0  0  0  0  0  0
   19.3753   34.7442   71.5237 C   0  0  0  0  0  0  0  0  0  0  0  0
   18.1051   34.3284   71.6841 N   0  0  0  0  0  0  0  0  0  0  0  0
   17.0436   34.9779   71.1728 C   0  0  0  0  0  0  0  0  0  0  0  0
   17.2837   36.0988   70.4683 N   0  0  0  0  0  0  0  0  0  0  0  0
   16.2328   36.7643   69.9485 C   0  0  0  0  0  0  0  0  0  0  0  0
   14.9328   36.3319   70.1161 C   0  0  0  0  0  0  0  0  0  0  0  0
   14.6531   35.1853   70.8344 C   0  0  0  0  0  0  0  0  0  0  0  0
   15.7462   34.5183   71.3594 C   0  0  0  0  0  0  0  0  0  0  0  0
   18.5401   36.5476   70.2852 C   0  0  0  0  0  0  0  0  0  0  0  0
   18.7646   37.5933   69.6277 O   0  0  0  0  0  0  0  0  0  0  0  0
   24.5988   33.6493   66.9500 S   0  0  0  0  0  0  0  0  0  0  0  0
   25.5987   32.8612   67.7056 O   0  0  0  0  0  0  0  0  0  0  0  0
   23.7884   32.7313   66.0627 O   0  0  0  0  0  0  0  0  0  0  0  0
   25.4187   34.8395   65.9251 C   0  0  0  0  0  0  0  0  0  0  0  0
   24.7546   36.0662   64.9454 S   0  0  0  0  0  0  0  0  0  0  0  0
   26.1986   36.7286   64.3260 C   0  0  0  0  0  0  0  0  0  0  0  0
   27.1671   35.9612   64.9114 C   0  0  0  0  0  0  0  0  0  0  0  0
   26.7690   34.9871   65.7353 C   0  0  0  0  0  0  0  0  0  0  0  0
   26.4342   38.0801   63.1990 Cl  0  0  0  0  0  0  0  0  0  0  0  0
 20 21  2  0  0  0
 20 22  2  0  0  0
 20  1  1  0  0  0
 20 23  1  0  0  0
  1  2  1  0  0  0
  1  6  1  0  0  0
  2  3  1  0  0  0
  3  4  1  0  0  0
  4  5  1  0  0  0
  4  7  1  0  0  0
  5  6  1  0  0  0
  7  8  2  0  0  0
  7  9  1  0  0  0
  9 10  2  0  0  0
  9 18  1  0  0  0
 10 11  1  0  0  0
 11 12  2  0  0  0
 12 13  1  0  0  0
 12 17  1  0  0  0
 13 14  1  0  0  0
 13 18  1  0  0  0
 14 15  2  0  0  0
 15 16  1  0  0  0
 16 17  2  0  0  0
 18 19  2  0  0  0
 23 24  1  0  0  0
 23 27  2  0  0  0
 24 25  1  0  0  0
 25 26  2  0  0  0
 25 28  1  0  0  0
 26 27  1  0  0  0
M  END
> <minimizedAffinity>
-8.82183

$$$$
2004


 29 32  0  0  0  0  0  0  0  0999 V2000
   20.2368   34.7854   71.6529 S   0  0  0  0  0  0  0  0  0  0  0  0
   20.7651   36.1286   72.1334 O   0  0  0  0  0  0  0  0  0  0  0  0
   20.3793   33.8764   72.8725 O   0  0  0  0  0  0  0  0  0  0  0  0
   18.5208   34.9513   71.3524 C   0  0  0  0  0  0  0  0  0  0  0  0
   17.6388   34.0195   71.9353 C   0  0  0  0  0  0  0  0  0  0  0  0
   16.2853   34.0619   71.6888 C   0  0  0  0  0  0  0  0  0  0  0  0
   15.7122   35.0048   70.8660 C   0  0  0  0  0  0  0  0  0  0  0  0
   16.5671   35.9161   70.2975 C   0  0  0  0  0  0  0  0  0  0  0  0
   17.9488   35.8908   70.5369 C   0  0  0  0  0  0  0  0  0  0  0  0
   18.9586   37.1323   69.8356 Cl  0  0  0  0  0  0  0  0  0  0  0  0
   14.3132   34.9919   70.6516 N   0  0  0  0  0  0  0  0  0  0  0  0
   13.4591   34.0301   71.2579 C   0  0  0  0  0  0  0  0  0  0  0  0
   12.2175   34.1155   71.3194 O   0  0  0  0  0  0  0  0  0  0  0  0
   14.1292   32.8446   71.8543 C   0  0  0  0  0  0  0  0  0  0  0  0
   15.4338   33.1275   72.2792 O   0  0  0  0  0  0  0  0  0  0  0  0
   14.1906   31.7072   70.8600 C   0  0  0  0  0  0  0  0  0  0  0  0
   13.8831   35.7117   70.0253 H   0  0  0  0  0  0  0  0  0  0  0  0
   21.1630   34.1727   70.4006 N   0  0  0  0  0  0  0  0  0  0  0  0
   22.2402   33.3422   70.7185 C   0  0  0  0  0  0  0  0  0  0  0  0
   22.8326   32.6368   69.4899 C   0  0  0  0  0  0  0  0  0  0  0  0
   22.8516   33.4987   68.3459 N   0  0  0  0  0  0  0  0  0  0  0  0
   21.6720   34.2892   68.0701 C   0  0  0  0  0  0  0  0  0  0  0  0
   21.3947   35.1016   69.3197 C   0  0  0  0  0  0  0  0  0  0  0  0
   23.9840   33.5659   67.5258 C   0  0  0  0  0  0  0  0  0  0  0  0
   24.9981   32.8699   67.7859 O   0  0  0  0  0  0  0  0  0  0  0  0
   24.0502   34.4509   66.3203 C   0  0  0  0  0  0  0  0  0  0  0  0
   25.3250   34.2964   65.5249 C   0  0  0  0  0  0  0  0  0  0  0  0
   25.9147   35.4168   66.3782 C   0  0  0  0  0  0  0  0  0  0  0  0
   24.4773   35.8520   66.6782 C   0  0  0  0  0  0  0  0  0  0  0  0
  1  2  2  0  0  0
  1  3  2  0  0  0
  1 18  1  0  0  0
  1  4  1  0  0  0
 18 19  1  0  0  0
 18 23  1  0  0  0
 19 20  1  0  0  0
 20 21  1  0  0  0
 21 22  1  0  0  0
 21 24  1  0  0  0
 22 23  1  0  0  0
 24 25  2  0  0  0
 24 26  1  0  0  0
 26 27  1  0  0  0
 26 29  1  0  0  0
 27 28  1  0  0  0
 28 29  1  0  0  0
  4  5  2  0  0  0
  4  9  1  0  0  0
  5  6  1  0  0  0
  6  7  2  0  0  0
  6 15  1  0  0  0
  7  8  1  0  0  0
  7 11  1  0  0  0
  8  9  2  0  0  0
  9 10  1  0  0  0
 11 12  1  0  0  0
 12 13  2  0  0  0
 12 14  1  0  0  0
 14 15  1  0  0  0
 14 16  1  0  0  0
 11 17  1  0  0  0
M  END
> <minimizedAffinity>
-9.39003

$$$$
2012


 25 28  0  0  0  0  0  0  0  0999 V2000
   19.4298   36.3478   69.5182 N   0  0  0  0  0  0  0  0  0  0  0  0
   18.5222   37.3694   69.1209 C   0  0  0  0  0  0  0  0  0  0  0  0
   18.6632   38.0816   68.1125 O   0  0  0  0  0  0  0  0  0  0  0  0
   17.4143   37.4372   70.0887 C   0  0  0  0  0  0  0  0  0  0  0  0
   16.1720   37.7217   69.6205 O   0  0  0  0  0  0  0  0  0  0  0  0
   15.3608   36.9518   70.4336 N   0  0  0  0  0  0  0  0  0  0  0  0
   16.0180   35.7023   70.6602 C   0  0  0  0  0  0  0  0  0  0  0  0
   17.2980   35.9841   70.4442 C   0  0  0  0  0  0  0  0  0  0  0  0
   18.6536   35.4605   70.3651 C   0  0  0  0  0  0  0  0  0  0  0  0
   19.0324   34.4149   70.9517 O   0  0  0  0  0  0  0  0  0  0  0  0
   14.4484   37.2677   70.8001 H   0  0  0  0  0  0  0  0  0  0  0  0
   23.1979   33.5532   67.2950 Cl  0  0  0  0  0  0  0  0  0  0  0  0
   22.5884   34.9272   68.2130 C   0  0  0  0  0  0  0  0  0  0  0  0
   21.2269   35.0486   68.4776 C   0  0  0  0  0  0  0  0  0  0  0  0
   20.8005   36.1372   69.2017 C   0  0  0  0  0  0  0  0  0  0  0  0
   21.7132   37.1003   69.6603 C   0  0  0  0  0  0  0  0  0  0  0  0
   23.0443   36.9751   69.3974 C   0  0  0  0  0  0  0  0  0  0  0  0
   23.4761   35.8782   68.6708 C   0  0  0  0  0  0  0  0  0  0  0  0
   15.4459   34.4385   71.0800 C   0  0  0  0  0  0  0  0  0  0  0  0
   15.9973   33.6933   72.1262 C   0  0  0  0  0  0  0  0  0  0  0  0
   15.2885   32.5682   72.2998 N   0  0  0  0  0  0  0  0  0  0  0  0
   14.3011   32.5617   71.4025 N   0  0  0  0  0  0  0  0  0  0  0  0
   14.3866   33.6885   70.6581 C   0  0  0  0  0  0  0  0  0  0  0  0
   13.4822   34.0535   69.5388 C   0  0  0  0  0  0  0  0  0  0  0  0
   15.4912   31.4932   73.2650 C   0  0  0  0  0  0  0  0  0  0  0  0
 12 13  1  0  0  0
 13 14  2  0  0  0
 13 18  1  0  0  0
 14 15  1  0  0  0
 15 16  2  0  0  0
 15  1  1  0  0  0
 16 17  1  0  0  0
 17 18  2  0  0  0
  1  2  1  0  0  0
  1  9  1  0  0  0
  2  3  2  0  0  0
  2  4  1  0  0  0
  4  5  1  0  0  0
  4  8  1  0  0  0
  5  6  1  0  0  0
  6  7  1  0  0  0
  7  8  2  0  0  0
  7 19  1  0  0  0
  8  9  1  0  0  0
  9 10  2  0  0  0
 19 20  2  0  0  0
 19 23  1  0  0  0
 20 21  1  0  0  0
 21 22  1  0  0  0
 21 25  1  0  0  0
 22 23  2  0  0  0
 23 24  1  0  0  0
  6 11  1  0  0  0
M  END
> <minimizedAffinity>
-8.82515

$$$$
2014


 26 29  0  0  0  0  0  0  0  0999 V2000
   19.3195   33.4251   70.5386 C   0  0  0  0  0  0  0  0  0  0  0  0
   18.0393   33.1117   70.7157 N   0  0  0  0  0  0  0  0  0  0  0  0
   17.9112   31.7655   70.9022 C   0  0  0  0  0  0  0  0  0  0  0  0
   19.1721   31.2781   70.8343 N   0  0  0  0  0  0  0  0  0  0  0  0
   20.0171   32.2493   70.6193 N   0  0  0  0  0  0  0  0  0  0  0  0
   16.6243   31.4332   71.0852 N   0  0  0  0  0  0  0  0  0  0  0  0
   15.8834   32.5335   71.0270 C   0  0  0  0  0  0  0  0  0  0  0  0
   16.7739   33.5951   70.7954 C   0  0  0  0  0  0  0  0  0  0  0  0
   16.3010   34.8445   70.7019 N   0  0  0  0  0  0  0  0  0  0  0  0
   14.9601   35.0317   70.8335 C   0  0  0  0  0  0  0  0  0  0  0  0
   14.5396   36.2267   70.7383 O   0  0  0  0  0  0  0  0  0  0  0  0
   14.0756   34.0620   71.0510 N   0  0  0  0  0  0  0  0  0  0  0  0
   14.5428   32.8161   71.1476 C   0  0  0  0  0  0  0  0  0  0  0  0
   13.7500   31.8612   71.3529 O   0  0  0  0  0  0  0  0  0  0  0  0
   12.6365   34.3496   71.1807 C   0  0  0  0  0  0  0  0  0  0  0  0
   17.1567   35.9781   70.5039 C   0  0  0  0  0  0  0  0  0  0  0  0
   16.1012   30.1011   71.3106 C   0  0  0  0  0  0  0  0  0  0  0  0
   20.7584   37.2431   67.0965 Br  0  0  0  0  0  0  0  0  0  0  0  0
   20.6648   36.4633   68.8467 C   0  0  0  0  0  0  0  0  0  0  0  0
   20.0765   35.2428   69.0343 C   0  0  0  0  0  0  0  0  0  0  0  0
   20.0149   34.6872   70.3097 C   0  0  0  0  0  0  0  0  0  0  0  0
   20.5675   35.4228   71.3375 C   0  0  0  0  0  0  0  0  0  0  0  0
   21.1520   36.6386   71.1391 C   0  0  0  0  0  0  0  0  0  0  0  0
   21.2201   37.2028   69.8760 C   0  0  0  0  0  0  0  0  0  0  0  0
   20.4911   34.8364   72.6204 O   0  0  0  0  0  0  0  0  0  0  0  0
   19.2491   34.7092   73.2875 C   0  0  0  0  0  0  0  0  0  0  0  0
 18 19  1  0  0  0
 19 20  2  0  0  0
 19 24  1  0  0  0
 20 21  1  0  0  0
 21 22  2  0  0  0
 21  1  1  0  0  0
 22 23  1  0  0  0
 22 25  1  0  0  0
 23 24  2  0  0  0
 25 26  1  0  0  0
  1  2  1  0  0  0
  1  5  2  0  0  0
  2  3  1  0  0  0
  2  8  1  0  0  0
  3  4  2  0  0  0
  3  6  1  0  0  0
  4  5  1  0  0  0
  6  7  1  0  0  0
  6 17  1  0  0  0
  7  8  2  0  0  0
  7 13  1  0  0  0
  8  9  1  0  0  0
  9 10  1  0  0  0
  9 16  1  0  0  0
 10 11  2  0  0  0
 10 12  1  0  0  0
 12 13  1  0  0  0
 12 15  1  0  0  0
 13 14  2  0  0  0
M  END
> <minimizedAffinity>
-8.01918

$$$$
2017


 24 27  0  0  0  0  0  0  0  0999 V2000
   12.9140   33.7117   71.8006 Cl  0  0  0  0  0  0  0  0  0  0  0  0
   14.5531   34.1743   71.3743 C   0  0  0  0  0  0  0  0  0  0  0  0
   14.8903   35.4692   71.0300 C   0  0  0  0  0  0  0  0  0  0  0  0
   16.1620   35.8164   70.7014 N   0  0  0  0  0  0  0  0  0  0  0  0
   17.1727   34.9305   70.6893 C   0  0  0  0  0  0  0  0  0  0  0  0
   18.4356   35.2647   70.3650 N   0  0  0  0  0  0  0  0  0  0  0  0
   18.7726   36.5223   70.0279 C   0  0  0  0  0  0  0  0  0  0  0  0
   17.7296   37.4501   70.0388 C   0  0  0  0  0  0  0  0  0  0  0  0
   16.4399   37.0960   70.3720 C   0  0  0  0  0  0  0  0  0  0  0  0
   15.4922   37.9461   70.3793 O   0  0  0  0  0  0  0  0  0  0  0  0
   16.8614   33.6211   71.0318 C   0  0  0  0  0  0  0  0  0  0  0  0
   15.5755   33.2489   71.3685 C   0  0  0  0  0  0  0  0  0  0  0  0
   20.1513   36.9397   69.6633 C   0  0  0  0  0  0  0  0  0  0  0  0
   20.4981   36.3673   68.4155 N   0  0  0  0  0  0  0  0  0  0  0  0
   21.6832   35.5981   68.3474 C   0  0  0  0  0  0  0  0  0  0  0  0
   22.3572   35.6034   66.9842 C   0  0  0  0  0  0  0  0  0  0  0  0
   22.4536   37.0319   66.5829 C   0  0  0  0  0  0  0  0  0  0  0  0
   21.2991   37.7736   66.7222 C   0  0  0  0  0  0  0  0  0  0  0  0
   21.3372   39.0684   66.3738 N   0  0  0  0  0  0  0  0  0  0  0  0
   22.4930   39.6247   65.8966 C   0  0  0  0  0  0  0  0  0  0  0  0
   23.6073   38.8649   65.7744 N   0  0  0  0  0  0  0  0  0  0  0  0
   23.6341   37.5556   66.1083 C   0  0  0  0  0  0  0  0  0  0  0  0
   22.5479   41.0579   65.5082 C   0  0  0  0  0  0  0  0  0  0  0  0
   20.0999   37.0764   67.2470 C   0  0  0  0  0  0  0  0  0  0  0  0
  1  2  1  0  0  0
  2  3  2  0  0  0
  2 12  1  0  0  0
  3  4  1  0  0  0
  4  5  1  0  0  0
  4  9  1  0  0  0
  5  6  2  0  0  0
  5 11  1  0  0  0
  6  7  1  0  0  0
  7  8  2  0  0  0
  7 13  1  0  0  0
  8  9  1  0  0  0
  9 10  2  0  0  0
 13 14  1  0  0  0
 14 15  1  0  0  0
 14 24  1  0  0  0
 15 16  1  0  0  0
 16 17  1  0  0  0
 17 18  2  0  0  0
 17 22  1  0  0  0
 18 19  1  0  0  0
 18 24  1  0  0  0
 19 20  2  0  0  0
 20 21  1  0  0  0
 20 23  1  0  0  0
 21 22  2  0  0  0
 11 12  2  0  0  0
M  END
> <minimizedAffinity>
-8.65192

$$$$
2020


 22 24  0  0  0  0  0  0  0  0999 V2000
   17.3890   31.9437   70.7155 C   0  0  0  0  0  0  0  0  0  0  0  0
   16.3550   31.0788   71.4883 C   0  0  0  0  0  0  0  0  0  0  0  0
   16.1549   32.0243   72.6884 C   0  0  0  0  0  0  0  0  0  0  0  0
   15.0642   32.3528   73.1184 O   0  0  0  0  0  0  0  0  0  0  0  0
   17.4313   32.4520   73.2162 N   0  0  0  0  0  0  0  0  0  0  0  0
   18.5597   31.5842   72.8313 C   0  0  0  0  0  0  0  0  0  0  0  0
   18.0405   30.2316   73.0774 N   0  0  0  0  0  0  0  0  0  0  0  0
   16.9845   29.8977   72.1545 C   0  0  0  0  0  0  0  0  0  0  0  0
   16.6149   28.7321   71.9226 O   0  0  0  0  0  0  0  0  0  0  0  0
   18.6799   31.6897   71.2868 C   0  0  0  0  0  0  0  0  0  0  0  0
   19.8328   31.8623   73.5005 C   0  0  0  0  0  0  0  0  0  0  0  0
   17.5603   33.2893   73.7903 H   0  0  0  0  0  0  0  0  0  0  0  0
   18.3943   29.6178   73.8199 H   0  0  0  0  0  0  0  0  0  0  0  0
   12.9241   34.5813   69.6799 Br  0  0  0  0  0  0  0  0  0  0  0  0
   14.7516   34.5412   70.2057 C   0  0  0  0  0  0  0  0  0  0  0  0
   15.4161   33.3193   70.3307 C   0  0  0  0  0  0  0  0  0  0  0  0
   16.7639   33.2615   70.7080 C   0  0  0  0  0  0  0  0  0  0  0  0
   17.3777   34.4786   70.9458 C   0  0  0  0  0  0  0  0  0  0  0  0
   16.7012   35.6790   70.8156 C   0  0  0  0  0  0  0  0  0  0  0  0
   15.3857   35.7178   70.4476 C   0  0  0  0  0  0  0  0  0  0  0  0
   18.6883   34.4046   71.3230 O   0  0  0  0  0  0  0  0  0  0  0  0
   19.6308   35.2723   70.7532 C   0  0  0  0  0  0  0  0  0  0  0  0
 14 15  1  0  0  0
 15 16  2  0  0  0
 15 20  1  0  0  0
 16 17  1  0  0  0
 17 18  2  0  0  0
 17  1  1  0  0  0
 18 19  1  0  0  0
 18 21  1  0  0  0
 19 20  2  0  0  0
 21 22  1  0  0  0
  1  2  1  0  0  0
  1 10  1  0  0  0
  2  3  1  0  0  0
  2  8  1  0  0  0
  3  4  2  0  0  0
  3  5  1  0  0  0
  5  6  1  0  0  0
  6  7  1  0  0  0
  6 10  1  0  0  0
  6 11  1  0  0  0
  7  8  1  0  0  0
  8  9  2  0  0  0
  5 12  1  0  0  0
  7 13  1  0  0  0
M  END
> <minimizedAffinity>
-7.38405

$$$$
2028


 31 34  0  0  0  0  0  0  0  0999 V2000
   15.1724   32.4750   72.5553 Cl  0  0  0  0  0  0  0  0  0  0  0  0
   15.8576   33.8535   71.6987 C   0  0  0  0  0  0  0  0  0  0  0  0
   17.2553   34.0123   71.7117 C   0  0  0  0  0  0  0  0  0  0  0  0
   17.7821   35.0772   71.0433 C   0  0  0  0  0  0  0  0  0  0  0  0
   16.9815   35.9905   70.3715 C   0  0  0  0  0  0  0  0  0  0  0  0
   15.6173   35.8101   70.3783 C   0  0  0  0  0  0  0  0  0  0  0  0
   15.0437   34.7454   71.0365 C   0  0  0  0  0  0  0  0  0  0  0  0
   14.7730   36.8153   69.6424 C   0  0  0  0  0  0  0  0  0  0  0  0
   19.2701   34.9420   71.1042 C   0  0  0  0  0  0  0  0  0  0  0  0
   19.9764   36.1524   71.2424 N   0  0  0  0  0  0  0  0  0  0  0  0
   20.2277   36.6398   69.9158 C   0  0  0  0  0  0  0  0  0  0  0  0
   19.8849   35.5896   68.9394 C   0  0  0  0  0  0  0  0  0  0  0  0
   19.8042   34.3519   69.8366 C   0  0  0  0  0  0  0  0  0  0  0  0
   21.2034   33.9734   69.9096 C   0  0  0  0  0  0  0  0  0  0  0  0
   21.9253   33.5174   70.8234 O   0  0  0  0  0  0  0  0  0  0  0  0
   21.7258   34.2352   68.5803 N   0  0  0  0  0  0  0  0  0  0  0  0
   20.9001   35.2118   67.9640 C   0  0  0  0  0  0  0  0  0  0  0  0
   21.0413   35.6419   66.8108 O   0  0  0  0  0  0  0  0  0  0  0  0
   19.4769   33.9763   72.1810 C   0  0  0  0  0  0  0  0  0  0  0  0
   20.5095   33.6954   72.8673 O   0  0  0  0  0  0  0  0  0  0  0  0
   18.2639   33.3010   72.4189 N   0  0  0  0  0  0  0  0  0  0  0  0
   19.4688   36.8617   71.8244 H   0  0  0  0  0  0  0  0  0  0  0  0
   18.0750   32.4406   72.9928 H   0  0  0  0  0  0  0  0  0  0  0  0
   21.6151   37.2378   69.7778 C   0  0  0  0  0  0  0  0  0  0  0  0
   21.8107   37.9992   68.6641 O   0  0  0  0  0  0  0  0  0  0  0  0
   22.0210   37.8481   71.0787 C   0  0  0  0  0  0  0  0  0  0  0  0
   22.3005   38.8459   68.8226 H   0  0  0  0  0  0  0  0  0  0  0  0
   22.8668   33.6333   67.9424 C   0  0  0  0  0  0  0  0  0  0  0  0
   24.1457   34.3725   68.0787 C   0  0  0  0  0  0  0  0  0  0  0  0
   24.8214   34.6913   66.9397 O   0  0  0  0  0  0  0  0  0  0  0  0
   24.5203   33.9157   65.8394 C   0  0  0  0  0  0  0  0  0  0  0  0
  1  2  1  0  0  0
  2  3  2  0  0  0
  2  7  1  0  0  0
  3  4  1  0  0  0
  3 21  1  0  0  0
  4  5  2  0  0  0
  4  9  1  0  0  0
  5  6  1  0  0  0
  6  7  2  0  0  0
  6  8  1  0  0  0
  9 10  1  0  0  0
  9 13  1  0  0  0
  9 19  1  0  0  0
 10 11  1  0  0  0
 11 12  1  0  0  0
 11 24  1  0  0  0
 12 13  1  0  0  0
 12 17  1  0  0  0
 13 14  1  0  0  0
 14 15  2  0  0  0
 14 16  1  0  0  0
 16 17  1  0  0  0
 16 28  1  0  0  0
 17 18  2  0  0  0
 28 29  1  0  0  0
 29 30  1  0  0  0
 30 31  1  0  0  0
 24 25  1  0  0  0
 24 26  1  0  0  0
 19 20  2  0  0  0
 19 21  1  0  0  0
 10 22  1  0  0  0
 25 27  1  0  0  0
 21 23  1  0  0  0
M  END
> <minimizedAffinity>
-7.60626

$$$$
2032


 31 34  0  0  0  0  0  0  0  0999 V2000
   13.3389   31.8471   72.3508 C   0  0  0  0  0  0  0  0  0  0  0  0
   13.9753   32.8732   71.8859 C   0  0  0  0  0  0  0  0  0  0  0  0
   15.3000   33.1611   72.0596 O   0  0  0  0  0  0  0  0  0  0  0  0
   15.5986   34.3487   71.3945 C   0  0  0  0  0  0  0  0  0  0  0  0
   14.5107   34.8782   70.7780 C   0  0  0  0  0  0  0  0  0  0  0  0
   14.6022   36.0630   70.0387 C   0  0  0  0  0  0  0  0  0  0  0  0
   15.7814   36.7477   69.9011 C   0  0  0  0  0  0  0  0  0  0  0  0
   16.8771   36.1633   70.5616 C   0  0  0  0  0  0  0  0  0  0  0  0
   16.8228   35.0173   71.2789 C   0  0  0  0  0  0  0  0  0  0  0  0
   18.0608   36.9146   70.4042 O   0  0  0  0  0  0  0  0  0  0  0  0
   13.4128   33.9496   71.0687 C   0  0  0  0  0  0  0  0  0  0  0  0
   12.2134   34.0625   70.6815 O   0  0  0  0  0  0  0  0  0  0  0  0
   16.9784   27.9721   72.9079 Br  0  0  0  0  0  0  0  0  0  0  0  0
   15.4785   28.9845   73.4798 C   0  0  0  0  0  0  0  0  0  0  0  0
   14.9679   30.0525   72.7204 C   0  0  0  0  0  0  0  0  0  0  0  0
   13.8863   30.7691   73.1621 C   0  0  0  0  0  0  0  0  0  0  0  0
   13.2950   30.4349   74.3584 C   0  0  0  0  0  0  0  0  0  0  0  0
   13.8056   29.3683   75.1134 C   0  0  0  0  0  0  0  0  0  0  0  0
   14.8788   28.6614   74.6767 C   0  0  0  0  0  0  0  0  0  0  0  0
   12.2299   31.1752   74.7397 O   0  0  0  0  0  0  0  0  0  0  0  0
   11.1628   30.7779   75.5297 C   0  0  0  0  0  0  0  0  0  0  0  0
   17.9584   34.4297   72.0143 C   0  0  0  0  0  0  0  0  0  0  0  0
   19.0597   34.1226   71.1327 N   0  0  0  0  0  0  0  0  0  0  0  0
   18.9657   32.7351   70.7151 C   0  0  0  0  0  0  0  0  0  0  0  0
   20.2484   32.0223   70.6326 C   0  0  0  0  0  0  0  0  0  0  0  0
   21.3892   32.8110   70.2917 N   0  0  0  0  0  0  0  0  0  0  0  0
   21.2459   34.1953   70.2595 C   0  0  0  0  0  0  0  0  0  0  0  0
   20.3067   34.6506   71.4077 C   0  0  0  0  0  0  0  0  0  0  0  0
   18.7329   34.6651   70.2077 H   0  0  0  0  0  0  0  0  0  0  0  0
   22.6553   32.2771   70.6223 C   0  0  0  0  0  0  0  0  0  0  0  0
   23.8177   33.1690   70.3614 C   0  0  0  0  0  0  0  0  0  0  0  0
 13 14  1  0  0  0
 14 15  2  0  0  0
 14 19  1  0  0  0
 15 16  1  0  0  0
 16 17  2  0  0  0
 16  1  1  0  0  0
 17 18  1  0  0  0
 17 20  1  0  0  0
 18 19  2  0  0  0
 20 21  1  0  0  0
  1  2  2  0  0  0
  2  3  1  0  0  0
  2 11  1  0  0  0
  3  4  1  0  0  0
  4  5  2  0  0  0
  4  9  1  0  0  0
  5  6  1  0  0  0
  5 11  1  0  0  0
  6  7  2  0  0  0
  7  8  1  0  0  0
  8  9  2  0  0  0
  8 10  1  0  0  0
  9 22  1  0  0  0
 22 23  1  0  0  0
 23 24  1  0  0  0
 23 28  1  0  0  0
 24 25  1  0  0  0
 25 26  1  0  0  0
 26 27  1  0  0  0
 26 30  1  0  0  0
 27 28  1  0  0  0
 30 31  1  0  0  0
 11 12  2  0  0  0
 23 29  1  0  0  0
M  CHG 1  10  -1
M  CHG 1  23   1
M  END
> <minimizedAffinity>
-8.60089

$$$$
2033


 29 32  0  0  0  0  0  0  0  0999 V2000
   13.2104   31.9535   72.3386 C   0  0  0  0  0  0  0  0  0  0  0  0
   13.8317   32.9784   71.8240 C   0  0  0  0  0  0  0  0  0  0  0  0
   15.1939   33.2086   71.9372 O   0  0  0  0  0  0  0  0  0  0  0  0
   15.5747   34.3719   71.2947 C   0  0  0  0  0  0  0  0  0  0  0  0
   14.4855   34.9842   70.7175 C   0  0  0  0  0  0  0  0  0  0  0  0
   14.6421   36.1654   70.0235 C   0  0  0  0  0  0  0  0  0  0  0  0
   15.8969   36.7263   69.9152 C   0  0  0  0  0  0  0  0  0  0  0  0
   16.9952   36.0799   70.5158 C   0  0  0  0  0  0  0  0  0  0  0  0
   16.8650   34.9130   71.2041 C   0  0  0  0  0  0  0  0  0  0  0  0
   18.2054   36.7654   70.3247 O   0  0  0  0  0  0  0  0  0  0  0  0
   13.3471   34.1161   71.0366 C   0  0  0  0  0  0  0  0  0  0  0  0
   12.1565   34.3017   70.7010 O   0  0  0  0  0  0  0  0  0  0  0  0
   17.0023   28.1525   72.8251 Br  0  0  0  0  0  0  0  0  0  0  0  0
   15.4826   29.1528   73.3894 C   0  0  0  0  0  0  0  0  0  0  0  0
   14.9115   30.1726   72.6841 C   0  0  0  0  0  0  0  0  0  0  0  0
   13.8111   30.8813   73.1139 C   0  0  0  0  0  0  0  0  0  0  0  0
   13.2651   30.5145   74.3478 C   0  0  0  0  0  0  0  0  0  0  0  0
   13.7958   29.5015   75.0981 C   0  0  0  0  0  0  0  0  0  0  0  0
   14.9070   28.8221   74.6128 C   0  0  0  0  0  0  0  0  0  0  0  0
   12.1581   31.2061   74.7995 O   0  0  0  0  0  0  0  0  0  0  0  0
   11.1665   30.5495   75.5446 C   0  0  0  0  0  0  0  0  0  0  0  0
   17.9507   34.2003   71.8195 C   0  0  0  0  0  0  0  0  0  0  0  0
   18.4469   32.9844   71.3189 N   0  0  0  0  0  0  0  0  0  0  0  0
   19.7659   33.0327   70.7492 C   0  0  0  0  0  0  0  0  0  0  0  0
   20.8791   32.9542   71.7646 C   0  0  0  0  0  0  0  0  0  0  0  0
   20.4338   32.9731   73.0792 O   0  0  0  0  0  0  0  0  0  0  0  0
   19.5869   31.8792   73.2211 C   0  0  0  0  0  0  0  0  0  0  0  0
   18.3968   31.9027   72.3193 C   0  0  0  0  0  0  0  0  0  0  0  0
   17.8033   32.6314   70.5811 H   0  0  0  0  0  0  0  0  0  0  0  0
 13 14  1  0  0  0
 14 15  2  0  0  0
 14 19  1  0  0  0
 15 16  1  0  0  0
 16 17  2  0  0  0
 16  1  1  0  0  0
 17 18  1  0  0  0
 17 20  1  0  0  0
 18 19  2  0  0  0
 20 21  1  0  0  0
  1  2  2  0  0  0
  2  3  1  0  0  0
  2 11  1  0  0  0
  3  4  1  0  0  0
  4  5  2  0  0  0
  4  9  1  0  0  0
  5  6  1  0  0  0
  5 11  1  0  0  0
  6  7  2  0  0  0
  7  8  1  0  0  0
  8  9  2  0  0  0
  8 10  1  0  0  0
  9 22  1  0  0  0
 22 23  1  0  0  0
 23 24  1  0  0  0
 23 28  1  0  0  0
 24 25  1  0  0  0
 25 26  1  0  0  0
 26 27  1  0  0  0
 27 28  1  0  0  0
 11 12  2  0  0  0
 23 29  1  0  0  0
M  CHG 1  10  -1
M  CHG 1  23   1
M  END
> <minimizedAffinity>
-8.79464

$$$$
2041


 30 33  0  0  0  0  0  0  0  0999 V2000
   16.1046   30.8783   71.7591 N   0  0  0  0  0  0  0  0  0  0  0  0
   16.7690   31.1642   73.0147 C   0  0  0  0  0  0  0  0  0  0  0  0
   18.2754   30.9893   72.8689 C   0  0  0  0  0  0  0  0  0  0  0  0
   18.7358   31.9312   71.8491 N   0  0  0  0  0  0  0  0  0  0  0  0
   17.6947   32.5614   71.0929 C   0  0  0  0  0  0  0  0  0  0  0  0
   16.7444   31.4873   70.6326 C   0  0  0  0  0  0  0  0  0  0  0  0
   20.1074   32.1563   71.6955 C   0  0  0  0  0  0  0  0  0  0  0  0
   20.9337   31.5239   72.4713 O   0  0  0  0  0  0  0  0  0  0  0  0
   14.4497   31.3362   71.8510 S   0  0  0  0  0  0  0  0  0  0  0  0
   13.6759   30.3520   71.0049 O   0  0  0  0  0  0  0  0  0  0  0  0
   13.9135   31.2365   73.2387 O   0  0  0  0  0  0  0  0  0  0  0  0
   14.2537   32.9550   71.2177 C   0  0  0  0  0  0  0  0  0  0  0  0
   14.7462   34.0886   71.8229 C   0  0  0  0  0  0  0  0  0  0  0  0
   14.5511   35.3355   71.2797 C   0  0  0  0  0  0  0  0  0  0  0  0
   13.8413   35.4751   70.0873 C   0  0  0  0  0  0  0  0  0  0  0  0
   13.3342   34.3312   69.4611 C   0  0  0  0  0  0  0  0  0  0  0  0
   13.5434   33.0919   70.0251 C   0  0  0  0  0  0  0  0  0  0  0  0
   13.6023   37.0636   69.4093 Cl  0  0  0  0  0  0  0  0  0  0  0  0
   20.7865   33.0446   70.7468 C   0  0  0  0  0  0  0  0  0  0  0  0
   20.8324   34.7623   71.2411 S   0  0  0  0  0  0  0  0  0  0  0  0
   20.5919   35.9153   69.9012 C   0  0  0  0  0  0  0  0  0  0  0  0
   21.5964   36.2749   69.1125 N   0  0  0  0  0  0  0  0  0  0  0  0
   21.4652   37.1195   68.0860 C   0  0  0  0  0  0  0  0  0  0  0  0
   20.2254   37.6437   67.8357 N   0  0  0  0  0  0  0  0  0  0  0  0
   19.1921   37.3021   68.6123 C   0  0  0  0  0  0  0  0  0  0  0  0
   17.8776   37.6673   68.5729 N   0  0  0  0  0  0  0  0  0  0  0  0
   17.2475   37.0531   69.5530 N   0  0  0  0  0  0  0  0  0  0  0  0
   18.0960   36.2898   70.2455 C   0  0  0  0  0  0  0  0  0  0  0  0
   19.3329   36.4274   69.6738 C   0  0  0  0  0  0  0  0  0  0  0  0
   17.2886   38.5595   67.6179 C   0  0  0  0  0  0  0  0  0  0  0  0
  9 10  2  0  0  0
  9 11  2  0  0  0
  9  1  1  0  0  0
  9 12  1  0  0  0
  1  2  1  0  0  0
  1  6  1  0  0  0
  2  3  1  0  0  0
  3  4  1  0  0  0
  4  5  1  0  0  0
  4  7  1  0  0  0
  5  6  1  0  0  0
  7  8  2  0  0  0
  7 19  1  0  0  0
 19 20  1  0  0  0
 20 21  1  0  0  0
 21 22  2  0  0  0
 21 29  1  0  0  0
 22 23  1  0  0  0
 23 24  2  0  0  0
 24 25  1  0  0  0
 25 26  1  0  0  0
 25 29  2  0  0  0
 26 27  1  0  0  0
 26 30  1  0  0  0
 27 28  2  0  0  0
 28 29  1  0  0  0
 12 13  2  0  0  0
 12 17  1  0  0  0
 13 14  1  0  0  0
 14 15  2  0  0  0
 15 16  1  0  0  0
 15 18  1  0  0  0
 16 17  2  0  0  0
M  END
> <minimizedAffinity>
-9.04230

$$$$
2043


 32 35  0  0  0  0  0  0  0  0999 V2000
   22.3190   35.8533   67.6132 N   0  0  0  0  0  0  0  0  0  0  0  0
   21.6892   34.5585   67.6952 C   0  0  0  0  0  0  0  0  0  0  0  0
   21.6617   34.1446   69.1650 C   0  0  0  0  0  0  0  0  0  0  0  0
   21.3197   35.2596   69.9647 N   0  0  0  0  0  0  0  0  0  0  0  0
   22.5072   36.2193   70.0654 C   0  0  0  0  0  0  0  0  0  0  0  0
   23.1302   36.2157   68.7156 C   0  0  0  0  0  0  0  0  0  0  0  0
   20.1604   35.6301   70.5816 C   0  0  0  0  0  0  0  0  0  0  0  0
   20.3953   36.7214   71.3884 O   0  0  0  0  0  0  0  0  0  0  0  0
   18.8000   35.2708   70.6741 C   0  0  0  0  0  0  0  0  0  0  0  0
   17.6149   35.7673   70.5399 C   0  0  0  0  0  0  0  0  0  0  0  0
   17.3601   37.1038   70.1978 N   0  0  0  0  0  0  0  0  0  0  0  0
   16.0744   37.6506   69.9875 N   0  0  0  0  0  0  0  0  0  0  0  0
   14.9561   36.8224   70.1254 C   0  0  0  0  0  0  0  0  0  0  0  0
   13.8046   37.2962   69.9415 O   0  0  0  0  0  0  0  0  0  0  0  0
   15.1608   35.4082   70.4855 C   0  0  0  0  0  0  0  0  0  0  0  0
   16.4221   34.8797   70.6889 C   0  0  0  0  0  0  0  0  0  0  0  0
   16.5210   33.5660   71.0173 C   0  0  0  0  0  0  0  0  0  0  0  0
   15.3657   32.7876   71.1404 C   0  0  0  0  0  0  0  0  0  0  0  0
   14.1112   33.3064   70.9403 C   0  0  0  0  0  0  0  0  0  0  0  0
   14.0159   34.6403   70.6072 C   0  0  0  0  0  0  0  0  0  0  0  0
   18.1231   37.7797   70.1201 H   0  0  0  0  0  0  0  0  0  0  0  0
   16.0081   38.6800   69.7303 H   0  0  0  0  0  0  0  0  0  0  0  0
   21.3972   37.0621   66.8991 S   0  0  0  0  0  0  0  0  0  0  0  0
   20.4360   36.3975   65.9222 O   0  0  0  0  0  0  0  0  0  0  0  0
   20.4969   37.6685   67.9694 O   0  0  0  0  0  0  0  0  0  0  0  0
   22.2792   38.3414   66.1633 C   0  0  0  0  0  0  0  0  0  0  0  0
   23.5285   38.1378   65.6334 C   0  0  0  0  0  0  0  0  0  0  0  0
   24.2190   39.1826   65.0461 C   0  0  0  0  0  0  0  0  0  0  0  0
   23.6922   40.4526   64.9704 C   0  0  0  0  0  0  0  0  0  0  0  0
   22.4315   40.6650   65.5043 C   0  0  0  0  0  0  0  0  0  0  0  0
   21.7467   39.6033   66.0921 C   0  0  0  0  0  0  0  0  0  0  0  0
   24.6086   41.7422   64.2169 Cl  0  0  0  0  0  0  0  0  0  0  0  0
 23 24  2  0  0  0
 23 25  2  0  0  0
 23  1  1  0  0  0
 23 26  1  0  0  0
  1  2  1  0  0  0
  1  6  1  0  0  0
  2  3  1  0  0  0
  3  4  1  0  0  0
  4  5  1  0  0  0
  4  7  1  0  0  0
  5  6  1  0  0  0
  7  8  2  0  0  0
  7  9  1  0  0  0
  9 10  2  0  0  0
 10 11  1  0  0  0
 10 16  1  0  0  0
 11 12  1  0  0  0
 12 13  1  0  0  0
 13 14  2  0  0  0
 13 15  1  0  0  0
 15 16  2  0  0  0
 15 20  1  0  0  0
 16 17  1  0  0  0
 17 18  2  0  0  0
 18 19  1  0  0  0
 19 20  2  0  0  0
 26 27  2  0  0  0
 26 31  1  0  0  0
 27 28  1  0  0  0
 28 29  2  0  0  0
 29 30  1  0  0  0
 29 32  1  0  0  0
 30 31  2  0  0  0
 11 21  1  0  0  0
 12 22  1  0  0  0
M  END
> <minimizedAffinity>
-9.88023

$$$$
2046


 26 29  0  0  0  0  0  0  0  0999 V2000
   21.4032   37.5963   71.0094 Cl  0  0  0  0  0  0  0  0  0  0  0  0
   20.3426   36.2296   71.1564 C   0  0  0  0  0  0  0  0  0  0  0  0
   19.3152   36.0291   70.2702 C   0  0  0  0  0  0  0  0  0  0  0  0
   18.5082   34.9269   70.4408 C   0  0  0  0  0  0  0  0  0  0  0  0
   18.6791   34.0120   71.4572 C   0  0  0  0  0  0  0  0  0  0  0  0
   19.7149   34.2286   72.3373 C   0  0  0  0  0  0  0  0  0  0  0  0
   20.5277   35.3297   72.1751 C   0  0  0  0  0  0  0  0  0  0  0  0
   19.0524   36.9094   69.2060 N   0  0  0  0  0  0  0  0  0  0  0  0
   18.0917   37.8110   69.2005 N   0  0  0  0  0  0  0  0  0  0  0  0
   18.1096   38.4868   68.0672 N   0  0  0  0  0  0  0  0  0  0  0  0
   19.1018   37.9916   67.3554 N   0  0  0  0  0  0  0  0  0  0  0  0
   19.7129   36.9916   68.0588 C   0  0  0  0  0  0  0  0  0  0  0  0
   20.8475   36.2376   67.5280 C   0  0  0  0  0  0  0  0  0  0  0  0
   21.5218   36.4938   66.2613 C   0  0  0  0  0  0  0  0  0  0  0  0
   22.2018   37.0054   67.5422 C   0  0  0  0  0  0  0  0  0  0  0  0
   17.8134   32.8597   71.6115 N   0  0  0  0  0  0  0  0  0  0  0  0
   18.0080   31.9786   71.1265 H   0  0  0  0  0  0  0  0  0  0  0  0
   16.6902   33.0221   72.4676 C   0  0  0  0  0  0  0  0  0  0  0  0
   15.3543   32.9438   71.8841 C   0  0  0  0  0  0  0  0  0  0  0  0
   14.9212   31.7105   71.7907 O   0  0  0  0  0  0  0  0  0  0  0  0
   14.4888   33.9059   71.4269 N   0  0  0  0  0  0  0  0  0  0  0  0
   14.6744   35.3195   71.5072 C   0  0  0  0  0  0  0  0  0  0  0  0
   14.6463   35.8892   70.0917 C   0  0  0  0  0  0  0  0  0  0  0  0
   13.3390   35.6269   69.6263 O   0  0  0  0  0  0  0  0  0  0  0  0
   13.2202   34.2707   69.4137 C   0  0  0  0  0  0  0  0  0  0  0  0
   13.2404   33.5059   70.7416 C   0  0  0  0  0  0  0  0  0  0  0  0
  1  2  1  0  0  0
  2  3  2  0  0  0
  2  7  1  0  0  0
  3  4  1  0  0  0
  3  8  1  0  0  0
  4  5  2  0  0  0
  5  6  1  0  0  0
  5 16  1  0  0  0
  6  7  2  0  0  0
 16 18  1  0  0  0
 18 19  1  0  0  0
 19 20  2  0  0  0
 19 21  1  0  0  0
 21 22  1  0  0  0
 21 26  1  0  0  0
 22 23  1  0  0  0
 23 24  1  0  0  0
 24 25  1  0  0  0
 25 26  1  0  0  0
  8  9  1  0  0  0
  8 12  1  0  0  0
  9 10  2  0  0  0
 10 11  1  0  0  0
 11 12  2  0  0  0
 12 13  1  0  0  0
 13 14  1  0  0  0
 13 15  1  0  0  0
 14 15  1  0  0  0
 16 17  1  0  0  0
M  END
> <minimizedAffinity>
-7.65475

$$$$
2063


 34 37  0  0  0  0  0  0  0  0999 V2000
   21.3453   36.9659   67.5650 C   0  0  0  0  0  0  0  0  0  0  0  0
   21.4196   36.3120   68.7913 C   0  0  0  0  0  0  0  0  0  0  0  0
   20.3937   36.2164   69.6036 O   0  0  0  0  0  0  0  0  0  0  0  0
   19.2175   36.7285   69.3280 C   0  0  0  0  0  0  0  0  0  0  0  0
   19.0473   37.3945   68.1371 C   0  0  0  0  0  0  0  0  0  0  0  0
   17.8001   37.9138   67.8898 C   0  0  0  0  0  0  0  0  0  0  0  0
   16.7474   37.7975   68.7616 C   0  0  0  0  0  0  0  0  0  0  0  0
   16.9001   37.1180   69.9873 C   0  0  0  0  0  0  0  0  0  0  0  0
   18.1513   36.6014   70.2278 C   0  0  0  0  0  0  0  0  0  0  0  0
   20.1045   37.5131   67.2608 C   0  0  0  0  0  0  0  0  0  0  0  0
   19.9501   38.1230   66.1693 O   0  0  0  0  0  0  0  0  0  0  0  0
   26.2246   37.1684   63.7808 Br  0  0  0  0  0  0  0  0  0  0  0  0
   24.7151   37.1257   64.9549 C   0  0  0  0  0  0  0  0  0  0  0  0
   24.2208   38.2690   65.5389 C   0  0  0  0  0  0  0  0  0  0  0  0
   23.1247   38.2495   66.3934 C   0  0  0  0  0  0  0  0  0  0  0  0
   22.4911   37.0593   66.6845 C   0  0  0  0  0  0  0  0  0  0  0  0
   22.9902   35.9102   66.0951 C   0  0  0  0  0  0  0  0  0  0  0  0
   24.0780   35.9283   65.2464 C   0  0  0  0  0  0  0  0  0  0  0  0
   15.8169   37.0226   70.8363 O   0  0  0  0  0  0  0  0  0  0  0  0
   14.9602   35.9671   70.9467 C   0  0  0  0  0  0  0  0  0  0  0  0
   15.6146   34.7069   70.9007 O   0  0  0  0  0  0  0  0  0  0  0  0
   14.7612   33.8267   71.5295 C   0  0  0  0  0  0  0  0  0  0  0  0
   13.4512   33.6268   70.8329 C   0  0  0  0  0  0  0  0  0  0  0  0
   12.8568   34.9238   70.3392 C   0  0  0  0  0  0  0  0  0  0  0  0
   13.9214   35.8803   69.8436 C   0  0  0  0  0  0  0  0  0  0  0  0
   13.3177   37.1097   69.6083 O   0  0  0  0  0  0  0  0  0  0  0  0
   11.8934   34.6566   69.3752 O   0  0  0  0  0  0  0  0  0  0  0  0
   12.5529   33.1103   71.7807 O   0  0  0  0  0  0  0  0  0  0  0  0
   13.1552   37.2429   68.6449 H   0  0  0  0  0  0  0  0  0  0  0  0
   11.6559   33.6795   69.3377 H   0  0  0  0  0  0  0  0  0  0  0  0
   12.6187   33.6093   72.6328 H   0  0  0  0  0  0  0  0  0  0  0  0
   15.3979   32.4897   71.8136 C   0  0  0  0  0  0  0  0  0  0  0  0
   14.7679   31.4539   71.1274 O   0  0  0  0  0  0  0  0  0  0  0  0
   15.3571   30.6476   71.2640 H   0  0  0  0  0  0  0  0  0  0  0  0
 12 13  1  0  0  0
 13 14  2  0  0  0
 13 18  1  0  0  0
 14 15  1  0  0  0
 15 16  2  0  0  0
 16 17  1  0  0  0
 16  1  1  0  0  0
 17 18  2  0  0  0
  1  2  2  0  0  0
  1 10  1  0  0  0
  2  3  1  0  0  0
  3  4  1  0  0  0
  4  5  2  0  0  0
  4  9  1  0  0  0
  5  6  1  0  0  0
  5 10  1  0  0  0
  6  7  2  0  0  0
  7  8  1  0  0  0
  8  9  2  0  0  0
  8 19  1  0  0  0
 19 20  1  0  0  0
 20 21  1  0  0  0
 20 25  1  0  0  0
 21 22  1  0  0  0
 22 23  1  0  0  0
 22 32  1  0  0  0
 23 24  1  0  0  0
 23 28  1  0  0  0
 24 25  1  0  0  0
 24 27  1  0  0  0
 25 26  1  0  0  0
 32 33  1  0  0  0
 10 11  2  0  0  0
 26 29  1  0  0  0
 27 30  1  0  0  0
 28 31  1  0  0  0
 33 34  1  0  0  0
M  END
> <minimizedAffinity>
-10.09645

$$$$
2072


 27 30  0  0  0  0  0  0  0  0999 V2000
   20.7431   34.5559   71.2102 N   0  0  0  0  0  0  0  0  0  0  0  0
   20.5851   33.4293   70.3650 C   0  0  0  0  0  0  0  0  0  0  0  0
   19.8082   32.2614   70.9024 C   0  0  0  0  0  0  0  0  0  0  0  0
   18.7956   32.7389   71.7852 N   0  0  0  0  0  0  0  0  0  0  0  0
   19.4980   33.3162   72.9308 C   0  0  0  0  0  0  0  0  0  0  0  0
   20.1644   34.5646   72.4877 C   0  0  0  0  0  0  0  0  0  0  0  0
   20.2901   35.9785   70.3505 S   0  0  0  0  0  0  0  0  0  0  0  0
   18.7891   35.9683   70.1665 O   0  0  0  0  0  0  0  0  0  0  0  0
   20.6482   37.2107   71.0933 O   0  0  0  0  0  0  0  0  0  0  0  0
   21.1081   36.0303   68.7818 C   0  0  0  0  0  0  0  0  0  0  0  0
   22.7506   35.7652   68.4104 S   0  0  0  0  0  0  0  0  0  0  0  0
   22.6937   35.9981   66.7251 C   0  0  0  0  0  0  0  0  0  0  0  0
   21.3738   36.2805   66.4952 C   0  0  0  0  0  0  0  0  0  0  0  0
   20.5567   36.2970   67.5551 C   0  0  0  0  0  0  0  0  0  0  0  0
   24.1160   35.8963   65.4282 Br  0  0  0  0  0  0  0  0  0  0  0  0
   17.8436   31.7663   72.2004 C   0  0  0  0  0  0  0  0  0  0  0  0
   16.7121   32.3778   72.9536 C   0  0  0  0  0  0  0  0  0  0  0  0
   15.8826   33.2193   72.1173 N   0  0  0  0  0  0  0  0  0  0  0  0
   15.9658   34.5403   71.9653 N   0  0  0  0  0  0  0  0  0  0  0  0
   15.0389   34.9703   71.0980 C   0  0  0  0  0  0  0  0  0  0  0  0
   14.3507   33.8969   70.6907 N   0  0  0  0  0  0  0  0  0  0  0  0
   13.3343   34.0094   69.8019 C   0  0  0  0  0  0  0  0  0  0  0  0
   12.9559   35.2221   69.2719 C   0  0  0  0  0  0  0  0  0  0  0  0
   13.6489   36.3468   69.6747 C   0  0  0  0  0  0  0  0  0  0  0  0
   14.6776   36.2005   70.5796 C   0  0  0  0  0  0  0  0  0  0  0  0
   14.8836   32.8152   71.3309 C   0  0  0  0  0  0  0  0  0  0  0  0
   14.4346   31.6590   71.1460 O   0  0  0  0  0  0  0  0  0  0  0  0
  7  8  2  0  0  0
  7  9  2  0  0  0
  7  1  1  0  0  0
  7 10  1  0  0  0
  1  2  1  0  0  0
  1  6  1  0  0  0
  2  3  1  0  0  0
  3  4  1  0  0  0
  4  5  1  0  0  0
  4 16  1  0  0  0
  5  6  1  0  0  0
 16 17  1  0  0  0
 17 18  1  0  0  0
 18 19  1  0  0  0
 18 26  1  0  0  0
 19 20  2  0  0  0
 20 21  1  0  0  0
 20 25  1  0  0  0
 21 22  1  0  0  0
 21 26  1  0  0  0
 22 23  2  0  0  0
 23 24  1  0  0  0
 24 25  2  0  0  0
 26 27  2  0  0  0
 10 11  1  0  0  0
 10 14  2  0  0  0
 11 12  1  0  0  0
 12 13  2  0  0  0
 12 15  1  0  0  0
 13 14  1  0  0  0
M  END
> <minimizedAffinity>
-8.24911

$$$$
2079


 31 34  0  0  0  0  0  0  0  0999 V2000
   20.6513   36.2060   68.9660 C   0  0  0  0  0  0  0  0  0  0  0  0
   19.5796   37.0570   68.8232 C   0  0  0  0  0  0  0  0  0  0  0  0
   18.3869   36.7572   69.4965 C   0  0  0  0  0  0  0  0  0  0  0  0
   18.2706   35.6342   70.2858 C   0  0  0  0  0  0  0  0  0  0  0  0
   17.1300   35.2550   70.9943 C   0  0  0  0  0  0  0  0  0  0  0  0
   16.0489   36.1597   70.8442 C   0  0  0  0  0  0  0  0  0  0  0  0
   16.1281   37.3070   70.0604 C   0  0  0  0  0  0  0  0  0  0  0  0
   17.3071   37.5966   69.3924 C   0  0  0  0  0  0  0  0  0  0  0  0
   14.8282   35.9764   71.4634 O   0  0  0  0  0  0  0  0  0  0  0  0
   19.2860   34.8758   70.3884 O   0  0  0  0  0  0  0  0  0  0  0  0
   20.4633   35.0773   69.7903 C   0  0  0  0  0  0  0  0  0  0  0  0
   21.4081   34.2918   69.9301 O   0  0  0  0  0  0  0  0  0  0  0  0
   25.9065   37.7372   66.3294 Cl  0  0  0  0  0  0  0  0  0  0  0  0
   24.3883   37.2081   67.0945 C   0  0  0  0  0  0  0  0  0  0  0  0
   23.2341   36.9414   66.3673 C   0  0  0  0  0  0  0  0  0  0  0  0
   22.0420   36.6008   66.9809 C   0  0  0  0  0  0  0  0  0  0  0  0
   21.9721   36.5188   68.3847 C   0  0  0  0  0  0  0  0  0  0  0  0
   23.1092   36.7756   69.0634 C   0  0  0  0  0  0  0  0  0  0  0  0
   24.3120   37.1199   68.4733 C   0  0  0  0  0  0  0  0  0  0  0  0
   16.9874   34.2108   71.9470 C   0  0  0  0  0  0  0  0  0  0  0  0
   15.9501   33.2115   71.9222 N   0  0  0  0  0  0  0  0  0  0  0  0
   16.1170   32.2770   70.7742 C   0  0  0  0  0  0  0  0  0  0  0  0
   17.5568   31.9525   70.5910 C   0  0  0  0  0  0  0  0  0  0  0  0
   18.1936   31.3096   71.7175 N   0  0  0  0  0  0  0  0  0  0  0  0
   17.6053   31.6603   72.9655 C   0  0  0  0  0  0  0  0  0  0  0  0
   16.2711   32.2402   73.0172 C   0  0  0  0  0  0  0  0  0  0  0  0
   15.0009   33.4639   72.0744 H   0  0  0  0  0  0  0  0  0  0  0  0
   19.6328   31.6127   71.7291 C   0  0  0  0  0  0  0  0  0  0  0  0
   20.0542   32.3256   72.9934 C   0  0  0  0  0  0  0  0  0  0  0  0
   20.7412   33.5035   72.7404 O   0  0  0  0  0  0  0  0  0  0  0  0
   20.0680   34.2544   72.6927 H   0  0  0  0  0  0  0  0  0  0  0  0
 13 14  1  0  0  0
 14 15  2  0  0  0
 14 19  1  0  0  0
 15 16  1  0  0  0
 16 17  2  0  0  0
 17 18  1  0  0  0
 17  1  1  0  0  0
 18 19  2  0  0  0
  1  2  2  0  0  0
  1 11  1  0  0  0
  2  3  1  0  0  0
  3  4  2  0  0  0
  3  8  1  0  0  0
  4  5  1  0  0  0
  4 10  1  0  0  0
  5  6  2  0  0  0
  5 20  1  0  0  0
  6  7  1  0  0  0
  6  9  1  0  0  0
  7  8  2  0  0  0
 20 21  1  0  0  0
 21 22  1  0  0  0
 21 26  1  0  0  0
 22 23  1  0  0  0
 23 24  1  0  0  0
 24 25  1  0  0  0
 24 28  1  0  0  0
 25 26  1  0  0  0
 28 29  1  0  0  0
 29 30  1  0  0  0
 10 11  1  0  0  0
 11 12  2  0  0  0
 21 27  1  0  0  0
 30 31  1  0  0  0
M  CHG 1   9  -1
M  CHG 1  21   1
M  END
> <minimizedAffinity>
-8.37071

$$$$
2087


 32 35  0  0  0  0  0  0  0  0999 V2000
   20.0640   34.7123   70.6540 N   0  0  0  0  0  0  0  0  0  0  0  0
   21.0549   35.3987   69.9967 C   0  0  0  0  0  0  0  0  0  0  0  0
   21.6700   34.5621   69.0866 C   0  0  0  0  0  0  0  0  0  0  0  0
   21.0448   33.3874   69.2099 N   0  0  0  0  0  0  0  0  0  0  0  0
   20.0662   33.4716   70.1663 C   0  0  0  0  0  0  0  0  0  0  0  0
   22.6858   34.9997   68.3175 N   0  0  0  0  0  0  0  0  0  0  0  0
   23.0868   36.2710   68.4596 C   0  0  0  0  0  0  0  0  0  0  0  0
   24.0352   36.6679   67.7371 O   0  0  0  0  0  0  0  0  0  0  0  0
   22.5177   37.1104   69.3313 N   0  0  0  0  0  0  0  0  0  0  0  0
   21.4843   36.7025   70.1274 C   0  0  0  0  0  0  0  0  0  0  0  0
   20.9741   37.5137   70.9371 O   0  0  0  0  0  0  0  0  0  0  0  0
   23.3001   34.0887   67.3692 C   0  0  0  0  0  0  0  0  0  0  0  0
   22.8470   38.1044   69.4313 H   0  0  0  0  0  0  0  0  0  0  0  0
   19.3229   32.3480   70.5616 N   0  0  0  0  0  0  0  0  0  0  0  0
   18.1244   31.8113   70.0236 C   0  0  0  0  0  0  0  0  0  0  0  0
   17.3007   31.0617   71.0765 C   0  0  0  0  0  0  0  0  0  0  0  0
   17.5227   31.4458   72.4093 N   0  0  0  0  0  0  0  0  0  0  0  0
   18.8607   31.5686   72.8364 C   0  0  0  0  0  0  0  0  0  0  0  0
   19.8660   31.5682   71.7076 C   0  0  0  0  0  0  0  0  0  0  0  0
   16.5110   32.0925   73.1375 C   0  0  0  0  0  0  0  0  0  0  0  0
   15.1496   31.5447   73.0414 C   0  0  0  0  0  0  0  0  0  0  0  0
   14.7994   30.4865   73.6288 O   0  0  0  0  0  0  0  0  0  0  0  0
   14.2011   32.1972   72.2836 O   0  0  0  0  0  0  0  0  0  0  0  0
   13.6925   31.6687   71.0896 C   0  0  0  0  0  0  0  0  0  0  0  0
   19.2043   35.2987   71.6501 C   0  0  0  0  0  0  0  0  0  0  0  0
   13.5967   36.6638   69.4523 Br  0  0  0  0  0  0  0  0  0  0  0  0
   15.3289   36.2314   70.1230 C   0  0  0  0  0  0  0  0  0  0  0  0
   15.5057   35.2085   71.0279 C   0  0  0  0  0  0  0  0  0  0  0  0
   16.7804   34.9067   71.5091 C   0  0  0  0  0  0  0  0  0  0  0  0
   17.8437   35.6391   71.0697 C   0  0  0  0  0  0  0  0  0  0  0  0
   17.6856   36.6563   70.1732 C   0  0  0  0  0  0  0  0  0  0  0  0
   16.4318   36.9536   69.6987 C   0  0  0  0  0  0  0  0  0  0  0  0
 26 27  1  0  0  0
 27 28  2  0  0  0
 27 32  1  0  0  0
 28 29  1  0  0  0
 29 30  2  0  0  0
 30 31  1  0  0  0
 30 25  1  0  0  0
 31 32  2  0  0  0
 25  1  1  0  0  0
  1  2  1  0  0  0
  1  5  1  0  0  0
  2  3  2  0  0  0
  2 10  1  0  0  0
  3  4  1  0  0  0
  3  6  1  0  0  0
  4  5  2  0  0  0
  5 14  1  0  0  0
 14 15  1  0  0  0
 14 19  1  0  0  0
 15 16  1  0  0  0
 16 17  1  0  0  0
 17 18  1  0  0  0
 17 20  1  0  0  0
 18 19  1  0  0  0
 20 21  1  0  0  0
 21 22  2  0  0  0
 21 23  1  0  0  0
 23 24  1  0  0  0
  6  7  1  0  0  0
  6 12  1  0  0  0
  7  8  2  0  0  0
  7  9  1  0  0  0
  9 10  1  0  0  0
 10 11  2  0  0  0
  9 13  1  0  0  0
M  END
> <minimizedAffinity>
-7.99081

$$$$
2091


 28 31  0  0  0  0  0  0  0  0999 V2000
   17.2782   35.6923   70.7018 N   0  0  0  0  0  0  0  0  0  0  0  0
   15.9590   35.6490   70.4642 C   0  0  0  0  0  0  0  0  0  0  0  0
   15.5255   34.3477   70.5867 C   0  0  0  0  0  0  0  0  0  0  0  0
   16.5985   33.6365   70.8965 N   0  0  0  0  0  0  0  0  0  0  0  0
   17.6791   34.4257   70.9745 C   0  0  0  0  0  0  0  0  0  0  0  0
   14.2344   33.9671   70.4171 N   0  0  0  0  0  0  0  0  0  0  0  0
   13.3517   34.9332   70.1166 C   0  0  0  0  0  0  0  0  0  0  0  0
   12.1607   34.5628   69.9614 O   0  0  0  0  0  0  0  0  0  0  0  0
   13.7121   36.2218   69.9869 N   0  0  0  0  0  0  0  0  0  0  0  0
   14.9902   36.6100   70.1522 C   0  0  0  0  0  0  0  0  0  0  0  0
   15.3546   37.7887   70.0423 O   0  0  0  0  0  0  0  0  0  0  0  0
   13.8727   32.5729   70.5628 C   0  0  0  0  0  0  0  0  0  0  0  0
   13.0188   36.9656   69.7559 H   0  0  0  0  0  0  0  0  0  0  0  0
   19.0194   34.0216   71.2844 N   0  0  0  0  0  0  0  0  0  0  0  0
   19.7674   33.3274   70.2597 C   0  0  0  0  0  0  0  0  0  0  0  0
   20.0399   31.9161   70.7590 C   0  0  0  0  0  0  0  0  0  0  0  0
   20.0033   31.8129   72.1796 N   0  0  0  0  0  0  0  0  0  0  0  0
   20.4079   32.9720   72.9034 C   0  0  0  0  0  0  0  0  0  0  0  0
   19.6760   34.2401   72.5459 C   0  0  0  0  0  0  0  0  0  0  0  0
   18.9853   31.0174   72.7529 C   0  0  0  0  0  0  0  0  0  0  0  0
   18.1234   36.8608   70.6656 C   0  0  0  0  0  0  0  0  0  0  0  0
   22.3608   37.5422   66.2297 Br  0  0  0  0  0  0  0  0  0  0  0  0
   21.0072   37.3191   67.5529 C   0  0  0  0  0  0  0  0  0  0  0  0
   19.6545   37.4230   67.2447 C   0  0  0  0  0  0  0  0  0  0  0  0
   18.7133   37.2598   68.2596 C   0  0  0  0  0  0  0  0  0  0  0  0
   19.0423   37.0012   69.5539 C   0  0  0  0  0  0  0  0  0  0  0  0
   20.4223   36.9044   69.8175 C   0  0  0  0  0  0  0  0  0  0  0  0
   21.3864   37.0590   68.8490 C   0  0  0  0  0  0  0  0  0  0  0  0
 22 23  1  0  0  0
 23 24  2  0  0  0
 23 28  1  0  0  0
 24 25  1  0  0  0
 25 26  2  0  0  0
 26 27  1  0  0  0
 26 21  1  0  0  0
 27 28  2  0  0  0
 21  1  1  0  0  0
  1  2  1  0  0  0
  1  5  1  0  0  0
  2  3  2  0  0  0
  2 10  1  0  0  0
  3  4  1  0  0  0
  3  6  1  0  0  0
  4  5  2  0  0  0
  5 14  1  0  0  0
 14 15  1  0  0  0
 14 19  1  0  0  0
 15 16  1  0  0  0
 16 17  1  0  0  0
 17 18  1  0  0  0
 17 20  1  0  0  0
 18 19  1  0  0  0
  6  7  1  0  0  0
  6 12  1  0  0  0
  7  8  2  0  0  0
  7  9  1  0  0  0
  9 10  1  0  0  0
 10 11  2  0  0  0
  9 13  1  0  0  0
M  END
> <minimizedAffinity>
-8.31964

$$$$
2103


 29 32  0  0  0  0  0  0  0  0999 V2000
   18.6136   35.9353   70.3875 C   0  0  0  0  0  0  0  0  0  0  0  0
   19.1773   34.6584   70.7422 C   0  0  0  0  0  0  0  0  0  0  0  0
   18.3660   33.6216   71.0252 C   0  0  0  0  0  0  0  0  0  0  0  0
   16.9666   33.7602   70.9808 C   0  0  0  0  0  0  0  0  0  0  0  0
   16.4119   34.9716   70.6464 C   0  0  0  0  0  0  0  0  0  0  0  0
   17.2479   36.0605   70.3521 C   0  0  0  0  0  0  0  0  0  0  0  0
   16.6664   37.4006   70.0817 C   0  0  0  0  0  0  0  0  0  0  0  0
   15.2248   37.5486   70.5566 C   0  0  0  0  0  0  0  0  0  0  0  0
   14.4169   36.4146   70.1734 N   0  0  0  0  0  0  0  0  0  0  0  0
   14.9655   35.1459   70.5565 C   0  0  0  0  0  0  0  0  0  0  0  0
   14.1462   34.2355   70.7978 O   0  0  0  0  0  0  0  0  0  0  0  0
   13.1631   36.5493   69.4634 C   0  0  0  0  0  0  0  0  0  0  0  0
   16.2252   32.6772   71.2755 O   0  0  0  0  0  0  0  0  0  0  0  0
   19.1872   32.5256   71.3318 O   0  0  0  0  0  0  0  0  0  0  0  0
   20.5256   32.8185   70.9909 C   0  0  0  0  0  0  0  0  0  0  0  0
   20.5013   34.2267   70.8657 O   0  0  0  0  0  0  0  0  0  0  0  0
   15.2736   32.5435   71.3094 H   0  0  0  0  0  0  0  0  0  0  0  0
   19.6477   36.9089   70.1090 C   0  0  0  0  0  0  0  0  0  0  0  0
   20.7783   37.1271   67.9668 C   0  0  0  0  0  0  0  0  0  0  0  0
   19.7454   37.6742   67.5456 O   0  0  0  0  0  0  0  0  0  0  0  0
   20.8116   36.6746   69.3729 N   0  0  0  0  0  0  0  0  0  0  0  0
   21.7299   36.2746   69.6146 H   0  0  0  0  0  0  0  0  0  0  0  0
   24.6521   34.0456   65.9845 Br  0  0  0  0  0  0  0  0  0  0  0  0
   23.6857   35.6857   66.1363 C   0  0  0  0  0  0  0  0  0  0  0  0
   24.0488   36.7720   65.4051 C   0  0  0  0  0  0  0  0  0  0  0  0
   23.3839   37.9225   65.5007 N   0  0  0  0  0  0  0  0  0  0  0  0
   22.3360   38.0174   66.3318 C   0  0  0  0  0  0  0  0  0  0  0  0
   21.9201   36.9383   67.1037 C   0  0  0  0  0  0  0  0  0  0  0  0
   22.6013   35.7463   67.0105 C   0  0  0  0  0  0  0  0  0  0  0  0
 23 24  1  0  0  0
 24 25  2  0  0  0
 24 29  1  0  0  0
 25 26  1  0  0  0
 26 27  2  0  0  0
 27 28  1  0  0  0
 28 29  2  0  0  0
 28 19  1  0  0  0
 19 20  2  0  0  0
 19 21  1  0  0  0
 21 18  1  0  0  0
 18  1  1  0  0  0
  1  2  2  0  0  0
  1  6  1  0  0  0
  2  3  1  0  0  0
  2 16  1  0  0  0
  3  4  2  0  0  0
  3 14  1  0  0  0
  4  5  1  0  0  0
  4 13  1  0  0  0
  5  6  2  0  0  0
  5 10  1  0  0  0
  6  7  1  0  0  0
  7  8  1  0  0  0
  8  9  1  0  0  0
  9 10  1  0  0  0
  9 12  1  0  0  0
 10 11  2  0  0  0
 14 15  1  0  0  0
 15 16  1  0  0  0
 21 22  1  0  0  0
 13 17  1  0  0  0
M  END
> <minimizedAffinity>
-9.37218

$$$$
2105


 29 32  0  0  0  0  0  0  0  0999 V2000
   26.7355   39.4385   63.3368 Cl  0  0  0  0  0  0  0  0  0  0  0  0
   26.4876   38.9945   65.0126 C   0  0  0  0  0  0  0  0  0  0  0  0
   25.6099   37.9645   65.3519 C   0  0  0  0  0  0  0  0  0  0  0  0
   25.3889   37.5890   66.6437 C   0  0  0  0  0  0  0  0  0  0  0  0
   26.0874   38.2864   67.6198 C   0  0  0  0  0  0  0  0  0  0  0  0
   26.9593   39.3058   67.3046 C   0  0  0  0  0  0  0  0  0  0  0  0
   27.1685   39.6708   65.9937 C   0  0  0  0  0  0  0  0  0  0  0  0
   24.4129   36.4800   66.6617 C   0  0  0  0  0  0  0  0  0  0  0  0
   23.1621   36.8978   67.3927 C   0  0  0  0  0  0  0  0  0  0  0  0
   22.6750   36.2490   68.4135 C   0  0  0  0  0  0  0  0  0  0  0  0
   23.3013   35.0747   68.9252 N   0  0  0  0  0  0  0  0  0  0  0  0
   24.4832   34.6120   68.2969 C   0  0  0  0  0  0  0  0  0  0  0  0
   24.9825   35.2571   67.2672 C   0  0  0  0  0  0  0  0  0  0  0  0
   25.1675   33.4409   68.7523 N   0  0  0  0  0  0  0  0  0  0  0  0
   21.4513   36.9347   68.8758 C   0  0  0  0  0  0  0  0  0  0  0  0
   21.2880   38.0138   68.0413 O   0  0  0  0  0  0  0  0  0  0  0  0
   22.3036   38.0422   67.1141 C   0  0  0  0  0  0  0  0  0  0  0  0
   22.4893   38.8937   66.1760 O   0  0  0  0  0  0  0  0  0  0  0  0
   21.6109   37.2960   70.3359 C   0  0  0  0  0  0  0  0  0  0  0  0
   20.2265   36.0460   68.7575 C   0  0  0  0  0  0  0  0  0  0  0  0
   24.0894   36.2511   65.2340 C   0  0  0  0  0  0  0  0  0  0  0  0
   23.2771   35.3754   64.7656 O   0  0  0  0  0  0  0  0  0  0  0  0
   24.8342   37.1717   64.4692 N   0  0  0  0  0  0  0  0  0  0  0  0
   22.9177   34.5517   69.7408 H   0  0  0  0  0  0  0  0  0  0  0  0
   25.4151   33.3283   69.7442 H   0  0  0  0  0  0  0  0  0  0  0  0
   25.4058   32.7158   68.0652 H   0  0  0  0  0  0  0  0  0  0  0  0
   24.7935   37.2279   63.4062 H   0  0  0  0  0  0  0  0  0  0  0  0
   26.1993   34.7471   66.6510 C   0  0  0  0  0  0  0  0  0  0  0  0
   27.1567   34.3351   66.1488 N   0  0  0  0  0  0  0  0  0  0  0  0
  1  2  1  0  0  0
  2  3  2  0  0  0
  2  7  1  0  0  0
  3  4  1  0  0  0
  3 23  1  0  0  0
  4  5  2  0  0  0
  4  8  1  0  0  0
  5  6  1  0  0  0
  6  7  2  0  0  0
  8  9  1  0  0  0
  8 13  1  0  0  0
  8 21  1  0  0  0
  9 10  2  0  0  0
  9 17  1  0  0  0
 10 11  1  0  0  0
 10 15  1  0  0  0
 11 12  1  0  0  0
 12 13  2  0  0  0
 12 14  1  0  0  0
 13 28  1  0  0  0
 28 29  3  0  0  0
 15 16  1  0  0  0
 15 19  1  0  0  0
 15 20  1  0  0  0
 16 17  1  0  0  0
 17 18  2  0  0  0
 21 22  2  0  0  0
 21 23  1  0  0  0
 11 24  1  0  0  0
 14 25  1  0  0  0
 14 26  1  0  0  0
 23 27  1  0  0  0
M  END
> <minimizedAffinity>
-6.94630

$$$$
2109


 21 24  0  0  0  0  0  0  0  0999 V2000
   17.3275   32.4195   72.3066 N   0  0  0  0  0  0  0  0  0  0  0  0
   17.8702   31.0935   72.2213 C   0  0  0  0  0  0  0  0  0  0  0  0
   17.3818   30.1321   71.5772 O   0  0  0  0  0  0  0  0  0  0  0  0
   19.1159   31.0066   73.0172 C   0  0  0  0  0  0  0  0  0  0  0  0
   20.1762   30.4715   72.2942 O   0  0  0  0  0  0  0  0  0  0  0  0
   20.4877   31.3233   71.3314 N   0  0  0  0  0  0  0  0  0  0  0  0
   20.0912   32.6224   71.6550 C   0  0  0  0  0  0  0  0  0  0  0  0
   19.5231   32.4754   73.0675 C   0  0  0  0  0  0  0  0  0  0  0  0
   18.1986   33.1309   73.1850 C   0  0  0  0  0  0  0  0  0  0  0  0
   17.8448   34.1189   73.8953 O   0  0  0  0  0  0  0  0  0  0  0  0
   21.0576   33.7231   71.5394 C   0  0  0  0  0  0  0  0  0  0  0  0
   22.4047   33.4143   71.0154 C   0  0  0  0  0  0  0  0  0  0  0  0
   22.2861   32.3109   69.9873 C   0  0  0  0  0  0  0  0  0  0  0  0
   21.7292   31.1122   70.7104 C   0  0  0  0  0  0  0  0  0  0  0  0
   12.4806   34.6530   69.5411 Cl  0  0  0  0  0  0  0  0  0  0  0  0
   13.8944   33.9997   70.3495 C   0  0  0  0  0  0  0  0  0  0  0  0
   13.7676   32.9932   71.2842 C   0  0  0  0  0  0  0  0  0  0  0  0
   14.8892   32.4841   71.9174 C   0  0  0  0  0  0  0  0  0  0  0  0
   16.1647   32.9382   71.6588 C   0  0  0  0  0  0  0  0  0  0  0  0
   16.2820   33.9507   70.7174 C   0  0  0  0  0  0  0  0  0  0  0  0
   15.1661   34.4621   70.0823 C   0  0  0  0  0  0  0  0  0  0  0  0
 15 16  1  0  0  0
 16 17  2  0  0  0
 16 21  1  0  0  0
 17 18  1  0  0  0
 18 19  2  0  0  0
 19 20  1  0  0  0
 19  1  1  0  0  0
 20 21  2  0  0  0
  1  2  1  0  0  0
  1  9  1  0  0  0
  2  3  2  0  0  0
  2  4  1  0  0  0
  4  5  1  0  0  0
  4  8  1  0  0  0
  5  6  1  0  0  0
  6  7  1  0  0  0
  6 14  1  0  0  0
  7  8  1  0  0  0
  7 11  1  0  0  0
  8  9  1  0  0  0
  9 10  2  0  0  0
 11 12  1  0  0  0
 12 13  1  0  0  0
 13 14  1  0  0  0
M  END
> <minimizedAffinity>
-7.68019

$$$$
2116


 33 36  0  0  0  0  0  0  0  0999 V2000
   19.5713   37.1019   68.8453 C   0  0  0  0  0  0  0  0  0  0  0  0
   20.2796   37.6615   67.8775 N   0  0  0  0  0  0  0  0  0  0  0  0
   21.5396   37.3142   67.5625 C   0  0  0  0  0  0  0  0  0  0  0  0
   22.0966   36.3260   68.2960 N   0  0  0  0  0  0  0  0  0  0  0  0
   21.4194   35.7118   69.3028 C   0  0  0  0  0  0  0  0  0  0  0  0
   20.1511   36.1160   69.5623 N   0  0  0  0  0  0  0  0  0  0  0  0
   22.0185   34.6930   70.0706 N   0  0  0  0  0  0  0  0  0  0  0  0
   21.3251   34.0796   71.1742 C   0  0  0  0  0  0  0  0  0  0  0  0
   21.3902   32.5692   70.9041 C   0  0  0  0  0  0  0  0  0  0  0  0
   22.7056   32.2072   70.6963 O   0  0  0  0  0  0  0  0  0  0  0  0
   23.1661   32.7151   69.4823 C   0  0  0  0  0  0  0  0  0  0  0  0
   23.3421   34.2263   69.7447 C   0  0  0  0  0  0  0  0  0  0  0  0
   22.2711   37.9549   66.5042 N   0  0  0  0  0  0  0  0  0  0  0  0
   22.0036   39.3136   66.1271 C   0  0  0  0  0  0  0  0  0  0  0  0
   22.9731   39.9524   65.2110 C   0  0  0  0  0  0  0  0  0  0  0  0
   23.8092   39.0666   64.5457 O   0  0  0  0  0  0  0  0  0  0  0  0
   24.3842   38.1427   65.4076 C   0  0  0  0  0  0  0  0  0  0  0  0
   23.2845   37.1989   65.8288 C   0  0  0  0  0  0  0  0  0  0  0  0
   18.2543   37.5585   69.1275 N   0  0  0  0  0  0  0  0  0  0  0  0
   18.0562   38.5659   69.1129 H   0  0  0  0  0  0  0  0  0  0  0  0
   16.8063   36.4255   70.6115 C   0  0  0  0  0  0  0  0  0  0  0  0
   17.2453   36.6569   69.4221 N   0  0  0  0  0  0  0  0  0  0  0  0
   15.1904   31.7086   72.5936 Br  0  0  0  0  0  0  0  0  0  0  0  0
   14.8847   33.3777   71.7361 C   0  0  0  0  0  0  0  0  0  0  0  0
   13.5887   33.6913   71.3577 C   0  0  0  0  0  0  0  0  0  0  0  0
   13.3927   34.9073   70.7314 C   0  0  0  0  0  0  0  0  0  0  0  0
   14.4387   35.7616   70.4962 C   0  0  0  0  0  0  0  0  0  0  0  0
   15.7500   35.4687   70.8696 C   0  0  0  0  0  0  0  0  0  0  0  0
   15.9265   34.2523   71.4921 C   0  0  0  0  0  0  0  0  0  0  0  0
   14.2332   36.9904   69.8601 O   0  0  0  0  0  0  0  0  0  0  0  0
   12.5185   32.8304   71.5910 O   0  0  0  0  0  0  0  0  0  0  0  0
   13.2888   37.2318   69.5749 H   0  0  0  0  0  0  0  0  0  0  0  0
   12.6082   31.9359   72.0488 H   0  0  0  0  0  0  0  0  0  0  0  0
 23 24  1  0  0  0
 24 25  2  0  0  0
 24 29  1  0  0  0
 25 26  1  0  0  0
 25 31  1  0  0  0
 26 27  2  0  0  0
 27 28  1  0  0  0
 27 30  1  0  0  0
 28 29  2  0  0  0
 28 21  1  0  0  0
 21 22  2  0  0  0
 22 19  1  0  0  0
 19  1  1  0  0  0
  1  2  2  0  0  0
  1  6  1  0  0  0
  2  3  1  0  0  0
  3  4  2  0  0  0
  3 13  1  0  0  0
  4  5  1  0  0  0
  5  6  2  0  0  0
  5  7  1  0  0  0
  7  8  1  0  0  0
  7 12  1  0  0  0
  8  9  1  0  0  0
  9 10  1  0  0  0
 10 11  1  0  0  0
 11 12  1  0  0  0
 13 14  1  0  0  0
 13 18  1  0  0  0
 14 15  1  0  0  0
 15 16  1  0  0  0
 16 17  1  0  0  0
 17 18  1  0  0  0
 19 20  1  0  0  0
 30 32  1  0  0  0
 31 33  1  0  0  0
M  END
> <minimizedAffinity>
-9.07134

$$$$
2121


 31 34  0  0  0  0  0  0  0  0999 V2000
   20.2416   35.7947   70.7570 C   0  0  0  0  0  0  0  0  0  0  0  0
   21.1333   35.7275   71.7546 O   0  0  0  0  0  0  0  0  0  0  0  0
   20.4893   36.8253   69.8756 N   0  0  0  0  0  0  0  0  0  0  0  0
   21.7232   37.5734   70.2472 C   0  0  0  0  0  0  0  0  0  0  0  0
   22.9134   36.9353   69.5573 C   0  0  0  0  0  0  0  0  0  0  0  0
   22.4085   36.1765   68.3901 C   0  0  0  0  0  0  0  0  0  0  0  0
   21.6845   37.0693   67.4354 C   0  0  0  0  0  0  0  0  0  0  0  0
   20.2208   36.5947   67.4379 C   0  0  0  0  0  0  0  0  0  0  0  0
   19.6624   37.1450   68.7638 C   0  0  0  0  0  0  0  0  0  0  0  0
   22.2119   37.0665   66.1457 O   0  0  0  0  0  0  0  0  0  0  0  0
   23.2070   36.9252   66.2610 H   0  0  0  0  0  0  0  0  0  0  0  0
   13.7031   31.9535   71.2544 Cl  0  0  0  0  0  0  0  0  0  0  0  0
   15.4256   32.3063   71.0933 C   0  0  0  0  0  0  0  0  0  0  0  0
   15.8267   33.6025   71.1384 C   0  0  0  0  0  0  0  0  0  0  0  0
   17.1973   33.8505   71.0056 C   0  0  0  0  0  0  0  0  0  0  0  0
   18.0997   32.8583   70.8393 C   0  0  0  0  0  0  0  0  0  0  0  0
   19.3305   33.4467   70.7388 N   0  0  0  0  0  0  0  0  0  0  0  0
   19.2320   34.7745   70.8360 C   0  0  0  0  0  0  0  0  0  0  0  0
   17.8770   35.0527   71.0072 C   0  0  0  0  0  0  0  0  0  0  0  0
   17.6792   31.5566   70.7961 C   0  0  0  0  0  0  0  0  0  0  0  0
   16.3274   31.2756   70.9243 C   0  0  0  0  0  0  0  0  0  0  0  0
   20.1760   32.8738   70.6224 H   0  0  0  0  0  0  0  0  0  0  0  0
   23.3229   35.3340   67.6871 N   0  0  0  0  0  0  0  0  0  0  0  0
   22.8605   33.9878   67.4618 C   0  0  0  0  0  0  0  0  0  0  0  0
   22.6747   33.2463   68.7309 C   0  0  0  0  0  0  0  0  0  0  0  0
   23.9574   33.3052   69.4406 N   0  0  0  0  0  0  0  0  0  0  0  0
   25.0205   33.9954   68.7575 C   0  0  0  0  0  0  0  0  0  0  0  0
   24.6553   35.3499   68.2272 C   0  0  0  0  0  0  0  0  0  0  0  0
   24.0956   32.6825   70.7183 C   0  0  0  0  0  0  0  0  0  0  0  0
   25.1783   32.7499   71.3150 O   0  0  0  0  0  0  0  0  0  0  0  0
   22.9144   31.9639   71.2922 C   0  0  0  0  0  0  0  0  0  0  0  0
 12 13  1  0  0  0
 13 14  2  0  0  0
 13 21  1  0  0  0
 14 15  1  0  0  0
 15 16  2  0  0  0
 15 19  1  0  0  0
 16 17  1  0  0  0
 16 20  1  0  0  0
 17 18  1  0  0  0
 18 19  2  0  0  0
 18  1  1  0  0  0
  1  2  2  0  0  0
  1  3  1  0  0  0
  3  4  1  0  0  0
  3  9  1  0  0  0
  4  5  1  0  0  0
  5  6  1  0  0  0
  6  7  1  0  0  0
  6 23  1  0  0  0
  7  8  1  0  0  0
  7 10  1  0  0  0
  8  9  1  0  0  0
 23 24  1  0  0  0
 23 28  1  0  0  0
 24 25  1  0  0  0
 25 26  1  0  0  0
 26 27  1  0  0  0
 26 29  1  0  0  0
 27 28  1  0  0  0
 29 30  2  0  0  0
 29 31  1  0  0  0
 20 21  2  0  0  0
 17 22  1  0  0  0
 10 11  1  0  0  0
M  END
> <minimizedAffinity>
-8.55629

$$$$
2122


 29 32  0  0  0  0  0  0  0  0999 V2000
   17.2540   32.1012   71.9695 C   0  0  0  0  0  0  0  0  0  0  0  0
   17.7979   30.9591   71.5151 N   0  0  0  0  0  0  0  0  0  0  0  0
   18.9601   31.1910   70.9740 O   0  0  0  0  0  0  0  0  0  0  0  0
   19.1813   32.4864   71.0705 C   0  0  0  0  0  0  0  0  0  0  0  0
   18.1413   33.0622   71.6803 N   0  0  0  0  0  0  0  0  0  0  0  0
   20.4440   33.1060   70.5450 C   0  0  0  0  0  0  0  0  0  0  0  0
   21.3576   32.2202   70.4112 O   0  0  0  0  0  0  0  0  0  0  0  0
   20.4977   34.4242   70.2810 N   0  0  0  0  0  0  0  0  0  0  0  0
   21.7796   34.2701   69.8173 H   0  0  0  0  0  0  0  0  0  0  0  0
   20.5698   35.7762   70.0039 C   0  0  0  0  0  0  0  0  0  0  0  0
   19.1968   36.4428   69.8580 C   0  0  0  0  0  0  0  0  0  0  0  0
   19.0983   37.3792   68.8096 N   0  0  0  0  0  0  0  0  0  0  0  0
   17.7994   37.9227   68.7270 C   0  0  0  0  0  0  0  0  0  0  0  0
   17.4434   38.3960   67.3579 C   0  0  0  0  0  0  0  0  0  0  0  0
   18.5272   39.0318   66.8090 O   0  0  0  0  0  0  0  0  0  0  0  0
   19.5982   38.1970   66.5527 C   0  0  0  0  0  0  0  0  0  0  0  0
   19.8398   37.1839   67.6322 C   0  0  0  0  0  0  0  0  0  0  0  0
   15.9472   32.2128   72.6739 C   0  0  0  0  0  0  0  0  0  0  0  0
   15.0037   37.6126   70.7629 Cl  0  0  0  0  0  0  0  0  0  0  0  0
   14.3965   35.9726   70.5975 C   0  0  0  0  0  0  0  0  0  0  0  0
   15.0123   34.9582   71.3247 C   0  0  0  0  0  0  0  0  0  0  0  0
   14.5283   33.6643   71.1916 C   0  0  0  0  0  0  0  0  0  0  0  0
   13.4469   33.4470   70.3343 C   0  0  0  0  0  0  0  0  0  0  0  0
   12.8546   34.4530   69.6276 C   0  0  0  0  0  0  0  0  0  0  0  0
   13.3273   35.7229   69.7561 C   0  0  0  0  0  0  0  0  0  0  0  0
   13.2270   32.1707   70.4154 O   0  0  0  0  0  0  0  0  0  0  0  0
   14.0619   31.5810   71.2325 C   0  0  0  0  0  0  0  0  0  0  0  0
   14.0471   30.3445   71.4756 O   0  0  0  0  0  0  0  0  0  0  0  0
   14.8980   32.5036   71.7402 N   0  0  0  0  0  0  0  0  0  0  0  0
 19 20  1  0  0  0
 20 21  2  0  0  0
 20 25  1  0  0  0
 21 22  1  0  0  0
 22 23  2  0  0  0
 22 29  1  0  0  0
 23 24  1  0  0  0
 23 26  1  0  0  0
 24 25  2  0  0  0
 26 27  1  0  0  0
 27 28  2  0  0  0
 27 29  1  0  0  0
 29 18  1  0  0  0
 18  1  1  0  0  0
  1  2  2  0  0  0
  1  5  1  0  0  0
  2  3  1  0  0  0
  3  4  1  0  0  0
  4  5  2  0  0  0
  4  6  1  0  0  0
  6  7  2  0  0  0
  6  8  1  0  0  0
  8 10  1  0  0  0
 10 11  1  0  0  0
 11 12  1  0  0  0
 12 13  1  0  0  0
 12 17  1  0  0  0
 13 14  1  0  0  0
 14 15  1  0  0  0
 15 16  1  0  0  0
 16 17  1  0  0  0
  8  9  1  0  0  0
M  END
> <minimizedAffinity>
-8.89508

$$$$
2124


 25 29  0  0  0  0  0  0  0  0999 V2000
   18.4458   34.6092   71.3427 N   0  0  0  0  0  0  0  0  0  0  0  0
   17.0558   34.3201   71.3162 C   0  0  0  0  0  0  0  0  0  0  0  0
   16.2784   34.5746   70.3585 O   0  0  0  0  0  0  0  0  0  0  0  0
   16.6316   33.6635   72.5974 C   0  0  0  0  0  0  0  0  0  0  0  0
   15.9930   32.3401   72.3385 C   0  0  0  0  0  0  0  0  0  0  0  0
   16.6715   31.4417   73.1989 O   0  0  0  0  0  0  0  0  0  0  0  0
   17.9817   31.7716   72.7668 C   0  0  0  0  0  0  0  0  0  0  0  0
   17.9847   33.2383   73.1861 C   0  0  0  0  0  0  0  0  0  0  0  0
   19.0017   34.0395   72.5211 C   0  0  0  0  0  0  0  0  0  0  0  0
   20.1773   34.1871   72.9431 O   0  0  0  0  0  0  0  0  0  0  0  0
   17.8300   31.6093   71.3014 C   0  0  0  0  0  0  0  0  0  0  0  0
   16.5300   31.8465   71.0303 C   0  0  0  0  0  0  0  0  0  0  0  0
   19.0438   30.9596   73.3817 C   0  0  0  0  0  0  0  0  0  0  0  0
   21.8650   37.5621   67.3780 Cl  0  0  0  0  0  0  0  0  0  0  0  0
   20.8474   36.7178   68.5494 C   0  0  0  0  0  0  0  0  0  0  0  0
   19.7830   37.3389   69.1569 C   0  0  0  0  0  0  0  0  0  0  0  0
   19.0041   36.6461   70.0670 C   0  0  0  0  0  0  0  0  0  0  0  0
   19.2447   35.3363   70.4053 C   0  0  0  0  0  0  0  0  0  0  0  0
   20.3148   34.7088   69.7944 C   0  0  0  0  0  0  0  0  0  0  0  0
   21.0995   35.4046   68.8773 C   0  0  0  0  0  0  0  0  0  0  0  0
   14.5317   32.2660   72.4597 C   0  0  0  0  0  0  0  0  0  0  0  0
   14.0023   31.8951   71.2221 O   0  0  0  0  0  0  0  0  0  0  0  0
   13.9733   30.5245   71.1615 C   0  0  0  0  0  0  0  0  0  0  0  0
   13.8622   30.1303   72.6104 C   0  0  0  0  0  0  0  0  0  0  0  0
   14.1870   31.2468   73.3478 O   0  0  0  0  0  0  0  0  0  0  0  0
 14 15  1  0  0  0
 15 16  2  0  0  0
 15 20  1  0  0  0
 16 17  1  0  0  0
 17 18  2  0  0  0
 18 19  1  0  0  0
 18  1  1  0  0  0
 19 20  2  0  0  0
  1  2  1  0  0  0
  1  9  1  0  0  0
  2  3  2  0  0  0
  2  4  1  0  0  0
  4  5  1  0  0  0
  4  8  1  0  0  0
  5  6  1  0  0  0
  5 12  1  0  0  0
  5 21  1  0  0  0
  6  7  1  0  0  0
  7  8  1  0  0  0
  7 11  1  0  0  0
  7 13  1  0  0  0
  8  9  1  0  0  0
  9 10  2  0  0  0
 11 12  2  0  0  0
 21 22  1  0  0  0
 21 25  1  0  0  0
 22 23  1  0  0  0
 23 24  1  0  0  0
 24 25  1  0  0  0
M  END
> <minimizedAffinity>
-8.44622

$$$$
2134


 36 39  0  0  0  0  0  0  0  0999 V2000
   18.7490   33.6998   70.9328 C   0  0  0  0  0  0  0  0  0  0  0  0
   18.0693   32.7394   71.5106 N   0  0  0  0  0  0  0  0  0  0  0  0
   16.7519   33.0685   71.7042 N   0  0  0  0  0  0  0  0  0  0  0  0
   16.6010   34.3889   71.1811 C   0  0  0  0  0  0  0  0  0  0  0  0
   15.5837   35.1936   71.0942 N   0  0  0  0  0  0  0  0  0  0  0  0
   15.6979   36.4866   70.5191 N   0  0  0  0  0  0  0  0  0  0  0  0
   16.9169   36.9708   70.0112 C   0  0  0  0  0  0  0  0  0  0  0  0
   17.0410   38.1794   69.4792 C   0  0  0  0  0  0  0  0  0  0  0  0
   18.0709   36.0825   70.0969 C   0  0  0  0  0  0  0  0  0  0  0  0
   19.1512   36.4870   69.6559 O   0  0  0  0  0  0  0  0  0  0  0  0
   17.8759   34.7966   70.6876 N   0  0  0  0  0  0  0  0  0  0  0  0
   14.8192   37.0518   70.4988 H   0  0  0  0  0  0  0  0  0  0  0  0
   15.7656   32.2658   72.3463 C   0  0  0  0  0  0  0  0  0  0  0  0
   16.1072   31.3328   73.2944 C   0  0  0  0  0  0  0  0  0  0  0  0
   15.1841   30.5545   73.9797 C   0  0  0  0  0  0  0  0  0  0  0  0
   13.8362   30.6990   73.7198 C   0  0  0  0  0  0  0  0  0  0  0  0
   13.4685   31.6277   72.7690 C   0  0  0  0  0  0  0  0  0  0  0  0
   14.4184   32.3951   72.0962 C   0  0  0  0  0  0  0  0  0  0  0  0
   12.8063   29.9089   74.4610 C   0  0  0  0  0  0  0  0  0  0  0  0
   20.5543   33.4652   69.2579 N   0  0  0  0  0  0  0  0  0  0  0  0
   20.1599   33.6299   70.6070 C   0  0  0  0  0  0  0  0  0  0  0  0
   21.0522   33.7065   71.5108 O   0  0  0  0  0  0  0  0  0  0  0  0
   19.8794   33.4190   68.4802 H   0  0  0  0  0  0  0  0  0  0  0  0
   24.0031   33.9801   67.7753 N   0  0  0  0  0  0  0  0  0  0  0  0
   22.6256   34.1239   68.0163 C   0  0  0  0  0  0  0  0  0  0  0  0
   21.9992   34.9817   67.3368 O   0  0  0  0  0  0  0  0  0  0  0  0
   21.9112   33.3726   68.9693 N   0  0  0  0  0  0  0  0  0  0  0  0
   24.5509   33.2682   68.3199 H   0  0  0  0  0  0  0  0  0  0  0  0
   22.4254   32.6332   69.5503 H   0  0  0  0  0  0  0  0  0  0  0  0
   27.1684   37.1524   63.8914 Cl  0  0  0  0  0  0  0  0  0  0  0  0
   26.2168   36.1682   65.0105 C   0  0  0  0  0  0  0  0  0  0  0  0
   25.6113   35.0151   64.5828 C   0  0  0  0  0  0  0  0  0  0  0  0
   24.8839   34.3072   65.5139 C   0  0  0  0  0  0  0  0  0  0  0  0
   24.7616   34.7329   66.8344 C   0  0  0  0  0  0  0  0  0  0  0  0
   25.3933   35.9068   67.2191 C   0  0  0  0  0  0  0  0  0  0  0  0
   26.1226   36.6239   66.2980 C   0  0  0  0  0  0  0  0  0  0  0  0
 30 31  1  0  0  0
 31 32  2  0  0  0
 31 36  1  0  0  0
 32 33  1  0  0  0
 33 34  2  0  0  0
 34 35  1  0  0  0
 34 24  1  0  0  0
 35 36  2  0  0  0
 24 25  1  0  0  0
 25 26  2  0  0  0
 25 27  1  0  0  0
 27 20  1  0  0  0
 20 21  1  0  0  0
 21 22  2  0  0  0
 21  1  1  0  0  0
  1  2  2  0  0  0
  1 11  1  0  0  0
  2  3  1  0  0  0
  3  4  1  0  0  0
  3 13  1  0  0  0
  4  5  2  0  0  0
  4 11  1  0  0  0
  5  6  1  0  0  0
  6  7  1  0  0  0
  7  8  2  0  0  0
  7  9  1  0  0  0
  9 10  2  0  0  0
  9 11  1  0  0  0
 13 14  2  0  0  0
 13 18  1  0  0  0
 14 15  1  0  0  0
 15 16  2  0  0  0
 16 17  1  0  0  0
 16 19  1  0  0  0
 17 18  2  0  0  0
 24 28  1  0  0  0
 27 29  1  0  0  0
 20 23  1  0  0  0
  6 12  1  0  0  0
M  END
> <minimizedAffinity>
-9.12328

$$$$
2136


 33 37  0  0  0  0  0  0  0  0999 V2000
   22.4379   34.6950   68.1679 Cl  0  0  0  0  0  0  0  0  0  0  0  0
   21.0950   35.2105   69.1664 C   0  0  0  0  0  0  0  0  0  0  0  0
   20.1732   34.3274   69.6903 C   0  0  0  0  0  0  0  0  0  0  0  0
   19.1177   34.7712   70.4794 C   0  0  0  0  0  0  0  0  0  0  0  0
   19.0446   36.1181   70.7061 C   0  0  0  0  0  0  0  0  0  0  0  0
   19.9534   37.0129   70.1935 C   0  0  0  0  0  0  0  0  0  0  0  0
   20.9864   36.5738   69.4207 C   0  0  0  0  0  0  0  0  0  0  0  0
   18.3246   33.6021   70.8775 C   0  0  0  0  0  0  0  0  0  0  0  0
   16.9409   33.6965   70.4481 N   0  0  0  0  0  0  0  0  0  0  0  0
   16.3005   32.6591   71.2604 C   0  0  0  0  0  0  0  0  0  0  0  0
   16.9825   32.6636   72.5754 C   0  0  0  0  0  0  0  0  0  0  0  0
   18.1870   33.5267   72.3750 C   0  0  0  0  0  0  0  0  0  0  0  0
   19.3329   32.8870   73.0274 C   0  0  0  0  0  0  0  0  0  0  0  0
   20.4192   33.4711   73.2675 O   0  0  0  0  0  0  0  0  0  0  0  0
   18.9509   31.5456   73.3049 N   0  0  0  0  0  0  0  0  0  0  0  0
   17.6103   31.3259   72.8872 C   0  0  0  0  0  0  0  0  0  0  0  0
   16.9855   30.2363   72.7731 O   0  0  0  0  0  0  0  0  0  0  0  0
   18.9715   32.4277   70.2708 C   0  0  0  0  0  0  0  0  0  0  0  0
   18.6400   31.2356   70.3414 O   0  0  0  0  0  0  0  0  0  0  0  0
   20.0976   32.9160   69.5560 N   0  0  0  0  0  0  0  0  0  0  0  0
   16.8336   33.4889   69.4175 H   0  0  0  0  0  0  0  0  0  0  0  0
   20.7890   32.3427   69.0015 H   0  0  0  0  0  0  0  0  0  0  0  0
   19.8195   30.5502   73.9280 C   0  0  0  0  0  0  0  0  0  0  0  0
   20.8996   30.1777   72.9227 C   0  0  0  0  0  0  0  0  0  0  0  0
   21.0557   28.8025   72.8517 O   0  0  0  0  0  0  0  0  0  0  0  0
   20.3382   28.2048   73.8693 C   0  0  0  0  0  0  0  0  0  0  0  0
   14.8299   32.9125   71.4041 C   0  0  0  0  0  0  0  0  0  0  0  0
   14.3509   34.1369   70.7418 C   0  0  0  0  0  0  0  0  0  0  0  0
   13.4616   33.9905   69.6793 C   0  0  0  0  0  0  0  0  0  0  0  0
   12.9809   35.1126   69.0555 C   0  0  0  0  0  0  0  0  0  0  0  0
   13.3367   36.3860   69.4308 C   0  0  0  0  0  0  0  0  0  0  0  0
   14.2178   36.4890   70.4854 C   0  0  0  0  0  0  0  0  0  0  0  0
   14.7311   35.3941   71.1483 C   0  0  0  0  0  0  0  0  0  0  0  0
  1  2  1  0  0  0
  2  3  2  0  0  0
  2  7  1  0  0  0
  3  4  1  0  0  0
  3 20  1  0  0  0
  4  5  2  0  0  0
  4  8  1  0  0  0
  5  6  1  0  0  0
  6  7  2  0  0  0
  8  9  1  0  0  0
  8 12  1  0  0  0
  8 18  1  0  0  0
  9 10  1  0  0  0
 10 11  1  0  0  0
 10 27  1  0  0  0
 11 12  1  0  0  0
 11 16  1  0  0  0
 12 13  1  0  0  0
 13 14  2  0  0  0
 13 15  1  0  0  0
 15 16  1  0  0  0
 15 23  1  0  0  0
 16 17  2  0  0  0
 23 24  1  0  0  0
 24 25  1  0  0  0
 25 26  1  0  0  0
 27 28  1  0  0  0
 28 29  2  0  0  0
 28 33  1  0  0  0
 29 30  1  0  0  0
 30 31  2  0  0  0
 31 32  1  0  0  0
 32 33  2  0  0  0
 18 19  2  0  0  0
 18 20  1  0  0  0
  9 21  1  0  0  0
 20 22  1  0  0  0
M  END
> <minimizedAffinity>
-9.40891

$$$$
2139


 27 30  0  0  0  0  0  0  0  0999 V2000
   17.9526   32.0759   72.6842 N   0  0  0  0  0  0  0  0  0  0  0  0
   17.7207   31.4562   71.4409 C   0  0  0  0  0  0  0  0  0  0  0  0
   18.5121   31.9795   70.2731 C   0  0  0  0  0  0  0  0  0  0  0  0
   19.7115   32.6376   70.8546 N   0  0  0  0  0  0  0  0  0  0  0  0
   20.2573   31.9512   71.9634 C   0  0  0  0  0  0  0  0  0  0  0  0
   19.3150   32.1502   73.1309 C   0  0  0  0  0  0  0  0  0  0  0  0
   20.1552   33.8156   70.2172 C   0  0  0  0  0  0  0  0  0  0  0  0
   19.4336   34.9669   70.3682 N   0  0  0  0  0  0  0  0  0  0  0  0
   19.7212   36.1290   69.7957 C   0  0  0  0  0  0  0  0  0  0  0  0
   20.8030   36.2012   69.0021 N   0  0  0  0  0  0  0  0  0  0  0  0
   21.5568   35.0943   68.8154 C   0  0  0  0  0  0  0  0  0  0  0  0
   22.6770   34.8734   68.1028 N   0  0  0  0  0  0  0  0  0  0  0  0
   23.0481   33.6015   68.2511 C   0  0  0  0  0  0  0  0  0  0  0  0
   22.1843   32.9634   69.0606 N   0  0  0  0  0  0  0  0  0  0  0  0
   21.2589   33.8692   69.4150 C   0  0  0  0  0  0  0  0  0  0  0  0
   18.9144   37.3081   69.9990 N   0  0  0  0  0  0  0  0  0  0  0  0
   22.2709   31.9613   69.3342 H   0  0  0  0  0  0  0  0  0  0  0  0
   18.4324   37.7811   69.2223 H   0  0  0  0  0  0  0  0  0  0  0  0
   18.8086   37.7006   70.9556 H   0  0  0  0  0  0  0  0  0  0  0  0
   17.1151   33.1500   73.0564 C   0  0  0  0  0  0  0  0  0  0  0  0
   12.9043   34.7613   69.1087 Cl  0  0  0  0  0  0  0  0  0  0  0  0
   14.1414   34.2985   70.2595 C   0  0  0  0  0  0  0  0  0  0  0  0
   15.2533   35.0967   70.4259 C   0  0  0  0  0  0  0  0  0  0  0  0
   16.2001   34.6779   71.3541 C   0  0  0  0  0  0  0  0  0  0  0  0
   16.0804   33.5303   72.0965 C   0  0  0  0  0  0  0  0  0  0  0  0
   14.9655   32.7513   71.9163 C   0  0  0  0  0  0  0  0  0  0  0  0
   14.0179   33.1476   71.0039 C   0  0  0  0  0  0  0  0  0  0  0  0
 21 22  1  0  0  0
 22 23  2  0  0  0
 22 27  1  0  0  0
 23 24  1  0  0  0
 24 25  2  0  0  0
 25 26  1  0  0  0
 25 20  1  0  0  0
 26 27  2  0  0  0
 20  1  1  0  0  0
  1  2  1  0  0  0
  1  6  1  0  0  0
  2  3  1  0  0  0
  3  4  1  0  0  0
  4  5  1  0  0  0
  4  7  1  0  0  0
  5  6  1  0  0  0
  7  8  2  0  0  0
  7 15  1  0  0  0
  8  9  1  0  0  0
  9 10  2  0  0  0
  9 16  1  0  0  0
 10 11  1  0  0  0
 11 12  1  0  0  0
 11 15  2  0  0  0
 12 13  2  0  0  0
 13 14  1  0  0  0
 14 15  1  0  0  0
 14 17  1  0  0  0
 16 18  1  0  0  0
 16 19  1  0  0  0
M  END
> <minimizedAffinity>
-8.23842

$$$$
2149


 24 27  0  0  0  0  0  0  0  0999 V2000
   17.4429   37.7426   69.4093 N   0  0  0  0  0  0  0  0  0  0  0  0
   17.3040   38.0445   68.1321 N   0  0  0  0  0  0  0  0  0  0  0  0
   18.4440   37.9030   67.4815 N   0  0  0  0  0  0  0  0  0  0  0  0
   19.3758   37.4952   68.3425 C   0  0  0  0  0  0  0  0  0  0  0  0
   18.7448   37.3927   69.5632 C   0  0  0  0  0  0  0  0  0  0  0  0
   19.4759   36.9937   70.6141 N   0  0  0  0  0  0  0  0  0  0  0  0
   20.7812   36.7033   70.4781 C   0  0  0  0  0  0  0  0  0  0  0  0
   21.3754   36.8110   69.2765 N   0  0  0  0  0  0  0  0  0  0  0  0
   20.7218   37.2065   68.1527 C   0  0  0  0  0  0  0  0  0  0  0  0
   21.3386   37.3201   66.8941 N   0  0  0  0  0  0  0  0  0  0  0  0
   21.7741   38.5331   66.2548 C   0  0  0  0  0  0  0  0  0  0  0  0
   23.2335   38.4328   66.0078 C   0  0  0  0  0  0  0  0  0  0  0  0
   23.8280   37.1640   66.0503 N   0  0  0  0  0  0  0  0  0  0  0  0
   23.0498   36.0077   65.9114 C   0  0  0  0  0  0  0  0  0  0  0  0
   21.5865   36.1328   66.1142 C   0  0  0  0  0  0  0  0  0  0  0  0
   24.6430   37.0562   67.2472 C   0  0  0  0  0  0  0  0  0  0  0  0
   16.4368   37.7661   70.4693 C   0  0  0  0  0  0  0  0  0  0  0  0
   13.5649   32.4816   70.4529 Cl  0  0  0  0  0  0  0  0  0  0  0  0
   14.4223   34.0192   70.4670 C   0  0  0  0  0  0  0  0  0  0  0  0
   13.8270   35.1411   69.9478 C   0  0  0  0  0  0  0  0  0  0  0  0
   14.5160   36.3429   69.9670 C   0  0  0  0  0  0  0  0  0  0  0  0
   15.7755   36.4362   70.4921 C   0  0  0  0  0  0  0  0  0  0  0  0
   16.3744   35.3142   71.0135 C   0  0  0  0  0  0  0  0  0  0  0  0
   15.6932   34.1235   70.9947 C   0  0  0  0  0  0  0  0  0  0  0  0
 18 19  1  0  0  0
 19 20  2  0  0  0
 19 24  1  0  0  0
 20 21  1  0  0  0
 21 22  2  0  0  0
 22 23  1  0  0  0
 22 17  1  0  0  0
 23 24  2  0  0  0
 17  1  1  0  0  0
  1  2  1  0  0  0
  1  5  1  0  0  0
  2  3  2  0  0  0
  3  4  1  0  0  0
  4  5  2  0  0  0
  4  9  1  0  0  0
  5  6  1  0  0  0
  6  7  2  0  0  0
  7  8  1  0  0  0
  8  9  2  0  0  0
  9 10  1  0  0  0
 10 11  1  0  0  0
 10 15  1  0  0  0
 11 12  1  0  0  0
 12 13  1  0  0  0
 13 14  1  0  0  0
 13 16  1  0  0  0
 14 15  1  0  0  0
M  END
> <minimizedAffinity>
-8.17878

$$$$
2163


 31 34  0  0  0  0  0  0  0  0999 V2000
   18.0691   36.4582   69.9514 C   0  0  0  0  0  0  0  0  0  0  0  0
   18.7938   35.6220   70.7257 N   0  0  0  0  0  0  0  0  0  0  0  0
   18.2102   34.7109   71.5127 C   0  0  0  0  0  0  0  0  0  0  0  0
   16.8700   34.6388   71.5222 N   0  0  0  0  0  0  0  0  0  0  0  0
   16.0785   35.4480   70.7684 C   0  0  0  0  0  0  0  0  0  0  0  0
   16.7408   36.3502   69.9931 N   0  0  0  0  0  0  0  0  0  0  0  0
   18.9726   33.8319   72.3282 N   0  0  0  0  0  0  0  0  0  0  0  0
   20.4163   33.7739   72.2661 C   0  0  0  0  0  0  0  0  0  0  0  0
   20.9127   32.3368   72.3166 C   0  0  0  0  0  0  0  0  0  0  0  0
   20.2407   31.6207   73.3136 O   0  0  0  0  0  0  0  0  0  0  0  0
   18.8885   31.5631   73.0753 C   0  0  0  0  0  0  0  0  0  0  0  0
   18.3129   32.9499   73.2649 C   0  0  0  0  0  0  0  0  0  0  0  0
   14.6744   35.3674   70.7829 N   0  0  0  0  0  0  0  0  0  0  0  0
   13.9787   34.6546   71.8125 C   0  0  0  0  0  0  0  0  0  0  0  0
   13.0447   33.6660   71.1176 C   0  0  0  0  0  0  0  0  0  0  0  0
   12.2395   34.4007   70.2647 O   0  0  0  0  0  0  0  0  0  0  0  0
   12.9331   34.9570   69.2159 C   0  0  0  0  0  0  0  0  0  0  0  0
   13.9094   36.0047   69.7515 C   0  0  0  0  0  0  0  0  0  0  0  0
   18.6568   37.4373   69.1033 N   0  0  0  0  0  0  0  0  0  0  0  0
   18.1281   38.3110   68.8344 H   0  0  0  0  0  0  0  0  0  0  0  0
   20.2003   37.1489   67.3384 C   0  0  0  0  0  0  0  0  0  0  0  0
   19.9451   37.3086   68.5819 N   0  0  0  0  0  0  0  0  0  0  0  0
   24.3903   34.0170   66.2883 Br  0  0  0  0  0  0  0  0  0  0  0  0
   23.4848   35.6941   66.3009 C   0  0  0  0  0  0  0  0  0  0  0  0
   22.2066   35.8074   66.8010 C   0  0  0  0  0  0  0  0  0  0  0  0
   21.5538   37.0161   66.8111 C   0  0  0  0  0  0  0  0  0  0  0  0
   22.2148   38.1146   66.3061 C   0  0  0  0  0  0  0  0  0  0  0  0
   23.5112   38.0135   65.7951 C   0  0  0  0  0  0  0  0  0  0  0  0
   24.1645   36.7918   65.7882 C   0  0  0  0  0  0  0  0  0  0  0  0
   21.5312   39.3247   66.3278 O   0  0  0  0  0  0  0  0  0  0  0  0
   22.0312   40.5177   65.7702 C   0  0  0  0  0  0  0  0  0  0  0  0
 23 24  1  0  0  0
 24 25  2  0  0  0
 24 29  1  0  0  0
 25 26  1  0  0  0
 26 27  2  0  0  0
 26 21  1  0  0  0
 27 28  1  0  0  0
 27 30  1  0  0  0
 28 29  2  0  0  0
 30 31  1  0  0  0
 21 22  2  0  0  0
 22 19  1  0  0  0
 19  1  1  0  0  0
  1  2  2  0  0  0
  1  6  1  0  0  0
  2  3  1  0  0  0
  3  4  2  0  0  0
  3  7  1  0  0  0
  4  5  1  0  0  0
  5  6  2  0  0  0
  5 13  1  0  0  0
 13 14  1  0  0  0
 13 18  1  0  0  0
 14 15  1  0  0  0
 15 16  1  0  0  0
 16 17  1  0  0  0
 17 18  1  0  0  0
  7  8  1  0  0  0
  7 12  1  0  0  0
  8  9  1  0  0  0
  9 10  1  0  0  0
 10 11  1  0  0  0
 11 12  1  0  0  0
 19 20  1  0  0  0
M  END
> <minimizedAffinity>
-8.74963

$$$$
2164


 25 28  0  0  0  0  0  0  0  0999 V2000
   13.3109   32.2640   71.2191 C   0  0  0  0  0  0  0  0  0  0  0  0
   13.8724   31.8642   72.5587 C   0  0  0  0  0  0  0  0  0  0  0  0
   14.7468   30.8651   71.9265 N   0  0  0  0  0  0  0  0  0  0  0  0
   13.8747   30.9479   70.7695 C   0  0  0  0  0  0  0  0  0  0  0  0
   15.9165   30.1750   72.3478 C   0  0  0  0  0  0  0  0  0  0  0  0
   15.9529   28.8225   72.4691 N   0  0  0  0  0  0  0  0  0  0  0  0
   17.0892   28.1837   72.8750 C   0  0  0  0  0  0  0  0  0  0  0  0
   18.2010   28.8662   73.1660 N   0  0  0  0  0  0  0  0  0  0  0  0
   18.2358   30.1963   73.0689 C   0  0  0  0  0  0  0  0  0  0  0  0
   19.2119   31.0965   73.3009 N   0  0  0  0  0  0  0  0  0  0  0  0
   18.6951   32.2785   73.0442 N   0  0  0  0  0  0  0  0  0  0  0  0
   17.4203   32.1584   72.6564 N   0  0  0  0  0  0  0  0  0  0  0  0
   17.0860   30.8400   72.6586 C   0  0  0  0  0  0  0  0  0  0  0  0
   20.5802   30.8470   73.7472 C   0  0  0  0  0  0  0  0  0  0  0  0
   14.9663   34.1431   71.3477 N   0  0  0  0  0  0  0  0  0  0  0  0
   13.9783   33.4688   70.6136 C   0  0  0  0  0  0  0  0  0  0  0  0
   13.5833   33.7742   69.4790 O   0  0  0  0  0  0  0  0  0  0  0  0
   15.2220   33.7732   72.3356 H   0  0  0  0  0  0  0  0  0  0  0  0
   19.7099   36.0942   70.0709 Br  0  0  0  0  0  0  0  0  0  0  0  0
   17.8257   36.2558   70.3043 C   0  0  0  0  0  0  0  0  0  0  0  0
   17.0605   35.1946   70.7282 C   0  0  0  0  0  0  0  0  0  0  0  0
   15.6720   35.2807   70.9102 C   0  0  0  0  0  0  0  0  0  0  0  0
   15.1030   36.4936   70.6404 C   0  0  0  0  0  0  0  0  0  0  0  0
   15.8888   37.5658   70.2110 C   0  0  0  0  0  0  0  0  0  0  0  0
   17.2321   37.4548   70.0430 C   0  0  0  0  0  0  0  0  0  0  0  0
 19 20  1  0  0  0
 20 21  2  0  0  0
 20 25  1  0  0  0
 21 22  1  0  0  0
 22 23  2  0  0  0
 22 15  1  0  0  0
 23 24  1  0  0  0
 24 25  2  0  0  0
 15 16  1  0  0  0
 16 17  2  0  0  0
 16  1  1  0  0  0
  1  2  1  0  0  0
  1  4  1  0  0  0
  2  3  1  0  0  0
  3  4  1  0  0  0
  3  5  1  0  0  0
  5  6  2  0  0  0
  5 13  1  0  0  0
  6  7  1  0  0  0
  7  8  2  0  0  0
  8  9  1  0  0  0
  9 10  1  0  0  0
  9 13  2  0  0  0
 10 11  1  0  0  0
 10 14  1  0  0  0
 11 12  2  0  0  0
 12 13  1  0  0  0
 15 18  1  0  0  0
M  END
> <minimizedAffinity>
-8.30469

$$$$
2170


 32 36  0  0  0  0  0  0  0  0999 V2000
   17.0744   34.3668   70.6396 N   0  0  0  0  0  0  0  0  0  0  0  0
   18.2575   34.9033   70.4295 N   0  0  0  0  0  0  0  0  0  0  0  0
   18.1742   36.2236   70.2118 C   0  0  0  0  0  0  0  0  0  0  0  0
   19.3902   36.7507   69.9985 N   0  0  0  0  0  0  0  0  0  0  0  0
   20.3128   35.7670   70.0721 C   0  0  0  0  0  0  0  0  0  0  0  0
   19.5820   34.6054   70.3451 C   0  0  0  0  0  0  0  0  0  0  0  0
   20.3330   33.4546   70.4565 C   0  0  0  0  0  0  0  0  0  0  0  0
   19.7138   32.3757   70.7002 O   0  0  0  0  0  0  0  0  0  0  0  0
   21.6854   33.4201   70.3193 N   0  0  0  0  0  0  0  0  0  0  0  0
   22.3119   34.5777   70.0600 C   0  0  0  0  0  0  0  0  0  0  0  0
   23.5797   34.5241   69.9349 O   0  0  0  0  0  0  0  0  0  0  0  0
   21.6488   35.7358   69.9357 N   0  0  0  0  0  0  0  0  0  0  0  0
   22.3805   36.9418   69.6555 C   0  0  0  0  0  0  0  0  0  0  0  0
   22.3990   32.1706   70.4533 C   0  0  0  0  0  0  0  0  0  0  0  0
   16.8507   36.5126   70.2923 N   0  0  0  0  0  0  0  0  0  0  0  0
   16.1687   35.3889   70.5516 C   0  0  0  0  0  0  0  0  0  0  0  0
   14.7630   35.2266   70.7161 N   0  0  0  0  0  0  0  0  0  0  0  0
   14.1852   34.7867   71.9747 C   0  0  0  0  0  0  0  0  0  0  0  0
   13.0472   33.8492   71.6539 C   0  0  0  0  0  0  0  0  0  0  0  0
   12.1276   34.4834   70.8033 O   0  0  0  0  0  0  0  0  0  0  0  0
   12.6504   34.6858   69.5451 C   0  0  0  0  0  0  0  0  0  0  0  0
   13.8869   35.5110   69.6105 C   0  0  0  0  0  0  0  0  0  0  0  0
   16.7047   32.9963   70.9076 C   0  0  0  0  0  0  0  0  0  0  0  0
   16.8002   32.6250   72.3303 C   0  0  0  0  0  0  0  0  0  0  0  0
   17.2425   33.4041   73.2038 O   0  0  0  0  0  0  0  0  0  0  0  0
   15.0276   27.0779   73.9090 Cl  0  0  0  0  0  0  0  0  0  0  0  0
   15.5336   28.6968   73.4567 C   0  0  0  0  0  0  0  0  0  0  0  0
   14.8108   29.8174   73.8434 C   0  0  0  0  0  0  0  0  0  0  0  0
   15.2257   31.0821   73.4772 C   0  0  0  0  0  0  0  0  0  0  0  0
   16.3590   31.2922   72.7206 C   0  0  0  0  0  0  0  0  0  0  0  0
   17.0777   30.1531   72.3385 C   0  0  0  0  0  0  0  0  0  0  0  0
   16.6713   28.8861   72.7002 C   0  0  0  0  0  0  0  0  0  0  0  0
 26 27  1  0  0  0
 27 28  2  0  0  0
 27 32  1  0  0  0
 28 29  1  0  0  0
 29 30  2  0  0  0
 30 31  1  0  0  0
 30 24  1  0  0  0
 31 32  2  0  0  0
 24 25  2  0  0  0
 24 23  1  0  0  0
 23  1  1  0  0  0
  1  2  1  0  0  0
  1 16  1  0  0  0
  2  3  1  0  0  0
  2  6  1  0  0  0
  3  4  2  0  0  0
  3 15  1  0  0  0
  4  5  1  0  0  0
  5  6  2  0  0  0
  5 12  1  0  0  0
  6  7  1  0  0  0
  7  8  2  0  0  0
  7  9  1  0  0  0
  9 10  1  0  0  0
  9 14  1  0  0  0
 10 11  2  0  0  0
 10 12  1  0  0  0
 12 13  1  0  0  0
 15 16  2  0  0  0
 16 17  1  0  0  0
 17 18  1  0  0  0
 17 22  1  0  0  0
 18 19  1  0  0  0
 19 20  1  0  0  0
 20 21  1  0  0  0
 21 22  1  0  0  0
M  END
> <minimizedAffinity>
-8.79619

$$$$
2177


 31 35  0  0  0  0  0  0  0  0999 V2000
   20.0972   36.9192   69.1847 N   0  0  0  0  0  0  0  0  0  0  0  0
   20.5309   36.7033   67.8247 C   0  0  0  0  0  0  0  0  0  0  0  0
   21.9117   37.2867   67.6730 C   0  0  0  0  0  0  0  0  0  0  0  0
   22.7975   36.9562   68.7719 N   0  0  0  0  0  0  0  0  0  0  0  0
   22.3262   37.1454   70.1292 C   0  0  0  0  0  0  0  0  0  0  0  0
   20.9711   36.4995   70.2567 C   0  0  0  0  0  0  0  0  0  0  0  0
   12.8152   32.7761   72.1292 Cl  0  0  0  0  0  0  0  0  0  0  0  0
   14.2967   33.5429   71.5478 C   0  0  0  0  0  0  0  0  0  0  0  0
   14.2908   34.8848   71.2382 C   0  0  0  0  0  0  0  0  0  0  0  0
   15.4258   35.5111   70.7834 C   0  0  0  0  0  0  0  0  0  0  0  0
   16.6088   34.8186   70.6227 C   0  0  0  0  0  0  0  0  0  0  0  0
   16.5959   33.4761   70.9370 C   0  0  0  0  0  0  0  0  0  0  0  0
   15.4670   32.8349   71.3932 C   0  0  0  0  0  0  0  0  0  0  0  0
   17.7479   35.5204   70.1495 N   0  0  0  0  0  0  0  0  0  0  0  0
   17.7574   36.9068   69.8250 C   0  0  0  0  0  0  0  0  0  0  0  0
   18.8293   37.5271   69.3899 C   0  0  0  0  0  0  0  0  0  0  0  0
   16.5454   37.6274   69.9886 N   0  0  0  0  0  0  0  0  0  0  0  0
   15.4030   36.9510   70.4567 C   0  0  0  0  0  0  0  0  0  0  0  0
   14.2820   37.5323   70.6269 O   0  0  0  0  0  0  0  0  0  0  0  0
   18.6454   35.0056   70.0247 H   0  0  0  0  0  0  0  0  0  0  0  0
   16.4723   38.6473   69.7722 H   0  0  0  0  0  0  0  0  0  0  0  0
   24.1088   36.4552   68.5046 C   0  0  0  0  0  0  0  0  0  0  0  0
   25.1488   37.3118   68.5277 N   0  0  0  0  0  0  0  0  0  0  0  0
   26.4158   36.8765   68.2786 C   0  0  0  0  0  0  0  0  0  0  0  0
   26.6566   35.5761   68.0019 N   0  0  0  0  0  0  0  0  0  0  0  0
   25.6661   34.6787   67.9649 C   0  0  0  0  0  0  0  0  0  0  0  0
   25.6244   33.3562   67.7214 N   0  0  0  0  0  0  0  0  0  0  0  0
   24.3626   32.9769   67.8170 N   0  0  0  0  0  0  0  0  0  0  0  0
   23.5746   34.0461   68.1227 C   0  0  0  0  0  0  0  0  0  0  0  0
   24.3744   35.1412   68.2225 C   0  0  0  0  0  0  0  0  0  0  0  0
   26.7505   32.4718   67.4062 C   0  0  0  0  0  0  0  0  0  0  0  0
  7  8  1  0  0  0
  8  9  2  0  0  0
  8 13  1  0  0  0
  9 10  1  0  0  0
 10 11  2  0  0  0
 10 18  1  0  0  0
 11 12  1  0  0  0
 11 14  1  0  0  0
 12 13  2  0  0  0
 14 15  1  0  0  0
 15 16  2  0  0  0
 15 17  1  0  0  0
 16  1  1  0  0  0
  1  2  1  0  0  0
  1  6  1  0  0  0
  2  3  1  0  0  0
  3  4  1  0  0  0
  4  5  1  0  0  0
  4 22  1  0  0  0
  5  6  1  0  0  0
 22 23  2  0  0  0
 22 30  1  0  0  0
 23 24  1  0  0  0
 24 25  2  0  0  0
 25 26  1  0  0  0
 26 27  1  0  0  0
 26 30  2  0  0  0
 27 28  1  0  0  0
 27 31  1  0  0  0
 28 29  2  0  0  0
 29 30  1  0  0  0
 17 18  1  0  0  0
 18 19  2  0  0  0
 14 20  1  0  0  0
 17 21  1  0  0  0
M  END
> <minimizedAffinity>
-9.20007

$$$$
2184


 29 32  0  0  0  0  0  0  0  0999 V2000
   20.5604   32.5480   71.5044 N   0  0  0  0  0  0  0  0  0  0  0  0
   19.4784   32.0683   70.7911 C   0  0  0  0  0  0  0  0  0  0  0  0
   18.3016   31.6993   71.7592 C   0  0  0  0  0  0  0  0  0  0  0  0
   17.8959   33.1327   72.1530 N   0  0  0  0  0  0  0  0  0  0  0  0
   18.8601   33.7426   72.9302 C   0  0  0  0  0  0  0  0  0  0  0  0
   20.0973   32.8178   72.8967 C   0  0  0  0  0  0  0  0  0  0  0  0
   21.2254   31.7242   71.6668 H   0  0  0  0  0  0  0  0  0  0  0  0
   16.6688   33.5236   71.5747 C   0  0  0  0  0  0  0  0  0  0  0  0
   15.4419   33.0580   71.8963 C   0  0  0  0  0  0  0  0  0  0  0  0
   14.2534   33.6923   71.4340 C   0  0  0  0  0  0  0  0  0  0  0  0
   14.2982   34.8067   70.6397 C   0  0  0  0  0  0  0  0  0  0  0  0
   15.5569   35.2892   70.2956 C   0  0  0  0  0  0  0  0  0  0  0  0
   16.7085   34.6621   70.7474 C   0  0  0  0  0  0  0  0  0  0  0  0
   13.1113   35.3886   70.2121 O   0  0  0  0  0  0  0  0  0  0  0  0
   13.1188   36.6028   69.4455 C   0  0  0  0  0  0  0  0  0  0  0  0
   21.3719   33.6218   71.1289 C   0  0  0  0  0  0  0  0  0  0  0  0
   18.3111   37.5668   69.8137 Cl  0  0  0  0  0  0  0  0  0  0  0  0
   19.6534   36.6663   69.0997 C   0  0  0  0  0  0  0  0  0  0  0  0
   20.2674   35.6059   69.7109 C   0  0  0  0  0  0  0  0  0  0  0  0
   21.2572   34.9232   69.0948 C   0  0  0  0  0  0  0  0  0  0  0  0
   21.6781   35.2670   67.8401 C   0  0  0  0  0  0  0  0  0  0  0  0
   21.0478   36.3646   67.2063 C   0  0  0  0  0  0  0  0  0  0  0  0
   20.0490   37.0675   67.8192 C   0  0  0  0  0  0  0  0  0  0  0  0
   19.4568   38.1732   67.1685 O   0  0  0  0  0  0  0  0  0  0  0  0
   22.6110   34.6166   67.2049 O   0  0  0  0  0  0  0  0  0  0  0  0
   23.1972   33.5688   67.7731 C   0  0  0  0  0  0  0  0  0  0  0  0
   24.0805   32.9657   67.1510 O   0  0  0  0  0  0  0  0  0  0  0  0
   22.8201   33.1474   69.0643 C   0  0  0  0  0  0  0  0  0  0  0  0
   21.8580   33.8025   69.7512 C   0  0  0  0  0  0  0  0  0  0  0  0
 17 18  1  0  0  0
 18 19  2  0  0  0
 18 23  1  0  0  0
 19 20  1  0  0  0
 20 21  2  0  0  0
 20 29  1  0  0  0
 21 22  1  0  0  0
 21 25  1  0  0  0
 22 23  2  0  0  0
 23 24  1  0  0  0
 25 26  1  0  0  0
 26 27  2  0  0  0
 26 28  1  0  0  0
 28 29  2  0  0  0
 29 16  1  0  0  0
 16  1  1  0  0  0
  1  2  1  0  0  0
  1  6  1  0  0  0
  2  3  1  0  0  0
  3  4  1  0  0  0
  4  5  1  0  0  0
  4  8  1  0  0  0
  5  6  1  0  0  0
  8  9  2  0  0  0
  8 13  1  0  0  0
  9 10  1  0  0  0
 10 11  2  0  0  0
 11 12  1  0  0  0
 11 14  1  0  0  0
 12 13  2  0  0  0
 14 15  1  0  0  0
  1  7  1  0  0  0
M  CHG 1   1   1
M  CHG 1  24  -1
M  END
> <minimizedAffinity>
-9.01785

$$$$
2195


 29 32  0  0  0  0  0  0  0  0999 V2000
   19.7418   34.8308   70.9926 C   0  0  0  0  0  0  0  0  0  0  0  0
   18.4965   34.6058   71.4066 N   0  0  0  0  0  0  0  0  0  0  0  0
   17.9628   33.3720   71.4140 C   0  0  0  0  0  0  0  0  0  0  0  0
   16.7488   32.8735   71.7760 N   0  0  0  0  0  0  0  0  0  0  0  0
   16.8012   31.5757   71.5626 N   0  0  0  0  0  0  0  0  0  0  0  0
   17.9766   31.2118   71.0858 N   0  0  0  0  0  0  0  0  0  0  0  0
   18.7375   32.3064   70.9758 C   0  0  0  0  0  0  0  0  0  0  0  0
   20.0340   32.5258   70.5428 C   0  0  0  0  0  0  0  0  0  0  0  0
   20.4710   33.7918   70.5742 N   0  0  0  0  0  0  0  0  0  0  0  0
   20.8241   31.4739   70.1010 O   0  0  0  0  0  0  0  0  0  0  0  0
   21.0520   30.7152   70.7255 H   0  0  0  0  0  0  0  0  0  0  0  0
   22.0273   36.7850   69.2249 N   0  0  0  0  0  0  0  0  0  0  0  0
   21.7399   36.2264   70.4682 C   0  0  0  0  0  0  0  0  0  0  0  0
   20.3679   36.1812   70.9775 C   0  0  0  0  0  0  0  0  0  0  0  0
   19.4700   37.1163   70.2096 C   0  0  0  0  0  0  0  0  0  0  0  0
   19.6117   36.8251   68.7586 C   0  0  0  0  0  0  0  0  0  0  0  0
   21.0218   37.0977   68.3208 C   0  0  0  0  0  0  0  0  0  0  0  0
   23.5511   36.3814   68.6028 S   0  0  0  0  0  0  0  0  0  0  0  0
   24.6593   37.1806   69.1933 O   0  0  0  0  0  0  0  0  0  0  0  0
   23.5073   36.5621   67.0991 O   0  0  0  0  0  0  0  0  0  0  0  0
   23.9095   34.6370   68.8587 C   0  0  0  0  0  0  0  0  0  0  0  0
   15.6426   33.6221   72.2858 C   0  0  0  0  0  0  0  0  0  0  0  0
   14.8900   34.3571   71.2407 C   0  0  0  0  0  0  0  0  0  0  0  0
   13.8943   33.6976   70.5652 C   0  0  0  0  0  0  0  0  0  0  0  0
   13.1393   34.3131   69.5693 C   0  0  0  0  0  0  0  0  0  0  0  0
   13.3833   35.6277   69.2347 C   0  0  0  0  0  0  0  0  0  0  0  0
   14.3808   36.2963   69.9089 C   0  0  0  0  0  0  0  0  0  0  0  0
   15.1296   35.6705   70.9032 C   0  0  0  0  0  0  0  0  0  0  0  0
   13.5328   32.0257   70.9407 Cl  0  0  0  0  0  0  0  0  0  0  0  0
 18 19  2  0  0  0
 18 20  2  0  0  0
 18 12  1  0  0  0
 18 21  1  0  0  0
 12 13  1  0  0  0
 12 17  1  0  0  0
 13 14  1  0  0  0
 14 15  1  0  0  0
 14  1  1  0  0  0
 15 16  1  0  0  0
 16 17  1  0  0  0
  1  2  2  0  0  0
  1  9  1  0  0  0
  2  3  1  0  0  0
  3  4  1  0  0  0
  3  7  2  0  0  0
  4  5  1  0  0  0
  4 22  1  0  0  0
  5  6  2  0  0  0
  6  7  1  0  0  0
  7  8  1  0  0  0
  8  9  2  0  0  0
  8 10  1  0  0  0
 22 23  1  0  0  0
 23 24  2  0  0  0
 23 28  1  0  0  0
 24 25  1  0  0  0
 24 29  1  0  0  0
 25 26  2  0  0  0
 26 27  1  0  0  0
 27 28  2  0  0  0
 10 11  1  0  0  0
M  END
> <minimizedAffinity>
-9.46250

$$$$
2197


 28 31  0  0  0  0  0  0  0  0999 V2000
   22.0445   35.8579   69.6180 N   0  0  0  0  0  0  0  0  0  0  0  0
   21.5773   34.9374   70.6749 C   0  0  0  0  0  0  0  0  0  0  0  0
   20.0943   34.9332   70.6297 C   0  0  0  0  0  0  0  0  0  0  0  0
   19.4423   36.1088   70.5720 O   0  0  0  0  0  0  0  0  0  0  0  0
   20.0931   37.2277   70.2211 C   0  0  0  0  0  0  0  0  0  0  0  0
   21.5651   37.1304   70.0149 C   0  0  0  0  0  0  0  0  0  0  0  0
   19.6232   34.1736   71.8249 C   0  0  0  0  0  0  0  0  0  0  0  0
   20.1137   34.4957   72.9399 O   0  0  0  0  0  0  0  0  0  0  0  0
   18.6777   33.1319   71.7943 N   0  0  0  0  0  0  0  0  0  0  0  0
   18.0294   32.6525   70.5882 C   0  0  0  0  0  0  0  0  0  0  0  0
   17.1857   31.4552   70.9780 C   0  0  0  0  0  0  0  0  0  0  0  0
   16.1545   31.7876   71.9431 N   0  0  0  0  0  0  0  0  0  0  0  0
   16.7317   32.5264   73.0206 C   0  0  0  0  0  0  0  0  0  0  0  0
   18.2628   32.4320   73.0195 C   0  0  0  0  0  0  0  0  0  0  0  0
   15.0903   32.4435   71.2544 C   0  0  0  0  0  0  0  0  0  0  0  0
   14.8636   33.8638   71.6947 C   0  0  0  0  0  0  0  0  0  0  0  0
   13.6146   34.4916   71.0777 C   0  0  0  0  0  0  0  0  0  0  0  0
   14.9903   35.0030   70.7836 C   0  0  0  0  0  0  0  0  0  0  0  0
   21.6740   35.2764   68.0822 S   0  0  0  0  0  0  0  0  0  0  0  0
   21.0674   33.8776   68.2571 O   0  0  0  0  0  0  0  0  0  0  0  0
   20.5880   36.0604   67.3864 O   0  0  0  0  0  0  0  0  0  0  0  0
   23.0589   35.0582   67.0607 C   0  0  0  0  0  0  0  0  0  0  0  0
   23.5677   36.0847   66.2957 C   0  0  0  0  0  0  0  0  0  0  0  0
   24.6341   35.9047   65.4356 C   0  0  0  0  0  0  0  0  0  0  0  0
   25.2182   34.6673   65.3318 C   0  0  0  0  0  0  0  0  0  0  0  0
   24.7209   33.6220   66.0962 C   0  0  0  0  0  0  0  0  0  0  0  0
   23.6648   33.8058   66.9437 C   0  0  0  0  0  0  0  0  0  0  0  0
   22.9214   37.7299   66.4455 Cl  0  0  0  0  0  0  0  0  0  0  0  0
 19 20  2  0  0  0
 19 21  2  0  0  0
 19  1  1  0  0  0
 19 22  1  0  0  0
  1  2  1  0  0  0
  1  6  1  0  0  0
  2  3  1  0  0  0
  3  4  1  0  0  0
  3  7  1  0  0  0
  4  5  1  0  0  0
  5  6  1  0  0  0
  7  8  2  0  0  0
  7  9  1  0  0  0
  9 10  1  0  0  0
  9 14  1  0  0  0
 10 11  1  0  0  0
 11 12  1  0  0  0
 12 13  1  0  0  0
 12 15  1  0  0  0
 13 14  1  0  0  0
 15 16  1  0  0  0
 16 17  1  0  0  0
 16 18  1  0  0  0
 17 18  1  0  0  0
 22 23  2  0  0  0
 22 27  1  0  0  0
 23 24  1  0  0  0
 23 28  1  0  0  0
 24 25  2  0  0  0
 25 26  1  0  0  0
 26 27  2  0  0  0
M  END
> <minimizedAffinity>
-7.90473

$$$$
2210


 33 36  0  0  0  0  0  0  0  0999 V2000
   16.3955   37.5042   69.5249 C   0  0  0  0  0  0  0  0  0  0  0  0
   15.6881   36.4583   69.9713 C   0  0  0  0  0  0  0  0  0  0  0  0
   16.2323   35.2066   70.2353 O   0  0  0  0  0  0  0  0  0  0  0  0
   15.2170   34.3670   70.7138 C   0  0  0  0  0  0  0  0  0  0  0  0
   14.0113   34.9951   70.7794 C   0  0  0  0  0  0  0  0  0  0  0  0
   12.8834   34.3597   71.2437 C   0  0  0  0  0  0  0  0  0  0  0  0
   12.9589   33.0358   71.6633 C   0  0  0  0  0  0  0  0  0  0  0  0
   14.1979   32.3969   71.5914 C   0  0  0  0  0  0  0  0  0  0  0  0
   15.3076   33.0276   71.1293 C   0  0  0  0  0  0  0  0  0  0  0  0
   14.1895   31.0727   72.0289 O   0  0  0  0  0  0  0  0  0  0  0  0
   14.2783   36.3802   70.2913 C   0  0  0  0  0  0  0  0  0  0  0  0
   13.4506   37.2934   70.1748 O   0  0  0  0  0  0  0  0  0  0  0  0
   21.0173   36.0039   71.6486 Br  0  0  0  0  0  0  0  0  0  0  0  0
   19.9546   36.6445   70.2030 C   0  0  0  0  0  0  0  0  0  0  0  0
   18.5675   36.7941   70.3722 C   0  0  0  0  0  0  0  0  0  0  0  0
   17.8338   37.2482   69.3350 C   0  0  0  0  0  0  0  0  0  0  0  0
   18.4080   37.5702   68.1255 C   0  0  0  0  0  0  0  0  0  0  0  0
   19.7944   37.4167   67.9801 C   0  0  0  0  0  0  0  0  0  0  0  0
   20.5761   36.9496   69.0178 C   0  0  0  0  0  0  0  0  0  0  0  0
   17.6210   38.0407   67.0845 O   0  0  0  0  0  0  0  0  0  0  0  0
   17.2155   39.3499   66.8849 C   0  0  0  0  0  0  0  0  0  0  0  0
   16.5982   32.3636   70.8468 C   0  0  0  0  0  0  0  0  0  0  0  0
   17.4975   32.4114   71.9014 N   0  0  0  0  0  0  0  0  0  0  0  0
   17.4270   31.1868   72.7593 C   0  0  0  0  0  0  0  0  0  0  0  0
   18.9062   30.7533   72.9147 C   0  0  0  0  0  0  0  0  0  0  0  0
   19.7576   31.8324   72.5250 N   0  0  0  0  0  0  0  0  0  0  0  0
   19.4342   33.0924   73.0694 C   0  0  0  0  0  0  0  0  0  0  0  0
   17.9330   33.4622   72.6945 C   0  0  0  0  0  0  0  0  0  0  0  0
   18.4335   32.1065   71.3126 H   0  0  0  0  0  0  0  0  0  0  0  0
   20.7987   31.5890   71.6572 C   0  0  0  0  0  0  0  0  0  0  0  0
   21.0512   32.5011   70.4993 C   0  0  0  0  0  0  0  0  0  0  0  0
   19.8876   32.6762   69.7328 O   0  0  0  0  0  0  0  0  0  0  0  0
   19.8103   33.6541   69.4800 H   0  0  0  0  0  0  0  0  0  0  0  0
 13 14  1  0  0  0
 14 15  2  0  0  0
 14 19  1  0  0  0
 15 16  1  0  0  0
 16 17  2  0  0  0
 16  1  1  0  0  0
 17 18  1  0  0  0
 17 20  1  0  0  0
 18 19  2  0  0  0
 20 21  1  0  0  0
  1  2  2  0  0  0
  2  3  1  0  0  0
  2 11  1  0  0  0
  3  4  1  0  0  0
  4  5  2  0  0  0
  4  9  1  0  0  0
  5  6  1  0  0  0
  5 11  1  0  0  0
  6  7  2  0  0  0
  7  8  1  0  0  0
  8  9  2  0  0  0
  8 10  1  0  0  0
  9 22  1  0  0  0
 22 23  1  0  0  0
 23 24  1  0  0  0
 23 28  1  0  0  0
 24 25  1  0  0  0
 25 26  1  0  0  0
 26 27  1  0  0  0
 26 30  1  0  0  0
 27 28  1  0  0  0
 30 31  1  0  0  0
 31 32  1  0  0  0
 11 12  2  0  0  0
 23 29  1  0  0  0
 32 33  1  0  0  0
M  CHG 1  10  -1
M  CHG 1  23   1
M  END
> <minimizedAffinity>
-8.30019

$$$$
2213


 31 34  0  0  0  0  0  0  0  0999 V2000
   20.2244   35.5336   70.7362 Cl  0  0  0  0  0  0  0  0  0  0  0  0
   20.7503   35.9705   69.1254 C   0  0  0  0  0  0  0  0  0  0  0  0
   21.9069   35.3594   68.6187 C   0  0  0  0  0  0  0  0  0  0  0  0
   22.3446   35.6813   67.3608 C   0  0  0  0  0  0  0  0  0  0  0  0
   21.5938   36.6192   66.6433 C   0  0  0  0  0  0  0  0  0  0  0  0
   20.4599   37.2129   67.1513 C   0  0  0  0  0  0  0  0  0  0  0  0
   20.0145   36.8913   68.4203 C   0  0  0  0  0  0  0  0  0  0  0  0
   19.5331   38.3899   66.2292 Cl  0  0  0  0  0  0  0  0  0  0  0  0
   23.5453   35.0909   66.7503 C   0  0  0  0  0  0  0  0  0  0  0  0
   24.1869   34.1312   67.6646 C   0  0  0  0  0  0  0  0  0  0  0  0
   23.7361   33.8261   68.9103 C   0  0  0  0  0  0  0  0  0  0  0  0
   24.3698   32.9274   69.7190 N   0  0  0  0  0  0  0  0  0  0  0  0
   25.4680   32.3427   69.2470 C   0  0  0  0  0  0  0  0  0  0  0  0
   26.0928   31.4988   69.9641 O   0  0  0  0  0  0  0  0  0  0  0  0
   25.9503   32.6155   68.0177 N   0  0  0  0  0  0  0  0  0  0  0  0
   25.3369   33.4935   67.2165 C   0  0  0  0  0  0  0  0  0  0  0  0
   25.7859   33.7485   66.0698 O   0  0  0  0  0  0  0  0  0  0  0  0
   27.1558   31.9402   67.5580 C   0  0  0  0  0  0  0  0  0  0  0  0
   23.8633   32.6262   71.0406 C   0  0  0  0  0  0  0  0  0  0  0  0
   22.6050   34.4385   69.3772 O   0  0  0  0  0  0  0  0  0  0  0  0
   24.5080   36.1509   66.3011 C   0  0  0  0  0  0  0  0  0  0  0  0
   25.1378   36.9858   67.1917 C   0  0  0  0  0  0  0  0  0  0  0  0
   25.9951   37.9493   66.8197 N   0  0  0  0  0  0  0  0  0  0  0  0
   26.2463   38.1018   65.5052 C   0  0  0  0  0  0  0  0  0  0  0  0
   27.0553   39.0142   65.1652 O   0  0  0  0  0  0  0  0  0  0  0  0
   25.6514   37.3070   64.5983 N   0  0  0  0  0  0  0  0  0  0  0  0
   24.7937   36.3387   64.9497 C   0  0  0  0  0  0  0  0  0  0  0  0
   24.2244   35.5821   64.1272 O   0  0  0  0  0  0  0  0  0  0  0  0
   25.9527   37.5115   63.2002 C   0  0  0  0  0  0  0  0  0  0  0  0
   26.6478   38.8128   67.7852 C   0  0  0  0  0  0  0  0  0  0  0  0
   24.8791   36.8288   68.5380 O   0  0  0  0  0  0  0  0  0  0  0  0
  1  2  1  0  0  0
  2  3  2  0  0  0
  2  7  1  0  0  0
  3  4  1  0  0  0
  3 20  1  0  0  0
  4  5  2  0  0  0
  4  9  1  0  0  0
  5  6  1  0  0  0
  6  7  2  0  0  0
  6  8  1  0  0  0
  9 10  1  0  0  0
  9 21  1  0  0  0
 10 11  2  0  0  0
 10 16  1  0  0  0
 11 12  1  0  0  0
 11 20  1  0  0  0
 12 13  1  0  0  0
 12 19  1  0  0  0
 13 14  2  0  0  0
 13 15  1  0  0  0
 15 16  1  0  0  0
 15 18  1  0  0  0
 16 17  2  0  0  0
 21 22  2  0  0  0
 21 27  1  0  0  0
 22 23  1  0  0  0
 22 31  1  0  0  0
 23 24  1  0  0  0
 23 30  1  0  0  0
 24 25  2  0  0  0
 24 26  1  0  0  0
 26 27  1  0  0  0
 26 29  1  0  0  0
 27 28  2  0  0  0
M  CHG 1  31  -1
M  END
> <minimizedAffinity>
-8.40298

$$$$
2214


 34 38  0  0  0  0  0  0  0  0999 V2000
   19.1570   37.6488   67.7468 Cl  0  0  0  0  0  0  0  0  0  0  0  0
   19.3271   36.7308   69.2277 C   0  0  0  0  0  0  0  0  0  0  0  0
   18.3594   35.8700   69.6695 C   0  0  0  0  0  0  0  0  0  0  0  0
   18.5362   35.1570   70.8581 C   0  0  0  0  0  0  0  0  0  0  0  0
   19.6936   35.3477   71.5525 C   0  0  0  0  0  0  0  0  0  0  0  0
   20.6886   36.2307   71.1014 C   0  0  0  0  0  0  0  0  0  0  0  0
   20.5155   36.9281   69.9396 C   0  0  0  0  0  0  0  0  0  0  0  0
   19.6643   34.5331   72.7202 N   0  0  0  0  0  0  0  0  0  0  0  0
   18.4569   33.8114   72.7601 C   0  0  0  0  0  0  0  0  0  0  0  0
   18.1429   33.0006   73.6878 O   0  0  0  0  0  0  0  0  0  0  0  0
   17.6903   34.1813   71.5659 C   0  0  0  0  0  0  0  0  0  0  0  0
   16.4548   34.8598   71.8894 N   0  0  0  0  0  0  0  0  0  0  0  0
   15.3396   34.0718   71.4702 C   0  0  0  0  0  0  0  0  0  0  0  0
   15.9032   32.7645   71.0756 C   0  0  0  0  0  0  0  0  0  0  0  0
   17.3425   32.9908   70.7044 C   0  0  0  0  0  0  0  0  0  0  0  0
   17.9937   31.7439   71.1623 C   0  0  0  0  0  0  0  0  0  0  0  0
   19.1042   31.2696   70.8148 O   0  0  0  0  0  0  0  0  0  0  0  0
   17.1504   31.0790   72.1271 N   0  0  0  0  0  0  0  0  0  0  0  0
   16.0063   31.9053   72.3068 C   0  0  0  0  0  0  0  0  0  0  0  0
   15.2568   31.8865   73.3111 O   0  0  0  0  0  0  0  0  0  0  0  0
   20.4254   34.4635   73.4612 H   0  0  0  0  0  0  0  0  0  0  0  0
   16.3721   35.7961   71.4350 H   0  0  0  0  0  0  0  0  0  0  0  0
   17.4369   29.8170   72.7760 C   0  0  0  0  0  0  0  0  0  0  0  0
   16.4176   28.7520   72.4759 C   0  0  0  0  0  0  0  0  0  0  0  0
   17.0662   27.5799   72.0957 O   0  0  0  0  0  0  0  0  0  0  0  0
   17.2576   26.8322   73.2352 C   0  0  0  0  0  0  0  0  0  0  0  0
   16.1625   27.1847   74.2178 C   0  0  0  0  0  0  0  0  0  0  0  0
   15.5182   28.4165   73.6129 C   0  0  0  0  0  0  0  0  0  0  0  0
   14.5157   34.7445   70.4050 C   0  0  0  0  0  0  0  0  0  0  0  0
   13.0872   34.5072   70.4949 C   0  0  0  0  0  0  0  0  0  0  0  0
   12.6259   33.7886   71.4066 O   0  0  0  0  0  0  0  0  0  0  0  0
   12.1943   35.0780   69.5612 N   0  0  0  0  0  0  0  0  0  0  0  0
   11.3727   35.6269   69.9069 H   0  0  0  0  0  0  0  0  0  0  0  0
   12.2912   34.9929   68.5321 H   0  0  0  0  0  0  0  0  0  0  0  0
  1  2  1  0  0  0
  2  3  2  0  0  0
  2  7  1  0  0  0
  3  4  1  0  0  0
  4  5  2  0  0  0
  4 11  1  0  0  0
  5  6  1  0  0  0
  5  8  1  0  0  0
  6  7  2  0  0  0
  8  9  1  0  0  0
  9 10  2  0  0  0
  9 11  1  0  0  0
 11 12  1  0  0  0
 11 15  1  0  0  0
 12 13  1  0  0  0
 13 14  1  0  0  0
 13 29  1  0  0  0
 14 15  1  0  0  0
 14 19  1  0  0  0
 15 16  1  0  0  0
 16 17  2  0  0  0
 16 18  1  0  0  0
 18 19  1  0  0  0
 18 23  1  0  0  0
 19 20  2  0  0  0
 23 24  1  0  0  0
 24 25  1  0  0  0
 24 28  1  0  0  0
 25 26  1  0  0  0
 26 27  1  0  0  0
 27 28  1  0  0  0
 29 30  1  0  0  0
 30 31  2  0  0  0
 30 32  1  0  0  0
  8 21  1  0  0  0
 12 22  1  0  0  0
 32 33  1  0  0  0
 32 34  1  0  0  0
M  END
> <minimizedAffinity>
-9.23824

$$$$
2225


 29 32  0  0  0  0  0  0  0  0999 V2000
   20.9227   35.4904   70.9030 C   0  0  0  0  0  0  0  0  0  0  0  0
   21.2095   36.4259   71.7653 O   0  0  0  0  0  0  0  0  0  0  0  0
   21.8074   35.3524   69.8455 N   0  0  0  0  0  0  0  0  0  0  0  0
   22.9739   36.2862   69.7925 C   0  0  0  0  0  0  0  0  0  0  0  0
   23.1229   36.6768   68.3438 C   0  0  0  0  0  0  0  0  0  0  0  0
   21.9119   36.4711   67.5701 N   0  0  0  0  0  0  0  0  0  0  0  0
   21.4205   35.1236   67.4630 C   0  0  0  0  0  0  0  0  0  0  0  0
   21.7904   34.4132   68.7551 C   0  0  0  0  0  0  0  0  0  0  0  0
   21.2637   37.5676   66.9632 C   0  0  0  0  0  0  0  0  0  0  0  0
   21.9726   38.6056   66.4387 N   0  0  0  0  0  0  0  0  0  0  0  0
   21.4096   39.6552   65.8564 C   0  0  0  0  0  0  0  0  0  0  0  0
   20.0533   39.6784   65.7896 N   0  0  0  0  0  0  0  0  0  0  0  0
   19.2979   38.7101   66.2751 C   0  0  0  0  0  0  0  0  0  0  0  0
   19.8951   37.6116   66.8854 C   0  0  0  0  0  0  0  0  0  0  0  0
   22.1325   40.7425   65.3068 N   0  0  0  0  0  0  0  0  0  0  0  0
   21.8001   41.2376   63.9754 C   0  0  0  0  0  0  0  0  0  0  0  0
   23.1244   41.2350   63.2057 C   0  0  0  0  0  0  0  0  0  0  0  0
   24.0278   42.0591   63.8220 O   0  0  0  0  0  0  0  0  0  0  0  0
   24.3898   41.6763   65.0913 C   0  0  0  0  0  0  0  0  0  0  0  0
   23.2083   41.4102   65.9969 C   0  0  0  0  0  0  0  0  0  0  0  0
   19.6912   34.7425   71.2223 C   0  0  0  0  0  0  0  0  0  0  0  0
   18.5041   35.1385   70.9324 O   0  0  0  0  0  0  0  0  0  0  0  0
   13.0808   36.9361   69.5487 Cl  0  0  0  0  0  0  0  0  0  0  0  0
   14.6977   36.4180   69.9547 C   0  0  0  0  0  0  0  0  0  0  0  0
   15.7840   37.2478   69.8005 C   0  0  0  0  0  0  0  0  0  0  0  0
   17.0502   36.8569   70.1146 C   0  0  0  0  0  0  0  0  0  0  0  0
   17.3245   35.5669   70.6183 C   0  0  0  0  0  0  0  0  0  0  0  0
   16.1981   34.7307   70.7689 C   0  0  0  0  0  0  0  0  0  0  0  0
   14.9442   35.1559   70.4451 C   0  0  0  0  0  0  0  0  0  0  0  0
 23 24  1  0  0  0
 24 25  2  0  0  0
 24 29  1  0  0  0
 25 26  1  0  0  0
 26 27  2  0  0  0
 27 28  1  0  0  0
 27 22  1  0  0  0
 28 29  2  0  0  0
 22 21  1  0  0  0
 21  1  1  0  0  0
  1  2  2  0  0  0
  1  3  1  0  0  0
  3  4  1  0  0  0
  3  8  1  0  0  0
  4  5  1  0  0  0
  5  6  1  0  0  0
  6  7  1  0  0  0
  6  9  1  0  0  0
  7  8  1  0  0  0
  9 10  2  0  0  0
  9 14  1  0  0  0
 10 11  1  0  0  0
 11 12  2  0  0  0
 11 15  1  0  0  0
 12 13  1  0  0  0
 13 14  2  0  0  0
 15 16  1  0  0  0
 15 20  1  0  0  0
 16 17  1  0  0  0
 17 18  1  0  0  0
 18 19  1  0  0  0
 19 20  1  0  0  0
M  END
> <minimizedAffinity>
-8.38727

$$$$
2231


 27 31  0  0  0  0  0  0  0  0999 V2000
   21.2326   37.8427   66.9562 N   0  0  0  0  0  0  0  0  0  0  0  0
   19.9968   38.0583   66.5414 N   0  0  0  0  0  0  0  0  0  0  0  0
   19.1069   37.6675   67.4330 N   0  0  0  0  0  0  0  0  0  0  0  0
   19.7461   37.1643   68.5029 C   0  0  0  0  0  0  0  0  0  0  0  0
   21.0839   37.2830   68.1836 C   0  0  0  0  0  0  0  0  0  0  0  0
   21.9874   36.8483   69.0906 N   0  0  0  0  0  0  0  0  0  0  0  0
   21.5567   36.3244   70.2531 C   0  0  0  0  0  0  0  0  0  0  0  0
   20.2411   36.2098   70.5607 N   0  0  0  0  0  0  0  0  0  0  0  0
   19.3002   36.6269   69.6936 C   0  0  0  0  0  0  0  0  0  0  0  0
   17.9106   36.5150   70.0010 N   0  0  0  0  0  0  0  0  0  0  0  0
   17.4814   35.2717   70.6127 C   0  0  0  0  0  0  0  0  0  0  0  0
   16.1964   35.4736   71.4124 C   0  0  0  0  0  0  0  0  0  0  0  0
   15.3351   36.4090   70.7833 N   0  0  0  0  0  0  0  0  0  0  0  0
   15.9310   37.7773   70.6878 C   0  0  0  0  0  0  0  0  0  0  0  0
   17.0610   37.6209   69.6876 C   0  0  0  0  0  0  0  0  0  0  0  0
   14.0706   36.1600   70.2779 C   0  0  0  0  0  0  0  0  0  0  0  0
   13.4845   37.2178   69.7432 O   0  0  0  0  0  0  0  0  0  0  0  0
   13.2480   34.9617   70.2123 C   0  0  0  0  0  0  0  0  0  0  0  0
   13.0438   34.3087   68.8983 C   0  0  0  0  0  0  0  0  0  0  0  0
   13.6950   33.5820   70.0519 C   0  0  0  0  0  0  0  0  0  0  0  0
   26.2233   39.2668   64.0581 Cl  0  0  0  0  0  0  0  0  0  0  0  0
   24.7680   38.8427   64.9055 C   0  0  0  0  0  0  0  0  0  0  0  0
   24.5671   37.5478   65.3124 C   0  0  0  0  0  0  0  0  0  0  0  0
   23.4143   37.2066   65.9837 C   0  0  0  0  0  0  0  0  0  0  0  0
   22.4393   38.1343   66.2675 C   0  0  0  0  0  0  0  0  0  0  0  0
   22.6685   39.4253   65.8467 C   0  0  0  0  0  0  0  0  0  0  0  0
   23.8191   39.7868   65.1711 C   0  0  0  0  0  0  0  0  0  0  0  0
 21 22  1  0  0  0
 22 23  2  0  0  0
 22 27  1  0  0  0
 23 24  1  0  0  0
 24 25  2  0  0  0
 25 26  1  0  0  0
 25  1  1  0  0  0
 26 27  2  0  0  0
  1  2  1  0  0  0
  1  5  1  0  0  0
  2  3  2  0  0  0
  3  4  1  0  0  0
  4  5  2  0  0  0
  4  9  1  0  0  0
  5  6  1  0  0  0
  6  7  2  0  0  0
  7  8  1  0  0  0
  8  9  2  0  0  0
  9 10  1  0  0  0
 10 11  1  0  0  0
 10 15  1  0  0  0
 11 12  1  0  0  0
 12 13  1  0  0  0
 13 14  1  0  0  0
 13 16  1  0  0  0
 14 15  1  0  0  0
 16 17  2  0  0  0
 16 18  1  0  0  0
 18 19  1  0  0  0
 18 20  1  0  0  0
 19 20  1  0  0  0
M  END
> <minimizedAffinity>
-9.01856

$$$$
2242


 32 35  0  0  0  0  0  0  0  0999 V2000
   21.2981   35.1250   68.4478 N   0  0  0  0  0  0  0  0  0  0  0  0
   21.2780   35.5590   69.7755 C   0  0  0  0  0  0  0  0  0  0  0  0
   22.0996   36.3644   70.2365 O   0  0  0  0  0  0  0  0  0  0  0  0
   20.5491   34.4265   68.1424 H   0  0  0  0  0  0  0  0  0  0  0  0
   20.4764   37.5877   67.0908 Cl  0  0  0  0  0  0  0  0  0  0  0  0
   21.9511   36.7024   66.7670 C   0  0  0  0  0  0  0  0  0  0  0  0
   22.8023   37.1822   65.8119 C   0  0  0  0  0  0  0  0  0  0  0  0
   23.9715   36.5451   65.5043 C   0  0  0  0  0  0  0  0  0  0  0  0
   24.2780   35.3963   66.1841 C   0  0  0  0  0  0  0  0  0  0  0  0
   23.3988   34.9071   67.1655 C   0  0  0  0  0  0  0  0  0  0  0  0
   22.2262   35.5337   67.4821 C   0  0  0  0  0  0  0  0  0  0  0  0
   25.4481   34.6851   65.9319 O   0  0  0  0  0  0  0  0  0  0  0  0
   26.5655   35.2683   65.2452 C   0  0  0  0  0  0  0  0  0  0  0  0
   26.0838   36.2986   64.2782 C   0  0  0  0  0  0  0  0  0  0  0  0
   26.7594   36.5072   63.2442 O   0  0  0  0  0  0  0  0  0  0  0  0
   24.8864   37.0318   64.5153 N   0  0  0  0  0  0  0  0  0  0  0  0
   24.6795   37.8998   63.9832 H   0  0  0  0  0  0  0  0  0  0  0  0
   20.2387   35.0597   70.7179 C   0  0  0  0  0  0  0  0  0  0  0  0
   18.9914   35.1581   70.3765 N   0  0  0  0  0  0  0  0  0  0  0  0
   17.9573   34.7160   71.1993 N   0  0  0  0  0  0  0  0  0  0  0  0
   18.2758   34.1402   72.4462 C   0  0  0  0  0  0  0  0  0  0  0  0
   17.3016   33.6699   73.1264 O   0  0  0  0  0  0  0  0  0  0  0  0
   19.6574   34.0717   72.9639 C   0  0  0  0  0  0  0  0  0  0  0  0
   20.5824   34.4844   71.9672 N   0  0  0  0  0  0  0  0  0  0  0  0
   21.6115   34.3626   72.1557 H   0  0  0  0  0  0  0  0  0  0  0  0
   16.5752   34.8473   70.7867 C   0  0  0  0  0  0  0  0  0  0  0  0
   15.9404   36.0654   70.7770 C   0  0  0  0  0  0  0  0  0  0  0  0
   14.6060   36.1668   70.3701 C   0  0  0  0  0  0  0  0  0  0  0  0
   13.9002   35.0492   69.9730 C   0  0  0  0  0  0  0  0  0  0  0  0
   14.5497   33.8364   69.9894 C   0  0  0  0  0  0  0  0  0  0  0  0
   15.8507   33.7451   70.3866 C   0  0  0  0  0  0  0  0  0  0  0  0
   12.4761   35.1041   69.5264 C   0  0  0  0  0  0  0  0  0  0  0  0
  5  6  1  0  0  0
  6  7  2  0  0  0
  6 11  1  0  0  0
  7  8  1  0  0  0
  8  9  2  0  0  0
  8 16  1  0  0  0
  9 10  1  0  0  0
  9 12  1  0  0  0
 10 11  2  0  0  0
 11  1  1  0  0  0
  1  2  1  0  0  0
  2  3  2  0  0  0
  2 18  1  0  0  0
 18 19  2  0  0  0
 18 24  1  0  0  0
 19 20  1  0  0  0
 20 21  1  0  0  0
 20 26  1  0  0  0
 21 22  2  0  0  0
 21 23  1  0  0  0
 23 24  1  0  0  0
 26 27  2  0  0  0
 26 31  1  0  0  0
 27 28  1  0  0  0
 28 29  2  0  0  0
 29 30  1  0  0  0
 29 32  1  0  0  0
 30 31  2  0  0  0
 12 13  1  0  0  0
 13 14  1  0  0  0
 14 15  2  0  0  0
 14 16  1  0  0  0
  1  4  1  0  0  0
 24 25  1  0  0  0
 16 17  1  0  0  0
M  END
> <minimizedAffinity>
-9.48685

$$$$
2266


 27 30  0  0  0  0  0  0  0  0999 V2000
   14.7216   35.2591   71.0543 N   0  0  0  0  0  0  0  0  0  0  0  0
   14.5072   36.3124   70.1453 C   0  0  0  0  0  0  0  0  0  0  0  0
   15.4935   37.4552   70.2850 C   0  0  0  0  0  0  0  0  0  0  0  0
   16.8515   36.8360   70.2263 C   0  0  0  0  0  0  0  0  0  0  0  0
   17.0522   35.7139   71.0033 C   0  0  0  0  0  0  0  0  0  0  0  0
   18.2428   35.1142   70.9955 N   0  0  0  0  0  0  0  0  0  0  0  0
   19.2160   35.6328   70.2196 C   0  0  0  0  0  0  0  0  0  0  0  0
   19.0460   36.7243   69.4530 N   0  0  0  0  0  0  0  0  0  0  0  0
   20.1842   37.0077   68.7924 N   0  0  0  0  0  0  0  0  0  0  0  0
   21.1319   36.1121   69.1052 C   0  0  0  0  0  0  0  0  0  0  0  0
   20.5442   35.2451   69.9958 C   0  0  0  0  0  0  0  0  0  0  0  0
   17.8522   37.3577   69.4368 C   0  0  0  0  0  0  0  0  0  0  0  0
   17.6326   38.3822   68.7414 O   0  0  0  0  0  0  0  0  0  0  0  0
   15.9032   35.2429   71.8130 C   0  0  0  0  0  0  0  0  0  0  0  0
   20.2845   37.8156   68.1365 H   0  0  0  0  0  0  0  0  0  0  0  0
   13.8774   33.8290   70.8174 S   0  0  0  0  0  0  0  0  0  0  0  0
   12.3879   33.9976   71.0812 O   0  0  0  0  0  0  0  0  0  0  0  0
   13.9581   33.4777   69.3352 O   0  0  0  0  0  0  0  0  0  0  0  0
   14.4016   32.4624   71.7236 C   0  0  0  0  0  0  0  0  0  0  0  0
   15.6285   31.8586   71.4583 C   0  0  0  0  0  0  0  0  0  0  0  0
   16.0161   30.7647   72.2006 C   0  0  0  0  0  0  0  0  0  0  0  0
   15.2432   30.2490   73.1891 C   0  0  0  0  0  0  0  0  0  0  0  0
   14.0341   30.8188   73.4739 C   0  0  0  0  0  0  0  0  0  0  0  0
   13.6447   31.9136   72.7313 C   0  0  0  0  0  0  0  0  0  0  0  0
   13.0071   30.1679   74.7562 Cl  0  0  0  0  0  0  0  0  0  0  0  0
   16.4720   32.3184   70.4746 O   0  0  0  0  0  0  0  0  0  0  0  0
   17.7462   31.7321   70.3345 C   0  0  0  0  0  0  0  0  0  0  0  0
 16 17  2  0  0  0
 16 18  2  0  0  0
 16  1  1  0  0  0
 16 19  1  0  0  0
  1  2  1  0  0  0
  1 14  1  0  0  0
  2  3  1  0  0  0
  3  4  1  0  0  0
  4  5  2  0  0  0
  4 12  1  0  0  0
  5  6  1  0  0  0
  5 14  1  0  0  0
  6  7  2  0  0  0
  7  8  1  0  0  0
  7 11  1  0  0  0
  8  9  1  0  0  0
  8 12  1  0  0  0
  9 10  1  0  0  0
 10 11  2  0  0  0
 12 13  2  0  0  0
 19 20  2  0  0  0
 19 24  1  0  0  0
 20 21  1  0  0  0
 20 26  1  0  0  0
 21 22  2  0  0  0
 22 23  1  0  0  0
 23 24  2  0  0  0
 23 25  1  0  0  0
 26 27  1  0  0  0
  9 15  1  0  0  0
M  END
> <minimizedAffinity>
-8.62151

$$$$
2267


 27 30  0  0  0  0  0  0  0  0999 V2000
   20.8058   36.1163   68.0388 N   0  0  0  0  0  0  0  0  0  0  0  0
   21.8521   35.2444   67.7436 C   0  0  0  0  0  0  0  0  0  0  0  0
   22.6545   35.6466   66.5284 C   0  0  0  0  0  0  0  0  0  0  0  0
   22.6487   37.1056   66.2712 C   0  0  0  0  0  0  0  0  0  0  0  0
   21.4812   37.7796   66.5357 C   0  0  0  0  0  0  0  0  0  0  0  0
   21.3823   39.0985   66.3322 N   0  0  0  0  0  0  0  0  0  0  0  0
   22.4680   39.7881   65.8511 C   0  0  0  0  0  0  0  0  0  0  0  0
   23.6058   39.1093   65.5973 N   0  0  0  0  0  0  0  0  0  0  0  0
   24.4970   39.9956   65.1448 N   0  0  0  0  0  0  0  0  0  0  0  0
   23.9600   41.2087   65.1049 C   0  0  0  0  0  0  0  0  0  0  0  0
   22.6438   41.1226   65.5548 C   0  0  0  0  0  0  0  0  0  0  0  0
   23.7599   37.7919   65.7822 C   0  0  0  0  0  0  0  0  0  0  0  0
   24.8191   37.1622   65.5460 O   0  0  0  0  0  0  0  0  0  0  0  0
   20.3337   37.0167   67.0542 C   0  0  0  0  0  0  0  0  0  0  0  0
   25.4794   39.7798   64.8595 H   0  0  0  0  0  0  0  0  0  0  0  0
   20.4231   36.4272   69.6324 S   0  0  0  0  0  0  0  0  0  0  0  0
   21.0058   35.3434   70.5107 O   0  0  0  0  0  0  0  0  0  0  0  0
   21.0178   37.7240   70.0955 O   0  0  0  0  0  0  0  0  0  0  0  0
   18.7072   36.4764   69.9708 C   0  0  0  0  0  0  0  0  0  0  0  0
   18.0522   35.4827   70.6777 C   0  0  0  0  0  0  0  0  0  0  0  0
   16.6893   35.5739   70.9163 C   0  0  0  0  0  0  0  0  0  0  0  0
   15.9345   36.6352   70.4728 C   0  0  0  0  0  0  0  0  0  0  0  0
   16.5857   37.6252   69.7690 C   0  0  0  0  0  0  0  0  0  0  0  0
   17.9394   37.5348   69.5320 C   0  0  0  0  0  0  0  0  0  0  0  0
   15.8762   34.3065   71.8128 Cl  0  0  0  0  0  0  0  0  0  0  0  0
   14.5553   36.7074   70.7266 O   0  0  0  0  0  0  0  0  0  0  0  0
   13.6433   36.7113   69.6446 C   0  0  0  0  0  0  0  0  0  0  0  0
 16 17  2  0  0  0
 16 18  2  0  0  0
 16  1  1  0  0  0
 16 19  1  0  0  0
  1  2  1  0  0  0
  1 14  1  0  0  0
  2  3  1  0  0  0
  3  4  1  0  0  0
  4  5  2  0  0  0
  4 12  1  0  0  0
  5  6  1  0  0  0
  5 14  1  0  0  0
  6  7  2  0  0  0
  7  8  1  0  0  0
  7 11  1  0  0  0
  8  9  1  0  0  0
  8 12  1  0  0  0
  9 10  1  0  0  0
 10 11  2  0  0  0
 12 13  2  0  0  0
 19 20  2  0  0  0
 19 24  1  0  0  0
 20 21  1  0  0  0
 21 22  2  0  0  0
 21 25  1  0  0  0
 22 23  1  0  0  0
 22 26  1  0  0  0
 23 24  2  0  0  0
 26 27  1  0  0  0
  9 15  1  0  0  0
M  END
> <minimizedAffinity>
-8.87605

$$$$
2270


 22 24  0  0  0  0  0  0  0  0999 V2000
   18.8471   37.0962   69.7740 C   0  0  0  0  0  0  0  0  0  0  0  0
   18.9389   37.7614   68.7037 O   0  0  0  0  0  0  0  0  0  0  0  0
   19.9855   36.8642   70.6054 N   0  0  0  0  0  0  0  0  0  0  0  0
   19.8608   36.3214   71.4593 H   0  0  0  0  0  0  0  0  0  0  0  0
   13.6878   34.5747   71.5070 Cl  0  0  0  0  0  0  0  0  0  0  0  0
   15.1859   35.3419   70.9865 C   0  0  0  0  0  0  0  0  0  0  0  0
   16.3884   34.7149   71.2346 C   0  0  0  0  0  0  0  0  0  0  0  0
   17.5482   35.3297   70.8203 C   0  0  0  0  0  0  0  0  0  0  0  0
   17.5653   36.5616   70.1579 C   0  0  0  0  0  0  0  0  0  0  0  0
   16.3699   37.1746   69.9165 C   0  0  0  0  0  0  0  0  0  0  0  0
   15.1804   36.5643   70.3306 C   0  0  0  0  0  0  0  0  0  0  0  0
   16.4029   33.4912   71.8897 O   0  0  0  0  0  0  0  0  0  0  0  0
   17.1161   33.3106   73.0978 C   0  0  0  0  0  0  0  0  0  0  0  0
   21.2421   37.4133   70.1893 C   0  0  0  0  0  0  0  0  0  0  0  0
   22.2099   36.4888   69.5659 C   0  0  0  0  0  0  0  0  0  0  0  0
   22.3445   36.5376   68.1423 N   0  0  0  0  0  0  0  0  0  0  0  0
   23.7889   36.3207   67.8840 C   0  0  0  0  0  0  0  0  0  0  0  0
   24.1436   35.1193   68.7690 C   0  0  0  0  0  0  0  0  0  0  0  0
   22.9826   34.3112   69.0829 N   0  0  0  0  0  0  0  0  0  0  0  0
   22.0313   35.0258   69.9376 C   0  0  0  0  0  0  0  0  0  0  0  0
   22.2770   34.0880   67.8329 C   0  0  0  0  0  0  0  0  0  0  0  0
   21.7126   35.4452   67.4310 C   0  0  0  0  0  0  0  0  0  0  0  0
  5  6  1  0  0  0
  6  7  2  0  0  0
  6 11  1  0  0  0
  7  8  1  0  0  0
  7 12  1  0  0  0
  8  9  2  0  0  0
  9 10  1  0  0  0
  9  1  1  0  0  0
 10 11  2  0  0  0
  1  2  2  0  0  0
  1  3  1  0  0  0
  3 14  1  0  0  0
 14 15  1  0  0  0
 15 16  1  0  0  0
 15 20  1  0  0  0
 16 17  1  0  0  0
 16 22  1  0  0  0
 17 18  1  0  0  0
 18 19  1  0  0  0
 19 20  1  0  0  0
 19 21  1  0  0  0
 21 22  1  0  0  0
 12 13  1  0  0  0
  3  4  1  0  0  0
M  END
> <minimizedAffinity>
-6.90018

$$$$
2271


 27 30  0  0  0  0  0  0  0  0999 V2000
   21.0462   36.4428   70.6857 C   0  0  0  0  0  0  0  0  0  0  0  0
   20.0315   36.9838   69.9281 N   0  0  0  0  0  0  0  0  0  0  0  0
   20.4926   36.8874   68.5587 C   0  0  0  0  0  0  0  0  0  0  0  0
   19.9691   36.5529   67.4242 C   0  0  0  0  0  0  0  0  0  0  0  0
   20.7037   36.5495   66.1462 C   0  0  0  0  0  0  0  0  0  0  0  0
   22.1358   36.9434   66.2237 C   0  0  0  0  0  0  0  0  0  0  0  0
   22.4930   37.7544   67.4234 C   0  0  0  0  0  0  0  0  0  0  0  0
   21.8521   37.2786   68.6307 N   0  0  0  0  0  0  0  0  0  0  0  0
   22.2912   37.0861   70.0100 C   0  0  0  0  0  0  0  0  0  0  0  0
   21.0864   37.0013   71.9946 O   0  0  0  0  0  0  0  0  0  0  0  0
   20.0815   38.0570   70.0830 H   0  0  0  0  0  0  0  0  0  0  0  0
   21.2585   37.9693   71.8640 H   0  0  0  0  0  0  0  0  0  0  0  0
   22.2683   30.5837   71.0823 Cl  0  0  0  0  0  0  0  0  0  0  0  0
   21.9001   32.2863   70.9734 C   0  0  0  0  0  0  0  0  0  0  0  0
   21.0444   32.9329   71.8563 C   0  0  0  0  0  0  0  0  0  0  0  0
   20.7698   34.2647   71.7535 C   0  0  0  0  0  0  0  0  0  0  0  0
   21.3419   35.0260   70.7526 C   0  0  0  0  0  0  0  0  0  0  0  0
   22.1887   34.3935   69.8769 C   0  0  0  0  0  0  0  0  0  0  0  0
   22.4657   33.0415   69.9831 C   0  0  0  0  0  0  0  0  0  0  0  0
   18.6895   36.6680   70.0740 C   0  0  0  0  0  0  0  0  0  0  0  0
   18.1688   35.5132   70.5507 C   0  0  0  0  0  0  0  0  0  0  0  0
   16.7883   35.3483   70.6495 C   0  0  0  0  0  0  0  0  0  0  0  0
   15.8925   36.3353   70.2748 C   0  0  0  0  0  0  0  0  0  0  0  0
   16.4522   37.5001   69.7934 C   0  0  0  0  0  0  0  0  0  0  0  0
   17.8037   37.6927   69.6836 C   0  0  0  0  0  0  0  0  0  0  0  0
   14.5272   36.1300   70.3888 O   0  0  0  0  0  0  0  0  0  0  0  0
   13.6504   36.8540   69.5646 C   0  0  0  0  0  0  0  0  0  0  0  0
 13 14  1  0  0  0
 14 15  2  0  0  0
 14 19  1  0  0  0
 15 16  1  0  0  0
 16 17  2  0  0  0
 17 18  1  0  0  0
 17  1  1  0  0  0
 18 19  2  0  0  0
  1  2  1  0  0  0
  1  9  1  0  0  0
  1 10  1  0  0  0
  2  3  1  0  0  0
  2 20  1  0  0  0
  3  4  2  0  0  0
  3  8  1  0  0  0
  4  5  1  0  0  0
  5  6  1  0  0  0
  6  7  1  0  0  0
  7  8  1  0  0  0
  8  9  1  0  0  0
 20 21  2  0  0  0
 20 25  1  0  0  0
 21 22  1  0  0  0
 22 23  2  0  0  0
 23 24  1  0  0  0
 23 26  1  0  0  0
 24 25  2  0  0  0
 26 27  1  0  0  0
  2 11  1  0  0  0
 10 12  1  0  0  0
M  CHG 1   2   1
M  END
> <minimizedAffinity>
-8.39396

$$$$
2272


 29 32  0  0  0  0  0  0  0  0999 V2000
   20.0891   33.4931   72.1571 C   0  0  0  0  0  0  0  0  0  0  0  0
   20.6502   32.9140   73.1643 O   0  0  0  0  0  0  0  0  0  0  0  0
   18.6934   33.5237   72.1794 N   0  0  0  0  0  0  0  0  0  0  0  0
   17.8485   33.9375   71.0434 C   0  0  0  0  0  0  0  0  0  0  0  0
   17.2543   32.5415   70.6761 C   0  0  0  0  0  0  0  0  0  0  0  0
   16.3917   32.1297   71.7746 N   0  0  0  0  0  0  0  0  0  0  0  0
   16.5859   32.6066   73.0318 C   0  0  0  0  0  0  0  0  0  0  0  0
   17.9285   33.1995   73.3520 C   0  0  0  0  0  0  0  0  0  0  0  0
   21.0063   34.0343   71.1838 C   0  0  0  0  0  0  0  0  0  0  0  0
   21.2522   35.4681   71.0594 C   0  0  0  0  0  0  0  0  0  0  0  0
   16.6577   38.8045   66.8981 Cl  0  0  0  0  0  0  0  0  0  0  0  0
   17.9024   37.9784   67.8024 C   0  0  0  0  0  0  0  0  0  0  0  0
   19.1039   37.6822   67.2202 C   0  0  0  0  0  0  0  0  0  0  0  0
   20.0886   37.0301   67.9736 C   0  0  0  0  0  0  0  0  0  0  0  0
   19.8898   36.6736   69.2865 C   0  0  0  0  0  0  0  0  0  0  0  0
   18.6598   36.9738   69.8981 C   0  0  0  0  0  0  0  0  0  0  0  0
   17.7098   37.6189   69.1237 C   0  0  0  0  0  0  0  0  0  0  0  0
   20.9788   36.0839   69.7724 N   0  0  0  0  0  0  0  0  0  0  0  0
   21.8747   36.0739   68.7284 C   0  0  0  0  0  0  0  0  0  0  0  0
   23.0433   35.5925   68.7769 O   0  0  0  0  0  0  0  0  0  0  0  0
   21.3047   36.6415   67.6945 O   0  0  0  0  0  0  0  0  0  0  0  0
   15.7520   30.9598   71.3985 C   0  0  0  0  0  0  0  0  0  0  0  0
   14.2306   31.1153   71.3998 C   0  0  0  0  0  0  0  0  0  0  0  0
   13.6042   30.0274   71.6975 O   0  0  0  0  0  0  0  0  0  0  0  0
   13.6538   32.2753   71.1080 N   0  0  0  0  0  0  0  0  0  0  0  0
   12.4323   31.8032   71.4684 H   0  0  0  0  0  0  0  0  0  0  0  0
   13.0404   33.5100   70.7967 C   0  0  0  0  0  0  0  0  0  0  0  0
   13.6804   34.2718   69.5739 C   0  0  0  0  0  0  0  0  0  0  0  0
   13.8714   34.7698   70.9230 C   0  0  0  0  0  0  0  0  0  0  0  0
 11 12  1  0  0  0
 12 13  2  0  0  0
 12 17  1  0  0  0
 13 14  1  0  0  0
 14 15  2  0  0  0
 14 21  1  0  0  0
 15 16  1  0  0  0
 15 18  1  0  0  0
 16 17  2  0  0  0
 18 19  1  0  0  0
 18 10  1  0  0  0
 19 20  2  0  0  0
 19 21  1  0  0  0
 10  9  1  0  0  0
  9  1  1  0  0  0
  1  2  2  0  0  0
  1  3  1  0  0  0
  3  4  1  0  0  0
  3  8  1  0  0  0
  4  5  1  0  0  0
  5  6  1  0  0  0
  6  7  1  0  0  0
  6 22  1  0  0  0
  7  8  1  0  0  0
 22 23  1  0  0  0
 23 24  2  0  0  0
 23 25  1  0  0  0
 25 27  1  0  0  0
 27 28  1  0  0  0
 27 29  1  0  0  0
 28 29  1  0  0  0
 25 26  1  0  0  0
M  END
> <minimizedAffinity>
-8.50035

$$$$
2275


 21 23  0  0  0  0  0  0  0  0999 V2000
   13.6568   36.8023   69.8997 Cl  0  0  0  0  0  0  0  0  0  0  0  0
   14.5000   35.4464   70.6154 C   0  0  0  0  0  0  0  0  0  0  0  0
   15.8432   35.5471   70.9136 C   0  0  0  0  0  0  0  0  0  0  0  0
   16.4406   34.4427   71.4797 C   0  0  0  0  0  0  0  0  0  0  0  0
   17.6702   34.4278   71.7934 O   0  0  0  0  0  0  0  0  0  0  0  0
   15.7189   33.3369   71.7153 N   0  0  0  0  0  0  0  0  0  0  0  0
   14.4356   33.1970   71.4473 N   0  0  0  0  0  0  0  0  0  0  0  0
   13.6913   31.9791   71.7204 C   0  0  0  0  0  0  0  0  0  0  0  0
   14.0486   30.8587   70.7666 C   0  0  0  0  0  0  0  0  0  0  0  0
   15.3233   30.1651   71.2151 C   0  0  0  0  0  0  0  0  0  0  0  0
   16.4912   31.1243   71.2409 C   0  0  0  0  0  0  0  0  0  0  0  0
   16.3789   32.1691   72.3196 C   0  0  0  0  0  0  0  0  0  0  0  0
   15.4466   31.6613   73.3611 C   0  0  0  0  0  0  0  0  0  0  0  0
   14.1552   31.5211   73.0831 C   0  0  0  0  0  0  0  0  0  0  0  0
   13.8194   34.2785   70.8848 C   0  0  0  0  0  0  0  0  0  0  0  0
   12.5756   34.1725   70.6136 O   0  0  0  0  0  0  0  0  0  0  0  0
   16.6108   36.7198   70.6595 N   0  0  0  0  0  0  0  0  0  0  0  0
   16.5020   37.4784   71.3985 H   0  0  0  0  0  0  0  0  0  0  0  0
   17.4690   36.9027   69.5207 C   0  0  0  0  0  0  0  0  0  0  0  0
   17.0038   38.0481   68.6381 C   0  0  0  0  0  0  0  0  0  0  0  0
   18.9041   37.1339   69.8577 C   0  0  0  0  0  0  0  0  0  0  0  0
  1  2  1  0  0  0
  2  3  2  0  0  0
  2 15  1  0  0  0
  3  4  1  0  0  0
  3 17  1  0  0  0
  4  5  2  0  0  0
  4  6  1  0  0  0
  6  7  1  0  0  0
  6 12  1  0  0  0
  7  8  1  0  0  0
  7 15  1  0  0  0
  8  9  1  0  0  0
  8 14  1  0  0  0
  9 10  1  0  0  0
 10 11  1  0  0  0
 11 12  1  0  0  0
 12 13  1  0  0  0
 13 14  2  0  0  0
 15 16  2  0  0  0
 17 19  1  0  0  0
 19 20  1  0  0  0
 19 21  1  0  0  0
 17 18  1  0  0  0
M  END
> <minimizedAffinity>
-7.81295

$$$$
2276


 21 24  0  0  0  0  0  0  0  0999 V2000
   13.6756   36.2135   69.6854 Cl  0  0  0  0  0  0  0  0  0  0  0  0
   14.6172   34.9794   70.4988 C   0  0  0  0  0  0  0  0  0  0  0  0
   15.9053   35.2940   70.8784 C   0  0  0  0  0  0  0  0  0  0  0  0
   16.6008   34.2599   71.5177 C   0  0  0  0  0  0  0  0  0  0  0  0
   17.7700   34.4896   71.8824 O   0  0  0  0  0  0  0  0  0  0  0  0
   16.0320   33.0673   71.7311 N   0  0  0  0  0  0  0  0  0  0  0  0
   14.7944   32.7723   71.3638 N   0  0  0  0  0  0  0  0  0  0  0  0
   14.3278   31.4293   71.6778 C   0  0  0  0  0  0  0  0  0  0  0  0
   15.3062   30.4700   71.0255 C   0  0  0  0  0  0  0  0  0  0  0  0
   16.6877   30.8117   71.3838 C   0  0  0  0  0  0  0  0  0  0  0  0
   16.7416   31.9687   72.3907 C   0  0  0  0  0  0  0  0  0  0  0  0
   15.8324   31.5696   73.5195 C   0  0  0  0  0  0  0  0  0  0  0  0
   14.5910   31.2911   73.1595 C   0  0  0  0  0  0  0  0  0  0  0  0
   16.0550   29.4951   71.8550 C   0  0  0  0  0  0  0  0  0  0  0  0
   14.0883   33.7170   70.7515 C   0  0  0  0  0  0  0  0  0  0  0  0
   12.9118   33.4467   70.3988 O   0  0  0  0  0  0  0  0  0  0  0  0
   16.5220   36.5601   70.6624 N   0  0  0  0  0  0  0  0  0  0  0  0
   16.3475   37.2708   71.4039 H   0  0  0  0  0  0  0  0  0  0  0  0
   17.3259   36.9036   69.5467 C   0  0  0  0  0  0  0  0  0  0  0  0
   16.8359   38.0913   68.7598 C   0  0  0  0  0  0  0  0  0  0  0  0
   18.7724   37.1992   69.9182 C   0  0  0  0  0  0  0  0  0  0  0  0
  1  2  1  0  0  0
  2  3  2  0  0  0
  2 15  1  0  0  0
  3  4  1  0  0  0
  3 17  1  0  0  0
  4  5  2  0  0  0
  4  6  1  0  0  0
  6  7  1  0  0  0
  6 11  1  0  0  0
  7  8  1  0  0  0
  7 15  1  0  0  0
  8  9  1  0  0  0
  8 13  1  0  0  0
  9 10  1  0  0  0
  9 14  1  0  0  0
 10 11  1  0  0  0
 10 14  1  0  0  0
 11 12  1  0  0  0
 12 13  2  0  0  0
 15 16  2  0  0  0
 17 19  1  0  0  0
 19 20  1  0  0  0
 19 21  1  0  0  0
 17 18  1  0  0  0
M  END
> <minimizedAffinity>
-7.41450

$$$$
2281


 34 37  0  0  0  0  0  0  0  0999 V2000
   21.0085   36.1614   70.4604 N   0  0  0  0  0  0  0  0  0  0  0  0
   21.9730   37.1435   70.1960 C   0  0  0  0  0  0  0  0  0  0  0  0
   22.6046   36.8019   68.7967 C   0  0  0  0  0  0  0  0  0  0  0  0
   21.9743   35.8429   68.0351 N   0  0  0  0  0  0  0  0  0  0  0  0
   21.2038   34.8180   68.6850 C   0  0  0  0  0  0  0  0  0  0  0  0
   21.5660   34.7653   70.2054 C   0  0  0  0  0  0  0  0  0  0  0  0
   19.9163   34.3677   72.6920 Cl  0  0  0  0  0  0  0  0  0  0  0  0
   18.9703   35.3240   71.4815 C   0  0  0  0  0  0  0  0  0  0  0  0
   19.6457   36.1675   70.7136 C   0  0  0  0  0  0  0  0  0  0  0  0
   18.8128   36.9602   69.7767 C   0  0  0  0  0  0  0  0  0  0  0  0
   17.5513   36.7452   69.7738 N   0  0  0  0  0  0  0  0  0  0  0  0
   16.8997   35.8556   70.5679 N   0  0  0  0  0  0  0  0  0  0  0  0
   17.5876   35.1468   71.4202 C   0  0  0  0  0  0  0  0  0  0  0  0
   17.0745   34.2764   72.2022 O   0  0  0  0  0  0  0  0  0  0  0  0
   15.5091   35.5631   70.2245 C   0  0  0  0  0  0  0  0  0  0  0  0
   14.6016   36.5329   69.9425 C   0  0  0  0  0  0  0  0  0  0  0  0
   13.3325   36.2227   69.5041 C   0  0  0  0  0  0  0  0  0  0  0  0
   12.9431   34.8950   69.3353 C   0  0  0  0  0  0  0  0  0  0  0  0
   13.8933   33.9208   69.6406 C   0  0  0  0  0  0  0  0  0  0  0  0
   15.1227   34.2445   70.0661 C   0  0  0  0  0  0  0  0  0  0  0  0
   22.8793   35.0377   67.1484 C   0  0  0  0  0  0  0  0  0  0  0  0
   23.4621   35.8987   66.1301 C   0  0  0  0  0  0  0  0  0  0  0  0
   23.1733   36.2296   65.1029 O   0  0  0  0  0  0  0  0  0  0  0  0
   24.9420   36.5404   66.6925 N   0  0  0  0  0  0  0  0  0  0  0  0
   25.0334   37.5895   65.6166 C   0  0  0  0  0  0  0  0  0  0  0  0
   24.6187   37.4802   64.4956 O   0  0  0  0  0  0  0  0  0  0  0  0
   25.6843   38.7731   66.1293 N   0  0  0  0  0  0  0  0  0  0  0  0
   24.8909   35.9983   67.2418 H   0  0  0  0  0  0  0  0  0  0  0  0
   26.0307   38.6994   67.1433 H   0  0  0  0  0  0  0  0  0  0  0  0
   25.9319   39.9864   65.4462 C   0  0  0  0  0  0  0  0  0  0  0  0
   24.8018   40.8409   65.0399 C   0  0  0  0  0  0  0  0  0  0  0  0
   24.5526   41.8419   66.1725 C   0  0  0  0  0  0  0  0  0  0  0  0
   25.9578   42.0650   66.6805 C   0  0  0  0  0  0  0  0  0  0  0  0
   26.7348   40.8457   66.4450 C   0  0  0  0  0  0  0  0  0  0  0  0
  7  8  1  0  0  0
  8  9  2  0  0  0
  8 13  1  0  0  0
  9 10  1  0  0  0
  9  1  1  0  0  0
 10 11  2  0  0  0
 11 12  1  0  0  0
 12 13  1  0  0  0
 12 15  1  0  0  0
 13 14  2  0  0  0
 15 16  2  0  0  0
 15 20  1  0  0  0
 16 17  1  0  0  0
 17 18  2  0  0  0
 18 19  1  0  0  0
 19 20  2  0  0  0
  1  2  1  0  0  0
  1  6  1  0  0  0
  2  3  1  0  0  0
  3  4  1  0  0  0
  4  5  1  0  0  0
  4 21  1  0  0  0
  5  6  1  0  0  0
 21 22  1  0  0  0
 22 23  2  0  0  0
 22 24  1  0  0  0
 24 25  1  0  0  0
 25 26  2  0  0  0
 25 27  1  0  0  0
 27 30  1  0  0  0
 30 31  1  0  0  0
 30 34  1  0  0  0
 31 32  1  0  0  0
 32 33  1  0  0  0
 33 34  1  0  0  0
 24 28  1  0  0  0
 27 29  1  0  0  0
M  END
> <minimizedAffinity>
-9.34849

$$$$
2282


 31 34  0  0  0  0  0  0  0  0999 V2000
   20.0738   35.2420   70.7128 N   0  0  0  0  0  0  0  0  0  0  0  0
   20.2909   34.7034   72.0342 C   0  0  0  0  0  0  0  0  0  0  0  0
   19.1217   33.8624   72.4412 C   0  0  0  0  0  0  0  0  0  0  0  0
   18.3096   33.6588   71.2675 N   0  0  0  0  0  0  0  0  0  0  0  0
   17.6881   34.8860   70.9218 C   0  0  0  0  0  0  0  0  0  0  0  0
   18.7886   35.8099   70.3912 C   0  0  0  0  0  0  0  0  0  0  0  0
   21.8529   37.6097   70.7129 Cl  0  0  0  0  0  0  0  0  0  0  0  0
   21.9951   36.2792   69.5839 C   0  0  0  0  0  0  0  0  0  0  0  0
   21.0788   35.2391   69.7108 C   0  0  0  0  0  0  0  0  0  0  0  0
   21.2190   34.2089   68.8058 C   0  0  0  0  0  0  0  0  0  0  0  0
   22.1903   34.2433   67.8767 N   0  0  0  0  0  0  0  0  0  0  0  0
   23.0689   35.2207   67.7394 N   0  0  0  0  0  0  0  0  0  0  0  0
   22.9678   36.2479   68.6038 C   0  0  0  0  0  0  0  0  0  0  0  0
   23.7962   37.1948   68.4929 O   0  0  0  0  0  0  0  0  0  0  0  0
   24.0809   35.1872   66.7245 C   0  0  0  0  0  0  0  0  0  0  0  0
   25.2748   34.5457   66.9609 C   0  0  0  0  0  0  0  0  0  0  0  0
   26.2695   34.5062   65.9775 C   0  0  0  0  0  0  0  0  0  0  0  0
   26.0867   35.1036   64.7513 C   0  0  0  0  0  0  0  0  0  0  0  0
   24.8940   35.7475   64.5057 C   0  0  0  0  0  0  0  0  0  0  0  0
   23.9134   35.7805   65.4915 C   0  0  0  0  0  0  0  0  0  0  0  0
   17.5424   32.4785   71.2328 C   0  0  0  0  0  0  0  0  0  0  0  0
   16.1611   32.6284   71.7026 C   0  0  0  0  0  0  0  0  0  0  0  0
   15.9834   32.5180   72.9629 O   0  0  0  0  0  0  0  0  0  0  0  0
   15.0251   32.8832   70.8969 N   0  0  0  0  0  0  0  0  0  0  0  0
   15.1755   32.9828   69.8728 H   0  0  0  0  0  0  0  0  0  0  0  0
   13.6845   33.0240   71.4065 C   0  0  0  0  0  0  0  0  0  0  0  0
   13.1420   34.3663   71.0240 C   0  0  0  0  0  0  0  0  0  0  0  0
   14.0094   35.3425   71.4362 O   0  0  0  0  0  0  0  0  0  0  0  0
   14.4167   36.1134   70.3821 C   0  0  0  0  0  0  0  0  0  0  0  0
   13.2549   36.0245   69.4152 C   0  0  0  0  0  0  0  0  0  0  0  0
   13.0012   34.5105   69.5154 C   0  0  0  0  0  0  0  0  0  0  0  0
  7  8  1  0  0  0
  8  9  2  0  0  0
  8 13  1  0  0  0
  9 10  1  0  0  0
  9  1  1  0  0  0
 10 11  2  0  0  0
 11 12  1  0  0  0
 12 13  1  0  0  0
 12 15  1  0  0  0
 13 14  2  0  0  0
 15 16  2  0  0  0
 15 20  1  0  0  0
 16 17  1  0  0  0
 17 18  2  0  0  0
 18 19  1  0  0  0
 19 20  2  0  0  0
  1  2  1  0  0  0
  1  6  1  0  0  0
  2  3  1  0  0  0
  3  4  1  0  0  0
  4  5  1  0  0  0
  4 21  1  0  0  0
  5  6  1  0  0  0
 21 22  1  0  0  0
 22 23  2  0  0  0
 22 24  1  0  0  0
 24 26  1  0  0  0
 26 27  1  0  0  0
 27 28  1  0  0  0
 27 31  1  0  0  0
 28 29  1  0  0  0
 29 30  1  0  0  0
 30 31  1  0  0  0
 24 25  1  0  0  0
M  END
> <minimizedAffinity>
-8.38553

$$$$
2284


 33 37  0  0  0  0  0  0  0  0999 V2000
   23.2056   34.6012   69.7007 C   0  0  0  0  0  0  0  0  0  0  0  0
   22.6621   35.8594   69.5335 C   0  0  0  0  0  0  0  0  0  0  0  0
   21.3372   36.1664   69.7116 C   0  0  0  0  0  0  0  0  0  0  0  0
   20.9527   37.3677   69.5275 O   0  0  0  0  0  0  0  0  0  0  0  0
   20.4626   35.1841   70.0813 N   0  0  0  0  0  0  0  0  0  0  0  0
   19.2138   35.3357   70.2790 N   0  0  0  0  0  0  0  0  0  0  0  0
   18.4367   34.3547   70.6311 C   0  0  0  0  0  0  0  0  0  0  0  0
   19.5950   33.0748   70.6899 S   0  0  0  0  0  0  0  0  0  0  0  0
   20.9909   33.9693   70.2425 C   0  0  0  0  0  0  0  0  0  0  0  0
   22.2968   33.6710   70.0652 N   0  0  0  0  0  0  0  0  0  0  0  0
   16.9966   34.2941   70.9087 C   0  0  0  0  0  0  0  0  0  0  0  0
   16.4274   33.0698   71.1861 C   0  0  0  0  0  0  0  0  0  0  0  0
   15.0717   32.9459   71.4569 C   0  0  0  0  0  0  0  0  0  0  0  0
   14.2673   34.0667   71.4519 C   0  0  0  0  0  0  0  0  0  0  0  0
   14.8167   35.3071   71.1761 C   0  0  0  0  0  0  0  0  0  0  0  0
   16.1655   35.3793   70.9129 C   0  0  0  0  0  0  0  0  0  0  0  0
   12.5721   33.9273   71.7886 Cl  0  0  0  0  0  0  0  0  0  0  0  0
   24.6470   34.3228   69.4943 C   0  0  0  0  0  0  0  0  0  0  0  0
   25.8491   34.8324   65.5582 N   0  0  0  0  0  0  0  0  0  0  0  0
   24.8537   33.8875   65.8216 C   0  0  0  0  0  0  0  0  0  0  0  0
   24.9284   33.4111   67.2760 C   0  0  0  0  0  0  0  0  0  0  0  0
   24.9644   34.5387   68.1189 N   0  0  0  0  0  0  0  0  0  0  0  0
   26.0334   35.4285   67.8677 C   0  0  0  0  0  0  0  0  0  0  0  0
   26.7620   35.0218   66.6065 C   0  0  0  0  0  0  0  0  0  0  0  0
   25.6596   35.9832   64.3782 S   0  0  0  0  0  0  0  0  0  0  0  0
   24.9194   35.3557   63.2012 O   0  0  0  0  0  0  0  0  0  0  0  0
   26.9730   36.5508   63.9054 O   0  0  0  0  0  0  0  0  0  0  0  0
   24.6347   37.2907   64.9266 C   0  0  0  0  0  0  0  0  0  0  0  0
   24.6980   38.5945   64.5379 N   0  0  0  0  0  0  0  0  0  0  0  0
   23.7633   39.3096   65.1663 C   0  0  0  0  0  0  0  0  0  0  0  0
   23.0596   38.5099   65.9797 N   0  0  0  0  0  0  0  0  0  0  0  0
   23.5989   37.2692   65.8292 C   0  0  0  0  0  0  0  0  0  0  0  0
   22.2733   38.7833   66.5915 H   0  0  0  0  0  0  0  0  0  0  0  0
 25 26  2  0  0  0
 25 27  2  0  0  0
 25 19  1  0  0  0
 25 28  1  0  0  0
 19 20  1  0  0  0
 19 24  1  0  0  0
 20 21  1  0  0  0
 21 22  1  0  0  0
 22 23  1  0  0  0
 22 18  1  0  0  0
 23 24  1  0  0  0
 18  1  1  0  0  0
  1  2  2  0  0  0
  1 10  1  0  0  0
  2  3  1  0  0  0
  3  4  2  0  0  0
  3  5  1  0  0  0
  5  6  1  0  0  0
  5  9  1  0  0  0
  6  7  2  0  0  0
  7  8  1  0  0  0
  7 11  1  0  0  0
  8  9  1  0  0  0
  9 10  2  0  0  0
 11 12  2  0  0  0
 11 16  1  0  0  0
 12 13  1  0  0  0
 13 14  2  0  0  0
 14 15  1  0  0  0
 14 17  1  0  0  0
 15 16  2  0  0  0
 28 29  1  0  0  0
 28 32  2  0  0  0
 29 30  2  0  0  0
 30 31  1  0  0  0
 31 32  1  0  0  0
 31 33  1  0  0  0
M  END
> <minimizedAffinity>
-9.13021

$$$$
2285


 32 35  0  0  0  0  0  0  0  0999 V2000
   21.7894   36.5221   69.1314 N   0  0  0  0  0  0  0  0  0  0  0  0
   20.9090   37.1805   70.0500 C   0  0  0  0  0  0  0  0  0  0  0  0
   20.9120   36.5750   71.4658 C   0  0  0  0  0  0  0  0  0  0  0  0
   20.6017   35.1879   71.3150 N   0  0  0  0  0  0  0  0  0  0  0  0
   21.7076   34.5589   70.6478 C   0  0  0  0  0  0  0  0  0  0  0  0
   21.5983   35.0319   69.2245 C   0  0  0  0  0  0  0  0  0  0  0  0
   21.1403   36.8778   67.5132 S   0  0  0  0  0  0  0  0  0  0  0  0
   20.8025   35.5459   66.8705 O   0  0  0  0  0  0  0  0  0  0  0  0
   19.9030   37.6882   67.6687 O   0  0  0  0  0  0  0  0  0  0  0  0
   22.2838   37.6983   66.5250 C   0  0  0  0  0  0  0  0  0  0  0  0
   21.9604   39.0271   66.2190 C   0  0  0  0  0  0  0  0  0  0  0  0
   22.8091   39.8819   65.5107 C   0  0  0  0  0  0  0  0  0  0  0  0
   24.0385   39.3837   65.0901 C   0  0  0  0  0  0  0  0  0  0  0  0
   24.3400   38.0688   65.3941 C   0  0  0  0  0  0  0  0  0  0  0  0
   23.4895   37.2294   66.1022 C   0  0  0  0  0  0  0  0  0  0  0  0
   24.8293   40.2842   64.4008 O   0  0  0  0  0  0  0  0  0  0  0  0
   24.8314   41.6612   64.8650 C   0  0  0  0  0  0  0  0  0  0  0  0
   23.4701   42.1598   65.2201 C   0  0  0  0  0  0  0  0  0  0  0  0
   22.4527   41.1883   65.2228 O   0  0  0  0  0  0  0  0  0  0  0  0
   19.8413   34.5524   72.2809 C   0  0  0  0  0  0  0  0  0  0  0  0
   18.5182   34.0616   71.8891 C   0  0  0  0  0  0  0  0  0  0  0  0
   18.5744   32.9306   71.2319 O   0  0  0  0  0  0  0  0  0  0  0  0
   17.2609   34.5549   72.0887 N   0  0  0  0  0  0  0  0  0  0  0  0
   17.0454   35.4888   72.5726 H   0  0  0  0  0  0  0  0  0  0  0  0
   16.0215   33.8665   71.7212 C   0  0  0  0  0  0  0  0  0  0  0  0
   15.1288   34.8194   71.0313 C   0  0  0  0  0  0  0  0  0  0  0  0
   13.8618   34.4134   70.5527 C   0  0  0  0  0  0  0  0  0  0  0  0
   13.0783   35.2041   69.8026 C   0  0  0  0  0  0  0  0  0  0  0  0
   13.5056   36.5233   69.4528 C   0  0  0  0  0  0  0  0  0  0  0  0
   14.7052   36.9197   69.8892 C   0  0  0  0  0  0  0  0  0  0  0  0
   15.5438   36.1140   70.6693 C   0  0  0  0  0  0  0  0  0  0  0  0
   13.2887   32.7852   70.9917 Cl  0  0  0  0  0  0  0  0  0  0  0  0
  7  8  2  0  0  0
  7  9  2  0  0  0
  7  1  1  0  0  0
  7 10  1  0  0  0
  1  2  1  0  0  0
  1  6  1  0  0  0
  2  3  1  0  0  0
  3  4  1  0  0  0
  4  5  1  0  0  0
  4 20  1  0  0  0
  5  6  1  0  0  0
 20 21  1  0  0  0
 21 22  2  0  0  0
 21 23  1  0  0  0
 23 25  1  0  0  0
 25 26  1  0  0  0
 26 27  2  0  0  0
 26 31  1  0  0  0
 27 28  1  0  0  0
 27 32  1  0  0  0
 28 29  2  0  0  0
 29 30  1  0  0  0
 30 31  2  0  0  0
 10 11  2  0  0  0
 10 15  1  0  0  0
 11 12  1  0  0  0
 12 13  2  0  0  0
 12 19  1  0  0  0
 13 14  1  0  0  0
 13 16  1  0  0  0
 14 15  2  0  0  0
 16 17  1  0  0  0
 17 18  1  0  0  0
 18 19  1  0  0  0
 23 24  1  0  0  0
M  END
> <minimizedAffinity>
-9.23022

$$$$
2286


 31 34  0  0  0  0  0  0  0  0999 V2000
   22.8611   35.8663   68.6183 N   0  0  0  0  0  0  0  0  0  0  0  0
   22.6187   36.8626   67.6391 C   0  0  0  0  0  0  0  0  0  0  0  0
   21.1690   37.2408   67.4884 C   0  0  0  0  0  0  0  0  0  0  0  0
   20.4827   37.2940   68.7619 N   0  0  0  0  0  0  0  0  0  0  0  0
   21.3227   37.2454   69.9435 C   0  0  0  0  0  0  0  0  0  0  0  0
   22.2836   36.0830   69.8968 C   0  0  0  0  0  0  0  0  0  0  0  0
   19.0858   37.3864   68.7960 C   0  0  0  0  0  0  0  0  0  0  0  0
   18.4498   37.4230   67.7160 O   0  0  0  0  0  0  0  0  0  0  0  0
   22.7357   34.2560   68.0536 S   0  0  0  0  0  0  0  0  0  0  0  0
   23.5428   34.1077   66.8005 O   0  0  0  0  0  0  0  0  0  0  0  0
   21.3140   33.8965   67.7375 O   0  0  0  0  0  0  0  0  0  0  0  0
   23.2909   33.0939   69.2703 C   0  0  0  0  0  0  0  0  0  0  0  0
   22.3761   32.2439   70.4222 S   0  0  0  0  0  0  0  0  0  0  0  0
   23.6240   31.3680   71.1753 C   0  0  0  0  0  0  0  0  0  0  0  0
   24.7447   31.7673   70.4973 C   0  0  0  0  0  0  0  0  0  0  0  0
   24.5700   32.6675   69.5032 C   0  0  0  0  0  0  0  0  0  0  0  0
   23.5348   30.2083   72.5185 Cl  0  0  0  0  0  0  0  0  0  0  0  0
   18.3225   37.4447   70.0694 C   0  0  0  0  0  0  0  0  0  0  0  0
   17.6088   36.2253   70.3292 N   0  0  0  0  0  0  0  0  0  0  0  0
   16.2150   36.0509   70.1245 C   0  0  0  0  0  0  0  0  0  0  0  0
   15.4265   36.9546   69.6861 O   0  0  0  0  0  0  0  0  0  0  0  0
   15.7948   34.7374   70.4701 N   0  0  0  0  0  0  0  0  0  0  0  0
   16.9170   34.1003   71.1336 C   0  0  0  0  0  0  0  0  0  0  0  0
   17.2060   32.7350   70.5798 C   0  0  0  0  0  0  0  0  0  0  0  0
   16.3766   31.6451   71.1920 C   0  0  0  0  0  0  0  0  0  0  0  0
   16.3766   31.6565   72.6924 C   0  0  0  0  0  0  0  0  0  0  0  0
   17.1413   32.8311   73.2623 C   0  0  0  0  0  0  0  0  0  0  0  0
   16.6084   34.0885   72.6119 C   0  0  0  0  0  0  0  0  0  0  0  0
   18.0744   34.9750   70.8191 C   0  0  0  0  0  0  0  0  0  0  0  0
   19.2886   34.6920   70.9520 O   0  0  0  0  0  0  0  0  0  0  0  0
   14.4779   34.1631   70.1958 C   0  0  0  0  0  0  0  0  0  0  0  0
  9 10  2  0  0  0
  9 11  2  0  0  0
  9  1  1  0  0  0
  9 12  1  0  0  0
  1  2  1  0  0  0
  1  6  1  0  0  0
  2  3  1  0  0  0
  3  4  1  0  0  0
  4  5  1  0  0  0
  4  7  1  0  0  0
  5  6  1  0  0  0
  7  8  2  0  0  0
  7 18  1  0  0  0
 18 19  1  0  0  0
 19 20  1  0  0  0
 19 29  1  0  0  0
 20 21  2  0  0  0
 20 22  1  0  0  0
 22 23  1  0  0  0
 22 31  1  0  0  0
 23 24  1  0  0  0
 23 28  1  0  0  0
 23 29  1  0  0  0
 24 25  1  0  0  0
 25 26  1  0  0  0
 26 27  1  0  0  0
 27 28  1  0  0  0
 29 30  2  0  0  0
 12 13  1  0  0  0
 12 16  2  0  0  0
 13 14  1  0  0  0
 14 15  2  0  0  0
 14 17  1  0  0  0
 15 16  1  0  0  0
M  END
> <minimizedAffinity>
-8.27768

$$$$
2298


 34 37  0  0  0  0  0  0  0  0999 V2000
   19.4633   33.9399   71.0929 C   0  0  0  0  0  0  0  0  0  0  0  0
   17.0468   31.5008   71.8264 N   0  0  0  0  0  0  0  0  0  0  0  0
   17.8718   31.3906   72.9260 C   0  0  0  0  0  0  0  0  0  0  0  0
   18.9598   32.4294   72.8828 C   0  0  0  0  0  0  0  0  0  0  0  0
   19.5878   32.6136   71.6237 N   0  0  0  0  0  0  0  0  0  0  0  0
   19.1875   31.6137   70.6864 C   0  0  0  0  0  0  0  0  0  0  0  0
   17.6664   31.5737   70.5744 C   0  0  0  0  0  0  0  0  0  0  0  0
   15.3884   31.5540   71.9245 S   0  0  0  0  0  0  0  0  0  0  0  0
   14.6981   30.4629   71.1435 O   0  0  0  0  0  0  0  0  0  0  0  0
   14.8473   31.4458   73.3326 O   0  0  0  0  0  0  0  0  0  0  0  0
   14.7979   33.0700   71.2503 C   0  0  0  0  0  0  0  0  0  0  0  0
   13.7137   33.1023   70.4177 C   0  0  0  0  0  0  0  0  0  0  0  0
   13.2503   34.2790   69.8907 C   0  0  0  0  0  0  0  0  0  0  0  0
   13.8974   35.4527   70.2099 C   0  0  0  0  0  0  0  0  0  0  0  0
   14.9939   35.4238   71.0507 C   0  0  0  0  0  0  0  0  0  0  0  0
   15.4485   34.2398   71.5731 C   0  0  0  0  0  0  0  0  0  0  0  0
   13.2800   36.9428   69.5189 Cl  0  0  0  0  0  0  0  0  0  0  0  0
   20.7772   34.4359   70.5608 C   0  0  0  0  0  0  0  0  0  0  0  0
   21.3763   35.2945   71.2442 O   0  0  0  0  0  0  0  0  0  0  0  0
   21.3096   33.9496   69.3403 N   0  0  0  0  0  0  0  0  0  0  0  0
   20.7541   33.2234   68.8140 H   0  0  0  0  0  0  0  0  0  0  0  0
   22.5699   34.4798   68.9080 C   0  0  0  0  0  0  0  0  0  0  0  0
   22.5479   35.3607   67.7186 C   0  0  0  0  0  0  0  0  0  0  0  0
   22.6412   36.8013   68.1580 C   0  0  0  0  0  0  0  0  0  0  0  0
   21.2611   37.4328   68.3674 C   0  0  0  0  0  0  0  0  0  0  0  0
   20.5418   37.5692   67.0401 C   0  0  0  0  0  0  0  0  0  0  0  0
   20.9845   36.4108   66.1652 C   0  0  0  0  0  0  0  0  0  0  0  0
   21.1460   35.2246   67.0924 C   0  0  0  0  0  0  0  0  0  0  0  0
   23.4705   35.1012   66.6813 N   0  0  0  0  0  0  0  0  0  0  0  0
   24.4853   36.0602   66.4239 C   0  0  0  0  0  0  0  0  0  0  0  0
   25.0244   35.7378   65.0181 C   0  0  0  0  0  0  0  0  0  0  0  0
   25.5989   34.4896   65.0081 O   0  0  0  0  0  0  0  0  0  0  0  0
   25.5226   33.8195   66.2030 C   0  0  0  0  0  0  0  0  0  0  0  0
   24.0993   33.8005   66.7615 C   0  0  0  0  0  0  0  0  0  0  0  0
  8  9  2  0  0  0
  8 10  2  0  0  0
  8  2  1  0  0  0
  8 11  1  0  0  0
  2  3  1  0  0  0
  2  7  1  0  0  0
  3  4  1  0  0  0
  4  5  1  0  0  0
  5  6  1  0  0  0
  5  1  1  0  0  0
  6  7  1  0  0  0
  1 18  1  0  0  0
 18 19  2  0  0  0
 18 20  1  0  0  0
 20 22  1  0  0  0
 22 23  1  0  0  0
 23 24  1  0  0  0
 23 28  1  0  0  0
 23 29  1  0  0  0
 24 25  1  0  0  0
 25 26  1  0  0  0
 26 27  1  0  0  0
 27 28  1  0  0  0
 29 30  1  0  0  0
 29 34  1  0  0  0
 30 31  1  0  0  0
 31 32  1  0  0  0
 32 33  1  0  0  0
 33 34  1  0  0  0
 11 12  2  0  0  0
 11 16  1  0  0  0
 12 13  1  0  0  0
 13 14  2  0  0  0
 14 15  1  0  0  0
 14 17  1  0  0  0
 15 16  2  0  0  0
 20 21  1  0  0  0
M  END
> <minimizedAffinity>
-8.89518

$$$$
2301


 24 27  0  0  0  0  0  0  0  0999 V2000
   20.5707   36.3224   70.1117 C   0  0  0  0  0  0  0  0  0  0  0  0
   21.0185   37.0094   68.8641 C   0  0  0  0  0  0  0  0  0  0  0  0
   20.8224   36.0928   67.6438 C   0  0  0  0  0  0  0  0  0  0  0  0
   21.7566   34.9904   67.9146 N   0  0  0  0  0  0  0  0  0  0  0  0
   21.4142   34.1877   69.0458 C   0  0  0  0  0  0  0  0  0  0  0  0
   21.1737   34.9805   70.2973 C   0  0  0  0  0  0  0  0  0  0  0  0
   21.0232   37.1383   71.1801 O   0  0  0  0  0  0  0  0  0  0  0  0
   21.9790   36.8758   71.3566 H   0  0  0  0  0  0  0  0  0  0  0  0
   22.8771   34.8222   67.0659 C   0  0  0  0  0  0  0  0  0  0  0  0
   23.1613   35.7627   66.1487 N   0  0  0  0  0  0  0  0  0  0  0  0
   24.1792   35.7265   65.3113 N   0  0  0  0  0  0  0  0  0  0  0  0
   24.6412   36.5294   64.3490 N   0  0  0  0  0  0  0  0  0  0  0  0
   25.7207   36.0195   63.7997 N   0  0  0  0  0  0  0  0  0  0  0  0
   25.9678   34.8881   64.4009 N   0  0  0  0  0  0  0  0  0  0  0  0
   25.0155   34.6908   65.3455 C   0  0  0  0  0  0  0  0  0  0  0  0
   24.7872   33.6813   66.2650 C   0  0  0  0  0  0  0  0  0  0  0  0
   23.7171   33.7357   67.1327 C   0  0  0  0  0  0  0  0  0  0  0  0
   14.5660   36.1537   70.6548 Cl  0  0  0  0  0  0  0  0  0  0  0  0
   16.3087   36.2245   70.4944 C   0  0  0  0  0  0  0  0  0  0  0  0
   16.9541   37.3094   69.9160 C   0  0  0  0  0  0  0  0  0  0  0  0
   18.3104   37.3959   69.7662 C   0  0  0  0  0  0  0  0  0  0  0  0
   19.1022   36.3730   70.2021 C   0  0  0  0  0  0  0  0  0  0  0  0
   18.4842   35.2702   70.7897 C   0  0  0  0  0  0  0  0  0  0  0  0
   17.1117   35.2008   70.9312 C   0  0  0  0  0  0  0  0  0  0  0  0
 18 19  1  0  0  0
 19 20  2  0  0  0
 19 24  1  0  0  0
 20 21  1  0  0  0
 21 22  2  0  0  0
 22 23  1  0  0  0
 22  1  1  0  0  0
 23 24  2  0  0  0
  1  2  1  0  0  0
  1  6  1  0  0  0
  1  7  1  0  0  0
  2  3  1  0  0  0
  3  4  1  0  0  0
  4  5  1  0  0  0
  4  9  1  0  0  0
  5  6  1  0  0  0
  9 10  2  0  0  0
  9 17  1  0  0  0
 10 11  1  0  0  0
 11 12  1  0  0  0
 11 15  1  0  0  0
 12 13  2  0  0  0
 13 14  1  0  0  0
 14 15  2  0  0  0
 15 16  1  0  0  0
 16 17  2  0  0  0
  7  8  1  0  0  0
M  END
> <minimizedAffinity>
-9.07215

$$$$
2304


 28 31  0  0  0  0  0  0  0  0999 V2000
   20.7702   33.4746   71.5867 N   0  0  0  0  0  0  0  0  0  0  0  0
   20.4564   34.8319   71.8262 C   0  0  0  0  0  0  0  0  0  0  0  0
   21.2350   35.8199   70.9981 C   0  0  0  0  0  0  0  0  0  0  0  0
   21.3718   35.4218   69.6251 N   0  0  0  0  0  0  0  0  0  0  0  0
   21.0083   34.0657   69.2985 C   0  0  0  0  0  0  0  0  0  0  0  0
   21.5384   33.1855   70.4268 C   0  0  0  0  0  0  0  0  0  0  0  0
   21.8469   36.3354   68.6699 C   0  0  0  0  0  0  0  0  0  0  0  0
   22.1469   37.4935   69.0767 O   0  0  0  0  0  0  0  0  0  0  0  0
   22.0154   36.0244   67.2237 C   0  0  0  0  0  0  0  0  0  0  0  0
   23.2879   35.4651   66.9495 N   0  0  0  0  0  0  0  0  0  0  0  0
   24.3327   36.3833   66.6317 C   0  0  0  0  0  0  0  0  0  0  0  0
   23.4472   37.7284   65.8171 S   0  0  0  0  0  0  0  0  0  0  0  0
   21.7656   37.2164   66.3488 C   0  0  0  0  0  0  0  0  0  0  0  0
   25.1104   35.6460   65.5584 C   0  0  0  0  0  0  0  0  0  0  0  0
   25.2147   34.2747   66.2388 C   0  0  0  0  0  0  0  0  0  0  0  0
   23.9117   34.1614   66.8890 C   0  0  0  0  0  0  0  0  0  0  0  0
   23.4359   33.0683   67.3205 O   0  0  0  0  0  0  0  0  0  0  0  0
   25.1893   36.8167   67.7536 C   0  0  0  0  0  0  0  0  0  0  0  0
   19.5484   32.3574   71.9583 S   0  0  0  0  0  0  0  0  0  0  0  0
   19.7106   31.1004   71.1628 O   0  0  0  0  0  0  0  0  0  0  0  0
   19.6833   31.9710   73.4105 O   0  0  0  0  0  0  0  0  0  0  0  0
   17.9280   33.0198   71.7642 C   0  0  0  0  0  0  0  0  0  0  0  0
   17.2804   32.9395   70.5515 C   0  0  0  0  0  0  0  0  0  0  0  0
   16.0162   33.4475   70.3657 C   0  0  0  0  0  0  0  0  0  0  0  0
   15.3322   34.0666   71.3965 C   0  0  0  0  0  0  0  0  0  0  0  0
   16.0091   34.1319   72.6029 C   0  0  0  0  0  0  0  0  0  0  0  0
   17.2705   33.6288   72.8028 C   0  0  0  0  0  0  0  0  0  0  0  0
   13.7219   34.7248   71.1951 Cl  0  0  0  0  0  0  0  0  0  0  0  0
 19 20  2  0  0  0
 19 21  2  0  0  0
 19  1  1  0  0  0
 19 22  1  0  0  0
  1  2  1  0  0  0
  1  6  1  0  0  0
  2  3  1  0  0  0
  3  4  1  0  0  0
  4  5  1  0  0  0
  4  7  1  0  0  0
  5  6  1  0  0  0
  7  8  2  0  0  0
  7  9  1  0  0  0
  9 10  1  0  0  0
  9 13  1  0  0  0
 10 11  1  0  0  0
 10 16  1  0  0  0
 11 12  1  0  0  0
 11 14  1  0  0  0
 11 18  1  0  0  0
 12 13  1  0  0  0
 14 15  1  0  0  0
 15 16  1  0  0  0
 16 17  2  0  0  0
 22 23  2  0  0  0
 22 27  1  0  0  0
 23 24  1  0  0  0
 24 25  2  0  0  0
 25 26  1  0  0  0
 25 28  1  0  0  0
 26 27  2  0  0  0
M  END
> <minimizedAffinity>
-8.40109

$$$$
2319


 33 36  0  0  0  0  0  0  0  0999 V2000
   20.0666   32.7551   72.5100 N   0  0  0  0  0  0  0  0  0  0  0  0
   20.9096   31.9704   71.6920 C   0  0  0  0  0  0  0  0  0  0  0  0
   20.5100   30.8806   71.2321 O   0  0  0  0  0  0  0  0  0  0  0  0
   20.3331   33.6722   72.9272 H   0  0  0  0  0  0  0  0  0  0  0  0
   13.0349   33.9753   70.3611 Br  0  0  0  0  0  0  0  0  0  0  0  0
   14.1513   32.9274   71.5096 C   0  0  0  0  0  0  0  0  0  0  0  0
   15.5206   33.0955   71.5404 C   0  0  0  0  0  0  0  0  0  0  0  0
   16.3378   32.3451   72.3686 C   0  0  0  0  0  0  0  0  0  0  0  0
   15.7126   31.4128   73.1677 C   0  0  0  0  0  0  0  0  0  0  0  0
   14.3501   31.2155   73.1640 C   0  0  0  0  0  0  0  0  0  0  0  0
   13.5463   31.9751   72.3299 C   0  0  0  0  0  0  0  0  0  0  0  0
   13.5455   29.9047   74.2991 Br  0  0  0  0  0  0  0  0  0  0  0  0
   17.7340   32.7228   72.2081 C   0  0  0  0  0  0  0  0  0  0  0  0
   18.7839   32.2721   72.7855 N   0  0  0  0  0  0  0  0  0  0  0  0
   17.7422   33.7880   71.1994 C   0  0  0  0  0  0  0  0  0  0  0  0
   18.7870   34.3670   70.7980 O   0  0  0  0  0  0  0  0  0  0  0  0
   16.3895   33.9728   70.8321 N   0  0  0  0  0  0  0  0  0  0  0  0
   16.0667   34.6620   70.1322 H   0  0  0  0  0  0  0  0  0  0  0  0
   22.3015   32.3934   71.3381 C   0  0  0  0  0  0  0  0  0  0  0  0
   22.3770   33.7967   71.0378 N   0  0  0  0  0  0  0  0  0  0  0  0
   22.1287   34.3232   69.7411 C   0  0  0  0  0  0  0  0  0  0  0  0
   21.8312   33.5266   68.8243 O   0  0  0  0  0  0  0  0  0  0  0  0
   22.6210   34.4981   71.7760 H   0  0  0  0  0  0  0  0  0  0  0  0
   22.2061   35.7783   69.4132 C   0  0  0  0  0  0  0  0  0  0  0  0
   21.0601   36.4664   69.8188 O   0  0  0  0  0  0  0  0  0  0  0  0
   20.1043   36.9994   68.9567 C   0  0  0  0  0  0  0  0  0  0  0  0
   20.4796   37.1866   67.6526 C   0  0  0  0  0  0  0  0  0  0  0  0
   19.5429   37.7200   66.7671 C   0  0  0  0  0  0  0  0  0  0  0  0
   18.2681   38.0617   67.1570 C   0  0  0  0  0  0  0  0  0  0  0  0
   17.9260   37.8587   68.4799 C   0  0  0  0  0  0  0  0  0  0  0  0
   18.8452   37.3329   69.3574 C   0  0  0  0  0  0  0  0  0  0  0  0
   21.7442   36.8507   67.2552 O   0  0  0  0  0  0  0  0  0  0  0  0
   22.5980   36.0257   67.9987 C   0  0  0  0  0  0  0  0  0  0  0  0
  5  6  1  0  0  0
  6  7  2  0  0  0
  6 11  1  0  0  0
  7  8  1  0  0  0
  7 17  1  0  0  0
  8  9  2  0  0  0
  8 13  1  0  0  0
  9 10  1  0  0  0
 10 11  2  0  0  0
 10 12  1  0  0  0
 13 14  2  0  0  0
 13 15  1  0  0  0
 14  1  1  0  0  0
  1  2  1  0  0  0
  2  3  2  0  0  0
  2 19  1  0  0  0
 19 20  1  0  0  0
 20 21  1  0  0  0
 21 22  2  0  0  0
 21 24  1  0  0  0
 24 25  1  0  0  0
 24 33  1  0  0  0
 25 26  1  0  0  0
 26 27  2  0  0  0
 26 31  1  0  0  0
 27 28  1  0  0  0
 27 32  1  0  0  0
 28 29  2  0  0  0
 29 30  1  0  0  0
 30 31  2  0  0  0
 32 33  1  0  0  0
 15 16  2  0  0  0
 15 17  1  0  0  0
  1  4  1  0  0  0
 20 23  1  0  0  0
 17 18  1  0  0  0
M  END
> <minimizedAffinity>
-9.06715

$$$$
2330


 28 31  0  0  0  0  0  0  0  0999 V2000
   20.6072   36.8087   68.8547 C   0  0  0  0  0  0  0  0  0  0  0  0
   21.0458   37.6905   69.6282 O   0  0  0  0  0  0  0  0  0  0  0  0
   19.2562   36.8170   68.5032 N   0  0  0  0  0  0  0  0  0  0  0  0
   18.9852   36.0203   67.8226 H   0  0  0  0  0  0  0  0  0  0  0  0
   20.7893   34.2766   70.4314 Cl  0  0  0  0  0  0  0  0  0  0  0  0
   21.7525   34.5956   68.9966 C   0  0  0  0  0  0  0  0  0  0  0  0
   21.5698   35.8065   68.3616 C   0  0  0  0  0  0  0  0  0  0  0  0
   22.3350   36.0373   67.2384 C   0  0  0  0  0  0  0  0  0  0  0  0
   23.2463   35.1497   66.7287 C   0  0  0  0  0  0  0  0  0  0  0  0
   23.3951   33.9359   67.4089 C   0  0  0  0  0  0  0  0  0  0  0  0
   22.6625   33.6494   68.5307 C   0  0  0  0  0  0  0  0  0  0  0  0
   24.0449   35.4143   65.5406 C   0  0  0  0  0  0  0  0  0  0  0  0
   24.2785   36.5711   64.9138 N   0  0  0  0  0  0  0  0  0  0  0  0
   25.0761   36.3419   63.8580 N   0  0  0  0  0  0  0  0  0  0  0  0
   25.3447   35.0489   63.8172 N   0  0  0  0  0  0  0  0  0  0  0  0
   24.7149   34.4803   64.8476 N   0  0  0  0  0  0  0  0  0  0  0  0
   25.4332   37.0484   63.1745 H   0  0  0  0  0  0  0  0  0  0  0  0
   18.2055   37.6716   68.8794 C   0  0  0  0  0  0  0  0  0  0  0  0
   17.4236   37.4229   70.0974 C   0  0  0  0  0  0  0  0  0  0  0  0
   16.7181   36.1541   70.2563 C   0  0  0  0  0  0  0  0  0  0  0  0
   15.4221   35.9056   70.0396 N   0  0  0  0  0  0  0  0  0  0  0  0
   15.2025   34.6193   70.2607 C   0  0  0  0  0  0  0  0  0  0  0  0
   16.3674   34.0627   70.6177 N   0  0  0  0  0  0  0  0  0  0  0  0
   17.2814   34.9945   70.6136 N   0  0  0  0  0  0  0  0  0  0  0  0
   13.9567   34.0456   70.1214 C   0  0  0  0  0  0  0  0  0  0  0  0
   12.9171   34.8715   69.7349 C   0  0  0  0  0  0  0  0  0  0  0  0
   13.1538   36.2001   69.5089 C   0  0  0  0  0  0  0  0  0  0  0  0
   14.4091   36.7102   69.6623 C   0  0  0  0  0  0  0  0  0  0  0  0
  5  6  1  0  0  0
  6  7  2  0  0  0
  6 11  1  0  0  0
  7  8  1  0  0  0
  7  1  1  0  0  0
  8  9  2  0  0  0
  9 10  1  0  0  0
  9 12  1  0  0  0
 10 11  2  0  0  0
 12 13  2  0  0  0
 12 16  1  0  0  0
 13 14  1  0  0  0
 14 15  1  0  0  0
 15 16  2  0  0  0
  1  2  2  0  0  0
  1  3  1  0  0  0
  3 18  1  0  0  0
 18 19  1  0  0  0
 19 20  1  0  0  0
 20 21  1  0  0  0
 20 24  2  0  0  0
 21 22  1  0  0  0
 21 28  1  0  0  0
 22 23  2  0  0  0
 22 25  1  0  0  0
 23 24  1  0  0  0
 25 26  2  0  0  0
 26 27  1  0  0  0
 27 28  2  0  0  0
 14 17  1  0  0  0
  3  4  1  0  0  0
M  END
> <minimizedAffinity>
-9.08572

$$$$
2334


 30 33  0  0  0  0  0  0  0  0999 V2000
   20.8971   35.6817   70.7614 S   0  0  0  0  0  0  0  0  0  0  0  0
   21.1914   36.8826   71.6635 O   0  0  0  0  0  0  0  0  0  0  0  0
   22.0595   34.7198   71.0335 O   0  0  0  0  0  0  0  0  0  0  0  0
   20.9766   36.1544   69.1168 C   0  0  0  0  0  0  0  0  0  0  0  0
   20.0317   36.9590   68.5288 C   0  0  0  0  0  0  0  0  0  0  0  0
   20.1868   37.3605   67.2104 C   0  0  0  0  0  0  0  0  0  0  0  0
   21.2916   36.9613   66.4532 C   0  0  0  0  0  0  0  0  0  0  0  0
   22.2450   36.1522   67.0293 C   0  0  0  0  0  0  0  0  0  0  0  0
   22.0735   35.7653   68.3376 C   0  0  0  0  0  0  0  0  0  0  0  0
   18.5600   37.4627   69.3323 Cl  0  0  0  0  0  0  0  0  0  0  0  0
   23.4056   35.7198   66.2624 C   0  0  0  0  0  0  0  0  0  0  0  0
   23.4833   35.6329   64.9237 N   0  0  0  0  0  0  0  0  0  0  0  0
   24.6671   35.2110   64.5741 O   0  0  0  0  0  0  0  0  0  0  0  0
   25.3830   35.0141   65.6491 C   0  0  0  0  0  0  0  0  0  0  0  0
   24.6101   35.3263   66.7067 N   0  0  0  0  0  0  0  0  0  0  0  0
   26.8053   34.5283   65.7098 C   0  0  0  0  0  0  0  0  0  0  0  0
   19.4434   35.0089   71.3138 N   0  0  0  0  0  0  0  0  0  0  0  0
   18.8481   34.0142   70.4943 C   0  0  0  0  0  0  0  0  0  0  0  0
   17.5751   33.4447   71.0756 C   0  0  0  0  0  0  0  0  0  0  0  0
   17.8204   32.9136   72.4459 C   0  0  0  0  0  0  0  0  0  0  0  0
   18.5428   33.9244   73.3199 C   0  0  0  0  0  0  0  0  0  0  0  0
   19.7695   34.3837   72.6123 C   0  0  0  0  0  0  0  0  0  0  0  0
   16.4025   34.3337   70.9506 C   0  0  0  0  0  0  0  0  0  0  0  0
   16.6424   35.4797   70.4178 O   0  0  0  0  0  0  0  0  0  0  0  0
   15.0953   34.0701   71.3351 N   0  0  0  0  0  0  0  0  0  0  0  0
   14.0419   35.0122   71.1205 C   0  0  0  0  0  0  0  0  0  0  0  0
   12.7245   34.3777   70.7714 C   0  0  0  0  0  0  0  0  0  0  0  0
   12.5619   33.0945   71.1912 O   0  0  0  0  0  0  0  0  0  0  0  0
   13.6482   32.2547   71.0596 C   0  0  0  0  0  0  0  0  0  0  0  0
   14.7270   32.8376   71.9879 C   0  0  0  0  0  0  0  0  0  0  0  0
  1  2  2  0  0  0
  1  3  2  0  0  0
  1 17  1  0  0  0
  1  4  1  0  0  0
 17 18  1  0  0  0
 17 22  1  0  0  0
 18 19  1  0  0  0
 19 20  1  0  0  0
 19 23  1  0  0  0
 20 21  1  0  0  0
 21 22  1  0  0  0
 23 24  2  0  0  0
 23 25  1  0  0  0
 25 26  1  0  0  0
 25 30  1  0  0  0
 26 27  1  0  0  0
 27 28  1  0  0  0
 28 29  1  0  0  0
 29 30  1  0  0  0
  4  5  2  0  0  0
  4  9  1  0  0  0
  5  6  1  0  0  0
  5 10  1  0  0  0
  6  7  2  0  0  0
  7  8  1  0  0  0
  8  9  2  0  0  0
  8 11  1  0  0  0
 11 12  2  0  0  0
 11 15  1  0  0  0
 12 13  1  0  0  0
 13 14  1  0  0  0
 14 15  2  0  0  0
 14 16  1  0  0  0
M  END
> <minimizedAffinity>
-9.82212

$$$$
2335


 35 38  0  0  0  0  0  0  0  0999 V2000
   18.5340   32.2029   72.1811 N   0  0  0  0  0  0  0  0  0  0  0  0
   19.1257   33.0654   71.2371 C   0  0  0  0  0  0  0  0  0  0  0  0
   20.3821   32.5046   70.6068 C   0  0  0  0  0  0  0  0  0  0  0  0
   21.1147   31.5446   71.4635 C   0  0  0  0  0  0  0  0  0  0  0  0
   20.7769   31.5347   72.9096 C   0  0  0  0  0  0  0  0  0  0  0  0
   19.3223   31.7511   73.2410 C   0  0  0  0  0  0  0  0  0  0  0  0
   21.2894   33.5967   70.1707 C   0  0  0  0  0  0  0  0  0  0  0  0
   21.9455   34.2045   71.0517 O   0  0  0  0  0  0  0  0  0  0  0  0
   21.4047   33.9375   68.7709 N   0  0  0  0  0  0  0  0  0  0  0  0
   20.8197   33.3868   68.1374 H   0  0  0  0  0  0  0  0  0  0  0  0
   22.2911   34.9887   68.4269 C   0  0  0  0  0  0  0  0  0  0  0  0
   23.2839   34.7680   67.3497 C   0  0  0  0  0  0  0  0  0  0  0  0
   23.1618   35.4891   66.1378 N   0  0  0  0  0  0  0  0  0  0  0  0
   24.3069   35.7140   65.3833 C   0  0  0  0  0  0  0  0  0  0  0  0
   24.7551   37.1407   65.2489 C   0  0  0  0  0  0  0  0  0  0  0  0
   23.6945   38.0202   65.0897 O   0  0  0  0  0  0  0  0  0  0  0  0
   22.9410   37.9460   66.2609 C   0  0  0  0  0  0  0  0  0  0  0  0
   22.2487   36.6026   66.2518 C   0  0  0  0  0  0  0  0  0  0  0  0
   16.9644   31.6966   71.9761 S   0  0  0  0  0  0  0  0  0  0  0  0
   16.4354   31.1907   73.3170 O   0  0  0  0  0  0  0  0  0  0  0  0
   16.9703   30.4477   71.1032 O   0  0  0  0  0  0  0  0  0  0  0  0
   15.8622   32.8315   71.2885 C   0  0  0  0  0  0  0  0  0  0  0  0
   16.2640   34.1364   71.0476 C   0  0  0  0  0  0  0  0  0  0  0  0
   15.4299   35.0746   70.4895 C   0  0  0  0  0  0  0  0  0  0  0  0
   14.1238   34.7009   70.1518 C   0  0  0  0  0  0  0  0  0  0  0  0
   13.7401   33.4223   70.3917 C   0  0  0  0  0  0  0  0  0  0  0  0
   14.5827   32.4776   70.9538 C   0  0  0  0  0  0  0  0  0  0  0  0
   13.9226   30.6888   71.2526 Br  0  0  0  0  0  0  0  0  0  0  0  0
   13.3900   35.8555   69.5665 C   0  0  0  0  0  0  0  0  0  0  0  0
   14.1949   37.0261   70.0930 C   0  0  0  0  0  0  0  0  0  0  0  0
   15.5408   36.4418   70.1199 N   0  0  0  0  0  0  0  0  0  0  0  0
   16.6942   37.1634   69.8192 C   0  0  0  0  0  0  0  0  0  0  0  0
   16.5997   38.3865   69.4560 O   0  0  0  0  0  0  0  0  0  0  0  0
   18.0458   36.6121   69.8876 C   0  0  0  0  0  0  0  0  0  0  0  0
   18.9683   37.2266   68.8377 C   0  0  0  0  0  0  0  0  0  0  0  0
 19 20  2  0  0  0
 19 21  2  0  0  0
 19  1  1  0  0  0
 19 22  1  0  0  0
  1  2  1  0  0  0
  1  6  1  0  0  0
  2  3  1  0  0  0
  3  4  1  0  0  0
  3  7  1  0  0  0
  4  5  1  0  0  0
  5  6  1  0  0  0
  7  8  2  0  0  0
  7  9  1  0  0  0
  9 11  1  0  0  0
 11 12  1  0  0  0
 12 13  1  0  0  0
 13 14  1  0  0  0
 13 18  1  0  0  0
 14 15  1  0  0  0
 15 16  1  0  0  0
 16 17  1  0  0  0
 17 18  1  0  0  0
 22 23  2  0  0  0
 22 27  1  0  0  0
 23 24  1  0  0  0
 24 25  2  0  0  0
 24 31  1  0  0  0
 25 26  1  0  0  0
 25 29  1  0  0  0
 26 27  2  0  0  0
 27 28  1  0  0  0
 29 30  1  0  0  0
 30 31  1  0  0  0
 31 32  1  0  0  0
 32 33  2  0  0  0
 32 34  1  0  0  0
 34 35  1  0  0  0
  9 10  1  0  0  0
M  END
> <minimizedAffinity>
-9.41325

$$$$
2345


 27 30  0  0  0  0  0  0  0  0999 V2000
   18.8528   37.3210   68.7604 C   0  0  0  0  0  0  0  0  0  0  0  0
   18.2264   37.2581   67.6373 O   0  0  0  0  0  0  0  0  0  0  0  0
   20.2438   37.1865   68.6997 N   0  0  0  0  0  0  0  0  0  0  0  0
   20.9045   36.9759   67.4217 C   0  0  0  0  0  0  0  0  0  0  0  0
   21.7287   35.6926   67.4503 C   0  0  0  0  0  0  0  0  0  0  0  0
   22.2760   35.5192   68.7634 N   0  0  0  0  0  0  0  0  0  0  0  0
   22.4929   36.6768   69.5766 C   0  0  0  0  0  0  0  0  0  0  0  0
   21.0912   37.2486   69.8668 C   0  0  0  0  0  0  0  0  0  0  0  0
   16.3907   35.9802   70.6942 N   0  0  0  0  0  0  0  0  0  0  0  0
   17.8111   36.2925   70.7947 C   0  0  0  0  0  0  0  0  0  0  0  0
   18.0353   37.5242   69.9625 C   0  0  0  0  0  0  0  0  0  0  0  0
   16.7005   38.1533   69.7402 C   0  0  0  0  0  0  0  0  0  0  0  0
   15.7442   37.2393   70.4072 C   0  0  0  0  0  0  0  0  0  0  0  0
   14.5248   37.4306   70.7236 O   0  0  0  0  0  0  0  0  0  0  0  0
   13.7205   30.6505   71.3555 Cl  0  0  0  0  0  0  0  0  0  0  0  0
   14.5027   32.2182   71.1556 C   0  0  0  0  0  0  0  0  0  0  0  0
   14.0430   33.1183   70.2314 C   0  0  0  0  0  0  0  0  0  0  0  0
   14.6654   34.3441   70.0850 C   0  0  0  0  0  0  0  0  0  0  0  0
   15.7542   34.7152   70.8444 C   0  0  0  0  0  0  0  0  0  0  0  0
   16.2053   33.7995   71.7713 C   0  0  0  0  0  0  0  0  0  0  0  0
   15.5811   32.5535   71.9266 C   0  0  0  0  0  0  0  0  0  0  0  0
   22.5896   34.2340   69.2544 C   0  0  0  0  0  0  0  0  0  0  0  0
   21.7354   33.3624   69.8587 N   0  0  0  0  0  0  0  0  0  0  0  0
   22.4047   32.2463   70.1763 C   0  0  0  0  0  0  0  0  0  0  0  0
   23.7103   32.3987   69.7734 C   0  0  0  0  0  0  0  0  0  0  0  0
   23.7786   33.6001   69.2277 N   0  0  0  0  0  0  0  0  0  0  0  0
   20.3115   33.6106   70.1211 C   0  0  0  0  0  0  0  0  0  0  0  0
 15 16  1  0  0  0
 16 17  2  0  0  0
 16 21  1  0  0  0
 17 18  1  0  0  0
 18 19  2  0  0  0
 19 20  1  0  0  0
 19  9  1  0  0  0
 20 21  2  0  0  0
  9 10  1  0  0  0
  9 13  1  0  0  0
 10 11  1  0  0  0
 11 12  1  0  0  0
 11  1  1  0  0  0
 12 13  1  0  0  0
 13 14  2  0  0  0
  1  2  2  0  0  0
  1  3  1  0  0  0
  3  4  1  0  0  0
  3  8  1  0  0  0
  4  5  1  0  0  0
  5  6  1  0  0  0
  6  7  1  0  0  0
  6 22  1  0  0  0
  7  8  1  0  0  0
 22 23  1  0  0  0
 22 26  2  0  0  0
 23 24  1  0  0  0
 23 27  1  0  0  0
 24 25  2  0  0  0
 25 26  1  0  0  0
M  END
> <minimizedAffinity>
-8.26020

$$$$
2349


 28 31  0  0  0  0  0  0  0  0999 V2000
   21.4522   35.3324   69.0643 N   0  0  0  0  0  0  0  0  0  0  0  0
   21.2505   36.7229   68.7726 C   0  0  0  0  0  0  0  0  0  0  0  0
   22.1043   37.3257   68.0631 O   0  0  0  0  0  0  0  0  0  0  0  0
   20.0871   37.3264   69.3114 N   0  0  0  0  0  0  0  0  0  0  0  0
   19.2302   36.7442   70.0270 C   0  0  0  0  0  0  0  0  0  0  0  0
   19.2770   35.3033   70.4543 C   0  0  0  0  0  0  0  0  0  0  0  0
   19.4520   35.3576   71.9458 C   0  0  0  0  0  0  0  0  0  0  0  0
   19.0220   34.2393   72.6922 N   0  0  0  0  0  0  0  0  0  0  0  0
   17.8077   33.6419   72.2794 C   0  0  0  0  0  0  0  0  0  0  0  0
   17.3401   33.8488   71.0215 C   0  0  0  0  0  0  0  0  0  0  0  0
   16.1426   33.2428   70.6512 C   0  0  0  0  0  0  0  0  0  0  0  0
   15.4606   32.4548   71.5560 C   0  0  0  0  0  0  0  0  0  0  0  0
   15.9387   32.2450   72.8406 C   0  0  0  0  0  0  0  0  0  0  0  0
   17.1386   32.8573   73.1980 C   0  0  0  0  0  0  0  0  0  0  0  0
   14.1650   31.7982   71.1915 C   0  0  0  0  0  0  0  0  0  0  0  0
   18.0166   34.6752   69.9981 C   0  0  0  0  0  0  0  0  0  0  0  0
   20.0256   33.2092   72.9106 C   0  0  0  0  0  0  0  0  0  0  0  0
   20.4770   34.6730   69.8517 C   0  0  0  0  0  0  0  0  0  0  0  0
   20.7059   33.4216   70.0206 O   0  0  0  0  0  0  0  0  0  0  0  0
   18.1070   37.4469   70.5017 O   0  0  0  0  0  0  0  0  0  0  0  0
   18.8120   34.5961   73.6795 H   0  0  0  0  0  0  0  0  0  0  0  0
   26.5119   32.7741   67.0410 Cl  0  0  0  0  0  0  0  0  0  0  0  0
   25.0271   33.5199   67.6019 C   0  0  0  0  0  0  0  0  0  0  0  0
   24.9676   34.1401   68.8503 C   0  0  0  0  0  0  0  0  0  0  0  0
   23.8152   34.7201   69.3074 C   0  0  0  0  0  0  0  0  0  0  0  0
   22.6313   34.7320   68.5671 C   0  0  0  0  0  0  0  0  0  0  0  0
   22.7014   34.1149   67.3289 C   0  0  0  0  0  0  0  0  0  0  0  0
   23.8571   33.5315   66.8679 C   0  0  0  0  0  0  0  0  0  0  0  0
 22 23  1  0  0  0
 23 24  2  0  0  0
 23 28  1  0  0  0
 24 25  1  0  0  0
 25 26  2  0  0  0
 26 27  1  0  0  0
 26  1  1  0  0  0
 27 28  2  0  0  0
  1  2  1  0  0  0
  1 18  1  0  0  0
  2  3  2  0  0  0
  2  4  1  0  0  0
  4  5  2  0  0  0
  5  6  1  0  0  0
  5 20  1  0  0  0
  6  7  1  0  0  0
  6 16  1  0  0  0
  6 18  1  0  0  0
  7  8  1  0  0  0
  8  9  1  0  0  0
  8 17  1  0  0  0
  9 10  2  0  0  0
  9 14  1  0  0  0
 10 11  1  0  0  0
 10 16  1  0  0  0
 11 12  2  0  0  0
 12 13  1  0  0  0
 12 15  1  0  0  0
 13 14  2  0  0  0
 18 19  2  0  0  0
  8 21  1  0  0  0
M  CHG 1   8   1
M  CHG 1  20  -1
M  END
> <minimizedAffinity>
-8.08889

$$$$
2350


 23 26  0  0  0  0  0  0  0  0999 V2000
   17.8673   34.7871   71.5381 N   0  0  0  0  0  0  0  0  0  0  0  0
   18.3055   34.2346   72.7901 C   0  0  0  0  0  0  0  0  0  0  0  0
   17.5208   33.9347   73.7246 O   0  0  0  0  0  0  0  0  0  0  0  0
   19.7814   34.0787   72.8080 C   0  0  0  0  0  0  0  0  0  0  0  0
   20.2359   32.6585   72.9041 C   0  0  0  0  0  0  0  0  0  0  0  0
   19.1878   31.8017   72.2254 C   0  0  0  0  0  0  0  0  0  0  0  0
   19.3067   32.2693   70.7757 C   0  0  0  0  0  0  0  0  0  0  0  0
   20.4805   33.2201   70.7391 C   0  0  0  0  0  0  0  0  0  0  0  0
   20.2021   34.5314   71.4040 C   0  0  0  0  0  0  0  0  0  0  0  0
   19.0248   35.2516   70.8617 C   0  0  0  0  0  0  0  0  0  0  0  0
   19.0815   36.1205   69.9573 O   0  0  0  0  0  0  0  0  0  0  0  0
   21.3427   32.5627   71.8406 C   0  0  0  0  0  0  0  0  0  0  0  0
   19.6432   31.2093   69.9364 O   0  0  0  0  0  0  0  0  0  0  0  0
   19.6145   30.4923   72.2767 O   0  0  0  0  0  0  0  0  0  0  0  0
   18.7841   30.8218   69.5902 H   0  0  0  0  0  0  0  0  0  0  0  0
   19.9686   30.2020   73.1491 H   0  0  0  0  0  0  0  0  0  0  0  0
   12.3112   35.0909   69.3070 Cl  0  0  0  0  0  0  0  0  0  0  0  0
   13.9426   35.0168   69.9697 C   0  0  0  0  0  0  0  0  0  0  0  0
   14.5852   33.8021   70.1152 C   0  0  0  0  0  0  0  0  0  0  0  0
   15.8583   33.7213   70.6266 C   0  0  0  0  0  0  0  0  0  0  0  0
   16.5480   34.8753   71.0179 C   0  0  0  0  0  0  0  0  0  0  0  0
   15.8772   36.0653   70.8585 C   0  0  0  0  0  0  0  0  0  0  0  0
   14.6050   36.1754   70.3498 C   0  0  0  0  0  0  0  0  0  0  0  0
 17 18  1  0  0  0
 18 19  2  0  0  0
 18 23  1  0  0  0
 19 20  1  0  0  0
 20 21  2  0  0  0
 21 22  1  0  0  0
 21  1  1  0  0  0
 22 23  2  0  0  0
  1  2  1  0  0  0
  1 10  1  0  0  0
  2  3  2  0  0  0
  2  4  1  0  0  0
  4  5  1  0  0  0
  4  9  1  0  0  0
  5  6  1  0  0  0
  5 12  1  0  0  0
  6  7  1  0  0  0
  6 14  1  0  0  0
  7  8  1  0  0  0
  7 13  1  0  0  0
  8  9  1  0  0  0
  8 12  1  0  0  0
  9 10  1  0  0  0
 10 11  2  0  0  0
 13 15  1  0  0  0
 14 16  1  0  0  0
M  END
> <minimizedAffinity>
-8.06203

$$$$
2357


 36 39  0  0  0  0  0  0  0  0999 V2000
   19.8982   33.0824   71.1485 C   0  0  0  0  0  0  0  0  0  0  0  0
   18.8986   33.1822   72.0027 C   0  0  0  0  0  0  0  0  0  0  0  0
   17.6380   32.7266   71.3647 C   0  0  0  0  0  0  0  0  0  0  0  0
   18.1094   31.9483   70.2534 N   0  0  0  0  0  0  0  0  0  0  0  0
   19.3361   32.5584   69.9503 N   0  0  0  0  0  0  0  0  0  0  0  0
   17.4688   31.8809   69.4644 H   0  0  0  0  0  0  0  0  0  0  0  0
   19.7511   32.6089   68.9986 H   0  0  0  0  0  0  0  0  0  0  0  0
   22.0522   34.6878   69.2827 N   0  0  0  0  0  0  0  0  0  0  0  0
   22.5669   33.4740   68.7541 C   0  0  0  0  0  0  0  0  0  0  0  0
   22.9484   33.4868   67.5319 O   0  0  0  0  0  0  0  0  0  0  0  0
   22.6480   32.3241   69.5455 N   0  0  0  0  0  0  0  0  0  0  0  0
   22.2191   32.3418   70.8925 C   0  0  0  0  0  0  0  0  0  0  0  0
   22.5702   31.4446   71.6828 O   0  0  0  0  0  0  0  0  0  0  0  0
   21.3432   33.4339   71.3726 C   0  0  0  0  0  0  0  0  0  0  0  0
   21.6251   34.6897   70.6368 C   0  0  0  0  0  0  0  0  0  0  0  0
   21.4821   35.7730   71.2295 O   0  0  0  0  0  0  0  0  0  0  0  0
   23.0421   31.4456   69.1000 H   0  0  0  0  0  0  0  0  0  0  0  0
   21.8011   39.5652   65.8264 Cl  0  0  0  0  0  0  0  0  0  0  0  0
   21.8757   38.1238   66.8489 C   0  0  0  0  0  0  0  0  0  0  0  0
   23.0575   37.7255   67.4212 C   0  0  0  0  0  0  0  0  0  0  0  0
   23.0971   36.5982   68.2166 C   0  0  0  0  0  0  0  0  0  0  0  0
   21.9777   35.8454   68.4618 C   0  0  0  0  0  0  0  0  0  0  0  0
   20.8007   36.2420   67.8910 C   0  0  0  0  0  0  0  0  0  0  0  0
   20.7410   37.3840   67.0814 C   0  0  0  0  0  0  0  0  0  0  0  0
   16.8492   33.8974   70.9994 C   0  0  0  0  0  0  0  0  0  0  0  0
   15.4773   33.7743   70.9453 C   0  0  0  0  0  0  0  0  0  0  0  0
   14.6437   34.8229   70.6132 C   0  0  0  0  0  0  0  0  0  0  0  0
   15.2357   36.0585   70.3205 C   0  0  0  0  0  0  0  0  0  0  0  0
   16.6022   36.2306   70.3599 C   0  0  0  0  0  0  0  0  0  0  0  0
   17.3726   35.1366   70.7006 C   0  0  0  0  0  0  0  0  0  0  0  0
   14.4466   37.1351   69.9838 O   0  0  0  0  0  0  0  0  0  0  0  0
   13.4418   37.0311   69.9491 H   0  0  0  0  0  0  0  0  0  0  0  0
   17.1277   37.4531   70.0651 O   0  0  0  0  0  0  0  0  0  0  0  0
   17.5361   37.9058   68.8072 C   0  0  0  0  0  0  0  0  0  0  0  0
   13.2606   34.7095   70.5567 O   0  0  0  0  0  0  0  0  0  0  0  0
   12.6593   33.7910   71.4464 C   0  0  0  0  0  0  0  0  0  0  0  0
 18 19  1  0  0  0
 19 20  2  0  0  0
 19 24  1  0  0  0
 20 21  1  0  0  0
 21 22  2  0  0  0
 22 23  1  0  0  0
 22  8  1  0  0  0
 23 24  2  0  0  0
  8  9  1  0  0  0
  8 15  1  0  0  0
  9 10  2  0  0  0
  9 11  1  0  0  0
 11 12  1  0  0  0
 12 13  2  0  0  0
 12 14  1  0  0  0
 14 15  1  0  0  0
 14  1  1  0  0  0
 15 16  2  0  0  0
  1  2  2  0  0  0
  1  5  1  0  0  0
  2  3  1  0  0  0
  3  4  1  0  0  0
  3 25  1  0  0  0
  4  5  1  0  0  0
 25 26  2  0  0  0
 25 30  1  0  0  0
 26 27  1  0  0  0
 27 28  2  0  0  0
 27 35  1  0  0  0
 28 29  1  0  0  0
 28 31  1  0  0  0
 29 30  2  0  0  0
 29 33  1  0  0  0
 33 34  1  0  0  0
 35 36  1  0  0  0
 11 17  1  0  0  0
  4  6  1  0  0  0
  5  7  1  0  0  0
 31 32  1  0  0  0
M  END
> <minimizedAffinity>
-9.11053

$$$$
2358


 34 37  0  0  0  0  0  0  0  0999 V2000
   16.5352   32.1917   71.8675 N   0  0  0  0  0  0  0  0  0  0  0  0
   15.5839   31.3654   71.2112 C   0  0  0  0  0  0  0  0  0  0  0  0
   15.9753   30.2537   70.7486 O   0  0  0  0  0  0  0  0  0  0  0  0
   14.2341   31.7591   71.0699 N   0  0  0  0  0  0  0  0  0  0  0  0
   13.7897   32.9995   71.5839 C   0  0  0  0  0  0  0  0  0  0  0  0
   12.5447   33.2960   71.6273 O   0  0  0  0  0  0  0  0  0  0  0  0
   14.7295   33.9994   72.0899 C   0  0  0  0  0  0  0  0  0  0  0  0
   16.0536   33.4296   72.3703 C   0  0  0  0  0  0  0  0  0  0  0  0
   16.8631   34.0723   73.1244 O   0  0  0  0  0  0  0  0  0  0  0  0
   13.5446   31.1320   70.5793 H   0  0  0  0  0  0  0  0  0  0  0  0
   22.2678   30.6602   72.4905 Cl  0  0  0  0  0  0  0  0  0  0  0  0
   20.5786   31.1015   72.3239 C   0  0  0  0  0  0  0  0  0  0  0  0
   19.6385   30.6989   73.2612 C   0  0  0  0  0  0  0  0  0  0  0  0
   18.3337   31.0573   73.1037 C   0  0  0  0  0  0  0  0  0  0  0  0
   17.8982   31.8210   72.0275 C   0  0  0  0  0  0  0  0  0  0  0  0
   18.8347   32.2184   71.0994 C   0  0  0  0  0  0  0  0  0  0  0  0
   20.1785   31.8638   71.2385 C   0  0  0  0  0  0  0  0  0  0  0  0
   14.8017   35.1609   71.1546 C   0  0  0  0  0  0  0  0  0  0  0  0
   15.1550   36.3907   71.4183 C   0  0  0  0  0  0  0  0  0  0  0  0
   15.0591   37.1557   70.1509 C   0  0  0  0  0  0  0  0  0  0  0  0
   14.2123   36.3355   69.3114 N   0  0  0  0  0  0  0  0  0  0  0  0
   14.4693   35.0406   69.7758 N   0  0  0  0  0  0  0  0  0  0  0  0
   13.2021   36.5909   69.4196 H   0  0  0  0  0  0  0  0  0  0  0  0
   14.4117   34.1803   69.1716 H   0  0  0  0  0  0  0  0  0  0  0  0
   16.4032   37.3142   69.5300 C   0  0  0  0  0  0  0  0  0  0  0  0
   16.6108   38.0936   68.4150 C   0  0  0  0  0  0  0  0  0  0  0  0
   17.8544   38.2463   67.8301 C   0  0  0  0  0  0  0  0  0  0  0  0
   18.9487   37.6049   68.3641 C   0  0  0  0  0  0  0  0  0  0  0  0
   18.7626   36.8231   69.4773 C   0  0  0  0  0  0  0  0  0  0  0  0
   17.5194   36.6774   70.0521 C   0  0  0  0  0  0  0  0  0  0  0  0
   18.0002   39.0428   66.7106 O   0  0  0  0  0  0  0  0  0  0  0  0
   17.2188   39.5182   66.3051 H   0  0  0  0  0  0  0  0  0  0  0  0
   20.1995   37.7437   67.7962 O   0  0  0  0  0  0  0  0  0  0  0  0
   20.6579   36.7794   66.8765 C   0  0  0  0  0  0  0  0  0  0  0  0
 11 12  1  0  0  0
 12 13  2  0  0  0
 12 17  1  0  0  0
 13 14  1  0  0  0
 14 15  2  0  0  0
 15 16  1  0  0  0
 15  1  1  0  0  0
 16 17  2  0  0  0
  1  2  1  0  0  0
  1  8  1  0  0  0
  2  3  2  0  0  0
  2  4  1  0  0  0
  4  5  1  0  0  0
  5  6  2  0  0  0
  5  7  1  0  0  0
  7  8  1  0  0  0
  7 18  1  0  0  0
  8  9  2  0  0  0
 18 19  2  0  0  0
 18 22  1  0  0  0
 19 20  1  0  0  0
 20 21  1  0  0  0
 20 25  1  0  0  0
 21 22  1  0  0  0
 25 26  2  0  0  0
 25 30  1  0  0  0
 26 27  1  0  0  0
 27 28  2  0  0  0
 27 31  1  0  0  0
 28 29  1  0  0  0
 28 33  1  0  0  0
 29 30  2  0  0  0
 33 34  1  0  0  0
  4 10  1  0  0  0
 21 23  1  0  0  0
 22 24  1  0  0  0
 31 32  1  0  0  0
M  END
> <minimizedAffinity>
-9.10186

$$$$
2359


 32 35  0  0  0  0  0  0  0  0999 V2000
   22.1002   34.4373   69.0611 N   0  0  0  0  0  0  0  0  0  0  0  0
   22.7255   33.1445   69.0962 C   0  0  0  0  0  0  0  0  0  0  0  0
   23.7963   32.9098   68.4558 O   0  0  0  0  0  0  0  0  0  0  0  0
   22.0874   32.1479   69.8805 N   0  0  0  0  0  0  0  0  0  0  0  0
   20.8686   32.4428   70.5994 C   0  0  0  0  0  0  0  0  0  0  0  0
   20.6154   31.7327   71.5807 O   0  0  0  0  0  0  0  0  0  0  0  0
   20.0220   33.5300   70.1478 C   0  0  0  0  0  0  0  0  0  0  0  0
   20.9043   34.6794   69.7852 C   0  0  0  0  0  0  0  0  0  0  0  0
   20.6541   35.8748   70.0838 O   0  0  0  0  0  0  0  0  0  0  0  0
   22.5227   31.2095   69.9189 H   0  0  0  0  0  0  0  0  0  0  0  0
   24.7234   38.6405   65.6823 Cl  0  0  0  0  0  0  0  0  0  0  0  0
   23.9923   37.4321   66.6980 C   0  0  0  0  0  0  0  0  0  0  0  0
   22.9201   36.7108   66.1915 C   0  0  0  0  0  0  0  0  0  0  0  0
   22.3234   35.7452   66.9802 C   0  0  0  0  0  0  0  0  0  0  0  0
   22.7445   35.4562   68.2636 C   0  0  0  0  0  0  0  0  0  0  0  0
   23.8131   36.1843   68.7495 C   0  0  0  0  0  0  0  0  0  0  0  0
   24.4351   37.1583   67.9897 C   0  0  0  0  0  0  0  0  0  0  0  0
   18.9085   33.9144   70.9848 C   0  0  0  0  0  0  0  0  0  0  0  0
   17.7086   34.3194   70.6372 C   0  0  0  0  0  0  0  0  0  0  0  0
   16.8720   34.6110   71.8272 C   0  0  0  0  0  0  0  0  0  0  0  0
   17.6575   34.0646   72.9095 N   0  0  0  0  0  0  0  0  0  0  0  0
   18.9563   33.9197   72.4271 N   0  0  0  0  0  0  0  0  0  0  0  0
   17.2592   33.1813   73.2949 H   0  0  0  0  0  0  0  0  0  0  0  0
   19.7838   33.8362   73.0542 H   0  0  0  0  0  0  0  0  0  0  0  0
   15.5817   33.9121   71.8116 C   0  0  0  0  0  0  0  0  0  0  0  0
   14.4827   34.5798   71.2929 C   0  0  0  0  0  0  0  0  0  0  0  0
   13.2592   33.9530   71.2626 C   0  0  0  0  0  0  0  0  0  0  0  0
   13.0917   32.6723   71.7352 C   0  0  0  0  0  0  0  0  0  0  0  0
   14.1714   31.9967   72.2534 C   0  0  0  0  0  0  0  0  0  0  0  0
   15.4109   32.6364   72.2830 C   0  0  0  0  0  0  0  0  0  0  0  0
   12.1412   34.6164   70.7399 O   0  0  0  0  0  0  0  0  0  0  0  0
   12.2467   35.5524   70.3897 H   0  0  0  0  0  0  0  0  0  0  0  0
 11 12  1  0  0  0
 12 13  2  0  0  0
 12 17  1  0  0  0
 13 14  1  0  0  0
 14 15  2  0  0  0
 15 16  1  0  0  0
 15  1  1  0  0  0
 16 17  2  0  0  0
  1  2  1  0  0  0
  1  8  1  0  0  0
  2  3  2  0  0  0
  2  4  1  0  0  0
  4  5  1  0  0  0
  5  6  2  0  0  0
  5  7  1  0  0  0
  7  8  1  0  0  0
  7 18  1  0  0  0
  8  9  2  0  0  0
 18 19  2  0  0  0
 18 22  1  0  0  0
 19 20  1  0  0  0
 20 21  1  0  0  0
 20 25  1  0  0  0
 21 22  1  0  0  0
 25 26  2  0  0  0
 25 30  1  0  0  0
 26 27  1  0  0  0
 27 28  2  0  0  0
 27 31  1  0  0  0
 28 29  1  0  0  0
 29 30  2  0  0  0
  4 10  1  0  0  0
 21 23  1  0  0  0
 22 24  1  0  0  0
 31 32  1  0  0  0
M  END
> <minimizedAffinity>
-9.19154

$$$$
2361


 30 33  0  0  0  0  0  0  0  0999 V2000
   18.3851   32.9257   71.3581 N   0  0  0  0  0  0  0  0  0  0  0  0
   18.9136   31.9571   70.4710 C   0  0  0  0  0  0  0  0  0  0  0  0
   18.1572   31.3537   69.6697 O   0  0  0  0  0  0  0  0  0  0  0  0
   20.3247   31.6809   70.5043 N   0  0  0  0  0  0  0  0  0  0  0  0
   21.1822   32.3621   71.4096 C   0  0  0  0  0  0  0  0  0  0  0  0
   22.3165   31.8855   71.6637 O   0  0  0  0  0  0  0  0  0  0  0  0
   20.7262   33.6144   72.0339 C   0  0  0  0  0  0  0  0  0  0  0  0
   19.2689   33.5853   72.2477 C   0  0  0  0  0  0  0  0  0  0  0  0
   18.7671   34.1731   73.2676 O   0  0  0  0  0  0  0  0  0  0  0  0
   20.7562   30.9756   69.8691 H   0  0  0  0  0  0  0  0  0  0  0  0
   12.5102   34.2477   71.3381 Cl  0  0  0  0  0  0  0  0  0  0  0  0
   14.2212   33.8557   71.3475 C   0  0  0  0  0  0  0  0  0  0  0  0
   14.6934   32.7296   71.9877 C   0  0  0  0  0  0  0  0  0  0  0  0
   16.0493   32.4236   71.9937 C   0  0  0  0  0  0  0  0  0  0  0  0
   16.9699   33.2313   71.3617 C   0  0  0  0  0  0  0  0  0  0  0  0
   16.4942   34.3549   70.7228 C   0  0  0  0  0  0  0  0  0  0  0  0
   15.1453   34.6602   70.7158 C   0  0  0  0  0  0  0  0  0  0  0  0
   21.0997   34.7994   71.1910 C   0  0  0  0  0  0  0  0  0  0  0  0
   20.8086   36.0592   71.3859 C   0  0  0  0  0  0  0  0  0  0  0  0
   21.3850   36.8636   70.2971 C   0  0  0  0  0  0  0  0  0  0  0  0
   22.3239   35.9770   69.6697 N   0  0  0  0  0  0  0  0  0  0  0  0
   21.8701   34.6917   70.0055 N   0  0  0  0  0  0  0  0  0  0  0  0
   23.2863   36.1347   69.9830 H   0  0  0  0  0  0  0  0  0  0  0  0
   22.1032   33.8501   69.4305 H   0  0  0  0  0  0  0  0  0  0  0  0
   20.2780   37.1841   69.3598 C   0  0  0  0  0  0  0  0  0  0  0  0
   20.5416   37.4200   68.0318 C   0  0  0  0  0  0  0  0  0  0  0  0
   19.5316   37.7149   67.1674 N   0  0  0  0  0  0  0  0  0  0  0  0
   18.2485   37.7905   67.5559 C   0  0  0  0  0  0  0  0  0  0  0  0
   17.9490   37.5600   68.8795 C   0  0  0  0  0  0  0  0  0  0  0  0
   18.9774   37.2550   69.7828 C   0  0  0  0  0  0  0  0  0  0  0  0
 11 12  1  0  0  0
 12 13  2  0  0  0
 12 17  1  0  0  0
 13 14  1  0  0  0
 14 15  2  0  0  0
 15 16  1  0  0  0
 15  1  1  0  0  0
 16 17  2  0  0  0
  1  2  1  0  0  0
  1  8  1  0  0  0
  2  3  2  0  0  0
  2  4  1  0  0  0
  4  5  1  0  0  0
  5  6  2  0  0  0
  5  7  1  0  0  0
  7  8  1  0  0  0
  7 18  1  0  0  0
  8  9  2  0  0  0
 18 19  2  0  0  0
 18 22  1  0  0  0
 19 20  1  0  0  0
 20 21  1  0  0  0
 20 25  1  0  0  0
 21 22  1  0  0  0
 25 26  2  0  0  0
 25 30  1  0  0  0
 26 27  1  0  0  0
 27 28  2  0  0  0
 28 29  1  0  0  0
 29 30  2  0  0  0
  4 10  1  0  0  0
 21 23  1  0  0  0
 22 24  1  0  0  0
M  END
> <minimizedAffinity>
-9.09994

$$$$
2363


 33 36  0  0  0  0  0  0  0  0999 V2000
   15.0043   32.9663   71.6492 N   0  0  0  0  0  0  0  0  0  0  0  0
   16.2305   33.5927   71.3046 C   0  0  0  0  0  0  0  0  0  0  0  0
   16.1027   34.9675   70.8446 C   0  0  0  0  0  0  0  0  0  0  0  0
   14.8973   35.5758   70.6644 C   0  0  0  0  0  0  0  0  0  0  0  0
   14.8486   36.9020   70.1948 C   0  0  0  0  0  0  0  0  0  0  0  0
   15.9744   37.6301   69.9038 C   0  0  0  0  0  0  0  0  0  0  0  0
   17.1912   36.9957   70.0936 C   0  0  0  0  0  0  0  0  0  0  0  0
   17.2454   35.7171   70.5456 C   0  0  0  0  0  0  0  0  0  0  0  0
   13.6566   34.9156   70.9624 N   0  0  0  0  0  0  0  0  0  0  0  0
   13.7652   33.5958   71.4568 C   0  0  0  0  0  0  0  0  0  0  0  0
   12.7107   32.9409   71.7432 O   0  0  0  0  0  0  0  0  0  0  0  0
   16.7193   32.8238   70.1898 O   0  0  0  0  0  0  0  0  0  0  0  0
   12.7591   35.4087   70.8099 H   0  0  0  0  0  0  0  0  0  0  0  0
   17.7116   32.8457   70.1839 H   0  0  0  0  0  0  0  0  0  0  0  0
   15.0402   27.4740   74.0842 Cl  0  0  0  0  0  0  0  0  0  0  0  0
   15.0257   29.0933   73.3751 C   0  0  0  0  0  0  0  0  0  0  0  0
   15.5452   29.2763   72.1135 C   0  0  0  0  0  0  0  0  0  0  0  0
   15.5369   30.5484   71.5496 C   0  0  0  0  0  0  0  0  0  0  0  0
   15.0197   31.6176   72.2313 C   0  0  0  0  0  0  0  0  0  0  0  0
   14.5074   31.4035   73.4921 C   0  0  0  0  0  0  0  0  0  0  0  0
   14.4995   30.1522   74.0826 C   0  0  0  0  0  0  0  0  0  0  0  0
   17.2615   33.4401   72.3630 C   0  0  0  0  0  0  0  0  0  0  0  0
   17.1230   34.0077   73.4482 O   0  0  0  0  0  0  0  0  0  0  0  0
   18.3815   32.6357   72.0814 N   0  0  0  0  0  0  0  0  0  0  0  0
   18.5087   32.1449   71.1532 H   0  0  0  0  0  0  0  0  0  0  0  0
   19.4561   32.4158   73.0501 C   0  0  0  0  0  0  0  0  0  0  0  0
   20.7824   32.8219   72.5326 C   0  0  0  0  0  0  0  0  0  0  0  0
   20.8131   33.7862   71.5024 N   0  0  0  0  0  0  0  0  0  0  0  0
   20.6681   35.1425   71.8378 C   0  0  0  0  0  0  0  0  0  0  0  0
   21.0094   35.9885   70.6078 C   0  0  0  0  0  0  0  0  0  0  0  0
   20.6106   35.3243   69.4340 O   0  0  0  0  0  0  0  0  0  0  0  0
   21.4274   34.2269   69.1720 C   0  0  0  0  0  0  0  0  0  0  0  0
   21.7831   33.5771   70.4815 C   0  0  0  0  0  0  0  0  0  0  0  0
 15 16  1  0  0  0
 16 17  2  0  0  0
 16 21  1  0  0  0
 17 18  1  0  0  0
 18 19  2  0  0  0
 19 20  1  0  0  0
 19  1  1  0  0  0
 20 21  2  0  0  0
  1  2  1  0  0  0
  1 10  1  0  0  0
  2  3  1  0  0  0
  2 12  1  0  0  0
  2 22  1  0  0  0
  3  4  1  0  0  0
  3  8  2  0  0  0
  4  5  2  0  0  0
  4  9  1  0  0  0
  5  6  1  0  0  0
  6  7  2  0  0  0
  7  8  1  0  0  0
  9 10  1  0  0  0
 10 11  2  0  0  0
 22 23  2  0  0  0
 22 24  1  0  0  0
 24 26  1  0  0  0
 26 27  1  0  0  0
 27 28  1  0  0  0
 28 29  1  0  0  0
 28 33  1  0  0  0
 29 30  1  0  0  0
 30 31  1  0  0  0
 31 32  1  0  0  0
 32 33  1  0  0  0
  9 13  1  0  0  0
 12 14  1  0  0  0
 24 25  1  0  0  0
M  END
> <minimizedAffinity>
-8.80831

$$$$
2364


 33 37  0  0  0  0  0  0  0  0999 V2000
   24.3762   37.0017   66.3105 N   0  0  0  0  0  0  0  0  0  0  0  0
   25.3467   36.6554   67.2908 C   0  0  0  0  0  0  0  0  0  0  0  0
   26.5649   36.9731   67.1028 O   0  0  0  0  0  0  0  0  0  0  0  0
   25.0223   35.9415   68.5299 C   0  0  0  0  0  0  0  0  0  0  0  0
   23.7029   35.4050   68.5880 N   0  0  0  0  0  0  0  0  0  0  0  0
   22.6858   36.1414   67.9106 C   0  0  0  0  0  0  0  0  0  0  0  0
   22.0127   37.2289   68.7119 C   0  0  0  0  0  0  0  0  0  0  0  0
   20.8060   36.4669   68.7236 N   0  0  0  0  0  0  0  0  0  0  0  0
   21.3675   35.3917   68.0061 C   0  0  0  0  0  0  0  0  0  0  0  0
   23.0489   36.5367   66.5249 C   0  0  0  0  0  0  0  0  0  0  0  0
   22.2469   36.4778   65.5585 O   0  0  0  0  0  0  0  0  0  0  0  0
   23.7407   34.0631   68.0821 C   0  0  0  0  0  0  0  0  0  0  0  0
   25.1689   33.7286   67.7555 C   0  0  0  0  0  0  0  0  0  0  0  0
   25.9423   34.7136   68.5845 C   0  0  0  0  0  0  0  0  0  0  0  0
   25.4969   32.4117   68.0478 O   0  0  0  0  0  0  0  0  0  0  0  0
   25.3048   31.8752   67.2407 H   0  0  0  0  0  0  0  0  0  0  0  0
   24.7087   37.7905   65.1375 C   0  0  0  0  0  0  0  0  0  0  0  0
   26.2971   42.4333   66.9343 Cl  0  0  0  0  0  0  0  0  0  0  0  0
   25.0810   41.4056   66.2087 C   0  0  0  0  0  0  0  0  0  0  0  0
   25.3384   40.0723   65.9630 C   0  0  0  0  0  0  0  0  0  0  0  0
   24.4014   39.2403   65.3931 C   0  0  0  0  0  0  0  0  0  0  0  0
   23.1751   39.7759   65.0667 C   0  0  0  0  0  0  0  0  0  0  0  0
   22.9346   41.0907   65.3143 C   0  0  0  0  0  0  0  0  0  0  0  0
   23.8571   41.9393   65.8828 C   0  0  0  0  0  0  0  0  0  0  0  0
   20.1293   36.2540   69.9508 C   0  0  0  0  0  0  0  0  0  0  0  0
   18.6869   36.5235   69.9491 C   0  0  0  0  0  0  0  0  0  0  0  0
   17.8382   35.7298   70.6805 C   0  0  0  0  0  0  0  0  0  0  0  0
   16.4604   35.9640   70.6969 C   0  0  0  0  0  0  0  0  0  0  0  0
   15.9515   37.0111   69.9635 C   0  0  0  0  0  0  0  0  0  0  0  0
   16.7784   37.8216   69.2231 C   0  0  0  0  0  0  0  0  0  0  0  0
   18.1470   37.5603   69.2291 C   0  0  0  0  0  0  0  0  0  0  0  0
   15.6038   35.1678   71.4310 O   0  0  0  0  0  0  0  0  0  0  0  0
   16.1528   34.1130   72.1987 C   0  0  0  0  0  0  0  0  0  0  0  0
 18 19  1  0  0  0
 19 20  2  0  0  0
 19 24  1  0  0  0
 20 21  1  0  0  0
 21 22  2  0  0  0
 21 17  1  0  0  0
 22 23  1  0  0  0
 23 24  2  0  0  0
 17  1  1  0  0  0
  1  2  1  0  0  0
  1 10  1  0  0  0
  2  3  2  0  0  0
  2  4  1  0  0  0
  4  5  1  0  0  0
  4 14  1  0  0  0
  5  6  1  0  0  0
  5 12  1  0  0  0
  6  7  1  0  0  0
  6  9  1  0  0  0
  6 10  1  0  0  0
  7  8  1  0  0  0
  8  9  1  0  0  0
  8 25  1  0  0  0
 25 26  1  0  0  0
 26 27  2  0  0  0
 26 31  1  0  0  0
 27 28  1  0  0  0
 28 29  2  0  0  0
 28 32  1  0  0  0
 29 30  1  0  0  0
 30 31  2  0  0  0
 32 33  1  0  0  0
 10 11  2  0  0  0
 12 13  1  0  0  0
 13 14  1  0  0  0
 13 15  1  0  0  0
 15 16  1  0  0  0
M  END
> <minimizedAffinity>
-8.85970

$$$$
2365


 32 36  0  0  0  0  0  0  0  0999 V2000
   21.1285   32.6383   69.7310 N   0  0  0  0  0  0  0  0  0  0  0  0
   20.5720   33.4230   70.7523 C   0  0  0  0  0  0  0  0  0  0  0  0
   21.2991   34.3120   71.2908 O   0  0  0  0  0  0  0  0  0  0  0  0
   20.5396   31.8997   69.2751 H   0  0  0  0  0  0  0  0  0  0  0  0
   19.1837   33.2845   71.2510 C   0  0  0  0  0  0  0  0  0  0  0  0
   18.3525   34.4899   70.8607 C   0  0  0  0  0  0  0  0  0  0  0  0
   16.9468   34.3600   71.3751 C   0  0  0  0  0  0  0  0  0  0  0  0
   16.3311   33.1367   70.6927 C   0  0  0  0  0  0  0  0  0  0  0  0
   17.1273   31.9185   71.0354 C   0  0  0  0  0  0  0  0  0  0  0  0
   18.5610   32.0770   70.5845 C   0  0  0  0  0  0  0  0  0  0  0  0
   17.0920   31.7101   72.5318 C   0  0  0  0  0  0  0  0  0  0  0  0
   17.7098   32.9251   73.1838 C   0  0  0  0  0  0  0  0  0  0  0  0
   16.8813   34.1403   72.8544 C   0  0  0  0  0  0  0  0  0  0  0  0
   19.1428   33.0812   72.7494 C   0  0  0  0  0  0  0  0  0  0  0  0
   16.2250   35.5462   70.9588 N   0  0  0  0  0  0  0  0  0  0  0  0
   16.6778   36.6956   70.4898 N   0  0  0  0  0  0  0  0  0  0  0  0
   15.7149   37.5267   70.2245 N   0  0  0  0  0  0  0  0  0  0  0  0
   14.5727   36.9321   70.5200 C   0  0  0  0  0  0  0  0  0  0  0  0
   14.8895   35.6897   70.9804 N   0  0  0  0  0  0  0  0  0  0  0  0
   22.8188   33.6242   68.2170 C   0  0  0  0  0  0  0  0  0  0  0  0
   21.9684   34.2487   67.5338 O   0  0  0  0  0  0  0  0  0  0  0  0
   22.4279   32.8191   69.3133 N   0  0  0  0  0  0  0  0  0  0  0  0
   23.2022   32.3250   69.8394 H   0  0  0  0  0  0  0  0  0  0  0  0
   24.2462   33.7801   67.8133 C   0  0  0  0  0  0  0  0  0  0  0  0
   25.1612   32.9101   68.6070 C   0  0  0  0  0  0  0  0  0  0  0  0
   24.3727   33.5214   66.3295 C   0  0  0  0  0  0  0  0  0  0  0  0
   25.1911   38.7341   64.9412 Br  0  0  0  0  0  0  0  0  0  0  0  0
   25.0736   36.8321   64.9759 C   0  0  0  0  0  0  0  0  0  0  0  0
   24.6364   36.0027   65.9892 C   0  0  0  0  0  0  0  0  0  0  0  0
   24.7234   34.7088   65.5867 N   0  0  0  0  0  0  0  0  0  0  0  0
   25.1964   34.7176   64.3704 N   0  0  0  0  0  0  0  0  0  0  0  0
   25.4310   35.9695   63.9369 C   0  0  0  0  0  0  0  0  0  0  0  0
 27 28  1  0  0  0
 28 29  2  0  0  0
 28 32  1  0  0  0
 29 30  1  0  0  0
 30 31  1  0  0  0
 30 26  1  0  0  0
 31 32  2  0  0  0
 26 24  1  0  0  0
 24 25  1  0  0  0
 24 20  1  0  0  0
 20 21  2  0  0  0
 20 22  1  0  0  0
 22  1  1  0  0  0
  1  2  1  0  0  0
  2  3  2  0  0  0
  2  5  1  0  0  0
  5  6  1  0  0  0
  5 10  1  0  0  0
  5 14  1  0  0  0
  6  7  1  0  0  0
  7  8  1  0  0  0
  7 13  1  0  0  0
  7 15  1  0  0  0
  8  9  1  0  0  0
  9 10  1  0  0  0
  9 11  1  0  0  0
 11 12  1  0  0  0
 12 13  1  0  0  0
 12 14  1  0  0  0
 15 16  1  0  0  0
 15 19  1  0  0  0
 16 17  2  0  0  0
 17 18  1  0  0  0
 18 19  2  0  0  0
 22 23  1  0  0  0
  1  4  1  0  0  0
M  END
> <minimizedAffinity>
-8.79873

$$$$
2373


 28 31  0  0  0  0  0  0  0  0999 V2000
   16.4323   36.6023   70.5674 N   0  0  0  0  0  0  0  0  0  0  0  0
   15.1353   36.3520   70.6083 C   0  0  0  0  0  0  0  0  0  0  0  0
   14.9001   35.0609   70.9659 N   0  0  0  0  0  0  0  0  0  0  0  0
   16.0642   34.4782   71.1505 C   0  0  0  0  0  0  0  0  0  0  0  0
   17.0404   35.4650   70.8979 C   0  0  0  0  0  0  0  0  0  0  0  0
   13.5866   34.5088   71.1427 C   0  0  0  0  0  0  0  0  0  0  0  0
   12.9243   34.2665   69.7883 C   0  0  0  0  0  0  0  0  0  0  0  0
   13.4000   35.4276   68.9088 C   0  0  0  0  0  0  0  0  0  0  0  0
   12.9311   36.7091   69.5407 C   0  0  0  0  0  0  0  0  0  0  0  0
   14.1038   37.3813   70.2722 C   0  0  0  0  0  0  0  0  0  0  0  0
   16.3945   33.1105   71.5619 C   0  0  0  0  0  0  0  0  0  0  0  0
   16.0722   32.5301   72.7459 C   0  0  0  0  0  0  0  0  0  0  0  0
   16.4778   31.2452   73.1046 C   0  0  0  0  0  0  0  0  0  0  0  0
   17.2378   30.4950   72.2499 C   0  0  0  0  0  0  0  0  0  0  0  0
   17.5790   31.0530   71.0417 C   0  0  0  0  0  0  0  0  0  0  0  0
   17.1714   32.3249   70.7032 C   0  0  0  0  0  0  0  0  0  0  0  0
   17.6604   29.1972   72.5856 O   0  0  0  0  0  0  0  0  0  0  0  0
   16.7651   28.1727   72.9251 C   0  0  0  0  0  0  0  0  0  0  0  0
   17.1721   37.8242   70.2361 C   0  0  0  0  0  0  0  0  0  0  0  0
   17.5826   37.7438   68.8178 C   0  0  0  0  0  0  0  0  0  0  0  0
   16.6846   37.9670   67.9393 O   0  0  0  0  0  0  0  0  0  0  0  0
   23.1155   36.4725   66.8428 Cl  0  0  0  0  0  0  0  0  0  0  0  0
   21.5005   36.8540   67.3815 C   0  0  0  0  0  0  0  0  0  0  0  0
   20.5152   37.3457   66.5621 C   0  0  0  0  0  0  0  0  0  0  0  0
   19.2591   37.6294   67.0367 C   0  0  0  0  0  0  0  0  0  0  0  0
   18.9254   37.4301   68.3816 C   0  0  0  0  0  0  0  0  0  0  0  0
   19.9031   36.9411   69.1967 C   0  0  0  0  0  0  0  0  0  0  0  0
   21.1602   36.6600   68.7110 C   0  0  0  0  0  0  0  0  0  0  0  0
 22 23  1  0  0  0
 23 24  2  0  0  0
 23 28  1  0  0  0
 24 25  1  0  0  0
 25 26  2  0  0  0
 26 27  1  0  0  0
 26 20  1  0  0  0
 27 28  2  0  0  0
 20 21  2  0  0  0
 20 19  1  0  0  0
 19  1  1  0  0  0
  1  2  2  0  0  0
  1  5  1  0  0  0
  2  3  1  0  0  0
  2 10  1  0  0  0
  3  4  1  0  0  0
  3  6  1  0  0  0
  4  5  2  0  0  0
  4 11  1  0  0  0
 11 12  2  0  0  0
 11 16  1  0  0  0
 12 13  1  0  0  0
 13 14  2  0  0  0
 14 15  1  0  0  0
 14 17  1  0  0  0
 15 16  2  0  0  0
 17 18  1  0  0  0
  6  7  1  0  0  0
  7  8  1  0  0  0
  8  9  1  0  0  0
  9 10  1  0  0  0
M  END
> <minimizedAffinity>
-9.08061

$$$$
2375


 37 40  0  0  0  0  0  0  0  0999 V2000
   22.4141   33.6393   69.9730 C   0  0  0  0  0  0  0  0  0  0  0  0
   22.5190   32.6154   70.9707 C   0  0  0  0  0  0  0  0  0  0  0  0
   22.7952   36.9279   66.4367 C   0  0  0  0  0  0  0  0  0  0  0  0
   23.6513   35.9082   65.8126 C   0  0  0  0  0  0  0  0  0  0  0  0
   24.1474   34.7853   66.6889 C   0  0  0  0  0  0  0  0  0  0  0  0
   23.5984   34.7371   68.0044 N   0  0  0  0  0  0  0  0  0  0  0  0
   23.5764   36.0425   68.6940 C   0  0  0  0  0  0  0  0  0  0  0  0
   22.9060   37.0774   67.9339 C   0  0  0  0  0  0  0  0  0  0  0  0
   23.3512   33.5758   68.7748 C   0  0  0  0  0  0  0  0  0  0  0  0
   23.8852   32.5044   68.4993 O   0  0  0  0  0  0  0  0  0  0  0  0
   21.4438   36.5693   66.1480 O   0  0  0  0  0  0  0  0  0  0  0  0
   20.9820   37.2784   65.6699 H   0  0  0  0  0  0  0  0  0  0  0  0
   23.2707   42.6635   64.4925 Cl  0  0  0  0  0  0  0  0  0  0  0  0
   23.1519   40.9711   65.0307 C   0  0  0  0  0  0  0  0  0  0  0  0
   22.0241   40.5215   65.6773 C   0  0  0  0  0  0  0  0  0  0  0  0
   21.9507   39.1890   66.1094 C   0  0  0  0  0  0  0  0  0  0  0  0
   22.9902   38.2946   65.9008 C   0  0  0  0  0  0  0  0  0  0  0  0
   24.0897   38.7632   65.2578 C   0  0  0  0  0  0  0  0  0  0  0  0
   24.1896   40.0790   64.8235 C   0  0  0  0  0  0  0  0  0  0  0  0
   21.1475   34.1992   69.5645 N   0  0  0  0  0  0  0  0  0  0  0  0
   20.5426   35.3172   70.1363 C   0  0  0  0  0  0  0  0  0  0  0  0
   21.3107   35.7613   71.1944 O   0  0  0  0  0  0  0  0  0  0  0  0
   20.7002   33.5935   68.7967 H   0  0  0  0  0  0  0  0  0  0  0  0
   19.4331   36.1290   69.9566 C   0  0  0  0  0  0  0  0  0  0  0  0
   18.1683   36.3608   70.1457 C   0  0  0  0  0  0  0  0  0  0  0  0
   17.5810   37.5989   69.6162 N   0  0  0  0  0  0  0  0  0  0  0  0
   16.2326   37.8887   69.6866 N   0  0  0  0  0  0  0  0  0  0  0  0
   15.3219   37.0227   70.2702 C   0  0  0  0  0  0  0  0  0  0  0  0
   14.0886   37.2481   70.3619 O   0  0  0  0  0  0  0  0  0  0  0  0
   15.8204   35.7452   70.8338 C   0  0  0  0  0  0  0  0  0  0  0  0
   17.1687   35.4949   70.7398 C   0  0  0  0  0  0  0  0  0  0  0  0
   17.5767   34.2354   71.1932 C   0  0  0  0  0  0  0  0  0  0  0  0
   16.6653   33.3254   71.7093 C   0  0  0  0  0  0  0  0  0  0  0  0
   15.3302   33.6231   71.7926 C   0  0  0  0  0  0  0  0  0  0  0  0
   14.9060   34.8552   71.3426 C   0  0  0  0  0  0  0  0  0  0  0  0
   18.2623   38.2688   69.1660 H   0  0  0  0  0  0  0  0  0  0  0  0
   15.8798   38.8006   69.2842 H   0  0  0  0  0  0  0  0  0  0  0  0
 13 14  1  0  0  0
 14 15  2  0  0  0
 14 19  1  0  0  0
 15 16  1  0  0  0
 16 17  2  0  0  0
 17 18  1  0  0  0
 17  3  1  0  0  0
 18 19  2  0  0  0
  3  4  1  0  0  0
  3  8  1  0  0  0
  3 11  1  0  0  0
  4  5  1  0  0  0
  5  6  1  0  0  0
  6  7  1  0  0  0
  6  9  1  0  0  0
  7  8  1  0  0  0
  9 10  2  0  0  0
  9  1  1  0  0  0
  1 20  1  0  0  0
  1  2  1  0  0  0
 20 21  1  0  0  0
 21 22  2  0  0  0
 21 24  1  0  0  0
 24 25  2  0  0  0
 25 26  1  0  0  0
 25 31  1  0  0  0
 26 27  1  0  0  0
 27 28  1  0  0  0
 28 29  2  0  0  0
 28 30  1  0  0  0
 30 31  2  0  0  0
 30 35  1  0  0  0
 31 32  1  0  0  0
 32 33  2  0  0  0
 33 34  1  0  0  0
 34 35  2  0  0  0
 20 23  1  0  0  0
 26 36  1  0  0  0
 27 37  1  0  0  0
 11 12  1  0  0  0
M  END
> <minimizedAffinity>
-10.57268

$$$$
2377


 33 36  0  0  0  0  0  0  0  0999 V2000
   20.7065   35.8278   71.0486 N   0  0  0  0  0  0  0  0  0  0  0  0
   21.7691   34.8733   70.7484 C   0  0  0  0  0  0  0  0  0  0  0  0
   22.5312   35.2474   69.4973 C   0  0  0  0  0  0  0  0  0  0  0  0
   22.2698   36.6386   69.2182 N   0  0  0  0  0  0  0  0  0  0  0  0
   22.3172   37.5319   70.3617 C   0  0  0  0  0  0  0  0  0  0  0  0
   21.0718   37.2433   71.1987 C   0  0  0  0  0  0  0  0  0  0  0  0
   21.9823   37.1500   67.9360 C   0  0  0  0  0  0  0  0  0  0  0  0
   21.7710   38.3754   67.8039 O   0  0  0  0  0  0  0  0  0  0  0  0
   18.6954   37.2163   69.3000 Cl  0  0  0  0  0  0  0  0  0  0  0  0
   18.3387   35.9052   70.3960 C   0  0  0  0  0  0  0  0  0  0  0  0
   19.3722   35.3909   71.1490 C   0  0  0  0  0  0  0  0  0  0  0  0
   18.9931   34.3544   72.0138 C   0  0  0  0  0  0  0  0  0  0  0  0
   17.7200   33.9223   72.0784 N   0  0  0  0  0  0  0  0  0  0  0  0
   16.7283   34.4083   71.3625 N   0  0  0  0  0  0  0  0  0  0  0  0
   17.0411   35.4009   70.5205 C   0  0  0  0  0  0  0  0  0  0  0  0
   16.1517   35.9204   69.8009 O   0  0  0  0  0  0  0  0  0  0  0  0
   15.4078   33.8903   71.4947 C   0  0  0  0  0  0  0  0  0  0  0  0
   14.2920   34.7130   71.5127 C   0  0  0  0  0  0  0  0  0  0  0  0
   13.0063   34.2279   71.6399 C   0  0  0  0  0  0  0  0  0  0  0  0
   12.8331   32.8641   71.7536 C   0  0  0  0  0  0  0  0  0  0  0  0
   13.9243   32.0147   71.7401 C   0  0  0  0  0  0  0  0  0  0  0  0
   15.2160   32.5376   71.6095 C   0  0  0  0  0  0  0  0  0  0  0  0
   21.9155   36.3068   66.7179 C   0  0  0  0  0  0  0  0  0  0  0  0
   22.9306   36.7605   65.6945 C   0  0  0  0  0  0  0  0  0  0  0  0
   23.9034   35.6780   65.3320 C   0  0  0  0  0  0  0  0  0  0  0  0
   24.6680   35.1769   66.4525 N   0  0  0  0  0  0  0  0  0  0  0  0
   24.6771   33.8432   66.9282 C   0  0  0  0  0  0  0  0  0  0  0  0
   24.0126   32.8626   66.4513 O   0  0  0  0  0  0  0  0  0  0  0  0
   25.5379   33.6988   68.0366 N   0  0  0  0  0  0  0  0  0  0  0  0
   26.1219   34.9894   68.3274 C   0  0  0  0  0  0  0  0  0  0  0  0
   25.5641   35.9002   67.3032 C   0  0  0  0  0  0  0  0  0  0  0  0
   25.8266   37.1162   67.1885 O   0  0  0  0  0  0  0  0  0  0  0  0
   25.8025   32.4768   68.7682 C   0  0  0  0  0  0  0  0  0  0  0  0
  9 10  1  0  0  0
 10 11  2  0  0  0
 10 15  1  0  0  0
 11 12  1  0  0  0
 11  1  1  0  0  0
 12 13  2  0  0  0
 13 14  1  0  0  0
 14 15  1  0  0  0
 14 17  1  0  0  0
 15 16  2  0  0  0
 17 18  2  0  0  0
 17 22  1  0  0  0
 18 19  1  0  0  0
 19 20  2  0  0  0
 20 21  1  0  0  0
 21 22  2  0  0  0
  1  2  1  0  0  0
  1  6  1  0  0  0
  2  3  1  0  0  0
  3  4  1  0  0  0
  4  5  1  0  0  0
  4  7  1  0  0  0
  5  6  1  0  0  0
  7  8  2  0  0  0
  7 23  1  0  0  0
 23 24  1  0  0  0
 24 25  1  0  0  0
 25 26  1  0  0  0
 26 27  1  0  0  0
 26 31  1  0  0  0
 27 28  2  0  0  0
 27 29  1  0  0  0
 29 30  1  0  0  0
 29 33  1  0  0  0
 30 31  1  0  0  0
 31 32  2  0  0  0
M  END
> <minimizedAffinity>
-8.20618

$$$$
2380


 27 30  0  0  0  0  0  0  0  0999 V2000
   20.5546   33.2629   70.1511 Cl  0  0  0  0  0  0  0  0  0  0  0  0
   18.9534   33.7035   70.7355 C   0  0  0  0  0  0  0  0  0  0  0  0
   18.6402   35.0406   70.7950 C   0  0  0  0  0  0  0  0  0  0  0  0
   17.3730   35.3534   71.2604 C   0  0  0  0  0  0  0  0  0  0  0  0
   16.5267   34.3738   71.6232 N   0  0  0  0  0  0  0  0  0  0  0  0
   16.8153   33.0839   71.5705 N   0  0  0  0  0  0  0  0  0  0  0  0
   18.0377   32.7455   71.1240 C   0  0  0  0  0  0  0  0  0  0  0  0
   18.3839   31.5324   71.0454 O   0  0  0  0  0  0  0  0  0  0  0  0
   19.5904   36.0039   70.3946 N   0  0  0  0  0  0  0  0  0  0  0  0
   19.4457   36.7531   69.1516 C   0  0  0  0  0  0  0  0  0  0  0  0
   20.5953   36.2553   68.2541 C   0  0  0  0  0  0  0  0  0  0  0  0
   21.8439   36.3590   68.9422 N   0  0  0  0  0  0  0  0  0  0  0  0
   21.8232   36.9895   70.2790 C   0  0  0  0  0  0  0  0  0  0  0  0
   20.7774   36.3374   71.1608 C   0  0  0  0  0  0  0  0  0  0  0  0
   23.0760   35.8971   68.4101 C   0  0  0  0  0  0  0  0  0  0  0  0
   24.1594   36.0107   69.0581 O   0  0  0  0  0  0  0  0  0  0  0  0
   23.1853   35.2612   67.0854 C   0  0  0  0  0  0  0  0  0  0  0  0
   24.2672   35.7278   66.4040 O   0  0  0  0  0  0  0  0  0  0  0  0
   24.7480   34.7067   65.5942 C   0  0  0  0  0  0  0  0  0  0  0  0
   24.6604   33.5171   66.5397 C   0  0  0  0  0  0  0  0  0  0  0  0
   23.3091   33.7571   67.1797 C   0  0  0  0  0  0  0  0  0  0  0  0
   15.8669   32.0843   71.9727 C   0  0  0  0  0  0  0  0  0  0  0  0
   14.9699   31.5697   71.0595 C   0  0  0  0  0  0  0  0  0  0  0  0
   14.0411   30.5956   71.4369 C   0  0  0  0  0  0  0  0  0  0  0  0
   14.0076   30.1348   72.7285 C   0  0  0  0  0  0  0  0  0  0  0  0
   14.8928   30.6381   73.6473 C   0  0  0  0  0  0  0  0  0  0  0  0
   15.7999   31.5943   73.2604 C   0  0  0  0  0  0  0  0  0  0  0  0
  1  2  1  0  0  0
  2  3  2  0  0  0
  2  7  1  0  0  0
  3  4  1  0  0  0
  3  9  1  0  0  0
  4  5  2  0  0  0
  5  6  1  0  0  0
  6  7  1  0  0  0
  6 22  1  0  0  0
  7  8  2  0  0  0
 22 23  2  0  0  0
 22 27  1  0  0  0
 23 24  1  0  0  0
 24 25  2  0  0  0
 25 26  1  0  0  0
 26 27  2  0  0  0
  9 10  1  0  0  0
  9 14  1  0  0  0
 10 11  1  0  0  0
 11 12  1  0  0  0
 12 13  1  0  0  0
 12 15  1  0  0  0
 13 14  1  0  0  0
 15 16  2  0  0  0
 15 17  1  0  0  0
 17 18  1  0  0  0
 17 21  1  0  0  0
 18 19  1  0  0  0
 19 20  1  0  0  0
 20 21  1  0  0  0
M  END
> <minimizedAffinity>
-8.09613

$$$$
2381


 30 33  0  0  0  0  0  0  0  0999 V2000
   19.0272   34.5496   71.7069 N   0  0  0  0  0  0  0  0  0  0  0  0
   19.5828   33.8306   72.8195 C   0  0  0  0  0  0  0  0  0  0  0  0
   18.7593   32.6075   73.1565 C   0  0  0  0  0  0  0  0  0  0  0  0
   17.3538   32.8213   72.9176 N   0  0  0  0  0  0  0  0  0  0  0  0
   16.8848   34.1684   72.7006 C   0  0  0  0  0  0  0  0  0  0  0  0
   17.6033   34.7150   71.4938 C   0  0  0  0  0  0  0  0  0  0  0  0
   16.4580   31.7223   72.8982 C   0  0  0  0  0  0  0  0  0  0  0  0
   16.8656   30.5313   73.0882 O   0  0  0  0  0  0  0  0  0  0  0  0
   20.5624   32.6271   69.9695 Cl  0  0  0  0  0  0  0  0  0  0  0  0
   20.6901   34.3698   69.9008 C   0  0  0  0  0  0  0  0  0  0  0  0
   19.9229   35.1320   70.7587 C   0  0  0  0  0  0  0  0  0  0  0  0
   20.0700   36.5034   70.6509 C   0  0  0  0  0  0  0  0  0  0  0  0
   20.9115   37.0626   69.7615 N   0  0  0  0  0  0  0  0  0  0  0  0
   21.6544   36.3475   68.9321 N   0  0  0  0  0  0  0  0  0  0  0  0
   21.5368   35.0096   69.0090 C   0  0  0  0  0  0  0  0  0  0  0  0
   22.2350   34.3269   68.2305 O   0  0  0  0  0  0  0  0  0  0  0  0
   22.5470   36.9506   67.9908 C   0  0  0  0  0  0  0  0  0  0  0  0
   23.9053   36.9917   68.2304 C   0  0  0  0  0  0  0  0  0  0  0  0
   24.7735   37.5717   67.3279 C   0  0  0  0  0  0  0  0  0  0  0  0
   24.3286   38.1355   66.1497 C   0  0  0  0  0  0  0  0  0  0  0  0
   22.9721   38.0969   65.9041 C   0  0  0  0  0  0  0  0  0  0  0  0
   22.1108   37.5177   66.8079 C   0  0  0  0  0  0  0  0  0  0  0  0
   15.0003   31.8877   72.6575 C   0  0  0  0  0  0  0  0  0  0  0  0
   14.7138   32.1014   71.3020 O   0  0  0  0  0  0  0  0  0  0  0  0
   13.9107   33.1555   70.9111 C   0  0  0  0  0  0  0  0  0  0  0  0
   12.6276   33.4061   71.1936 N   0  0  0  0  0  0  0  0  0  0  0  0
   12.2495   34.5054   70.6279 O   0  0  0  0  0  0  0  0  0  0  0  0
   13.2305   35.0556   69.9429 C   0  0  0  0  0  0  0  0  0  0  0  0
   14.3108   34.2124   70.1056 C   0  0  0  0  0  0  0  0  0  0  0  0
   13.0972   36.3170   69.1917 C   0  0  0  0  0  0  0  0  0  0  0  0
  9 10  1  0  0  0
 10 11  2  0  0  0
 10 15  1  0  0  0
 11 12  1  0  0  0
 11  1  1  0  0  0
 12 13  2  0  0  0
 13 14  1  0  0  0
 14 15  1  0  0  0
 14 17  1  0  0  0
 15 16  2  0  0  0
 17 18  2  0  0  0
 17 22  1  0  0  0
 18 19  1  0  0  0
 19 20  2  0  0  0
 20 21  1  0  0  0
 21 22  2  0  0  0
  1  2  1  0  0  0
  1  6  1  0  0  0
  2  3  1  0  0  0
  3  4  1  0  0  0
  4  5  1  0  0  0
  4  7  1  0  0  0
  5  6  1  0  0  0
  7  8  2  0  0  0
  7 23  1  0  0  0
 23 24  1  0  0  0
 24 25  1  0  0  0
 25 26  2  0  0  0
 25 29  1  0  0  0
 26 27  1  0  0  0
 27 28  1  0  0  0
 28 29  2  0  0  0
 28 30  1  0  0  0
M  END
> <minimizedAffinity>
-8.63552

$$$$
2386


 30 33  0  0  0  0  0  0  0  0999 V2000
   14.0752   37.3487   70.2706 Cl  0  0  0  0  0  0  0  0  0  0  0  0
   15.7699   36.8987   70.1128 C   0  0  0  0  0  0  0  0  0  0  0  0
   16.2325   35.8705   70.9311 C   0  0  0  0  0  0  0  0  0  0  0  0
   17.5557   35.5071   70.8200 C   0  0  0  0  0  0  0  0  0  0  0  0
   18.3873   36.1547   69.9161 C   0  0  0  0  0  0  0  0  0  0  0  0
   17.9180   37.1795   69.1036 C   0  0  0  0  0  0  0  0  0  0  0  0
   16.5886   37.5446   69.2165 C   0  0  0  0  0  0  0  0  0  0  0  0
   19.7268   35.8472   69.7463 O   0  0  0  0  0  0  0  0  0  0  0  0
   20.6500   35.3177   70.6568 C   0  0  0  0  0  0  0  0  0  0  0  0
   20.3268   33.9787   71.2124 C   0  0  0  0  0  0  0  0  0  0  0  0
   18.9526   33.5940   71.2039 N   0  0  0  0  0  0  0  0  0  0  0  0
   17.8601   34.3998   71.7652 C   0  0  0  0  0  0  0  0  0  0  0  0
   18.5923   32.3460   70.6254 C   0  0  0  0  0  0  0  0  0  0  0  0
   19.5218   31.6490   70.1580 O   0  0  0  0  0  0  0  0  0  0  0  0
   22.0190   35.2425   69.9546 C   0  0  0  0  0  0  0  0  0  0  0  0
   22.2605   36.5987   69.3489 C   0  0  0  0  0  0  0  0  0  0  0  0
   21.2936   37.5219   69.7058 O   0  0  0  0  0  0  0  0  0  0  0  0
   21.1715   37.6659   71.0766 C   0  0  0  0  0  0  0  0  0  0  0  0
   20.8833   36.3520   71.7696 C   0  0  0  0  0  0  0  0  0  0  0  0
   17.2163   31.8769   70.5719 C   0  0  0  0  0  0  0  0  0  0  0  0
   16.8229   30.7608   71.4503 C   0  0  0  0  0  0  0  0  0  0  0  0
   16.4589   31.0239   72.8519 C   0  0  0  0  0  0  0  0  0  0  0  0
   15.1187   30.8816   73.2841 N   0  0  0  0  0  0  0  0  0  0  0  0
   14.0202   31.6534   72.8331 C   0  0  0  0  0  0  0  0  0  0  0  0
   14.0101   32.5874   71.9774 O   0  0  0  0  0  0  0  0  0  0  0  0
   12.8735   31.1900   73.5242 N   0  0  0  0  0  0  0  0  0  0  0  0
   13.1799   29.8931   74.1235 C   0  0  0  0  0  0  0  0  0  0  0  0
   14.6519   29.9540   74.2440 C   0  0  0  0  0  0  0  0  0  0  0  0
   15.3524   29.2760   75.0788 O   0  0  0  0  0  0  0  0  0  0  0  0
   11.9516   31.6607   73.6153 H   0  0  0  0  0  0  0  0  0  0  0  0
  1  2  1  0  0  0
  2  3  2  0  0  0
  2  7  1  0  0  0
  3  4  1  0  0  0
  4  5  2  0  0  0
  4 12  1  0  0  0
  5  6  1  0  0  0
  5  8  1  0  0  0
  6  7  2  0  0  0
  8  9  1  0  0  0
  9 10  1  0  0  0
  9 15  1  0  0  0
  9 19  1  0  0  0
 10 11  1  0  0  0
 11 12  1  0  0  0
 11 13  1  0  0  0
 13 14  2  0  0  0
 13 20  1  0  0  0
 20 21  1  0  0  0
 21 22  1  0  0  0
 22 23  1  0  0  0
 23 24  1  0  0  0
 23 28  1  0  0  0
 24 25  2  0  0  0
 24 26  1  0  0  0
 26 27  1  0  0  0
 27 28  1  0  0  0
 28 29  2  0  0  0
 15 16  1  0  0  0
 16 17  1  0  0  0
 17 18  1  0  0  0
 18 19  1  0  0  0
 26 30  1  0  0  0
M  END
> <minimizedAffinity>
-8.63767

$$$$
2402


 33 36  0  0  0  0  0  0  0  0999 V2000
   24.3774   36.0193   68.4168 C   0  0  0  0  0  0  0  0  0  0  0  0
   24.7242   34.7579   67.8331 N   0  0  0  0  0  0  0  0  0  0  0  0
   23.5570   34.0319   67.4800 C   0  0  0  0  0  0  0  0  0  0  0  0
   23.4203   32.9884   66.7968 O   0  0  0  0  0  0  0  0  0  0  0  0
   22.3878   34.7201   68.0748 C   0  0  0  0  0  0  0  0  0  0  0  0
   21.1828   34.3765   67.9821 O   0  0  0  0  0  0  0  0  0  0  0  0
   22.9413   35.8632   68.7763 C   0  0  0  0  0  0  0  0  0  0  0  0
   22.2139   36.6362   69.5926 C   0  0  0  0  0  0  0  0  0  0  0  0
   22.9198   37.7095   70.1511 O   0  0  0  0  0  0  0  0  0  0  0  0
   20.8072   36.3924   69.8900 C   0  0  0  0  0  0  0  0  0  0  0  0
   20.2453   35.5282   70.6628 O   0  0  0  0  0  0  0  0  0  0  0  0
   18.9472   35.5871   70.6901 C   0  0  0  0  0  0  0  0  0  0  0  0
   18.5555   36.6095   69.8393 C   0  0  0  0  0  0  0  0  0  0  0  0
   19.7611   37.1074   69.3415 C   0  0  0  0  0  0  0  0  0  0  0  0
   17.2192   36.8895   69.6791 C   0  0  0  0  0  0  0  0  0  0  0  0
   16.2618   36.1673   70.3532 C   0  0  0  0  0  0  0  0  0  0  0  0
   16.6452   35.1414   71.2077 C   0  0  0  0  0  0  0  0  0  0  0  0
   17.9688   34.8739   71.3599 C   0  0  0  0  0  0  0  0  0  0  0  0
   18.3824   33.8623   72.2013 O   0  0  0  0  0  0  0  0  0  0  0  0
   17.7682   33.5433   73.4425 C   0  0  0  0  0  0  0  0  0  0  0  0
   26.0175   40.9973   65.1621 Br  0  0  0  0  0  0  0  0  0  0  0  0
   25.4379   39.4498   66.1240 C   0  0  0  0  0  0  0  0  0  0  0  0
   26.2272   38.9960   67.1409 C   0  0  0  0  0  0  0  0  0  0  0  0
   25.8463   37.8945   67.8485 C   0  0  0  0  0  0  0  0  0  0  0  0
   24.6864   37.1840   67.6045 C   0  0  0  0  0  0  0  0  0  0  0  0
   23.9078   37.6637   66.5731 C   0  0  0  0  0  0  0  0  0  0  0  0
   24.2701   38.7864   65.8310 C   0  0  0  0  0  0  0  0  0  0  0  0
   26.0565   34.2630   67.6179 C   0  0  0  0  0  0  0  0  0  0  0  0
   26.6761   33.7516   68.9056 C   0  0  0  0  0  0  0  0  0  0  0  0
   26.8178   32.3369   68.9478 N   0  0  0  0  0  0  0  0  0  0  0  0
   25.7328   31.6164   69.5407 C   0  0  0  0  0  0  0  0  0  0  0  0
   27.1260   31.8045   67.6273 C   0  0  0  0  0  0  0  0  0  0  0  0
   27.6725   32.1247   69.5443 H   0  0  0  0  0  0  0  0  0  0  0  0
 21 22  1  0  0  0
 22 23  2  0  0  0
 22 27  1  0  0  0
 23 24  1  0  0  0
 24 25  2  0  0  0
 25 26  1  0  0  0
 25  1  1  0  0  0
 26 27  2  0  0  0
  1  2  1  0  0  0
  1  7  1  0  0  0
  2  3  1  0  0  0
  2 28  1  0  0  0
  3  4  2  0  0  0
  3  5  1  0  0  0
  5  6  2  0  0  0
  5  7  1  0  0  0
  7  8  2  0  0  0
  8  9  1  0  0  0
  8 10  1  0  0  0
 10 11  1  0  0  0
 10 14  2  0  0  0
 11 12  1  0  0  0
 12 13  2  0  0  0
 12 18  1  0  0  0
 13 14  1  0  0  0
 13 15  1  0  0  0
 15 16  2  0  0  0
 16 17  1  0  0  0
 17 18  2  0  0  0
 18 19  1  0  0  0
 19 20  1  0  0  0
 28 29  1  0  0  0
 29 30  1  0  0  0
 30 31  1  0  0  0
 30 32  1  0  0  0
 30 33  1  0  0  0
M  CHG 1   9  -1
M  CHG 1  30   1
M  END
> <minimizedAffinity>
-8.16852

$$$$
2403


 26 29  0  0  0  0  0  0  0  0999 V2000
   20.9999   36.2570   70.8342 C   0  0  0  0  0  0  0  0  0  0  0  0
   21.7450   35.4779   69.8652 N   0  0  0  0  0  0  0  0  0  0  0  0
   22.1951   35.8099   68.6465 C   0  0  0  0  0  0  0  0  0  0  0  0
   22.8447   34.7356   68.0482 C   0  0  0  0  0  0  0  0  0  0  0  0
   22.7717   33.7322   68.9545 N   0  0  0  0  0  0  0  0  0  0  0  0
   22.1199   34.1693   70.0349 C   0  0  0  0  0  0  0  0  0  0  0  0
   23.3998   34.7903   66.8202 N   0  0  0  0  0  0  0  0  0  0  0  0
   23.2997   35.9662   66.1725 C   0  0  0  0  0  0  0  0  0  0  0  0
   23.8130   36.0358   65.0222 O   0  0  0  0  0  0  0  0  0  0  0  0
   22.6848   37.0333   66.7048 N   0  0  0  0  0  0  0  0  0  0  0  0
   22.1279   36.9810   67.9327 C   0  0  0  0  0  0  0  0  0  0  0  0
   21.5547   37.9621   68.4449 O   0  0  0  0  0  0  0  0  0  0  0  0
   22.5793   38.3003   66.0027 C   0  0  0  0  0  0  0  0  0  0  0  0
   24.0625   33.6322   66.2516 C   0  0  0  0  0  0  0  0  0  0  0  0
   12.9928   34.3030   70.7890 Br  0  0  0  0  0  0  0  0  0  0  0  0
   14.8772   34.5221   70.9676 C   0  0  0  0  0  0  0  0  0  0  0  0
   15.4678   35.5754   70.3240 C   0  0  0  0  0  0  0  0  0  0  0  0
   16.8013   35.7493   70.4372 N   0  0  0  0  0  0  0  0  0  0  0  0
   17.5460   34.9068   71.1687 C   0  0  0  0  0  0  0  0  0  0  0  0
   18.8949   35.0835   71.2830 N   0  0  0  0  0  0  0  0  0  0  0  0
   19.5156   36.1051   70.6665 C   0  0  0  0  0  0  0  0  0  0  0  0
   18.7349   36.9553   69.9234 C   0  0  0  0  0  0  0  0  0  0  0  0
   17.3722   36.8052   69.7880 C   0  0  0  0  0  0  0  0  0  0  0  0
   16.6471   37.5602   69.1225 O   0  0  0  0  0  0  0  0  0  0  0  0
   16.9564   33.8379   71.8243 C   0  0  0  0  0  0  0  0  0  0  0  0
   15.6025   33.6339   71.7280 C   0  0  0  0  0  0  0  0  0  0  0  0
 15 16  1  0  0  0
 16 17  2  0  0  0
 16 26  1  0  0  0
 17 18  1  0  0  0
 18 19  1  0  0  0
 18 23  1  0  0  0
 19 20  2  0  0  0
 19 25  1  0  0  0
 20 21  1  0  0  0
 21 22  2  0  0  0
 21  1  1  0  0  0
 22 23  1  0  0  0
 23 24  2  0  0  0
  1  2  1  0  0  0
  2  3  1  0  0  0
  2  6  1  0  0  0
  3  4  2  0  0  0
  3 11  1  0  0  0
  4  5  1  0  0  0
  4  7  1  0  0  0
  5  6  2  0  0  0
  7  8  1  0  0  0
  7 14  1  0  0  0
  8  9  2  0  0  0
  8 10  1  0  0  0
 10 11  1  0  0  0
 10 13  1  0  0  0
 11 12  2  0  0  0
 25 26  2  0  0  0
M  END
> <minimizedAffinity>
-8.86244

$$$$
2416


 34 37  0  0  0  0  0  0  0  0999 V2000
   15.2500   31.9878   71.8100 N   0  0  0  0  0  0  0  0  0  0  0  0
   15.6542   31.9589   73.1411 C   0  0  0  0  0  0  0  0  0  0  0  0
   16.8194   30.9709   73.2868 C   0  0  0  0  0  0  0  0  0  0  0  0
   17.7239   31.1116   72.1445 N   0  0  0  0  0  0  0  0  0  0  0  0
   17.1343   30.9121   70.8353 C   0  0  0  0  0  0  0  0  0  0  0  0
   15.6145   30.8650   71.0506 C   0  0  0  0  0  0  0  0  0  0  0  0
   19.0920   31.4457   72.3475 C   0  0  0  0  0  0  0  0  0  0  0  0
   19.4767   31.6135   73.5283 O   0  0  0  0  0  0  0  0  0  0  0  0
   14.1544   33.0935   71.2403 S   0  0  0  0  0  0  0  0  0  0  0  0
   13.4418   32.5026   70.0377 O   0  0  0  0  0  0  0  0  0  0  0  0
   13.0597   33.4448   72.2262 O   0  0  0  0  0  0  0  0  0  0  0  0
   14.8825   34.6069   70.6904 C   0  0  0  0  0  0  0  0  0  0  0  0
   14.1133   35.6549   70.2407 C   0  0  0  0  0  0  0  0  0  0  0  0
   14.7270   36.8135   69.8173 C   0  0  0  0  0  0  0  0  0  0  0  0
   16.0984   36.9887   69.8188 C   0  0  0  0  0  0  0  0  0  0  0  0
   16.8730   35.9287   70.2738 C   0  0  0  0  0  0  0  0  0  0  0  0
   16.2549   34.7733   70.6951 C   0  0  0  0  0  0  0  0  0  0  0  0
   16.8784   38.4429   69.2901 Cl  0  0  0  0  0  0  0  0  0  0  0  0
   20.0039   31.5872   71.2129 C   0  0  0  0  0  0  0  0  0  0  0  0
   21.1840   32.5116   71.4749 C   0  0  0  0  0  0  0  0  0  0  0  0
   20.7996   33.8129   71.9545 N   0  0  0  0  0  0  0  0  0  0  0  0
   20.8508   35.1042   71.3649 C   0  0  0  0  0  0  0  0  0  0  0  0
   20.8362   36.1316   72.0934 O   0  0  0  0  0  0  0  0  0  0  0  0
   20.9256   35.4224   69.9225 C   0  0  0  0  0  0  0  0  0  0  0  0
   21.4315   34.6019   68.9083 C   0  0  0  0  0  0  0  0  0  0  0  0
   21.4203   35.0448   67.6162 C   0  0  0  0  0  0  0  0  0  0  0  0
   20.9181   36.2960   67.2534 C   0  0  0  0  0  0  0  0  0  0  0  0
   20.4191   37.0900   68.2865 C   0  0  0  0  0  0  0  0  0  0  0  0
   20.4255   36.6564   69.5941 C   0  0  0  0  0  0  0  0  0  0  0  0
   21.9784   33.3035   69.0832 N   0  0  0  0  0  0  0  0  0  0  0  0
   22.0621   32.5322   70.2856 C   0  0  0  0  0  0  0  0  0  0  0  0
   23.0749   31.7470   70.2900 O   0  0  0  0  0  0  0  0  0  0  0  0
   20.3918   33.8670   72.9404 H   0  0  0  0  0  0  0  0  0  0  0  0
   22.3535   32.8765   68.2366 H   0  0  0  0  0  0  0  0  0  0  0  0
  9 10  2  0  0  0
  9 11  2  0  0  0
  9  1  1  0  0  0
  9 12  1  0  0  0
  1  2  1  0  0  0
  1  6  1  0  0  0
  2  3  1  0  0  0
  3  4  1  0  0  0
  4  5  1  0  0  0
  4  7  1  0  0  0
  5  6  1  0  0  0
  7  8  2  0  0  0
  7 19  1  0  0  0
 19 20  1  0  0  0
 20 21  1  0  0  0
 20 31  1  0  0  0
 21 22  1  0  0  0
 22 23  2  0  0  0
 22 24  1  0  0  0
 24 25  2  0  0  0
 24 29  1  0  0  0
 25 26  1  0  0  0
 25 30  1  0  0  0
 26 27  2  0  0  0
 27 28  1  0  0  0
 28 29  2  0  0  0
 30 31  1  0  0  0
 31 32  2  0  0  0
 12 13  2  0  0  0
 12 17  1  0  0  0
 13 14  1  0  0  0
 14 15  2  0  0  0
 15 16  1  0  0  0
 15 18  1  0  0  0
 16 17  2  0  0  0
 21 33  1  0  0  0
 30 34  1  0  0  0
M  END
> <minimizedAffinity>
-9.37429

$$$$
2417


 27 30  0  0  0  0  0  0  0  0999 V2000
   19.2775   33.9330   71.7252 N   0  0  0  0  0  0  0  0  0  0  0  0
   17.9496   33.8461   71.0748 C   0  0  0  0  0  0  0  0  0  0  0  0
   17.0536   34.3619   72.1054 C   0  0  0  0  0  0  0  0  0  0  0  0
   17.4743   33.5145   73.2955 C   0  0  0  0  0  0  0  0  0  0  0  0
   19.0358   33.7107   73.0862 C   0  0  0  0  0  0  0  0  0  0  0  0
   17.2646   32.0515   73.0310 C   0  0  0  0  0  0  0  0  0  0  0  0
   18.4037   31.3298   73.4749 O   0  0  0  0  0  0  0  0  0  0  0  0
   18.4458   31.4925   74.4945 H   0  0  0  0  0  0  0  0  0  0  0  0
   19.8486   35.2230   71.3093 C   0  0  0  0  0  0  0  0  0  0  0  0
   18.2526   37.3865   69.8730 Cl  0  0  0  0  0  0  0  0  0  0  0  0
   19.4274   36.9756   68.6280 C   0  0  0  0  0  0  0  0  0  0  0  0
   20.2981   35.9449   68.8898 C   0  0  0  0  0  0  0  0  0  0  0  0
   21.1481   35.5610   67.8785 C   0  0  0  0  0  0  0  0  0  0  0  0
   21.9271   34.6017   68.4245 N   0  0  0  0  0  0  0  0  0  0  0  0
   21.5946   34.4248   69.6753 N   0  0  0  0  0  0  0  0  0  0  0  0
   20.5525   35.2515   70.0520 C   0  0  0  0  0  0  0  0  0  0  0  0
   22.9090   33.8059   67.6672 C   0  0  0  0  0  0  0  0  0  0  0  0
   21.1619   36.1643   66.6580 C   0  0  0  0  0  0  0  0  0  0  0  0
   20.2730   37.2149   66.4112 C   0  0  0  0  0  0  0  0  0  0  0  0
   19.4028   37.6173   67.4192 C   0  0  0  0  0  0  0  0  0  0  0  0
   15.5781   34.1947   71.8394 C   0  0  0  0  0  0  0  0  0  0  0  0
   15.2429   34.9397   70.6668 N   0  0  0  0  0  0  0  0  0  0  0  0
   14.2511   34.2818   69.8424 C   0  0  0  0  0  0  0  0  0  0  0  0
   13.0043   35.1063   69.6210 C   0  0  0  0  0  0  0  0  0  0  0  0
   13.2474   36.3690   69.1310 O   0  0  0  0  0  0  0  0  0  0  0  0
   14.4150   36.9304   69.6398 C   0  0  0  0  0  0  0  0  0  0  0  0
   14.7560   36.2718   70.9414 C   0  0  0  0  0  0  0  0  0  0  0  0
 10 11  1  0  0  0
 11 12  2  0  0  0
 11 20  1  0  0  0
 12 13  1  0  0  0
 12 16  1  0  0  0
 13 14  1  0  0  0
 13 18  2  0  0  0
 14 15  1  0  0  0
 14 17  1  0  0  0
 15 16  2  0  0  0
 16  9  1  0  0  0
  9  1  1  0  0  0
  1  2  1  0  0  0
  1  5  1  0  0  0
  2  3  1  0  0  0
  3  4  1  0  0  0
  3 21  1  0  0  0
  4  5  1  0  0  0
  4  6  1  0  0  0
  6  7  1  0  0  0
 21 22  1  0  0  0
 22 23  1  0  0  0
 22 27  1  0  0  0
 23 24  1  0  0  0
 24 25  1  0  0  0
 25 26  1  0  0  0
 26 27  1  0  0  0
 18 19  1  0  0  0
 19 20  2  0  0  0
  7  8  1  0  0  0
M  END
> <minimizedAffinity>
-8.13090

$$$$
2419


 32 36  0  0  0  0  0  0  0  0999 V2000
   19.7095   34.1846   70.2088 C   0  0  0  0  0  0  0  0  0  0  0  0
   20.7223   33.4805   69.5367 C   0  0  0  0  0  0  0  0  0  0  0  0
   21.4501   34.3831   68.8913 N   0  0  0  0  0  0  0  0  0  0  0  0
   22.5395   34.4367   68.0652 C   0  0  0  0  0  0  0  0  0  0  0  0
   22.7101   35.7675   67.7776 C   0  0  0  0  0  0  0  0  0  0  0  0
   21.7587   36.4343   68.4131 N   0  0  0  0  0  0  0  0  0  0  0  0
   20.9614   35.5797   69.1160 C   0  0  0  0  0  0  0  0  0  0  0  0
   19.8740   35.4839   69.9371 N   0  0  0  0  0  0  0  0  0  0  0  0
   23.7445   36.2060   66.9459 C   0  0  0  0  0  0  0  0  0  0  0  0
   24.6166   35.2885   66.4008 C   0  0  0  0  0  0  0  0  0  0  0  0
   24.4242   33.9600   66.7051 C   0  0  0  0  0  0  0  0  0  0  0  0
   23.3976   33.5158   67.5303 C   0  0  0  0  0  0  0  0  0  0  0  0
   21.6566   37.4651   68.3521 H   0  0  0  0  0  0  0  0  0  0  0  0
   15.3554   31.2109   73.4284 Br  0  0  0  0  0  0  0  0  0  0  0  0
   16.7151   32.1505   72.4397 C   0  0  0  0  0  0  0  0  0  0  0  0
   16.9413   31.8989   71.1213 C   0  0  0  0  0  0  0  0  0  0  0  0
   17.9063   32.5680   70.4248 C   0  0  0  0  0  0  0  0  0  0  0  0
   18.7019   33.5297   71.0143 C   0  0  0  0  0  0  0  0  0  0  0  0
   18.4785   33.7811   72.3252 C   0  0  0  0  0  0  0  0  0  0  0  0
   17.4816   33.0958   73.0615 C   0  0  0  0  0  0  0  0  0  0  0  0
   19.1358   36.6443   70.3323 C   0  0  0  0  0  0  0  0  0  0  0  0
   18.2287   37.2447   69.3357 C   0  0  0  0  0  0  0  0  0  0  0  0
   16.7903   37.3987   69.6758 C   0  0  0  0  0  0  0  0  0  0  0  0
   16.3863   36.5066   70.7400 N   0  0  0  0  0  0  0  0  0  0  0  0
   17.1201   35.9451   71.1648 H   0  0  0  0  0  0  0  0  0  0  0  0
   16.0681   37.1584   71.5466 H   0  0  0  0  0  0  0  0  0  0  0  0
   15.2242   35.7320   70.4191 C   0  0  0  0  0  0  0  0  0  0  0  0
   14.6511   34.9416   71.5612 C   0  0  0  0  0  0  0  0  0  0  0  0
   13.7747   33.8511   70.9272 C   0  0  0  0  0  0  0  0  0  0  0  0
   12.6713   34.5089   70.1736 C   0  0  0  0  0  0  0  0  0  0  0  0
   13.1439   35.5457   69.1811 C   0  0  0  0  0  0  0  0  0  0  0  0
   14.0721   36.5582   69.8617 C   0  0  0  0  0  0  0  0  0  0  0  0
 14 15  1  0  0  0
 15 16  2  0  0  0
 15 20  1  0  0  0
 16 17  1  0  0  0
 17 18  2  0  0  0
 18 19  1  0  0  0
 18  1  1  0  0  0
 19 20  2  0  0  0
  1  2  2  0  0  0
  1  8  1  0  0  0
  2  3  1  0  0  0
  3  4  1  0  0  0
  3  7  1  0  0  0
  4  5  2  0  0  0
  4 12  1  0  0  0
  5  6  1  0  0  0
  5  9  1  0  0  0
  6  7  2  0  0  0
  7  8  1  0  0  0
  8 21  1  0  0  0
 21 22  1  0  0  0
 22 23  1  0  0  0
 23 24  1  0  0  0
 24 27  1  0  0  0
 27 28  1  0  0  0
 27 32  1  0  0  0
 28 29  1  0  0  0
 29 30  1  0  0  0
 30 31  1  0  0  0
 31 32  1  0  0  0
  9 10  2  0  0  0
 10 11  1  0  0  0
 11 12  2  0  0  0
  6 13  1  0  0  0
 24 25  1  0  0  0
 24 26  1  0  0  0
M  CHG 1  24   1
M  END
> <minimizedAffinity>
-8.79304

$$$$
2420


 29 32  0  0  0  0  0  0  0  0999 V2000
   19.3477   33.9855   71.1402 N   0  0  0  0  0  0  0  0  0  0  0  0
   19.4548   32.7118   70.4312 C   0  0  0  0  0  0  0  0  0  0  0  0
   20.8230   32.2117   70.8375 C   0  0  0  0  0  0  0  0  0  0  0  0
   20.8527   32.5322   72.3273 C   0  0  0  0  0  0  0  0  0  0  0  0
   19.9458   33.7306   72.4145 C   0  0  0  0  0  0  0  0  0  0  0  0
   19.7365   34.4197   73.4569 O   0  0  0  0  0  0  0  0  0  0  0  0
   13.0712   36.8668   69.6427 Br  0  0  0  0  0  0  0  0  0  0  0  0
   14.8406   36.2576   69.9896 C   0  0  0  0  0  0  0  0  0  0  0  0
   15.9249   37.0775   69.7705 C   0  0  0  0  0  0  0  0  0  0  0  0
   17.1988   36.6577   70.0137 C   0  0  0  0  0  0  0  0  0  0  0  0
   18.4377   37.2152   69.9010 N   0  0  0  0  0  0  0  0  0  0  0  0
   19.3532   36.3386   70.2846 N   0  0  0  0  0  0  0  0  0  0  0  0
   18.7744   35.1900   70.6585 C   0  0  0  0  0  0  0  0  0  0  0  0
   17.4092   35.3866   70.4888 C   0  0  0  0  0  0  0  0  0  0  0  0
   16.3331   34.5383   70.7187 C   0  0  0  0  0  0  0  0  0  0  0  0
   15.0472   34.9641   70.4727 C   0  0  0  0  0  0  0  0  0  0  0  0
   18.5399   38.2006   69.5520 H   0  0  0  0  0  0  0  0  0  0  0  0
   21.9081   32.9363   70.1339 C   0  0  0  0  0  0  0  0  0  0  0  0
   22.9850   33.1343   70.7494 O   0  0  0  0  0  0  0  0  0  0  0  0
   21.7739   33.4083   68.8084 N   0  0  0  0  0  0  0  0  0  0  0  0
   20.8572   33.2257   68.3257 H   0  0  0  0  0  0  0  0  0  0  0  0
   22.8240   34.1123   68.1186 C   0  0  0  0  0  0  0  0  0  0  0  0
   22.5742   35.6031   68.2043 C   0  0  0  0  0  0  0  0  0  0  0  0
   22.6553   36.2612   66.9235 N   0  0  0  0  0  0  0  0  0  0  0  0
   21.2989   36.3550   66.3951 C   0  0  0  0  0  0  0  0  0  0  0  0
   20.5934   37.5839   66.9622 C   0  0  0  0  0  0  0  0  0  0  0  0
   21.1381   38.7631   66.5107 O   0  0  0  0  0  0  0  0  0  0  0  0
   22.4324   38.5437   66.1003 C   0  0  0  0  0  0  0  0  0  0  0  0
   23.1767   37.6050   67.0278 C   0  0  0  0  0  0  0  0  0  0  0  0
  7  8  1  0  0  0
  8  9  2  0  0  0
  8 16  1  0  0  0
  9 10  1  0  0  0
 10 11  1  0  0  0
 10 14  2  0  0  0
 11 12  1  0  0  0
 12 13  2  0  0  0
 13 14  1  0  0  0
 13  1  1  0  0  0
 14 15  1  0  0  0
 15 16  2  0  0  0
  1  2  1  0  0  0
  1  5  1  0  0  0
  2  3  1  0  0  0
  3  4  1  0  0  0
  3 18  1  0  0  0
  4  5  1  0  0  0
  5  6  2  0  0  0
 18 19  2  0  0  0
 18 20  1  0  0  0
 20 22  1  0  0  0
 22 23  1  0  0  0
 23 24  1  0  0  0
 24 25  1  0  0  0
 24 29  1  0  0  0
 25 26  1  0  0  0
 26 27  1  0  0  0
 27 28  1  0  0  0
 28 29  1  0  0  0
 11 17  1  0  0  0
 20 21  1  0  0  0
M  END
> <minimizedAffinity>
-7.96568

$$$$
2432


 26 29  0  0  0  0  0  0  0  0999 V2000
   21.3601   36.7789   69.2099 C   0  0  0  0  0  0  0  0  0  0  0  0
   21.9075   37.4083   70.2332 O   0  0  0  0  0  0  0  0  0  0  0  0
   22.1854   35.9481   68.4690 N   0  0  0  0  0  0  0  0  0  0  0  0
   23.6150   35.8700   68.8558 C   0  0  0  0  0  0  0  0  0  0  0  0
   24.3942   36.3559   67.6630 C   0  0  0  0  0  0  0  0  0  0  0  0
   23.6086   36.6009   66.4952 N   0  0  0  0  0  0  0  0  0  0  0  0
   22.4069   35.8577   66.1458 C   0  0  0  0  0  0  0  0  0  0  0  0
   21.8738   35.1195   67.3642 C   0  0  0  0  0  0  0  0  0  0  0  0
   23.9890   37.6296   65.5907 C   0  0  0  0  0  0  0  0  0  0  0  0
   25.0398   37.4754   64.7635 N   0  0  0  0  0  0  0  0  0  0  0  0
   25.4175   38.4453   63.8975 C   0  0  0  0  0  0  0  0  0  0  0  0
   24.7418   39.6057   63.8398 N   0  0  0  0  0  0  0  0  0  0  0  0
   23.6822   39.8374   64.6314 C   0  0  0  0  0  0  0  0  0  0  0  0
   22.8525   40.8885   64.7666 N   0  0  0  0  0  0  0  0  0  0  0  0
   21.9776   40.5739   65.7006 N   0  0  0  0  0  0  0  0  0  0  0  0
   22.2181   39.3317   66.1817 C   0  0  0  0  0  0  0  0  0  0  0  0
   23.3055   38.8246   65.5204 C   0  0  0  0  0  0  0  0  0  0  0  0
   22.8845   42.1554   64.0350 C   0  0  0  0  0  0  0  0  0  0  0  0
   16.6765   38.3236   67.2799 Cl  0  0  0  0  0  0  0  0  0  0  0  0
   17.9541   37.7180   68.3118 C   0  0  0  0  0  0  0  0  0  0  0  0
   19.2814   37.5961   68.0310 N   0  0  0  0  0  0  0  0  0  0  0  0
   19.9626   37.0923   69.0613 C   0  0  0  0  0  0  0  0  0  0  0  0
   18.9849   36.8911   70.0443 C   0  0  0  0  0  0  0  0  0  0  0  0
   17.7454   37.2740   69.5893 C   0  0  0  0  0  0  0  0  0  0  0  0
   16.2165   37.2163   70.4400 Cl  0  0  0  0  0  0  0  0  0  0  0  0
   19.6207   37.9010   67.0969 H   0  0  0  0  0  0  0  0  0  0  0  0
 19 20  1  0  0  0
 20 21  1  0  0  0
 20 24  2  0  0  0
 21 22  1  0  0  0
 22 23  2  0  0  0
 22  1  1  0  0  0
 23 24  1  0  0  0
 24 25  1  0  0  0
  1  2  2  0  0  0
  1  3  1  0  0  0
  3  4  1  0  0  0
  3  8  1  0  0  0
  4  5  1  0  0  0
  5  6  1  0  0  0
  6  7  1  0  0  0
  6  9  1  0  0  0
  7  8  1  0  0  0
  9 10  2  0  0  0
  9 17  1  0  0  0
 10 11  1  0  0  0
 11 12  2  0  0  0
 12 13  1  0  0  0
 13 14  1  0  0  0
 13 17  2  0  0  0
 14 15  1  0  0  0
 14 18  1  0  0  0
 15 16  2  0  0  0
 16 17  1  0  0  0
 21 26  1  0  0  0
M  END
> <minimizedAffinity>
-8.03542

$$$$
2439


 30 34  0  0  0  0  0  0  0  0999 V2000
   18.9978   34.6677   70.4984 C   0  0  0  0  0  0  0  0  0  0  0  0
   20.1229   34.1358   69.8432 C   0  0  0  0  0  0  0  0  0  0  0  0
   20.7470   35.1137   69.1903 N   0  0  0  0  0  0  0  0  0  0  0  0
   21.8145   35.3646   68.3885 C   0  0  0  0  0  0  0  0  0  0  0  0
   21.7839   36.6867   68.1030 C   0  0  0  0  0  0  0  0  0  0  0  0
   20.7153   37.2021   68.7281 N   0  0  0  0  0  0  0  0  0  0  0  0
   20.0599   36.2362   69.4100 C   0  0  0  0  0  0  0  0  0  0  0  0
   18.9782   35.9779   70.2158 N   0  0  0  0  0  0  0  0  0  0  0  0
   22.7534   37.2556   67.2963 C   0  0  0  0  0  0  0  0  0  0  0  0
   23.7731   36.4834   66.7640 C   0  0  0  0  0  0  0  0  0  0  0  0
   23.8044   35.1266   67.0574 C   0  0  0  0  0  0  0  0  0  0  0  0
   22.8238   34.5948   67.8643 C   0  0  0  0  0  0  0  0  0  0  0  0
   20.4140   38.2106   68.6918 H   0  0  0  0  0  0  0  0  0  0  0  0
   15.1340   30.8784   73.5274 Br  0  0  0  0  0  0  0  0  0  0  0  0
   16.3149   32.0455   72.6105 C   0  0  0  0  0  0  0  0  0  0  0  0
   16.5552   31.9200   71.2733 C   0  0  0  0  0  0  0  0  0  0  0  0
   17.4216   32.7882   70.6383 C   0  0  0  0  0  0  0  0  0  0  0  0
   18.0938   33.8232   71.2873 C   0  0  0  0  0  0  0  0  0  0  0  0
   17.8458   33.9387   72.6198 C   0  0  0  0  0  0  0  0  0  0  0  0
   16.9595   33.0511   73.2768 C   0  0  0  0  0  0  0  0  0  0  0  0
   18.0321   36.9662   70.6158 C   0  0  0  0  0  0  0  0  0  0  0  0
   16.8937   37.2038   69.6571 C   0  0  0  0  0  0  0  0  0  0  0  0
   15.8573   36.1732   69.5859 C   0  0  0  0  0  0  0  0  0  0  0  0
   14.6639   36.3109   70.3678 N   0  0  0  0  0  0  0  0  0  0  0  0
   13.4634   36.3275   69.5514 C   0  0  0  0  0  0  0  0  0  0  0  0
   12.8632   35.0207   69.2487 C   0  0  0  0  0  0  0  0  0  0  0  0
   13.3735   33.8567   70.0136 C   0  0  0  0  0  0  0  0  0  0  0  0
   13.7599   34.2472   71.3960 C   0  0  0  0  0  0  0  0  0  0  0  0
   14.5880   35.4720   71.5107 C   0  0  0  0  0  0  0  0  0  0  0  0
   14.6974   37.2933   70.7217 H   0  0  0  0  0  0  0  0  0  0  0  0
 14 15  1  0  0  0
 15 16  2  0  0  0
 15 20  1  0  0  0
 16 17  1  0  0  0
 17 18  2  0  0  0
 18 19  1  0  0  0
 18  1  1  0  0  0
 19 20  2  0  0  0
  1  2  2  0  0  0
  1  8  1  0  0  0
  2  3  1  0  0  0
  3  4  1  0  0  0
  3  7  1  0  0  0
  4  5  2  0  0  0
  4 12  1  0  0  0
  5  6  1  0  0  0
  5  9  1  0  0  0
  6  7  2  0  0  0
  7  8  1  0  0  0
  8 21  1  0  0  0
 21 22  1  0  0  0
 22 23  1  0  0  0
 23 24  1  0  0  0
 24 25  1  0  0  0
 24 29  1  0  0  0
 25 26  1  0  0  0
 26 27  1  0  0  0
 27 28  1  0  0  0
 28 29  1  0  0  0
  9 10  2  0  0  0
 10 11  1  0  0  0
 11 12  2  0  0  0
  6 13  1  0  0  0
 24 30  1  0  0  0
M  CHG 1  24   1
M  END
> <minimizedAffinity>
-8.36599

$$$$
2440


 33 36  0  0  0  0  0  0  0  0999 V2000
   15.3372   29.5765   74.6049 Cl  0  0  0  0  0  0  0  0  0  0  0  0
   15.0188   30.5195   73.1522 C   0  0  0  0  0  0  0  0  0  0  0  0
   15.8279   31.6433   72.9275 C   0  0  0  0  0  0  0  0  0  0  0  0
   15.5772   32.3728   71.7976 C   0  0  0  0  0  0  0  0  0  0  0  0
   14.5507   32.0105   70.9001 C   0  0  0  0  0  0  0  0  0  0  0  0
   13.7656   30.9095   71.1308 C   0  0  0  0  0  0  0  0  0  0  0  0
   14.0227   30.1781   72.2699 C   0  0  0  0  0  0  0  0  0  0  0  0
   16.5386   33.4831   71.7561 C   0  0  0  0  0  0  0  0  0  0  0  0
   15.9551   34.7652   71.5845 N   0  0  0  0  0  0  0  0  0  0  0  0
   16.8203   35.6413   70.9255 C   0  0  0  0  0  0  0  0  0  0  0  0
   17.8557   34.7524   70.2715 C   0  0  0  0  0  0  0  0  0  0  0  0
   17.4781   33.3362   70.5607 C   0  0  0  0  0  0  0  0  0  0  0  0
   18.7221   32.6018   70.9109 C   0  0  0  0  0  0  0  0  0  0  0  0
   18.7734   31.3654   71.1084 O   0  0  0  0  0  0  0  0  0  0  0  0
   19.7886   33.5497   70.9725 N   0  0  0  0  0  0  0  0  0  0  0  0
   19.1872   34.8516   70.9085 C   0  0  0  0  0  0  0  0  0  0  0  0
   19.7199   35.8907   71.3291 O   0  0  0  0  0  0  0  0  0  0  0  0
   17.3368   33.3528   72.9785 C   0  0  0  0  0  0  0  0  0  0  0  0
   18.2751   34.0973   73.4020 O   0  0  0  0  0  0  0  0  0  0  0  0
   16.8964   32.2055   73.6793 N   0  0  0  0  0  0  0  0  0  0  0  0
   15.4156   35.1299   72.3868 H   0  0  0  0  0  0  0  0  0  0  0  0
   17.2558   31.8071   74.5786 H   0  0  0  0  0  0  0  0  0  0  0  0
   21.1925   33.2930   71.0711 C   0  0  0  0  0  0  0  0  0  0  0  0
   21.8909   32.9812   69.7964 C   0  0  0  0  0  0  0  0  0  0  0  0
   22.4277   34.1380   69.0309 C   0  0  0  0  0  0  0  0  0  0  0  0
   21.4830   34.5662   67.9136 C   0  0  0  0  0  0  0  0  0  0  0  0
   16.2615   36.6601   70.0101 C   0  0  0  0  0  0  0  0  0  0  0  0
   17.0647   37.8660   69.7276 C   0  0  0  0  0  0  0  0  0  0  0  0
   17.7896   37.9152   68.4536 C   0  0  0  0  0  0  0  0  0  0  0  0
   18.9852   37.5733   68.3916 O   0  0  0  0  0  0  0  0  0  0  0  0
   17.1857   38.3448   67.2362 N   0  0  0  0  0  0  0  0  0  0  0  0
   16.4439   37.8133   66.7471 H   0  0  0  0  0  0  0  0  0  0  0  0
   17.5010   39.2350   66.8151 H   0  0  0  0  0  0  0  0  0  0  0  0
  1  2  1  0  0  0
  2  3  2  0  0  0
  2  7  1  0  0  0
  3  4  1  0  0  0
  3 20  1  0  0  0
  4  5  2  0  0  0
  4  8  1  0  0  0
  5  6  1  0  0  0
  6  7  2  0  0  0
  8  9  1  0  0  0
  8 12  1  0  0  0
  8 18  1  0  0  0
  9 10  1  0  0  0
 10 11  1  0  0  0
 10 27  1  0  0  0
 11 12  1  0  0  0
 11 16  1  0  0  0
 12 13  1  0  0  0
 13 14  2  0  0  0
 13 15  1  0  0  0
 15 16  1  0  0  0
 15 23  1  0  0  0
 16 17  2  0  0  0
 23 24  1  0  0  0
 24 25  1  0  0  0
 25 26  1  0  0  0
 27 28  1  0  0  0
 28 29  1  0  0  0
 29 30  2  0  0  0
 29 31  1  0  0  0
 18 19  2  0  0  0
 18 20  1  0  0  0
  9 21  1  0  0  0
 31 32  1  0  0  0
 31 33  1  0  0  0
 20 22  1  0  0  0
M  END
> <minimizedAffinity>
-8.32348

$$$$
2447


 33 36  0  0  0  0  0  0  0  0999 V2000
   21.3885   35.2788   69.8240 C   0  0  0  0  0  0  0  0  0  0  0  0
   20.9008   36.2748   70.8216 C   0  0  0  0  0  0  0  0  0  0  0  0
   20.6493   37.4658   70.5199 O   0  0  0  0  0  0  0  0  0  0  0  0
   20.7546   35.7577   72.1062 O   0  0  0  0  0  0  0  0  0  0  0  0
   20.4730   34.4387   72.3943 C   0  0  0  0  0  0  0  0  0  0  0  0
   20.3271   33.5846   71.3578 C   0  0  0  0  0  0  0  0  0  0  0  0
   20.4709   34.0984   70.0128 C   0  0  0  0  0  0  0  0  0  0  0  0
   19.8722   33.6061   69.0418 O   0  0  0  0  0  0  0  0  0  0  0  0
   21.3533   35.7826   68.4248 C   0  0  0  0  0  0  0  0  0  0  0  0
   24.0622   35.0268   65.4072 N   0  0  0  0  0  0  0  0  0  0  0  0
   23.0173   35.9892   65.5107 C   0  0  0  0  0  0  0  0  0  0  0  0
   23.0478   36.5915   66.9017 C   0  0  0  0  0  0  0  0  0  0  0  0
   22.6211   35.5661   67.8214 N   0  0  0  0  0  0  0  0  0  0  0  0
   22.9576   34.2415   67.4523 C   0  0  0  0  0  0  0  0  0  0  0  0
   24.2390   34.2941   66.6191 C   0  0  0  0  0  0  0  0  0  0  0  0
   25.4949   35.6054   64.7001 S   0  0  0  0  0  0  0  0  0  0  0  0
   26.6670   34.6614   64.8623 O   0  0  0  0  0  0  0  0  0  0  0  0
   25.2634   35.7257   63.1997 O   0  0  0  0  0  0  0  0  0  0  0  0
   25.9820   37.1879   65.2770 C   0  0  0  0  0  0  0  0  0  0  0  0
   20.0093   32.1678   71.5822 C   0  0  0  0  0  0  0  0  0  0  0  0
   18.6553   31.8830   71.8247 N   0  0  0  0  0  0  0  0  0  0  0  0
   17.7764   31.5951   70.7736 C   0  0  0  0  0  0  0  0  0  0  0  0
   16.3151   31.8498   71.2079 C   0  0  0  0  0  0  0  0  0  0  0  0
   16.3343   33.1518   71.8240 N   0  0  0  0  0  0  0  0  0  0  0  0
   17.0279   33.1997   73.1031 C   0  0  0  0  0  0  0  0  0  0  0  0
   18.1280   32.1471   73.1138 C   0  0  0  0  0  0  0  0  0  0  0  0
   15.7427   34.2848   71.2318 C   0  0  0  0  0  0  0  0  0  0  0  0
   16.4392   35.4208   70.8874 C   0  0  0  0  0  0  0  0  0  0  0  0
   15.8108   36.4981   70.3076 C   0  0  0  0  0  0  0  0  0  0  0  0
   14.4619   36.5044   70.0399 C   0  0  0  0  0  0  0  0  0  0  0  0
   13.7407   35.3868   70.3719 C   0  0  0  0  0  0  0  0  0  0  0  0
   14.3710   34.2985   70.9573 C   0  0  0  0  0  0  0  0  0  0  0  0
   16.7472   37.9091   69.8950 Cl  0  0  0  0  0  0  0  0  0  0  0  0
 16 17  2  0  0  0
 16 18  2  0  0  0
 16 10  1  0  0  0
 16 19  1  0  0  0
 10 11  1  0  0  0
 10 15  1  0  0  0
 11 12  1  0  0  0
 12 13  1  0  0  0
 13 14  1  0  0  0
 13  9  1  0  0  0
 14 15  1  0  0  0
  9  1  1  0  0  0
  1  2  1  0  0  0
  1  7  1  0  0  0
  2  3  2  0  0  0
  2  4  1  0  0  0
  4  5  1  0  0  0
  5  6  2  0  0  0
  6  7  1  0  0  0
  6 20  1  0  0  0
  7  8  2  0  0  0
 20 21  1  0  0  0
 21 22  1  0  0  0
 21 26  1  0  0  0
 22 23  1  0  0  0
 23 24  1  0  0  0
 24 25  1  0  0  0
 24 27  1  0  0  0
 25 26  1  0  0  0
 27 28  2  0  0  0
 27 32  1  0  0  0
 28 29  1  0  0  0
 29 30  2  0  0  0
 29 33  1  0  0  0
 30 31  1  0  0  0
 31 32  2  0  0  0
M  END
> <minimizedAffinity>
-9.07802

$$$$
