REMARK  4 active torsions:
REMARK  status: ('A' for Active; 'I' for Inactive)
REMARK    1  A    between atoms: C1_1  and  C17_19 
REMARK    2  A    between atoms: C9_10  and  C10_11 
REMARK    3  A    between atoms: C12_13  and  N16_17 
REMARK       I    between atoms: N16_17  and  C22_24 
REMARK    4  A    between atoms: C22_24  and  C24_26 
ROOT
ATOM      1  C1  Q35 B   1     -39.203 -68.412  51.697  0.00  0.00     0.014 A 
ATOM      2  C2  Q35 B   1     -38.547 -69.468  52.334  0.00  0.00     0.018 A 
ATOM      3  C3  Q35 B   1     -39.038 -69.977  53.543  0.00  0.00     0.033 A 
ATOM      4  C4  Q35 B   1     -40.351 -67.854  52.256  0.00  0.00     0.031 A 
ATOM      5  C5  Q35 B   1     -40.835 -68.368  53.450  0.00  0.00     0.024 A 
ATOM      6  C6  Q35 B   1     -40.189 -69.415  54.090  0.00  0.00     0.062 A 
ATOM      7  N7  Q35 B   1     -40.882 -69.686  55.203  0.00  0.00    -0.277 N 
ATOM      8  H7  Q35 B   1     -40.660 -70.404  55.877  0.00  0.00     0.189 HD
ATOM      9  N8  Q35 B   1     -41.962 -68.807  55.272  0.00  0.00    -0.173 NA
ATOM     10  C9  Q35 B   1     -41.935 -67.989  54.211  0.00  0.00     0.099 A 
ENDROOT
BRANCH  10  11
ATOM     11  C10 Q35 B   1     -42.975 -66.951  53.939  0.00  0.00    -0.003 A 
ATOM     12  C11 Q35 B   1     -44.270 -67.280  54.329  0.00  0.00     0.043 A 
ATOM     13  C12 Q35 B   1     -45.339 -66.418  54.113  0.00  0.00     0.035 A 
ATOM     14  C13 Q35 B   1     -45.118 -65.188  53.489  0.00  0.00     0.029 A 
ATOM     15  C14 Q35 B   1     -43.820 -64.854  53.086  0.00  0.00     0.003 A 
ATOM     16  C15 Q35 B   1     -42.751 -65.730  53.301  0.00  0.00     0.014 A 
BRANCH  13  17
ATOM     17  N16 Q35 B   1     -46.556 -66.834  54.561  0.00  0.00    -0.321 N 
ATOM     18  H16 Q35 B   1     -46.572 -67.339  55.436  0.00  0.00     0.169 HD
ATOM     19  C22 Q35 B   1     -47.731 -66.639  53.955  0.00  0.00     0.279 C 
ATOM     20  O23 Q35 B   1     -47.811 -66.048  52.897  0.00  0.00    -0.265 OA
BRANCH  19  21
ATOM     21  C24 Q35 B   1     -48.842 -67.101  54.543  0.00  0.00     0.142 A 
ATOM     22  C25 Q35 B   1     -48.916 -67.819  55.672  0.00  0.00     0.045 A 
ATOM     23  C26 Q35 B   1     -50.127 -68.097  55.943  0.00  0.00     0.027 A 
ATOM     24  C27 Q35 B   1     -50.959 -67.641  55.096  0.00  0.00     0.143 A 
ATOM     25  O28 Q35 B   1     -50.198 -66.936  54.077  0.00  0.00    -0.317 OA
ENDBRANCH  19  21
ENDBRANCH  13  17
ENDBRANCH  10  11
BRANCH   1  26
ATOM     26  C17 Q35 B   1     -38.675 -67.866  50.416  0.00  0.00     0.178 A 
ATOM     27  N18 Q35 B   1     -37.565 -68.284  49.771  0.00  0.00    -0.133 NA
ATOM     28  N19 Q35 B   1     -37.441 -67.513  48.608  0.00  0.00    -0.169 NA
ATOM     29  C20 Q35 B   1     -38.477 -66.650  48.589  0.00  0.00     0.324 A 
ATOM     30  N21 Q35 B   1     -39.222 -66.867  49.695  0.00  0.00    -0.246 NA
ENDBRANCH   1  26
TORSDOF 4
