REMARK  8 active torsions:
REMARK  status: ('A' for Active; 'I' for Inactive)
REMARK    1  A    between atoms: C11_1  and  N3_38 
REMARK    2  A    between atoms: C10_10  and  N1_11 
REMARK    3  A    between atoms: N1_11  and  C9_13 
REMARK    4  A    between atoms: C2_14  and  O1_15 
REMARK    5  A    between atoms: C4_19  and  C5_21 
REMARK    6  A    between atoms: C5_21  and  S_22 
REMARK       I    between atoms: C18_27  and  N4_28 
REMARK    7  A    between atoms: C18_27  and  C17_31 
REMARK    8  A    between atoms: C12_37  and  N3_38 
ROOT
ATOM      1  C11 GS7 A   1      20.773   8.519  32.340  0.00  0.00     0.161 A 
ATOM      2  N2  GS7 A   1      21.392   7.376  31.996  0.00  0.00    -0.044 NA
ATOM      3  C19 GS7 A   1      19.521   8.397  32.906  0.00  0.00     0.058 A 
ATOM      4  C22 GS7 A   1      19.013   7.134  33.072  0.00  0.00     0.160 A 
ATOM      5  N5  GS7 A   1      17.777   7.249  33.640  0.00  0.00    -0.349 N 
ATOM      6  H5  GS7 A   1      17.171   6.475  33.873  0.00  0.00     0.166 HD
ATOM      7  C21 GS7 A   1      17.481   8.566  33.847  0.00  0.00     0.091 A 
ATOM      8  C20 GS7 A   1      18.551   9.309  33.398  0.00  0.00     0.036 A 
ATOM      9  N6  GS7 A   1      19.610   5.995  32.741  0.00  0.00    -0.044 NA
ATOM     10  C10 GS7 A   1      20.816   6.185  32.201  0.00  0.00     0.731 A 
ENDROOT
BRANCH  10  11
ATOM     11  N1  GS7 A   1      21.493   5.007  31.827  0.00  0.00    -0.185 N 
ATOM     12  H1  GS7 A   1      21.036   4.125  32.009  0.00  0.00     0.184 HD
BRANCH  11  13
ATOM     13  C9  GS7 A   1      22.763   4.974  31.217  0.00  0.00     0.082 A 
ATOM     14  C2  GS7 A   1      23.699   4.063  31.658  0.00  0.00     0.096 A 
ATOM     15  C3  GS7 A   1      24.955   3.993  31.080  0.00  0.00     0.047 A 
ATOM     16  C4  GS7 A   1      25.279   4.845  30.044  0.00  0.00    -0.042 A 
ATOM     17  C7  GS7 A   1      24.344   5.759  29.605  0.00  0.00     0.010 A 
ATOM     18  C8  GS7 A   1      23.094   5.819  30.179  0.00  0.00     0.033 A 
BRANCH  14  19
ATOM     19  O1  GS7 A   1      23.295   3.243  32.703  0.00  0.00    -0.354 OA
ATOM     20  C1  GS7 A   1      24.183   2.140  32.823  0.00  0.00     0.210 C 
ENDBRANCH  14  19
BRANCH  16  21
ATOM     21  C5  GS7 A   1      26.629   4.808  29.404  0.00  0.00     0.178 C 
BRANCH  21  22
ATOM     22  S   GS7 A   1      26.539   3.791  27.947  0.00  0.00     0.144 S 
ATOM     23  O2  GS7 A   1      25.629   4.405  26.998  0.00  0.00    -0.228 OA
ATOM     24  O3  GS7 A   1      26.333   2.424  28.388  0.00  0.00    -0.228 OA
ATOM     25  C6  GS7 A   1      28.178   3.920  27.298  0.00  0.00     0.161 C 
ENDBRANCH  21  22
ENDBRANCH  16  21
ENDBRANCH  11  13
ENDBRANCH  10  11
BRANCH   1  26
ATOM     26  N3  GS7 A   1      21.265   9.819  32.179  0.00  0.00    -0.339 N 
ATOM     27  H3  GS7 A   1      20.596  10.564  32.308  0.00  0.00     0.167 HD
BRANCH  26  28
ATOM     28  C12 GS7 A   1      22.569  10.215  31.861  0.00  0.00     0.052 A 
ATOM     29  C17 GS7 A   1      22.827  11.564  31.706  0.00  0.00     0.097 A 
ATOM     30  C16 GS7 A   1      24.094  12.008  31.394  0.00  0.00     0.134 A 
ATOM     31  F   GS7 A   1      24.347  13.317  31.244  0.00  0.00    -0.205 F 
ATOM     32  C15 GS7 A   1      25.119  11.105  31.231  0.00  0.00     0.043 A 
ATOM     33  C14 GS7 A   1      24.871   9.760  31.383  0.00  0.00     0.005 A 
ATOM     34  C13 GS7 A   1      23.604   9.320  31.697  0.00  0.00     0.030 A 
BRANCH  29  35
ATOM     35  C18 GS7 A   1      21.727  12.531  31.880  0.00  0.00     0.254 C 
ATOM     36  O4  GS7 A   1      20.826  12.313  32.681  0.00  0.00    -0.268 OA
ATOM     37  N4  GS7 A   1      21.821  13.644  31.086  0.00  0.00    -0.366 N 
ATOM     38  H41 GS7 A   1      21.112  14.362  31.137  0.00  0.00     0.159 HD
ATOM     39  H42 GS7 A   1      22.599  13.746  30.450  0.00  0.00     0.159 HD
ENDBRANCH  29  35
ENDBRANCH  26  28
ENDBRANCH   1  26
TORSDOF 8
