@<TRIPOS>MOLECULE
3sx0.A
48 50 1 0 0 
SMALL
USER_CHARGES


@<TRIPOS>ATOM
  1 N       23.3590    61.9100    -3.2290 N.4   1 SX  -0.8530 
  2 H1      22.7989    62.7458    -3.1402 H     1 SX   0.4500 
  3 H2      23.4381    61.4604    -2.3280 H     1 SX   0.4500 
  4 H3      22.9196    61.2782    -3.8831 H     1 SX   0.4500 
  5 CA      24.7190    62.2730    -3.7250 C.3   1 SX   0.3170 
  6 HA      25.3246    61.3718    -3.8213 H     1 SX   0.0800 
  7 C       25.3500    63.2440    -2.7190 C.2   1 SX   0.9060 
  8 O       24.5680    63.9170    -2.0330 O.co2 1 SX  -0.9000 
  9 CB      24.6380    62.9410    -5.1170 C.3   1 SX  -0.1600 
 10 HB1     24.1995    62.2329    -5.8201 H     1 SX   0.0800 
 11 HB2     25.6465    63.1978    -5.4413 H     1 SX   0.0800 
 12 CG      23.7880    64.2110    -5.1050 C.3   1 SX   0.0700 
 13 HG1     24.2374    64.9193    -4.4090 H     1 SX   0.0800 
 14 HG2     22.7862    63.9514    -4.7628 H     1 SX   0.0800 
 15 SD      23.6470    65.0270    -6.7590 S.3   1 SX  -0.4600 
 16 C5'     21.9180    64.6680    -7.2330 C.3   1 SX   0.0700 
 17 H5'1    21.5256    65.5114    -7.8011 H     1 SX   0.0800 
 18 H5'2    21.3252    64.5320    -6.3284 H     1 SX   0.0800 
 19 C4'     21.8150    63.4200    -8.0770 C.3   1 SX   0.2000 
 20 H4'     22.3765    62.6162    -7.6008 H     1 SX   0.0800 
 21 O4'     20.3690    63.2320    -8.2230 O.3   1 SX  -0.5600 
 22 C3'     22.3850    63.5560    -9.5050 C.3   1 SX   0.2000 
 23 H3'     22.9231    64.4872    -9.6822 H     1 SX   0.0800 
 24 O3'     23.2910    62.4590    -9.7550 O.3   1 SX  -0.6800 
 25 H3'     23.5784    62.5224   -10.6688 H     1 SX   0.4000 
 26 C2'     21.1210    63.3770   -10.3880 C.3   1 SX   0.2000 
 27 H2'     20.7311    64.3261   -10.7559 H     1 SX   0.0800 
 28 O2'     21.4010    62.5260   -11.4500 O.3   1 SX  -0.6800 
 29 H2'     21.7402    61.7062   -11.0834 H     1 SX   0.4000 
 30 C1'     20.2210    62.5460    -9.4720 C.3   1 SX   0.5691 
 31 H1'     20.4948    61.4910    -9.4829 H     1 SX   0.0800 
 32 OXT     26.5930    63.3110    -2.6710 O.co2 1 SX  -0.9000 
 33 N1      16.0280    59.6590   -10.2380 N.2   1 SX  -0.6610 
 34 C2      17.2710    59.3290    -9.8880 C.2   1 SX   0.6010 
 35 H2      17.4959    58.2873    -9.7129 H     1 SX   0.0600 
 36 N3      18.2470    60.2190    -9.7440 N.2   1 SX  -0.6610 
 37 C4      17.9940    61.5140    -9.9400 C.2   1 SX   0.4856 
 38 C5      16.7190    61.9050   -10.3040 C.2   1 SX   0.0288 
 39 C6      15.7120    60.9380   -10.4630 C.2   1 SX   0.5966 
 40 N6      14.4610    61.2350   -10.8160 N.2   1 SX  -0.2000 
 41 H61     14.1981    62.1957   -10.9834 H     1 SX   0.4000 
 42 H62     13.7763    60.4993   -10.9160 H     1 SX   0.4000 
 43 C7      16.8150    63.2770   -10.4250 C.2   1 SX  -0.0282 
 44 C8      18.0660    63.6780   -10.1520 C.3   1 SX   0.3473 
 45 H81     18.0620    64.3573    -9.2996 H     1 SX   0.0800 
 46 H82     18.4925    64.1842   -11.0180 H     1 SX   0.0800 
 47 N9      18.7780    62.5900    -9.8640 N.pl3 1 SX  -0.7882 
 48 BR      15.3910    64.4800   -10.8750 Br    1 SX  -0.1100 
@<TRIPOS>BOND
  1   1   2  1   
  2   1   3  1   
  3   1   4  1   
  4   1   5  1   
  5   5   6  1   
  6   5   7  1   
  7   5   9  1   
  8   7   8  ar  
  9   7  32  ar  
 10   9  10  1   
 11   9  11  1   
 12   9  12  1   
 13  12  13  1   
 14  12  14  1   
 15  12  15  1   
 16  15  16  1   
 17  16  17  1   
 18  16  18  1   
 19  16  19  1   
 20  19  20  1   
 21  19  21  1   
 22  19  22  1   
 23  21  30  1   
 24  22  23  1   
 25  22  24  1   
 26  22  26  1   
 27  24  25  1   
 28  26  27  1   
 29  26  28  1   
 30  26  30  1   
 31  28  29  1   
 32  30  31  1   
 33  30  47  1   
 34  33  34  2   
 35  33  39  1   
 36  34  35  1   
 37  34  36  1   
 38  36  37  2   
 39  37  38  1   
 40  37  47  1   
 41  38  39  1   
 42  38  43  2   
 43  39  40  2   
 44  40  41  1   
 45  40  42  1   
 46  43  44  1   
 47  43  48  1   
 48  44  45  1   
 49  44  46  1   
 50  44  47  1   
@<TRIPOS>SUBSTRUCTURE
  1 SX  21 GROUP 4 A **** 0

# MOE 2018.01 (io_trps.svl 2018.01)
