@<TRIPOS>MOLECULE
4agl.A
25 25 1 0 0 
SMALL
USER_CHARGES


@<TRIPOS>ATOM
  1 C1      91.1500    95.7340   -44.9530 C.ar  1 P  -0.1435 
  2 C2      91.5110    95.5430   -43.6140 C.ar  1 P   0.0825 
  3 C3      91.8830    94.2830   -43.1520 C.ar  1 P   0.0810 
  4 C4      90.7150    97.0950   -45.4760 C.3   1 P   0.4865 
  5 H41     89.6425    97.1991   -45.3114 H     1 P   0.0800 
  6 H42     90.9240    97.1346   -46.5450 H     1 P   0.0800 
  7 N5      91.3970    98.2310   -44.8270 N.4   1 P  -0.9590 
  8 H5      91.4579    97.9769   -43.8514 H     1 P   0.4500 
  9 C6      91.8960    93.1760   -44.0130 C.ar  1 P  -0.1500 
 10 H6      92.1813    92.2015   -43.6452 H     1 P   0.1500 
 11 C8      91.1670    94.6180   -45.8160 C.ar  1 P  -0.1500 
 12 H8      90.8910    94.7443   -46.8525 H     1 P   0.1500 
 13 C9      92.7910    98.4320   -45.2710 C.3   1 P   0.2630 
 14 H91     93.3387    97.4936   -45.1846 H     1 P   0.0800 
 15 H92     93.2658    99.1886   -44.6464 H     1 P   0.0800 
 16 H93     92.7974    98.7621   -46.3098 H     1 P   0.0800 
 17 C10     91.5360    93.3480   -45.3510 C.ar  1 P   0.0810 
 18 C14     90.6140    99.4730   -44.9250 C.3   1 P   0.2630 
 19 H141    89.5937    99.2866   -44.5899 H     1 P   0.0800 
 20 H142    90.6000    99.8130   -45.9605 H     1 P   0.0800 
 21 H143    91.0683   100.2394   -44.2971 H     1 P   0.0800 
 22 O16     91.5240    96.6270   -42.7800 O.3   1 P  -0.5325 
 23 H16     91.8034    96.4432   -41.8801 H     1 P   0.4500 
 24 I15     92.3850    94.0740   -41.1170 I     1 P  -0.0810 
 25 I17     91.5360    91.7340   -46.6820 I     1 P  -0.0810 
@<TRIPOS>BOND
  1   1   2  ar  
  2   1   4  1   
  3   1  11  ar  
  4   2   3  ar  
  5   2  22  1   
  6   3   9  ar  
  7   3  24  1   
  8   4   5  1   
  9   4   6  1   
 10   4   7  1   
 11   7   8  1   
 12   7  13  1   
 13   7  18  1   
 14   9  10  1   
 15   9  17  ar  
 16  11  12  1   
 17  11  17  ar  
 18  13  14  1   
 19  13  15  1   
 20  13  16  1   
 21  17  25  1   
 22  18  19  1   
 23  18  20  1   
 24  18  21  1   
 25  22  23  1   
@<TRIPOS>SUBSTRUCTURE
  1 P   1 GROUP 4 A **** 0

# MOE 2018.01 (io_trps.svl 2018.01)
