REMARK  3 active torsions:
REMARK  status: ('A' for Active; 'I' for Inactive)
REMARK    1  A    between atoms: C1_1  and  C4_4 
REMARK    2  A    between atoms: C2_2  and  O16_12 
REMARK    3  A    between atoms: C4_4  and  N5_5 
ROOT
ATOM      1  C1    P A   1      91.150  95.734 -44.953  0.00  0.00     0.003 A 
ATOM      2  C2    P A   1      91.511  95.543 -43.614  0.00  0.00     0.090 A 
ATOM      3  C3    P A   1      91.883  94.283 -43.152  0.00  0.00     0.041 A 
ATOM      4  C6    P A   1      91.896  93.176 -44.013  0.00  0.00     0.039 A 
ATOM      5  C8    P A   1      91.167  94.618 -45.816  0.00  0.00     0.029 A 
ATOM      6  C10   P A   1      91.536  93.348 -45.351  0.00  0.00     0.008 A 
ATOM      7  I15   P A   1      92.385  94.074 -41.117  0.00  0.00    -0.042 I 
ATOM      8  I17   P A   1      91.536  91.734 -46.682  0.00  0.00    -0.045 I 
ENDROOT
BRANCH   1   9
ATOM      9  C4    P A   1      90.715  97.095 -45.476  0.00  0.00     0.275 C 
BRANCH   9  10
ATOM     10  N5    P A   1      91.397  98.231 -44.827  0.00  0.00    -0.075 N 
ATOM     11  H5    P A   1      91.458  97.977 -43.851  0.00  0.00     0.279 HD
ATOM     12  C9    P A   1      92.791  98.432 -45.271  0.00  0.00     0.269 C 
ATOM     13  C14   P A   1      90.614  99.473 -44.925  0.00  0.00     0.269 C 
ENDBRANCH   9  10
ENDBRANCH   1   9
BRANCH   2  14
ATOM     14  O16   P A   1      91.524  96.627 -42.780  0.00  0.00    -0.359 OA
ATOM     15  H16   P A   1      91.803  96.443 -41.880  0.00  0.00     0.217 HD
ENDBRANCH   2  14
TORSDOF 3
