@<TRIPOS>MOLECULE
4x21.A
51 54 1 0 0 
SMALL
USER_CHARGES


@<TRIPOS>ATOM
  1 C01     18.8000    25.3400    71.9690 C.3   1 Q3WH  -0.2400 
  2 H011    19.0220    24.2759    71.8887 H     1 Q3WH   0.0800 
  3 H012    19.4056    25.7787    72.7620 H     1 Q3WH   0.0800 
  4 H013    19.0287    25.8312    71.0232 H     1 Q3WH   0.0800 
  5 C02     17.3040    25.5300    72.2990 C.3   1 Q3WH   0.1401 
  6 H021    17.0987    25.0179    73.2391 H     1 Q3WH   0.0800 
  7 H022    16.7218    25.0705    71.5003 H     1 Q3WH   0.0800 
  8 N03     16.8690    26.9110    72.4350 N.am  1 Q3WH  -0.7301 
  9 H03     17.2671    27.6138    71.8287 H     1 Q3WH   0.3700 
 10 C04     15.9030    27.2960    73.3940 C.2   1 Q3WH   0.6900 
 11 O05     15.4080    26.4630    74.1500 O.2   1 Q3WH  -0.5700 
 12 N06     15.5580    28.6060    73.4190 N.am  1 Q3WH  -0.6602 
 13 C07     14.5870    29.2290    74.3160 C.3   1 Q3WH   0.1401 
 14 H071    15.1275    29.8445    75.0352 H     1 Q3WH   0.0800 
 15 H072    14.0498    28.4408    74.8436 H     1 Q3WH   0.0800 
 16 C08     13.5860    30.0940    73.6090 C.3   1 Q3WH  -0.1600 
 17 H081    12.9937    30.6253    74.3540 H     1 Q3WH   0.0800 
 18 H082    12.9328    29.4577    73.0119 H     1 Q3WH   0.0800 
 19 C09     14.2380    31.0980    72.7060 C.3   1 Q3WH   0.2891 
 20 H09     14.7803    31.7645    73.3766 H     1 Q3WH   0.0800 
 21 C10     15.2300    30.4660    71.8050 C.3   1 Q3WH  -0.1600 
 22 H101    15.8091    31.2511    71.3188 H     1 Q3WH   0.0800 
 23 H102    14.6968    29.8876    71.0505 H     1 Q3WH   0.0800 
 24 C11     16.1730    29.5540    72.5300 C.3   1 Q3WH   0.1401 
 25 H111    16.7401    28.9963    71.7847 H     1 Q3WH   0.0800 
 26 H112    16.8531    30.1718    73.1164 H     1 Q3WH   0.0800 
 27 N12     13.3290    31.9870    72.0110 N.pl3 1 Q3WH  -0.8691 
 28 H12     12.3782    31.6599    71.9161 H     1 Q3WH   0.4000 
 29 C13     13.5870    33.1710    71.4860 C.ar  1 Q3WH   0.7200 
 30 N14     14.8400    33.5680    71.4040 N.ar  1 Q3WH  -0.6200 
 31 C15     15.0540    34.7540    70.8570 C.ar  1 Q3WH   0.3640 
 32 C16     14.0000    35.5310    70.4070 C.ar  1 Q3WH   0.0810 
 33 C18     12.7070    35.0190    70.5520 C.ar  1 Q3WH   0.1600 
 34 H18     11.8623    35.6039    70.2192 H     1 Q3WH   0.1500 
 35 N19     12.5050    33.8350    71.0880 N.ar  1 Q3WH  -0.6200 
 36 C20     16.4310    35.1830    70.7570 C.2   1 Q3WH  -0.0540 
 37 C21     16.9550    36.1620    70.0110 C.2   1 Q3WH  -0.3016 
 38 H21     16.3643    36.7918    69.3623 H     1 Q3WH   0.1500 
 39 N22     18.2820    36.2870    70.1450 N.pl3 1 Q3WH   0.0332 
 40 H22     18.8622    36.9785    69.6918 H     1 Q3WH   0.2700 
 41 C23     18.7050    35.3310    70.9880 C.ar  1 Q3WH  -0.1516 
 42 C24     17.5770    34.6050    71.4160 C.ar  1 Q3WH  -0.0000 
 43 C25     17.7310    33.5500    72.3040 C.ar  1 Q3WH  -0.1500 
 44 H25     16.8849    32.9721    72.6453 H     1 Q3WH   0.1500 
 45 C26     19.0170    33.2710    72.7330 C.ar  1 Q3WH  -0.1500 
 46 H26     19.1642    32.4474    73.4160 H     1 Q3WH   0.1500 
 47 C27     20.1210    33.9960    72.3290 C.ar  1 Q3WH  -0.1500 
 48 H27     21.1001    33.7545    72.7155 H     1 Q3WH   0.1500 
 49 C28     19.9670    35.0270    71.4320 C.ar  1 Q3WH  -0.1500 
 50 H28     20.8228    35.5864    71.0839 H     1 Q3WH   0.1500 
 51 I17     14.1980    37.4320    69.5680 I     1 Q3WH  -0.0810 
@<TRIPOS>BOND
  1   1   2  1   
  2   1   3  1   
  3   1   4  1   
  4   1   5  1   
  5   5   6  1   
  6   5   7  1   
  7   5   8  1   
  8   8   9  1   
  9   8  10  am  
 10  10  11  2   
 11  10  12  am  
 12  12  13  1   
 13  12  24  1   
 14  13  14  1   
 15  13  15  1   
 16  13  16  1   
 17  16  17  1   
 18  16  18  1   
 19  16  19  1   
 20  19  20  1   
 21  19  21  1   
 22  19  27  1   
 23  21  22  1   
 24  21  23  1   
 25  21  24  1   
 26  24  25  1   
 27  24  26  1   
 28  27  28  1   
 29  27  29  1   
 30  29  30  ar  
 31  29  35  ar  
 32  30  31  ar  
 33  31  32  ar  
 34  31  36  1   
 35  32  33  ar  
 36  32  51  1   
 37  33  34  1   
 38  33  35  ar  
 39  36  37  2   
 40  36  42  1   
 41  37  38  1   
 42  37  39  1   
 43  39  40  1   
 44  39  41  1   
 45  41  42  ar  
 46  41  49  ar  
 47  42  43  ar  
 48  43  44  1   
 49  43  45  ar  
 50  45  46  1   
 51  45  47  ar  
 52  47  48  1   
 53  47  49  ar  
 54  49  50  1   
@<TRIPOS>SUBSTRUCTURE
  1 Q3WH  21 GROUP 4 A **** 0

# MOE 2018.01 (io_trps.svl 2018.01)
