REMARK  4 active torsions:
REMARK  status: ('A' for Active; 'I' for Inactive)
REMARK    1  A    between atoms: C02_2  and  N03_3 
REMARK       I    between atoms: N03_3  and  C04_5 
REMARK       I    between atoms: C04_5  and  N06_7 
REMARK    2  A    between atoms: C09_10  and  N12_13 
REMARK    3  A    between atoms: N12_13  and  C13_15 
REMARK    4  A    between atoms: C15_17  and  C20_21 
ROOT
ATOM      1  C13 Q3W A   1      13.587  33.171  71.486  0.00  0.00     0.723 A 
ATOM      2  N14 Q3W A   1      14.840  33.568  71.404  0.00  0.00    -0.061 NA
ATOM      3  C15 Q3W A   1      15.054  34.754  70.857  0.00  0.00     0.106 A 
ATOM      4  C16 Q3W A   1      14.000  35.531  70.407  0.00  0.00     0.054 A 
ATOM      5  C18 Q3W A   1      12.707  35.019  70.552  0.00  0.00     0.157 A 
ATOM      6  N19 Q3W A   1      12.505  33.835  71.088  0.00  0.00    -0.074 NA
ATOM      7  I17 Q3W A   1      14.198  37.432  69.568  0.00  0.00    -0.041 I 
ENDROOT
BRANCH   1   8
ATOM      8  N12 Q3W A   1      13.329  31.987  72.011  0.00  0.00    -0.218 N 
ATOM      9  H12 Q3W A   1      12.378  31.660  71.916  0.00  0.00     0.178 HD
BRANCH   8  10
ATOM     10  C09 Q3W A   1      14.238  31.098  72.706  0.00  0.00     0.102 C 
ATOM     11  C08 Q3W A   1      13.586  30.094  73.609  0.00  0.00     0.045 C 
ATOM     12  C07 Q3W A   1      14.587  29.229  74.316  0.00  0.00     0.129 C 
ATOM     13  N06 Q3W A   1      15.558  28.606  73.419  0.00  0.00    -0.334 N 
ATOM     14  C04 Q3W A   1      15.903  27.296  73.394  0.00  0.00     0.318 C 
ATOM     15  C11 Q3W A   1      16.173  29.554  72.530  0.00  0.00     0.129 C 
ATOM     16  N03 Q3W A   1      16.869  26.911  72.435  0.00  0.00    -0.343 N 
ATOM     17  O05 Q3W A   1      15.408  26.463  74.150  0.00  0.00    -0.247 OA
ATOM     18  H03 Q3W A   1      17.267  27.614  71.829  0.00  0.00     0.164 HD
ATOM     19  C10 Q3W A   1      15.230  30.466  71.805  0.00  0.00     0.045 C 
BRANCH  16  20
ATOM     20  C02 Q3W A   1      17.304  25.530  72.299  0.00  0.00     0.120 C 
ATOM     21  C01 Q3W A   1      18.800  25.340  71.969  0.00  0.00     0.026 C 
ENDBRANCH  16  20
ENDBRANCH   8  10
ENDBRANCH   1   8
BRANCH   3  22
ATOM     22  C20 Q3W A   1      16.431  35.183  70.757  0.00  0.00     0.022 A 
ATOM     23  C21 Q3W A   1      16.955  36.162  70.011  0.00  0.00     0.103 A 
ATOM     24  N22 Q3W A   1      18.282  36.287  70.145  0.00  0.00    -0.364 N 
ATOM     25  H22 Q3W A   1      18.862  36.978  69.692  0.00  0.00     0.165 HD
ATOM     26  C23 Q3W A   1      18.705  35.331  70.988  0.00  0.00     0.043 A 
ATOM     27  C24 Q3W A   1      17.577  34.605  71.416  0.00  0.00     0.004 A 
ATOM     28  C28 Q3W A   1      19.967  35.027  71.432  0.00  0.00     0.030 A 
ATOM     29  C25 Q3W A   1      17.731  33.550  72.304  0.00  0.00     0.014 A 
ATOM     30  C26 Q3W A   1      19.017  33.271  72.733  0.00  0.00     0.001 A 
ATOM     31  C27 Q3W A   1      20.121  33.996  72.329  0.00  0.00     0.002 A 
ENDBRANCH   3  22
TORSDOF 4
