REMARK  4 active torsions:
REMARK  status: ('A' for Active; 'I' for Inactive)
REMARK    1  A    between atoms: C3_3  and  O10_11 
REMARK    2  A    between atoms: C9_10  and  C12_13 
REMARK       I    between atoms: C12_13  and  N13_14 
REMARK    3  A    between atoms: N13_14  and  C15_17 
REMARK    4  A    between atoms: N17_19  and  C20_22 
ROOT
ATOM      1  C12 HRQ B   1      -1.341  16.731 -13.476  0.00  0.00     0.254 C 
ATOM      2  N13 HRQ B   1      -0.655  16.220 -12.425  0.00  0.00    -0.351 N 
ATOM      3  H13 HRQ B   1      -0.969  16.409 -11.484  0.00  0.00     0.163 HD
ATOM      4  O14 HRQ B   1      -1.012  16.516 -14.645  0.00  0.00    -0.268 OA
ENDROOT
BRANCH   1   5
ATOM      5  C9  HRQ B   1      -2.489  17.590 -13.161  0.00  0.00     0.059 A 
ATOM      6  C5  HRQ B   1      -2.617  18.441 -11.946  0.00  0.00     0.010 A 
ATOM      7  C4  HRQ B   1      -1.818  18.727 -10.829  0.00  0.00     0.015 A 
ATOM      8  C6  HRQ B   1      -3.847  19.066 -12.131  0.00  0.00     0.077 A 
ATOM      9  C1  HRQ B   1      -2.317  19.660  -9.917  0.00  0.00     0.004 A 
ATOM     10  C2  HRQ B   1      -3.557  20.278 -10.080  0.00  0.00     0.039 A 
ATOM     11  C3  HRQ B   1      -4.354  19.978 -11.200  0.00  0.00     0.095 A 
ATOM     12  N7  HRQ B   1      -4.415  18.653 -13.297  0.00  0.00    -0.362 N 
ATOM     13  H7  HRQ B   1      -5.311  18.954 -13.651  0.00  0.00     0.165 HD
ATOM     14  C8  HRQ B   1      -3.601  17.790 -13.894  0.00  0.00     0.106 A 
BRANCH  11  15
ATOM     15  O10 HRQ B   1      -5.596  20.535 -11.428  0.00  0.00    -0.354 OA
ATOM     16  C11 HRQ B   1      -6.146  21.395 -10.410  0.00  0.00     0.210 C 
ENDBRANCH  11  15
ENDBRANCH   1   5
BRANCH   2  17
ATOM     17  C15 HRQ B   1       0.531  15.401 -12.639  0.00  0.00     0.104 C 
ATOM     18  C16 HRQ B   1       0.259  13.909 -12.883  0.00  0.00     0.148 C 
ATOM     19  N17 HRQ B   1       1.510  13.288 -12.450  0.00  0.00    -0.379 N 
ATOM     20  C18 HRQ B   1       2.334  14.181 -11.635  0.00  0.00     0.125 C 
ATOM     21  C19 HRQ B   1       1.419  15.393 -11.384  0.00  0.00     0.046 C 
BRANCH  19  22
ATOM     22  C20 HRQ B   1       1.994  12.119 -12.976  0.00  0.00     0.030 A 
ATOM     23  C21 HRQ B   1       3.311  11.710 -12.723  0.00  0.00     0.030 A 
ATOM     24  C22 HRQ B   1       3.834  10.542 -13.263  0.00  0.00     0.009 A 
ATOM     25  C23 HRQ B   1       3.054   9.755 -14.104  0.00  0.00    -0.062 A 
ATOM     26  C24 HRQ B   1       1.740  10.142 -14.362  0.00  0.00     0.009 A 
ATOM     27  C26 HRQ B   1       3.624   8.475 -14.710  0.00  0.00     0.048 C 
ATOM     28  C25 HRQ B   1       1.208  11.304 -13.808  0.00  0.00     0.030 A 
ENDBRANCH  19  22
ENDBRANCH   2  17
TORSDOF 4
