@<TRIPOS>MOLECULE
6q9y.B
49 52 1 0 0 
SMALL
USER_CHARGES


@<TRIPOS>ATOM
  1 C1      -2.3170    19.6600    -9.9170 C.ar  1 HRQ  -0.1500 
  2 H1      -1.7202    19.9125    -9.0530 H     1 HRQ   0.1500 
  3 C2      -3.5570    20.2780   -10.0800 C.ar  1 HRQ  -0.1500 
  4 H2      -3.9059    20.9882    -9.3450 H     1 HRQ   0.1500 
  5 C3      -4.3540    19.9780   -11.2000 C.ar  1 HRQ   0.0825 
  6 C4      -1.8180    18.7270   -10.8290 C.ar  1 HRQ  -0.1500 
  7 H4      -0.8614    18.2480   -10.6810 H     1 HRQ   0.1500 
  8 C5      -2.6170    18.4410   -11.9460 C.ar  1 HRQ  -0.0000 
  9 C6      -3.8470    19.0660   -12.1310 C.ar  1 HRQ  -0.1516 
 10 N7      -4.4150    18.6530   -13.2970 N.pl3 1 HRQ   0.0332 
 11 H7      -5.3115    18.9544   -13.6513 H     1 HRQ   0.2700 
 12 C8      -3.6010    17.7900   -13.8940 C.2   1 HRQ  -0.3016 
 13 H8      -3.8038    17.3122   -14.8411 H     1 HRQ   0.1500 
 14 C9      -2.4890    17.5900   -13.1610 C.2   1 HRQ  -0.0860 
 15 O10     -5.5960    20.5350   -11.4280 O.3   1 HRQ  -0.3625 
 16 C11     -6.1460    21.3950   -10.4100 C.3   1 HRQ   0.0400 
 17 H111    -7.1234    21.7568   -10.7292 H     1 HRQ   0.0800 
 18 H112    -5.4791    22.2424   -10.2510 H     1 HRQ   0.0800 
 19 H113    -6.2513    20.8361    -9.4802 H     1 HRQ   0.0800 
 20 C12     -1.3410    16.7310   -13.4760 C.2   1 HRQ   0.7160 
 21 N13     -0.6550    16.2200   -12.4250 N.am  1 HRQ  -0.7301 
 22 H13     -0.9690    16.4087   -11.4838 H     1 HRQ   0.3700 
 23 O14     -1.0120    16.5160   -14.6450 O.2   1 HRQ  -0.5700 
 24 C15      0.5310    15.4010   -12.6390 C.3   1 HRQ   0.2201 
 25 H15      0.9840    15.8551   -13.5203 H     1 HRQ   0.0800 
 26 C16      0.2590    13.9090   -12.8830 C.3   1 HRQ   0.2091 
 27 H161     0.0642    13.7107   -13.9370 H     1 HRQ   0.0800 
 28 H162    -0.5828    13.5586   -12.2858 H     1 HRQ   0.0800 
 29 N17      1.5100    13.2880   -12.4500 N.pl3 1 HRQ  -0.8382 
 30 C18      2.3340    14.1810   -11.6350 C.3   1 HRQ   0.2091 
 31 H181     3.2342    14.4783   -12.1729 H     1 HRQ   0.0800 
 32 H182     2.6130    13.7034   -10.6958 H     1 HRQ   0.0800 
 33 C19      1.4190    15.3930   -11.3840 C.3   1 HRQ  -0.1600 
 34 H191     0.8241    15.2577   -10.4807 H     1 HRQ   0.0800 
 35 H192     1.9970    16.3137   -11.3039 H     1 HRQ   0.0800 
 36 C20      1.9940    12.1190   -12.9760 C.ar  1 HRQ   0.1000 
 37 C21      3.3110    11.7100   -12.7230 C.ar  1 HRQ  -0.1500 
 38 H21      3.9371    12.3210   -12.0897 H     1 HRQ   0.1500 
 39 C22      3.8340    10.5420   -13.2630 C.ar  1 HRQ  -0.1500 
 40 H22      4.8459    10.2450   -13.0300 H     1 HRQ   0.1500 
 41 C23      3.0540     9.7550   -14.1040 C.ar  1 HRQ  -0.1435 
 42 C24      1.7400    10.1420   -14.3620 C.ar  1 HRQ  -0.1500 
 43 H24      1.1232     9.5297   -15.0031 H     1 HRQ   0.1500 
 44 C25      1.2080    11.3040   -13.8080 C.ar  1 HRQ  -0.1500 
 45 H25      0.1855    11.5801   -14.0192 H     1 HRQ   0.1500 
 46 C26      3.6240     8.4750   -14.7100 C.3   1 HRQ  -0.0965 
 47 H261     4.6586     8.3510   -14.3902 H     1 HRQ   0.0800 
 48 H262     3.5850     8.5391   -15.7974 H     1 HRQ   0.0800 
 49 H263     3.0353     7.6209   -14.3751 H     1 HRQ   0.0800 
@<TRIPOS>BOND
  1   1   2  1   
  2   1   3  ar  
  3   1   6  ar  
  4   3   4  1   
  5   3   5  ar  
  6   5   9  ar  
  7   5  15  1   
  8   6   7  1   
  9   6   8  ar  
 10   8   9  ar  
 11   8  14  1   
 12   9  10  1   
 13  10  11  1   
 14  10  12  1   
 15  12  13  1   
 16  12  14  2   
 17  14  20  1   
 18  15  16  1   
 19  16  17  1   
 20  16  18  1   
 21  16  19  1   
 22  20  21  am  
 23  20  23  2   
 24  21  22  1   
 25  21  24  1   
 26  24  25  1   
 27  24  26  1   
 28  24  33  1   
 29  26  27  1   
 30  26  28  1   
 31  26  29  1   
 32  29  30  1   
 33  29  36  1   
 34  30  31  1   
 35  30  32  1   
 36  30  33  1   
 37  33  34  1   
 38  33  35  1   
 39  36  37  ar  
 40  36  44  ar  
 41  37  38  1   
 42  37  39  ar  
 43  39  40  1   
 44  39  41  ar  
 45  41  42  ar  
 46  41  46  1   
 47  42  43  1   
 48  42  44  ar  
 49  44  45  1   
 50  46  47  1   
 51  46  48  1   
 52  46  49  1   
@<TRIPOS>SUBSTRUCTURE
  1 HRQ  21 GROUP 4 B **** 0

# MOE 2018.01 (io_trps.svl 2018.01)
