# created with PyMOL 2.4.0
@<TRIPOS>MOLECULE
6S1J
34 37 1                 
SMALL
USER_CHARGES
@<TRIPOS>ATOM
1	   N	15.064	-56.253	37.956	N.pl3	1	KRK501	0.000	
2	   C	13.831	-58.219	37.874	C.3	1	KRK501	0.000	
3	  C1	14.014	-56.936	38.683	C.3	1	KRK501	0.000	
4	  N1	15.025	-54.470	39.381	N.2	1	KRK501	0.000	
5	  C2	15.610	-57.063	36.873	C.3	1	KRK501	0.000	
6	  N2	19.835	-51.550	36.424	N.2	1	KRK501	0.000	
7	  C3	15.098	-58.399	37.121	C.3	1	KRK501	0.000	
8	  N3	19.676	-52.588	35.610	N.2	1	KRK501	0.000	
9	  C4	15.583	-55.063	38.320	C.2	1	KRK501	0.000	
10	  N4	20.497	-52.702	34.548	N.2	1	KRK501	0.000	
11	  C5	15.565	-53.286	39.714	C.2	1	KRK501	0.000	
12	  N5	16.603	-54.599	37.578	N.2	1	KRK501	0.000	
13	  C6	16.614	-52.709	39.042	C.2	1	KRK501	0.000	
14	  C7	17.109	-53.405	37.955	C.2	1	KRK501	0.000	
15	  C8	18.164	-52.907	37.124	C.2	1	KRK501	0.000	
16	  C9	18.916	-51.745	37.341	C.2	1	KRK501	0.000	
17	 C10	18.709	-53.457	35.971	C.2	1	KRK501	0.000	
18	 C11	18.492	-54.584	35.138	C.2	1	KRK501	0.000	
19	 C12	19.285	-54.762	34.049	C.2	1	KRK501	0.000	
20	 C13	20.275	-53.793	33.816	C.2	1	KRK501	0.000	
21	   F	16.053	-58.995	37.985	 F	1	KRK501	0.000	
22	   H	12.965	-58.153	37.216	 H	1	KRK501	0.000	
23	  H1	13.611	-59.068	38.520	 H	1	KRK501	0.000	
24	  H2	14.303	-57.121	39.716	 H	1	KRK501	0.000	
25	  H3	13.110	-56.332	38.735	 H	1	KRK501	0.000	
26	  H4	16.698	-57.033	36.861	 H	1	KRK501	0.000	
27	  H5	15.310	-56.681	35.898	 H	1	KRK501	0.000	
28	  H6	14.962	-59.013	36.231	 H	1	KRK501	0.000	
29	  H7	15.101	-52.805	40.574	 H	1	KRK501	0.000	
30	  H8	17.025	-51.752	39.360	 H	1	KRK501	0.000	
31	  H9	18.809	-51.032	38.158	 H	1	KRK501	0.000	
32	 H10	17.693	-55.279	35.395	 H	1	KRK501	0.000	
33	 H11	19.175	-55.611	33.376	 H	1	KRK501	0.000	
34	 H12	20.966	-53.867	32.977	 H	1	KRK501	0.000	
@<TRIPOS>BOND
1 1 3 1
2 1 5 1
3 1 9 1
4 2 3 1
5 2 7 1
6 2 22 1
7 2 23 1
8 3 24 1
9 3 25 1
10 4 9 ar
11 4 11 ar
12 5 7 1
13 5 26 1
14 5 27 1
15 6 8 ar
16 6 16 ar
17 7 21 1
18 7 28 1
19 8 10 ar
20 8 17 ar
21 9 12 ar
22 10 20 ar
23 11 13 ar
24 11 29 1
25 12 14 ar
26 13 14 ar
27 13 30 1
28 14 15 1
29 15 16 ar
30 15 17 ar
31 16 31 1
32 17 18 ar
33 18 19 ar
34 18 32 1
35 19 20 ar
36 19 33 1
37 20 34 1
@<TRIPOS>SUBSTRUCTURE
1	KRK501	1	GROUP	1 A	KRK
