REMARK  1 active torsions:
REMARK  status: ('A' for Active; 'I' for Inactive)
REMARK    1  A    between atoms: C7_14  and  C8_15 
ROOT
ATOM      1  N   KRK A   1      15.064 -56.253  37.956  0.00  0.00    -0.211 N 
ATOM      2  C   KRK A   1      13.831 -58.219  37.874  0.00  0.00     0.059 C 
ATOM      3  C1  KRK A   1      14.014 -56.936  38.683  0.00  0.00     0.144 C 
ATOM      4  N1  KRK A   1      15.025 -54.470  39.381  0.00  0.00    -0.075 NA
ATOM      5  C2  KRK A   1      15.610 -57.063  36.873  0.00  0.00     0.178 C 
ATOM      6  C3  KRK A   1      15.098 -58.399  37.121  0.00  0.00     0.190 C 
ATOM      7  C4  KRK A   1      15.583 -55.063  38.320  0.00  0.00     0.725 A 
ATOM      8  C5  KRK A   1      15.565 -53.286  39.714  0.00  0.00     0.139 A 
ATOM      9  N5  KRK A   1      16.603 -54.599  37.578  0.00  0.00    -0.062 NA
ATOM     10  C6  KRK A   1      16.614 -52.709  39.042  0.00  0.00     0.053 A 
ATOM     11  C7  KRK A   1      17.109 -53.405  37.955  0.00  0.00     0.091 A 
ATOM     12  F   KRK A   1      16.053 -58.995  37.985  0.00  0.00    -0.248 F 
ENDROOT
BRANCH  11  13
ATOM     13  C8  KRK A   1      18.164 -52.907  37.124  0.00  0.00     0.043 A 
ATOM     14  C9  KRK A   1      18.916 -51.745  37.341  0.00  0.00     0.157 A 
ATOM     15  N2  KRK A   1      19.835 -51.550  36.424  0.00  0.00    -0.161 NA
ATOM     16  N3  KRK A   1      19.676 -52.588  35.610  0.00  0.00    -0.151 N 
ATOM     17  N4  KRK A   1      20.497 -52.702  34.548  0.00  0.00    -0.162 NA
ATOM     18  C10 KRK A   1      18.709 -53.457  35.971  0.00  0.00     0.093 A 
ATOM     19  C13 KRK A   1      20.275 -53.793  33.816  0.00  0.00     0.141 A 
ATOM     20  C12 KRK A   1      19.285 -54.762  34.049  0.00  0.00     0.023 A 
ATOM     21  C11 KRK A   1      18.492 -54.584  35.138  0.00  0.00     0.036 A 
ENDBRANCH  11  13
TORSDOF 1
