REMARK  11 active torsions:
REMARK  status: ('A' for Active; 'I' for Inactive)
REMARK       I    between atoms: N_1  and  C_2 
REMARK    1  A    between atoms: N_1  and  C1_4 
REMARK    2  A    between atoms: C_2  and  C8_20 
REMARK    3  A    between atoms: C1_4  and  C2_8 
REMARK    4  A    between atoms: N1_5  and  C4_12 
REMARK    5  A    between atoms: C4_12  and  C5_14 
REMARK       I    between atoms: N4_13  and  C17_29 
REMARK    6  A    between atoms: N4_13  and  C18_30 
REMARK    7  A    between atoms: N5_15  and  C21_33 
REMARK    8  A    between atoms: C10_22  and  C11_23 
REMARK    9  A    between atoms: C12_24  and  C13_25 
REMARK   10  A    between atoms: C16_28  and  C17_29 
REMARK   11  A    between atoms: C18_30  and  C19_31 
ROOT
ATOM      1  C11 O9E D   1       6.644 -16.876 -45.621  0.00  0.00    -0.018 C 
ATOM      2  C12 O9E D   1       6.332 -16.670 -44.330  0.00  0.00    -0.018 C 
ATOM      3  C25 O9E D   1       7.471 -16.022 -43.582  0.00  0.00    -0.010 C 
ATOM      4  C26 O9E D   1       8.630 -16.063 -44.574  0.00  0.00     0.056 C 
ATOM      5  C27 O9E D   1       8.034 -16.383 -45.939  0.00  0.00    -0.010 C 
ENDROOT
BRANCH   1   6
ATOM      6  C10 O9E D   1       5.809 -17.533 -46.640  0.00  0.00    -0.011 A 
ATOM      7  C9  O9E D   1       5.248 -18.833 -46.418  0.00  0.00     0.038 A 
ATOM      8  C8  O9E D   1       4.330 -19.188 -47.364  0.00  0.00     0.074 A 
ATOM      9  S1  O9E D   1       4.158 -17.957 -48.559  0.00  0.00    -0.089 SA
ATOM     10  C28 O9E D   1       5.325 -16.939 -47.781  0.00  0.00    -0.009 A 
ATOM     11  C29 O9E D   1       5.632 -15.600 -48.380  0.00  0.00     0.057 C 
BRANCH   8  12
ATOM     12  C   O9E D   1       3.465 -20.366 -47.627  0.00  0.00     0.260 C 
ATOM     13  N   O9E D   1       2.627 -20.912 -46.589  0.00  0.00    -0.346 N 
ATOM     14  C7  O9E D   1       1.713 -22.011 -46.879  0.00  0.00     0.153 C 
ATOM     15  O   O9E D   1       3.440 -20.820 -48.774  0.00  0.00    -0.267 OA
BRANCH  13  16
ATOM     16  C1  O9E D   1       2.638 -20.419 -45.218  0.00  0.00     0.188 C 
BRANCH  16  17
ATOM     17  C2  O9E D   1       3.549 -21.211 -44.331  0.00  0.00     0.093 A 
ATOM     18  C3  O9E D   1       4.775 -21.752 -44.586  0.00  0.00     0.144 A 
ATOM     19  N1  O9E D   1       5.080 -22.456 -43.487  0.00  0.00    -0.261 N 
ATOM     20  N2  O9E D   1       4.106 -22.351 -42.566  0.00  0.00    -0.066 NA
ATOM     21  N3  O9E D   1       3.174 -21.589 -43.083  0.00  0.00    -0.134 NA
BRANCH  19  22
ATOM     22  C4  O9E D   1       6.264 -23.277 -43.239  0.00  0.00     0.152 C 
BRANCH  22  23
ATOM     23  C5  O9E D   1       5.926 -24.444 -42.323  0.00  0.00     0.017 C 
ATOM     24  C6  O9E D   1       6.975 -24.629 -41.275  0.00  0.00     0.007 C 
ENDBRANCH  22  23
ENDBRANCH  19  22
ENDBRANCH  16  17
ENDBRANCH  13  16
ENDBRANCH   8  12
ENDBRANCH   1   6
BRANCH   2  25
ATOM     25  C13 O9E D   1       5.082 -17.026 -43.644  0.00  0.00    -0.011 A 
ATOM     26  C14 O9E D   1       3.820 -16.629 -44.024  0.00  0.00    -0.009 A 
ATOM     27  C15 O9E D   1       3.384 -15.735 -45.148  0.00  0.00     0.057 C 
ATOM     28  S   O9E D   1       2.614 -17.321 -42.983  0.00  0.00    -0.089 SA
ATOM     29  C16 O9E D   1       3.803 -18.147 -42.044  0.00  0.00     0.074 A 
ATOM     30  C24 O9E D   1       5.066 -17.896 -42.510  0.00  0.00     0.038 A 
BRANCH  29  31
ATOM     31  C17 O9E D   1       3.223 -19.006 -40.987  0.00  0.00     0.260 C 
ATOM     32  O1  O9E D   1       2.024 -18.891 -40.743  0.00  0.00    -0.267 OA
ATOM     33  N4  O9E D   1       4.034 -19.959 -40.293  0.00  0.00    -0.346 N 
ATOM     34  C23 O9E D   1       5.481 -20.097 -40.417  0.00  0.00     0.153 C 
BRANCH  33  35
ATOM     35  C18 O9E D   1       3.379 -20.800 -39.303  0.00  0.00     0.188 C 
BRANCH  35  36
ATOM     36  C19 O9E D   1       3.275 -19.970 -38.061  0.00  0.00     0.093 A 
ATOM     37  N7  O9E D   1       4.364 -19.701 -37.297  0.00  0.00    -0.134 NA
ATOM     38  N6  O9E D   1       4.007 -18.941 -36.294  0.00  0.00    -0.066 NA
ATOM     39  N5  O9E D   1       2.690 -18.716 -36.421  0.00  0.00    -0.261 N 
ATOM     40  C20 O9E D   1       2.205 -19.329 -37.512  0.00  0.00     0.144 A 
BRANCH  39  41
ATOM     41  C21 O9E D   1       1.935 -17.934 -35.438  0.00  0.00     0.147 C 
ATOM     42  C22 O9E D   1       1.554 -18.752 -34.228  0.00  0.00     0.028 C 
ENDBRANCH  39  41
ENDBRANCH  35  36
ENDBRANCH  33  35
ENDBRANCH  29  31
ENDBRANCH   2  25
TORSDOF 11
